AV-unprocessed.smi:3292|AV-procd|sdf|12625|dock3
  -GOLD-   2272018563D 1   1.00000     0.00000
 Structure written by MMmdl.
 38 39  0  0  0  0  0  0  0  0  1 V2000
  145.3477  134.5201  154.2492 C   0  0  0  0  0  0  0  0  0  0  0  0
  145.6527  134.8362  152.7787 C   0  0  2  0  0  0  0  0  0  0  0  0
  146.2591  133.6146  152.0561 C   0  0  0  0  0  0  0  0  0  0  0  0
  145.3111  132.9528  151.1782 N   0  0  0  0  0  0  0  0  0  0  0  0
  143.9668  133.2591  151.0122 C   0  0  0  0  0  0  0  0  0  0  0  0
  143.4743  132.3748  150.0793 C   0  0  0  0  0  0  0  0  0  0  0  0
  144.4891  131.5140  149.6677 N   0  0  0  0  0  0  0  0  0  0  0  0
  145.5454  131.9156  150.3624 C   0  0  0  0  0  0  0  0  0  0  0  0
  146.5596  135.9823  152.7177 N   0  0  0  0  0  0  0  0  0  0  0  0
  146.2576  137.2362  153.0855 C   0  0  0  0  0  0  0  0  0  0  0  0
  145.1652  137.5801  153.5370 O   0  0  0  0  0  0  0  0  0  0  0  0
  147.2847  138.0735  152.8845 N   0  0  0  0  0  0  0  0  0  0  0  0
  147.2620  139.5105  153.1397 C   0  0  0  0  0  0  0  0  0  0  0  0
  148.2306  139.9040  154.2706 C   0  0  2  0  0  0  0  0  0  0  0  0
  148.4946  141.3929  154.3605 C   0  0  0  0  0  0  0  0  0  0  0  0
  149.7668  141.4358  155.2009 C   0  0  0  0  0  0  0  0  0  0  0  0
  150.4854  140.2494  154.8764 O   0  0  0  0  0  0  0  0  0  0  0  0
  149.6558  139.3637  154.1302 C   0  0  0  0  0  0  0  0  0  0  0  0
  144.6476  133.6887  154.3339 H   0  0  0  0  0  0  0  0  0  0  0  0
  144.8995  135.3785  154.7510 H   0  0  0  0  0  0  0  0  0  0  0  0
  146.2524  134.2495  154.7946 H   0  0  0  0  0  0  0  0  0  0  0  0
  144.7036  135.0892  152.3024 H   0  0  0  0  0  0  0  0  0  0  0  0
  147.1349  133.9078  151.4753 H   0  0  0  0  0  0  0  0  0  0  0  0
  146.6015  132.8801  152.7860 H   0  0  0  0  0  0  0  0  0  0  0  0
  143.4876  134.0634  151.5506 H   0  0  0  0  0  0  0  0  0  0  0  0
  142.4754  132.2911  149.6773 H   0  0  0  0  0  0  0  0  0  0  0  0
  146.5151  131.4486  150.2695 H   0  0  0  0  0  0  0  0  0  0  0  0
  147.4856  135.8064  152.3561 H   0  0  0  0  0  0  0  0  0  0  0  0
  148.1412  137.6932  152.5094 H   0  0  0  0  0  0  0  0  0  0  0  0
  147.4832  140.0724  152.2306 H   0  0  0  0  0  0  0  0  0  0  0  0
  146.2445  139.7810  153.4227 H   0  0  0  0  0  0  0  0  0  0  0  0
  147.8240  139.5692  155.2266 H   0  0  0  0  0  0  0  0  0  0  0  0
  148.6879  141.8068  153.3695 H   0  0  0  0  0  0  0  0  0  0  0  0
  147.6711  141.9494  154.8089 H   0  0  0  0  0  0  0  0  0  0  0  0
  150.3626  142.3287  155.0107 H   0  0  0  0  0  0  0  0  0  0  0  0
  149.5212  141.4123  156.2634 H   0  0  0  0  0  0  0  0  0  0  0  0
  149.7480  138.3393  154.4906 H   0  0  0  0  0  0  0  0  0  0  0  0
  149.9800  139.3862  153.0888 H   0  0  0  0  0  0  0  0  0  0  0  0
  1  2  1  0  0  0  0
  1 19  1  0  0  0  0
  1 20  1  0  0  0  0
  1 21  1  0  0  0  0
  2  3  1  0  0  0  0
  2  9  1  0  0  0  0
  2 22  1  0  0  0  0
  3  4  1  0  0  0  0
  3 23  1  0  0  0  0
  3 24  1  0  0  0  0
  4  8  1  0  0  0  0
  4  5  1  0  0  0  0
  5  6  2  0  0  0  0
  5 25  1  0  0  0  0
  6  7  1  0  0  0  0
  6 26  1  0  0  0  0
  7  8  2  0  0  0  0
  8 27  1  0  0  0  0
  9 10  1  0  0  0  0
  9 28  1  0  0  0  0
 10 11  2  0  0  0  0
 10 12  1  0  0  0  0
 12 13  1  0  0  0  0
 12 29  1  0  0  0  0
 13 14  1  0  0  0  0
 13 30  1  0  0  0  0
 13 31  1  0  0  0  0
 14 18  1  0  0  0  0
 14 15  1  0  0  0  0
 14 32  1  0  0  0  0
 15 16  1  0  0  0  0
 15 33  1  0  0  0  0
 15 34  1  0  0  0  0
 16 17  1  0  0  0  0
 16 35  1  0  0  0  0
 16 36  1  0  0  0  0
 17 18  1  0  0  0  0
 18 37  1  0  0  0  0
 18 38  1  0  0  0  0
M  END
> <s_m_source_file>
AV-unprocessed.smi

> <i_m_source_file_index>
3292

> <i_lp_mmshare_version>
43012

> <i_f3d_flags>
0

> <s_epik_input>
W2NIXTFuW2NIXVtjSF1uMVtDSDJdW0NAQEhdKFtDSDNdKVtOSF1DKD1PKVtOSF1bQ0gyXVtDQEBIXTJbQ0gyXVtDSDJdT1tDSDJdMg==

> <s_epik_cmdline>
J2VwaWtfcHl0aG9uJywgJy1waCcsICc3LjAnLCAnLXRuJywgJzgnLCAnLW1hJywgJzIwMCcsICctbWV0YWxfYmluZGluZycsICctaW1hZScsICc8aW5maWxlLm1hZT4nLCAnLW9tYWUnLCAnPG91dGZpbGUubWFlPic=

> <r_lp_tautomer_probability>
1

> <r_epik_Ionization_Penalty>
0.621291

> <r_epik_Ionization_Penalty_Charging>
0.621234

> <r_epik_Ionization_Penalty_Neutral>
5.72199e-05

> <r_epik_State_Penalty>
0.637278

> <r_epik_Charging_Adjusted_Penalty>
1.25851

> <i_epik_Tot_Q>
0

> <i_epik_Tot_abs_Q>
0

> <r_epik_Metal_State_Penalty>
0.306757

> <b_epik_Metal_Only>
0

> <s_lp_Force_Field>
OPLS_2005

> <r_lp_Energy>
18.0177

> <b_lp_Chiralities_Consistent>
1

> <s_lp_Variant>
AV-unprocessed.smi:3292-5

> <Gold.Version>
5.8.1

> <Gold.Id.Protein>
6NUR|6NUR_protein|mol2

> <Gold.PLP.Fitness>
46.3424

> <Gold.PLP.PLP>
-29.8611

> <Gold.PLP.part.hbond>
-4.0000

> <Gold.PLP.part.metal>
0.0000

> <Gold.PLP.part.buried>
-1.4337

> <Gold.PLP.part.nonpolar>
-25.3684

> <Gold.PLP.part.repulsive>
0.4299

> <Gold.PLP.ligand.clash>
0.0000

> <Gold.PLP.ligand.torsion>
0.8086

> <Gold.PLP.Chemscore.Hbond>
3.3301

> <Gold.PLP.Chemscore.CHOScore>
2.6857

> <Gold.PLP.Chemscore.Metal>
0.0000

> <Gold.Chemscore.Hbonds>
donor molecule, donor type, donor heavy atom, donor atom, acceptor molecule, acceptor atom, score
      L1  H     9    28       P1  7948  1.00
      L1  H    12    29       P1  7948  0.93
      P1  H  7989  7998       L1    17  1.00
      P1  H 10785 10796       L1     7  0.31
      L1  C     6    26       P1 10186  0.69
      L1  C     6    26       P1 10952  0.96
      L1  C     8    27       P1 10747  1.00

> <Gold.PLP.Chemscore.Internal.Correction>
0.0510

> <Gold.Rescore>
     Score         DG    S(hbond)    S(metal)    S(lipo)     H(rot)  DE(clash)    DE(int)     intcor
     14.99     -16.35       2.80        0.00      60.25       2.16       0.70       0.66       ----

> <Gold.Chemscore.Fitness>
14.9930

> <Gold.Chemscore.DG>
-16.3495

> <Gold.Chemscore.ZeroCoef>
-5.4800

> <Gold.Chemscore.Hbond>
2.7977

> <Gold.Chemscore.Metal>
0.0000

> <Gold.Chemscore.Lipo>
60.2468

> <Gold.Chemscore.Internal_Hbond>
0.0000

> <Gold.Chemscore.DEClash>
0.6960

> <Gold.Chemscore.DEInternal>
0.6605

> <Gold.Chemscore.Rot>
2.1577

> <Gold.Chemscore.Internal.Correction>
   9.000000E+99

> <Gold.Chemscore.Hbonds>
donor molecule, donor type, donor heavy atom, donor atom, acceptor molecule, acceptor atom, score
      L1  H     9    28       P1  7948  0.96
      L1  H    12    29       P1  7948  0.91
      P1  H  7989  7998       L1    17  0.08
      P1  H 10785 10796       L1     7  0.04

> <Gold.Chemscore.Hbond.Weighted>
-9.3444

> <Gold.Chemscore.Metal.Weighted>
-0.0000

> <Gold.Chemscore.Lipo.Weighted>
-7.0489

> <Gold.Chemscore.Internal_Hbond.Weighted>
0.0000

> <Gold.Chemscore.DEClash.Weighted>
0.6960

> <Gold.Chemscore.DEInternal.Weighted>
0.6605

> <Gold.Chemscore.Rot.Weighted>
5.5237

> <Gold.Chemscore.Internal.Correction.Weighted>
   9.000000E+99

> <Gold.Protein.RotatedTorsions>
[ 6907 6896 6895 6894 ] final   30.98 input  -60.11 | X-H torsion
[ 7974 7965 7964 7962 ] final   -2.61 input  175.53 | X-H torsion
[ 8008 7997 7996 7995 ] final -170.60 input   59.86 | X-H torsion
[ 10167 10162 10161 10158 ] final -179.49 input  -65.29 | X-H torsion
[ 10718 10713 10712 10709 ] final    2.72 input   66.30 | X-H torsion
[ 10763 10752 10751 10750 ] final   40.08 input  -60.55 | X-H torsion
[ 11005 11000 10999 10996 ] final   -7.19 input  -57.11 | X-H torsion

> <Gold.Protein.ActiveResidues>
 VAL166  LYS551  ARG553  GLY616  TRP617  ASP618  TYR619  PRO620  LYS621  CYS622 
 ASP623  PHE694  ASN695  SER759  ASP760  ASP761  ALA762  ILE779  LEU786  VAL792 
 PHE793  MET794  SER795  GLU796  ALA797  LYS798  CYS799  TRP800  GLU811  SER814 

> <Gold.Protein.RotatedAtoms>
  152.0537  134.9638  160.0574 H   0  0  0  0  0  0  0  0  0  0  0  0  # atno 6907 bound_to 6896
  152.1028  133.4254  159.4603 H   0  0  0  0  0  0  0  0  0  0  0  0  # atno 6908 bound_to 6896
  150.6840  134.2659  159.4611 H   0  0  0  0  0  0  0  0  0  0  0  0  # atno 6909 bound_to 6896
  146.2402  140.1597  142.8333 H   0  0  0  0  0  0  0  0  0  0  0  0  # atno 7974 bound_to 7965
  155.9205  140.1073  157.1211 H   0  0  0  0  0  0  0  0  0  0  0  0  # atno 8008 bound_to 7997
  154.4053  140.1257  156.4738 H   0  0  0  0  0  0  0  0  0  0  0  0  # atno 8009 bound_to 7997
  155.7202  140.3470  155.5015 H   0  0  0  0  0  0  0  0  0  0  0  0  # atno 8010 bound_to 7997
  139.5384  144.2432  152.0843 H   0  0  0  0  0  0  0  0  0  0  0  0  # atno 10167 bound_to 10162
  156.8671  130.5607  149.5659 H   0  0  0  0  0  0  0  0  0  0  0  0  # atno 10718 bound_to 10713
  152.9947  135.6202  154.2568 H   0  0  0  0  0  0  0  0  0  0  0  0  # atno 10763 bound_to 10752
  154.2305  135.2792  155.2893 H   0  0  0  0  0  0  0  0  0  0  0  0  # atno 10764 bound_to 10752
  154.5453  135.5749  153.6933 H   0  0  0  0  0  0  0  0  0  0  0  0  # atno 10765 bound_to 10752
  140.7101  133.8916  155.8744 H   0  0  0  0  0  0  0  0  0  0  0  0  # atno 11005 bound_to 11000
  145.0100  140.8705  143.5230 LP  0  0  0  0  0  0  0  0  0  0  0  0  # atno 17320 bound_to 7965
  145.1629  139.2448  143.5382 LP  0  0  0  0  0  0  0  0  0  0  0  0  # atno 17321 bound_to 7965
  140.1907  144.4755  150.6480 LP  0  0  0  0  0  0  0  0  0  0  0  0  # atno 17342 bound_to 10162
  140.6602  143.2250  151.5874 LP  0  0  0  0  0  0  0  0  0  0  0  0  # atno 17343 bound_to 10162
  156.0746  130.5771  150.9448 LP  0  0  0  0  0  0  0  0  0  0  0  0  # atno 17370 bound_to 10713
  157.6217  131.0929  150.8610 LP  0  0  0  0  0  0  0  0  0  0  0  0  # atno 17371 bound_to 10713
  141.0092  134.1044  157.4239 LP  0  0  0  0  0  0  0  0  0  0  0  0  # atno 17394 bound_to 11000
  139.8874  135.0089  156.6557 LP  0  0  0  0  0  0  0  0  0  0  0  0  # atno 17395 bound_to 11000

$$$$
