AV-unprocessed.smi:557|AV-procd|sdf|2914|dock10
  -GOLD-   2262023403D 1   1.00000     0.00000
 Structure written by MMmdl.
 47 49  0  0  0  0  0  0  0  0  2 V2000
  148.7601  140.9052  154.5791 C   0  0  0  0  0  0  0  0  0  0  0  0
  149.8834  140.0058  154.7335 N   0  0  0  0  0  0  0  0  0  0  0  0
  150.1406  138.8279  154.0658 C   0  0  0  0  0  0  0  0  0  0  0  0
  151.3175  138.3306  154.5506 C   0  0  0  0  0  0  0  0  0  0  0  0
  152.0357  137.0690  154.1620 C   0  0  0  0  0  0  0  0  0  0  0  0
  151.4572  135.8483  154.8889 C   0  0  0  0  0  0  0  0  0  0  0  0
  150.2896  135.3326  154.1798 N   0  0  0  0  0  0  0  0  0  0  0  0
  149.5574  134.2523  154.4994 C   0  0  0  0  0  0  0  0  0  0  0  0
  149.8128  133.5595  155.4822 O   0  0  0  0  0  0  0  0  0  0  0  0
  148.5311  134.0065  153.6666 N   0  0  0  0  0  0  0  0  0  0  0  0
  147.5919  132.8933  153.7881 C   0  0  2  0  0  0  0  0  0  0  0  0
  148.2600  131.5195  153.5875 C   0  0  0  0  0  0  0  0  0  0  0  0
  147.2516  130.7151  152.7608 C   0  0  0  0  0  0  0  0  0  0  0  0
  146.6263  131.7410  151.9184 N   0  3  1  0  0  0  0  0  0  0  0  0
  145.4179  131.3832  151.1481 C   0  0  0  0  0  0  0  0  0  0  0  0
  145.0711  132.5600  150.2108 C   0  0  0  0  0  0  0  0  0  0  0  0
  144.9727  133.9034  150.9691 C   0  0  0  0  0  0  0  0  0  0  0  0
  146.2105  134.1549  151.8575 C   0  0  0  0  0  0  0  0  0  0  0  0
  146.4320  132.9312  152.7645 C   0  0  2  0  0  0  0  0  0  0  0  0
  151.7079  139.2947  155.5235 C   0  0  0  0  0  0  0  0  0  0  0  0
  150.8479  140.2944  155.6310 N   0  0  0  0  0  0  0  0  0  0  0  0
  148.0264  140.4738  153.8973 H   0  0  0  0  0  0  0  0  0  0  0  0
  149.1036  141.8577  154.1749 H   0  0  0  0  0  0  0  0  0  0  0  0
  148.2861  141.0757  155.5462 H   0  0  0  0  0  0  0  0  0  0  0  0
  149.4720  138.4433  153.3097 H   0  0  0  0  0  0  0  0  0  0  0  0
  151.9730  136.9116  153.0844 H   0  0  0  0  0  0  0  0  0  0  0  0
  153.0995  137.1525  154.3879 H   0  0  0  0  0  0  0  0  0  0  0  0
  152.2159  135.0669  154.9608 H   0  0  0  0  0  0  0  0  0  0  0  0
  151.1720  136.1219  155.9063 H   0  0  0  0  0  0  0  0  0  0  0  0
  150.0052  135.8489  153.3596 H   0  0  0  0  0  0  0  0  0  0  0  0
  148.4002  134.6322  152.8848 H   0  0  0  0  0  0  0  0  0  0  0  0
  147.1606  132.9083  154.7912 H   0  0  0  0  0  0  0  0  0  0  0  0
  149.1851  131.6276  153.0190 H   0  0  0  0  0  0  0  0  0  0  0  0
  148.5094  131.0311  154.5302 H   0  0  0  0  0  0  0  0  0  0  0  0
  147.7221  129.9306  152.1678 H   0  0  0  0  0  0  0  0  0  0  0  0
  146.4999  130.2597  153.4075 H   0  0  0  0  0  0  0  0  0  0  0  0
  145.6056  130.4808  150.5654 H   0  0  0  0  0  0  0  0  0  0  0  0
  144.5901  131.1664  151.8251 H   0  0  0  0  0  0  0  0  0  0  0  0
  145.8406  132.6422  149.4418 H   0  0  0  0  0  0  0  0  0  0  0  0
  144.1366  132.3574  149.6872 H   0  0  0  0  0  0  0  0  0  0  0  0
  144.8459  134.7245  150.2629 H   0  0  0  0  0  0  0  0  0  0  0  0
  144.0783  133.8956  151.5933 H   0  0  0  0  0  0  0  0  0  0  0  0
  147.0890  134.3325  151.2355 H   0  0  0  0  0  0  0  0  0  0  0  0
  146.0561  135.0532  152.4554 H   0  0  0  0  0  0  0  0  0  0  0  0
  145.5167  132.7757  153.3402 H   0  0  0  0  0  0  0  0  0  0  0  0
  152.5858  139.2956  156.1527 H   0  0  0  0  0  0  0  0  0  0  0  0
  147.3312  131.9951  151.2409 H   0  0  0  0  0  0  0  0  0  0  0  0
  1  2  1  0  0  0  0
  1 22  1  0  0  0  0
  1 23  1  0  0  0  0
  1 24  1  0  0  0  0
  2 21  1  0  0  0  0
  2  3  1  0  0  0  0
  3  4  2  0  0  0  0
  3 25  1  0  0  0  0
  4  5  1  0  0  0  0
  4 20  1  0  0  0  0
  5  6  1  0  0  0  0
  5 26  1  0  0  0  0
  5 27  1  0  0  0  0
  6  7  1  0  0  0  0
  6 28  1  0  0  0  0
  6 29  1  0  0  0  0
  7  8  1  0  0  0  0
  7 30  1  0  0  0  0
  8  9  2  0  0  0  0
  8 10  1  0  0  0  0
 10 11  1  0  0  0  0
 10 31  1  0  0  0  0
 11 19  1  0  0  0  0
 11 12  1  0  0  0  0
 11 32  1  0  0  0  0
 12 13  1  0  0  0  0
 12 33  1  0  0  0  0
 12 34  1  0  0  0  0
 13 14  1  0  0  0  0
 13 35  1  0  0  0  0
 13 36  1  0  0  0  0
 14 19  1  0  0  0  0
 14 15  1  0  0  0  0
 14 47  1  0  0  0  0
 15 16  1  0  0  0  0
 15 37  1  0  0  0  0
 15 38  1  0  0  0  0
 16 17  1  0  0  0  0
 16 39  1  0  0  0  0
 16 40  1  0  0  0  0
 17 18  1  0  0  0  0
 17 41  1  0  0  0  0
 17 42  1  0  0  0  0
 18 19  1  0  0  0  0
 18 43  1  0  0  0  0
 18 44  1  0  0  0  0
 19 45  1  0  0  0  0
 20 21  2  0  0  0  0
 20 46  1  0  0  0  0
M  CHG  1  14   1
M  END
> <s_m_source_file>
AV-unprocessed.smi

> <i_m_source_file_index>
557

> <i_lp_mmshare_version>
43012

> <i_f3d_flags>
0

> <s_epik_input>
W0NIM11uMVtjSF1jKFtjSF1uMSlbQ0gyXVtDSDJdW05IXUMoPU8pW05IXVtDQEhdKFtDSDJdW0NIMl0yKVtDQEhdKE4yMylbQ0gyXVtDSDJdW0NIMl1bQ0gyXTM=

> <s_epik_cmdline>
J2VwaWtfcHl0aG9uJywgJy1waCcsICc3LjAnLCAnLXRuJywgJzgnLCAnLW1hJywgJzIwMCcsICctbWV0YWxfYmluZGluZycsICctaW1hZScsICc8aW5maWxlLm1hZT4nLCAnLW9tYWUnLCAnPG91dGZpbGUubWFlPic=

> <r_lp_tautomer_probability>
1

> <r_epik_Ionization_Penalty>
0.000956547

> <r_epik_Ionization_Penalty_Charging>
0.000435796

> <r_epik_Ionization_Penalty_Neutral>
0.000520752

> <r_epik_State_Penalty>
-0

> <r_epik_Charging_Adjusted_Penalty>
0.000435796

> <i_epik_Tot_Q>
1

> <i_epik_Tot_abs_Q>
1

> <r_epik_Metal_State_Penalty>
-0

> <b_epik_Metal_Only>
0

> <s_lp_Force_Field>
OPLS_2005

> <r_lp_Energy>
46.5188

> <b_lp_Chiralities_Consistent>
1

> <s_lp_Variant>
AV-unprocessed.smi:557-1

> <Gold.Version>
5.8.1

> <Gold.Id.Protein>
6NUR|6NUR_protein|mol2

> <Gold.PLP.Fitness>
48.5005

> <Gold.PLP.PLP>
-37.4853

> <Gold.PLP.part.hbond>
-3.2853

> <Gold.PLP.part.metal>
0.0000

> <Gold.PLP.part.buried>
-0.8176

> <Gold.PLP.part.nonpolar>
-34.0971

> <Gold.PLP.part.repulsive>
0.1596

> <Gold.PLP.ligand.clash>
0.0000

> <Gold.PLP.ligand.torsion>
0.4831

> <Gold.PLP.Chemscore.Hbond>
2.7100

> <Gold.PLP.Chemscore.CHOScore>
1.2820

> <Gold.PLP.Chemscore.Metal>
0.0000

> <Gold.Chemscore.Hbonds>
donor molecule, donor type, donor heavy atom, donor atom, acceptor molecule, acceptor atom, score
      L1  H     7    30       P1  7948  0.35
      L1  H    10    31       P1  7948  1.00
      L1  H    14    47       P1 10747  0.34
      L1  C     3    25       P1  7948  0.68
      L1  C     3    25       P1  7957  0.38

> <Gold.PLP.Chemscore.Internal.Correction>
0.0054

> <Gold.Rescore>
     Score         DG    S(hbond)    S(metal)    S(lipo)     H(rot)  DE(clash)    DE(int)     intcor
     17.79     -18.45       2.10        0.00      85.92       1.60       0.10       0.56       ----

> <Gold.Chemscore.Fitness>
17.7870

> <Gold.Chemscore.DG>
-18.4479

> <Gold.Chemscore.ZeroCoef>
-5.4800

> <Gold.Chemscore.Hbond>
2.1006

> <Gold.Chemscore.Metal>
0.0000

> <Gold.Chemscore.Lipo>
85.9197

> <Gold.Chemscore.Internal_Hbond>
0.0000

> <Gold.Chemscore.DEClash>
0.1037

> <Gold.Chemscore.DEInternal>
0.5572

> <Gold.Chemscore.Rot>
1.6018

> <Gold.Chemscore.Internal.Correction>
   9.000000E+99

> <Gold.Chemscore.Hbonds>
donor molecule, donor type, donor heavy atom, donor atom, acceptor molecule, acceptor atom, score
      L1  H     7    30       P1  7948  0.01
      L1  H    10    31       P1  7948  0.37
      L1  H    14    47       P1 10747  0.34

> <Gold.Chemscore.Hbond.Weighted>
-7.0159

> <Gold.Chemscore.Metal.Weighted>
-0.0000

> <Gold.Chemscore.Lipo.Weighted>
-10.0526

> <Gold.Chemscore.Internal_Hbond.Weighted>
0.0000

> <Gold.Chemscore.DEClash.Weighted>
0.1037

> <Gold.Chemscore.DEInternal.Weighted>
0.5572

> <Gold.Chemscore.Rot.Weighted>
4.1006

> <Gold.Chemscore.Internal.Correction.Weighted>
   9.000000E+99

> <Gold.Protein.RotatedTorsions>
[ 6907 6896 6895 6894 ] final  -91.10 input  -60.11 | X-H torsion
[ 7974 7965 7964 7962 ] final -166.72 input  175.53 | X-H torsion
[ 8008 7997 7996 7995 ] final -171.64 input   59.86 | X-H torsion
[ 10167 10162 10161 10158 ] final -170.04 input  -65.29 | X-H torsion
[ 10718 10713 10712 10709 ] final   80.50 input   66.30 | X-H torsion
[ 10763 10752 10751 10750 ] final  -71.90 input  -60.55 | X-H torsion
[ 11005 11000 10999 10996 ] final -172.05 input  -57.11 | X-H torsion

> <Gold.Protein.ActiveResidues>
 VAL166  LYS551  ARG553  GLY616  TRP617  ASP618  TYR619  PRO620  LYS621  CYS622 
 ASP623  PHE694  ASN695  SER759  ASP760  ASP761  ALA762  ILE779  LEU786  VAL792 
 PHE793  MET794  SER795  GLU796  ALA797  LYS798  CYS799  TRP800  GLU811  SER814 

> <Gold.Protein.RotatedAtoms>
  150.6889  134.2329  159.4441 H   0  0  0  0  0  0  0  0  0  0  0  0  # atno 6907 bound_to 6896
  152.0278  134.9783  160.0581 H   0  0  0  0  0  0  0  0  0  0  0  0  # atno 6908 bound_to 6896
  152.1334  133.4386  159.4769 H   0  0  0  0  0  0  0  0  0  0  0  0  # atno 6909 bound_to 6896
  144.7239  140.2625  143.6263 H   0  0  0  0  0  0  0  0  0  0  0  0  # atno 7974 bound_to 7965
  155.9342  140.1097  157.1108 H   0  0  0  0  0  0  0  0  0  0  0  0  # atno 8008 bound_to 7997
  154.4076  140.1231  156.4908 H   0  0  0  0  0  0  0  0  0  0  0  0  # atno 8009 bound_to 7997
  155.7042  140.3471  155.4948 H   0  0  0  0  0  0  0  0  0  0  0  0  # atno 8010 bound_to 7997
  139.5886  144.1264  152.1606 H   0  0  0  0  0  0  0  0  0  0  0  0  # atno 10167 bound_to 10162
  157.6807  130.9962  150.2088 H   0  0  0  0  0  0  0  0  0  0  0  0  # atno 10718 bound_to 10713
  154.4382  135.5947  153.6112 H   0  0  0  0  0  0  0  0  0  0  0  0  # atno 10763 bound_to 10752
  152.9803  135.5991  154.3755 H   0  0  0  0  0  0  0  0  0  0  0  0  # atno 10764 bound_to 10752
  154.3602  135.2841  155.2303 H   0  0  0  0  0  0  0  0  0  0  0  0  # atno 10765 bound_to 10752
  140.5014  134.5890  157.4989 H   0  0  0  0  0  0  0  0  0  0  0  0  # atno 11005 bound_to 11000
  145.8122  139.2008  143.1986 LP  0  0  0  0  0  0  0  0  0  0  0  0  # atno 17320 bound_to 7965
  146.0586  140.7994  142.9746 LP  0  0  0  0  0  0  0  0  0  0  0  0  # atno 17321 bound_to 7965
  140.0833  144.5682  150.7107 LP  0  0  0  0  0  0  0  0  0  0  0  0  # atno 17342 bound_to 10162
  140.7153  143.2539  151.4453 LP  0  0  0  0  0  0  0  0  0  0  0  0  # atno 17343 bound_to 10162
  156.2763  130.3728  149.7980 LP  0  0  0  0  0  0  0  0  0  0  0  0  # atno 17370 bound_to 10713
  156.5682  130.8413  151.3349 LP  0  0  0  0  0  0  0  0  0  0  0  0  # atno 17371 bound_to 10713
  139.9711  134.7291  156.0039 LP  0  0  0  0  0  0  0  0  0  0  0  0  # atno 17394 bound_to 11000
  141.1434  133.6560  156.3795 LP  0  0  0  0  0  0  0  0  0  0  0  0  # atno 17395 bound_to 11000

$$$$
