AV-unprocessed.smi:113|AV-procd|sdf|1094|dock3
  -GOLD-   2262018203D 1   1.00000     0.00000
 Structure written by MMmdl.
 52 55  0  0  0  0  0  0  0  0  1 V2000
  153.1172  138.4969  159.6366 C   0  0  0  0  0  0  0  0  0  0  0  0
  152.6836  139.9369  159.4561 C   0  0  0  0  0  0  0  0  0  0  0  0
  152.0795  140.3621  158.2595 C   0  0  0  0  0  0  0  0  0  0  0  0
  151.6949  141.7164  158.1284 C   0  0  0  0  0  0  0  0  0  0  0  0
  151.0332  142.2323  156.8453 C   0  0  0  0  0  0  0  0  0  0  0  0
  149.6316  141.8912  156.6476 N   0  0  0  0  0  0  0  0  0  0  0  0
  149.2925  141.1201  155.5085 C   0  0  0  0  0  0  0  0  0  0  0  0
  150.1524  140.7213  154.7200 O   0  0  0  0  0  0  0  0  0  0  0  0
  147.8606  140.8620  155.3345 C   0  0  0  0  0  0  0  0  0  0  0  0
  147.4202  140.0482  154.1280 C   0  0  0  0  0  0  0  0  0  0  0  0
  146.9743  141.3561  156.2319 C   0  0  0  0  0  0  0  0  0  0  0  0
  147.3366  142.1033  157.3395 N   0  0  0  0  0  0  0  0  0  0  0  0
  146.2928  142.6533  158.2795 C   0  0  1  0  0  0  0  0  0  0  0  0
  144.9177  142.6465  157.6255 C   0  0  0  0  0  0  0  0  0  0  0  0
  144.0104  142.5534  158.8367 C   0  0  2  0  0  0  0  0  0  0  0  0
  143.6638  143.8480  159.2897 O   0  0  0  0  0  0  0  0  0  0  0  0
  144.8680  141.8280  159.8940 C   0  0  1  0  0  0  0  0  0  0  0  0
  144.4613  140.3624  160.1149 C   0  0  0  0  0  0  0  0  0  0  0  0
  145.0364  139.8655  161.3045 O   0  0  0  0  0  0  0  0  0  0  0  0
  146.2061  141.8294  159.3971 O   0  0  0  0  0  0  0  0  0  0  0  0
  148.6925  142.4116  157.5662 C   0  0  0  0  0  0  0  0  0  0  0  0
  149.0329  143.1242  158.5136 O   0  0  0  0  0  0  0  0  0  0  0  0
  151.9438  142.5872  159.2233 C   0  0  0  0  0  0  0  0  0  0  0  0
  151.5931  143.9581  159.1724 C   0  0  0  0  0  0  0  0  0  0  0  0
  151.8488  144.8036  160.2664 C   0  0  0  0  0  0  0  0  0  0  0  0
  152.4563  144.2882  161.4230 C   0  0  0  0  0  0  0  0  0  0  0  0
  152.8079  142.9277  161.4818 C   0  0  0  0  0  0  0  0  0  0  0  0
  152.5623  142.0606  160.3957 C   0  0  0  0  0  0  0  0  0  0  0  0
  152.9192  140.7612  160.4952 N   0  0  0  0  0  0  0  0  0  0  0  0
  152.6527  137.8497  158.8920 H   0  0  0  0  0  0  0  0  0  0  0  0
  152.8367  138.1297  160.6244 H   0  0  0  0  0  0  0  0  0  0  0  0
  154.1995  138.4142  159.5340 H   0  0  0  0  0  0  0  0  0  0  0  0
  151.9222  139.6493  157.4643 H   0  0  0  0  0  0  0  0  0  0  0  0
  151.1137  143.3189  156.7901 H   0  0  0  0  0  0  0  0  0  0  0  0
  151.5804  141.8764  155.9708 H   0  0  0  0  0  0  0  0  0  0  0  0
  146.3379  139.9192  154.0984 H   0  0  0  0  0  0  0  0  0  0  0  0
  147.8733  139.0563  154.1517 H   0  0  0  0  0  0  0  0  0  0  0  0
  147.7225  140.5415  153.2036 H   0  0  0  0  0  0  0  0  0  0  0  0
  145.9244  141.1627  156.0645 H   0  0  0  0  0  0  0  0  0  0  0  0
  146.6182  143.6430  158.6050 H   0  0  0  0  0  0  0  0  0  0  0  0
  144.7636  143.5276  157.0013 H   0  0  0  0  0  0  0  0  0  0  0  0
  144.8136  141.7507  157.0112 H   0  0  0  0  0  0  0  0  0  0  0  0
  143.0894  142.0186  158.6022 H   0  0  0  0  0  0  0  0  0  0  0  0
  142.7724  144.0298  159.0345 H   0  0  0  0  0  0  0  0  0  0  0  0
  144.8540  142.3591  160.8476 H   0  0  0  0  0  0  0  0  0  0  0  0
  143.3764  140.2594  160.1579 H   0  0  0  0  0  0  0  0  0  0  0  0
  144.8113  139.7470  159.2855 H   0  0  0  0  0  0  0  0  0  0  0  0
  144.4730  140.0909  162.0290 H   0  0  0  0  0  0  0  0  0  0  0  0
  151.1251  144.3863  158.2993 H   0  0  0  0  0  0  0  0  0  0  0  0
  151.5782  145.8482  160.2171 H   0  0  0  0  0  0  0  0  0  0  0  0
  152.6535  144.9350  162.2652 H   0  0  0  0  0  0  0  0  0  0  0  0
  153.2754  142.5431  162.3765 H   0  0  0  0  0  0  0  0  0  0  0  0
  1  2  1  0  0  0  0
  1 30  1  0  0  0  0
  1 31  1  0  0  0  0
  1 32  1  0  0  0  0
  2 29  1  0  0  0  0
  2  3  2  0  0  0  0
  3  4  1  0  0  0  0
  3 33  1  0  0  0  0
  4  5  1  0  0  0  0
  4 23  2  0  0  0  0
  5  6  1  0  0  0  0
  5 34  1  0  0  0  0
  5 35  1  0  0  0  0
  6 21  1  0  0  0  0
  6  7  1  0  0  0  0
  7  8  2  0  0  0  0
  7  9  1  0  0  0  0
  9 10  1  0  0  0  0
  9 11  2  0  0  0  0
 10 36  1  0  0  0  0
 10 37  1  0  0  0  0
 10 38  1  0  0  0  0
 11 12  1  0  0  0  0
 11 39  1  0  0  0  0
 12 13  1  0  0  0  0
 12 21  1  0  0  0  0
 13 20  1  0  0  0  0
 13 14  1  0  0  0  0
 13 40  1  0  0  0  0
 14 15  1  0  0  0  0
 14 41  1  0  0  0  0
 14 42  1  0  0  0  0
 15 16  1  0  0  0  0
 15 17  1  0  0  0  0
 15 43  1  0  0  0  0
 16 44  1  0  0  0  0
 17 18  1  0  0  0  0
 17 20  1  0  0  0  0
 17 45  1  0  0  0  0
 18 19  1  0  0  0  0
 18 46  1  0  0  0  0
 18 47  1  0  0  0  0
 19 48  1  0  0  0  0
 21 22  2  0  0  0  0
 23 28  1  0  0  0  0
 23 24  1  0  0  0  0
 24 25  2  0  0  0  0
 24 49  1  0  0  0  0
 25 26  1  0  0  0  0
 25 50  1  0  0  0  0
 26 27  2  0  0  0  0
 26 51  1  0  0  0  0
 27 28  1  0  0  0  0
 27 52  1  0  0  0  0
 28 29  2  0  0  0  0
M  END
> <s_m_source_file>
AV-unprocessed.smi

> <i_m_source_file_index>
113

> <i_lp_mmshare_version>
43012

> <i_f3d_flags>
0

> <s_epik_input>
W2NIXTFbY0hdW2NIXVtjSF1jKGMxMiluYyhbQ0gzXSlbY0hdYzJbQ0gyXW4zYyg9TyljKFtDSDNdKVtjSF1uKGMzPU8pW0NAQEhdNFtDSDJdW0NAQEhdKFtPSF0pW0NASF0oTzQpW0NIMl1bT0hd

> <s_epik_cmdline>
J2VwaWtfcHl0aG9uJywgJy1waCcsICc3LjAnLCAnLXRuJywgJzgnLCAnLW1hJywgJzIwMCcsICctbWV0YWxfYmluZGluZycsICctaW1hZScsICc8aW5maWxlLm1hZT4nLCAnLW9tYWUnLCAnPG91dGZpbGUubWFlPic=

> <r_lp_tautomer_probability>
1

> <r_epik_Ionization_Penalty>
0.214728

> <r_epik_Ionization_Penalty_Charging>
3.04883e-08

> <r_epik_Ionization_Penalty_Neutral>
0.214728

> <r_epik_State_Penalty>
0.204913

> <r_epik_Charging_Adjusted_Penalty>
0.204913

> <i_epik_Tot_Q>
0

> <i_epik_Tot_abs_Q>
0

> <r_epik_Metal_State_Penalty>
0.000244761

> <b_epik_Metal_Only>
0

> <s_epik_Chemistry_Notes>
This compound contains an acetal/aminal-like group ( X-CH(R)-Y where X, Y are N, S, or O) that may be acid/base labile, releasing an aldehyde.

> <s_lp_Force_Field>
OPLS_2005

> <r_lp_Energy>
39.8803

> <b_lp_Chiralities_Consistent>
1

> <s_lp_Variant>
AV-unprocessed.smi:113-4

> <Gold.Version>
5.8.1

> <Gold.Id.Protein>
6NUR|6NUR_protein|mol2

> <Gold.PLP.Fitness>
47.9314

> <Gold.PLP.PLP>
-44.3565

> <Gold.PLP.part.hbond>
-4.0016

> <Gold.PLP.part.metal>
0.0000

> <Gold.PLP.part.buried>
-4.6169

> <Gold.PLP.part.nonpolar>
-36.1367

> <Gold.PLP.part.repulsive>
0.2875

> <Gold.PLP.ligand.clash>
0.0000

> <Gold.PLP.ligand.torsion>
0.9127

> <Gold.PLP.Chemscore.Hbond>
1.7820

> <Gold.PLP.Chemscore.CHOScore>
0.0000

> <Gold.PLP.Chemscore.Metal>
0.0000

> <Gold.Chemscore.Hbonds>
donor molecule, donor type, donor heavy atom, donor atom, acceptor molecule, acceptor atom, score
      P1  H  6934  6946       L1    20  0.85
      P1  H  7989  7998       L1     8  0.82

> <Gold.PLP.Chemscore.Internal.Correction>
0.0542

> <Gold.Rescore>
     Score         DG    S(hbond)    S(metal)    S(lipo)     H(rot)  DE(clash)    DE(int)     intcor
     12.06     -15.31       1.14        0.00     115.83       2.95       0.45       2.80       ----

> <Gold.Chemscore.Fitness>
12.0575

> <Gold.Chemscore.DG>
-15.3116

> <Gold.Chemscore.ZeroCoef>
-5.4800

> <Gold.Chemscore.Hbond>
1.1449

> <Gold.Chemscore.Metal>
0.0000

> <Gold.Chemscore.Lipo>
115.8264

> <Gold.Chemscore.Internal_Hbond>
0.0000

> <Gold.Chemscore.DEClash>
0.4531

> <Gold.Chemscore.DEInternal>
2.8010

> <Gold.Chemscore.Rot>
2.9469

> <Gold.Chemscore.Internal.Correction>
   9.000000E+99

> <Gold.Chemscore.Hbonds>
donor molecule, donor type, donor heavy atom, donor atom, acceptor molecule, acceptor atom, score
      P1  H  6934  6946       L1    20  0.14
      P1  H  7989  7998       L1     8  0.81

> <Gold.Chemscore.Hbond.Weighted>
-3.8238

> <Gold.Chemscore.Metal.Weighted>
-0.0000

> <Gold.Chemscore.Lipo.Weighted>
-13.5517

> <Gold.Chemscore.Internal_Hbond.Weighted>
0.0000

> <Gold.Chemscore.DEClash.Weighted>
0.4531

> <Gold.Chemscore.DEInternal.Weighted>
2.8010

> <Gold.Chemscore.Rot.Weighted>
7.5439

> <Gold.Chemscore.Internal.Correction.Weighted>
   9.000000E+99

> <Gold.Protein.RotatedTorsions>
[ 6907 6896 6895 6894 ] final    6.41 input  -60.11 | X-H torsion
[ 7974 7965 7964 7962 ] final   94.41 input  175.53 | X-H torsion
[ 8008 7997 7996 7995 ] final  167.47 input   59.86 | X-H torsion
[ 10167 10162 10161 10158 ] final   72.06 input  -65.29 | X-H torsion
[ 10718 10713 10712 10709 ] final  -81.82 input   66.30 | X-H torsion
[ 10763 10752 10751 10750 ] final -130.18 input  -60.55 | X-H torsion
[ 11005 11000 10999 10996 ] final  130.47 input  -57.11 | X-H torsion

> <Gold.Protein.ActiveResidues>
 VAL166  LYS551  ARG553  GLY616  TRP617  ASP618  TYR619  PRO620  LYS621  CYS622 
 ASP623  PHE694  ASN695  SER759  ASP760  ASP761  ALA762  ILE779  LEU786  VAL792 
 PHE793  MET794  SER795  GLU796  ALA797  LYS798  CYS799  TRP800  GLU811  SER814 

> <Gold.Protein.RotatedAtoms>
  151.6732  135.0973  160.0201 H   0  0  0  0  0  0  0  0  0  0  0  0  # atno 6907 bound_to 6896
  152.3879  133.6633  159.6222 H   0  0  0  0  0  0  0  0  0  0  0  0  # atno 6908 bound_to 6896
  150.7801  133.8920  159.3357 H   0  0  0  0  0  0  0  0  0  0  0  0  # atno 6909 bound_to 6896
  145.4659  139.2284  143.2961 H   0  0  0  0  0  0  0  0  0  0  0  0  # atno 7974 bound_to 7965
  156.1631  140.1616  156.8579 H   0  0  0  0  0  0  0  0  0  0  0  0  # atno 8008 bound_to 7997
  154.5180  140.0785  156.8153 H   0  0  0  0  0  0  0  0  0  0  0  0  # atno 8009 bound_to 7997
  155.3667  140.3398  155.4244 H   0  0  0  0  0  0  0  0  0  0  0  0  # atno 8010 bound_to 7997
  140.0394  144.5402  150.7446 H   0  0  0  0  0  0  0  0  0  0  0  0  # atno 10167 bound_to 10162
  156.0043  130.4615  150.4011 H   0  0  0  0  0  0  0  0  0  0  0  0  # atno 10718 bound_to 10713
  154.8756  135.3871  154.4040 H   0  0  0  0  0  0  0  0  0  0  0  0  # atno 10763 bound_to 10752
  153.4762  135.7030  153.5970 H   0  0  0  0  0  0  0  0  0  0  0  0  # atno 10764 bound_to 10752
  153.4405  135.3857  155.2193 H   0  0  0  0  0  0  0  0  0  0  0  0  # atno 10765 bound_to 10752
  139.9674  134.9587  156.9299 H   0  0  0  0  0  0  0  0  0  0  0  0  # atno 11005 bound_to 11000
  146.2424  140.5433  142.8928 LP  0  0  0  0  0  0  0  0  0  0  0  0  # atno 17320 bound_to 7965
  144.7974  140.6149  143.6501 LP  0  0  0  0  0  0  0  0  0  0  0  0  # atno 17321 bound_to 7965
  140.7267  143.2644  151.4096 LP  0  0  0  0  0  0  0  0  0  0  0  0  # atno 17342 bound_to 10162
  139.6024  144.1268  152.2212 LP  0  0  0  0  0  0  0  0  0  0  0  0  # atno 17343 bound_to 10162
  157.2080  131.0454  151.2614 LP  0  0  0  0  0  0  0  0  0  0  0  0  # atno 17370 bound_to 10713
  157.3915  130.7284  149.6701 LP  0  0  0  0  0  0  0  0  0  0  0  0  # atno 17371 bound_to 10713
  140.5367  134.0760  155.7330 LP  0  0  0  0  0  0  0  0  0  0  0  0  # atno 17394 bound_to 11000
  141.1354  133.9231  157.2445 LP  0  0  0  0  0  0  0  0  0  0  0  0  # atno 17395 bound_to 11000

$$$$
