AV-unprocessed.smi:155|AV-procd|sdf|1279|dock10
  -GOLD-   2262018553D 1   1.00000     0.00000
 Structure written by MMmdl.
 64 67  0  0  0  0  0  0  0  0  3 V2000
  144.6821  134.5234  151.0962 C   0  0  0  0  0  0  0  0  0  0  0  0
  145.4953  133.4170  151.6482 N   0  3  0  0  0  0  0  0  0  0  0  0
  144.8745  132.0996  151.3781 C   0  0  0  0  0  0  0  0  0  0  0  0
  145.8241  133.6275  153.0810 C   0  0  0  0  0  0  0  0  0  0  0  0
  146.5302  134.9755  153.3388 C   0  0  0  0  0  0  0  0  0  0  0  0
  147.6462  134.8630  154.3158 N   0  3  2  0  0  0  0  0  0  0  0  0
  148.2906  133.5219  154.3065 C   0  0  0  0  0  0  0  0  0  0  0  0
  149.8220  133.6542  154.3779 C   0  0  0  0  0  0  0  0  0  0  0  0
  150.3457  134.0803  155.7596 C   0  0  0  0  0  0  0  0  0  0  0  0
  149.7404  135.3237  156.2325 N   0  0  0  0  0  0  0  0  0  0  0  0
  150.1957  136.5492  155.8285 C   0  0  0  0  0  0  0  0  0  0  0  0
  150.7205  136.6467  154.5764 N   0  0  0  0  0  0  0  0  0  0  0  0
  151.1876  137.8062  154.1090 C   0  0  0  0  0  0  0  0  0  0  0  0
  151.2338  138.9887  154.7187 N   0  0  0  0  0  0  0  0  0  0  0  0
  150.7120  138.9144  155.9750 C   0  0  0  0  0  0  0  0  0  0  0  0
  150.1777  137.7511  156.6068 C   0  0  0  0  0  0  0  0  0  0  0  0
  149.7560  138.0886  157.8902 N   0  0  0  0  0  0  0  0  0  0  0  0
  150.0101  139.3625  158.0031 C   0  0  0  0  0  0  0  0  0  0  0  0
  150.5843  139.9387  156.8964 N   0  0  0  0  0  0  0  0  0  0  0  0
  150.9616  141.3328  156.7419 C   0  0  0  0  0  0  0  0  0  0  0  0
  150.5429  142.1896  157.9531 C   0  0  2  0  0  0  0  0  0  0  0  0
  149.3015  142.8268  157.7150 O   0  0  0  0  0  0  0  0  0  0  0  0
  151.6091  143.2293  158.3536 C   0  0  2  0  0  0  0  0  0  0  0  0
  152.8175  142.6842  159.1353 C   0  0  0  0  0  0  0  0  0  0  0  0
  152.7968  143.4773  160.4298 C   0  0  0  0  0  0  0  0  0  0  0  0
  152.0443  144.7410  160.0350 C   0  0  0  0  0  0  0  0  0  0  0  0
  151.0379  144.2534  159.1633 O   0  0  0  0  0  0  0  0  0  0  0  0
  148.3755  135.1958  156.7519 C   0  0  0  0  0  0  0  0  0  0  0  0
  147.2723  135.3400  155.6783 C   0  0  0  0  0  0  0  0  0  0  0  0
  143.7143  134.5851  151.5962 H   0  0  0  0  0  0  0  0  0  0  0  0
  144.5068  134.3795  150.0294 H   0  0  0  0  0  0  0  0  0  0  0  0
  145.1922  135.4796  151.2183 H   0  0  0  0  0  0  0  0  0  0  0  0
  143.9338  131.9913  151.9199 H   0  0  0  0  0  0  0  0  0  0  0  0
  145.5339  131.2818  151.6682 H   0  0  0  0  0  0  0  0  0  0  0  0
  144.6672  131.9842  150.3134 H   0  0  0  0  0  0  0  0  0  0  0  0
  144.8930  133.6170  153.6503 H   0  0  0  0  0  0  0  0  0  0  0  0
  146.4211  132.7897  153.4431 H   0  0  0  0  0  0  0  0  0  0  0  0
  146.8987  135.4154  152.4113 H   0  0  0  0  0  0  0  0  0  0  0  0
  145.7848  135.6642  153.7393 H   0  0  0  0  0  0  0  0  0  0  0  0
  147.9025  132.8925  155.1088 H   0  0  0  0  0  0  0  0  0  0  0  0
  148.0559  132.9954  153.3809 H   0  0  0  0  0  0  0  0  0  0  0  0
  150.2710  132.6927  154.1272 H   0  0  0  0  0  0  0  0  0  0  0  0
  150.1644  134.3500  153.6112 H   0  0  0  0  0  0  0  0  0  0  0  0
  150.1133  133.2930  156.4776 H   0  0  0  0  0  0  0  0  0  0  0  0
  151.4321  134.1400  155.7728 H   0  0  0  0  0  0  0  0  0  0  0  0
  151.5785  137.7834  153.1023 H   0  0  0  0  0  0  0  0  0  0  0  0
  149.7811  139.9209  158.8995 H   0  0  0  0  0  0  0  0  0  0  0  0
  152.0421  141.3817  156.6019 H   0  0  0  0  0  0  0  0  0  0  0  0
  150.5126  141.7154  155.8245 H   0  0  0  0  0  0  0  0  0  0  0  0
  150.3892  141.5262  158.8053 H   0  0  0  0  0  0  0  0  0  0  0  0
  149.2909  143.1331  156.8206 H   0  0  0  0  0  0  0  0  0  0  0  0
  151.9797  143.7126  157.4482 H   0  0  0  0  0  0  0  0  0  0  0  0
  152.7753  141.6099  159.3175 H   0  0  0  0  0  0  0  0  0  0  0  0
  153.7365  142.8854  158.5837 H   0  0  0  0  0  0  0  0  0  0  0  0
  152.2319  142.9345  161.1888 H   0  0  0  0  0  0  0  0  0  0  0  0
  153.7928  143.6791  160.8249 H   0  0  0  0  0  0  0  0  0  0  0  0
  151.6173  145.2646  160.8905 H   0  0  0  0  0  0  0  0  0  0  0  0
  152.6951  145.4308  159.4953 H   0  0  0  0  0  0  0  0  0  0  0  0
  148.2813  134.2106  157.2095 H   0  0  0  0  0  0  0  0  0  0  0  0
  148.2048  135.8951  157.5713 H   0  0  0  0  0  0  0  0  0  0  0  0
  147.0180  136.3971  155.6095 H   0  0  0  0  0  0  0  0  0  0  0  0
  146.3698  134.8304  156.0187 H   0  0  0  0  0  0  0  0  0  0  0  0
  146.3695  133.4361  151.1420 H   0  0  0  0  0  0  0  0  0  0  0  0
  148.3614  135.4939  153.9830 H   0  0  0  0  0  0  0  0  0  0  0  0
  1  2  1  0  0  0  0
  1 30  1  0  0  0  0
  1 31  1  0  0  0  0
  1 32  1  0  0  0  0
  2  3  1  0  0  0  0
  2  4  1  0  0  0  0
  2 63  1  0  0  0  0
  3 33  1  0  0  0  0
  3 34  1  0  0  0  0
  3 35  1  0  0  0  0
  4  5  1  0  0  0  0
  4 36  1  0  0  0  0
  4 37  1  0  0  0  0
  5  6  1  0  0  0  0
  5 38  1  0  0  0  0
  5 39  1  0  0  0  0
  6 29  1  0  0  0  0
  6  7  1  0  0  0  0
  6 64  1  0  0  0  0
  7  8  1  0  0  0  0
  7 40  1  0  0  0  0
  7 41  1  0  0  0  0
  8  9  1  0  0  0  0
  8 42  1  0  0  0  0
  8 43  1  0  0  0  0
  9 10  1  0  0  0  0
  9 44  1  0  0  0  0
  9 45  1  0  0  0  0
 10 11  1  0  0  0  0
 10 28  1  0  0  0  0
 11 16  1  0  0  0  0
 11 12  2  0  0  0  0
 12 13  1  0  0  0  0
 13 14  2  0  0  0  0
 13 46  1  0  0  0  0
 14 15  1  0  0  0  0
 15 19  1  0  0  0  0
 15 16  2  0  0  0  0
 16 17  1  0  0  0  0
 17 18  2  0  0  0  0
 18 19  1  0  0  0  0
 18 47  1  0  0  0  0
 19 20  1  0  0  0  0
 20 21  1  0  0  0  0
 20 48  1  0  0  0  0
 20 49  1  0  0  0  0
 21 22  1  0  0  0  0
 21 23  1  0  0  0  0
 21 50  1  0  0  0  0
 22 51  1  0  0  0  0
 23 27  1  0  0  0  0
 23 24  1  0  0  0  0
 23 52  1  0  0  0  0
 24 25  1  0  0  0  0
 24 53  1  0  0  0  0
 24 54  1  0  0  0  0
 25 26  1  0  0  0  0
 25 55  1  0  0  0  0
 25 56  1  0  0  0  0
 26 27  1  0  0  0  0
 26 57  1  0  0  0  0
 26 58  1  0  0  0  0
 28 29  1  0  0  0  0
 28 59  1  0  0  0  0
 28 60  1  0  0  0  0
 29 61  1  0  0  0  0
 29 62  1  0  0  0  0
M  CHG  1   2   1
M  CHG  1   6   1
M  END
> <s_m_source_file>
AV-unprocessed.smi

> <i_m_source_file_index>
155

> <i_lp_mmshare_version>
43012

> <i_f3d_flags>
0

> <s_epik_input>
W0NIM11OKFtDSDNdKVtDSDJdW0NIMl1OMVtDSDJdW0NIMl1bQ0gyXU4oW0NIMl1bQ0gyXTEpYyhuW2NIXW4yKWMoYzIzKW5bY0hdbjNbQ0gyXVtDQEhdKFtPSF0pW0NAQEhdNFtDSDJdW0NIMl1bQ0gyXU80

> <s_epik_cmdline>
J2VwaWtfcHl0aG9uJywgJy1waCcsICc3LjAnLCAnLXRuJywgJzgnLCAnLW1hJywgJzIwMCcsICctbWV0YWxfYmluZGluZycsICctaW1hZScsICc8aW5maWxlLm1hZT4nLCAnLW9tYWUnLCAnPG91dGZpbGUubWFlPic=

> <r_lp_tautomer_probability>
1

> <r_epik_Ionization_Penalty>
3.0333

> <r_epik_Ionization_Penalty_Charging>
3.03317

> <r_epik_Ionization_Penalty_Neutral>
0.000131872

> <r_epik_State_Penalty>
1.99939

> <r_epik_Charging_Adjusted_Penalty>
5.03256

> <i_epik_Tot_Q>
2

> <i_epik_Tot_abs_Q>
2

> <r_epik_Metal_State_Penalty>
2.00021

> <b_epik_Metal_Only>
0

> <s_lp_Force_Field>
OPLS_2005

> <r_lp_Energy>
62.7096

> <b_lp_Chiralities_Consistent>
1

> <s_lp_Variant>
AV-unprocessed.smi:155-13

> <Gold.Version>
5.8.1

> <Gold.Id.Protein>
6NUR|6NUR_protein|mol2

> <Gold.PLP.Fitness>
49.8720

> <Gold.PLP.PLP>
-42.8050

> <Gold.PLP.part.hbond>
-3.2271

> <Gold.PLP.part.metal>
0.0000

> <Gold.PLP.part.buried>
-5.6537

> <Gold.PLP.part.nonpolar>
-34.3932

> <Gold.PLP.part.repulsive>
0.8811

> <Gold.PLP.ligand.clash>
0.0000

> <Gold.PLP.ligand.torsion>
2.4132

> <Gold.PLP.Chemscore.Hbond>
3.0640

> <Gold.PLP.Chemscore.CHOScore>
0.7699

> <Gold.PLP.Chemscore.Metal>
0.0000

> <Gold.Chemscore.Hbonds>
donor molecule, donor type, donor heavy atom, donor atom, acceptor molecule, acceptor atom, score
      L1  H     6    64       P1  7948  0.41
      L1  H    22    51       P1  8028  0.86
      P1  H  7989  7998       L1    14  0.41
      L1  C    13    46       P1  7949  0.90

> <Gold.PLP.Chemscore.Internal.Correction>
0.3916

> <Gold.Rescore>
     Score         DG    S(hbond)    S(metal)    S(lipo)     H(rot)  DE(clash)    DE(int)     intcor
     15.05     -18.11       2.39        0.00      99.93       2.75       0.84       2.22       ----

> <Gold.Chemscore.Fitness>
15.0504

> <Gold.Chemscore.DG>
-18.1066

> <Gold.Chemscore.ZeroCoef>
-5.4800

> <Gold.Chemscore.Hbond>
2.3872

> <Gold.Chemscore.Metal>
0.0000

> <Gold.Chemscore.Lipo>
99.9280

> <Gold.Chemscore.Internal_Hbond>
0.0000

> <Gold.Chemscore.DEClash>
0.8401

> <Gold.Chemscore.DEInternal>
2.2160

> <Gold.Chemscore.Rot>
2.7493

> <Gold.Chemscore.Internal.Correction>
   9.000000E+99

> <Gold.Chemscore.Hbonds>
donor molecule, donor type, donor heavy atom, donor atom, acceptor molecule, acceptor atom, score
      L1  H     6    64       P1  7948  0.20
      L1  H    22    51       P1  8028  0.80
      P1  H  7989  7998       L1    14  0.38

> <Gold.Chemscore.Hbond.Weighted>
-7.9733

> <Gold.Chemscore.Metal.Weighted>
-0.0000

> <Gold.Chemscore.Lipo.Weighted>
-11.6916

> <Gold.Chemscore.Internal_Hbond.Weighted>
0.0000

> <Gold.Chemscore.DEClash.Weighted>
0.8401

> <Gold.Chemscore.DEInternal.Weighted>
2.2160

> <Gold.Chemscore.Rot.Weighted>
7.0383

> <Gold.Chemscore.Internal.Correction.Weighted>
   9.000000E+99

> <Gold.Protein.RotatedTorsions>
[ 6907 6896 6895 6894 ] final   64.15 input  -60.11 | X-H torsion
[ 7974 7965 7964 7962 ] final -176.02 input  175.53 | X-H torsion
[ 8008 7997 7996 7995 ] final -169.50 input   59.86 | X-H torsion
[ 10167 10162 10161 10158 ] final -127.66 input  -65.29 | X-H torsion
[ 10718 10713 10712 10709 ] final  152.90 input   66.30 | X-H torsion
[ 10763 10752 10751 10750 ] final  105.31 input  -60.55 | X-H torsion
[ 11005 11000 10999 10996 ] final   18.66 input  -57.11 | X-H torsion

> <Gold.Protein.ActiveResidues>
 VAL166  LYS551  ARG553  GLY616  TRP617  ASP618  TYR619  PRO620  LYS621  CYS622 
 ASP623  PHE694  ASN695  SER759  ASP760  ASP761  ALA762  ILE779  LEU786  VAL792 
 PHE793  MET794  SER795  GLU796  ALA797  LYS798  CYS799  TRP800  GLU811  SER814 

> <Gold.Protein.RotatedAtoms>
  152.4309  134.5780  159.9939 H   0  0  0  0  0  0  0  0  0  0  0  0  # atno 6907 bound_to 6896
  151.5903  133.3361  159.3034 H   0  0  0  0  0  0  0  0  0  0  0  0  # atno 6908 bound_to 6896
  150.8202  134.7441  159.6830 H   0  0  0  0  0  0  0  0  0  0  0  0  # atno 6909 bound_to 6896
  144.7127  140.1233  143.6404 H   0  0  0  0  0  0  0  0  0  0  0  0  # atno 7974 bound_to 7965
  155.9058  140.1049  157.1316 H   0  0  0  0  0  0  0  0  0  0  0  0  # atno 8008 bound_to 7997
  154.4032  140.1284  156.4559 H   0  0  0  0  0  0  0  0  0  0  0  0  # atno 8009 bound_to 7997
  155.7369  140.3467  155.5088 H   0  0  0  0  0  0  0  0  0  0  0  0  # atno 8010 bound_to 7997
  139.9585  143.5976  152.2453 H   0  0  0  0  0  0  0  0  0  0  0  0  # atno 10167 bound_to 10162
  157.2517  131.0780  151.1725 H   0  0  0  0  0  0  0  0  0  0  0  0  # atno 10718 bound_to 10713
  153.3776  135.3914  155.1834 H   0  0  0  0  0  0  0  0  0  0  0  0  # atno 10763 bound_to 10752
  154.8703  135.3717  154.4898 H   0  0  0  0  0  0  0  0  0  0  0  0  # atno 10764 bound_to 10752
  153.5372  135.7085  153.5715 H   0  0  0  0  0  0  0  0  0  0  0  0  # atno 10765 bound_to 10752
  140.4223  134.1506  155.7674 H   0  0  0  0  0  0  0  0  0  0  0  0  # atno 11005 bound_to 11000
  145.9352  139.2632  143.1301 LP  0  0  0  0  0  0  0  0  0  0  0  0  # atno 17320 bound_to 7965
  145.9482  140.8929  143.0273 LP  0  0  0  0  0  0  0  0  0  0  0  0  # atno 17321 bound_to 7965
  139.6572  144.7662  151.2032 LP  0  0  0  0  0  0  0  0  0  0  0  0  # atno 17342 bound_to 10162
  140.7560  143.6067  150.8646 LP  0  0  0  0  0  0  0  0  0  0  0  0  # atno 17343 bound_to 10162
  157.3270  130.6966  149.6302 LP  0  0  0  0  0  0  0  0  0  0  0  0  # atno 17370 bound_to 10713
  155.9666  130.4318  150.4937 LP  0  0  0  0  0  0  0  0  0  0  0  0  # atno 17371 bound_to 10713
  141.1779  133.8476  157.1359 LP  0  0  0  0  0  0  0  0  0  0  0  0  # atno 17394 bound_to 11000
  140.0191  134.9954  157.0555 LP  0  0  0  0  0  0  0  0  0  0  0  0  # atno 17395 bound_to 11000

$$$$
