AV-unprocessed.smi:1358|AV-procd|sdf|5549|dock2
  -GOLD-   22720 5143D 1   1.00000     0.00000
 Structure written by MMmdl.
 37 38  0  0  0  0  0  0  0  0  1 V2000
  152.3785  144.5230  160.2133 C   0  0  0  0  0  0  0  0  0  0  0  0
  152.1662  144.1204  158.7497 C   0  0  0  0  0  0  0  0  0  0  0  0
  151.4701  142.7598  158.6110 C   0  0  0  0  0  0  0  0  0  0  0  0
  151.2544  142.3508  157.1449 C   0  0  0  0  0  0  0  0  0  0  0  0
  150.5516  141.0775  157.0636 N   0  0  0  0  0  0  0  0  0  0  0  0
  150.4586  140.3116  155.9652 C   0  0  0  0  0  0  0  0  0  0  0  0
  151.0539  140.5510  154.9146 O   0  0  0  0  0  0  0  0  0  0  0  0
  149.5187  139.1074  156.0576 C   0  0  0  0  0  0  0  0  0  0  0  0
  148.1590  139.5511  156.5193 C   0  0  0  0  0  0  0  0  0  0  0  0
  147.0840  139.8753  155.7278 C   0  0  0  0  0  0  0  0  0  0  0  0
  145.7005  140.3638  156.6699 S   0  0  0  0  0  0  0  0  0  0  0  0
  146.6497  140.1119  158.1327 C   0  0  0  0  0  0  0  0  0  0  0  0
  146.1540  140.3545  159.4477 N   0  0  0  0  0  0  0  0  0  0  0  0
  144.7758  140.7727  159.6711 C   0  0  0  0  0  0  0  0  0  0  0  0
  144.6795  140.9174  161.1873 C   0  0  0  0  0  0  0  0  0  0  0  0
  146.0180  140.5791  161.6118 N   0  0  0  0  0  0  0  0  0  0  0  0
  146.8398  140.2683  160.6069 C   0  0  0  0  0  0  0  0  0  0  0  0
  148.0224  139.9617  160.7535 O   0  0  0  0  0  0  0  0  0  0  0  0
  147.8872  139.6696  157.8871 N   0  0  0  0  0  0  0  0  0  0  0  0
  152.8745  145.4912  160.2824 H   0  0  0  0  0  0  0  0  0  0  0  0
  152.9980  143.7936  160.7358 H   0  0  0  0  0  0  0  0  0  0  0  0
  151.4285  144.5968  160.7430 H   0  0  0  0  0  0  0  0  0  0  0  0
  151.5753  144.8871  158.2476 H   0  0  0  0  0  0  0  0  0  0  0  0
  153.1308  144.0910  158.2420 H   0  0  0  0  0  0  0  0  0  0  0  0
  152.0636  141.9965  159.1166 H   0  0  0  0  0  0  0  0  0  0  0  0
  150.5093  142.7923  159.1262 H   0  0  0  0  0  0  0  0  0  0  0  0
  150.7092  143.1259  156.6038 H   0  0  0  0  0  0  0  0  0  0  0  0
  152.2164  142.2385  156.6443 H   0  0  0  0  0  0  0  0  0  0  0  0
  150.0229  140.7988  157.8779 H   0  0  0  0  0  0  0  0  0  0  0  0
  149.4585  138.6267  155.0803 H   0  0  0  0  0  0  0  0  0  0  0  0
  149.9348  138.3659  156.7410 H   0  0  0  0  0  0  0  0  0  0  0  0
  147.0256  139.8644  154.6496 H   0  0  0  0  0  0  0  0  0  0  0  0
  144.5743  141.7197  159.1684 H   0  0  0  0  0  0  0  0  0  0  0  0
  144.0789  140.0220  159.2955 H   0  0  0  0  0  0  0  0  0  0  0  0
  144.4265  141.9349  161.4875 H   0  0  0  0  0  0  0  0  0  0  0  0
  143.9546  140.2272  161.6203 H   0  0  0  0  0  0  0  0  0  0  0  0
  146.2972  140.5894  162.5821 H   0  0  0  0  0  0  0  0  0  0  0  0
  1  2  1  0  0  0  0
  1 20  1  0  0  0  0
  1 21  1  0  0  0  0
  1 22  1  0  0  0  0
  2  3  1  0  0  0  0
  2 23  1  0  0  0  0
  2 24  1  0  0  0  0
  3  4  1  0  0  0  0
  3 25  1  0  0  0  0
  3 26  1  0  0  0  0
  4  5  1  0  0  0  0
  4 27  1  0  0  0  0
  4 28  1  0  0  0  0
  5  6  1  0  0  0  0
  5 29  1  0  0  0  0
  6  7  2  0  0  0  0
  6  8  1  0  0  0  0
  8  9  1  0  0  0  0
  8 30  1  0  0  0  0
  8 31  1  0  0  0  0
  9 19  1  0  0  0  0
  9 10  2  0  0  0  0
 10 11  1  0  0  0  0
 10 32  1  0  0  0  0
 11 12  1  0  0  0  0
 12 13  1  0  0  0  0
 12 19  2  0  0  0  0
 13 17  1  0  0  0  0
 13 14  1  0  0  0  0
 14 15  1  0  0  0  0
 14 33  1  0  0  0  0
 14 34  1  0  0  0  0
 15 16  1  0  0  0  0
 15 35  1  0  0  0  0
 15 36  1  0  0  0  0
 16 17  1  0  0  0  0
 16 37  1  0  0  0  0
 17 18  2  0  0  0  0
M  END
> <s_m_source_file>
AV-unprocessed.smi

> <i_m_source_file_index>
1358

> <i_lp_mmshare_version>
43012

> <i_f3d_flags>
0

> <s_epik_input>
W0NIM11bQ0gyXVtDSDJdW0NIMl1bTkhdQyg9TylbQ0gyXWMxW2NIXXNjKG4xKU4yW0NIMl1bQ0gyXVtOSF1DMj1P

> <s_epik_cmdline>
J2VwaWtfcHl0aG9uJywgJy1waCcsICc3LjAnLCAnLXRuJywgJzgnLCAnLW1hJywgJzIwMCcsICctbWV0YWxfYmluZGluZycsICctaW1hZScsICc8aW5maWxlLm1hZT4nLCAnLW9tYWUnLCAnPG91dGZpbGUubWFlPic=

> <r_lp_tautomer_probability>
1

> <r_epik_Ionization_Penalty>
0.000120185

> <r_epik_Ionization_Penalty_Charging>
0

> <r_epik_Ionization_Penalty_Neutral>
0.000120185

> <r_epik_State_Penalty>
-0

> <r_epik_Charging_Adjusted_Penalty>
0

> <i_epik_Tot_Q>
0

> <i_epik_Tot_abs_Q>
0

> <r_epik_Metal_State_Penalty>
-0

> <b_epik_Metal_Only>
0

> <s_lp_Force_Field>
OPLS_2005

> <r_lp_Energy>
29.7034

> <b_lp_Chiralities_Consistent>
1

> <s_lp_Variant>
AV-unprocessed.smi:1358-1

> <Gold.Version>
5.8.1

> <Gold.Id.Protein>
6NUR|6NUR_protein|mol2

> <Gold.PLP.Fitness>
39.0548

> <Gold.PLP.PLP>
-34.1656

> <Gold.PLP.part.hbond>
-1.2100

> <Gold.PLP.part.metal>
0.0000

> <Gold.PLP.part.buried>
-7.0245

> <Gold.PLP.part.nonpolar>
-26.5369

> <Gold.PLP.part.repulsive>
0.2914

> <Gold.PLP.ligand.clash>
0.0000

> <Gold.PLP.ligand.torsion>
0.4974

> <Gold.PLP.Chemscore.Hbond>
0.9280

> <Gold.PLP.Chemscore.CHOScore>
1.0000

> <Gold.PLP.Chemscore.Metal>
0.0000

> <Gold.Chemscore.Hbonds>
donor molecule, donor type, donor heavy atom, donor atom, acceptor molecule, acceptor atom, score
      P1  H  7989  7998       L1     7  0.99

> <Gold.PLP.Chemscore.Internal.Correction>
0.1000

> <Gold.Rescore>
     Score         DG    S(hbond)    S(metal)    S(lipo)     H(rot)  DE(clash)    DE(int)     intcor
     10.75     -12.80       0.95        0.00      78.48       1.97       0.08       1.96       ----

> <Gold.Chemscore.Fitness>
10.7530

> <Gold.Chemscore.DG>
-12.7975

> <Gold.Chemscore.ZeroCoef>
-5.4800

> <Gold.Chemscore.Hbond>
0.9530

> <Gold.Chemscore.Metal>
0.0000

> <Gold.Chemscore.Lipo>
78.4814

> <Gold.Chemscore.Internal_Hbond>
0.0000

> <Gold.Chemscore.DEClash>
0.0812

> <Gold.Chemscore.DEInternal>
1.9633

> <Gold.Chemscore.Rot>
1.9718

> <Gold.Chemscore.Internal.Correction>
   9.000000E+99

> <Gold.Chemscore.Hbonds>
donor molecule, donor type, donor heavy atom, donor atom, acceptor molecule, acceptor atom, score
      P1  H  7989  7998       L1     7  0.91

> <Gold.Chemscore.Hbond.Weighted>
-3.1830

> <Gold.Chemscore.Metal.Weighted>
-0.0000

> <Gold.Chemscore.Lipo.Weighted>
-9.1823

> <Gold.Chemscore.Internal_Hbond.Weighted>
0.0000

> <Gold.Chemscore.DEClash.Weighted>
0.0812

> <Gold.Chemscore.DEInternal.Weighted>
1.9633

> <Gold.Chemscore.Rot.Weighted>
5.0478

> <Gold.Chemscore.Internal.Correction.Weighted>
   9.000000E+99

> <Gold.Protein.RotatedTorsions>
[ 6907 6896 6895 6894 ] final   69.96 input  -60.11 | X-H torsion
[ 7974 7965 7964 7962 ] final  -21.17 input  175.53 | X-H torsion
[ 8008 7997 7996 7995 ] final  122.57 input   59.86 | X-H torsion
[ 10167 10162 10161 10158 ] final  102.26 input  -65.29 | X-H torsion
[ 10718 10713 10712 10709 ] final   92.56 input   66.30 | X-H torsion
[ 10763 10752 10751 10750 ] final   99.10 input  -60.55 | X-H torsion
[ 11005 11000 10999 10996 ] final  -19.38 input  -57.11 | X-H torsion

> <Gold.Protein.ActiveResidues>
 VAL166  LYS551  ARG553  GLY616  TRP617  ASP618  TYR619  PRO620  LYS621  CYS622 
 ASP623  PHE694  ASN695  SER759  ASP760  ASP761  ALA762  ILE779  LEU786  VAL792 
 PHE793  MET794  SER795  GLU796  ALA797  LYS798  CYS799  TRP800  GLU811  SER814 

> <Gold.Protein.RotatedAtoms>
  152.4719  134.4939  159.9703 H   0  0  0  0  0  0  0  0  0  0  0  0  # atno 6907 bound_to 6896
  151.4964  133.3508  159.2869 H   0  0  0  0  0  0  0  0  0  0  0  0  # atno 6908 bound_to 6896
  150.8734  134.8140  159.7233 H   0  0  0  0  0  0  0  0  0  0  0  0  # atno 6909 bound_to 6896
  146.1748  140.4303  142.8518 H   0  0  0  0  0  0  0  0  0  0  0  0  # atno 7974 bound_to 7965
  156.2733  140.2783  156.1489 H   0  0  0  0  0  0  0  0  0  0  0  0  # atno 8008 bound_to 7997
  155.0875  140.0388  157.2676 H   0  0  0  0  0  0  0  0  0  0  0  0  # atno 8009 bound_to 7997
  154.6916  140.2630  155.6813 H   0  0  0  0  0  0  0  0  0  0  0  0  # atno 8010 bound_to 7997
  139.7365  144.7022  151.0640 H   0  0  0  0  0  0  0  0  0  0  0  0  # atno 10167 bound_to 10162
  157.6958  131.0447  150.3900 H   0  0  0  0  0  0  0  0  0  0  0  0  # atno 10718 bound_to 10713
  153.2972  135.4125  155.1220 H   0  0  0  0  0  0  0  0  0  0  0  0  # atno 10763 bound_to 10752
  154.8538  135.3532  154.5901 H   0  0  0  0  0  0  0  0  0  0  0  0  # atno 10764 bound_to 10752
  153.6325  135.7060  153.5328 H   0  0  0  0  0  0  0  0  0  0  0  0  # atno 10765 bound_to 10752
  140.8361  133.7961  155.9810 H   0  0  0  0  0  0  0  0  0  0  0  0  # atno 11005 bound_to 11000
  144.8219  140.6564  143.6347 LP  0  0  0  0  0  0  0  0  0  0  0  0  # atno 17320 bound_to 7965
  145.4242  139.1559  143.4057 LP  0  0  0  0  0  0  0  0  0  0  0  0  # atno 17321 bound_to 7965
  140.7779  143.4977  150.9811 LP  0  0  0  0  0  0  0  0  0  0  0  0  # atno 17342 bound_to 10162
  139.8665  143.7247  152.3169 LP  0  0  0  0  0  0  0  0  0  0  0  0  # atno 17343 bound_to 10162
  156.4304  130.3971  149.6764 LP  0  0  0  0  0  0  0  0  0  0  0  0  # atno 17370 bound_to 10713
  156.3983  130.7662  151.2668 LP  0  0  0  0  0  0  0  0  0  0  0  0  # atno 17371 bound_to 10713
  140.8946  134.2453  157.5076 LP  0  0  0  0  0  0  0  0  0  0  0  0  # atno 17394 bound_to 11000
  139.8704  134.9678  156.4608 LP  0  0  0  0  0  0  0  0  0  0  0  0  # atno 17395 bound_to 11000

$$$$
