AV-unprocessed.smi:3234|AV-procd|sdf|12348|dock5
  -GOLD-   2272018213D 1   1.00000     0.00000
 Structure written by MMmdl.
 37 39  0  0  0  0  0  0  0  0  2 V2000
  144.9620  136.6947  152.4692 O   0  0  0  0  0  0  0  0  0  0  0  0
  146.1045  136.2463  152.5540 C   0  0  0  0  0  0  0  0  0  0  0  0
  146.5334  135.0785  152.0430 N   0  0  0  0  0  0  0  0  0  0  0  0
  145.8212  134.0912  151.3053 C   0  0  0  0  0  0  0  0  0  0  0  0
  146.5596  132.9890  150.8261 C   0  0  0  0  0  0  0  0  0  0  0  0
  145.8921  131.9867  150.0942 C   0  0  0  0  0  0  0  0  0  0  0  0
  144.5706  132.0218  149.8243 N   0  0  0  0  0  0  0  0  0  0  0  0
  143.8634  133.0745  150.2856 C   0  0  0  0  0  0  0  0  0  0  0  0
  144.4326  134.1294  151.0272 C   0  0  0  0  0  0  0  0  0  0  0  0
  147.0973  136.8912  153.1830 N   0  0  0  0  0  0  0  0  0  0  0  0
  146.9575  138.1837  153.8452 C   0  0  2  0  0  0  0  0  0  0  0  0
  145.7718  138.2867  154.7999 C   0  0  0  0  0  0  0  0  0  0  0  0
  145.5710  139.8017  154.9165 C   0  0  0  0  0  0  0  0  0  0  0  0
  146.0565  140.3959  153.6457 N   0  3  1  0  0  0  0  0  0  0  0  0
  146.9484  141.5598  153.8399 C   0  0  0  0  0  0  0  0  0  0  0  0
  146.6966  142.3062  155.1282 C   0  0  0  0  0  0  0  0  0  0  0  0
  146.2255  142.8852  153.8117 C   0  0  0  0  0  0  0  0  0  0  0  0
  146.6679  139.3075  152.8513 C   0  0  0  0  0  0  0  0  0  0  0  0
  147.5099  134.8708  152.1915 H   0  0  0  0  0  0  0  0  0  0  0  0
  147.6206  132.9074  151.0122 H   0  0  0  0  0  0  0  0  0  0  0  0
  146.4353  131.1334  149.7158 H   0  0  0  0  0  0  0  0  0  0  0  0
  142.8076  133.0768  150.0582 H   0  0  0  0  0  0  0  0  0  0  0  0
  143.7903  134.9282  151.3606 H   0  0  0  0  0  0  0  0  0  0  0  0
  148.0084  136.4567  153.2082 H   0  0  0  0  0  0  0  0  0  0  0  0
  147.8779  138.4190  154.3843 H   0  0  0  0  0  0  0  0  0  0  0  0
  144.8870  137.8254  154.3585 H   0  0  0  0  0  0  0  0  0  0  0  0
  145.9566  137.8107  155.7636 H   0  0  0  0  0  0  0  0  0  0  0  0
  144.5286  140.0640  155.0988 H   0  0  0  0  0  0  0  0  0  0  0  0
  146.1563  140.1800  155.7565 H   0  0  0  0  0  0  0  0  0  0  0  0
  147.9571  141.4707  153.4399 H   0  0  0  0  0  0  0  0  0  0  0  0
  145.9396  141.9188  155.8078 H   0  0  0  0  0  0  0  0  0  0  0  0
  147.5484  142.7858  155.6062 H   0  0  0  0  0  0  0  0  0  0  0  0
  146.7681  143.7443  153.4224 H   0  0  0  0  0  0  0  0  0  0  0  0
  145.1546  142.8845  153.6165 H   0  0  0  0  0  0  0  0  0  0  0  0
  147.5606  139.6263  152.3104 H   0  0  0  0  0  0  0  0  0  0  0  0
  145.9346  138.9820  152.1118 H   0  0  0  0  0  0  0  0  0  0  0  0
  145.2517  140.7212  153.1294 H   0  0  0  0  0  0  0  0  0  0  0  0
  1  2  2  0  0  0  0
  2  3  1  0  0  0  0
  2 10  1  0  0  0  0
  3  4  1  0  0  0  0
  3 19  1  0  0  0  0
  4  9  1  0  0  0  0
  4  5  2  0  0  0  0
  5  6  1  0  0  0  0
  5 20  1  0  0  0  0
  6  7  2  0  0  0  0
  6 21  1  0  0  0  0
  7  8  1  0  0  0  0
  8  9  2  0  0  0  0
  8 22  1  0  0  0  0
  9 23  1  0  0  0  0
 10 11  1  0  0  0  0
 10 24  1  0  0  0  0
 11 18  1  0  0  0  0
 11 12  1  0  0  0  0
 11 25  1  0  0  0  0
 12 13  1  0  0  0  0
 12 26  1  0  0  0  0
 12 27  1  0  0  0  0
 13 14  1  0  0  0  0
 13 28  1  0  0  0  0
 13 29  1  0  0  0  0
 14 15  1  0  0  0  0
 14 18  1  0  0  0  0
 14 37  1  0  0  0  0
 15 17  1  0  0  0  0
 15 16  1  0  0  0  0
 15 30  1  0  0  0  0
 16 17  1  0  0  0  0
 16 31  1  0  0  0  0
 16 32  1  0  0  0  0
 17 33  1  0  0  0  0
 17 34  1  0  0  0  0
 18 35  1  0  0  0  0
 18 36  1  0  0  0  0
M  CHG  1  14   1
M  END
> <s_m_source_file>
AV-unprocessed.smi

> <i_m_source_file_index>
3234

> <i_lp_mmshare_version>
43012

> <i_f3d_flags>
0

> <s_epik_input>
W2NIXTFbY0hdbltjSF1bY0hdYzFbTkhdQyg9TylbTkhdW0NAQEhdMltDSDJdW0NIMl1OKFtDSDJdMilbQ0hdM1tDSDJdW0NIMl0z

> <s_epik_cmdline>
J2VwaWtfcHl0aG9uJywgJy1waCcsICc3LjAnLCAnLXRuJywgJzgnLCAnLW1hJywgJzIwMCcsICctbWV0YWxfYmluZGluZycsICctaW1hZScsICc8aW5maWxlLm1hZT4nLCAnLW9tYWUnLCAnPG91dGZpbGUubWFlPic=

> <r_epik_Ionization_Penalty>
0.0934328

> <r_epik_Ionization_Penalty_Charging>
0.000606352

> <r_epik_Ionization_Penalty_Neutral>
0.0928265

> <r_epik_State_Penalty>
0.0830811

> <r_epik_Charging_Adjusted_Penalty>
0.0836875

> <i_epik_Tot_Q>
1

> <i_epik_Tot_abs_Q>
1

> <r_epik_Metal_State_Penalty>
0.0724491

> <b_epik_Metal_Only>
0

> <s_lp_Force_Field>
OPLS_2005

> <r_lp_Energy>
42.4864

> <b_lp_Chiralities_Consistent>
1

> <s_lp_Variant>
AV-unprocessed.smi:3234-1

> <Gold.Version>
5.8.1

> <Gold.Id.Protein>
6NUR|6NUR_protein|mol2

> <Gold.PLP.Fitness>
42.5753

> <Gold.PLP.PLP>
-28.8190

> <Gold.PLP.part.hbond>
-2.4769

> <Gold.PLP.part.metal>
0.0000

> <Gold.PLP.part.buried>
-2.1348

> <Gold.PLP.part.nonpolar>
-24.6669

> <Gold.PLP.part.repulsive>
0.3889

> <Gold.PLP.ligand.clash>
0.0000

> <Gold.PLP.ligand.torsion>
0.9472

> <Gold.PLP.Chemscore.Hbond>
3.1520

> <Gold.PLP.Chemscore.CHOScore>
1.6435

> <Gold.PLP.Chemscore.Metal>
0.0000

> <Gold.Chemscore.Hbonds>
donor molecule, donor type, donor heavy atom, donor atom, acceptor molecule, acceptor atom, score
      L1  H     3    19       P1  7948  0.45
      L1  H    10    24       P1  7948  0.48
      L1  H    14    37       P1 10175  2.00
      L1  C     6    21       P1 10747  0.68
      L1  C     8    22       P1 10186  1.00

> <Gold.PLP.Chemscore.Internal.Correction>
1.2641

> <Gold.Rescore>
     Score         DG    S(hbond)    S(metal)    S(lipo)     H(rot)  DE(clash)    DE(int)     intcor
     14.88     -18.21       2.11        0.00      75.20       1.21       0.14       3.20       ----

> <Gold.Chemscore.Fitness>
14.8762

> <Gold.Chemscore.DG>
-18.2106

> <Gold.Chemscore.ZeroCoef>
-5.4800

> <Gold.Chemscore.Hbond>
2.1052

> <Gold.Chemscore.Metal>
0.0000

> <Gold.Chemscore.Lipo>
75.2024

> <Gold.Chemscore.Internal_Hbond>
0.0000

> <Gold.Chemscore.DEClash>
0.1362

> <Gold.Chemscore.DEInternal>
3.1982

> <Gold.Chemscore.Rot>
1.2108

> <Gold.Chemscore.Internal.Correction>
   9.000000E+99

> <Gold.Chemscore.Hbonds>
donor molecule, donor type, donor heavy atom, donor atom, acceptor molecule, acceptor atom, score
      L1  H     3    19       P1  7948  0.41
      L1  H    10    24       P1  7948  0.48
      L1  H    14    37       P1 10175  0.72

> <Gold.Chemscore.Hbond.Weighted>
-7.0315

> <Gold.Chemscore.Metal.Weighted>
-0.0000

> <Gold.Chemscore.Lipo.Weighted>
-8.7987

> <Gold.Chemscore.Internal_Hbond.Weighted>
0.0000

> <Gold.Chemscore.DEClash.Weighted>
0.1362

> <Gold.Chemscore.DEInternal.Weighted>
3.1982

> <Gold.Chemscore.Rot.Weighted>
3.0996

> <Gold.Chemscore.Internal.Correction.Weighted>
   9.000000E+99

> <Gold.Protein.RotatedTorsions>
[ 6907 6896 6895 6894 ] final  148.42 input  -60.11 | X-H torsion
[ 7974 7965 7964 7962 ] final   -9.40 input  175.53 | X-H torsion
[ 8008 7997 7996 7995 ] final   39.32 input   59.86 | X-H torsion
[ 10167 10162 10161 10158 ] final -134.66 input  -65.29 | X-H torsion
[ 10718 10713 10712 10709 ] final -166.87 input   66.30 | X-H torsion
[ 10763 10752 10751 10750 ] final  -61.42 input  -60.55 | X-H torsion
[ 11005 11000 10999 10996 ] final   -3.68 input  -57.11 | X-H torsion

> <Gold.Protein.ActiveResidues>
 VAL166  LYS551  ARG553  GLY616  TRP617  ASP618  TYR619  PRO620  LYS621  CYS622 
 ASP623  PHE694  ASN695  SER759  ASP760  ASP761  ALA762  ILE779  LEU786  VAL792 
 PHE793  MET794  SER795  GLU796  ALA797  LYS798  CYS799  TRP800  GLU811  SER814 

> <Gold.Protein.RotatedAtoms>
  152.1417  133.4468  159.4769 H   0  0  0  0  0  0  0  0  0  0  0  0  # atno 6907 bound_to 6896
  150.6887  134.2297  159.4438 H   0  0  0  0  0  0  0  0  0  0  0  0  # atno 6908 bound_to 6896
  152.0188  134.9834  160.0620 H   0  0  0  0  0  0  0  0  0  0  0  0  # atno 6909 bound_to 6896
  146.2252  140.2611  142.8352 H   0  0  0  0  0  0  0  0  0  0  0  0  # atno 7974 bound_to 7965
  155.2347  140.3341  155.4299 H   0  0  0  0  0  0  0  0  0  0  0  0  # atno 8008 bound_to 7997
  156.2280  140.1838  156.7359 H   0  0  0  0  0  0  0  0  0  0  0  0  # atno 8009 bound_to 7997
  154.5931  140.0635  156.9251 H   0  0  0  0  0  0  0  0  0  0  0  0  # atno 8010 bound_to 7997
  139.8858  143.6783  152.2620 H   0  0  0  0  0  0  0  0  0  0  0  0  # atno 10167 bound_to 10162
  156.6741  130.9096  151.3048 H   0  0  0  0  0  0  0  0  0  0  0  0  # atno 10718 bound_to 10713
  154.2843  135.6266  153.5359 H   0  0  0  0  0  0  0  0  0  0  0  0  # atno 10763 bound_to 10752
  152.9861  135.5640  154.5460 H   0  0  0  0  0  0  0  0  0  0  0  0  # atno 10764 bound_to 10752
  154.5058  135.2874  155.1359 H   0  0  0  0  0  0  0  0  0  0  0  0  # atno 10765 bound_to 10752
  140.6720  133.9228  155.8501 H   0  0  0  0  0  0  0  0  0  0  0  0  # atno 11005 bound_to 11000
  144.9339  140.8005  143.5672 LP  0  0  0  0  0  0  0  0  0  0  0  0  # atno 17320 bound_to 7965
  145.2557  139.2013  143.4919 LP  0  0  0  0  0  0  0  0  0  0  0  0  # atno 17321 bound_to 7965
  139.7154  144.7613  151.1042 LP  0  0  0  0  0  0  0  0  0  0  0  0  # atno 17342 bound_to 10162
  140.7736  143.5276  150.9462 LP  0  0  0  0  0  0  0  0  0  0  0  0  # atno 17343 bound_to 10162
  157.7067  130.9393  150.0953 LP  0  0  0  0  0  0  0  0  0  0  0  0  # atno 17370 bound_to 10713
  156.1917  130.3655  149.8902 LP  0  0  0  0  0  0  0  0  0  0  0  0  # atno 17371 bound_to 10713
  141.0384  134.0656  157.3931 LP  0  0  0  0  0  0  0  0  0  0  0  0  # atno 17394 bound_to 11000
  139.8978  135.0152  156.7120 LP  0  0  0  0  0  0  0  0  0  0  0  0  # atno 17395 bound_to 11000

$$$$
