AV-unprocessed.smi:3337|AV-procd|sdf|12862|dock1
  -GOLD-   2272019263D 1   1.00000     0.00000
 Structure written by MMmdl.
 46 47  0  0  0  0  0  0  0  0  2 V2000
  143.2602  135.6483  152.8522 C   0  0  0  0  0  0  0  0  0  0  0  0
  144.3681  134.6291  152.5516 C   0  0  1  0  0  0  0  0  0  0  0  0
  144.1155  133.9038  151.2185 C   0  0  0  0  0  0  0  0  0  0  0  0
  145.2523  132.9154  150.9049 C   0  0  1  0  0  0  0  0  0  0  0  0
  145.0195  132.2037  149.5647 C   0  0  0  0  0  0  0  0  0  0  0  0
  146.6105  133.6479  150.9253 C   0  0  0  0  0  0  0  0  0  0  0  0
  146.8546  134.3426  152.2169 N   0  3  2  0  0  0  0  0  0  0  0  0
  147.2288  133.4232  153.3247 C   0  0  0  0  0  0  0  0  0  0  0  0
  148.3718  133.9840  154.1938 C   0  0  0  0  0  0  0  0  0  0  0  0
  148.3287  135.4398  154.2638 N   0  0  0  0  0  0  0  0  0  0  0  0
  147.8166  136.1425  155.2870 C   0  0  0  0  0  0  0  0  0  0  0  0
  147.3453  135.6109  156.2932 O   0  0  0  0  0  0  0  0  0  0  0  0
  147.8424  137.6727  155.1467 C   0  0  2  0  0  0  0  0  0  0  0  0
  146.9971  138.1730  153.9580 C   0  0  0  0  0  0  0  0  0  0  0  0
  149.2179  138.1509  155.0829 N   0  0  0  0  0  0  0  0  0  0  0  0
  149.7953  138.9902  154.2203 C   0  0  0  0  0  0  0  0  0  0  0  0
  151.0694  139.2426  154.4846 N   0  0  0  0  0  0  0  0  0  0  0  0
  151.2247  138.4809  155.6077 C   0  0  0  0  0  0  0  0  0  0  0  0
  150.1444  137.8153  156.0153 N   0  0  0  0  0  0  0  0  0  0  0  0
  145.7603  135.2990  152.5417 C   0  0  0  0  0  0  0  0  0  0  0  0
  143.2225  136.4313  152.0941 H   0  0  0  0  0  0  0  0  0  0  0  0
  143.4200  136.1276  153.8186 H   0  0  0  0  0  0  0  0  0  0  0  0
  142.2819  135.1675  152.8829 H   0  0  0  0  0  0  0  0  0  0  0  0
  144.3407  133.8880  153.3505 H   0  0  0  0  0  0  0  0  0  0  0  0
  143.1627  133.3740  151.2587 H   0  0  0  0  0  0  0  0  0  0  0  0
  144.0296  134.6337  150.4119 H   0  0  0  0  0  0  0  0  0  0  0  0
  145.2603  132.1485  151.6805 H   0  0  0  0  0  0  0  0  0  0  0  0
  145.0102  132.9111  148.7347 H   0  0  0  0  0  0  0  0  0  0  0  0
  144.0654  131.6754  149.5611 H   0  0  0  0  0  0  0  0  0  0  0  0
  145.8017  131.4699  149.3682 H   0  0  0  0  0  0  0  0  0  0  0  0
  147.4261  132.9553  150.7134 H   0  0  0  0  0  0  0  0  0  0  0  0
  146.6348  134.3930  150.1284 H   0  0  0  0  0  0  0  0  0  0  0  0
  146.3565  133.1860  153.9331 H   0  0  0  0  0  0  0  0  0  0  0  0
  147.5664  132.4761  152.9015 H   0  0  0  0  0  0  0  0  0  0  0  0
  148.2928  133.5938  155.2087 H   0  0  0  0  0  0  0  0  0  0  0  0
  149.3494  133.6782  153.8208 H   0  0  0  0  0  0  0  0  0  0  0  0
  148.6959  135.9493  153.4728 H   0  0  0  0  0  0  0  0  0  0  0  0
  147.4004  138.0915  156.0527 H   0  0  0  0  0  0  0  0  0  0  0  0
  145.9604  137.8472  154.0493 H   0  0  0  0  0  0  0  0  0  0  0  0
  147.3745  137.8079  153.0020 H   0  0  0  0  0  0  0  0  0  0  0  0
  146.9944  139.2625  153.9155 H   0  0  0  0  0  0  0  0  0  0  0  0
  149.2729  139.4282  153.3825 H   0  0  0  0  0  0  0  0  0  0  0  0
  152.1600  138.4204  156.1447 H   0  0  0  0  0  0  0  0  0  0  0  0
  145.7741  136.0893  151.7898 H   0  0  0  0  0  0  0  0  0  0  0  0
  145.9500  135.7941  153.4932 H   0  0  0  0  0  0  0  0  0  0  0  0
  147.6790  134.9051  152.0620 H   0  0  0  0  0  0  0  0  0  0  0  0
  1  2  1  0  0  0  0
  1 21  1  0  0  0  0
  1 22  1  0  0  0  0
  1 23  1  0  0  0  0
  2 20  1  0  0  0  0
  2  3  1  0  0  0  0
  2 24  1  0  0  0  0
  3  4  1  0  0  0  0
  3 25  1  0  0  0  0
  3 26  1  0  0  0  0
  4  5  1  0  0  0  0
  4  6  1  0  0  0  0
  4 27  1  0  0  0  0
  5 28  1  0  0  0  0
  5 29  1  0  0  0  0
  5 30  1  0  0  0  0
  6  7  1  0  0  0  0
  6 31  1  0  0  0  0
  6 32  1  0  0  0  0
  7  8  1  0  0  0  0
  7 20  1  0  0  0  0
  7 46  1  0  0  0  0
  8  9  1  0  0  0  0
  8 33  1  0  0  0  0
  8 34  1  0  0  0  0
  9 10  1  0  0  0  0
  9 35  1  0  0  0  0
  9 36  1  0  0  0  0
 10 11  1  0  0  0  0
 10 37  1  0  0  0  0
 11 12  2  0  0  0  0
 11 13  1  0  0  0  0
 13 14  1  0  0  0  0
 13 15  1  0  0  0  0
 13 38  1  0  0  0  0
 14 39  1  0  0  0  0
 14 40  1  0  0  0  0
 14 41  1  0  0  0  0
 15 19  1  0  0  0  0
 15 16  1  0  0  0  0
 16 17  2  0  0  0  0
 16 42  1  0  0  0  0
 17 18  1  0  0  0  0
 18 19  2  0  0  0  0
 18 43  1  0  0  0  0
 20 44  1  0  0  0  0
 20 45  1  0  0  0  0
M  CHG  1   7   1
M  END
> <s_m_source_file>
AV-unprocessed.smi

> <i_m_source_file_index>
3337

> <i_lp_mmshare_version>
43012

> <i_f3d_flags>
0

> <s_epik_input>
W0NIM11bQ0BASF0xW0NIMl1bQ0BASF0oW0NIM10pW0NIMl1OKFtDSDJdMSlbQ0gyXVtDSDJdW05IXUMoPU8pW0NASF0oW0NIM10pbjJbY0hdbltjSF1uMg==

> <s_epik_cmdline>
J2VwaWtfcHl0aG9uJywgJy1waCcsICc3LjAnLCAnLXRuJywgJzgnLCAnLW1hJywgJzIwMCcsICctbWV0YWxfYmluZGluZycsICctaW1hZScsICc8aW5maWxlLm1hZT4nLCAnLW9tYWUnLCAnPG91dGZpbGUubWFlPic=

> <r_lp_tautomer_probability>
1

> <r_epik_Ionization_Penalty>
0.00175613

> <r_epik_Ionization_Penalty_Charging>
0.00174812

> <r_epik_Ionization_Penalty_Neutral>
8.01354e-06

> <r_epik_State_Penalty>
0.00118332

> <r_epik_Charging_Adjusted_Penalty>
0.00293143

> <i_epik_Tot_Q>
1

> <i_epik_Tot_abs_Q>
1

> <r_epik_Metal_State_Penalty>
-0

> <b_epik_Metal_Only>
0

> <s_lp_Force_Field>
OPLS_2005

> <r_lp_Energy>
24.5444

> <b_lp_Chiralities_Consistent>
1

> <s_lp_Variant>
AV-unprocessed.smi:3337-2

> <Gold.Version>
5.8.1

> <Gold.Id.Protein>
6NUR|6NUR_protein|mol2

> <Gold.PLP.Fitness>
41.8115

> <Gold.PLP.PLP>
-28.4445

> <Gold.PLP.part.hbond>
-2.8545

> <Gold.PLP.part.metal>
0.0000

> <Gold.PLP.part.buried>
-3.7832

> <Gold.PLP.part.nonpolar>
-20.2818

> <Gold.PLP.part.repulsive>
0.2098

> <Gold.PLP.ligand.clash>
0.0000

> <Gold.PLP.ligand.torsion>
0.9277

> <Gold.PLP.Chemscore.Hbond>
4.0000

> <Gold.PLP.Chemscore.CHOScore>
1.0000

> <Gold.PLP.Chemscore.Metal>
0.0000

> <Gold.Chemscore.Hbonds>
donor molecule, donor type, donor heavy atom, donor atom, acceptor molecule, acceptor atom, score
      L1  H     7    46       P1  7948  2.00
      L1  H    10    37       P1  7948  1.00
      P1  H  7989  7998       L1    17  1.00
      L1  C    16    42       P1  7957  1.00

> <Gold.PLP.Chemscore.Internal.Correction>
0.2225

> <Gold.Rescore>
     Score         DG    S(hbond)    S(metal)    S(lipo)     H(rot)  DE(clash)    DE(int)     intcor
     14.30     -15.23       2.74        0.00      60.18       2.51       0.00       0.93       ----

> <Gold.Chemscore.Fitness>
14.3003

> <Gold.Chemscore.DG>
-15.2319

> <Gold.Chemscore.ZeroCoef>
-5.4800

> <Gold.Chemscore.Hbond>
2.7378

> <Gold.Chemscore.Metal>
0.0000

> <Gold.Chemscore.Lipo>
60.1761

> <Gold.Chemscore.Internal_Hbond>
0.0000

> <Gold.Chemscore.DEClash>
0.0021

> <Gold.Chemscore.DEInternal>
0.9295

> <Gold.Chemscore.Rot>
2.5129

> <Gold.Chemscore.Internal.Correction>
   9.000000E+99

> <Gold.Chemscore.Hbonds>
donor molecule, donor type, donor heavy atom, donor atom, acceptor molecule, acceptor atom, score
      L1  H     7    46       P1  7948  0.78
      L1  H    10    37       P1  7948  0.98
      P1  H  7989  7998       L1    17  0.68

> <Gold.Chemscore.Hbond.Weighted>
-9.1443

> <Gold.Chemscore.Metal.Weighted>
-0.0000

> <Gold.Chemscore.Lipo.Weighted>
-7.0406

> <Gold.Chemscore.Internal_Hbond.Weighted>
0.0000

> <Gold.Chemscore.DEClash.Weighted>
0.0021

> <Gold.Chemscore.DEInternal.Weighted>
0.9295

> <Gold.Chemscore.Rot.Weighted>
6.4331

> <Gold.Chemscore.Internal.Correction.Weighted>
   9.000000E+99

> <Gold.Protein.RotatedTorsions>
[ 6907 6896 6895 6894 ] final   16.59 input  -60.11 | X-H torsion
[ 7974 7965 7964 7962 ] final  175.46 input  175.53 | X-H torsion
[ 8008 7997 7996 7995 ] final -140.32 input   59.86 | X-H torsion
[ 10167 10162 10161 10158 ] final -148.41 input  -65.29 | X-H torsion
[ 10718 10713 10712 10709 ] final  161.37 input   66.30 | X-H torsion
[ 10763 10752 10751 10750 ] final  164.79 input  -60.55 | X-H torsion
[ 11005 11000 10999 10996 ] final  -73.06 input  -57.11 | X-H torsion

> <Gold.Protein.ActiveResidues>
 VAL166  LYS551  ARG553  GLY616  TRP617  ASP618  TYR619  PRO620  LYS621  CYS622 
 ASP623  PHE694  ASN695  SER759  ASP760  ASP761  ALA762  ILE779  LEU786  VAL792 
 PHE793  MET794  SER795  GLU796  ALA797  LYS798  CYS799  TRP800  GLU811  SER814 

> <Gold.Protein.RotatedAtoms>
  151.8362  135.0605  160.0442 H   0  0  0  0  0  0  0  0  0  0  0  0  # atno 6907 bound_to 6896
  152.2843  133.5495  159.5525 H   0  0  0  0  0  0  0  0  0  0  0  0  # atno 6908 bound_to 6896
  150.7202  134.0436  159.3816 H   0  0  0  0  0  0  0  0  0  0  0  0  # atno 6909 bound_to 6896
  144.7201  139.9950  143.6440 H   0  0  0  0  0  0  0  0  0  0  0  0  # atno 7974 bound_to 7965
  155.4594  140.0544  157.2992 H   0  0  0  0  0  0  0  0  0  0  0  0  # atno 8008 bound_to 7997
  154.4744  140.2054  155.9870 H   0  0  0  0  0  0  0  0  0  0  0  0  # atno 8009 bound_to 7997
  156.1107  140.3204  155.8074 H   0  0  0  0  0  0  0  0  0  0  0  0  # atno 8010 bound_to 7997
  139.7534  143.8484  152.2591 H   0  0  0  0  0  0  0  0  0  0  0  0  # atno 10167 bound_to 10162
  157.1375  131.0532  151.2342 H   0  0  0  0  0  0  0  0  0  0  0  0  # atno 10718 bound_to 10713
  154.3143  135.2757  155.2551 H   0  0  0  0  0  0  0  0  0  0  0  0  # atno 10763 bound_to 10752
  154.4932  135.5828  153.6478 H   0  0  0  0  0  0  0  0  0  0  0  0  # atno 10764 bound_to 10752
  152.9884  135.6139  154.3323 H   0  0  0  0  0  0  0  0  0  0  0  0  # atno 10765 bound_to 10752
  141.1617  133.6866  156.7154 H   0  0  0  0  0  0  0  0  0  0  0  0  # atno 11005 bound_to 11000
  146.0381  139.3396  143.0714 LP  0  0  0  0  0  0  0  0  0  0  0  0  # atno 17320 bound_to 7965
  145.8369  140.9601  143.0820 LP  0  0  0  0  0  0  0  0  0  0  0  0  # atno 17321 bound_to 7965
  139.8469  144.7183  150.9262 LP  0  0  0  0  0  0  0  0  0  0  0  0  # atno 17342 bound_to 10162
  140.7800  143.3934  151.1272 LP  0  0  0  0  0  0  0  0  0  0  0  0  # atno 17343 bound_to 10162
  157.4337  130.7505  149.7011 LP  0  0  0  0  0  0  0  0  0  0  0  0  # atno 17370 bound_to 10713
  155.9795  130.4039  150.3583 LP  0  0  0  0  0  0  0  0  0  0  0  0  # atno 17371 bound_to 10713
  140.2856  134.8282  157.3972 LP  0  0  0  0  0  0  0  0  0  0  0  0  # atno 17394 bound_to 11000
  140.1393  134.4992  155.8044 LP  0  0  0  0  0  0  0  0  0  0  0  0  # atno 17395 bound_to 11000

$$$$
