AV-unprocessed.smi:1436|AV-procd|sdf|5862|dock6
  -GOLD-   22720 5533D 1   1.00000     0.00000
 Structure written by MMmdl.
 44 45  0  0  0  0  0  0  0  0  2 V2000
  150.5039  142.5124  157.8511 C   0  0  0  0  0  0  0  0  0  0  0  0
  151.1958  141.3839  157.1418 C   0  0  0  0  0  0  0  0  0  0  0  0
  152.1348  140.6943  157.7668 N   0  0  0  0  0  0  0  0  0  0  0  0
  152.5659  139.7226  156.8589 O   0  0  0  0  0  0  0  0  0  0  0  0
  151.8568  139.8630  155.7106 C   0  0  0  0  0  0  0  0  0  0  0  0
  152.1563  138.8972  154.6148 C   0  0  0  0  0  0  0  0  0  0  0  0
  150.9704  140.8988  155.8217 C   0  0  0  0  0  0  0  0  0  0  0  0
  149.9735  141.4008  154.8090 C   0  0  0  0  0  0  0  0  0  0  0  0
  148.6847  140.5979  154.9612 C   0  0  0  0  0  0  0  0  0  0  0  0
  148.1383  140.5149  156.0604 O   0  0  0  0  0  0  0  0  0  0  0  0
  148.2506  139.9633  153.8608 N   0  0  0  0  0  0  0  0  0  0  0  0
  147.1719  138.9774  153.8095 C   0  0  1  0  0  0  0  0  0  0  0  0
  145.9764  139.4822  154.6286 C   0  0  0  0  0  0  0  0  0  0  0  0
  146.7800  138.6855  152.3428 C   0  0  0  0  0  0  0  0  0  0  0  0
  146.5145  137.2465  152.0810 N   0  3  0  0  0  0  0  0  0  0  0  0
  145.9148  136.5321  153.2338 C   0  0  0  0  0  0  0  0  0  0  0  0
  145.7470  135.0403  152.9025 C   0  0  0  0  0  0  0  0  0  0  0  0
  144.9354  134.9023  151.7427 O   0  0  0  0  0  0  0  0  0  0  0  0
  145.5256  135.5160  150.6034 C   0  0  0  0  0  0  0  0  0  0  0  0
  145.7090  137.0224  150.8576 C   0  0  0  0  0  0  0  0  0  0  0  0
  149.4484  142.2864  158.0035 H   0  0  0  0  0  0  0  0  0  0  0  0
  150.5653  143.4331  157.2706 H   0  0  0  0  0  0  0  0  0  0  0  0
  150.9450  142.7081  158.8294 H   0  0  0  0  0  0  0  0  0  0  0  0
  151.2995  138.2500  154.4273 H   0  0  0  0  0  0  0  0  0  0  0  0
  153.0072  138.2646  154.8694 H   0  0  0  0  0  0  0  0  0  0  0  0
  152.3932  139.4236  153.6900 H   0  0  0  0  0  0  0  0  0  0  0  0
  149.7558  142.4599  154.9520 H   0  0  0  0  0  0  0  0  0  0  0  0
  150.3489  141.3011  153.7895 H   0  0  0  0  0  0  0  0  0  0  0  0
  148.7607  140.1173  153.0027 H   0  0  0  0  0  0  0  0  0  0  0  0
  147.4997  138.0456  154.2722 H   0  0  0  0  0  0  0  0  0  0  0  0
  145.1639  138.7551  154.6238 H   0  0  0  0  0  0  0  0  0  0  0  0
  145.5863  140.4198  154.2307 H   0  0  0  0  0  0  0  0  0  0  0  0
  146.2577  139.6532  155.6685 H   0  0  0  0  0  0  0  0  0  0  0  0
  145.9175  139.2835  152.0454 H   0  0  0  0  0  0  0  0  0  0  0  0
  147.6059  139.0043  151.7047 H   0  0  0  0  0  0  0  0  0  0  0  0
  146.5426  136.6361  154.1177 H   0  0  0  0  0  0  0  0  0  0  0  0
  144.9468  136.9727  153.4766 H   0  0  0  0  0  0  0  0  0  0  0  0
  146.7161  134.5641  152.7450 H   0  0  0  0  0  0  0  0  0  0  0  0
  145.2681  134.5219  153.7331 H   0  0  0  0  0  0  0  0  0  0  0  0
  146.4797  135.0410  150.3759 H   0  0  0  0  0  0  0  0  0  0  0  0
  144.8785  135.3565  149.7408 H   0  0  0  0  0  0  0  0  0  0  0  0
  144.7366  137.5056  150.9660 H   0  0  0  0  0  0  0  0  0  0  0  0
  146.2025  137.4790  149.9988 H   0  0  0  0  0  0  0  0  0  0  0  0
  147.4131  136.8184  151.9083 H   0  0  0  0  0  0  0  0  0  0  0  0
  1  2  1  0  0  0  0
  1 21  1  0  0  0  0
  1 22  1  0  0  0  0
  1 23  1  0  0  0  0
  2  7  1  0  0  0  0
  2  3  2  0  0  0  0
  3  4  1  0  0  0  0
  4  5  1  0  0  0  0
  5  6  1  0  0  0  0
  5  7  2  0  0  0  0
  6 24  1  0  0  0  0
  6 25  1  0  0  0  0
  6 26  1  0  0  0  0
  7  8  1  0  0  0  0
  8  9  1  0  0  0  0
  8 27  1  0  0  0  0
  8 28  1  0  0  0  0
  9 10  2  0  0  0  0
  9 11  1  0  0  0  0
 11 12  1  0  0  0  0
 11 29  1  0  0  0  0
 12 13  1  0  0  0  0
 12 14  1  0  0  0  0
 12 30  1  0  0  0  0
 13 31  1  0  0  0  0
 13 32  1  0  0  0  0
 13 33  1  0  0  0  0
 14 15  1  0  0  0  0
 14 34  1  0  0  0  0
 14 35  1  0  0  0  0
 15 20  1  0  0  0  0
 15 16  1  0  0  0  0
 15 44  1  0  0  0  0
 16 17  1  0  0  0  0
 16 36  1  0  0  0  0
 16 37  1  0  0  0  0
 17 18  1  0  0  0  0
 17 38  1  0  0  0  0
 17 39  1  0  0  0  0
 18 19  1  0  0  0  0
 19 20  1  0  0  0  0
 19 40  1  0  0  0  0
 19 41  1  0  0  0  0
 20 42  1  0  0  0  0
 20 43  1  0  0  0  0
M  CHG  1  15   1
M  END
> <s_m_source_file>
AV-unprocessed.smi

> <i_m_source_file_index>
1436

> <i_lp_mmshare_version>
43012

> <i_f3d_flags>
0

> <s_epik_input>
W0NIM11jMW5vYyhbQ0gzXSljMVtDSDJdQyg9TylbTkhdW0NASF0oW0NIM10pW0NIMl1OMltDSDJdW0NIMl1PW0NIMl1bQ0gyXTI=

> <s_epik_cmdline>
J2VwaWtfcHl0aG9uJywgJy1waCcsICc3LjAnLCAnLXRuJywgJzgnLCAnLW1hJywgJzIwMCcsICctbWV0YWxfYmluZGluZycsICctaW1hZScsICc8aW5maWxlLm1hZT4nLCAnLW9tYWUnLCAnPG91dGZpbGUubWFlPic=

> <r_epik_Ionization_Penalty>
0.663207

> <r_epik_Ionization_Penalty_Charging>
0.663207

> <r_epik_Ionization_Penalty_Neutral>
1.07515e-07

> <r_epik_State_Penalty>
0.682743

> <r_epik_Charging_Adjusted_Penalty>
1.34595

> <i_epik_Tot_Q>
1

> <i_epik_Tot_abs_Q>
1

> <r_epik_Metal_State_Penalty>
0.682743

> <b_epik_Metal_Only>
0

> <s_lp_Force_Field>
OPLS_2005

> <r_lp_Energy>
13.3676

> <b_lp_Chiralities_Consistent>
1

> <s_lp_Variant>
AV-unprocessed.smi:1436-4

> <Gold.Version>
5.8.1

> <Gold.Id.Protein>
6NUR|6NUR_protein|mol2

> <Gold.PLP.Fitness>
38.6017

> <Gold.PLP.PLP>
-29.2774

> <Gold.PLP.part.hbond>
-2.9982

> <Gold.PLP.part.metal>
0.0000

> <Gold.PLP.part.buried>
2.5352

> <Gold.PLP.part.nonpolar>
-29.2191

> <Gold.PLP.part.repulsive>
0.3146

> <Gold.PLP.ligand.clash>
0.0000

> <Gold.PLP.ligand.torsion>
1.3438

> <Gold.PLP.Chemscore.Hbond>
3.9913

> <Gold.PLP.Chemscore.CHOScore>
0.0000

> <Gold.PLP.Chemscore.Metal>
0.0000

> <Gold.Chemscore.Hbonds>
donor molecule, donor type, donor heavy atom, donor atom, acceptor molecule, acceptor atom, score
      L1  H    11    29       P1  7957  1.00
      L1  H    15    44       P1  7948  2.00
      P1  H  7997  8010       L1     4  1.00

> <Gold.PLP.Chemscore.Internal.Correction>
0.0382

> <Gold.Rescore>
     Score         DG    S(hbond)    S(metal)    S(lipo)     H(rot)  DE(clash)    DE(int)     intcor
     14.48     -18.26       2.54        0.00      76.03       1.79       1.15       2.63       ----

> <Gold.Chemscore.Fitness>
14.4837

> <Gold.Chemscore.DG>
-18.2628

> <Gold.Chemscore.ZeroCoef>
-5.4800

> <Gold.Chemscore.Hbond>
2.5384

> <Gold.Chemscore.Metal>
0.0000

> <Gold.Chemscore.Lipo>
76.0343

> <Gold.Chemscore.Internal_Hbond>
0.0000

> <Gold.Chemscore.DEClash>
1.1506

> <Gold.Chemscore.DEInternal>
2.6285

> <Gold.Chemscore.Rot>
1.7936

> <Gold.Chemscore.Internal.Correction>
   9.000000E+99

> <Gold.Chemscore.Hbonds>
donor molecule, donor type, donor heavy atom, donor atom, acceptor molecule, acceptor atom, score
      L1  H    11    29       P1  7957  0.93
      L1  H    15    44       P1  7948  0.99
      P1  H  7997  8010       L1     4  0.35

> <Gold.Chemscore.Hbond.Weighted>
-8.4784

> <Gold.Chemscore.Metal.Weighted>
-0.0000

> <Gold.Chemscore.Lipo.Weighted>
-8.8960

> <Gold.Chemscore.Internal_Hbond.Weighted>
0.0000

> <Gold.Chemscore.DEClash.Weighted>
1.1506

> <Gold.Chemscore.DEInternal.Weighted>
2.6285

> <Gold.Chemscore.Rot.Weighted>
4.5916

> <Gold.Chemscore.Internal.Correction.Weighted>
   9.000000E+99

> <Gold.Protein.RotatedTorsions>
[ 6907 6896 6895 6894 ] final  118.74 input  -60.11 | X-H torsion
[ 7974 7965 7964 7962 ] final  -38.23 input  175.53 | X-H torsion
[ 8008 7997 7996 7995 ] final   56.53 input   59.86 | X-H torsion
[ 10167 10162 10161 10158 ] final  177.76 input  -65.29 | X-H torsion
[ 10718 10713 10712 10709 ] final  -30.04 input   66.30 | X-H torsion
[ 10763 10752 10751 10750 ] final -148.75 input  -60.55 | X-H torsion
[ 11005 11000 10999 10996 ] final -147.46 input  -57.11 | X-H torsion

> <Gold.Protein.ActiveResidues>
 VAL166  LYS551  ARG553  GLY616  TRP617  ASP618  TYR619  PRO620  LYS621  CYS622 
 ASP623  PHE694  ASN695  SER759  ASP760  ASP761  ALA762  ILE779  LEU786  VAL792 
 PHE793  MET794  SER795  GLU796  ALA797  LYS798  CYS799  TRP800  GLU811  SER814 

> <Gold.Protein.RotatedAtoms>
  152.4522  133.7651  159.6767 H   0  0  0  0  0  0  0  0  0  0  0  0  # atno 6907 bound_to 6896
  150.8437  133.7886  159.3057 H   0  0  0  0  0  0  0  0  0  0  0  0  # atno 6908 bound_to 6896
  151.5503  135.1070  160.0000 H   0  0  0  0  0  0  0  0  0  0  0  0  # atno 6909 bound_to 6896
  146.0504  140.6488  142.9044 H   0  0  0  0  0  0  0  0  0  0  0  0  # atno 7974 bound_to 7965
  155.5189  140.3479  155.4403 H   0  0  0  0  0  0  0  0  0  0  0  0  # atno 8008 bound_to 7997
  156.0798  140.1383  156.9753 H   0  0  0  0  0  0  0  0  0  0  0  0  # atno 8009 bound_to 7997
  154.4573  140.0948  156.6771 H   0  0  0  0  0  0  0  0  0  0  0  0  # atno 8010 bound_to 7997
  139.5266  144.2760  152.0588 H   0  0  0  0  0  0  0  0  0  0  0  0  # atno 10167 bound_to 10162
  156.4048  130.4397  149.7295 H   0  0  0  0  0  0  0  0  0  0  0  0  # atno 10718 bound_to 10713
  154.8216  135.3326  154.7022 H   0  0  0  0  0  0  0  0  0  0  0  0  # atno 10763 bound_to 10752
  153.7654  135.6929  153.4921 H   0  0  0  0  0  0  0  0  0  0  0  0  # atno 10764 bound_to 10752
  153.2081  135.4492  155.0296 H   0  0  0  0  0  0  0  0  0  0  0  0  # atno 10765 bound_to 10752
  140.7714  134.3184  157.5073 H   0  0  0  0  0  0  0  0  0  0  0  0  # atno 11005 bound_to 11000
  144.7120  140.4073  143.7073 LP  0  0  0  0  0  0  0  0  0  0  0  0  # atno 17320 bound_to 7965
  145.6733  139.1603  143.2742 LP  0  0  0  0  0  0  0  0  0  0  0  0  # atno 17321 bound_to 7965
  140.2217  144.4459  150.6339 LP  0  0  0  0  0  0  0  0  0  0  0  0  # atno 17342 bound_to 10162
  140.6414  143.2204  151.6282 LP  0  0  0  0  0  0  0  0  0  0  0  0  # atno 17343 bound_to 10162
  156.4297  130.7809  151.2829 LP  0  0  0  0  0  0  0  0  0  0  0  0  # atno 17370 bound_to 10713
  157.7505  131.0157  150.3517 LP  0  0  0  0  0  0  0  0  0  0  0  0  # atno 17371 bound_to 10713
  139.8755  134.9263  156.3397 LP  0  0  0  0  0  0  0  0  0  0  0  0  # atno 17394 bound_to 11000
  140.9570  133.7413  156.0349 LP  0  0  0  0  0  0  0  0  0  0  0  0  # atno 17395 bound_to 11000

$$$$
