AV-unprocessed.smi:1645|AV-procd|sdf|6611|dock4
  -GOLD-   22720 7313D 1   1.00000     0.00000
 Structure written by MMmdl.
 56 59  0  0  0  0  0  0  0  0  3 V2000
  146.6913  138.0783  155.3616 O   0  0  0  0  0  0  0  0  0  0  0  0
  147.3675  137.6581  154.4231 C   0  0  0  0  0  0  0  0  0  0  0  0
  148.6513  137.9777  154.1876 N   0  0  0  0  0  0  0  0  0  0  0  0
  149.4851  138.8531  154.9331 C   0  0  0  0  0  0  0  0  0  0  0  0
  150.8870  138.9530  154.7490 C   0  0  0  0  0  0  0  0  0  0  0  0
  151.6300  139.8432  155.5510 C   0  0  0  0  0  0  0  0  0  0  0  0
  150.9654  140.6152  156.5309 C   0  0  0  0  0  0  0  0  0  0  0  0
  151.6212  141.5259  157.3691 N   0  0  0  0  0  0  0  0  0  0  0  0
  151.1458  142.8973  157.2029 C   0  0  0  0  0  0  0  0  0  0  0  0
  152.0183  143.8796  158.0034 C   0  0  0  0  0  0  0  0  0  0  0  0
  152.0993  143.4630  159.4809 C   0  0  0  0  0  0  0  0  0  0  0  0
  152.5739  142.0056  159.5970 C   0  0  0  0  0  0  0  0  0  0  0  0
  151.6884  141.0705  158.7553 C   0  0  0  0  0  0  0  0  0  0  0  0
  149.6301  140.4791  156.6841 N   0  3  0  0  0  0  0  0  0  0  0  0
  148.8823  139.6370  155.9390 C   0  0  0  0  0  0  0  0  0  0  0  0
  146.9049  136.7877  153.5148 N   0  0  0  0  0  0  0  0  0  0  0  0
  145.5519  136.2363  153.5104 C   0  0  1  0  0  0  0  0  0  0  0  0
  144.5391  137.1118  152.7605 C   0  0  0  0  0  0  0  0  0  0  0  0
  143.5104  136.1244  152.1801 C   0  0  0  0  0  0  0  0  0  0  0  0
  143.9738  134.7720  152.5643 N   0  3  1  0  0  0  0  0  0  0  0  0
  143.5389  133.6504  151.6929 C   0  0  0  0  0  0  0  0  0  0  0  0
  144.3618  133.5519  150.3976 C   0  0  0  0  0  0  0  0  0  0  0  0
  145.8599  133.4933  150.7126 C   0  0  0  0  0  0  0  0  0  0  0  0
  146.2635  134.7293  151.5232 C   0  0  0  0  0  0  0  0  0  0  0  0
  145.4279  134.8657  152.8225 C   0  0  1  0  0  0  0  0  0  0  0  0
  149.1035  137.4842  153.4315 H   0  0  0  0  0  0  0  0  0  0  0  0
  151.4089  138.3552  154.0178 H   0  0  0  0  0  0  0  0  0  0  0  0
  152.6985  139.9259  155.4142 H   0  0  0  0  0  0  0  0  0  0  0  0
  151.1599  143.1663  156.1458 H   0  0  0  0  0  0  0  0  0  0  0  0
  150.1099  142.9684  157.5373 H   0  0  0  0  0  0  0  0  0  0  0  0
  153.0218  143.9082  157.5765 H   0  0  0  0  0  0  0  0  0  0  0  0
  151.6168  144.8899  157.9195 H   0  0  0  0  0  0  0  0  0  0  0  0
  152.7752  144.1247  160.0233 H   0  0  0  0  0  0  0  0  0  0  0  0
  151.1182  143.5676  159.9461 H   0  0  0  0  0  0  0  0  0  0  0  0
  153.6086  141.9304  159.2593 H   0  0  0  0  0  0  0  0  0  0  0  0
  152.5645  141.6895  160.6404 H   0  0  0  0  0  0  0  0  0  0  0  0
  150.6830  141.0365  159.1774 H   0  0  0  0  0  0  0  0  0  0  0  0
  152.0844  140.0546  158.7906 H   0  0  0  0  0  0  0  0  0  0  0  0
  147.8259  139.6241  156.1655 H   0  0  0  0  0  0  0  0  0  0  0  0
  147.5260  136.4856  152.7782 H   0  0  0  0  0  0  0  0  0  0  0  0
  145.2067  136.1393  154.5421 H   0  0  0  0  0  0  0  0  0  0  0  0
  144.0772  137.8471  153.4200 H   0  0  0  0  0  0  0  0  0  0  0  0
  145.0212  137.6575  151.9479 H   0  0  0  0  0  0  0  0  0  0  0  0
  142.5085  136.3002  152.5726 H   0  0  0  0  0  0  0  0  0  0  0  0
  143.4656  136.2292  151.0954 H   0  0  0  0  0  0  0  0  0  0  0  0
  143.6518  132.7247  152.2587 H   0  0  0  0  0  0  0  0  0  0  0  0
  142.4758  133.7475  151.4694 H   0  0  0  0  0  0  0  0  0  0  0  0
  144.0646  132.6647  149.8379 H   0  0  0  0  0  0  0  0  0  0  0  0
  144.1526  134.4053  149.7518 H   0  0  0  0  0  0  0  0  0  0  0  0
  146.0890  132.5870  151.2746 H   0  0  0  0  0  0  0  0  0  0  0  0
  146.4369  133.4447  149.7886 H   0  0  0  0  0  0  0  0  0  0  0  0
  147.3258  134.6727  151.7633 H   0  0  0  0  0  0  0  0  0  0  0  0
  146.1390  135.6153  150.8992 H   0  0  0  0  0  0  0  0  0  0  0  0
  145.7145  134.0679  153.5093 H   0  0  0  0  0  0  0  0  0  0  0  0
  143.5536  134.6042  153.4674 H   0  0  0  0  0  0  0  0  0  0  0  0
  149.1643  141.0399  157.3982 H   0  0  0  0  0  0  0  0  0  0  0  0
  1  2  2  0  0  0  0
  2  3  1  0  0  0  0
  2 16  1  0  0  0  0
  3  4  1  0  0  0  0
  3 26  1  0  0  0  0
  4 15  1  0  0  0  0
  4  5  2  0  0  0  0
  5  6  1  0  0  0  0
  5 27  1  0  0  0  0
  6  7  2  0  0  0  0
  6 28  1  0  0  0  0
  7  8  1  0  0  0  0
  7 14  1  0  0  0  0
  8 13  1  0  0  0  0
  8  9  1  0  0  0  0
  9 10  1  0  0  0  0
  9 29  1  0  0  0  0
  9 30  1  0  0  0  0
 10 11  1  0  0  0  0
 10 31  1  0  0  0  0
 10 32  1  0  0  0  0
 11 12  1  0  0  0  0
 11 33  1  0  0  0  0
 11 34  1  0  0  0  0
 12 13  1  0  0  0  0
 12 35  1  0  0  0  0
 12 36  1  0  0  0  0
 13 37  1  0  0  0  0
 13 38  1  0  0  0  0
 14 15  2  0  0  0  0
 14 56  1  0  0  0  0
 15 39  1  0  0  0  0
 16 17  1  0  0  0  0
 16 40  1  0  0  0  0
 17 25  1  0  0  0  0
 17 18  1  0  0  0  0
 17 41  1  0  0  0  0
 18 19  1  0  0  0  0
 18 42  1  0  0  0  0
 18 43  1  0  0  0  0
 19 20  1  0  0  0  0
 19 44  1  0  0  0  0
 19 45  1  0  0  0  0
 20 25  1  0  0  0  0
 20 21  1  0  0  0  0
 20 55  1  0  0  0  0
 21 22  1  0  0  0  0
 21 46  1  0  0  0  0
 21 47  1  0  0  0  0
 22 23  1  0  0  0  0
 22 48  1  0  0  0  0
 22 49  1  0  0  0  0
 23 24  1  0  0  0  0
 23 50  1  0  0  0  0
 23 51  1  0  0  0  0
 24 25  1  0  0  0  0
 24 52  1  0  0  0  0
 24 53  1  0  0  0  0
 25 54  1  0  0  0  0
M  CHG  1  14   1
M  CHG  1  20   1
M  END
> <s_m_source_file>
AV-unprocessed.smi

> <i_m_source_file_index>
1645

> <i_lp_mmshare_version>
43012

> <i_f3d_flags>
0

> <s_epik_input>
W0NIMl0xW0NIMl1bQ0gyXVtDSDJdW0NASF0oTjEyKVtDQEBIXShbQ0gyXVtDSDJdMilbTkhdQyg9TylbTkhdYzNbY0hdW2NIXWMobltjSF0zKU40W0NIMl1bQ0gyXVtDSDJdW0NIMl1bQ0gyXTQ=

> <s_epik_cmdline>
J2VwaWtfcHl0aG9uJywgJy1waCcsICc3LjAnLCAnLXRuJywgJzgnLCAnLW1hJywgJzIwMCcsICctbWV0YWxfYmluZGluZycsICctaW1hZScsICc8aW5maWxlLm1hZT4nLCAnLW9tYWUnLCAnPG91dGZpbGUubWFlPic=

> <r_lp_tautomer_probability>
0.999994

> <r_epik_Ionization_Penalty>
1.26838

> <r_epik_Ionization_Penalty_Charging>
1.26836

> <r_epik_Ionization_Penalty_Neutral>
1.95562e-05

> <r_epik_State_Penalty>
1.33841

> <r_epik_Charging_Adjusted_Penalty>
2.60677

> <i_epik_Tot_Q>
2

> <i_epik_Tot_abs_Q>
2

> <r_epik_Metal_State_Penalty>
1.40601

> <b_epik_Metal_Only>
0

> <s_lp_Force_Field>
OPLS_2005

> <r_lp_Energy>
62.3043

> <b_lp_Chiralities_Consistent>
1

> <s_lp_Variant>
AV-unprocessed.smi:1645-12

> <Gold.Version>
5.8.1

> <Gold.Id.Protein>
6NUR|6NUR_protein|mol2

> <Gold.PLP.Fitness>
46.5446

> <Gold.PLP.PLP>
-41.3889

> <Gold.PLP.part.hbond>
-2.0000

> <Gold.PLP.part.metal>
0.0000

> <Gold.PLP.part.buried>
-3.8708

> <Gold.PLP.part.nonpolar>
-36.1716

> <Gold.PLP.part.repulsive>
0.0705

> <Gold.PLP.ligand.clash>
0.0000

> <Gold.PLP.ligand.torsion>
0.4932

> <Gold.PLP.Chemscore.Hbond>
2.0000

> <Gold.PLP.Chemscore.CHOScore>
0.0000

> <Gold.PLP.Chemscore.Metal>
0.0000

> <Gold.Chemscore.Hbonds>
donor molecule, donor type, donor heavy atom, donor atom, acceptor molecule, acceptor atom, score
      L1  H     3    26       P1  7948  1.00
      L1  H    16    40       P1  7948  1.00

> <Gold.PLP.Chemscore.Internal.Correction>
0.1422

> <Gold.Rescore>
     Score         DG    S(hbond)    S(metal)    S(lipo)     H(rot)  DE(clash)    DE(int)     intcor
     20.11     -22.02       1.93        0.00     112.10       1.18       0.02       1.89       ----

> <Gold.Chemscore.Fitness>
20.1094

> <Gold.Chemscore.DG>
-22.0224

> <Gold.Chemscore.ZeroCoef>
-5.4800

> <Gold.Chemscore.Hbond>
1.9330

> <Gold.Chemscore.Metal>
0.0000

> <Gold.Chemscore.Lipo>
112.0978

> <Gold.Chemscore.Internal_Hbond>
0.0000

> <Gold.Chemscore.DEClash>
0.0217

> <Gold.Chemscore.DEInternal>
1.8912

> <Gold.Chemscore.Rot>
1.1833

> <Gold.Chemscore.Internal.Correction>
   9.000000E+99

> <Gold.Chemscore.Hbonds>
donor molecule, donor type, donor heavy atom, donor atom, acceptor molecule, acceptor atom, score
      L1  H     3    26       P1  7948  0.91
      L1  H    16    40       P1  7948  1.00

> <Gold.Chemscore.Hbond.Weighted>
-6.4563

> <Gold.Chemscore.Metal.Weighted>
-0.0000

> <Gold.Chemscore.Lipo.Weighted>
-13.1154

> <Gold.Chemscore.Internal_Hbond.Weighted>
0.0000

> <Gold.Chemscore.DEClash.Weighted>
0.0217

> <Gold.Chemscore.DEInternal.Weighted>
1.8912

> <Gold.Chemscore.Rot.Weighted>
3.0293

> <Gold.Chemscore.Internal.Correction.Weighted>
   9.000000E+99

> <Gold.Protein.RotatedTorsions>
[ 6907 6896 6895 6894 ] final  -26.57 input  -60.11 | X-H torsion
[ 7974 7965 7964 7962 ] final  -14.98 input  175.53 | X-H torsion
[ 8008 7997 7996 7995 ] final  -75.80 input   59.86 | X-H torsion
[ 10167 10162 10161 10158 ] final  -55.01 input  -65.29 | X-H torsion
[ 10718 10713 10712 10709 ] final   -8.04 input   66.30 | X-H torsion
[ 10763 10752 10751 10750 ] final  -85.70 input  -60.55 | X-H torsion
[ 11005 11000 10999 10996 ] final  136.20 input  -57.11 | X-H torsion

> <Gold.Protein.ActiveResidues>
 VAL166  LYS551  ARG553  GLY616  TRP617  ASP618  TYR619  PRO620  LYS621  CYS622 
 ASP623  PHE694  ASN695  SER759  ASP760  ASP761  ALA762  ILE779  LEU786  VAL792 
 PHE793  MET794  SER795  GLU796  ALA797  LYS798  CYS799  TRP800  GLU811  SER814 

> <Gold.Protein.RotatedAtoms>
  151.1591  135.0265  159.8702 H   0  0  0  0  0  0  0  0  0  0  0  0  # atno 6907 bound_to 6896
  152.5452  134.1299  159.8445 H   0  0  0  0  0  0  0  0  0  0  0  0  # atno 6908 bound_to 6896
  151.1393  133.4936  159.2630 H   0  0  0  0  0  0  0  0  0  0  0  0  # atno 6909 bound_to 6896
  146.2051  140.3427  142.8410 H   0  0  0  0  0  0  0  0  0  0  0  0  # atno 7974 bound_to 7965
  154.5448  140.0738  156.8571 H   0  0  0  0  0  0  0  0  0  0  0  0  # atno 8008 bound_to 7997
  155.3108  140.3390  155.4226 H   0  0  0  0  0  0  0  0  0  0  0  0  # atno 8009 bound_to 7997
  156.1908  140.1685  156.8082 H   0  0  0  0  0  0  0  0  0  0  0  0  # atno 8010 bound_to 7997
  140.6399  143.2502  151.5018 H   0  0  0  0  0  0  0  0  0  0  0  0  # atno 10167 bound_to 10162
  156.7083  130.5114  149.5898 H   0  0  0  0  0  0  0  0  0  0  0  0  # atno 10718 bound_to 10713
  154.6141  135.5475  153.7505 H   0  0  0  0  0  0  0  0  0  0  0  0  # atno 10763 bound_to 10752
  153.0208  135.6397  154.1535 H   0  0  0  0  0  0  0  0  0  0  0  0  # atno 10764 bound_to 10752
  154.1472  135.2905  155.3125 H   0  0  0  0  0  0  0  0  0  0  0  0  # atno 10765 bound_to 10752
  140.0030  134.9470  157.0114 H   0  0  0  0  0  0  0  0  0  0  0  0  # atno 11005 bound_to 11000
  144.8774  140.7355  143.6008 LP  0  0  0  0  0  0  0  0  0  0  0  0  # atno 17320 bound_to 7965
  145.3347  139.1749  143.4518 LP  0  0  0  0  0  0  0  0  0  0  0  0  # atno 17321 bound_to 7965
  139.5608  144.2161  152.1688 LP  0  0  0  0  0  0  0  0  0  0  0  0  # atno 17342 bound_to 10162
  140.1428  144.5186  150.6733 LP  0  0  0  0  0  0  0  0  0  0  0  0  # atno 17343 bound_to 10162
  156.1679  130.6417  151.0801 LP  0  0  0  0  0  0  0  0  0  0  0  0  # atno 17370 bound_to 10713
  157.6946  131.0798  150.7007 LP  0  0  0  0  0  0  0  0  0  0  0  0  # atno 17371 bound_to 10713
  140.4692  134.1404  155.7201 LP  0  0  0  0  0  0  0  0  0  0  0  0  # atno 17394 bound_to 11000
  141.1656  133.8709  157.1723 LP  0  0  0  0  0  0  0  0  0  0  0  0  # atno 17395 bound_to 11000

$$$$
