AV-unprocessed.smi:3163|AV-procd|sdf|12076|dock2
  -GOLD-   2272017503D 1   1.00000     0.00000
 Structure written by MMmdl.
 37 38  0  0  0  0  0  0  0  0  3 V2000
  143.7797  132.3679  149.5492 C   0  0  0  0  0  0  0  0  0  0  0  0
  143.7349  133.6539  150.2763 N   0  3  2  0  0  0  0  0  0  0  0  0
  144.3558  134.7820  149.5493 C   0  0  0  0  0  0  0  0  0  0  0  0
  144.8898  135.7154  150.6323 C   0  0  0  0  0  0  0  0  0  0  0  0
  145.3599  134.7398  151.7077 C   0  0  1  0  0  0  0  0  0  0  0  0
  145.5310  135.3782  153.0999 C   0  0  0  0  0  0  0  0  0  0  0  0
  146.6267  136.3419  153.1366 N   0  0  0  0  0  0  0  0  0  0  0  0
  146.5402  137.5865  153.6282 C   0  0  0  0  0  0  0  0  0  0  0  0
  145.5056  138.0544  154.1019 O   0  0  0  0  0  0  0  0  0  0  0  0
  147.7191  138.2272  153.5403 N   0  0  0  0  0  0  0  0  0  0  0  0
  148.0541  139.5503  153.9420 C   0  0  0  0  0  0  0  0  0  0  0  0
  147.0396  140.5294  153.8509 C   0  0  0  0  0  0  0  0  0  0  0  0
  147.3119  141.8549  154.2464 C   0  0  0  0  0  0  0  0  0  0  0  0
  148.5355  142.1784  154.7159 N   0  3  0  0  0  0  0  0  0  0  0  0
  149.5336  141.2767  154.8329 C   0  0  0  0  0  0  0  0  0  0  0  0
  149.3205  139.9356  154.4531 C   0  0  0  0  0  0  0  0  0  0  0  0
  144.3195  133.6111  151.6377 C   0  0  0  0  0  0  0  0  0  0  0  0
  144.8082  132.0381  149.3962 H   0  0  0  0  0  0  0  0  0  0  0  0
  143.3008  132.4655  148.5745 H   0  0  0  0  0  0  0  0  0  0  0  0
  143.2507  131.5955  150.1082 H   0  0  0  0  0  0  0  0  0  0  0  0
  145.1870  134.4212  148.9412 H   0  0  0  0  0  0  0  0  0  0  0  0
  143.6429  135.2720  148.8856 H   0  0  0  0  0  0  0  0  0  0  0  0
  145.6865  136.3673  150.2725 H   0  0  0  0  0  0  0  0  0  0  0  0
  144.0834  136.3439  151.0129 H   0  0  0  0  0  0  0  0  0  0  0  0
  146.3192  134.3337  151.3813 H   0  0  0  0  0  0  0  0  0  0  0  0
  144.6030  135.8623  153.4092 H   0  0  0  0  0  0  0  0  0  0  0  0
  145.7358  134.6068  153.8427 H   0  0  0  0  0  0  0  0  0  0  0  0
  147.5172  136.0313  152.7761 H   0  0  0  0  0  0  0  0  0  0  0  0
  148.4883  137.6808  153.1812 H   0  0  0  0  0  0  0  0  0  0  0  0
  146.0590  140.2722  153.4771 H   0  0  0  0  0  0  0  0  0  0  0  0
  146.5924  142.6595  154.2029 H   0  0  0  0  0  0  0  0  0  0  0  0
  150.4662  141.6511  155.2288 H   0  0  0  0  0  0  0  0  0  0  0  0
  150.1314  139.2347  154.5734 H   0  0  0  0  0  0  0  0  0  0  0  0
  143.5135  133.7788  152.3528 H   0  0  0  0  0  0  0  0  0  0  0  0
  144.7689  132.6448  151.8725 H   0  0  0  0  0  0  0  0  0  0  0  0
  142.7610  133.8928  150.3983 H   0  0  0  0  0  0  0  0  0  0  0  0
  148.7124  143.1431  154.9980 H   0  0  0  0  0  0  0  0  0  0  0  0
  1  2  1  0  0  0  0
  1 18  1  0  0  0  0
  1 19  1  0  0  0  0
  1 20  1  0  0  0  0
  2 17  1  0  0  0  0
  2  3  1  0  0  0  0
  2 36  1  0  0  0  0
  3  4  1  0  0  0  0
  3 21  1  0  0  0  0
  3 22  1  0  0  0  0
  4  5  1  0  0  0  0
  4 23  1  0  0  0  0
  4 24  1  0  0  0  0
  5  6  1  0  0  0  0
  5 17  1  0  0  0  0
  5 25  1  0  0  0  0
  6  7  1  0  0  0  0
  6 26  1  0  0  0  0
  6 27  1  0  0  0  0
  7  8  1  0  0  0  0
  7 28  1  0  0  0  0
  8  9  2  0  0  0  0
  8 10  1  0  0  0  0
 10 11  1  0  0  0  0
 10 29  1  0  0  0  0
 11 16  1  0  0  0  0
 11 12  2  0  0  0  0
 12 13  1  0  0  0  0
 12 30  1  0  0  0  0
 13 14  2  0  0  0  0
 13 31  1  0  0  0  0
 14 15  1  0  0  0  0
 14 37  1  0  0  0  0
 15 16  2  0  0  0  0
 15 32  1  0  0  0  0
 16 33  1  0  0  0  0
 17 34  1  0  0  0  0
 17 35  1  0  0  0  0
M  CHG  1   2   1
M  CHG  1  14   1
M  END
> <s_m_source_file>
AV-unprocessed.smi

> <i_m_source_file_index>
3163

> <i_lp_mmshare_version>
43012

> <i_f3d_flags>
0

> <s_epik_input>
W0NIM11OMVtDSDJdW0NIMl1bQ0BIXShbQ0gyXTEpW0NIMl1bTkhdQyg9TylbTkhdYzJbY0hdW2NIXW5bY0hdW2NIXTI=

> <s_epik_cmdline>
J2VwaWtfcHl0aG9uJywgJy1waCcsICc3LjAnLCAnLXRuJywgJzgnLCAnLW1hJywgJzIwMCcsICctbWV0YWxfYmluZGluZycsICctaW1hZScsICc8aW5maWxlLm1hZT4nLCAnLW9tYWUnLCAnPG91dGZpbGUubWFlPic=

> <r_epik_Ionization_Penalty>
1.09034

> <r_epik_Ionization_Penalty_Charging>
1.09032

> <r_epik_Ionization_Penalty_Neutral>
1.86664e-05

> <r_epik_State_Penalty>
1.14521

> <r_epik_Charging_Adjusted_Penalty>
2.23553

> <i_epik_Tot_Q>
2

> <i_epik_Tot_abs_Q>
2

> <r_epik_Metal_State_Penalty>
1.23399

> <b_epik_Metal_Only>
0

> <s_lp_Force_Field>
OPLS_2005

> <r_lp_Energy>
39.3884

> <b_lp_Chiralities_Consistent>
1

> <s_lp_Variant>
AV-unprocessed.smi:3163-6

> <Gold.Version>
5.8.1

> <Gold.Id.Protein>
6NUR|6NUR_protein|mol2

> <Gold.PLP.Fitness>
46.4446

> <Gold.PLP.PLP>
-29.4623

> <Gold.PLP.part.hbond>
-4.0000

> <Gold.PLP.part.metal>
0.0000

> <Gold.PLP.part.buried>
1.2460

> <Gold.PLP.part.nonpolar>
-26.5297

> <Gold.PLP.part.repulsive>
0.8301

> <Gold.PLP.ligand.clash>
0.0000

> <Gold.PLP.ligand.torsion>
0.2940

> <Gold.PLP.Chemscore.Hbond>
5.8564

> <Gold.PLP.Chemscore.CHOScore>
0.0000

> <Gold.PLP.Chemscore.Metal>
0.0000

> <Gold.Chemscore.Hbonds>
donor molecule, donor type, donor heavy atom, donor atom, acceptor molecule, acceptor atom, score
      L1  H     2    36       P1 10186  1.95
      L1  H     7    28       P1  7948  1.00
      L1  H    10    29       P1  7948  0.88
      L1  H    14    37       P1  8028  2.00

> <Gold.PLP.Chemscore.Internal.Correction>
0.0009

> <Gold.Rescore>
     Score         DG    S(hbond)    S(metal)    S(lipo)     H(rot)  DE(clash)    DE(int)     intcor
     20.40     -23.80       3.86        0.00      74.27       1.27       1.80       1.60       ----

> <Gold.Chemscore.Fitness>
20.4002

> <Gold.Chemscore.DG>
-23.7977

> <Gold.Chemscore.ZeroCoef>
-5.4800

> <Gold.Chemscore.Hbond>
3.8577

> <Gold.Chemscore.Metal>
0.0000

> <Gold.Chemscore.Lipo>
74.2678

> <Gold.Chemscore.Internal_Hbond>
0.0000

> <Gold.Chemscore.DEClash>
1.8021

> <Gold.Chemscore.DEInternal>
1.5953

> <Gold.Chemscore.Rot>
1.2721

> <Gold.Chemscore.Internal.Correction>
   9.000000E+99

> <Gold.Chemscore.Hbonds>
donor molecule, donor type, donor heavy atom, donor atom, acceptor molecule, acceptor atom, score
      L1  H     2    36       P1 10186  0.83
      L1  H     7    28       P1  7948  0.98
      L1  H    10    29       P1  7948  0.83
      L1  H    14    37       P1  8028  1.00

> <Gold.Chemscore.Hbond.Weighted>
-12.8848

> <Gold.Chemscore.Metal.Weighted>
-0.0000

> <Gold.Chemscore.Lipo.Weighted>
-8.6893

> <Gold.Chemscore.Internal_Hbond.Weighted>
0.0000

> <Gold.Chemscore.DEClash.Weighted>
1.8021

> <Gold.Chemscore.DEInternal.Weighted>
1.5953

> <Gold.Chemscore.Rot.Weighted>
3.2565

> <Gold.Chemscore.Internal.Correction.Weighted>
   9.000000E+99

> <Gold.Protein.RotatedTorsions>
[ 6907 6896 6895 6894 ] final  -13.00 input  -60.11 | X-H torsion
[ 7974 7965 7964 7962 ] final   48.41 input  175.53 | X-H torsion
[ 8008 7997 7996 7995 ] final  -69.02 input   59.86 | X-H torsion
[ 10167 10162 10161 10158 ] final   81.16 input  -65.29 | X-H torsion
[ 10718 10713 10712 10709 ] final -101.24 input   66.30 | X-H torsion
[ 10763 10752 10751 10750 ] final   28.53 input  -60.55 | X-H torsion
[ 11005 11000 10999 10996 ] final -158.65 input  -57.11 | X-H torsion

> <Gold.Protein.ActiveResidues>
 VAL166  LYS551  ARG553  GLY616  TRP617  ASP618  TYR619  PRO620  LYS621  CYS622 
 ASP623  PHE694  ASN695  SER759  ASP760  ASP761  ALA762  ILE779  LEU786  VAL792 
 PHE793  MET794  SER795  GLU796  ALA797  LYS798  CYS799  TRP800  GLU811  SER814 

> <Gold.Protein.RotatedAtoms>
  151.3617  135.0905  159.9436 H   0  0  0  0  0  0  0  0  0  0  0  0  # atno 6907 bound_to 6896
  152.5160  133.9251  159.7564 H   0  0  0  0  0  0  0  0  0  0  0  0  # atno 6908 bound_to 6896
  150.9647  133.6353  159.2777 H   0  0  0  0  0  0  0  0  0  0  0  0  # atno 6909 bound_to 6896
  146.0206  139.4647  142.9899 H   0  0  0  0  0  0  0  0  0  0  0  0  # atno 7974 bound_to 7965
  154.4909  140.0861  156.7591 H   0  0  0  0  0  0  0  0  0  0  0  0  # atno 8008 bound_to 7997
  155.4234  140.3446  155.4255 H   0  0  0  0  0  0  0  0  0  0  0  0  # atno 8009 bound_to 7997
  156.1328  140.1506  156.9028 H   0  0  0  0  0  0  0  0  0  0  0  0  # atno 8010 bound_to 7997
  139.9421  144.6082  150.8241 H   0  0  0  0  0  0  0  0  0  0  0  0  # atno 10167 bound_to 10162
  156.0188  130.5364  150.6933 H   0  0  0  0  0  0  0  0  0  0  0  0  # atno 10718 bound_to 10713
  153.0486  135.6511  154.0753 H   0  0  0  0  0  0  0  0  0  0  0  0  # atno 10763 bound_to 10752
  154.0446  135.2900  155.3351 H   0  0  0  0  0  0  0  0  0  0  0  0  # atno 10764 bound_to 10752
  154.6760  135.5338  153.8266 H   0  0  0  0  0  0  0  0  0  0  0  0  # atno 10765 bound_to 10752
  140.6513  134.4448  157.5235 H   0  0  0  0  0  0  0  0  0  0  0  0  # atno 11005 bound_to 11000
  145.7199  141.0078  143.1408 LP  0  0  0  0  0  0  0  0  0  0  0  0  # atno 17320 bound_to 7965
  144.6988  139.8857  143.7450 LP  0  0  0  0  0  0  0  0  0  0  0  0  # atno 17321 bound_to 7965
  140.7608  143.3159  151.2735 LP  0  0  0  0  0  0  0  0  0  0  0  0  # atno 17342 bound_to 10162
  139.6696  144.0044  152.2744 LP  0  0  0  0  0  0  0  0  0  0  0  0  # atno 17343 bound_to 10162
  157.4610  131.0883  151.0745 LP  0  0  0  0  0  0  0  0  0  0  0  0  # atno 17370 bound_to 10713
  157.1233  130.6071  149.5510 LP  0  0  0  0  0  0  0  0  0  0  0  0  # atno 17371 bound_to 10713
  139.9045  134.8480  156.1761 LP  0  0  0  0  0  0  0  0  0  0  0  0  # atno 17394 bound_to 11000
  141.0535  133.6877  156.1816 LP  0  0  0  0  0  0  0  0  0  0  0  0  # atno 17395 bound_to 11000

$$$$
