AV-unprocessed.smi:3071|AV-procd|sdf|11714|dock3
  -GOLD-   2272017113D 1   1.00000     0.00000
 Structure written by MMmdl.
 28 29  0  0  0  0  0  0  0  0  2 V2000
  152.2863  138.6625  155.4431 C   0  0  0  0  0  0  0  0  0  0  0  0
  151.2078  139.6708  155.2091 C   0  0  0  0  0  0  0  0  0  0  0  0
  150.3470  139.6089  154.1984 N   0  0  0  0  0  0  0  0  0  0  0  0
  149.5279  140.7209  154.3600 C   0  0  0  0  0  0  0  0  0  0  0  0
  149.9270  141.4222  155.4718 C   0  0  0  0  0  0  0  0  0  0  0  0
  151.0120  140.7390  156.0074 N   0  0  0  0  0  0  0  0  0  0  0  0
  151.7599  141.1255  157.1932 C   0  0  0  0  0  0  0  0  0  0  0  0
  151.1575  142.3570  157.8949 C   0  0  1  0  0  0  0  0  0  0  0  0
  151.7509  142.6766  159.2704 C   0  0  0  0  0  0  0  0  0  0  0  0
  151.4317  144.1573  159.4388 C   0  0  0  0  0  0  0  0  0  0  0  0
  151.5733  144.7163  158.0204 C   0  0  0  0  0  0  0  0  0  0  0  0
  151.3340  143.5873  157.0981 N   0  3  0  0  0  0  0  0  0  0  0  0
  152.2123  137.8523  154.7170 H   0  0  0  0  0  0  0  0  0  0  0  0
  152.1967  138.2348  156.4419 H   0  0  0  0  0  0  0  0  0  0  0  0
  153.2668  139.1265  155.3406 H   0  0  0  0  0  0  0  0  0  0  0  0
  148.7225  140.9276  153.6705 H   0  0  0  0  0  0  0  0  0  0  0  0
  149.5397  142.3292  155.9125 H   0  0  0  0  0  0  0  0  0  0  0  0
  151.7761  140.2749  157.8762 H   0  0  0  0  0  0  0  0  0  0  0  0
  152.7969  141.3128  156.9133 H   0  0  0  0  0  0  0  0  0  0  0  0
  150.0827  142.2160  158.0159 H   0  0  0  0  0  0  0  0  0  0  0  0
  151.3325  142.0604  160.0669 H   0  0  0  0  0  0  0  0  0  0  0  0
  152.8320  142.5305  159.2624 H   0  0  0  0  0  0  0  0  0  0  0  0
  150.4029  144.2740  159.7828 H   0  0  0  0  0  0  0  0  0  0  0  0
  152.0842  144.6544  160.1574 H   0  0  0  0  0  0  0  0  0  0  0  0
  150.8804  145.5368  157.8312 H   0  0  0  0  0  0  0  0  0  0  0  0
  152.5861  145.0863  157.8565 H   0  0  0  0  0  0  0  0  0  0  0  0
  152.1422  143.4859  156.5007 H   0  0  0  0  0  0  0  0  0  0  0  0
  150.5138  143.7544  156.5325 H   0  0  0  0  0  0  0  0  0  0  0  0
  1  2  1  0  0  0  0
  1 13  1  0  0  0  0
  1 14  1  0  0  0  0
  1 15  1  0  0  0  0
  2  6  1  0  0  0  0
  2  3  2  0  0  0  0
  3  4  1  0  0  0  0
  4  5  2  0  0  0  0
  4 16  1  0  0  0  0
  5  6  1  0  0  0  0
  5 17  1  0  0  0  0
  6  7  1  0  0  0  0
  7  8  1  0  0  0  0
  7 18  1  0  0  0  0
  7 19  1  0  0  0  0
  8 12  1  0  0  0  0
  8  9  1  0  0  0  0
  8 20  1  0  0  0  0
  9 10  1  0  0  0  0
  9 21  1  0  0  0  0
  9 22  1  0  0  0  0
 10 11  1  0  0  0  0
 10 23  1  0  0  0  0
 10 24  1  0  0  0  0
 11 12  1  0  0  0  0
 11 25  1  0  0  0  0
 11 26  1  0  0  0  0
 12 27  1  0  0  0  0
 12 28  1  0  0  0  0
M  CHG  1  12   1
M  END
> <s_m_source_file>
AV-unprocessed.smi

> <i_m_source_file_index>
3071

> <i_lp_mmshare_version>
43012

> <i_f3d_flags>
0

> <s_epik_input>
W0NIM11jMW5bY0hdW2NIXW4xW0NIMl1bQ0BASF0yW0NIMl1bQ0gyXVtDSDJdW05IXTI=

> <s_epik_cmdline>
J2VwaWtfcHl0aG9uJywgJy1waCcsICc3LjAnLCAnLXRuJywgJzgnLCAnLW1hJywgJzIwMCcsICctbWV0YWxfYmluZGluZycsICctaW1hZScsICc8aW5maWxlLm1hZT4nLCAnLW9tYWUnLCAnPG91dGZpbGUubWFlPic=

> <r_lp_tautomer_probability>
1

> <r_epik_Ionization_Penalty>
0.189495

> <r_epik_Ionization_Penalty_Charging>
0.189495

> <r_epik_Ionization_Penalty_Neutral>
1.84445e-13

> <r_epik_State_Penalty>
0.339469

> <r_epik_Charging_Adjusted_Penalty>
0.528964

> <i_epik_Tot_Q>
1

> <i_epik_Tot_abs_Q>
1

> <r_epik_Metal_State_Penalty>
0.000456861

> <b_epik_Metal_Only>
0

> <s_lp_Force_Field>
OPLS_2005

> <r_lp_Energy>
26.6713

> <b_lp_Chiralities_Consistent>
1

> <s_lp_Variant>
AV-unprocessed.smi:3071-2

> <Gold.Version>
5.8.1

> <Gold.Id.Protein>
6NUR|6NUR_protein|mol2

> <Gold.PLP.Fitness>
39.0731

> <Gold.PLP.PLP>
-29.8567

> <Gold.PLP.part.hbond>
-2.0000

> <Gold.PLP.part.metal>
0.0000

> <Gold.PLP.part.buried>
-1.5512

> <Gold.PLP.part.nonpolar>
-25.2626

> <Gold.PLP.part.repulsive>
0.1730

> <Gold.PLP.ligand.clash>
0.0000

> <Gold.PLP.ligand.torsion>
0.0664

> <Gold.PLP.Chemscore.Hbond>
2.0000

> <Gold.PLP.Chemscore.CHOScore>
1.1163

> <Gold.PLP.Chemscore.Metal>
0.0000

> <Gold.Chemscore.Hbonds>
donor molecule, donor type, donor heavy atom, donor atom, acceptor molecule, acceptor atom, score
      L1  H    12    28       P1  8028  1.79
      L1  C     4    16       P1  7957  0.17
      L1  C     5    17       P1  8028  1.00

> <Gold.PLP.Chemscore.Internal.Correction>
0.0001

> <Gold.Rescore>
     Score         DG    S(hbond)    S(metal)    S(lipo)     H(rot)  DE(clash)    DE(int)     intcor
     13.53     -14.03       0.98        0.00      71.67       1.22       0.41       0.08       ----

> <Gold.Chemscore.Fitness>
13.5281

> <Gold.Chemscore.DG>
-14.0250

> <Gold.Chemscore.ZeroCoef>
-5.4800

> <Gold.Chemscore.Hbond>
0.9824

> <Gold.Chemscore.Metal>
0.0000

> <Gold.Chemscore.Lipo>
71.6715

> <Gold.Chemscore.Internal_Hbond>
0.0000

> <Gold.Chemscore.DEClash>
0.4145

> <Gold.Chemscore.DEInternal>
0.0824

> <Gold.Chemscore.Rot>
1.2194

> <Gold.Chemscore.Internal.Correction>
   9.000000E+99

> <Gold.Chemscore.Hbonds>
donor molecule, donor type, donor heavy atom, donor atom, acceptor molecule, acceptor atom, score
      L1  H    12    28       P1  8028  0.87

> <Gold.Chemscore.Hbond.Weighted>
-3.2813

> <Gold.Chemscore.Metal.Weighted>
-0.0000

> <Gold.Chemscore.Lipo.Weighted>
-8.3856

> <Gold.Chemscore.Internal_Hbond.Weighted>
0.0000

> <Gold.Chemscore.DEClash.Weighted>
0.4145

> <Gold.Chemscore.DEInternal.Weighted>
0.0824

> <Gold.Chemscore.Rot.Weighted>
3.1218

> <Gold.Chemscore.Internal.Correction.Weighted>
   9.000000E+99

> <Gold.Protein.RotatedTorsions>
[ 6907 6896 6895 6894 ] final  -25.23 input  -60.11 | X-H torsion
[ 7974 7965 7964 7962 ] final  -73.33 input  175.53 | X-H torsion
[ 8008 7997 7996 7995 ] final  -71.62 input   59.86 | X-H torsion
[ 10167 10162 10161 10158 ] final  -59.60 input  -65.29 | X-H torsion
[ 10718 10713 10712 10709 ] final   13.24 input   66.30 | X-H torsion
[ 10763 10752 10751 10750 ] final -173.56 input  -60.55 | X-H torsion
[ 11005 11000 10999 10996 ] final -173.04 input  -57.11 | X-H torsion

> <Gold.Protein.ActiveResidues>
 VAL166  LYS551  ARG553  GLY616  TRP617  ASP618  TYR619  PRO620  LYS621  CYS622 
 ASP623  PHE694  ASN695  SER759  ASP760  ASP761  ALA762  ILE779  LEU786  VAL792 
 PHE793  MET794  SER795  GLU796  ALA797  LYS798  CYS799  TRP800  GLU811  SER814 

> <Gold.Protein.RotatedAtoms>
  151.1781  135.0348  159.8780 H   0  0  0  0  0  0  0  0  0  0  0  0  # atno 6907 bound_to 6896
  152.5446  134.1094  159.8362 H   0  0  0  0  0  0  0  0  0  0  0  0  # atno 6908 bound_to 6896
  151.1208  133.5059  159.2634 H   0  0  0  0  0  0  0  0  0  0  0  0  # atno 6909 bound_to 6896
  145.6535  140.9275  143.0972 H   0  0  0  0  0  0  0  0  0  0  0  0  # atno 7974 bound_to 7965
  154.5102  140.0812  156.7975 H   0  0  0  0  0  0  0  0  0  0  0  0  # atno 8008 bound_to 7997
  155.3802  140.3427  155.4228 H   0  0  0  0  0  0  0  0  0  0  0  0  # atno 8009 bound_to 7997
  156.1564  140.1574  156.8673 H   0  0  0  0  0  0  0  0  0  0  0  0  # atno 8010 bound_to 7997
  140.6125  143.2391  151.5676 H   0  0  0  0  0  0  0  0  0  0  0  0  # atno 10167 bound_to 10162
  157.0217  130.6157  149.5722 H   0  0  0  0  0  0  0  0  0  0  0  0  # atno 10718 bound_to 10713
  154.6064  135.2860  155.0479 H   0  0  0  0  0  0  0  0  0  0  0  0  # atno 10763 bound_to 10752
  154.1725  135.6470  153.5017 H   0  0  0  0  0  0  0  0  0  0  0  0  # atno 10764 bound_to 10752
  153.0177  135.5404  154.6802 H   0  0  0  0  0  0  0  0  0  0  0  0  # atno 10765 bound_to 10752
  140.4902  134.5992  157.4952 H   0  0  0  0  0  0  0  0  0  0  0  0  # atno 11005 bound_to 11000
  144.7114  139.8357  143.7413 LP  0  0  0  0  0  0  0  0  0  0  0  0  # atno 17320 bound_to 7965
  146.1184  139.4198  143.0244 LP  0  0  0  0  0  0  0  0  0  0  0  0  # atno 17321 bound_to 7965
  139.5372  144.2747  152.1276 LP  0  0  0  0  0  0  0  0  0  0  0  0  # atno 17342 bound_to 10162
  140.1949  144.4715  150.6460 LP  0  0  0  0  0  0  0  0  0  0  0  0  # atno 17343 bound_to 10162
  156.0100  130.5190  150.7957 LP  0  0  0  0  0  0  0  0  0  0  0  0  # atno 17370 bound_to 10713
  157.5244  131.0933  151.0036 LP  0  0  0  0  0  0  0  0  0  0  0  0  # atno 17371 bound_to 10713
  139.9774  134.7193  155.9924 LP  0  0  0  0  0  0  0  0  0  0  0  0  # atno 17394 bound_to 11000
  141.1488  133.6551  156.3948 LP  0  0  0  0  0  0  0  0  0  0  0  0  # atno 17395 bound_to 11000

$$$$
