AV-unprocessed.smi:2198|AV-procd|sdf|8915|dock3
  -GOLD-   2272012133D 1   1.00000     0.00000
 Structure written by MMmdl.
 43 44  0  0  0  0  0  0  0  0  1 V2000
  150.6396  134.3557  155.4432 C   0  0  0  0  0  0  0  0  0  0  0  0
  150.5995  135.6231  156.2689 C   0  0  0  0  0  0  0  0  0  0  0  0
  150.8533  136.7718  155.5379 N   0  0  0  0  0  0  0  0  0  0  0  0
  150.8387  137.9820  156.2081 C   0  0  0  0  0  0  0  0  0  0  0  0
  151.1288  139.1907  155.3352 C   0  0  0  0  0  0  0  0  0  0  0  0
  150.5787  138.0451  157.5387 C   0  0  0  0  0  0  0  0  0  0  0  0
  150.5464  139.3622  158.3129 C   0  0  0  0  0  0  0  0  0  0  0  0
  151.8783  140.1098  158.4161 C   0  0  0  0  0  0  0  0  0  0  0  0
  152.8683  139.7095  157.8035 O   0  0  0  0  0  0  0  0  0  0  0  0
  151.8864  141.1980  159.2005 N   0  0  0  0  0  0  0  0  0  0  0  0
  153.0457  142.0511  159.4563 C   0  0  2  0  0  0  0  0  0  0  0  0
  153.5661  141.8277  160.8892 C   0  0  0  0  0  0  0  0  0  0  0  0
  152.6189  142.4128  161.9506 C   0  0  0  0  0  0  0  0  0  0  0  0
  152.3361  143.8999  161.6874 C   0  0  0  0  0  0  0  0  0  0  0  0
  151.7664  144.1245  160.2739 C   0  0  1  0  0  0  0  0  0  0  0  0
  151.4804  145.6102  160.0137 C   0  0  0  0  0  0  0  0  0  0  0  0
  152.7188  143.5404  159.2097 C   0  0  0  0  0  0  0  0  0  0  0  0
  150.3065  136.7826  158.2658 C   0  0  0  0  0  0  0  0  0  0  0  0
  150.0503  136.7748  159.4690 O   0  0  0  0  0  0  0  0  0  0  0  0
  150.3419  135.5803  157.5407 N   0  0  0  0  0  0  0  0  0  0  0  0
  151.0459  136.7707  154.5465 H   0  0  0  0  0  0  0  0  0  0  0  0
  150.6042  133.4724  156.0824 H   0  0  0  0  0  0  0  0  0  0  0  0
  151.5557  134.3107  154.8535 H   0  0  0  0  0  0  0  0  0  0  0  0
  149.7872  134.3210  154.7644 H   0  0  0  0  0  0  0  0  0  0  0  0
  152.0288  139.7010  155.6786 H   0  0  0  0  0  0  0  0  0  0  0  0
  150.2975  139.8949  155.3698 H   0  0  0  0  0  0  0  0  0  0  0  0
  151.2827  138.9066  154.2934 H   0  0  0  0  0  0  0  0  0  0  0  0
  150.1876  139.1558  159.3218 H   0  0  0  0  0  0  0  0  0  0  0  0
  149.8054  140.0409  157.8891 H   0  0  0  0  0  0  0  0  0  0  0  0
  151.0252  141.4540  159.6612 H   0  0  0  0  0  0  0  0  0  0  0  0
  153.8393  141.7533  158.7687 H   0  0  0  0  0  0  0  0  0  0  0  0
  153.7242  140.7642  161.0728 H   0  0  0  0  0  0  0  0  0  0  0  0
  154.5441  142.2999  160.9897 H   0  0  0  0  0  0  0  0  0  0  0  0
  151.6806  141.8570  161.9562 H   0  0  0  0  0  0  0  0  0  0  0  0
  153.0543  142.2884  162.9423 H   0  0  0  0  0  0  0  0  0  0  0  0
  151.6384  144.2764  162.4364 H   0  0  0  0  0  0  0  0  0  0  0  0
  153.2573  144.4714  161.8096 H   0  0  0  0  0  0  0  0  0  0  0  0
  150.8152  143.5948  160.2066 H   0  0  0  0  0  0  0  0  0  0  0  0
  152.3929  146.2051  160.0624 H   0  0  0  0  0  0  0  0  0  0  0  0
  150.7823  146.0104  160.7495 H   0  0  0  0  0  0  0  0  0  0  0  0
  151.0390  145.7575  159.0275 H   0  0  0  0  0  0  0  0  0  0  0  0
  153.6495  144.1092  159.2144 H   0  0  0  0  0  0  0  0  0  0  0  0
  152.2941  143.6728  158.2138 H   0  0  0  0  0  0  0  0  0  0  0  0
  1 22  1  0  0  0  0
  1 23  1  0  0  0  0
  1 24  1  0  0  0  0
  1  2  1  0  0  0  0
  2  3  1  0  0  0  0
  2 20  2  0  0  0  0
  3  4  1  0  0  0  0
  3 21  1  0  0  0  0
  4  6  2  0  0  0  0
  4  5  1  0  0  0  0
  5 25  1  0  0  0  0
  5 26  1  0  0  0  0
  5 27  1  0  0  0  0
  6 18  1  0  0  0  0
  6  7  1  0  0  0  0
  7  8  1  0  0  0  0
  7 28  1  0  0  0  0
  7 29  1  0  0  0  0
  8  9  2  0  0  0  0
  8 10  1  0  0  0  0
 10 11  1  0  0  0  0
 10 30  1  0  0  0  0
 11 17  1  0  0  0  0
 11 12  1  0  0  0  0
 11 31  1  0  0  0  0
 12 13  1  0  0  0  0
 12 32  1  0  0  0  0
 12 33  1  0  0  0  0
 13 14  1  0  0  0  0
 13 34  1  0  0  0  0
 13 35  1  0  0  0  0
 14 15  1  0  0  0  0
 14 36  1  0  0  0  0
 14 37  1  0  0  0  0
 15 16  1  0  0  0  0
 15 17  1  0  0  0  0
 15 38  1  0  0  0  0
 16 39  1  0  0  0  0
 16 40  1  0  0  0  0
 16 41  1  0  0  0  0
 17 42  1  0  0  0  0
 17 43  1  0  0  0  0
 18 19  2  0  0  0  0
 18 20  1  0  0  0  0
M  END
> <s_m_source_file>
AV-unprocessed.smi

> <i_m_source_file_index>
2198

> <i_lp_mmshare_version>
43012

> <i_f3d_flags>
0

> <s_epik_input>
W0NIM11jMW5jKFtDSDNdKWMoYyg9TylbbkhdMSlbQ0gyXUMoPU8pW05IXVtDQEBIXTJbQ0gyXVtDSDJdW0NIMl1bQ0BASF0oW0NIM10pW0NIMl0y

> <s_epik_cmdline>
J2VwaWtfcHl0aG9uJywgJy1waCcsICc3LjAnLCAnLXRuJywgJzgnLCAnLW1hJywgJzIwMCcsICctbWV0YWxfYmluZGluZycsICctaW1hZScsICc8aW5maWxlLm1hZT4nLCAnLW9tYWUnLCAnPG91dGZpbGUubWFlPic=

> <r_lp_tautomer_probability>
0.156392

> <r_epik_Ionization_Penalty>
0.0136514

> <r_epik_Ionization_Penalty_Charging>
0.0135207

> <r_epik_Ionization_Penalty_Neutral>
0.000130657

> <r_epik_State_Penalty>
1.15342

> <r_epik_Charging_Adjusted_Penalty>
1.16694

> <i_epik_Tot_Q>
0

> <i_epik_Tot_abs_Q>
0

> <r_epik_Metal_State_Penalty>
1.31404

> <b_epik_Metal_Only>
0

> <s_lp_Force_Field>
OPLS_2005

> <r_lp_Energy>
13.5111

> <b_lp_Chiralities_Consistent>
1

> <s_lp_Variant>
AV-unprocessed.smi:2198-5

> <Gold.Version>
5.8.1

> <Gold.Id.Protein>
6NUR|6NUR_protein|mol2

> <Gold.PLP.Fitness>
47.9208

> <Gold.PLP.PLP>
-42.2818

> <Gold.PLP.part.hbond>
-2.4413

> <Gold.PLP.part.metal>
0.0000

> <Gold.PLP.part.buried>
-6.6971

> <Gold.PLP.part.nonpolar>
-33.3508

> <Gold.PLP.part.repulsive>
0.2029

> <Gold.PLP.ligand.clash>
0.0000

> <Gold.PLP.ligand.torsion>
0.1719

> <Gold.PLP.Chemscore.Hbond>
1.9913

> <Gold.PLP.Chemscore.CHOScore>
0.0000

> <Gold.PLP.Chemscore.Metal>
0.0000

> <Gold.Chemscore.Hbonds>
donor molecule, donor type, donor heavy atom, donor atom, acceptor molecule, acceptor atom, score
      P1  H  6896  6909       L1    19  0.62
      P1  H  7997  8010       L1     9  0.91

> <Gold.PLP.Chemscore.Internal.Correction>
0.0089

> <Gold.Rescore>
     Score         DG    S(hbond)    S(metal)    S(lipo)     H(rot)  DE(clash)    DE(int)     intcor
     20.30     -20.44       1.99        0.00     103.55       1.48       0.01       0.13       ----

> <Gold.Chemscore.Fitness>
20.3035

> <Gold.Chemscore.DG>
-20.4413

> <Gold.Chemscore.ZeroCoef>
-5.4800

> <Gold.Chemscore.Hbond>
1.9865

> <Gold.Chemscore.Metal>
0.0000

> <Gold.Chemscore.Lipo>
103.5511

> <Gold.Chemscore.Internal_Hbond>
0.0000

> <Gold.Chemscore.DEClash>
0.0098

> <Gold.Chemscore.DEInternal>
0.1280

> <Gold.Chemscore.Rot>
1.4801

> <Gold.Chemscore.Internal.Correction>
   9.000000E+99

> <Gold.Chemscore.Hbonds>
donor molecule, donor type, donor heavy atom, donor atom, acceptor molecule, acceptor atom, score
      P1  H  6896  6909       L1    19  0.05
      P1  H  7997  8010       L1     9  0.87

> <Gold.Chemscore.Hbond.Weighted>
-6.6349

> <Gold.Chemscore.Metal.Weighted>
-0.0000

> <Gold.Chemscore.Lipo.Weighted>
-12.1155

> <Gold.Chemscore.Internal_Hbond.Weighted>
0.0000

> <Gold.Chemscore.DEClash.Weighted>
0.0098

> <Gold.Chemscore.DEInternal.Weighted>
0.1280

> <Gold.Chemscore.Rot.Weighted>
3.7891

> <Gold.Chemscore.Internal.Correction.Weighted>
   9.000000E+99

> <Gold.Protein.RotatedTorsions>
[ 6907 6896 6895 6894 ] final   74.34 input  -60.11 | X-H torsion
[ 7974 7965 7964 7962 ] final -124.97 input  175.53 | X-H torsion
[ 8008 7997 7996 7995 ] final   66.54 input   59.86 | X-H torsion
[ 10167 10162 10161 10158 ] final   29.85 input  -65.29 | X-H torsion
[ 10718 10713 10712 10709 ] final  106.97 input   66.30 | X-H torsion
[ 10763 10752 10751 10750 ] final  -98.30 input  -60.55 | X-H torsion
[ 11005 11000 10999 10996 ] final -100.68 input  -57.11 | X-H torsion

> <Gold.Protein.ActiveResidues>
 VAL166  LYS551  ARG553  GLY616  TRP617  ASP618  TYR619  PRO620  LYS621  CYS622 
 ASP623  PHE694  ASN695  SER759  ASP760  ASP761  ALA762  ILE779  LEU786  VAL792 
 PHE793  MET794  SER795  GLU796  ALA797  LYS798  CYS799  TRP800  GLU811  SER814 

> <Gold.Protein.RotatedAtoms>
  152.4970  134.4286  159.9504 H   0  0  0  0  0  0  0  0  0  0  0  0  # atno 6907 bound_to 6896
  151.4263  133.3677  159.2770 H   0  0  0  0  0  0  0  0  0  0  0  0  # atno 6908 bound_to 6896
  150.9186  134.8626  159.7533 H   0  0  0  0  0  0  0  0  0  0  0  0  # atno 6909 bound_to 6896
  145.0025  140.7833  143.4487 H   0  0  0  0  0  0  0  0  0  0  0  0  # atno 7974 bound_to 7965
  155.6789  140.3496  155.4847 H   0  0  0  0  0  0  0  0  0  0  0  0  # atno 8008 bound_to 7997
  155.9624  140.1140  157.0907 H   0  0  0  0  0  0  0  0  0  0  0  0  # atno 8009 bound_to 7997
  154.4146  140.1173  156.5183 H   0  0  0  0  0  0  0  0  0  0  0  0  # atno 8010 bound_to 7997
  140.4730  144.0733  150.6242 H   0  0  0  0  0  0  0  0  0  0  0  0  # atno 10167 bound_to 10162
  157.6647  131.0862  150.6086 H   0  0  0  0  0  0  0  0  0  0  0  0  # atno 10718 bound_to 10713
  154.7402  135.5014  153.9110 H   0  0  0  0  0  0  0  0  0  0  0  0  # atno 10763 bound_to 10752
  153.1036  135.6691  153.9636 H   0  0  0  0  0  0  0  0  0  0  0  0  # atno 10764 bound_to 10752
  153.9415  135.3067  155.3421 H   0  0  0  0  0  0  0  0  0  0  0  0  # atno 10765 bound_to 10752
  141.1261  133.8418  157.1134 H   0  0  0  0  0  0  0  0  0  0  0  0  # atno 11005 bound_to 11000
  145.2133  139.2194  143.5131 LP  0  0  0  0  0  0  0  0  0  0  0  0  # atno 17320 bound_to 7965
  146.3455  140.1976  142.8589 LP  0  0  0  0  0  0  0  0  0  0  0  0  # atno 17321 bound_to 7965
  140.3953  143.2731  152.0011 LP  0  0  0  0  0  0  0  0  0  0  0  0  # atno 17342 bound_to 10162
  139.4821  144.6043  151.7550 LP  0  0  0  0  0  0  0  0  0  0  0  0  # atno 17343 bound_to 10162
  156.6387  130.4452  149.5760 LP  0  0  0  0  0  0  0  0  0  0  0  0  # atno 17370 bound_to 10713
  156.2226  130.6746  151.1383 LP  0  0  0  0  0  0  0  0  0  0  0  0  # atno 17371 bound_to 10713
  140.0261  134.9923  157.0689 LP  0  0  0  0  0  0  0  0  0  0  0  0  # atno 17394 bound_to 11000
  140.4360  134.1730  155.7171 LP  0  0  0  0  0  0  0  0  0  0  0  0  # atno 17395 bound_to 11000

$$$$
