AV-unprocessed.smi:1209|AV-procd|sdf|5070|dock6
  -GOLD-   22720 4113D 1   1.00000     0.00000
 Structure written by MMmdl.
 48 50  0  0  0  0  0  0  0  0  1 V2000
  145.9105  144.6061  160.8492 C   0  0  0  0  0  0  0  0  0  0  0  0
  146.5174  143.6855  159.8469 C   0  0  0  0  0  0  0  0  0  0  0  0
  145.9944  142.9471  158.8240 C   0  0  0  0  0  0  0  0  0  0  0  0
  147.1284  142.2953  158.2660 C   0  0  0  0  0  0  0  0  0  0  0  0
  147.1779  141.3408  157.1027 C   0  0  0  0  0  0  0  0  0  0  0  0
  147.2844  142.0043  155.7985 N   0  0  0  0  0  0  0  0  0  0  0  0
  146.0057  142.5788  155.3891 C   0  0  0  0  0  0  0  0  0  0  0  0
  147.7782  141.0988  154.7590 C   0  0  0  0  0  0  0  0  0  0  0  0
  149.2948  140.8093  154.7936 C   0  0  1  0  0  0  0  0  0  0  0  0
  149.7916  140.7930  153.4681 O   0  0  0  0  0  0  0  0  0  0  0  0
  150.0656  141.8771  155.5950 C   0  0  0  0  0  0  0  0  0  0  0  0
  150.9528  141.2967  156.5877 N   0  0  0  0  0  0  0  0  0  0  0  0
  151.6093  140.1242  156.4978 C   0  0  0  0  0  0  0  0  0  0  0  0
  152.3766  139.7753  157.5264 N   0  0  0  0  0  0  0  0  0  0  0  0
  152.1986  140.8482  158.3833 C   0  0  0  0  0  0  0  0  0  0  0  0
  152.7432  141.1001  159.6616 C   0  0  0  0  0  0  0  0  0  0  0  0
  152.4201  142.2810  160.3675 C   0  0  0  0  0  0  0  0  0  0  0  0
  153.0296  142.5120  161.7390 C   0  0  0  0  0  0  0  0  0  0  0  0
  151.5386  143.2328  159.7942 C   0  0  0  0  0  0  0  0  0  0  0  0
  151.1791  144.5099  160.5328 C   0  0  0  0  0  0  0  0  0  0  0  0
  150.9848  142.9961  158.5186 C   0  0  0  0  0  0  0  0  0  0  0  0
  151.3136  141.8172  157.8261 C   0  0  0  0  0  0  0  0  0  0  0  0
  148.2418  142.6146  158.9060 N   0  0  0  0  0  0  0  0  0  0  0  0
  147.8610  143.5036  159.9174 O   0  0  0  0  0  0  0  0  0  0  0  0
  144.8645  144.8029  160.6138 H   0  0  0  0  0  0  0  0  0  0  0  0
  146.4378  145.5600  160.8678 H   0  0  0  0  0  0  0  0  0  0  0  0
  145.9567  144.1728  161.8484 H   0  0  0  0  0  0  0  0  0  0  0  0
  144.9605  142.8838  158.5193 H   0  0  0  0  0  0  0  0  0  0  0  0
  148.0315  140.6806  157.2518 H   0  0  0  0  0  0  0  0  0  0  0  0
  146.2991  140.6949  157.1157 H   0  0  0  0  0  0  0  0  0  0  0  0
  146.0960  143.0794  154.4244 H   0  0  0  0  0  0  0  0  0  0  0  0
  145.6586  143.3251  156.1039 H   0  0  0  0  0  0  0  0  0  0  0  0
  145.2380  141.8088  155.2999 H   0  0  0  0  0  0  0  0  0  0  0  0
  147.2097  140.1671  154.7623 H   0  0  0  0  0  0  0  0  0  0  0  0
  147.5616  141.5606  153.7946 H   0  0  0  0  0  0  0  0  0  0  0  0
  149.4766  139.8342  155.2483 H   0  0  0  0  0  0  0  0  0  0  0  0
  149.5006  139.9988  153.0470 H   0  0  0  0  0  0  0  0  0  0  0  0
  150.6517  142.5101  154.9276 H   0  0  0  0  0  0  0  0  0  0  0  0
  149.3662  142.5354  156.1122 H   0  0  0  0  0  0  0  0  0  0  0  0
  151.5181  139.4911  155.6272 H   0  0  0  0  0  0  0  0  0  0  0  0
  153.4153  140.3754  160.0972 H   0  0  0  0  0  0  0  0  0  0  0  0
  153.6431  143.4133  161.7366 H   0  0  0  0  0  0  0  0  0  0  0  0
  153.6625  141.6768  162.0398 H   0  0  0  0  0  0  0  0  0  0  0  0
  152.2485  142.6263  162.4908 H   0  0  0  0  0  0  0  0  0  0  0  0
  150.4999  145.1304  159.9476 H   0  0  0  0  0  0  0  0  0  0  0  0
  152.0744  145.0968  160.7389 H   0  0  0  0  0  0  0  0  0  0  0  0
  150.6896  144.2787  161.4790 H   0  0  0  0  0  0  0  0  0  0  0  0
  150.3135  143.7130  158.0699 H   0  0  0  0  0  0  0  0  0  0  0  0
  1  2  1  0  0  0  0
  1 25  1  0  0  0  0
  1 26  1  0  0  0  0
  1 27  1  0  0  0  0
  2 24  1  0  0  0  0
  2  3  2  0  0  0  0
  3  4  1  0  0  0  0
  3 28  1  0  0  0  0
  4  5  1  0  0  0  0
  4 23  2  0  0  0  0
  5  6  1  0  0  0  0
  5 29  1  0  0  0  0
  5 30  1  0  0  0  0
  6  7  1  0  0  0  0
  6  8  1  0  0  0  0
  7 31  1  0  0  0  0
  7 32  1  0  0  0  0
  7 33  1  0  0  0  0
  8  9  1  0  0  0  0
  8 34  1  0  0  0  0
  8 35  1  0  0  0  0
  9 10  1  0  0  0  0
  9 11  1  0  0  0  0
  9 36  1  0  0  0  0
 10 37  1  0  0  0  0
 11 12  1  0  0  0  0
 11 38  1  0  0  0  0
 11 39  1  0  0  0  0
 12 22  1  0  0  0  0
 12 13  1  0  0  0  0
 13 14  2  0  0  0  0
 13 40  1  0  0  0  0
 14 15  1  0  0  0  0
 15 22  2  0  0  0  0
 15 16  1  0  0  0  0
 16 17  2  0  0  0  0
 16 41  1  0  0  0  0
 17 18  1  0  0  0  0
 17 19  1  0  0  0  0
 18 42  1  0  0  0  0
 18 43  1  0  0  0  0
 18 44  1  0  0  0  0
 19 20  1  0  0  0  0
 19 21  2  0  0  0  0
 20 45  1  0  0  0  0
 20 46  1  0  0  0  0
 20 47  1  0  0  0  0
 21 22  1  0  0  0  0
 21 48  1  0  0  0  0
 23 24  1  0  0  0  0
M  END
> <s_m_source_file>
AV-unprocessed.smi

> <i_m_source_file_index>
1209

> <i_lp_mmshare_version>
43012

> <i_f3d_flags>
0

> <s_epik_input>
W0NIM11jMVtjSF1jKG5vMSlbQ0gyXU4oW0NIM10pW0NIMl1bQ0BIXShbT0hdKVtDSDJdbihbY0hdbjIpYyhjMjMpW2NIXWMoW0NIM10pYyhbY0hdMylbQ0gzXQ==

> <s_epik_cmdline>
J2VwaWtfcHl0aG9uJywgJy1waCcsICc3LjAnLCAnLXRuJywgJzgnLCAnLW1hJywgJzIwMCcsICctbWV0YWxfYmluZGluZycsICctaW1hZScsICc8aW5maWxlLm1hZT4nLCAnLW9tYWUnLCAnPG91dGZpbGUubWFlPic=

> <r_epik_Ionization_Penalty>
0.103258

> <r_epik_Ionization_Penalty_Charging>
0

> <r_epik_Ionization_Penalty_Neutral>
0.103258

> <r_epik_State_Penalty>
0.0919675

> <r_epik_Charging_Adjusted_Penalty>
0.0919675

> <i_epik_Tot_Q>
0

> <i_epik_Tot_abs_Q>
0

> <r_epik_Metal_State_Penalty>
0.0812522

> <b_epik_Metal_Only>
0

> <s_lp_Force_Field>
OPLS_2005

> <r_lp_Energy>
16.8498

> <b_lp_Chiralities_Consistent>
1

> <s_lp_Variant>
AV-unprocessed.smi:1209-2

> <Gold.Version>
5.8.1

> <Gold.Id.Protein>
6NUR|6NUR_protein|mol2

> <Gold.PLP.Fitness>
53.9053

> <Gold.PLP.PLP>
-48.2018

> <Gold.PLP.part.hbond>
-5.1781

> <Gold.PLP.part.metal>
0.0000

> <Gold.PLP.part.buried>
-5.6959

> <Gold.PLP.part.nonpolar>
-36.3258

> <Gold.PLP.part.repulsive>
0.6592

> <Gold.PLP.ligand.clash>
0.0000

> <Gold.PLP.ligand.torsion>
2.3138

> <Gold.PLP.Chemscore.Hbond>
3.4128

> <Gold.PLP.Chemscore.CHOScore>
0.0000

> <Gold.PLP.Chemscore.Metal>
0.0000

> <Gold.Chemscore.Hbonds>
donor molecule, donor type, donor heavy atom, donor atom, acceptor molecule, acceptor atom, score
      L1  H    10    37       P1  7957  0.29
      P1  H  6933  6944       L1    24  0.73
      P1  H  7989  7998       L1    10  0.34
      P1  H  7997  8008       L1    14  0.59
      P1  H  8011  8017       L1    10  1.00

> <Gold.PLP.Chemscore.Internal.Correction>
0.0928

> <Gold.Rescore>
     Score         DG    S(hbond)    S(metal)    S(lipo)     H(rot)  DE(clash)    DE(int)     intcor
     16.52     -18.68       1.91        0.00     111.81       2.45       0.12       2.04       ----

> <Gold.Chemscore.Fitness>
16.5166

> <Gold.Chemscore.DG>
-18.6777

> <Gold.Chemscore.ZeroCoef>
-5.4800

> <Gold.Chemscore.Hbond>
1.9096

> <Gold.Chemscore.Metal>
0.0000

> <Gold.Chemscore.Lipo>
111.8116

> <Gold.Chemscore.Internal_Hbond>
0.0000

> <Gold.Chemscore.DEClash>
0.1211

> <Gold.Chemscore.DEInternal>
2.0400

> <Gold.Chemscore.Rot>
2.4462

> <Gold.Chemscore.Internal.Correction>
   9.000000E+99

> <Gold.Chemscore.Hbonds>
donor molecule, donor type, donor heavy atom, donor atom, acceptor molecule, acceptor atom, score
      L1  H    10    37       P1  7957  0.28
      P1  H  6933  6944       L1    24  0.08
      P1  H  7989  7998       L1    10  0.21
      P1  H  7997  8008       L1    14  0.09
      P1  H  8011  8017       L1    10  0.88

> <Gold.Chemscore.Hbond.Weighted>
-6.3780

> <Gold.Chemscore.Metal.Weighted>
-0.0000

> <Gold.Chemscore.Lipo.Weighted>
-13.0820

> <Gold.Chemscore.Internal_Hbond.Weighted>
0.0000

> <Gold.Chemscore.DEClash.Weighted>
0.1211

> <Gold.Chemscore.DEInternal.Weighted>
2.0400

> <Gold.Chemscore.Rot.Weighted>
6.2623

> <Gold.Chemscore.Internal.Correction.Weighted>
   9.000000E+99

> <Gold.Protein.RotatedTorsions>
[ 6907 6896 6895 6894 ] final -129.47 input  -60.11 | X-H torsion
[ 7974 7965 7964 7962 ] final -127.96 input  175.53 | X-H torsion
[ 8008 7997 7996 7995 ] final  -66.55 input   59.86 | X-H torsion
[ 10167 10162 10161 10158 ] final  -86.92 input  -65.29 | X-H torsion
[ 10718 10713 10712 10709 ] final  -51.58 input   66.30 | X-H torsion
[ 10763 10752 10751 10750 ] final   42.06 input  -60.55 | X-H torsion
[ 11005 11000 10999 10996 ] final -154.64 input  -57.11 | X-H torsion

> <Gold.Protein.ActiveResidues>
 VAL166  LYS551  ARG553  GLY616  TRP617  ASP618  TYR619  PRO620  LYS621  CYS622 
 ASP623  PHE694  ASN695  SER759  ASP760  ASP761  ALA762  ILE779  LEU786  VAL792 
 PHE793  MET794  SER795  GLU796  ALA797  LYS798  CYS799  TRP800  GLU811  SER814 

> <Gold.Protein.RotatedAtoms>
  150.9291  133.6788  159.2814 H   0  0  0  0  0  0  0  0  0  0  0  0  # atno 6907 bound_to 6896
  151.4216  135.0997  159.9625 H   0  0  0  0  0  0  0  0  0  0  0  0  # atno 6908 bound_to 6896
  152.5017  133.8741  159.7368 H   0  0  0  0  0  0  0  0  0  0  0  0  # atno 6909 bound_to 6896
  144.9718  140.7553  143.4666 H   0  0  0  0  0  0  0  0  0  0  0  0  # atno 7974 bound_to 7965
  154.4741  140.0910  156.7219 H   0  0  0  0  0  0  0  0  0  0  0  0  # atno 8008 bound_to 7997
  155.4643  140.3462  155.4298 H   0  0  0  0  0  0  0  0  0  0  0  0  # atno 8009 bound_to 7997
  156.1088  140.1442  156.9355 H   0  0  0  0  0  0  0  0  0  0  0  0  # atno 8010 bound_to 7997
  140.3895  143.2711  151.9282 H   0  0  0  0  0  0  0  0  0  0  0  0  # atno 10167 bound_to 10162
  156.1697  130.4149  149.9665 H   0  0  0  0  0  0  0  0  0  0  0  0  # atno 10718 bound_to 10713
  152.9892  135.6143  154.2888 H   0  0  0  0  0  0  0  0  0  0  0  0  # atno 10763 bound_to 10752
  154.2614  135.2782  155.2778 H   0  0  0  0  0  0  0  0  0  0  0  0  # atno 10764 bound_to 10752
  154.5203  135.5816  153.6732 H   0  0  0  0  0  0  0  0  0  0  0  0  # atno 10765 bound_to 10752
  140.6952  134.3998  157.5215 H   0  0  0  0  0  0  0  0  0  0  0  0  # atno 11005 bound_to 11000
  145.2547  139.2017  143.4923 LP  0  0  0  0  0  0  0  0  0  0  0  0  # atno 17320 bound_to 7965
  146.3384  140.2467  142.8597 LP  0  0  0  0  0  0  0  0  0  0  0  0  # atno 17321 bound_to 7965
  139.4790  144.5741  151.8040 LP  0  0  0  0  0  0  0  0  0  0  0  0  # atno 17342 bound_to 10162
  140.4854  144.1388  150.5940 LP  0  0  0  0  0  0  0  0  0  0  0  0  # atno 17343 bound_to 10162
  156.7469  130.9100  151.3635 LP  0  0  0  0  0  0  0  0  0  0  0  0  # atno 17370 bound_to 10713
  157.6794  130.9125  150.0230 LP  0  0  0  0  0  0  0  0  0  0  0  0  # atno 17371 bound_to 10713
  139.8912  134.8785  156.2331 LP  0  0  0  0  0  0  0  0  0  0  0  0  # atno 17394 bound_to 11000
  141.0209  133.7042  156.1266 LP  0  0  0  0  0  0  0  0  0  0  0  0  # atno 17395 bound_to 11000

$$$$
