AV-unprocessed.smi:234|AV-procd|sdf|1797|dock5
  -GOLD-   2262020363D 1   1.00000     0.00000
 Structure written by MMmdl.
 59 62  0  0  0  0  0  0  0  0  1 V2000
  151.7165  145.2264  159.1427 C   0  0  0  0  0  0  0  0  0  0  0  0
  151.9375  143.8701  158.4594 C   0  0  0  0  0  0  0  0  0  0  0  0
  150.7379  143.3713  157.8853 O   0  0  0  0  0  0  0  0  0  0  0  0
  150.9353  142.5051  156.7713 C   0  0  2  0  0  0  0  0  0  0  0  0
  149.5918  142.1902  156.1124 C   0  0  0  0  0  0  0  0  0  0  0  0
  149.4942  141.0033  157.0813 C   0  0  1  0  0  0  0  0  0  0  0  0
  148.9132  139.7920  156.4923 N   0  0  0  0  0  0  0  0  0  0  0  0
  148.9705  139.6412  155.0420 C   0  0  0  0  0  0  0  0  0  0  0  0
  149.1153  138.6150  157.1343 C   0  0  0  0  0  0  0  0  0  0  0  0
  150.3559  138.0595  157.1713 N   0  0  0  0  0  0  0  0  0  0  0  0
  150.5517  136.8938  157.7945 C   0  0  0  0  0  0  0  0  0  0  0  0
  149.6636  136.1298  158.4335 N   0  0  0  0  0  0  0  0  0  0  0  0
  148.4169  136.6820  158.3965 C   0  0  0  0  0  0  0  0  0  0  0  0
  148.0574  137.9066  157.7669 C   0  0  0  0  0  0  0  0  0  0  0  0
  146.6988  138.1456  157.9321 N   0  0  0  0  0  0  0  0  0  0  0  0
  146.2795  137.1221  158.6252 C   0  0  0  0  0  0  0  0  0  0  0  0
  147.2467  136.1992  158.9559 N   0  0  0  0  0  0  0  0  0  0  0  0
  147.0584  134.9804  159.7285 C   0  0  0  0  0  0  0  0  0  0  0  0
  146.5807  135.2428  161.1814 C   0  0  2  0  0  0  0  0  0  0  0  0
  145.2111  135.6082  161.1281 O   0  0  0  0  0  0  0  0  0  0  0  0
  147.3378  136.3666  161.8825 C   0  0  0  0  0  0  0  0  0  0  0  0
  147.2166  135.9932  163.3517 C   0  0  0  0  0  0  0  0  0  0  0  0
  147.3785  134.5860  163.3246 O   0  0  0  0  0  0  0  0  0  0  0  0
  146.7112  134.0582  162.1797 C   0  0  2  0  0  0  0  0  0  0  0  0
  147.5156  132.8389  161.7023 C   0  0  0  0  0  0  0  0  0  0  0  0
  151.0464  141.0089  157.1650 C   0  0  0  0  0  0  0  0  0  0  0  0
  151.8194  140.1536  156.1477 C   0  0  0  0  0  0  0  0  0  0  0  0
  151.6601  140.7172  158.5373 C   0  0  0  0  0  0  0  0  0  0  0  0
  152.6554  145.6203  159.5316 H   0  0  0  0  0  0  0  0  0  0  0  0
  151.0201  145.1491  159.9777 H   0  0  0  0  0  0  0  0  0  0  0  0
  151.3161  145.9563  158.4388 H   0  0  0  0  0  0  0  0  0  0  0  0
  152.6640  143.9918  157.6558 H   0  0  0  0  0  0  0  0  0  0  0  0
  152.3627  143.1433  159.1534 H   0  0  0  0  0  0  0  0  0  0  0  0
  151.6907  142.8394  156.0575 H   0  0  0  0  0  0  0  0  0  0  0  0
  148.8258  142.9549  156.2468 H   0  0  0  0  0  0  0  0  0  0  0  0
  149.6902  141.9006  155.0648 H   0  0  0  0  0  0  0  0  0  0  0  0
  149.0331  141.2932  158.0274 H   0  0  0  0  0  0  0  0  0  0  0  0
  149.5620  138.7734  154.7449 H   0  0  0  0  0  0  0  0  0  0  0  0
  149.4193  140.5152  154.5717 H   0  0  0  0  0  0  0  0  0  0  0  0
  147.9646  139.5214  154.6395 H   0  0  0  0  0  0  0  0  0  0  0  0
  151.5650  136.5207  157.7793 H   0  0  0  0  0  0  0  0  0  0  0  0
  145.2472  137.0152  158.9257 H   0  0  0  0  0  0  0  0  0  0  0  0
  146.3405  134.3521  159.1997 H   0  0  0  0  0  0  0  0  0  0  0  0
  148.0040  134.4379  159.7267 H   0  0  0  0  0  0  0  0  0  0  0  0
  144.7164  134.8681  160.8106 H   0  0  0  0  0  0  0  0  0  0  0  0
  148.3916  136.3396  161.6034 H   0  0  0  0  0  0  0  0  0  0  0  0
  146.9590  137.3645  161.6567 H   0  0  0  0  0  0  0  0  0  0  0  0
  147.9714  136.4740  163.9742 H   0  0  0  0  0  0  0  0  0  0  0  0
  146.2301  136.2455  163.7432 H   0  0  0  0  0  0  0  0  0  0  0  0
  145.7246  133.7157  162.4974 H   0  0  0  0  0  0  0  0  0  0  0  0
  147.0535  132.3712  160.8328 H   0  0  0  0  0  0  0  0  0  0  0  0
  147.5687  132.0837  162.4869 H   0  0  0  0  0  0  0  0  0  0  0  0
  148.5387  133.1109  161.4418 H   0  0  0  0  0  0  0  0  0  0  0  0
  151.7939  139.0947  156.4055 H   0  0  0  0  0  0  0  0  0  0  0  0
  152.8678  140.4496  156.0985 H   0  0  0  0  0  0  0  0  0  0  0  0
  151.4143  140.2472  155.1398 H   0  0  0  0  0  0  0  0  0  0  0  0
  151.6270  139.6547  158.7780 H   0  0  0  0  0  0  0  0  0  0  0  0
  151.1330  141.2407  159.3350 H   0  0  0  0  0  0  0  0  0  0  0  0
  152.7043  141.0271  158.5811 H   0  0  0  0  0  0  0  0  0  0  0  0
  1  2  1  0  0  0  0
  1 29  1  0  0  0  0
  1 30  1  0  0  0  0
  1 31  1  0  0  0  0
  2  3  1  0  0  0  0
  2 32  1  0  0  0  0
  2 33  1  0  0  0  0
  3  4  1  0  0  0  0
  4 26  1  0  0  0  0
  4  5  1  0  0  0  0
  4 34  1  0  0  0  0
  5  6  1  0  0  0  0
  5 35  1  0  0  0  0
  5 36  1  0  0  0  0
  6  7  1  0  0  0  0
  6 26  1  0  0  0  0
  6 37  1  0  0  0  0
  7  8  1  0  0  0  0
  7  9  1  0  0  0  0
  8 38  1  0  0  0  0
  8 39  1  0  0  0  0
  8 40  1  0  0  0  0
  9 14  1  0  0  0  0
  9 10  2  0  0  0  0
 10 11  1  0  0  0  0
 11 12  2  0  0  0  0
 11 41  1  0  0  0  0
 12 13  1  0  0  0  0
 13 17  1  0  0  0  0
 13 14  2  0  0  0  0
 14 15  1  0  0  0  0
 15 16  2  0  0  0  0
 16 17  1  0  0  0  0
 16 42  1  0  0  0  0
 17 18  1  0  0  0  0
 18 19  1  0  0  0  0
 18 43  1  0  0  0  0
 18 44  1  0  0  0  0
 19 24  1  0  0  0  0
 19 20  1  0  0  0  0
 19 21  1  0  0  0  0
 20 45  1  0  0  0  0
 21 22  1  0  0  0  0
 21 46  1  0  0  0  0
 21 47  1  0  0  0  0
 22 23  1  0  0  0  0
 22 48  1  0  0  0  0
 22 49  1  0  0  0  0
 23 24  1  0  0  0  0
 24 25  1  0  0  0  0
 24 50  1  0  0  0  0
 25 51  1  0  0  0  0
 25 52  1  0  0  0  0
 25 53  1  0  0  0  0
 26 27  1  0  0  0  0
 26 28  1  0  0  0  0
 27 54  1  0  0  0  0
 27 55  1  0  0  0  0
 27 56  1  0  0  0  0
 28 57  1  0  0  0  0
 28 58  1  0  0  0  0
 28 59  1  0  0  0  0
M  END
> <s_m_source_file>
AV-unprocessed.smi

> <i_m_source_file_index>
234

> <i_lp_mmshare_version>
43012

> <i_f3d_flags>
0

> <s_epik_input>
W0NIM11bQ0gyXU9bQ0BASF0oQzEoW0NIM10pW0NIM10pW0NIMl1bQ0BIXTFOKFtDSDNdKWMobltjSF1uMiljKGMyMyluW2NIXW4zW0NIMl1bQ0BAXTQoW09IXSlbQ0gyXVtDSDJdT1tDQEhdNFtDSDNd

> <s_epik_cmdline>
J2VwaWtfcHl0aG9uJywgJy1waCcsICc3LjAnLCAnLXRuJywgJzgnLCAnLW1hJywgJzIwMCcsICctbWV0YWxfYmluZGluZycsICctaW1hZScsICc8aW5maWxlLm1hZT4nLCAnLW9tYWUnLCAnPG91dGZpbGUubWFlPic=

> <r_lp_tautomer_probability>
1

> <r_epik_Ionization_Penalty>
0.00349132

> <r_epik_Ionization_Penalty_Charging>
0

> <r_epik_Ionization_Penalty_Neutral>
0.00349132

> <r_epik_State_Penalty>
0.00242418

> <r_epik_Charging_Adjusted_Penalty>
0.00242418

> <i_epik_Tot_Q>
0

> <i_epik_Tot_abs_Q>
0

> <r_epik_Metal_State_Penalty>
-0

> <b_epik_Metal_Only>
0

> <s_lp_Force_Field>
OPLS_2005

> <r_lp_Energy>
49.2938

> <b_lp_Chiralities_Consistent>
1

> <s_lp_Variant>
AV-unprocessed.smi:234-13

> <Gold.Version>
5.8.1

> <Gold.Id.Protein>
6NUR|6NUR_protein|mol2

> <Gold.PLP.Fitness>
44.3672

> <Gold.PLP.PLP>
-42.5233

> <Gold.PLP.part.hbond>
-2.6286

> <Gold.PLP.part.metal>
0.0000

> <Gold.PLP.part.buried>
-3.7332

> <Gold.PLP.part.nonpolar>
-36.3109

> <Gold.PLP.part.repulsive>
0.1682

> <Gold.PLP.ligand.clash>
0.0000

> <Gold.PLP.ligand.torsion>
1.1661

> <Gold.PLP.Chemscore.Hbond>
1.0000

> <Gold.PLP.Chemscore.CHOScore>
0.0000

> <Gold.PLP.Chemscore.Metal>
0.0000

> <Gold.Chemscore.Hbonds>
donor molecule, donor type, donor heavy atom, donor atom, acceptor molecule, acceptor atom, score
      P1  H  6896  6907       L1    12  0.76

> <Gold.PLP.Chemscore.Internal.Correction>
1.1761

> <Gold.Rescore>
     Score         DG    S(hbond)    S(metal)    S(lipo)     H(rot)  DE(clash)    DE(int)     intcor
     10.29     -12.86       0.36        0.00     110.19       2.62       0.27       2.31       ----

> <Gold.Chemscore.Fitness>
10.2891

> <Gold.Chemscore.DG>
-12.8627

> <Gold.Chemscore.ZeroCoef>
-5.4800

> <Gold.Chemscore.Hbond>
0.3602

> <Gold.Chemscore.Metal>
0.0000

> <Gold.Chemscore.Lipo>
110.1857

> <Gold.Chemscore.Internal_Hbond>
0.0000

> <Gold.Chemscore.DEClash>
0.2652

> <Gold.Chemscore.DEInternal>
2.3085

> <Gold.Chemscore.Rot>
2.6219

> <Gold.Chemscore.Internal.Correction>
   9.000000E+99

> <Gold.Chemscore.Hbonds>
donor molecule, donor type, donor heavy atom, donor atom, acceptor molecule, acceptor atom, score
      P1  H  6896  6907       L1    12  0.41

> <Gold.Chemscore.Hbond.Weighted>
-1.2031

> <Gold.Chemscore.Metal.Weighted>
-0.0000

> <Gold.Chemscore.Lipo.Weighted>
-12.8917

> <Gold.Chemscore.Internal_Hbond.Weighted>
0.0000

> <Gold.Chemscore.DEClash.Weighted>
0.2652

> <Gold.Chemscore.DEInternal.Weighted>
2.3085

> <Gold.Chemscore.Rot.Weighted>
6.7121

> <Gold.Chemscore.Internal.Correction.Weighted>
   9.000000E+99

> <Gold.Protein.RotatedTorsions>
[ 6907 6896 6895 6894 ] final  -53.63 input  -60.11 | X-H torsion
[ 7974 7965 7964 7962 ] final  -99.67 input  175.53 | X-H torsion
[ 8008 7997 7996 7995 ] final -137.27 input   59.86 | X-H torsion
[ 10167 10162 10161 10158 ] final  141.79 input  -65.29 | X-H torsion
[ 10718 10713 10712 10709 ] final -118.03 input   66.30 | X-H torsion
[ 10763 10752 10751 10750 ] final  -80.46 input  -60.55 | X-H torsion
[ 11005 11000 10999 10996 ] final  112.53 input  -57.11 | X-H torsion

> <Gold.Protein.ActiveResidues>
 VAL166  LYS551  ARG553  GLY616  TRP617  ASP618  TYR619  PRO620  LYS621  CYS622 
 ASP623  PHE694  ASN695  SER759  ASP760  ASP761  ALA762  ILE779  LEU786  VAL792 
 PHE793  MET794  SER795  GLU796  ALA797  LYS798  CYS799  TRP800  GLU811  SER814 

> <Gold.Protein.RotatedAtoms>
  150.8409  134.7701  159.6931 H   0  0  0  0  0  0  0  0  0  0  0  0  # atno 6907 bound_to 6896
  152.4497  134.5417  159.9851 H   0  0  0  0  0  0  0  0  0  0  0  0  # atno 6908 bound_to 6896
  151.5557  133.3373  159.2997 H   0  0  0  0  0  0  0  0  0  0  0  0  # atno 6909 bound_to 6896
  145.3045  140.9385  143.2805 H   0  0  0  0  0  0  0  0  0  0  0  0  # atno 7974 bound_to 7965
  155.4090  140.0511  157.3033 H   0  0  0  0  0  0  0  0  0  0  0  0  # atno 8008 bound_to 7997
  154.4955  140.2137  155.9416 H   0  0  0  0  0  0  0  0  0  0  0  0  # atno 8009 bound_to 7997
  156.1399  140.3156  155.8485 H   0  0  0  0  0  0  0  0  0  0  0  0  # atno 8010 bound_to 7997
  139.5011  144.6149  151.6187 H   0  0  0  0  0  0  0  0  0  0  0  0  # atno 10167 bound_to 10162
  156.1076  130.6223  150.9239 H   0  0  0  0  0  0  0  0  0  0  0  0  # atno 10718 bound_to 10713
  154.5515  135.5660  153.6926 H   0  0  0  0  0  0  0  0  0  0  0  0  # atno 10763 bound_to 10752
  152.9991  135.6252  154.2367 H   0  0  0  0  0  0  0  0  0  0  0  0  # atno 10764 bound_to 10752
  154.2302  135.2866  155.2872 H   0  0  0  0  0  0  0  0  0  0  0  0  # atno 10765 bound_to 10752
  139.8929  134.9531  156.6599 H   0  0  0  0  0  0  0  0  0  0  0  0  # atno 11005 bound_to 11000
  144.9066  139.4581  143.6607 LP  0  0  0  0  0  0  0  0  0  0  0  0  # atno 17320 bound_to 7965
  146.3140  139.7851  142.8998 LP  0  0  0  0  0  0  0  0  0  0  0  0  # atno 17321 bound_to 7965
  140.5834  143.9907  150.6281 LP  0  0  0  0  0  0  0  0  0  0  0  0  # atno 17342 bound_to 10162
  140.3063  143.3227  152.0922 LP  0  0  0  0  0  0  0  0  0  0  0  0  # atno 17343 bound_to 10162
  157.6255  131.0926  150.8542 LP  0  0  0  0  0  0  0  0  0  0  0  0  # atno 17370 bound_to 10713
  156.8658  130.5129  149.5300 LP  0  0  0  0  0  0  0  0  0  0  0  0  # atno 17371 bound_to 10713
  140.7455  133.8942  155.8309 LP  0  0  0  0  0  0  0  0  0  0  0  0  # atno 17394 bound_to 11000
  141.0043  134.1107  157.4286 LP  0  0  0  0  0  0  0  0  0  0  0  0  # atno 17395 bound_to 11000

$$$$
