AV-unprocessed.smi:50|AV-procd|sdf|498|dock5
  -GOLD-   2262016373D 1   1.00000     0.00000
 Structure written by MMmdl.
 42 43  0  0  0  0  0  0  0  0  2 V2000
  144.3458  145.9297  159.2103 C   0  0  0  0  0  0  0  0  0  0  0  0
  144.3590  144.3906  159.3180 C   0  0  0  0  0  0  0  0  0  0  0  0
  144.2090  143.9974  160.7993 C   0  0  0  0  0  0  0  0  0  0  0  0
  145.6063  143.7033  158.6847 C   0  0  1  0  0  0  0  0  0  0  0  0
  146.8338  144.2624  159.2531 N   0  0  0  0  0  0  0  0  0  0  0  0
  145.5914  142.1692  158.8177 C   0  0  0  0  0  0  0  0  0  0  0  0
  145.4427  141.5639  159.8812 O   0  0  0  0  0  0  0  0  0  0  0  0
  145.7505  141.5984  157.6101 O   0  0  0  0  0  0  0  0  0  0  0  0
  145.4626  140.2229  157.4041 C   0  0  0  0  0  0  0  0  0  0  0  0
  145.4646  139.9607  155.8962 C   0  0  0  0  0  0  0  0  0  0  0  0
  146.7204  139.4055  155.5292 O   0  0  0  0  0  0  0  0  0  0  0  0
  147.3562  140.0689  154.4841 C   0  0  0  0  0  0  0  0  0  0  0  0
  148.7756  140.1583  154.7832 N   0  0  0  0  0  0  0  0  0  0  0  0
  149.4762  141.2810  155.0361 C   0  0  0  0  0  0  0  0  0  0  0  0
  150.7749  141.1035  155.2741 N   0  0  0  0  0  0  0  0  0  0  0  0
  150.9045  139.7240  155.1603 C   0  0  0  0  0  0  0  0  0  0  0  0
  152.0829  138.8316  155.2782 C   0  0  0  0  0  0  0  0  0  0  0  0
  153.1814  139.3213  155.5338 O   0  0  0  0  0  0  0  0  0  0  0  0
  151.8345  137.5011  155.0804 N   0  5  0  0  0  0  0  0  0  0  0  0
  150.5366  137.0557  154.7933 C   0  0  0  0  0  0  0  0  0  0  0  0
  150.4643  135.6892  154.6320 N   0  0  0  0  0  0  0  0  0  0  0  0
  149.4534  137.7839  154.6750 N   0  0  0  0  0  0  0  0  0  0  0  0
  149.7066  139.1293  154.8678 C   0  0  0  0  0  0  0  0  0  0  0  0
  145.6084  143.9373  157.6193 H   0  0  0  0  0  0  0  0  0  0  0  0
  145.2574  146.3568  159.6271 H   0  0  0  0  0  0  0  0  0  0  0  0
  143.5028  146.3581  159.7533 H   0  0  0  0  0  0  0  0  0  0  0  0
  144.2558  146.2703  158.1788 H   0  0  0  0  0  0  0  0  0  0  0  0
  143.4720  144.0321  158.7932 H   0  0  0  0  0  0  0  0  0  0  0  0
  145.0661  144.3328  161.3846 H   0  0  0  0  0  0  0  0  0  0  0  0
  144.1222  142.9182  160.9249 H   0  0  0  0  0  0  0  0  0  0  0  0
  143.3156  144.4441  161.2368 H   0  0  0  0  0  0  0  0  0  0  0  0
  147.1802  145.0322  158.6986 H   0  0  0  0  0  0  0  0  0  0  0  0
  146.6826  144.6192  160.1856 H   0  0  0  0  0  0  0  0  0  0  0  0
  146.1993  139.6016  157.9137 H   0  0  0  0  0  0  0  0  0  0  0  0
  144.4820  139.9608  157.8036 H   0  0  0  0  0  0  0  0  0  0  0  0
  144.6788  139.2503  155.6373 H   0  0  0  0  0  0  0  0  0  0  0  0
  145.2500  140.8880  155.3640 H   0  0  0  0  0  0  0  0  0  0  0  0
  147.2398  139.4788  153.5747 H   0  0  0  0  0  0  0  0  0  0  0  0
  146.9387  141.0625  154.3123 H   0  0  0  0  0  0  0  0  0  0  0  0
  149.0191  142.2594  155.0389 H   0  0  0  0  0  0  0  0  0  0  0  0
  151.2606  135.0744  154.7120 H   0  0  0  0  0  0  0  0  0  0  0  0
  149.6051  135.2056  154.4155 H   0  0  0  0  0  0  0  0  0  0  0  0
  1  2  1  0  0  0  0
  1 25  1  0  0  0  0
  1 26  1  0  0  0  0
  1 27  1  0  0  0  0
  2  3  1  0  0  0  0
  2  4  1  0  0  0  0
  2 28  1  0  0  0  0
  3 29  1  0  0  0  0
  3 30  1  0  0  0  0
  3 31  1  0  0  0  0
  4 24  1  0  0  0  0
  4  5  1  0  0  0  0
  4  6  1  0  0  0  0
  5 32  1  0  0  0  0
  5 33  1  0  0  0  0
  6  7  2  0  0  0  0
  6  8  1  0  0  0  0
  8  9  1  0  0  0  0
  9 10  1  0  0  0  0
  9 34  1  0  0  0  0
  9 35  1  0  0  0  0
 10 11  1  0  0  0  0
 10 36  1  0  0  0  0
 10 37  1  0  0  0  0
 11 12  1  0  0  0  0
 12 13  1  0  0  0  0
 12 38  1  0  0  0  0
 12 39  1  0  0  0  0
 13 23  1  0  0  0  0
 13 14  1  0  0  0  0
 14 15  2  0  0  0  0
 14 40  1  0  0  0  0
 15 16  1  0  0  0  0
 16 23  2  0  0  0  0
 16 17  1  0  0  0  0
 17 18  2  0  0  0  0
 17 19  1  0  0  0  0
 19 20  1  0  0  0  0
 20 21  1  0  0  0  0
 20 22  2  0  0  0  0
 21 41  1  0  0  0  0
 21 42  1  0  0  0  0
 22 23  1  0  0  0  0
M  CHG  1  19  -1
M  END
> <s_m_source_file>
AV-unprocessed.smi

> <i_m_source_file_index>
50

> <i_lp_mmshare_version>
43012

> <i_f3d_flags>
0

> <s_epik_input>
W0NIM11bQ0hdKFtDSDNdKVtDQEhdKFtOSDJdKUMoPU8pT1tDSDJdW0NIMl1PW0NIMl1uKFtjSF1uMSljKGMxMiluYyhbTkgyXSlbbkhdYzI9Tw==

> <s_epik_cmdline>
J2VwaWtfcHl0aG9uJywgJy1waCcsICc3LjAnLCAnLXRuJywgJzgnLCAnLW1hJywgJzIwMCcsICctbWV0YWxfYmluZGluZycsICctaW1hZScsICc8aW5maWxlLm1hZT4nLCAnLW9tYWUnLCAnPG91dGZpbGUubWFlPic=

> <r_lp_tautomer_probability>
0.99994

> <r_epik_Ionization_Penalty>
4.26118

> <r_epik_Ionization_Penalty_Charging>
1.23364e-10

> <r_epik_Ionization_Penalty_Neutral>
4.26118

> <r_epik_State_Penalty>
4.27372

> <r_epik_Charging_Adjusted_Penalty>
4.27372

> <i_epik_Tot_Q>
-1

> <i_epik_Tot_abs_Q>
1

> <r_epik_Metal_State_Penalty>
1.24306

> <b_epik_Metal_Only>
1

> <s_epik_Chemistry_Notes>
This compound has an ester and may undergo hydrolysis at high or low pH. This compound contains an acetal/aminal-like group ( X-CH(R)-Y where X, Y are N, S, or O) that may be acid/base labile, releasing an aldehyde.

> <s_lp_Force_Field>
OPLS_2005

> <r_lp_Energy>
20.1027

> <b_lp_Chiralities_Consistent>
1

> <s_lp_Variant>
AV-unprocessed.smi:50-8

> <Gold.Version>
5.8.1

> <Gold.Id.Protein>
6NUR|6NUR_protein|mol2

> <Gold.PLP.Fitness>
42.3927

> <Gold.PLP.PLP>
-27.0809

> <Gold.PLP.part.hbond>
-6.5943

> <Gold.PLP.part.metal>
0.0000

> <Gold.PLP.part.buried>
-2.8478

> <Gold.PLP.part.nonpolar>
-18.9712

> <Gold.PLP.part.repulsive>
0.5861

> <Gold.PLP.ligand.clash>
0.0000

> <Gold.PLP.ligand.torsion>
1.3633

> <Gold.PLP.Chemscore.Hbond>
5.1626

> <Gold.PLP.Chemscore.CHOScore>
0.7336

> <Gold.PLP.Chemscore.Metal>
0.0000

> <Gold.Chemscore.Hbonds>
donor molecule, donor type, donor heavy atom, donor atom, acceptor molecule, acceptor atom, score
      L1  H     5    32       P1  8029  1.00
      P1  H  6934  6946       L1     7  1.00
      P1  H  7997  8010       L1    18  1.00
      P1  H 10752 10764       L1    19  0.69
      L1  C    14    40       P1  8028  1.00

> <Gold.PLP.Chemscore.Internal.Correction>
0.3498

> <Gold.Rescore>
     Score         DG    S(hbond)    S(metal)    S(lipo)     H(rot)  DE(clash)    DE(int)     intcor
      5.95      -8.49       3.78        0.00      21.23       4.72       0.00       2.53       ----

> <Gold.Chemscore.Fitness>
5.9537

> <Gold.Chemscore.DG>
-8.4877

> <Gold.Chemscore.ZeroCoef>
-5.4800

> <Gold.Chemscore.Hbond>
3.7776

> <Gold.Chemscore.Metal>
0.0000

> <Gold.Chemscore.Lipo>
21.2294

> <Gold.Chemscore.Internal_Hbond>
0.0000

> <Gold.Chemscore.DEClash>
0.0000

> <Gold.Chemscore.DEInternal>
2.5340

> <Gold.Chemscore.Rot>
4.7239

> <Gold.Chemscore.Internal.Correction>
   9.000000E+99

> <Gold.Chemscore.Hbonds>
donor molecule, donor type, donor heavy atom, donor atom, acceptor molecule, acceptor atom, score
      L1  H     5    32       P1  8029  1.00
      P1  H  6934  6946       L1     7  0.95
      P1  H  7997  8010       L1    18  0.97
      P1  H 10752 10764       L1    19  0.07

> <Gold.Chemscore.Hbond.Weighted>
-12.6171

> <Gold.Chemscore.Metal.Weighted>
-0.0000

> <Gold.Chemscore.Lipo.Weighted>
-2.4838

> <Gold.Chemscore.Internal_Hbond.Weighted>
0.0000

> <Gold.Chemscore.DEClash.Weighted>
0.0000

> <Gold.Chemscore.DEInternal.Weighted>
2.5340

> <Gold.Chemscore.Rot.Weighted>
12.0933

> <Gold.Chemscore.Internal.Correction.Weighted>
   9.000000E+99

> <Gold.Protein.RotatedTorsions>
[ 6907 6896 6895 6894 ] final  -77.49 input  -60.11 | X-H torsion
[ 7974 7965 7964 7962 ] final  -71.62 input  175.53 | X-H torsion
[ 8008 7997 7996 7995 ] final   86.25 input   59.86 | X-H torsion
[ 10167 10162 10161 10158 ] final   64.65 input  -65.29 | X-H torsion
[ 10718 10713 10712 10709 ] final -101.59 input   66.30 | X-H torsion
[ 10763 10752 10751 10750 ] final  -70.66 input  -60.55 | X-H torsion
[ 11005 11000 10999 10996 ] final -104.18 input  -57.11 | X-H torsion

> <Gold.Protein.ActiveResidues>
 VAL166  LYS551  ARG553  GLY616  TRP617  ASP618  TYR619  PRO620  LYS621  CYS622 
 ASP623  PHE694  ASN695  SER759  ASP760  ASP761  ALA762  ILE779  LEU786  VAL792 
 PHE793  MET794  SER795  GLU796  ALA797  LYS798  CYS799  TRP800  GLU811  SER814 

> <Gold.Protein.RotatedAtoms>
  150.6997  134.4415  159.5293 H   0  0  0  0  0  0  0  0  0  0  0  0  # atno 6907 bound_to 6896
  152.2124  134.8487  160.0505 H   0  0  0  0  0  0  0  0  0  0  0  0  # atno 6908 bound_to 6896
  151.9367  133.3591  159.3987 H   0  0  0  0  0  0  0  0  0  0  0  0  # atno 6909 bound_to 6896
  145.6757  140.9205  143.0859 H   0  0  0  0  0  0  0  0  0  0  0  0  # atno 7974 bound_to 7965
  155.9604  140.3394  155.6485 H   0  0  0  0  0  0  0  0  0  0  0  0  # atno 8008 bound_to 7997
  155.6805  140.0737  157.2504 H   0  0  0  0  0  0  0  0  0  0  0  0  # atno 8009 bound_to 7997
  154.4142  140.1675  156.1965 H   0  0  0  0  0  0  0  0  0  0  0  0  # atno 8010 bound_to 7997
  140.1199  144.4741  150.6927 H   0  0  0  0  0  0  0  0  0  0  0  0  # atno 10167 bound_to 10162
  156.0200  130.5381  150.6986 H   0  0  0  0  0  0  0  0  0  0  0  0  # atno 10718 bound_to 10713
  154.4208  135.5987  153.6009 H   0  0  0  0  0  0  0  0  0  0  0  0  # atno 10763 bound_to 10752
  152.9794  135.5952  154.3957 H   0  0  0  0  0  0  0  0  0  0  0  0  # atno 10764 bound_to 10752
  154.3782  135.2841  155.2205 H   0  0  0  0  0  0  0  0  0  0  0  0  # atno 10765 bound_to 10752
  141.1112  133.8702  157.1578 H   0  0  0  0  0  0  0  0  0  0  0  0  # atno 11005 bound_to 11000
  144.7042  139.8631  143.7435 LP  0  0  0  0  0  0  0  0  0  0  0  0  # atno 17320 bound_to 7965
  146.1007  139.4002  143.0348 LP  0  0  0  0  0  0  0  0  0  0  0  0  # atno 17321 bound_to 7965
  140.6878  143.2359  151.5213 LP  0  0  0  0  0  0  0  0  0  0  0  0  # atno 17342 bound_to 10162
  139.5574  144.2240  152.1635 LP  0  0  0  0  0  0  0  0  0  0  0  0  # atno 17343 bound_to 10162
  157.4651  131.0887  151.0704 LP  0  0  0  0  0  0  0  0  0  0  0  0  # atno 17370 bound_to 10713
  157.1180  130.6050  149.5498 LP  0  0  0  0  0  0  0  0  0  0  0  0  # atno 17371 bound_to 10713
  140.0007  135.0029  157.0184 LP  0  0  0  0  0  0  0  0  0  0  0  0  # atno 17394 bound_to 11000
  140.4769  134.1329  155.7211 LP  0  0  0  0  0  0  0  0  0  0  0  0  # atno 17395 bound_to 11000

$$$$
