AV-unprocessed.smi:237|AV-procd|sdf|1818|dock5
  -GOLD-   2262020413D 1   1.00000     0.00000
 Structure written by MMmdl.
 53 56  0  0  0  0  0  0  0  0  1 V2000
  151.4646  138.6139  154.6920 C   0  0  0  0  0  0  0  0  0  0  0  0
  152.7025  138.2882  155.5301 C   0  0  0  0  0  0  0  0  0  0  0  0
  152.8223  139.2685  156.5486 O   0  0  0  0  0  0  0  0  0  0  0  0
  151.7469  139.3027  157.4798 C   0  0  0  0  0  0  0  0  0  0  0  0
  151.5424  140.6735  158.1805 C   0  0  1  0  0  0  0  0  0  0  0  0
  152.8342  141.0268  158.9529 C   0  0  0  0  0  0  0  0  0  0  0  0
  152.7512  142.4048  159.6224 C   0  0  0  0  0  0  0  0  0  0  0  0
  152.4107  143.4696  158.5748 C   0  0  0  0  0  0  0  0  0  0  0  0
  151.1147  143.0956  157.8448 C   0  0  0  0  0  0  0  0  0  0  0  0
  151.2050  141.7620  157.2460 N   0  0  0  0  0  0  0  0  0  0  0  0
  150.1386  141.5119  156.4517 C   0  0  0  0  0  0  0  0  0  0  0  0
  150.3272  141.0840  155.1748 N   0  0  0  0  0  0  0  0  0  0  0  0
  149.2733  140.8662  154.3827 C   0  0  0  0  0  0  0  0  0  0  0  0
  147.9757  141.0122  154.6602 N   0  0  0  0  0  0  0  0  0  0  0  0
  147.7866  141.4371  155.9429 C   0  0  0  0  0  0  0  0  0  0  0  0
  148.8057  141.7112  156.8964 C   0  0  0  0  0  0  0  0  0  0  0  0
  148.2422  142.1421  158.0895 N   0  0  0  0  0  0  0  0  0  0  0  0
  146.9585  142.1226  157.8548 C   0  0  0  0  0  0  0  0  0  0  0  0
  146.5937  141.6946  156.5967 N   0  0  0  0  0  0  0  0  0  0  0  0
  145.2421  141.5781  156.0670 C   0  0  0  0  0  0  0  0  0  0  0  0
  144.6727  142.8743  155.4400 C   0  0  0  0  0  0  0  0  0  0  0  0
  145.4560  143.1637  154.1522 C   0  0  0  0  0  0  0  0  0  0  0  0
  144.8093  144.1436  153.3656 O   0  0  0  0  0  0  0  0  0  0  0  0
  143.1429  143.0154  155.3493 C   0  0  0  0  0  0  0  0  0  0  0  0
  143.0980  143.8671  156.5134 O   0  0  0  0  0  0  0  0  0  0  0  0
  144.5210  144.0729  156.3924 C   0  0  0  0  0  0  0  0  0  0  0  0
  151.3257  137.8794  153.8986 H   0  0  0  0  0  0  0  0  0  0  0  0
  151.5546  139.5962  154.2277 H   0  0  0  0  0  0  0  0  0  0  0  0
  150.5649  138.6158  155.3078 H   0  0  0  0  0  0  0  0  0  0  0  0
  152.5992  137.2916  155.9578 H   0  0  0  0  0  0  0  0  0  0  0  0
  153.5907  138.2884  154.8970 H   0  0  0  0  0  0  0  0  0  0  0  0
  150.8349  138.9978  156.9642 H   0  0  0  0  0  0  0  0  0  0  0  0
  151.9316  138.5369  158.2339 H   0  0  0  0  0  0  0  0  0  0  0  0
  150.7395  140.5971  158.9134 H   0  0  0  0  0  0  0  0  0  0  0  0
  153.0366  140.2682  159.7099 H   0  0  0  0  0  0  0  0  0  0  0  0
  153.6845  141.0134  158.2693 H   0  0  0  0  0  0  0  0  0  0  0  0
  151.9877  142.3933  160.4012 H   0  0  0  0  0  0  0  0  0  0  0  0
  153.6958  142.6447  160.1111 H   0  0  0  0  0  0  0  0  0  0  0  0
  152.3052  144.4454  159.0495 H   0  0  0  0  0  0  0  0  0  0  0  0
  153.2263  143.5570  157.8558 H   0  0  0  0  0  0  0  0  0  0  0  0
  150.2815  143.1282  158.5488 H   0  0  0  0  0  0  0  0  0  0  0  0
  150.9061  143.8346  157.0695 H   0  0  0  0  0  0  0  0  0  0  0  0
  149.5027  140.5318  153.3819 H   0  0  0  0  0  0  0  0  0  0  0  0
  146.2380  142.4227  158.6014 H   0  0  0  0  0  0  0  0  0  0  0  0
  145.2458  140.7746  155.3295 H   0  0  0  0  0  0  0  0  0  0  0  0
  144.6052  141.2273  156.8795 H   0  0  0  0  0  0  0  0  0  0  0  0
  146.4586  143.5281  154.3788 H   0  0  0  0  0  0  0  0  0  0  0  0
  145.5827  142.2585  153.5577 H   0  0  0  0  0  0  0  0  0  0  0  0
  144.1714  143.7156  152.8152 H   0  0  0  0  0  0  0  0  0  0  0  0
  142.8027  143.5404  154.4551 H   0  0  0  0  0  0  0  0  0  0  0  0
  142.5860  142.0891  155.4790 H   0  0  0  0  0  0  0  0  0  0  0  0
  145.0479  143.9727  157.3401 H   0  0  0  0  0  0  0  0  0  0  0  0
  144.7478  145.0366  155.9333 H   0  0  0  0  0  0  0  0  0  0  0  0
  1  2  1  0  0  0  0
  1 27  1  0  0  0  0
  1 28  1  0  0  0  0
  1 29  1  0  0  0  0
  2  3  1  0  0  0  0
  2 30  1  0  0  0  0
  2 31  1  0  0  0  0
  3  4  1  0  0  0  0
  4  5  1  0  0  0  0
  4 32  1  0  0  0  0
  4 33  1  0  0  0  0
  5 10  1  0  0  0  0
  5  6  1  0  0  0  0
  5 34  1  0  0  0  0
  6  7  1  0  0  0  0
  6 35  1  0  0  0  0
  6 36  1  0  0  0  0
  7  8  1  0  0  0  0
  7 37  1  0  0  0  0
  7 38  1  0  0  0  0
  8  9  1  0  0  0  0
  8 39  1  0  0  0  0
  8 40  1  0  0  0  0
  9 10  1  0  0  0  0
  9 41  1  0  0  0  0
  9 42  1  0  0  0  0
 10 11  1  0  0  0  0
 11 16  1  0  0  0  0
 11 12  2  0  0  0  0
 12 13  1  0  0  0  0
 13 14  2  0  0  0  0
 13 43  1  0  0  0  0
 14 15  1  0  0  0  0
 15 19  1  0  0  0  0
 15 16  2  0  0  0  0
 16 17  1  0  0  0  0
 17 18  2  0  0  0  0
 18 19  1  0  0  0  0
 18 44  1  0  0  0  0
 19 20  1  0  0  0  0
 20 21  1  0  0  0  0
 20 45  1  0  0  0  0
 20 46  1  0  0  0  0
 21 26  1  0  0  0  0
 21 22  1  0  0  0  0
 21 24  1  0  0  0  0
 22 23  1  0  0  0  0
 22 47  1  0  0  0  0
 22 48  1  0  0  0  0
 23 49  1  0  0  0  0
 24 25  1  0  0  0  0
 24 50  1  0  0  0  0
 24 51  1  0  0  0  0
 25 26  1  0  0  0  0
 26 52  1  0  0  0  0
 26 53  1  0  0  0  0
M  END
> <s_m_source_file>
AV-unprocessed.smi

> <i_m_source_file_index>
237

> <i_lp_mmshare_version>
43012

> <i_f3d_flags>
0

> <s_epik_input>
W0NIM11bQ0gyXU9bQ0gyXVtDQEBIXTFbQ0gyXVtDSDJdW0NIMl1bQ0gyXU4xYyhuW2NIXW4yKWMoYzIzKW5bY0hdbjNbQ0gyXUM0KFtDSDJdW09IXSlbQ0gyXU9bQ0gyXTQ=

> <s_epik_cmdline>
J2VwaWtfcHl0aG9uJywgJy1waCcsICc3LjAnLCAnLXRuJywgJzgnLCAnLW1hJywgJzIwMCcsICctbWV0YWxfYmluZGluZycsICctaW1hZScsICc8aW5maWxlLm1hZT4nLCAnLW9tYWUnLCAnPG91dGZpbGUubWFlPic=

> <r_lp_tautomer_probability>
1

> <r_epik_Ionization_Penalty>
0.00358373

> <r_epik_Ionization_Penalty_Charging>
0

> <r_epik_Ionization_Penalty_Neutral>
0.00358373

> <r_epik_State_Penalty>
0.00240903

> <r_epik_Charging_Adjusted_Penalty>
0.00240903

> <i_epik_Tot_Q>
0

> <i_epik_Tot_abs_Q>
0

> <r_epik_Metal_State_Penalty>
-0

> <b_epik_Metal_Only>
0

> <s_lp_Force_Field>
OPLS_2005

> <r_lp_Energy>
39.3208

> <b_lp_Chiralities_Consistent>
1

> <s_lp_Variant>
AV-unprocessed.smi:237-2

> <Gold.Version>
5.8.1

> <Gold.Id.Protein>
6NUR|6NUR_protein|mol2

> <Gold.PLP.Fitness>
49.6096

> <Gold.PLP.PLP>
-41.6101

> <Gold.PLP.part.hbond>
-3.0000

> <Gold.PLP.part.metal>
0.0000

> <Gold.PLP.part.buried>
-7.4362

> <Gold.PLP.part.nonpolar>
-33.2588

> <Gold.PLP.part.repulsive>
0.4010

> <Gold.PLP.ligand.clash>
0.0000

> <Gold.PLP.ligand.torsion>
1.2494

> <Gold.PLP.Chemscore.Hbond>
2.2910

> <Gold.PLP.Chemscore.CHOScore>
1.0000

> <Gold.PLP.Chemscore.Metal>
0.0000

> <Gold.Chemscore.Hbonds>
donor molecule, donor type, donor heavy atom, donor atom, acceptor molecule, acceptor atom, score
      L1  H    23    49       P1 10174  0.99
      P1  H  7989  7998       L1    12  0.26
      P1  H  7997  8009       L1     3  1.00
      L1  C    13    43       P1  7957  1.00

> <Gold.PLP.Chemscore.Internal.Correction>
0.6253

> <Gold.Rescore>
     Score         DG    S(hbond)    S(metal)    S(lipo)     H(rot)  DE(clash)    DE(int)     intcor
     12.64     -14.68       2.09        0.00      85.88       3.06       0.18       1.86       ----

> <Gold.Chemscore.Fitness>
12.6353

> <Gold.Chemscore.DG>
-14.6786

> <Gold.Chemscore.ZeroCoef>
-5.4800

> <Gold.Chemscore.Hbond>
2.0927

> <Gold.Chemscore.Metal>
0.0000

> <Gold.Chemscore.Lipo>
85.8793

> <Gold.Chemscore.Internal_Hbond>
0.0000

> <Gold.Chemscore.DEClash>
0.1812

> <Gold.Chemscore.DEInternal>
1.8621

> <Gold.Chemscore.Rot>
3.0620

> <Gold.Chemscore.Internal.Correction>
   9.000000E+99

> <Gold.Chemscore.Hbonds>
donor molecule, donor type, donor heavy atom, donor atom, acceptor molecule, acceptor atom, score
      L1  H    23    49       P1 10174  0.24
      P1  H  7989  7998       L1    12  0.01
      P1  H  7997  8009       L1     3  0.85

> <Gold.Chemscore.Hbond.Weighted>
-6.9895

> <Gold.Chemscore.Metal.Weighted>
-0.0000

> <Gold.Chemscore.Lipo.Weighted>
-10.0479

> <Gold.Chemscore.Internal_Hbond.Weighted>
0.0000

> <Gold.Chemscore.DEClash.Weighted>
0.1812

> <Gold.Chemscore.DEInternal.Weighted>
1.8621

> <Gold.Chemscore.Rot.Weighted>
7.8388

> <Gold.Chemscore.Internal.Correction.Weighted>
   9.000000E+99

> <Gold.Protein.RotatedTorsions>
[ 6907 6896 6895 6894 ] final  -19.39 input  -60.11 | X-H torsion
[ 7974 7965 7964 7962 ] final  119.07 input  175.53 | X-H torsion
[ 8008 7997 7996 7995 ] final -174.91 input   59.86 | X-H torsion
[ 10167 10162 10161 10158 ] final  -54.30 input  -65.29 | X-H torsion
[ 10718 10713 10712 10709 ] final -171.97 input   66.30 | X-H torsion
[ 10763 10752 10751 10750 ] final  164.28 input  -60.55 | X-H torsion
[ 11005 11000 10999 10996 ] final   56.68 input  -57.11 | X-H torsion

> <Gold.Protein.ActiveResidues>
 VAL166  LYS551  ARG553  GLY616  TRP617  ASP618  TYR619  PRO620  LYS621  CYS622 
 ASP623  PHE694  ASN695  SER759  ASP760  ASP761  ALA762  ILE779  LEU786  VAL792 
 PHE793  MET794  SER795  GLU796  ALA797  LYS798  CYS799  TRP800  GLU811  SER814 

> <Gold.Protein.RotatedAtoms>
  151.2639  135.0663  159.9108 H   0  0  0  0  0  0  0  0  0  0  0  0  # atno 6907 bound_to 6896
  152.5361  134.0202  159.7988 H   0  0  0  0  0  0  0  0  0  0  0  0  # atno 6908 bound_to 6896
  151.0429  133.5640  159.2680 H   0  0  0  0  0  0  0  0  0  0  0  0  # atno 6909 bound_to 6896
  145.1475  139.3230  143.4584 H   0  0  0  0  0  0  0  0  0  0  0  0  # atno 7974 bound_to 7965
  155.9760  140.1172  157.0770 H   0  0  0  0  0  0  0  0  0  0  0  0  # atno 8008 bound_to 7997
  154.4169  140.1154  156.5438 H   0  0  0  0  0  0  0  0  0  0  0  0  # atno 8009 bound_to 7997
  155.6534  140.3473  155.4758 H   0  0  0  0  0  0  0  0  0  0  0  0  # atno 8010 bound_to 7997
  140.6438  143.2523  151.4916 H   0  0  0  0  0  0  0  0  0  0  0  0  # atno 10167 bound_to 10162
  156.7487  130.9370  151.3113 H   0  0  0  0  0  0  0  0  0  0  0  0  # atno 10718 bound_to 10713
  154.3065  135.2758  155.2586 H   0  0  0  0  0  0  0  0  0  0  0  0  # atno 10763 bound_to 10752
  154.5000  135.5810  153.6527 H   0  0  0  0  0  0  0  0  0  0  0  0  # atno 10764 bound_to 10752
  152.9893  135.6155  154.3239 H   0  0  0  0  0  0  0  0  0  0  0  0  # atno 10765 bound_to 10752
  140.0511  134.5736  155.9263 H   0  0  0  0  0  0  0  0  0  0  0  0  # atno 11005 bound_to 11000
  146.3498  140.1536  142.8592 LP  0  0  0  0  0  0  0  0  0  0  0  0  # atno 17320 bound_to 7965
  145.0466  140.8986  143.5020 LP  0  0  0  0  0  0  0  0  0  0  0  0  # atno 17321 bound_to 7965
  139.5648  144.2069  152.1747 LP  0  0  0  0  0  0  0  0  0  0  0  0  # atno 17342 bound_to 10162
  140.1348  144.5256  150.6780 LP  0  0  0  0  0  0  0  0  0  0  0  0  # atno 17343 bound_to 10162
  157.6787  130.9119  150.0212 LP  0  0  0  0  0  0  0  0  0  0  0  0  # atno 17370 bound_to 10713
  156.1416  130.3642  149.9574 LP  0  0  0  0  0  0  0  0  0  0  0  0  # atno 17371 bound_to 10713
  141.1930  133.6577  156.5530 LP  0  0  0  0  0  0  0  0  0  0  0  0  # atno 17394 bound_to 11000
  140.3917  134.7435  157.4725 LP  0  0  0  0  0  0  0  0  0  0  0  0  # atno 17395 bound_to 11000

$$$$
