AV-unprocessed.smi:811|AV-procd|sdf|3813|dock2
  -GOLD-   22720 1253D 1   1.00000     0.00000
 Structure written by MMmdl.
 46 48  0  0  0  0  0  0  0  0  2 V2000
  148.9650  130.0026  154.0813 C   0  0  0  0  0  0  0  0  0  0  0  0
  148.5983  131.1792  153.2634 N   0  3  1  0  0  0  0  0  0  0  0  0
  147.1999  131.6374  153.4640 C   0  0  0  0  0  0  0  0  0  0  0  0
  147.2581  133.1579  153.6549 C   0  0  0  0  0  0  0  0  0  0  0  0
  148.6478  133.3625  154.2440 C   0  0  2  0  0  0  0  0  0  0  0  0
  149.1554  134.7237  154.0960 N   0  0  0  0  0  0  0  0  0  0  0  0
  149.7033  135.4619  155.0722 C   0  0  0  0  0  0  0  0  0  0  0  0
  149.8582  135.0585  156.2243 O   0  0  0  0  0  0  0  0  0  0  0  0
  150.0331  136.6859  154.6255 N   0  0  0  0  0  0  0  0  0  0  0  0
  150.6162  137.7649  155.3440 C   0  0  0  0  0  0  0  0  0  0  0  0
  150.8794  139.0425  154.7945 C   0  0  0  0  0  0  0  0  0  0  0  0
  151.4475  140.0336  155.6175 C   0  0  0  0  0  0  0  0  0  0  0  0
  151.7283  139.7226  156.9634 C   0  0  0  0  0  0  0  0  0  0  0  0
  152.2960  140.7066  157.7849 N   0  0  0  0  0  0  0  0  0  0  0  0
  152.7023  140.2067  159.0925 C   0  0  0  0  0  0  0  0  0  0  0  0
  153.4261  141.3148  159.8766 C   0  0  0  0  0  0  0  0  0  0  0  0
  152.5852  142.4615  159.9714 O   0  0  0  0  0  0  0  0  0  0  0  0
  152.2503  142.9872  158.6901 C   0  0  0  0  0  0  0  0  0  0  0  0
  151.4961  141.9218  157.8760 C   0  0  0  0  0  0  0  0  0  0  0  0
  151.4676  138.5070  157.4998 N   0  0  0  0  0  0  0  0  0  0  0  0
  150.9221  137.5620  156.7058 C   0  0  0  0  0  0  0  0  0  0  0  0
  149.4834  132.3485  153.4634 C   0  0  0  0  0  0  0  0  0  0  0  0
  148.9125  130.2331  155.1463 H   0  0  0  0  0  0  0  0  0  0  0  0
  149.9799  129.6775  153.8507 H   0  0  0  0  0  0  0  0  0  0  0  0
  148.2915  129.1698  153.8765 H   0  0  0  0  0  0  0  0  0  0  0  0
  146.5689  131.3553  152.6209 H   0  0  0  0  0  0  0  0  0  0  0  0
  146.7760  131.1780  154.3587 H   0  0  0  0  0  0  0  0  0  0  0  0
  147.1771  133.6582  152.6884 H   0  0  0  0  0  0  0  0  0  0  0  0
  146.4634  133.5349  154.2994 H   0  0  0  0  0  0  0  0  0  0  0  0
  148.6255  133.0590  155.2928 H   0  0  0  0  0  0  0  0  0  0  0  0
  149.0681  135.1437  153.1820 H   0  0  0  0  0  0  0  0  0  0  0  0
  149.7762  136.8942  153.6718 H   0  0  0  0  0  0  0  0  0  0  0  0
  150.6471  139.2881  153.7702 H   0  0  0  0  0  0  0  0  0  0  0  0
  151.6587  141.0160  155.2210 H   0  0  0  0  0  0  0  0  0  0  0  0
  151.8259  139.8724  159.6495 H   0  0  0  0  0  0  0  0  0  0  0  0
  153.3577  139.3434  158.9712 H   0  0  0  0  0  0  0  0  0  0  0  0
  153.6689  140.9671  160.8807 H   0  0  0  0  0  0  0  0  0  0  0  0
  154.3682  141.5808  159.3943 H   0  0  0  0  0  0  0  0  0  0  0  0
  151.6267  143.8717  158.8199 H   0  0  0  0  0  0  0  0  0  0  0  0
  153.1540  143.3072  158.1692 H   0  0  0  0  0  0  0  0  0  0  0  0
  151.2795  142.2979  156.8752 H   0  0  0  0  0  0  0  0  0  0  0  0
  150.5399  141.7015  158.3531 H   0  0  0  0  0  0  0  0  0  0  0  0
  150.7287  136.6084  157.1754 H   0  0  0  0  0  0  0  0  0  0  0  0
  150.4159  132.0979  153.9714 H   0  0  0  0  0  0  0  0  0  0  0  0
  149.7424  132.7452  152.4803 H   0  0  0  0  0  0  0  0  0  0  0  0
  148.6936  130.9037  152.2962 H   0  0  0  0  0  0  0  0  0  0  0  0
  1  2  1  0  0  0  0
  1 23  1  0  0  0  0
  1 24  1  0  0  0  0
  1 25  1  0  0  0  0
  2 22  1  0  0  0  0
  2  3  1  0  0  0  0
  2 46  1  0  0  0  0
  3  4  1  0  0  0  0
  3 26  1  0  0  0  0
  3 27  1  0  0  0  0
  4  5  1  0  0  0  0
  4 28  1  0  0  0  0
  4 29  1  0  0  0  0
  5  6  1  0  0  0  0
  5 22  1  0  0  0  0
  5 30  1  0  0  0  0
  6  7  1  0  0  0  0
  6 31  1  0  0  0  0
  7  8  2  0  0  0  0
  7  9  1  0  0  0  0
  9 10  1  0  0  0  0
  9 32  1  0  0  0  0
 10 21  1  0  0  0  0
 10 11  2  0  0  0  0
 11 12  1  0  0  0  0
 11 33  1  0  0  0  0
 12 13  2  0  0  0  0
 12 34  1  0  0  0  0
 13 14  1  0  0  0  0
 13 20  1  0  0  0  0
 14 19  1  0  0  0  0
 14 15  1  0  0  0  0
 15 16  1  0  0  0  0
 15 35  1  0  0  0  0
 15 36  1  0  0  0  0
 16 17  1  0  0  0  0
 16 37  1  0  0  0  0
 16 38  1  0  0  0  0
 17 18  1  0  0  0  0
 18 19  1  0  0  0  0
 18 39  1  0  0  0  0
 18 40  1  0  0  0  0
 19 41  1  0  0  0  0
 19 42  1  0  0  0  0
 20 21  2  0  0  0  0
 21 43  1  0  0  0  0
 22 44  1  0  0  0  0
 22 45  1  0  0  0  0
M  CHG  1   2   1
M  END
> <s_m_source_file>
AV-unprocessed.smi

> <i_m_source_file_index>
811

> <i_lp_mmshare_version>
43012

> <i_f3d_flags>
0

> <s_epik_input>
W0NIM11OMVtDSDJdW0NIMl1bQ0BIXShbQ0gyXTEpW05IXUMoPU8pW05IXWMyW2NIXVtjSF1jKG5bY0hdMilOM1tDSDJdW0NIMl1PW0NIMl1bQ0gyXTM=

> <s_epik_cmdline>
J2VwaWtfcHl0aG9uJywgJy1waCcsICc3LjAnLCAnLXRuJywgJzgnLCAnLW1hJywgJzIwMCcsICctbWV0YWxfYmluZGluZycsICctaW1hZScsICc8aW5maWxlLm1hZT4nLCAnLW9tYWUnLCAnPG91dGZpbGUubWFlPic=

> <r_lp_tautomer_probability>
1

> <r_epik_Ionization_Penalty>
0.00503422

> <r_epik_Ionization_Penalty_Charging>
0.00366104

> <r_epik_Ionization_Penalty_Neutral>
0.00137318

> <r_epik_State_Penalty>
-0

> <r_epik_Charging_Adjusted_Penalty>
0.00366104

> <i_epik_Tot_Q>
1

> <i_epik_Tot_abs_Q>
1

> <r_epik_Metal_State_Penalty>
-0

> <b_epik_Metal_Only>
0

> <s_lp_Force_Field>
OPLS_2005

> <r_lp_Energy>
46.7377

> <b_lp_Chiralities_Consistent>
1

> <s_lp_Variant>
AV-unprocessed.smi:811-3

> <Gold.Version>
5.8.1

> <Gold.Id.Protein>
6NUR|6NUR_protein|mol2

> <Gold.PLP.Fitness>
41.8191

> <Gold.PLP.PLP>
-33.1747

> <Gold.PLP.part.hbond>
-3.1688

> <Gold.PLP.part.metal>
0.0000

> <Gold.PLP.part.buried>
-4.8814

> <Gold.PLP.part.nonpolar>
-25.1605

> <Gold.PLP.part.repulsive>
0.0703

> <Gold.PLP.ligand.clash>
0.0000

> <Gold.PLP.ligand.torsion>
0.1517

> <Gold.PLP.Chemscore.Hbond>
2.9440

> <Gold.PLP.Chemscore.CHOScore>
0.0000

> <Gold.PLP.Chemscore.Metal>
0.0000

> <Gold.Chemscore.Hbonds>
donor molecule, donor type, donor heavy atom, donor atom, acceptor molecule, acceptor atom, score
      L1  H     2    46       P1 10747  1.00
      L1  H     6    31       P1  7948  0.95
      L1  H     9    32       P1  7948  0.90

> <Gold.PLP.Chemscore.Internal.Correction>
0.1158

> <Gold.Rescore>
     Score         DG    S(hbond)    S(metal)    S(lipo)     H(rot)  DE(clash)    DE(int)     intcor
     18.73     -20.34       2.60        0.00      79.81       1.23       0.06       1.55       ----

> <Gold.Chemscore.Fitness>
18.7308

> <Gold.Chemscore.DG>
-20.3402

> <Gold.Chemscore.ZeroCoef>
-5.4800

> <Gold.Chemscore.Hbond>
2.5959

> <Gold.Chemscore.Metal>
0.0000

> <Gold.Chemscore.Lipo>
79.8070

> <Gold.Chemscore.Internal_Hbond>
0.0000

> <Gold.Chemscore.DEClash>
0.0576

> <Gold.Chemscore.DEInternal>
1.5517

> <Gold.Chemscore.Rot>
1.2295

> <Gold.Chemscore.Internal.Correction>
   9.000000E+99

> <Gold.Chemscore.Hbonds>
donor molecule, donor type, donor heavy atom, donor atom, acceptor molecule, acceptor atom, score
      L1  H     2    46       P1 10747  0.74
      L1  H     6    31       P1  7948  0.22
      L1  H     9    32       P1  7948  0.50

> <Gold.Chemscore.Hbond.Weighted>
-8.6701

> <Gold.Chemscore.Metal.Weighted>
-0.0000

> <Gold.Chemscore.Lipo.Weighted>
-9.3374

> <Gold.Chemscore.Internal_Hbond.Weighted>
0.0000

> <Gold.Chemscore.DEClash.Weighted>
0.0576

> <Gold.Chemscore.DEInternal.Weighted>
1.5517

> <Gold.Chemscore.Rot.Weighted>
3.1474

> <Gold.Chemscore.Internal.Correction.Weighted>
   9.000000E+99

> <Gold.Protein.RotatedTorsions>
[ 6907 6896 6895 6894 ] final  100.82 input  -60.11 | X-H torsion
[ 7974 7965 7964 7962 ] final  -54.86 input  175.53 | X-H torsion
[ 8008 7997 7996 7995 ] final  -79.52 input   59.86 | X-H torsion
[ 10167 10162 10161 10158 ] final   24.27 input  -65.29 | X-H torsion
[ 10718 10713 10712 10709 ] final  -64.06 input   66.30 | X-H torsion
[ 10763 10752 10751 10750 ] final   19.85 input  -60.55 | X-H torsion
[ 11005 11000 10999 10996 ] final -120.48 input  -57.11 | X-H torsion

> <Gold.Protein.ActiveResidues>
 VAL166  LYS551  ARG553  GLY616  TRP617  ASP618  TYR619  PRO620  LYS621  CYS622 
 ASP623  PHE694  ASN695  SER759  ASP760  ASP761  ALA762  ILE779  LEU786  VAL792 
 PHE793  MET794  SER795  GLU796  ALA797  LYS798  CYS799  TRP800  GLU811  SER814 

> <Gold.Protein.RotatedAtoms>
  152.5363  134.0219  159.7985 H   0  0  0  0  0  0  0  0  0  0  0  0  # atno 6907 bound_to 6896
  151.0404  133.5704  159.2659 H   0  0  0  0  0  0  0  0  0  0  0  0  # atno 6908 bound_to 6896
  151.2675  135.0681  159.9175 H   0  0  0  0  0  0  0  0  0  0  0  0  # atno 6909 bound_to 6896
  145.8808  140.8146  142.9841 H   0  0  0  0  0  0  0  0  0  0  0  0  # atno 7974 bound_to 7965
  154.5793  140.0677  156.9081 H   0  0  0  0  0  0  0  0  0  0  0  0  # atno 8008 bound_to 7997
  155.2491  140.3350  155.4266 H   0  0  0  0  0  0  0  0  0  0  0  0  # atno 8009 bound_to 7997
  156.2177  140.1785  156.7534 H   0  0  0  0  0  0  0  0  0  0  0  0  # atno 8010 bound_to 7997
  140.5202  144.0015  150.6413 H   0  0  0  0  0  0  0  0  0  0  0  0  # atno 10167 bound_to 10162
  156.0752  130.4228  150.1367 H   0  0  0  0  0  0  0  0  0  0  0  0  # atno 10718 bound_to 10713
  153.1127  135.6700  153.9472 H   0  0  0  0  0  0  0  0  0  0  0  0  # atno 10763 bound_to 10752
  153.9010  135.3036  155.3450 H   0  0  0  0  0  0  0  0  0  0  0  0  # atno 10764 bound_to 10752
  154.7546  135.5018  153.9428 H   0  0  0  0  0  0  0  0  0  0  0  0  # atno 10765 bound_to 10752
  141.0140  134.0223  157.3375 H   0  0  0  0  0  0  0  0  0  0  0  0  # atno 11005 bound_to 11000
  144.6727  140.1381  143.7439 LP  0  0  0  0  0  0  0  0  0  0  0  0  # atno 17320 bound_to 7965
  145.9025  139.2439  143.1485 LP  0  0  0  0  0  0  0  0  0  0  0  0  # atno 17321 bound_to 7965
  140.3362  143.3047  152.0636 LP  0  0  0  0  0  0  0  0  0  0  0  0  # atno 17342 bound_to 10162
  139.4921  144.6475  151.6748 LP  0  0  0  0  0  0  0  0  0  0  0  0  # atno 17343 bound_to 10162
  156.9409  130.9744  151.3516 LP  0  0  0  0  0  0  0  0  0  0  0  0  # atno 17370 bound_to 10713
  157.5843  130.8399  149.8568 LP  0  0  0  0  0  0  0  0  0  0  0  0  # atno 17371 bound_to 10713
  139.9106  135.0189  156.7675 LP  0  0  0  0  0  0  0  0  0  0  0  0  # atno 17394 bound_to 11000
  140.6686  133.9580  155.7844 LP  0  0  0  0  0  0  0  0  0  0  0  0  # atno 17395 bound_to 11000

$$$$
