AV-unprocessed.smi:1007|AV-procd|sdf|4403|dock7
  -GOLD-   22720 2343D 1   1.00000     0.00000
 Structure written by MMmdl.
 57 59  0  0  0  0  0  0  0  0  3 V2000
  150.3342  142.0390  158.1697 C   0  0  0  0  0  0  0  0  0  0  0  0
  151.3129  141.9103  157.1503 O   0  0  0  0  0  0  0  0  0  0  0  0
  150.7806  141.5734  155.8774 C   0  0  0  0  0  0  0  0  0  0  0  0
  150.6652  140.0471  155.7039 C   0  0  0  0  0  0  0  0  0  0  0  0
  150.4602  139.5993  154.3230 N   0  0  0  0  0  0  0  0  0  0  0  0
  150.6448  138.1577  154.1600 C   0  0  0  0  0  0  0  0  0  0  0  0
  149.5037  137.3217  154.7764 C   0  0  0  0  0  0  0  0  0  0  0  0
  148.1931  137.7250  154.2034 N   0  3  0  0  0  0  0  0  0  0  0  0
  147.0730  136.8963  154.7201 C   0  0  0  0  0  0  0  0  0  0  0  0
  145.8434  136.8979  153.7898 C   0  0  1  0  0  0  0  0  0  0  0  0
  145.2081  138.1601  153.8637 O   0  0  0  0  0  0  0  0  0  0  0  0
  146.2289  136.6131  152.3245 C   0  0  0  0  0  0  0  0  0  0  0  0
  145.3727  135.5952  151.7011 N   0  0  0  0  0  0  0  0  0  0  0  0
  144.2453  135.7353  150.9514 C   0  0  0  0  0  0  0  0  0  0  0  0
  143.8167  134.4864  150.6172 N   0  3  0  0  0  0  0  0  0  0  0  0
  144.6848  133.5352  151.1581 C   0  0  0  0  0  0  0  0  0  0  0  0
  144.6690  132.1469  151.0963 C   0  0  0  0  0  0  0  0  0  0  0  0
  145.7105  131.4596  151.7598 C   0  0  0  0  0  0  0  0  0  0  0  0
  145.7214  129.9409  151.7144 C   0  0  0  0  0  0  0  0  0  0  0  0
  146.7252  132.1671  152.4556 C   0  0  0  0  0  0  0  0  0  0  0  0
  147.8418  131.4177  153.1628 C   0  0  0  0  0  0  0  0  0  0  0  0
  146.7221  133.5793  152.5090 C   0  0  0  0  0  0  0  0  0  0  0  0
  145.6878  134.2403  151.8510 C   0  0  0  0  0  0  0  0  0  0  0  0
  147.9815  139.1893  154.3616 C   0  0  0  0  0  0  0  0  0  0  0  0
  149.1636  139.9692  153.7511 C   0  0  0  0  0  0  0  0  0  0  0  0
  150.8176  142.3309  159.1020 H   0  0  0  0  0  0  0  0  0  0  0  0
  149.8086  141.1016  158.3496 H   0  0  0  0  0  0  0  0  0  0  0  0
  149.6027  142.8084  157.9193 H   0  0  0  0  0  0  0  0  0  0  0  0
  149.8258  142.0769  155.7237 H   0  0  0  0  0  0  0  0  0  0  0  0
  151.4648  141.9667  155.1250 H   0  0  0  0  0  0  0  0  0  0  0  0
  151.5926  139.6088  156.0747 H   0  0  0  0  0  0  0  0  0  0  0  0
  149.8781  139.6598  156.3485 H   0  0  0  0  0  0  0  0  0  0  0  0
  150.7143  137.9278  153.0958 H   0  0  0  0  0  0  0  0  0  0  0  0
  151.6002  137.8554  154.5902 H   0  0  0  0  0  0  0  0  0  0  0  0
  149.6826  136.2664  154.5675 H   0  0  0  0  0  0  0  0  0  0  0  0
  149.4846  137.4274  155.8619 H   0  0  0  0  0  0  0  0  0  0  0  0
  147.4104  135.8664  154.8471 H   0  0  0  0  0  0  0  0  0  0  0  0
  146.7978  137.2506  155.7149 H   0  0  0  0  0  0  0  0  0  0  0  0
  145.1280  136.1418  154.1097 H   0  0  0  0  0  0  0  0  0  0  0  0
  145.5439  138.6261  154.6147 H   0  0  0  0  0  0  0  0  0  0  0  0
  146.1510  137.5212  151.7249 H   0  0  0  0  0  0  0  0  0  0  0  0
  147.2653  136.2813  152.2495 H   0  0  0  0  0  0  0  0  0  0  0  0
  143.7718  136.6666  150.6757 H   0  0  0  0  0  0  0  0  0  0  0  0
  143.8938  131.6146  150.5645 H   0  0  0  0  0  0  0  0  0  0  0  0
  145.6490  129.5280  152.7207 H   0  0  0  0  0  0  0  0  0  0  0  0
  146.6407  129.5772  151.2551 H   0  0  0  0  0  0  0  0  0  0  0  0
  144.8838  129.5528  151.1340 H   0  0  0  0  0  0  0  0  0  0  0  0
  148.5473  132.1032  153.6336 H   0  0  0  0  0  0  0  0  0  0  0  0
  148.3989  130.8022  152.4559 H   0  0  0  0  0  0  0  0  0  0  0  0
  147.4358  130.7711  153.9411 H   0  0  0  0  0  0  0  0  0  0  0  0
  147.4935  134.1173  153.0392 H   0  0  0  0  0  0  0  0  0  0  0  0
  147.0678  139.4975  153.8557 H   0  0  0  0  0  0  0  0  0  0  0  0
  147.8523  139.4386  155.4155 H   0  0  0  0  0  0  0  0  0  0  0  0
  148.9938  141.0408  153.8489 H   0  0  0  0  0  0  0  0  0  0  0  0
  149.1870  139.7797  152.6771 H   0  0  0  0  0  0  0  0  0  0  0  0
  148.2524  137.5424  153.2114 H   0  0  0  0  0  0  0  0  0  0  0  0
  142.9917  134.2999  150.0614 H   0  0  0  0  0  0  0  0  0  0  0  0
  1  2  1  0  0  0  0
  1 26  1  0  0  0  0
  1 27  1  0  0  0  0
  1 28  1  0  0  0  0
  2  3  1  0  0  0  0
  3  4  1  0  0  0  0
  3 29  1  0  0  0  0
  3 30  1  0  0  0  0
  4  5  1  0  0  0  0
  4 31  1  0  0  0  0
  4 32  1  0  0  0  0
  5 25  1  0  0  0  0
  5  6  1  0  0  0  0
  6  7  1  0  0  0  0
  6 33  1  0  0  0  0
  6 34  1  0  0  0  0
  7  8  1  0  0  0  0
  7 35  1  0  0  0  0
  7 36  1  0  0  0  0
  8  9  1  0  0  0  0
  8 24  1  0  0  0  0
  8 56  1  0  0  0  0
  9 10  1  0  0  0  0
  9 37  1  0  0  0  0
  9 38  1  0  0  0  0
 10 11  1  0  0  0  0
 10 12  1  0  0  0  0
 10 39  1  0  0  0  0
 11 40  1  0  0  0  0
 12 13  1  0  0  0  0
 12 41  1  0  0  0  0
 12 42  1  0  0  0  0
 13 23  1  0  0  0  0
 13 14  1  0  0  0  0
 14 15  2  0  0  0  0
 14 43  1  0  0  0  0
 15 16  1  0  0  0  0
 15 57  1  0  0  0  0
 16 23  2  0  0  0  0
 16 17  1  0  0  0  0
 17 18  2  0  0  0  0
 17 44  1  0  0  0  0
 18 19  1  0  0  0  0
 18 20  1  0  0  0  0
 19 45  1  0  0  0  0
 19 46  1  0  0  0  0
 19 47  1  0  0  0  0
 20 21  1  0  0  0  0
 20 22  2  0  0  0  0
 21 48  1  0  0  0  0
 21 49  1  0  0  0  0
 21 50  1  0  0  0  0
 22 23  1  0  0  0  0
 22 51  1  0  0  0  0
 24 25  1  0  0  0  0
 24 52  1  0  0  0  0
 24 53  1  0  0  0  0
 25 54  1  0  0  0  0
 25 55  1  0  0  0  0
M  CHG  1   8   1
M  CHG  1  15   1
M  END
> <s_m_source_file>
AV-unprocessed.smi

> <i_m_source_file_index>
1007

> <i_lp_mmshare_version>
43012

> <i_f3d_flags>
0

> <s_epik_input>
W0NIM11PW0NIMl1bQ0gyXU4xW0NIMl1bQ0gyXU4oW0NIMl1bQ0gyXTEpW0NIMl1bQ0BIXShbT0hdKVtDSDJdbihbY0hdbjIpYyhjMjMpW2NIXWMoW0NIM10pYyhbY0hdMylbQ0gzXQ==

> <s_epik_cmdline>
J2VwaWtfcHl0aG9uJywgJy1waCcsICc3LjAnLCAnLXRuJywgJzgnLCAnLW1hJywgJzIwMCcsICctbWV0YWxfYmluZGluZycsICctaW1hZScsICc8aW5maWxlLm1hZT4nLCAnLW9tYWUnLCAnPG91dGZpbGUubWFlPic=

> <r_epik_Ionization_Penalty>
1.19231

> <r_epik_Ionization_Penalty_Charging>
1.17974

> <r_epik_Ionization_Penalty_Neutral>
0.0125676

> <r_epik_State_Penalty>
1.24499

> <r_epik_Charging_Adjusted_Penalty>
2.42472

> <i_epik_Tot_Q>
2

> <i_epik_Tot_abs_Q>
2

> <r_epik_Metal_State_Penalty>
5.24866

> <b_epik_Metal_Only>
0

> <s_lp_Force_Field>
OPLS_2005

> <r_lp_Energy>
41.9182

> <b_lp_Chiralities_Consistent>
1

> <s_lp_Variant>
AV-unprocessed.smi:1007-6

> <Gold.Version>
5.8.1

> <Gold.Id.Protein>
6NUR|6NUR_protein|mol2

> <Gold.PLP.Fitness>
50.7726

> <Gold.PLP.PLP>
-36.5639

> <Gold.PLP.part.hbond>
-4.0000

> <Gold.PLP.part.metal>
0.0000

> <Gold.PLP.part.buried>
0.9720

> <Gold.PLP.part.nonpolar>
-33.8909

> <Gold.PLP.part.repulsive>
0.2067

> <Gold.PLP.ligand.clash>
0.0079

> <Gold.PLP.ligand.torsion>
1.5462

> <Gold.PLP.Chemscore.Hbond>
4.7100

> <Gold.PLP.Chemscore.CHOScore>
1.0000

> <Gold.PLP.Chemscore.Metal>
0.0000

> <Gold.Chemscore.Hbonds>
donor molecule, donor type, donor heavy atom, donor atom, acceptor molecule, acceptor atom, score
      L1  H     8    56       P1  7948  1.73
      L1  H    15    57       P1 10186  1.92
      P1  H  7989  7998       L1     5  0.85
      L1  C    14    43       P1 10171  1.00

> <Gold.PLP.Chemscore.Internal.Correction>
0.1791

> <Gold.Rescore>
     Score         DG    S(hbond)    S(metal)    S(lipo)     H(rot)  DE(clash)    DE(int)     intcor
     12.23     -17.33       1.90        0.00     104.95       2.64       2.36       2.74       ----

> <Gold.Chemscore.Fitness>
12.2307

> <Gold.Chemscore.DG>
-17.3309

> <Gold.Chemscore.ZeroCoef>
-5.4800

> <Gold.Chemscore.Hbond>
1.8975

> <Gold.Chemscore.Metal>
0.0000

> <Gold.Chemscore.Lipo>
104.9541

> <Gold.Chemscore.Internal_Hbond>
0.0000

> <Gold.Chemscore.DEClash>
2.3566

> <Gold.Chemscore.DEInternal>
2.7437

> <Gold.Chemscore.Rot>
2.6432

> <Gold.Chemscore.Internal.Correction>
   9.000000E+99

> <Gold.Chemscore.Hbonds>
donor molecule, donor type, donor heavy atom, donor atom, acceptor molecule, acceptor atom, score
      L1  H     8    56       P1  7948  0.82
      L1  H    15    57       P1 10186  0.85
      P1  H  7989  7998       L1     5  0.04

> <Gold.Chemscore.Hbond.Weighted>
-6.3378

> <Gold.Chemscore.Metal.Weighted>
-0.0000

> <Gold.Chemscore.Lipo.Weighted>
-12.2796

> <Gold.Chemscore.Internal_Hbond.Weighted>
0.0000

> <Gold.Chemscore.DEClash.Weighted>
2.3566

> <Gold.Chemscore.DEInternal.Weighted>
2.7437

> <Gold.Chemscore.Rot.Weighted>
6.7665

> <Gold.Chemscore.Internal.Correction.Weighted>
   9.000000E+99

> <Gold.Protein.RotatedTorsions>
[ 6907 6896 6895 6894 ] final  128.12 input  -60.11 | X-H torsion
[ 7974 7965 7964 7962 ] final  -80.40 input  175.53 | X-H torsion
[ 8008 7997 7996 7995 ] final   76.32 input   59.86 | X-H torsion
[ 10167 10162 10161 10158 ] final  -94.58 input  -65.29 | X-H torsion
[ 10718 10713 10712 10709 ] final   25.89 input   66.30 | X-H torsion
[ 10763 10752 10751 10750 ] final  -25.03 input  -60.55 | X-H torsion
[ 11005 11000 10999 10996 ] final   98.30 input  -57.11 | X-H torsion

> <Gold.Protein.ActiveResidues>
 VAL166  LYS551  ARG553  GLY616  TRP617  ASP618  TYR619  PRO620  LYS621  CYS622 
 ASP623  PHE694  ASN695  SER759  ASP760  ASP761  ALA762  ILE779  LEU786  VAL792 
 PHE793  MET794  SER795  GLU796  ALA797  LYS798  CYS799  TRP800  GLU811  SER814 

> <Gold.Protein.RotatedAtoms>
  152.3749  133.6468  159.6115 H   0  0  0  0  0  0  0  0  0  0  0  0  # atno 6907 bound_to 6896
  150.7696  133.9209  159.3406 H   0  0  0  0  0  0  0  0  0  0  0  0  # atno 6908 bound_to 6896
  151.7026  135.0928  160.0305 H   0  0  0  0  0  0  0  0  0  0  0  0  # atno 6909 bound_to 6896
  145.5605  140.9483  143.1450 H   0  0  0  0  0  0  0  0  0  0  0  0  # atno 7974 bound_to 7965
  155.8256  140.3468  155.5541 H   0  0  0  0  0  0  0  0  0  0  0  0  # atno 8008 bound_to 7997
  155.8296  140.0925  157.1820 H   0  0  0  0  0  0  0  0  0  0  0  0  # atno 8009 bound_to 7997
  154.4004  140.1415  156.3585 H   0  0  0  0  0  0  0  0  0  0  0  0  # atno 8010 bound_to 7997
  140.3130  143.3094  152.0128 H   0  0  0  0  0  0  0  0  0  0  0  0  # atno 10167 bound_to 10162
  157.1995  130.6883  149.6182 H   0  0  0  0  0  0  0  0  0  0  0  0  # atno 10718 bound_to 10713
  153.6933  135.6960  153.5084 H   0  0  0  0  0  0  0  0  0  0  0  0  # atno 10763 bound_to 10752
  153.2397  135.4310  155.0683 H   0  0  0  0  0  0  0  0  0  0  0  0  # atno 10764 bound_to 10752
  154.8366  135.3504  154.6474 H   0  0  0  0  0  0  0  0  0  0  0  0  # atno 10765 bound_to 10752
  139.8773  134.9042  156.4436 H   0  0  0  0  0  0  0  0  0  0  0  0  # atno 11005 bound_to 11000
  144.7485  139.7256  143.7282 LP  0  0  0  0  0  0  0  0  0  0  0  0  # atno 17320 bound_to 7965
  146.1854  139.5067  142.9839 LP  0  0  0  0  0  0  0  0  0  0  0  0  # atno 17321 bound_to 7965
  139.4890  144.6370  151.6955 LP  0  0  0  0  0  0  0  0  0  0  0  0  # atno 17342 bound_to 10162
  140.5551  144.0360  150.6144 LP  0  0  0  0  0  0  0  0  0  0  0  0  # atno 17343 bound_to 10162
  155.9702  130.4587  150.6011 LP  0  0  0  0  0  0  0  0  0  0  0  0  # atno 17370 bound_to 10713
  157.3781  131.0776  151.1500 LP  0  0  0  0  0  0  0  0  0  0  0  0  # atno 17371 bound_to 10713
  140.8982  133.7799  155.9649 LP  0  0  0  0  0  0  0  0  0  0  0  0  # atno 17394 bound_to 11000
  140.8680  134.2761  157.5204 LP  0  0  0  0  0  0  0  0  0  0  0  0  # atno 17395 bound_to 11000

$$$$
