AV-unprocessed.smi:1285|AV-procd|sdf|5371|dock1
  -GOLD-   22720 4513D 1   1.00000     0.00000
 Structure written by MMmdl.
 47 48  0  0  0  0  0  0  0  0  2 V2000
  149.3641  132.8709  154.7907 C   0  0  0  0  0  0  0  0  0  0  0  0
  149.7048  134.2846  154.2865 C   0  0  0  0  0  0  0  0  0  0  0  0
  149.0515  135.4599  155.0779 C   0  0  1  0  0  0  0  0  0  0  0  0
  147.5259  135.4078  154.7966 C   0  0  0  0  0  0  0  0  0  0  0  0
  149.2869  135.2643  156.6087 C   0  0  0  0  0  0  0  0  0  0  0  0
  148.2071  135.8112  157.4274 N   0  0  0  0  0  0  0  0  0  0  0  0
  148.2165  135.9342  158.7640 C   0  0  0  0  0  0  0  0  0  0  0  0
  149.1960  135.6672  159.4611 O   0  0  0  0  0  0  0  0  0  0  0  0
  146.8948  136.3864  159.4008 C   0  0  2  0  0  0  0  0  0  0  0  0
  146.4820  137.8110  158.9856 C   0  0  0  0  0  0  0  0  0  0  0  0
  146.9893  136.2605  160.8489 N   0  0  0  0  0  0  0  0  0  0  0  0
  146.5107  135.3295  161.6793 C   0  0  0  0  0  0  0  0  0  0  0  0
  146.7484  135.5782  162.9592 N   0  0  0  0  0  0  0  0  0  0  0  0
  147.4211  136.7608  162.8405 C   0  0  0  0  0  0  0  0  0  0  0  0
  147.5828  137.2196  161.5994 N   0  0  0  0  0  0  0  0  0  0  0  0
  149.6274  136.7751  154.6142 N   0  3  0  0  0  0  0  0  0  0  0  0
  148.9340  138.0019  155.1000 C   0  0  0  0  0  0  0  0  0  0  0  0
  149.4969  139.2526  154.4032 C   0  0  0  0  0  0  0  0  0  0  0  0
  150.8973  139.3395  154.6246 O   0  0  0  0  0  0  0  0  0  0  0  0
  151.5846  138.2185  154.0870 C   0  0  0  0  0  0  0  0  0  0  0  0
  151.0997  136.9369  154.7838 C   0  0  0  0  0  0  0  0  0  0  0  0
  149.8704  132.1202  154.1836 H   0  0  0  0  0  0  0  0  0  0  0  0
  148.2956  132.6641  154.7352 H   0  0  0  0  0  0  0  0  0  0  0  0
  149.6845  132.7200  155.8212 H   0  0  0  0  0  0  0  0  0  0  0  0
  150.7903  134.3813  154.3170 H   0  0  0  0  0  0  0  0  0  0  0  0
  149.4571  134.3531  153.2276 H   0  0  0  0  0  0  0  0  0  0  0  0
  147.1299  134.3967  154.9016 H   0  0  0  0  0  0  0  0  0  0  0  0
  147.2877  135.7410  153.7863 H   0  0  0  0  0  0  0  0  0  0  0  0
  146.9599  136.0296  155.4907 H   0  0  0  0  0  0  0  0  0  0  0  0
  149.4330  134.2122  156.8540 H   0  0  0  0  0  0  0  0  0  0  0  0
  150.1983  135.7717  156.9225 H   0  0  0  0  0  0  0  0  0  0  0  0
  147.3548  136.0574  156.9442 H   0  0  0  0  0  0  0  0  0  0  0  0
  146.1144  135.7065  159.0527 H   0  0  0  0  0  0  0  0  0  0  0  0
  146.3902  137.8942  157.9021 H   0  0  0  0  0  0  0  0  0  0  0  0
  147.2042  138.5583  159.3166 H   0  0  0  0  0  0  0  0  0  0  0  0
  145.5152  138.0748  159.4157 H   0  0  0  0  0  0  0  0  0  0  0  0
  145.9671  134.4592  161.3413 H   0  0  0  0  0  0  0  0  0  0  0  0
  147.7956  137.3044  163.6954 H   0  0  0  0  0  0  0  0  0  0  0  0
  147.8654  137.9676  154.8965 H   0  0  0  0  0  0  0  0  0  0  0  0
  149.0543  138.1012  156.1790 H   0  0  0  0  0  0  0  0  0  0  0  0
  149.2862  139.2300  153.3328 H   0  0  0  0  0  0  0  0  0  0  0  0
  149.0215  140.1494  154.8009 H   0  0  0  0  0  0  0  0  0  0  0  0
  151.4308  138.1604  153.0081 H   0  0  0  0  0  0  0  0  0  0  0  0
  152.6542  138.3522  154.2492 H   0  0  0  0  0  0  0  0  0  0  0  0
  151.3572  136.9922  155.8416 H   0  0  0  0  0  0  0  0  0  0  0  0
  151.6465  136.0953  154.3634 H   0  0  0  0  0  0  0  0  0  0  0  0
  149.4771  136.7723  153.6154 H   0  0  0  0  0  0  0  0  0  0  0  0
  1  2  1  0  0  0  0
  1 22  1  0  0  0  0
  1 23  1  0  0  0  0
  1 24  1  0  0  0  0
  2  3  1  0  0  0  0
  2 25  1  0  0  0  0
  2 26  1  0  0  0  0
  3  4  1  0  0  0  0
  3  5  1  0  0  0  0
  3 16  1  0  0  0  0
  4 27  1  0  0  0  0
  4 28  1  0  0  0  0
  4 29  1  0  0  0  0
  5  6  1  0  0  0  0
  5 30  1  0  0  0  0
  5 31  1  0  0  0  0
  6  7  1  0  0  0  0
  6 32  1  0  0  0  0
  7  8  2  0  0  0  0
  7  9  1  0  0  0  0
  9 10  1  0  0  0  0
  9 11  1  0  0  0  0
  9 33  1  0  0  0  0
 10 34  1  0  0  0  0
 10 35  1  0  0  0  0
 10 36  1  0  0  0  0
 11 15  1  0  0  0  0
 11 12  1  0  0  0  0
 12 13  2  0  0  0  0
 12 37  1  0  0  0  0
 13 14  1  0  0  0  0
 14 15  2  0  0  0  0
 14 38  1  0  0  0  0
 16 21  1  0  0  0  0
 16 17  1  0  0  0  0
 16 47  1  0  0  0  0
 17 18  1  0  0  0  0
 17 39  1  0  0  0  0
 17 40  1  0  0  0  0
 18 19  1  0  0  0  0
 18 41  1  0  0  0  0
 18 42  1  0  0  0  0
 19 20  1  0  0  0  0
 20 21  1  0  0  0  0
 20 43  1  0  0  0  0
 20 44  1  0  0  0  0
 21 45  1  0  0  0  0
 21 46  1  0  0  0  0
M  CHG  1  16   1
M  END
> <s_m_source_file>
AV-unprocessed.smi

> <i_m_source_file_index>
1285

> <i_lp_mmshare_version>
43012

> <i_f3d_flags>
0

> <s_epik_input>
W0NIMl0xW0NIMl1PW0NIMl1bQ0gyXU4xW0NAQF0oW0NIM10pKFtDSDJdW0NIM10pW0NIMl1bTkhdQyg9TylbQ0BIXShbQ0gzXSluMltjSF1uW2NIXW4y

> <s_epik_cmdline>
J2VwaWtfcHl0aG9uJywgJy1waCcsICc3LjAnLCAnLXRuJywgJzgnLCAnLW1hJywgJzIwMCcsICctbWV0YWxfYmluZGluZycsICctaW1hZScsICc8aW5maWxlLm1hZT4nLCAnLW9tYWUnLCAnPG91dGZpbGUubWFlPic=

> <r_lp_tautomer_probability>
1

> <r_epik_Ionization_Penalty>
0.569304

> <r_epik_Ionization_Penalty_Charging>
0.569295

> <r_epik_Ionization_Penalty_Neutral>
8.22697e-06

> <r_epik_State_Penalty>
0.581114

> <r_epik_Charging_Adjusted_Penalty>
1.15041

> <i_epik_Tot_Q>
1

> <i_epik_Tot_abs_Q>
1

> <r_epik_Metal_State_Penalty>
0.581117

> <b_epik_Metal_Only>
0

> <s_lp_Force_Field>
OPLS_2005

> <r_lp_Energy>
33.7003

> <b_lp_Chiralities_Consistent>
1

> <s_lp_Variant>
AV-unprocessed.smi:1285-5

> <Gold.Version>
5.8.1

> <Gold.Id.Protein>
6NUR|6NUR_protein|mol2

> <Gold.PLP.Fitness>
43.7110

> <Gold.PLP.PLP>
-28.7116

> <Gold.PLP.part.hbond>
-4.9800

> <Gold.PLP.part.metal>
0.0000

> <Gold.PLP.part.buried>
-3.6810

> <Gold.PLP.part.nonpolar>
-20.7077

> <Gold.PLP.part.repulsive>
0.1617

> <Gold.PLP.ligand.clash>
0.0993

> <Gold.PLP.ligand.torsion>
1.2489

> <Gold.PLP.Chemscore.Hbond>
5.7088

> <Gold.PLP.Chemscore.CHOScore>
0.0000

> <Gold.PLP.Chemscore.Metal>
0.0000

> <Gold.Chemscore.Hbonds>
donor molecule, donor type, donor heavy atom, donor atom, acceptor molecule, acceptor atom, score
      L1  H    16    47       P1  7948  2.00
      P1  H  6896  6908       L1     8  1.00
      P1  H  6931  6943       L1    15  0.86
      P1  H  6934  6947       L1    15  0.78
      P1  H  7989  7998       L1    19  0.99

> <Gold.PLP.Chemscore.Internal.Correction>
0.4701

> <Gold.Rescore>
     Score         DG    S(hbond)    S(metal)    S(lipo)     H(rot)  DE(clash)    DE(int)     intcor
     12.46     -13.81       2.94        0.00      47.69       2.76       0.02       1.33       ----

> <Gold.Chemscore.Fitness>
12.4619

> <Gold.Chemscore.DG>
-13.8083

> <Gold.Chemscore.ZeroCoef>
-5.4800

> <Gold.Chemscore.Hbond>
2.9374

> <Gold.Chemscore.Metal>
0.0000

> <Gold.Chemscore.Lipo>
47.6924

> <Gold.Chemscore.Internal_Hbond>
0.0000

> <Gold.Chemscore.DEClash>
0.0186

> <Gold.Chemscore.DEInternal>
1.3278

> <Gold.Chemscore.Rot>
2.7589

> <Gold.Chemscore.Internal.Correction>
   9.000000E+99

> <Gold.Chemscore.Hbonds>
donor molecule, donor type, donor heavy atom, donor atom, acceptor molecule, acceptor atom, score
      L1  H    16    47       P1  7948  0.85
      P1  H  6896  6908       L1     8  1.00
      P1  H  6931  6943       L1    15  0.16
      P1  H  6934  6947       L1    15  0.65
      P1  H  7989  7998       L1    19  0.19

> <Gold.Chemscore.Hbond.Weighted>
-9.8110

> <Gold.Chemscore.Metal.Weighted>
-0.0000

> <Gold.Chemscore.Lipo.Weighted>
-5.5800

> <Gold.Chemscore.Internal_Hbond.Weighted>
0.0000

> <Gold.Chemscore.DEClash.Weighted>
0.0186

> <Gold.Chemscore.DEInternal.Weighted>
1.3278

> <Gold.Chemscore.Rot.Weighted>
7.0627

> <Gold.Chemscore.Internal.Correction.Weighted>
   9.000000E+99

> <Gold.Protein.RotatedTorsions>
[ 6907 6896 6895 6894 ] final -179.56 input  -60.11 | X-H torsion
[ 7974 7965 7964 7962 ] final   82.37 input  175.53 | X-H torsion
[ 8008 7997 7996 7995 ] final  177.03 input   59.86 | X-H torsion
[ 10167 10162 10161 10158 ] final   94.47 input  -65.29 | X-H torsion
[ 10718 10713 10712 10709 ] final  -27.12 input   66.30 | X-H torsion
[ 10763 10752 10751 10750 ] final   -5.10 input  -60.55 | X-H torsion
[ 11005 11000 10999 10996 ] final  179.39 input  -57.11 | X-H torsion

> <Gold.Protein.ActiveResidues>
 VAL166  LYS551  ARG553  GLY616  TRP617  ASP618  TYR619  PRO620  LYS621  CYS622 
 ASP623  PHE694  ASN695  SER759  ASP760  ASP761  ALA762  ILE779  LEU786  VAL792 
 PHE793  MET794  SER795  GLU796  ALA797  LYS798  CYS799  TRP800  GLU811  SER814 

> <Gold.Protein.RotatedAtoms>
  151.6554  133.3319  159.3161 H   0  0  0  0  0  0  0  0  0  0  0  0  # atno 6907 bound_to 6896
  150.7939  134.6989  159.6548 H   0  0  0  0  0  0  0  0  0  0  0  0  # atno 6908 bound_to 6896
  152.4024  134.6268  160.0116 H   0  0  0  0  0  0  0  0  0  0  0  0  # atno 6909 bound_to 6896
  145.6259  139.2395  143.2112 H   0  0  0  0  0  0  0  0  0  0  0  0  # atno 7974 bound_to 7965
  156.0701  140.1368  156.9839 H   0  0  0  0  0  0  0  0  0  0  0  0  # atno 8008 bound_to 7997
  154.4527  140.0973  156.6717 H   0  0  0  0  0  0  0  0  0  0  0  0  # atno 8009 bound_to 7997
  155.5242  140.3457  155.4415 H   0  0  0  0  0  0  0  0  0  0  0  0  # atno 8010 bound_to 7997
  139.8081  144.6785  150.9676 H   0  0  0  0  0  0  0  0  0  0  0  0  # atno 10167 bound_to 10162
  156.4422  130.4467  149.7045 H   0  0  0  0  0  0  0  0  0  0  0  0  # atno 10718 bound_to 10713
  153.3939  135.7003  153.6475 H   0  0  0  0  0  0  0  0  0  0  0  0  # atno 10763 bound_to 10752
  153.5036  135.3647  155.2552 H   0  0  0  0  0  0  0  0  0  0  0  0  # atno 10764 bound_to 10752
  154.8705  135.4118  154.3261 H   0  0  0  0  0  0  0  0  0  0  0  0  # atno 10765 bound_to 10752
  140.4056  134.6738  157.4586 H   0  0  0  0  0  0  0  0  0  0  0  0  # atno 11005 bound_to 11000
  146.1394  140.7078  142.9374 LP  0  0  0  0  0  0  0  0  0  0  0  0  # atno 17320 bound_to 7965
  144.7212  140.4380  143.7006 LP  0  0  0  0  0  0  0  0  0  0  0  0  # atno 17321 bound_to 7965
  140.7818  143.4213  151.0837 LP  0  0  0  0  0  0  0  0  0  0  0  0  # atno 17342 bound_to 10162
  139.7881  143.8258  152.3148 LP  0  0  0  0  0  0  0  0  0  0  0  0  # atno 17343 bound_to 10162
  156.3905  130.7624  151.2625 LP  0  0  0  0  0  0  0  0  0  0  0  0  # atno 17370 bound_to 10713
  157.7506  131.0269  150.3983 LP  0  0  0  0  0  0  0  0  0  0  0  0  # atno 17371 bound_to 10713
  140.0304  134.6414  155.9114 LP  0  0  0  0  0  0  0  0  0  0  0  0  # atno 17394 bound_to 11000
  141.1840  133.6552  156.5141 LP  0  0  0  0  0  0  0  0  0  0  0  0  # atno 17395 bound_to 11000

$$$$
