AV-unprocessed.smi:1912|AV-procd|sdf|7750|dock5
  -GOLD-   22720 9493D 1   1.00000     0.00000
 Structure written by MMmdl.
 44 46  0  0  0  0  0  0  0  0  2 V2000
  151.5776  145.3100  159.4491 C   0  0  0  0  0  0  0  0  0  0  0  0
  152.1628  144.3776  160.3461 O   0  0  0  0  0  0  0  0  0  0  0  0
  152.3669  143.0894  159.9010 C   0  0  0  0  0  0  0  0  0  0  0  0
  153.3812  142.2306  160.3850 C   0  0  0  0  0  0  0  0  0  0  0  0
  153.5106  140.9242  159.8794 C   0  0  0  0  0  0  0  0  0  0  0  0
  152.6333  140.4427  158.8761 C   0  0  0  0  0  0  0  0  0  0  0  0
  152.7017  139.1634  158.3622 O   0  0  0  0  0  0  0  0  0  0  0  0
  153.6488  138.2617  158.9145 C   0  0  0  0  0  0  0  0  0  0  0  0
  151.6225  141.3040  158.3819 C   0  0  0  0  0  0  0  0  0  0  0  0
  150.6367  140.8161  157.3207 C   0  0  2  0  0  0  0  0  0  0  0  0
  149.9913  139.6139  157.6899 O   0  0  0  0  0  0  0  0  0  0  0  0
  151.3077  140.5924  155.9490 C   0  0  0  0  0  0  0  0  0  0  0  0
  150.4003  139.9735  154.9695 N   0  0  0  0  0  0  0  0  0  0  0  0
  150.5128  138.7903  154.3014 C   0  0  0  0  0  0  0  0  0  0  0  0
  151.6367  137.8148  154.3997 C   0  0  0  0  0  0  0  0  0  0  0  0
  149.3972  138.6527  153.5313 N   0  3  0  0  0  0  0  0  0  0  0  0
  148.5623  139.7566  153.7081 C   0  0  0  0  0  0  0  0  0  0  0  0
  147.3246  140.0598  153.1495 C   0  0  0  0  0  0  0  0  0  0  0  0
  146.7294  141.2735  153.5512 C   0  0  0  0  0  0  0  0  0  0  0  0
  147.3643  142.1334  154.4703 C   0  0  0  0  0  0  0  0  0  0  0  0
  148.6215  141.8178  155.0256 C   0  0  0  0  0  0  0  0  0  0  0  0
  149.2023  140.6135  154.6272 C   0  0  0  0  0  0  0  0  0  0  0  0
  151.4983  142.6115  158.9021 C   0  0  0  0  0  0  0  0  0  0  0  0
  151.4798  146.2746  159.9471 H   0  0  0  0  0  0  0  0  0  0  0  0
  150.5795  144.9948  159.1414 H   0  0  0  0  0  0  0  0  0  0  0  0
  152.1993  145.4573  158.5649 H   0  0  0  0  0  0  0  0  0  0  0  0
  154.0733  142.5492  161.1495 H   0  0  0  0  0  0  0  0  0  0  0  0
  154.2975  140.3067  160.2846 H   0  0  0  0  0  0  0  0  0  0  0  0
  153.5302  137.2856  158.4442 H   0  0  0  0  0  0  0  0  0  0  0  0
  153.4959  138.1304  159.9868 H   0  0  0  0  0  0  0  0  0  0  0  0
  154.6712  138.5944  158.7308 H   0  0  0  0  0  0  0  0  0  0  0  0
  149.8366  141.5479  157.2102 H   0  0  0  0  0  0  0  0  0  0  0  0
  150.3370  138.9128  157.1585 H   0  0  0  0  0  0  0  0  0  0  0  0
  151.7125  141.5197  155.5432 H   0  0  0  0  0  0  0  0  0  0  0  0
  152.1565  139.9161  156.0588 H   0  0  0  0  0  0  0  0  0  0  0  0
  151.4748  136.9743  153.7244 H   0  0  0  0  0  0  0  0  0  0  0  0
  151.7148  137.4319  155.4173 H   0  0  0  0  0  0  0  0  0  0  0  0
  152.5781  138.2959  154.1338 H   0  0  0  0  0  0  0  0  0  0  0  0
  146.8358  139.4021  152.4458 H   0  0  0  0  0  0  0  0  0  0  0  0
  145.7664  141.5500  153.1470 H   0  0  0  0  0  0  0  0  0  0  0  0
  146.8772  143.0540  154.7573 H   0  0  0  0  0  0  0  0  0  0  0  0
  149.0933  142.4830  155.7331 H   0  0  0  0  0  0  0  0  0  0  0  0
  150.7166  143.2630  158.5395 H   0  0  0  0  0  0  0  0  0  0  0  0
  149.2198  137.8571  152.9317 H   0  0  0  0  0  0  0  0  0  0  0  0
  1  2  1  0  0  0  0
  1 24  1  0  0  0  0
  1 25  1  0  0  0  0
  1 26  1  0  0  0  0
  2  3  1  0  0  0  0
  3 23  1  0  0  0  0
  3  4  2  0  0  0  0
  4  5  1  0  0  0  0
  4 27  1  0  0  0  0
  5  6  2  0  0  0  0
  5 28  1  0  0  0  0
  6  7  1  0  0  0  0
  6  9  1  0  0  0  0
  7  8  1  0  0  0  0
  8 29  1  0  0  0  0
  8 30  1  0  0  0  0
  8 31  1  0  0  0  0
  9 10  1  0  0  0  0
  9 23  2  0  0  0  0
 10 11  1  0  0  0  0
 10 12  1  0  0  0  0
 10 32  1  0  0  0  0
 11 33  1  0  0  0  0
 12 13  1  0  0  0  0
 12 34  1  0  0  0  0
 12 35  1  0  0  0  0
 13 22  1  0  0  0  0
 13 14  1  0  0  0  0
 14 15  1  0  0  0  0
 14 16  2  0  0  0  0
 15 36  1  0  0  0  0
 15 37  1  0  0  0  0
 15 38  1  0  0  0  0
 16 17  1  0  0  0  0
 16 44  1  0  0  0  0
 17 22  2  0  0  0  0
 17 18  1  0  0  0  0
 18 19  2  0  0  0  0
 18 39  1  0  0  0  0
 19 20  1  0  0  0  0
 19 40  1  0  0  0  0
 20 21  2  0  0  0  0
 20 41  1  0  0  0  0
 21 22  1  0  0  0  0
 21 42  1  0  0  0  0
 23 43  1  0  0  0  0
M  CHG  1  16   1
M  END
> <s_m_source_file>
AV-unprocessed.smi

> <i_m_source_file_index>
1912

> <i_lp_mmshare_version>
43012

> <i_f3d_flags>
0

> <s_epik_input>
W0NIM11PYzFbY0hdW2NIXWMoT1tDSDNdKWMoW2NIXTEpW0NASF0oW09IXSlbQ0gyXW4oYyhuMilbQ0gzXSljKGMyMylbY0hdW2NIXVtjSF1bY0hdMw==

> <s_epik_cmdline>
J2VwaWtfcHl0aG9uJywgJy1waCcsICc3LjAnLCAnLXRuJywgJzgnLCAnLW1hJywgJzIwMCcsICctbWV0YWxfYmluZGluZycsICctaW1hZScsICc8aW5maWxlLm1hZT4nLCAnLW9tYWUnLCAnPG91dGZpbGUubWFlPic=

> <r_lp_tautomer_probability>
1

> <r_epik_Ionization_Penalty>
0.963869

> <r_epik_Ionization_Penalty_Charging>
0.963868

> <r_epik_Ionization_Penalty_Neutral>
1.34362e-06

> <r_epik_State_Penalty>
1.00924

> <r_epik_Charging_Adjusted_Penalty>
1.9731

> <i_epik_Tot_Q>
1

> <i_epik_Tot_abs_Q>
1

> <r_epik_Metal_State_Penalty>
4.98304

> <b_epik_Metal_Only>
0

> <s_lp_Force_Field>
OPLS_2005

> <r_lp_Energy>
21.5299

> <b_lp_Chiralities_Consistent>
1

> <s_lp_Variant>
AV-unprocessed.smi:1912-3

> <Gold.Version>
5.8.1

> <Gold.Id.Protein>
6NUR|6NUR_protein|mol2

> <Gold.PLP.Fitness>
55.6586

> <Gold.PLP.PLP>
-50.6720

> <Gold.PLP.part.hbond>
-2.0000

> <Gold.PLP.part.metal>
0.0000

> <Gold.PLP.part.buried>
0.2162

> <Gold.PLP.part.nonpolar>
-49.1040

> <Gold.PLP.part.repulsive>
0.1421

> <Gold.PLP.ligand.clash>
0.0000

> <Gold.PLP.ligand.torsion>
0.5313

> <Gold.PLP.Chemscore.Hbond>
2.0000

> <Gold.PLP.Chemscore.CHOScore>
0.0000

> <Gold.PLP.Chemscore.Metal>
0.0000

> <Gold.Chemscore.Hbonds>
donor molecule, donor type, donor heavy atom, donor atom, acceptor molecule, acceptor atom, score
      L1  H    16    44       P1  7948  2.00

> <Gold.PLP.Chemscore.Internal.Correction>
0.0491

> <Gold.Rescore>
     Score         DG    S(hbond)    S(metal)    S(lipo)     H(rot)  DE(clash)    DE(int)     intcor
     17.96     -18.49       0.99        0.00     131.93       2.24       0.08       0.45       ----

> <Gold.Chemscore.Fitness>
17.9588

> <Gold.Chemscore.DG>
-18.4870

> <Gold.Chemscore.ZeroCoef>
-5.4800

> <Gold.Chemscore.Hbond>
0.9936

> <Gold.Chemscore.Metal>
0.0000

> <Gold.Chemscore.Lipo>
131.9253

> <Gold.Chemscore.Internal_Hbond>
0.0000

> <Gold.Chemscore.DEClash>
0.0799

> <Gold.Chemscore.DEInternal>
0.4483

> <Gold.Chemscore.Rot>
2.2448

> <Gold.Chemscore.Internal.Correction>
   9.000000E+99

> <Gold.Chemscore.Hbonds>
donor molecule, donor type, donor heavy atom, donor atom, acceptor molecule, acceptor atom, score
      L1  H    16    44       P1  7948  0.97

> <Gold.Chemscore.Hbond.Weighted>
-3.3185

> <Gold.Chemscore.Metal.Weighted>
-0.0000

> <Gold.Chemscore.Lipo.Weighted>
-15.4353

> <Gold.Chemscore.Internal_Hbond.Weighted>
0.0000

> <Gold.Chemscore.DEClash.Weighted>
0.0799

> <Gold.Chemscore.DEInternal.Weighted>
0.4483

> <Gold.Chemscore.Rot.Weighted>
5.7467

> <Gold.Chemscore.Internal.Correction.Weighted>
   9.000000E+99

> <Gold.Protein.RotatedTorsions>
[ 6907 6896 6895 6894 ] final -114.14 input  -60.11 | X-H torsion
[ 7974 7965 7964 7962 ] final  157.97 input  175.53 | X-H torsion
[ 8008 7997 7996 7995 ] final  151.42 input   59.86 | X-H torsion
[ 10167 10162 10161 10158 ] final  -42.74 input  -65.29 | X-H torsion
[ 10718 10713 10712 10709 ] final  -93.15 input   66.30 | X-H torsion
[ 10763 10752 10751 10750 ] final  -14.18 input  -60.55 | X-H torsion
[ 11005 11000 10999 10996 ] final  142.04 input  -57.11 | X-H torsion

> <Gold.Protein.ActiveResidues>
 VAL166  LYS551  ARG553  GLY616  TRP617  ASP618  TYR619  PRO620  LYS621  CYS622 
 ASP623  PHE694  ASN695  SER759  ASP760  ASP761  ALA762  ILE779  LEU786  VAL792 
 PHE793  MET794  SER795  GLU796  ALA797  LYS798  CYS799  TRP800  GLU811  SER814 

> <Gold.Protein.RotatedAtoms>
  150.7880  133.8844  159.3294 H   0  0  0  0  0  0  0  0  0  0  0  0  # atno 6907 bound_to 6896
  151.6689  135.0977  160.0203 H   0  0  0  0  0  0  0  0  0  0  0  0  # atno 6908 bound_to 6896
  152.3948  133.6693  159.6303 H   0  0  0  0  0  0  0  0  0  0  0  0  # atno 6909 bound_to 6896
  144.7873  139.7413  143.6236 H   0  0  0  0  0  0  0  0  0  0  0  0  # atno 7974 bound_to 7965
  156.2674  140.2048  156.6173 H   0  0  0  0  0  0  0  0  0  0  0  0  # atno 8008 bound_to 7997
  154.6785  140.0542  157.0265 H   0  0  0  0  0  0  0  0  0  0  0  0  # atno 8009 bound_to 7997
  155.1035  140.3208  155.4543 H   0  0  0  0  0  0  0  0  0  0  0  0  # atno 8010 bound_to 7997
  140.6959  143.3021  151.3252 H   0  0  0  0  0  0  0  0  0  0  0  0  # atno 10167 bound_to 10162
  156.0010  130.5015  150.5732 H   0  0  0  0  0  0  0  0  0  0  0  0  # atno 10718 bound_to 10713
  153.5244  135.7015  153.5715 H   0  0  0  0  0  0  0  0  0  0  0  0  # atno 10763 bound_to 10752
  153.3749  135.3935  155.1815 H   0  0  0  0  0  0  0  0  0  0  0  0  # atno 10764 bound_to 10752
  154.8691  135.3821  154.4736 H   0  0  0  0  0  0  0  0  0  0  0  0  # atno 10765 bound_to 10752
  140.0447  134.9287  157.0908 H   0  0  0  0  0  0  0  0  0  0  0  0  # atno 11005 bound_to 11000
  146.2110  139.5466  142.9681 LP  0  0  0  0  0  0  0  0  0  0  0  0  # atno 17320 bound_to 7965
  145.5888  141.0372  143.2081 LP  0  0  0  0  0  0  0  0  0  0  0  0  # atno 17321 bound_to 7965
  139.6413  144.0534  152.2556 LP  0  0  0  0  0  0  0  0  0  0  0  0  # atno 17342 bound_to 10162
  140.0040  144.6272  150.7704 LP  0  0  0  0  0  0  0  0  0  0  0  0  # atno 17343 bound_to 10162
  157.3624  131.0752  151.1625 LP  0  0  0  0  0  0  0  0  0  0  0  0  # atno 17370 bound_to 10713
  157.2406  130.6567  149.5888 LP  0  0  0  0  0  0  0  0  0  0  0  0  # atno 17371 bound_to 10713
  140.4013  134.2080  155.7163 LP  0  0  0  0  0  0  0  0  0  0  0  0  # atno 17394 bound_to 11000
  141.1901  133.8225  157.0932 LP  0  0  0  0  0  0  0  0  0  0  0  0  # atno 17395 bound_to 11000

$$$$
