AV-unprocessed.smi:972|AV-procd|sdf|4296|dock7
  -GOLD-   22720 2203D 1   1.00000     0.00000
 Structure written by MMmdl.
 51 53  0  0  0  0  0  0  0  0  2 V2000
  150.5497  143.6942  158.3442 C   0  0  0  0  0  0  0  0  0  0  0  0
  151.7821  144.2772  159.0758 C   0  0  0  0  0  0  0  0  0  0  0  0
  152.7790  144.6926  157.9683 C   0  0  0  0  0  0  0  0  0  0  0  0
  151.3619  145.5188  159.8835 C   0  0  0  0  0  0  0  0  0  0  0  0
  152.4079  143.2380  160.0224 C   0  0  0  0  0  0  0  0  0  0  0  0
  152.5281  143.5809  161.3115 N   0  0  0  0  0  0  0  0  0  0  0  0
  153.1905  142.7366  162.1306 C   0  0  0  0  0  0  0  0  0  0  0  0
  153.7787  141.5424  161.6483 C   0  0  0  0  0  0  0  0  0  0  0  0
  154.4818  140.5891  162.4349 N   0  0  0  0  0  0  0  0  0  0  0  0
  154.5855  139.2608  162.2575 C   0  0  0  0  0  0  0  0  0  0  0  0
  154.0417  138.6138  161.3635 O   0  0  0  0  0  0  0  0  0  0  0  0
  155.3599  138.7053  163.2009 N   0  0  0  0  0  0  0  0  0  0  0  0
  155.6843  137.2840  163.2911 C   0  0  2  0  0  0  0  0  0  0  0  0
  154.4062  136.4241  163.3065 C   0  0  0  0  0  0  0  0  0  0  0  0
  154.7416  134.9358  163.5011 C   0  0  0  0  0  0  0  0  0  0  0  0
  155.5326  134.7237  164.7387 N   0  3  1  0  0  0  0  0  0  0  0  0
  155.7743  133.2893  165.0069 C   0  0  0  0  0  0  0  0  0  0  0  0
  154.5991  132.5815  165.6402 C   0  0  0  0  0  0  0  0  0  0  0  0
  155.8058  132.9434  166.4774 C   0  0  0  0  0  0  0  0  0  0  0  0
  156.7910  135.5105  164.7283 C   0  0  0  0  0  0  0  0  0  0  0  0
  156.5027  137.0125  164.5644 C   0  0  0  0  0  0  0  0  0  0  0  0
  153.6200  141.2984  160.2694 C   0  0  0  0  0  0  0  0  0  0  0  0
  152.9554  142.1514  159.4623 N   0  0  0  0  0  0  0  0  0  0  0  0
  150.1311  144.4119  157.6380 H   0  0  0  0  0  0  0  0  0  0  0  0
  149.7489  143.4322  159.0366 H   0  0  0  0  0  0  0  0  0  0  0  0
  150.8087  142.7958  157.7829 H   0  0  0  0  0  0  0  0  0  0  0  0
  153.1183  143.8292  157.3948 H   0  0  0  0  0  0  0  0  0  0  0  0
  153.6617  145.1862  158.3768 H   0  0  0  0  0  0  0  0  0  0  0  0
  152.3247  145.3935  157.2671 H   0  0  0  0  0  0  0  0  0  0  0  0
  150.9138  146.2784  159.2421 H   0  0  0  0  0  0  0  0  0  0  0  0
  152.2174  145.9737  160.3840 H   0  0  0  0  0  0  0  0  0  0  0  0
  150.6305  145.2628  160.6509 H   0  0  0  0  0  0  0  0  0  0  0  0
  153.2279  143.0365  163.1655 H   0  0  0  0  0  0  0  0  0  0  0  0
  154.9484  140.9646  163.2477 H   0  0  0  0  0  0  0  0  0  0  0  0
  155.7635  139.3117  163.9000 H   0  0  0  0  0  0  0  0  0  0  0  0
  156.2919  137.0037  162.4282 H   0  0  0  0  0  0  0  0  0  0  0  0
  153.7451  136.7551  164.1089 H   0  0  0  0  0  0  0  0  0  0  0  0
  153.8512  136.5533  162.3766 H   0  0  0  0  0  0  0  0  0  0  0  0
  153.8171  134.3593  163.5537 H   0  0  0  0  0  0  0  0  0  0  0  0
  155.2999  134.5604  162.6421 H   0  0  0  0  0  0  0  0  0  0  0  0
  156.4176  132.7663  164.3013 H   0  0  0  0  0  0  0  0  0  0  0  0
  153.6841  133.1473  165.8069 H   0  0  0  0  0  0  0  0  0  0  0  0
  154.4573  131.5299  165.3995 H   0  0  0  0  0  0  0  0  0  0  0  0
  156.4581  132.1299  166.7884 H   0  0  0  0  0  0  0  0  0  0  0  0
  155.6906  133.7490  167.2007 H   0  0  0  0  0  0  0  0  0  0  0  0
  157.3347  135.3437  165.6590 H   0  0  0  0  0  0  0  0  0  0  0  0
  157.4342  135.1606  163.9191 H   0  0  0  0  0  0  0  0  0  0  0  0
  157.4419  137.5663  164.5313 H   0  0  0  0  0  0  0  0  0  0  0  0
  155.9605  137.3741  165.4398 H   0  0  0  0  0  0  0  0  0  0  0  0
  154.0353  140.4159  159.8051 H   0  0  0  0  0  0  0  0  0  0  0  0
  154.9754  135.0718  165.5060 H   0  0  0  0  0  0  0  0  0  0  0  0
  1  2  1  0  0  0  0
  1 24  1  0  0  0  0
  1 25  1  0  0  0  0
  1 26  1  0  0  0  0
  2  3  1  0  0  0  0
  2  4  1  0  0  0  0
  2  5  1  0  0  0  0
  3 27  1  0  0  0  0
  3 28  1  0  0  0  0
  3 29  1  0  0  0  0
  4 30  1  0  0  0  0
  4 31  1  0  0  0  0
  4 32  1  0  0  0  0
  5 23  1  0  0  0  0
  5  6  2  0  0  0  0
  6  7  1  0  0  0  0
  7  8  2  0  0  0  0
  7 33  1  0  0  0  0
  8  9  1  0  0  0  0
  8 22  1  0  0  0  0
  9 10  1  0  0  0  0
  9 34  1  0  0  0  0
 10 11  2  0  0  0  0
 10 12  1  0  0  0  0
 12 13  1  0  0  0  0
 12 35  1  0  0  0  0
 13 21  1  0  0  0  0
 13 14  1  0  0  0  0
 13 36  1  0  0  0  0
 14 15  1  0  0  0  0
 14 37  1  0  0  0  0
 14 38  1  0  0  0  0
 15 16  1  0  0  0  0
 15 39  1  0  0  0  0
 15 40  1  0  0  0  0
 16 17  1  0  0  0  0
 16 20  1  0  0  0  0
 16 51  1  0  0  0  0
 17 19  1  0  0  0  0
 17 18  1  0  0  0  0
 17 41  1  0  0  0  0
 18 19  1  0  0  0  0
 18 42  1  0  0  0  0
 18 43  1  0  0  0  0
 19 44  1  0  0  0  0
 19 45  1  0  0  0  0
 20 21  1  0  0  0  0
 20 46  1  0  0  0  0
 20 47  1  0  0  0  0
 21 48  1  0  0  0  0
 21 49  1  0  0  0  0
 22 23  2  0  0  0  0
 22 50  1  0  0  0  0
M  CHG  1  16   1
M  END
> <s_m_source_file>
AV-unprocessed.smi

> <i_m_source_file_index>
972

> <i_lp_mmshare_version>
43012

> <i_f3d_flags>
0

> <s_epik_input>
W0NIM11DKFtDSDNdKShbQ0gzXSljMW5bY0hdYyhbY0hdbjEpW05IXUMoPU8pW05IXVtDSF0yW0NIMl1bQ0gyXU4oW0NIMl1bQ0gyXTIpW0NIXTNbQ0gyXVtDSDJdMw==

> <s_epik_cmdline>
J2VwaWtfcHl0aG9uJywgJy1waCcsICc3LjAnLCAnLXRuJywgJzgnLCAnLW1hJywgJzIwMCcsICctbWV0YWxfYmluZGluZycsICctaW1hZScsICc8aW5maWxlLm1hZT4nLCAnLW9tYWUnLCAnPG91dGZpbGUubWFlPic=

> <r_lp_tautomer_probability>
1

> <r_epik_Ionization_Penalty>
0.123264

> <r_epik_Ionization_Penalty_Charging>
0.123242

> <r_epik_Ionization_Penalty_Neutral>
2.24743e-05

> <r_epik_State_Penalty>
0.112739

> <r_epik_Charging_Adjusted_Penalty>
0.235981

> <i_epik_Tot_Q>
1

> <i_epik_Tot_abs_Q>
1

> <r_epik_Metal_State_Penalty>
0.112739

> <b_epik_Metal_Only>
0

> <s_lp_Force_Field>
OPLS_2005

> <r_lp_Energy>
25.9284

> <b_lp_Chiralities_Consistent>
1

> <s_lp_Variant>
AV-unprocessed.smi:972-1

> <Gold.Version>
5.8.1

> <Gold.Id.Protein>
6NUR|6NUR_protein|mol2

> <Gold.PLP.Fitness>
45.3279

> <Gold.PLP.PLP>
-45.7798

> <Gold.PLP.part.hbond>
0.0000

> <Gold.PLP.part.metal>
0.0000

> <Gold.PLP.part.buried>
-6.9201

> <Gold.PLP.part.nonpolar>
-39.2157

> <Gold.PLP.part.repulsive>
0.1091

> <Gold.PLP.ligand.clash>
0.0000

> <Gold.PLP.ligand.torsion>
0.9246

> <Gold.PLP.Chemscore.Hbond>
0.0000

> <Gold.PLP.Chemscore.CHOScore>
0.0000

> <Gold.PLP.Chemscore.Metal>
0.0000

> <Gold.PLP.Chemscore.Internal.Correction>
1.3973

> <Gold.Rescore>
     Score         DG    S(hbond)    S(metal)    S(lipo)     H(rot)  DE(clash)    DE(int)     intcor
     15.00     -18.23       0.00        0.00     137.86       1.32       0.21       3.02       ----

> <Gold.Chemscore.Fitness>
15.0041

> <Gold.Chemscore.DG>
-18.2284

> <Gold.Chemscore.ZeroCoef>
-5.4800

> <Gold.Chemscore.Hbond>
0.0000

> <Gold.Chemscore.Metal>
0.0000

> <Gold.Chemscore.Lipo>
137.8573

> <Gold.Chemscore.Internal_Hbond>
0.0000

> <Gold.Chemscore.DEClash>
0.2071

> <Gold.Chemscore.DEInternal>
3.0173

> <Gold.Chemscore.Rot>
1.3207

> <Gold.Chemscore.Internal.Correction>
   9.000000E+99

> <Gold.Chemscore.Hbond.Weighted>
-0.0000

> <Gold.Chemscore.Metal.Weighted>
-0.0000

> <Gold.Chemscore.Lipo.Weighted>
-16.1293

> <Gold.Chemscore.Internal_Hbond.Weighted>
0.0000

> <Gold.Chemscore.DEClash.Weighted>
0.2071

> <Gold.Chemscore.DEInternal.Weighted>
3.0173

> <Gold.Chemscore.Rot.Weighted>
3.3809

> <Gold.Chemscore.Internal.Correction.Weighted>
   9.000000E+99

> <Gold.Protein.RotatedTorsions>
[ 6907 6896 6895 6894 ] final -150.24 input  -60.11 | X-H torsion
[ 7974 7965 7964 7962 ] final   35.86 input  175.53 | X-H torsion
[ 8008 7997 7996 7995 ] final   30.50 input   59.86 | X-H torsion
[ 10167 10162 10161 10158 ] final  126.67 input  -65.29 | X-H torsion
[ 10718 10713 10712 10709 ] final -119.56 input   66.30 | X-H torsion
[ 10763 10752 10751 10750 ] final  137.76 input  -60.55 | X-H torsion
[ 11005 11000 10999 10996 ] final  -86.01 input  -57.11 | X-H torsion

> <Gold.Protein.ActiveResidues>
 VAL166  LYS551  ARG553  GLY616  TRP617  ASP618  TYR619  PRO620  LYS621  CYS622 
 ASP623  PHE694  ASN695  SER759  ASP760  ASP761  ALA762  ILE779  LEU786  VAL792 
 PHE793  MET794  SER795  GLU796  ALA797  LYS798  CYS799  TRP800  GLU811  SER814 

> <Gold.Protein.RotatedAtoms>
  151.1957  133.4640  159.2595 H   0  0  0  0  0  0  0  0  0  0  0  0  # atno 6907 bound_to 6896
  151.1119  135.0031  159.8508 H   0  0  0  0  0  0  0  0  0  0  0  0  # atno 6908 bound_to 6896
  152.5451  134.1876  159.8714 H   0  0  0  0  0  0  0  0  0  0  0  0  # atno 6909 bound_to 6896
  146.1252  139.6089  142.9263 H   0  0  0  0  0  0  0  0  0  0  0  0  # atno 7974 bound_to 7965
  155.0914  140.3220  155.4573 H   0  0  0  0  0  0  0  0  0  0  0  0  # atno 8008 bound_to 7997
  156.2741  140.2077  156.5987 H   0  0  0  0  0  0  0  0  0  0  0  0  # atno 8009 bound_to 7997
  154.6901  140.0517  157.0341 H   0  0  0  0  0  0  0  0  0  0  0  0  # atno 8010 bound_to 7997
  139.5619  144.6887  151.4020 H   0  0  0  0  0  0  0  0  0  0  0  0  # atno 10167 bound_to 10162
  156.1191  130.6309  150.9432 H   0  0  0  0  0  0  0  0  0  0  0  0  # atno 10718 bound_to 10713
  153.8784  135.3047  155.3444 H   0  0  0  0  0  0  0  0  0  0  0  0  # atno 10763 bound_to 10752
  154.7773  135.4854  153.9773 H   0  0  0  0  0  0  0  0  0  0  0  0  # atno 10764 bound_to 10752
  153.1365  135.6815  153.9191 H   0  0  0  0  0  0  0  0  0  0  0  0  # atno 10765 bound_to 10752
  141.1635  133.7431  156.9098 H   0  0  0  0  0  0  0  0  0  0  0  0  # atno 11005 bound_to 11000
  145.5380  141.0423  143.2346 LP  0  0  0  0  0  0  0  0  0  0  0  0  # atno 17320 bound_to 7965
  144.7636  139.6898  143.7224 LP  0  0  0  0  0  0  0  0  0  0  0  0  # atno 17321 bound_to 7965
  140.6899  143.7886  150.7240 LP  0  0  0  0  0  0  0  0  0  0  0  0  # atno 17342 bound_to 10162
  140.1365  143.4479  152.2221 LP  0  0  0  0  0  0  0  0  0  0  0  0  # atno 17343 bound_to 10162
  157.6374  131.0914  150.8321 LP  0  0  0  0  0  0  0  0  0  0  0  0  # atno 17370 bound_to 10713
  156.8420  130.5051  149.5320 LP  0  0  0  0  0  0  0  0  0  0  0  0  # atno 17371 bound_to 10713
  140.1524  134.9221  157.2610 LP  0  0  0  0  0  0  0  0  0  0  0  0  # atno 17394 bound_to 11000
  140.2707  134.3464  155.7375 LP  0  0  0  0  0  0  0  0  0  0  0  0  # atno 17395 bound_to 11000

$$$$
