AV-unprocessed.smi:181|AV-procd|sdf|1454|dock3
  -GOLD-   2262019253D 1   1.00000     0.00000
 Structure written by MMmdl.
 50 53  0  0  0  0  0  0  0  0  1 V2000
  150.1345  133.4854  156.6407 C   0  0  0  0  0  0  0  0  0  0  0  0
  150.1805  134.6575  155.6531 C   0  0  0  0  0  0  0  0  0  0  0  0
  149.7124  135.9166  156.2372 N   0  0  0  0  0  0  0  0  0  0  0  0
  150.5236  136.9995  156.1049 C   0  0  0  0  0  0  0  0  0  0  0  0
  151.7637  136.8511  155.5714 N   0  0  0  0  0  0  0  0  0  0  0  0
  152.5728  137.9053  155.4359 C   0  0  0  0  0  0  0  0  0  0  0  0
  152.3434  139.1794  155.7580 N   0  0  0  0  0  0  0  0  0  0  0  0
  151.0947  139.3393  156.2817 C   0  0  0  0  0  0  0  0  0  0  0  0
  150.1310  138.3123  156.4911 C   0  0  0  0  0  0  0  0  0  0  0  0
  148.9727  138.8555  157.0347 N   0  0  0  0  0  0  0  0  0  0  0  0
  149.2413  140.1269  157.1520 C   0  0  0  0  0  0  0  0  0  0  0  0
  150.4896  140.5068  156.7132 N   0  0  0  0  0  0  0  0  0  0  0  0
  151.0422  141.8528  156.7201 C   0  0  0  0  0  0  0  0  0  0  0  0
  151.0604  142.5228  158.1173 C   0  0  0  0  0  0  0  0  0  0  0  0
  149.7181  142.7737  158.4958 O   0  0  0  0  0  0  0  0  0  0  0  0
  151.7112  141.6323  159.1989 C   0  0  0  0  0  0  0  0  0  0  0  0
  151.9159  142.3865  160.5250 C   0  0  0  0  0  0  0  0  0  0  0  0
  152.6671  143.5737  160.3034 O   0  0  0  0  0  0  0  0  0  0  0  0
  152.0003  144.4939  159.4481 C   0  0  0  0  0  0  0  0  0  0  0  0
  151.8070  143.8706  158.0543 C   0  0  0  0  0  0  0  0  0  0  0  0
  148.3295  136.0346  156.7324 C   0  0  1  0  0  0  0  0  0  0  0  0
  147.4276  134.8516  156.3274 C   0  0  0  0  0  0  0  0  0  0  0  0
  146.4105  134.7309  157.4718 C   0  0  0  0  0  0  0  0  0  0  0  0
  147.0524  135.3897  158.5944 N   0  0  0  0  0  0  0  0  0  0  0  0
  148.1262  136.0983  158.2461 C   0  0  0  0  0  0  0  0  0  0  0  0
  148.8475  136.7268  159.0178 O   0  0  0  0  0  0  0  0  0  0  0  0
  150.4225  132.5562  156.1492 H   0  0  0  0  0  0  0  0  0  0  0  0
  149.1314  133.3503  157.0459 H   0  0  0  0  0  0  0  0  0  0  0  0
  150.8207  133.6382  157.4732 H   0  0  0  0  0  0  0  0  0  0  0  0
  151.2013  134.7962  155.2959 H   0  0  0  0  0  0  0  0  0  0  0  0
  149.5960  134.3854  154.7746 H   0  0  0  0  0  0  0  0  0  0  0  0
  153.5419  137.6983  155.0071 H   0  0  0  0  0  0  0  0  0  0  0  0
  148.5270  140.8297  157.5553 H   0  0  0  0  0  0  0  0  0  0  0  0
  152.0562  141.7976  156.3219 H   0  0  0  0  0  0  0  0  0  0  0  0
  150.4741  142.4607  156.0145 H   0  0  0  0  0  0  0  0  0  0  0  0
  149.4319  143.5722  158.0794 H   0  0  0  0  0  0  0  0  0  0  0  0
  151.1141  140.7377  159.3786 H   0  0  0  0  0  0  0  0  0  0  0  0
  152.6828  141.2870  158.8430 H   0  0  0  0  0  0  0  0  0  0  0  0
  150.9596  142.6297  160.9905 H   0  0  0  0  0  0  0  0  0  0  0  0
  152.4573  141.7564  161.2307 H   0  0  0  0  0  0  0  0  0  0  0  0
  151.0446  144.7884  159.8846 H   0  0  0  0  0  0  0  0  0  0  0  0
  152.6027  145.3990  159.3704 H   0  0  0  0  0  0  0  0  0  0  0  0
  152.7906  143.7175  157.6079 H   0  0  0  0  0  0  0  0  0  0  0  0
  151.2818  144.5692  157.4015 H   0  0  0  0  0  0  0  0  0  0  0  0
  147.8956  136.9513  156.3300 H   0  0  0  0  0  0  0  0  0  0  0  0
  146.9439  135.0145  155.3638 H   0  0  0  0  0  0  0  0  0  0  0  0
  147.9845  133.9172  156.2533 H   0  0  0  0  0  0  0  0  0  0  0  0
  145.4840  135.2543  157.2326 H   0  0  0  0  0  0  0  0  0  0  0  0
  146.1715  133.6924  157.7023 H   0  0  0  0  0  0  0  0  0  0  0  0
  146.7265  135.2880  159.5446 H   0  0  0  0  0  0  0  0  0  0  0  0
  1  2  1  0  0  0  0
  1 27  1  0  0  0  0
  1 28  1  0  0  0  0
  1 29  1  0  0  0  0
  2  3  1  0  0  0  0
  2 30  1  0  0  0  0
  2 31  1  0  0  0  0
  3  4  1  0  0  0  0
  3 21  1  0  0  0  0
  4  9  1  0  0  0  0
  4  5  2  0  0  0  0
  5  6  1  0  0  0  0
  6  7  2  0  0  0  0
  6 32  1  0  0  0  0
  7  8  1  0  0  0  0
  8 12  1  0  0  0  0
  8  9  2  0  0  0  0
  9 10  1  0  0  0  0
 10 11  2  0  0  0  0
 11 12  1  0  0  0  0
 11 33  1  0  0  0  0
 12 13  1  0  0  0  0
 13 14  1  0  0  0  0
 13 34  1  0  0  0  0
 13 35  1  0  0  0  0
 14 20  1  0  0  0  0
 14 15  1  0  0  0  0
 14 16  1  0  0  0  0
 15 36  1  0  0  0  0
 16 17  1  0  0  0  0
 16 37  1  0  0  0  0
 16 38  1  0  0  0  0
 17 18  1  0  0  0  0
 17 39  1  0  0  0  0
 17 40  1  0  0  0  0
 18 19  1  0  0  0  0
 19 20  1  0  0  0  0
 19 41  1  0  0  0  0
 19 42  1  0  0  0  0
 20 43  1  0  0  0  0
 20 44  1  0  0  0  0
 21 25  1  0  0  0  0
 21 22  1  0  0  0  0
 21 45  1  0  0  0  0
 22 23  1  0  0  0  0
 22 46  1  0  0  0  0
 22 47  1  0  0  0  0
 23 24  1  0  0  0  0
 23 48  1  0  0  0  0
 23 49  1  0  0  0  0
 24 25  1  0  0  0  0
 24 50  1  0  0  0  0
 25 26  2  0  0  0  0
M  END
> <s_m_source_file>
AV-unprocessed.smi

> <i_m_source_file_index>
181

> <i_lp_mmshare_version>
43012

> <i_f3d_flags>
0

> <s_epik_input>
Tz1DMVtOSF1bQ0gyXVtDSDJdW0NASF0xTihbQ0gyXVtDSDNdKWMobltjSF1uMiljKGMyMyluW2NIXW4zW0NIMl1DNChbT0hdKVtDSDJdW0NIMl1PW0NIMl1bQ0gyXTQ=

> <s_epik_cmdline>
J2VwaWtfcHl0aG9uJywgJy1waCcsICc3LjAnLCAnLXRuJywgJzgnLCAnLW1hJywgJzIwMCcsICctbWV0YWxfYmluZGluZycsICctaW1hZScsICc8aW5maWxlLm1hZT4nLCAnLW9tYWUnLCAnPG91dGZpbGUubWFlPic=

> <r_lp_tautomer_probability>
1

> <r_epik_Ionization_Penalty>
0.000985257

> <r_epik_Ionization_Penalty_Charging>
0

> <r_epik_Ionization_Penalty_Neutral>
0.000985257

> <r_epik_State_Penalty>
0.000517047

> <r_epik_Charging_Adjusted_Penalty>
0.000517047

> <i_epik_Tot_Q>
0

> <i_epik_Tot_abs_Q>
0

> <r_epik_Metal_State_Penalty>
-0

> <b_epik_Metal_Only>
0

> <s_lp_Force_Field>
OPLS_2005

> <r_lp_Energy>
36.1044

> <b_lp_Chiralities_Consistent>
1

> <s_lp_Variant>
AV-unprocessed.smi:181-2

> <Gold.Version>
5.8.1

> <Gold.Id.Protein>
6NUR|6NUR_protein|mol2

> <Gold.PLP.Fitness>
48.3412

> <Gold.PLP.PLP>
-40.3206

> <Gold.PLP.part.hbond>
-3.2971

> <Gold.PLP.part.metal>
0.0000

> <Gold.PLP.part.buried>
-7.8840

> <Gold.PLP.part.nonpolar>
-29.7610

> <Gold.PLP.part.repulsive>
0.2486

> <Gold.PLP.ligand.clash>
0.0000

> <Gold.PLP.ligand.torsion>
0.5400

> <Gold.PLP.Chemscore.Hbond>
2.8960

> <Gold.PLP.Chemscore.CHOScore>
0.0000

> <Gold.PLP.Chemscore.Metal>
0.0000

> <Gold.Chemscore.Hbonds>
donor molecule, donor type, donor heavy atom, donor atom, acceptor molecule, acceptor atom, score
      P1  H  7997  8010       L1     7  0.41
      P1  H 10752 10763       L1     5  0.47

> <Gold.PLP.Chemscore.Internal.Correction>
0.4125

> <Gold.Rescore>
     Score         DG    S(hbond)    S(metal)    S(lipo)     H(rot)  DE(clash)    DE(int)     intcor
     11.29     -13.63       1.65        0.00      76.97       2.49       0.18       2.16       ----

> <Gold.Chemscore.Fitness>
11.2876

> <Gold.Chemscore.DG>
-13.6265

> <Gold.Chemscore.ZeroCoef>
-5.4800

> <Gold.Chemscore.Hbond>
1.6512

> <Gold.Chemscore.Metal>
0.0000

> <Gold.Chemscore.Lipo>
76.9666

> <Gold.Chemscore.Internal_Hbond>
0.0000

> <Gold.Chemscore.DEClash>
0.1752

> <Gold.Chemscore.DEInternal>
2.1638

> <Gold.Chemscore.Rot>
2.4897

> <Gold.Chemscore.Internal.Correction>
   9.000000E+99

> <Gold.Chemscore.Hbonds>
donor molecule, donor type, donor heavy atom, donor atom, acceptor molecule, acceptor atom, score
      P1  H  7997  8010       L1     7  0.25
      P1  H 10752 10763       L1     5  0.04

> <Gold.Chemscore.Hbond.Weighted>
-5.5149

> <Gold.Chemscore.Metal.Weighted>
-0.0000

> <Gold.Chemscore.Lipo.Weighted>
-9.0051

> <Gold.Chemscore.Internal_Hbond.Weighted>
0.0000

> <Gold.Chemscore.DEClash.Weighted>
0.1752

> <Gold.Chemscore.DEInternal.Weighted>
2.1638

> <Gold.Chemscore.Rot.Weighted>
6.3735

> <Gold.Chemscore.Internal.Correction.Weighted>
   9.000000E+99

> <Gold.Protein.RotatedTorsions>
[ 6907 6896 6895 6894 ] final -171.65 input  -60.11 | X-H torsion
[ 7974 7965 7964 7962 ] final -159.04 input  175.53 | X-H torsion
[ 8008 7997 7996 7995 ] final   83.00 input   59.86 | X-H torsion
[ 10167 10162 10161 10158 ] final  143.39 input  -65.29 | X-H torsion
[ 10718 10713 10712 10709 ] final  -28.42 input   66.30 | X-H torsion
[ 10763 10752 10751 10750 ] final   44.94 input  -60.55 | X-H torsion
[ 11005 11000 10999 10996 ] final -113.11 input  -57.11 | X-H torsion

> <Gold.Protein.ActiveResidues>
 VAL166  LYS551  ARG553  GLY616  TRP617  ASP618  TYR619  PRO620  LYS621  CYS622 
 ASP623  PHE694  ASN695  SER759  ASP760  ASP761  ALA762  ILE779  LEU786  VAL792 
 PHE793  MET794  SER795  GLU796  ALA797  LYS798  CYS799  TRP800  GLU811  SER814 

> <Gold.Protein.RotatedAtoms>
  151.5273  133.3455  159.2911 H   0  0  0  0  0  0  0  0  0  0  0  0  # atno 6907 bound_to 6896
  150.8615  134.7971  159.7097 H   0  0  0  0  0  0  0  0  0  0  0  0  # atno 6908 bound_to 6896
  152.4633  134.5142  159.9815 H   0  0  0  0  0  0  0  0  0  0  0  0  # atno 6909 bound_to 6896
  144.7481  140.3742  143.6069 H   0  0  0  0  0  0  0  0  0  0  0  0  # atno 7974 bound_to 7965
  155.9181  140.3423  155.6151 H   0  0  0  0  0  0  0  0  0  0  0  0  # atno 8008 bound_to 7997
  155.7306  140.0795  157.2309 H   0  0  0  0  0  0  0  0  0  0  0  0  # atno 8009 bound_to 7997
  154.4065  140.1589  156.2492 H   0  0  0  0  0  0  0  0  0  0  0  0  # atno 8010 bound_to 7997
  139.4971  144.6044  151.6411 H   0  0  0  0  0  0  0  0  0  0  0  0  # atno 10167 bound_to 10162
  156.4254  130.4434  149.7154 H   0  0  0  0  0  0  0  0  0  0  0  0  # atno 10718 bound_to 10713
  152.9832  135.6055  154.3356 H   0  0  0  0  0  0  0  0  0  0  0  0  # atno 10763 bound_to 10752
  154.3056  135.2772  155.2592 H   0  0  0  0  0  0  0  0  0  0  0  0  # atno 10764 bound_to 10752
  154.4825  135.5913  153.6456 H   0  0  0  0  0  0  0  0  0  0  0  0  # atno 10765 bound_to 10752
  141.0634  133.9498  157.2624 H   0  0  0  0  0  0  0  0  0  0  0  0  # atno 11005 bound_to 11000
  145.7046  139.1669  143.2573 LP  0  0  0  0  0  0  0  0  0  0  0  0  # atno 17320 bound_to 7965
  146.1391  140.7082  142.9375 LP  0  0  0  0  0  0  0  0  0  0  0  0  # atno 17321 bound_to 7965
  140.5702  144.0122  150.6212 LP  0  0  0  0  0  0  0  0  0  0  0  0  # atno 17342 bound_to 10162
  140.3237  143.3121  152.0758 LP  0  0  0  0  0  0  0  0  0  0  0  0  # atno 17343 bound_to 10162
  156.4078  130.7707  151.2718 LP  0  0  0  0  0  0  0  0  0  0  0  0  # atno 17370 bound_to 10713
  157.7508  131.0220  150.3775 LP  0  0  0  0  0  0  0  0  0  0  0  0  # atno 17371 bound_to 10713
  139.9453  135.0185  156.8835 LP  0  0  0  0  0  0  0  0  0  0  0  0  # atno 17394 bound_to 11000
  140.5823  134.0341  155.7468 LP  0  0  0  0  0  0  0  0  0  0  0  0  # atno 17395 bound_to 11000

$$$$
