AV-unprocessed.smi:3337|AV-procd|sdf|12863|dock8
  -GOLD-   2272019263D 1   1.00000     0.00000
 Structure written by MMmdl.
 46 47  0  0  0  0  0  0  0  0  2 V2000
  143.4993  136.2573  152.0161 C   0  0  0  0  0  0  0  0  0  0  0  0
  144.8521  135.5677  151.7893 C   0  0  2  0  0  0  0  0  0  0  0  0
  144.6848  134.2286  151.0520 C   0  0  0  0  0  0  0  0  0  0  0  0
  146.0484  133.5460  150.8533 C   0  0  2  0  0  0  0  0  0  0  0  0
  145.9025  132.1956  150.1380 C   0  0  0  0  0  0  0  0  0  0  0  0
  146.7682  133.3905  152.2069 C   0  0  0  0  0  0  0  0  0  0  0  0
  146.9208  134.6988  152.8943 N   0  3  2  0  0  0  0  0  0  0  0  0
  147.7328  134.5898  154.1326 C   0  0  0  0  0  0  0  0  0  0  0  0
  147.5400  135.7982  155.0693 C   0  0  0  0  0  0  0  0  0  0  0  0
  148.3231  136.9472  154.6307 N   0  0  0  0  0  0  0  0  0  0  0  0
  148.5174  138.0629  155.3522 C   0  0  0  0  0  0  0  0  0  0  0  0
  148.0595  138.2137  156.4856 O   0  0  0  0  0  0  0  0  0  0  0  0
  149.3524  139.1696  154.6893 C   0  0  2  0  0  0  0  0  0  0  0  0
  148.7812  139.6059  153.3251 C   0  0  0  0  0  0  0  0  0  0  0  0
  150.7482  138.7605  154.5944 N   0  0  0  0  0  0  0  0  0  0  0  0
  151.2802  137.6252  154.1361 C   0  0  0  0  0  0  0  0  0  0  0  0
  152.6054  137.6044  154.1562 N   0  0  0  0  0  0  0  0  0  0  0  0
  152.8454  138.8487  154.6660 C   0  0  0  0  0  0  0  0  0  0  0  0
  151.7687  139.5868  154.9352 N   0  0  0  0  0  0  0  0  0  0  0  0
  145.6040  135.3533  153.1169 C   0  0  0  0  0  0  0  0  0  0  0  0
  142.8435  135.6498  152.6406 H   0  0  0  0  0  0  0  0  0  0  0  0
  142.9860  136.4367  151.0709 H   0  0  0  0  0  0  0  0  0  0  0  0
  143.6274  137.2218  152.5081 H   0  0  0  0  0  0  0  0  0  0  0  0
  145.4547  136.2268  151.1622 H   0  0  0  0  0  0  0  0  0  0  0  0
  144.0220  133.5735  151.6198 H   0  0  0  0  0  0  0  0  0  0  0  0
  144.2060  134.3932  150.0857 H   0  0  0  0  0  0  0  0  0  0  0  0
  146.6589  134.1892  150.2176 H   0  0  0  0  0  0  0  0  0  0  0  0
  145.3069  131.4966  150.7263 H   0  0  0  0  0  0  0  0  0  0  0  0
  146.8760  131.7371  149.9621 H   0  0  0  0  0  0  0  0  0  0  0  0
  145.4159  132.3143  149.1696 H   0  0  0  0  0  0  0  0  0  0  0  0
  146.2205  132.7023  152.8531 H   0  0  0  0  0  0  0  0  0  0  0  0
  147.7527  132.9516  152.0388 H   0  0  0  0  0  0  0  0  0  0  0  0
  147.4979  133.6529  154.6401 H   0  0  0  0  0  0  0  0  0  0  0  0
  148.7902  134.5374  153.8690 H   0  0  0  0  0  0  0  0  0  0  0  0
  146.4898  136.0907  155.0849 H   0  0  0  0  0  0  0  0  0  0  0  0
  147.8091  135.5575  156.0981 H   0  0  0  0  0  0  0  0  0  0  0  0
  148.7315  136.8998  153.7081 H   0  0  0  0  0  0  0  0  0  0  0  0
  149.3185  140.0420  155.3446 H   0  0  0  0  0  0  0  0  0  0  0  0
  147.7529  139.9553  153.4232 H   0  0  0  0  0  0  0  0  0  0  0  0
  148.7856  138.7929  152.5979 H   0  0  0  0  0  0  0  0  0  0  0  0
  149.3654  140.4254  152.9055 H   0  0  0  0  0  0  0  0  0  0  0  0
  150.6861  136.7978  153.7771 H   0  0  0  0  0  0  0  0  0  0  0  0
  153.8436  139.2242  154.8375 H   0  0  0  0  0  0  0  0  0  0  0  0
  145.7424  136.3178  153.6044 H   0  0  0  0  0  0  0  0  0  0  0  0
  145.0052  134.7426  153.7948 H   0  0  0  0  0  0  0  0  0  0  0  0
  147.4413  135.2888  152.2611 H   0  0  0  0  0  0  0  0  0  0  0  0
  1  2  1  0  0  0  0
  1 21  1  0  0  0  0
  1 22  1  0  0  0  0
  1 23  1  0  0  0  0
  2 20  1  0  0  0  0
  2  3  1  0  0  0  0
  2 24  1  0  0  0  0
  3  4  1  0  0  0  0
  3 25  1  0  0  0  0
  3 26  1  0  0  0  0
  4  5  1  0  0  0  0
  4  6  1  0  0  0  0
  4 27  1  0  0  0  0
  5 28  1  0  0  0  0
  5 29  1  0  0  0  0
  5 30  1  0  0  0  0
  6  7  1  0  0  0  0
  6 31  1  0  0  0  0
  6 32  1  0  0  0  0
  7  8  1  0  0  0  0
  7 20  1  0  0  0  0
  7 46  1  0  0  0  0
  8  9  1  0  0  0  0
  8 33  1  0  0  0  0
  8 34  1  0  0  0  0
  9 10  1  0  0  0  0
  9 35  1  0  0  0  0
  9 36  1  0  0  0  0
 10 11  1  0  0  0  0
 10 37  1  0  0  0  0
 11 12  2  0  0  0  0
 11 13  1  0  0  0  0
 13 14  1  0  0  0  0
 13 15  1  0  0  0  0
 13 38  1  0  0  0  0
 14 39  1  0  0  0  0
 14 40  1  0  0  0  0
 14 41  1  0  0  0  0
 15 19  1  0  0  0  0
 15 16  1  0  0  0  0
 16 17  2  0  0  0  0
 16 42  1  0  0  0  0
 17 18  1  0  0  0  0
 18 19  2  0  0  0  0
 18 43  1  0  0  0  0
 20 44  1  0  0  0  0
 20 45  1  0  0  0  0
M  CHG  1   7   1
M  END
> <s_m_source_file>
AV-unprocessed.smi

> <i_m_source_file_index>
3337

> <i_lp_mmshare_version>
43012

> <i_f3d_flags>
0

> <s_epik_input>
W0NIM11bQ0BASF0xW0NIMl1bQ0BASF0oW0NIM10pW0NIMl1OKFtDSDJdMSlbQ0gyXVtDSDJdW05IXUMoPU8pW0NASF0oW0NIM10pbjJbY0hdbltjSF1uMg==

> <s_epik_cmdline>
J2VwaWtfcHl0aG9uJywgJy1waCcsICc3LjAnLCAnLXRuJywgJzgnLCAnLW1hJywgJzIwMCcsICctbWV0YWxfYmluZGluZycsICctaW1hZScsICc8aW5maWxlLm1hZT4nLCAnLW9tYWUnLCAnPG91dGZpbGUubWFlPic=

> <r_lp_tautomer_probability>
1

> <r_epik_Ionization_Penalty>
0.00175613

> <r_epik_Ionization_Penalty_Charging>
0.00174812

> <r_epik_Ionization_Penalty_Neutral>
8.01354e-06

> <r_epik_State_Penalty>
0.00118332

> <r_epik_Charging_Adjusted_Penalty>
0.00293143

> <i_epik_Tot_Q>
1

> <i_epik_Tot_abs_Q>
1

> <r_epik_Metal_State_Penalty>
-0

> <b_epik_Metal_Only>
0

> <s_lp_Force_Field>
OPLS_2005

> <r_lp_Energy>
22.1479

> <b_lp_Chiralities_Consistent>
1

> <s_lp_Variant>
AV-unprocessed.smi:3337-3

> <Gold.Version>
5.8.1

> <Gold.Id.Protein>
6NUR|6NUR_protein|mol2

> <Gold.PLP.Fitness>
45.3653

> <Gold.PLP.PLP>
-30.4637

> <Gold.PLP.part.hbond>
-4.0000

> <Gold.PLP.part.metal>
0.0000

> <Gold.PLP.part.buried>
2.0039

> <Gold.PLP.part.nonpolar>
-28.4577

> <Gold.PLP.part.repulsive>
0.1454

> <Gold.PLP.ligand.clash>
0.0000

> <Gold.PLP.ligand.torsion>
0.8816

> <Gold.PLP.Chemscore.Hbond>
4.6027

> <Gold.PLP.Chemscore.CHOScore>
0.9146

> <Gold.PLP.Chemscore.Metal>
0.0000

> <Gold.Chemscore.Hbonds>
donor molecule, donor type, donor heavy atom, donor atom, acceptor molecule, acceptor atom, score
      L1  H     7    46       P1  7948  2.00
      L1  H    10    37       P1  7948  1.00
      P1  H  7989  7998       L1    19  1.00
      P1  H 10752 10765       L1    17  0.61
      L1  C    16    42       P1  7948  0.36
      L1  C    16    42       P1  7949  0.51

> <Gold.PLP.Chemscore.Internal.Correction>
0.1128

> <Gold.Rescore>
     Score         DG    S(hbond)    S(metal)    S(lipo)     H(rot)  DE(clash)    DE(int)     intcor
     11.77     -14.16       2.44        0.00      59.58       2.51       1.81       0.58       ----

> <Gold.Chemscore.Fitness>
11.7658

> <Gold.Chemscore.DG>
-14.1564

> <Gold.Chemscore.ZeroCoef>
-5.4800

> <Gold.Chemscore.Hbond>
2.4368

> <Gold.Chemscore.Metal>
0.0000

> <Gold.Chemscore.Lipo>
59.5762

> <Gold.Chemscore.Internal_Hbond>
0.0000

> <Gold.Chemscore.DEClash>
1.8143

> <Gold.Chemscore.DEInternal>
0.5763

> <Gold.Chemscore.Rot>
2.5129

> <Gold.Chemscore.Internal.Correction>
   9.000000E+99

> <Gold.Chemscore.Hbonds>
donor molecule, donor type, donor heavy atom, donor atom, acceptor molecule, acceptor atom, score
      L1  H     7    46       P1  7948  0.95
      L1  H    10    37       P1  7948  0.97
      P1  H  7989  7998       L1    19  0.12
      P1  H 10752 10765       L1    17  0.28

> <Gold.Chemscore.Hbond.Weighted>
-8.1390

> <Gold.Chemscore.Metal.Weighted>
-0.0000

> <Gold.Chemscore.Lipo.Weighted>
-6.9704

> <Gold.Chemscore.Internal_Hbond.Weighted>
0.0000

> <Gold.Chemscore.DEClash.Weighted>
1.8143

> <Gold.Chemscore.DEInternal.Weighted>
0.5763

> <Gold.Chemscore.Rot.Weighted>
6.4331

> <Gold.Chemscore.Internal.Correction.Weighted>
   9.000000E+99

> <Gold.Protein.RotatedTorsions>
[ 6907 6896 6895 6894 ] final   78.14 input  -60.11 | X-H torsion
[ 7974 7965 7964 7962 ] final  179.40 input  175.53 | X-H torsion
[ 8008 7997 7996 7995 ] final  163.96 input   59.86 | X-H torsion
[ 10167 10162 10161 10158 ] final  -10.83 input  -65.29 | X-H torsion
[ 10718 10713 10712 10709 ] final  175.34 input   66.30 | X-H torsion
[ 10763 10752 10751 10750 ] final  149.66 input  -60.55 | X-H torsion
[ 11005 11000 10999 10996 ] final   53.02 input  -57.11 | X-H torsion

> <Gold.Protein.ActiveResidues>
 VAL166  LYS551  ARG553  GLY616  TRP617  ASP618  TYR619  PRO620  LYS621  CYS622 
 ASP623  PHE694  ASN695  SER759  ASP760  ASP761  ALA762  ILE779  LEU786  VAL792 
 PHE793  MET794  SER795  GLU796  ALA797  LYS798  CYS799  TRP800  GLU811  SER814 

> <Gold.Protein.RotatedAtoms>
  152.5147  134.3710  159.9317 H   0  0  0  0  0  0  0  0  0  0  0  0  # atno 6907 bound_to 6896
  151.3664  133.3864  159.2703 H   0  0  0  0  0  0  0  0  0  0  0  0  # atno 6908 bound_to 6896
  150.9612  134.9019  159.7790 H   0  0  0  0  0  0  0  0  0  0  0  0  # atno 6909 bound_to 6896
  144.7146  140.0542  143.6434 H   0  0  0  0  0  0  0  0  0  0  0  0  # atno 7974 bound_to 7965
  156.1917  140.1709  156.8079 H   0  0  0  0  0  0  0  0  0  0  0  0  # atno 8008 bound_to 7997
  154.5479  140.0723  156.8651 H   0  0  0  0  0  0  0  0  0  0  0  0  # atno 8009 bound_to 7997
  155.3085  140.3366  155.4247 H   0  0  0  0  0  0  0  0  0  0  0  0  # atno 8010 bound_to 7997
  140.7123  143.5706  150.9097 H   0  0  0  0  0  0  0  0  0  0  0  0  # atno 10167 bound_to 10162
  156.9364  130.9987  151.2977 H   0  0  0  0  0  0  0  0  0  0  0  0  # atno 10718 bound_to 10713
  154.0748  135.2864  155.3301 H   0  0  0  0  0  0  0  0  0  0  0  0  # atno 10763 bound_to 10752
  154.6723  135.5295  153.8157 H   0  0  0  0  0  0  0  0  0  0  0  0  # atno 10764 bound_to 10752
  153.0471  135.6560  154.0927 H   0  0  0  0  0  0  0  0  0  0  0  0  # atno 10765 bound_to 10752
  140.0801  134.5350  155.8955 H   0  0  0  0  0  0  0  0  0  0  0  0  # atno 11005 bound_to 11000
  145.9918  139.3021  143.0980 LP  0  0  0  0  0  0  0  0  0  0  0  0  # atno 17320 bound_to 7965
  145.8894  140.9313  143.0560 LP  0  0  0  0  0  0  0  0  0  0  0  0  # atno 17321 bound_to 7965
  139.9432  143.6358  152.3048 LP  0  0  0  0  0  0  0  0  0  0  0  0  # atno 17342 bound_to 10162
  139.6850  144.7652  151.1540 LP  0  0  0  0  0  0  0  0  0  0  0  0  # atno 17343 bound_to 10162
  157.5814  130.8379  149.8527 LP  0  0  0  0  0  0  0  0  0  0  0  0  # atno 17370 bound_to 10713
  156.0424  130.3736  150.1402 LP  0  0  0  0  0  0  0  0  0  0  0  0  # atno 17371 bound_to 10713
  141.2044  133.6638  156.6117 LP  0  0  0  0  0  0  0  0  0  0  0  0  # atno 17394 bound_to 11000
  140.3500  134.7777  157.4460 LP  0  0  0  0  0  0  0  0  0  0  0  0  # atno 17395 bound_to 11000

$$$$
