AV-unprocessed.smi:1726|AV-procd|sdf|6962|dock2
  -GOLD-   22720 8173D 1   1.00000     0.00000
 Structure written by MMmdl.
 42 43  0  0  0  0  0  0  0  0  3 V2000
  144.7444  132.9487  151.0931 C   0  0  0  0  0  0  0  0  0  0  0  0
  145.7106  134.1378  150.9879 C   0  0  0  0  0  0  0  0  0  0  0  0
  146.6970  134.1608  152.0963 N   0  3  2  0  0  0  0  0  0  0  0  0
  147.5027  132.9141  152.1686 C   0  0  0  0  0  0  0  0  0  0  0  0
  148.6191  133.0336  153.2211 C   0  0  0  0  0  0  0  0  0  0  0  0
  148.0567  133.4299  154.5971 C   0  0  0  0  0  0  0  0  0  0  0  0
  147.1791  134.6902  154.4927 C   0  0  1  0  0  0  0  0  0  0  0  0
  148.0142  135.8560  154.2004 N   0  0  0  0  0  0  0  0  0  0  0  0
  148.8426  136.4559  155.0676 C   0  0  0  0  0  0  0  0  0  0  0  0
  148.9929  136.0708  156.2265 O   0  0  0  0  0  0  0  0  0  0  0  0
  149.4597  137.5032  154.4921 N   0  0  0  0  0  0  0  0  0  0  0  0
  150.3589  138.4314  155.0455 C   0  0  0  0  0  0  0  0  0  0  0  0
  150.0033  139.5421  155.7500 C   0  0  0  0  0  0  0  0  0  0  0  0
  150.9892  140.4727  156.2861 C   0  0  0  0  0  0  0  0  0  0  0  0
  150.6480  141.7158  157.0875 C   0  0  0  0  0  0  0  0  0  0  0  0
  149.3263  141.8393  157.2054 F   0  0  0  0  0  0  0  0  0  0  0  0
  151.1648  141.6303  158.3127 F   0  0  0  0  0  0  0  0  0  0  0  0
  151.1236  142.8172  156.5061 F   0  0  0  0  0  0  0  0  0  0  0  0
  152.2836  140.0987  155.9861 C   0  0  0  0  0  0  0  0  0  0  0  0
  152.7191  139.0265  155.2891 N   0  5  0  0  0  0  0  0  0  0  0  0
  151.7902  138.1599  154.7960 C   0  0  0  0  0  0  0  0  0  0  0  0
  152.1176  137.1640  154.1497 O   0  0  0  0  0  0  0  0  0  0  0  0
  146.0913  134.4809  153.4159 C   0  0  0  0  0  0  0  0  0  0  0  0
  143.9865  133.0004  150.3111 H   0  0  0  0  0  0  0  0  0  0  0  0
  144.2272  132.9457  152.0531 H   0  0  0  0  0  0  0  0  0  0  0  0
  145.2544  131.9921  150.9846 H   0  0  0  0  0  0  0  0  0  0  0  0
  146.2253  134.1354  150.0260 H   0  0  0  0  0  0  0  0  0  0  0  0
  145.1145  135.0508  151.0164 H   0  0  0  0  0  0  0  0  0  0  0  0
  146.8503  132.0716  152.4047 H   0  0  0  0  0  0  0  0  0  0  0  0
  147.9510  132.7050  151.1965 H   0  0  0  0  0  0  0  0  0  0  0  0
  149.1580  132.0890  153.2993 H   0  0  0  0  0  0  0  0  0  0  0  0
  149.3492  133.7748  152.8939 H   0  0  0  0  0  0  0  0  0  0  0  0
  147.4596  132.6065  154.9915 H   0  0  0  0  0  0  0  0  0  0  0  0
  148.8692  133.5858  155.3079 H   0  0  0  0  0  0  0  0  0  0  0  0
  146.6977  134.8541  155.4584 H   0  0  0  0  0  0  0  0  0  0  0  0
  147.9645  136.2280  153.2630 H   0  0  0  0  0  0  0  0  0  0  0  0
  149.2733  137.6498  153.5107 H   0  0  0  0  0  0  0  0  0  0  0  0
  148.9679  139.7802  155.9237 H   0  0  0  0  0  0  0  0  0  0  0  0
  153.0893  140.7633  156.3650 H   0  0  0  0  0  0  0  0  0  0  0  0
  145.4680  135.3711  153.3439 H   0  0  0  0  0  0  0  0  0  0  0  0
  145.4243  133.6700  153.7137 H   0  0  0  0  0  0  0  0  0  0  0  0
  147.3459  134.9049  151.8828 H   0  0  0  0  0  0  0  0  0  0  0  0
  1  2  1  0  0  0  0
  1 24  1  0  0  0  0
  1 25  1  0  0  0  0
  1 26  1  0  0  0  0
  2  3  1  0  0  0  0
  2 27  1  0  0  0  0
  2 28  1  0  0  0  0
  3 23  1  0  0  0  0
  3  4  1  0  0  0  0
  3 42  1  0  0  0  0
  4  5  1  0  0  0  0
  4 29  1  0  0  0  0
  4 30  1  0  0  0  0
  5  6  1  0  0  0  0
  5 31  1  0  0  0  0
  5 32  1  0  0  0  0
  6  7  1  0  0  0  0
  6 33  1  0  0  0  0
  6 34  1  0  0  0  0
  7  8  1  0  0  0  0
  7 23  1  0  0  0  0
  7 35  1  0  0  0  0
  8  9  1  0  0  0  0
  8 36  1  0  0  0  0
  9 10  2  0  0  0  0
  9 11  1  0  0  0  0
 11 12  1  0  0  0  0
 11 37  1  0  0  0  0
 12 21  1  0  0  0  0
 12 13  2  0  0  0  0
 13 14  1  0  0  0  0
 13 38  1  0  0  0  0
 14 15  1  0  0  0  0
 14 19  2  0  0  0  0
 15 16  1  0  0  0  0
 15 17  1  0  0  0  0
 15 18  1  0  0  0  0
 19 20  1  0  0  0  0
 19 39  1  0  0  0  0
 20 21  1  0  0  0  0
 21 22  2  0  0  0  0
 23 40  1  0  0  0  0
 23 41  1  0  0  0  0
M  CHG  1   3   1
M  CHG  1  20  -1
M  END
> <s_m_source_file>
AV-unprocessed.smi

> <i_m_source_file_index>
1726

> <i_lp_mmshare_version>
43012

> <i_f3d_flags>
0

> <s_epik_input>
W0NIM11bQ0gyXU4xW0NIMl1bQ0gyXVtDSDJdW0NASF0oW0NIMl0xKVtOSF1DKD1PKVtOSF1jMltjSF1jKEMoRikoRilGKVtjSF1bbkhdYzI9Tw==

> <s_epik_cmdline>
J2VwaWtfcHl0aG9uJywgJy1waCcsICc3LjAnLCAnLXRuJywgJzgnLCAnLW1hJywgJzIwMCcsICctbWV0YWxfYmluZGluZycsICctaW1hZScsICc8aW5maWxlLm1hZT4nLCAnLW9tYWUnLCAnPG91dGZpbGUubWFlPic=

> <r_lp_tautomer_probability>
1

> <r_epik_Ionization_Penalty>
3.01007

> <r_epik_Ionization_Penalty_Charging>
0.14897

> <r_epik_Ionization_Penalty_Neutral>
2.8611

> <r_epik_State_Penalty>
2.85632

> <r_epik_Charging_Adjusted_Penalty>
3.00529

> <i_epik_Tot_Q>
0

> <i_epik_Tot_abs_Q>
2

> <r_epik_Metal_State_Penalty>
0.443826

> <b_epik_Metal_Only>
1

> <s_lp_Force_Field>
OPLS_2005

> <r_lp_Energy>
34.8935

> <b_lp_Chiralities_Consistent>
1

> <s_lp_Variant>
AV-unprocessed.smi:1726-6

> <Gold.Version>
5.8.1

> <Gold.Id.Protein>
6NUR|6NUR_protein|mol2

> <Gold.PLP.Fitness>
43.4662

> <Gold.PLP.PLP>
-33.0131

> <Gold.PLP.part.hbond>
-4.4417

> <Gold.PLP.part.metal>
0.0000

> <Gold.PLP.part.buried>
-1.2002

> <Gold.PLP.part.nonpolar>
-28.1403

> <Gold.PLP.part.repulsive>
1.1612

> <Gold.PLP.ligand.clash>
0.0000

> <Gold.PLP.ligand.torsion>
0.9311

> <Gold.PLP.Chemscore.Hbond>
4.0827

> <Gold.PLP.Chemscore.CHOScore>
0.0000

> <Gold.PLP.Chemscore.Metal>
0.0000

> <Gold.Chemscore.Hbonds>
donor molecule, donor type, donor heavy atom, donor atom, acceptor molecule, acceptor atom, score
      L1  H     3    42       P1  7948  1.95
      L1  H     8    36       P1  7948  0.74
      L1  H    11    37       P1  7948  0.42
      P1  H 10752 10765       L1    22  0.91

> <Gold.PLP.Chemscore.Internal.Correction>
0.0672

> <Gold.Rescore>
     Score         DG    S(hbond)    S(metal)    S(lipo)     H(rot)  DE(clash)    DE(int)     intcor
     17.07     -19.14       2.81        0.00      64.50       1.28       1.08       0.99       ----

> <Gold.Chemscore.Fitness>
17.0708

> <Gold.Chemscore.DG>
-19.1412

> <Gold.Chemscore.ZeroCoef>
-5.4800

> <Gold.Chemscore.Hbond>
2.8114

> <Gold.Chemscore.Metal>
0.0000

> <Gold.Chemscore.Lipo>
64.5038

> <Gold.Chemscore.Internal_Hbond>
0.0000

> <Gold.Chemscore.DEClash>
1.0803

> <Gold.Chemscore.DEInternal>
0.9901

> <Gold.Chemscore.Rot>
1.2796

> <Gold.Chemscore.Internal.Correction>
   9.000000E+99

> <Gold.Chemscore.Hbonds>
donor molecule, donor type, donor heavy atom, donor atom, acceptor molecule, acceptor atom, score
      L1  H     3    42       P1  7948  0.79
      L1  H     8    36       P1  7948  0.74
      L1  H    11    37       P1  7948  0.41
      P1  H 10752 10765       L1    22  0.90

> <Gold.Chemscore.Hbond.Weighted>
-9.3901

> <Gold.Chemscore.Metal.Weighted>
-0.0000

> <Gold.Chemscore.Lipo.Weighted>
-7.5469

> <Gold.Chemscore.Internal_Hbond.Weighted>
0.0000

> <Gold.Chemscore.DEClash.Weighted>
1.0803

> <Gold.Chemscore.DEInternal.Weighted>
0.9901

> <Gold.Chemscore.Rot.Weighted>
3.2759

> <Gold.Chemscore.Internal.Correction.Weighted>
   9.000000E+99

> <Gold.Protein.RotatedTorsions>
[ 6907 6896 6895 6894 ] final   -0.12 input  -60.11 | X-H torsion
[ 7974 7965 7964 7962 ] final -130.02 input  175.53 | X-H torsion
[ 8008 7997 7996 7995 ] final  147.89 input   59.86 | X-H torsion
[ 10167 10162 10161 10158 ] final    5.47 input  -65.29 | X-H torsion
[ 10718 10713 10712 10709 ] final  -36.24 input   66.30 | X-H torsion
[ 10763 10752 10751 10750 ] final  143.98 input  -60.55 | X-H torsion
[ 11005 11000 10999 10996 ] final -112.94 input  -57.11 | X-H torsion

> <Gold.Protein.ActiveResidues>
 VAL166  LYS551  ARG553  GLY616  TRP617  ASP618  TYR619  PRO620  LYS621  CYS622 
 ASP623  PHE694  ASN695  SER759  ASP760  ASP761  ALA762  ILE779  LEU786  VAL792 
 PHE793  MET794  SER795  GLU796  ALA797  LYS798  CYS799  TRP800  GLU811  SER814 

> <Gold.Protein.RotatedAtoms>
  151.5675  135.1063  159.9986 H   0  0  0  0  0  0  0  0  0  0  0  0  # atno 6907 bound_to 6896
  152.4417  133.7456  159.6676 H   0  0  0  0  0  0  0  0  0  0  0  0  # atno 6908 bound_to 6896
  150.8324  133.8001  159.3117 H   0  0  0  0  0  0  0  0  0  0  0  0  # atno 6909 bound_to 6896
  144.9516  140.7350  143.4784 H   0  0  0  0  0  0  0  0  0  0  0  0  # atno 7974 bound_to 7965
  156.2810  140.2143  156.5610 H   0  0  0  0  0  0  0  0  0  0  0  0  # atno 8008 bound_to 7997
  154.7213  140.0503  157.0665 H   0  0  0  0  0  0  0  0  0  0  0  0  # atno 8009 bound_to 7997
  155.0475  140.3152  155.4706 H   0  0  0  0  0  0  0  0  0  0  0  0  # atno 8010 bound_to 7997
  140.6480  143.7615  150.7529 H   0  0  0  0  0  0  0  0  0  0  0  0  # atno 10167 bound_to 10162
  156.3291  130.4277  149.7889 H   0  0  0  0  0  0  0  0  0  0  0  0  # atno 10718 bound_to 10713
  153.9812  135.2941  155.3420 H   0  0  0  0  0  0  0  0  0  0  0  0  # atno 10763 bound_to 10752
  154.7268  135.5085  153.8902 H   0  0  0  0  0  0  0  0  0  0  0  0  # atno 10764 bound_to 10752
  153.0853  135.6691  154.0075 H   0  0  0  0  0  0  0  0  0  0  0  0  # atno 10765 bound_to 10752
  141.0644  133.9482  157.2606 H   0  0  0  0  0  0  0  0  0  0  0  0  # atno 11005 bound_to 11000
  145.2836  139.1909  143.4778 LP  0  0  0  0  0  0  0  0  0  0  0  0  # atno 17320 bound_to 7965
  146.3323  140.2802  142.8610 LP  0  0  0  0  0  0  0  0  0  0  0  0  # atno 17321 bound_to 7965
  140.1260  143.4569  152.2284 LP  0  0  0  0  0  0  0  0  0  0  0  0  # atno 17342 bound_to 10162
  139.5692  144.7453  151.3937 LP  0  0  0  0  0  0  0  0  0  0  0  0  # atno 17343 bound_to 10162
  156.5168  130.8197  151.3189 LP  0  0  0  0  0  0  0  0  0  0  0  0  # atno 17370 bound_to 10713
  157.7427  130.9896  150.2536 LP  0  0  0  0  0  0  0  0  0  0  0  0  # atno 17371 bound_to 10713
  139.9463  135.0183  156.8861 LP  0  0  0  0  0  0  0  0  0  0  0  0  # atno 17394 bound_to 11000
  140.5803  134.0359  155.7461 LP  0  0  0  0  0  0  0  0  0  0  0  0  # atno 17395 bound_to 11000

$$$$
