AV-unprocessed.smi:1505|AV-procd|sdf|6075|dock10
  -GOLD-   22720 6193D 1   1.00000     0.00000
 Structure written by MMmdl.
 44 45  0  0  0  0  0  0  0  0  1 V2000
  151.9877  144.9533  161.5938 C   0  0  0  0  0  0  0  0  0  0  0  0
  152.1672  143.5098  161.1185 C   0  0  0  0  0  0  0  0  0  0  0  0
  151.8862  142.6035  161.9028 O   0  0  0  0  0  0  0  0  0  0  0  0
  152.6290  143.2776  159.8662 N   0  0  0  0  0  0  0  0  0  0  0  0
  152.7899  141.9541  159.2527 C   0  0  0  0  0  0  0  0  0  0  0  0
  151.7070  141.7743  158.1755 C   0  0  0  0  0  0  0  0  0  0  0  0
  151.7601  142.9122  157.1261 C   0  0  0  0  0  0  0  0  0  0  0  0
  150.6048  142.8411  156.2374 N   0  0  0  0  0  0  0  0  0  0  0  0
  150.2690  141.7707  155.5051 C   0  0  0  0  0  0  0  0  0  0  0  0
  150.9536  140.7502  155.4235 O   0  0  0  0  0  0  0  0  0  0  0  0
  149.0681  141.9203  154.9268 N   0  0  0  0  0  0  0  0  0  0  0  0
  148.3204  140.8571  154.2577 C   0  0  0  0  0  0  0  0  0  0  0  0
  146.8429  140.8234  154.7010 C   0  0  0  0  0  0  0  0  0  0  0  0
  146.1545  142.1562  154.5550 C   0  0  0  0  0  0  0  0  0  0  0  0
  145.3679  142.8420  155.5248 C   0  0  0  0  0  0  0  0  0  0  0  0
  144.8552  143.9721  155.0670 N   0  0  0  0  0  0  0  0  0  0  0  0
  145.2998  144.0507  153.7962 N   0  0  0  0  0  0  0  0  0  0  0  0
  144.9120  145.1766  152.9746 C   0  0  0  0  0  0  0  0  0  0  0  0
  146.0941  142.9748  153.4625 C   0  0  0  0  0  0  0  0  0  0  0  0
  151.8092  144.2999  157.8015 C   0  0  0  0  0  0  0  0  0  0  0  0
  152.8852  144.3532  158.9014 C   0  0  0  0  0  0  0  0  0  0  0  0
  152.9308  145.4985  161.5424 H   0  0  0  0  0  0  0  0  0  0  0  0
  151.6468  144.9770  162.6294 H   0  0  0  0  0  0  0  0  0  0  0  0
  151.2444  145.4703  160.9866 H   0  0  0  0  0  0  0  0  0  0  0  0
  153.7796  141.8874  158.7985 H   0  0  0  0  0  0  0  0  0  0  0  0
  152.7438  141.1323  159.9657 H   0  0  0  0  0  0  0  0  0  0  0  0
  151.8282  140.8041  157.6918 H   0  0  0  0  0  0  0  0  0  0  0  0
  150.7265  141.7566  158.6543 H   0  0  0  0  0  0  0  0  0  0  0  0
  152.6708  142.7966  156.5352 H   0  0  0  0  0  0  0  0  0  0  0  0
  149.9775  143.6320  156.2417 H   0  0  0  0  0  0  0  0  0  0  0  0
  148.5909  142.8015  155.0483 H   0  0  0  0  0  0  0  0  0  0  0  0
  148.3786  141.0165  153.1809 H   0  0  0  0  0  0  0  0  0  0  0  0
  148.7852  139.8875  154.4446 H   0  0  0  0  0  0  0  0  0  0  0  0
  146.3205  140.0662  154.1153 H   0  0  0  0  0  0  0  0  0  0  0  0
  146.7911  140.4771  155.7335 H   0  0  0  0  0  0  0  0  0  0  0  0
  145.1401  142.5425  156.5370 H   0  0  0  0  0  0  0  0  0  0  0  0
  145.3611  145.0897  151.9849 H   0  0  0  0  0  0  0  0  0  0  0  0
  145.2487  146.1049  153.4368 H   0  0  0  0  0  0  0  0  0  0  0  0
  143.8268  145.1993  152.8702 H   0  0  0  0  0  0  0  0  0  0  0  0
  146.5283  142.8694  152.4791 H   0  0  0  0  0  0  0  0  0  0  0  0
  152.0000  145.0728  157.0561 H   0  0  0  0  0  0  0  0  0  0  0  0
  150.8386  144.5304  158.2441 H   0  0  0  0  0  0  0  0  0  0  0  0
  152.8953  145.3414  159.3633 H   0  0  0  0  0  0  0  0  0  0  0  0
  153.8760  144.2206  158.4646 H   0  0  0  0  0  0  0  0  0  0  0  0
  1  2  1  0  0  0  0
  1 22  1  0  0  0  0
  1 23  1  0  0  0  0
  1 24  1  0  0  0  0
  2  3  2  0  0  0  0
  2  4  1  0  0  0  0
  4 21  1  0  0  0  0
  4  5  1  0  0  0  0
  5  6  1  0  0  0  0
  5 25  1  0  0  0  0
  5 26  1  0  0  0  0
  6  7  1  0  0  0  0
  6 27  1  0  0  0  0
  6 28  1  0  0  0  0
  7  8  1  0  0  0  0
  7 20  1  0  0  0  0
  7 29  1  0  0  0  0
  8  9  1  0  0  0  0
  8 30  1  0  0  0  0
  9 10  2  0  0  0  0
  9 11  1  0  0  0  0
 11 12  1  0  0  0  0
 11 31  1  0  0  0  0
 12 13  1  0  0  0  0
 12 32  1  0  0  0  0
 12 33  1  0  0  0  0
 13 14  1  0  0  0  0
 13 34  1  0  0  0  0
 13 35  1  0  0  0  0
 14 19  2  0  0  0  0
 14 15  1  0  0  0  0
 15 16  2  0  0  0  0
 15 36  1  0  0  0  0
 16 17  1  0  0  0  0
 17 18  1  0  0  0  0
 17 19  1  0  0  0  0
 18 37  1  0  0  0  0
 18 38  1  0  0  0  0
 18 39  1  0  0  0  0
 19 40  1  0  0  0  0
 20 21  1  0  0  0  0
 20 41  1  0  0  0  0
 20 42  1  0  0  0  0
 21 43  1  0  0  0  0
 21 44  1  0  0  0  0
M  END
> <s_m_source_file>
AV-unprocessed.smi

> <i_m_source_file_index>
1505

> <i_lp_mmshare_version>
43012

> <i_f3d_flags>
0

> <s_epik_input>
W0NIM11DKD1PKU4xW0NIMl1bQ0gyXVtDSF0oW0NIMl1bQ0gyXTEpW05IXUMoPU8pW05IXVtDSDJdW0NIMl1jMltjSF1ubihbQ0gzXSlbY0hdMg==

> <s_epik_cmdline>
J2VwaWtfcHl0aG9uJywgJy1waCcsICc3LjAnLCAnLXRuJywgJzgnLCAnLW1hJywgJzIwMCcsICctbWV0YWxfYmluZGluZycsICctaW1hZScsICc8aW5maWxlLm1hZT4nLCAnLW9tYWUnLCAnPG91dGZpbGUubWFlPic=

> <r_lp_tautomer_probability>
1

> <r_epik_Ionization_Penalty>
0.000559595

> <r_epik_Ionization_Penalty_Charging>
0

> <r_epik_Ionization_Penalty_Neutral>
0.000559595

> <r_epik_State_Penalty>
-0

> <r_epik_Charging_Adjusted_Penalty>
0

> <i_epik_Tot_Q>
0

> <i_epik_Tot_abs_Q>
0

> <r_epik_Metal_State_Penalty>
-0

> <b_epik_Metal_Only>
0

> <s_lp_Force_Field>
OPLS_2005

> <r_lp_Energy>
17.177

> <b_lp_Chiralities_Consistent>
1

> <s_lp_Variant>
AV-unprocessed.smi:1505-1

> <Gold.Version>
5.8.1

> <Gold.Id.Protein>
6NUR|6NUR_protein|mol2

> <Gold.PLP.Fitness>
56.7795

> <Gold.PLP.PLP>
-46.5567

> <Gold.PLP.part.hbond>
-4.0000

> <Gold.PLP.part.metal>
0.0000

> <Gold.PLP.part.buried>
-4.5368

> <Gold.PLP.part.nonpolar>
-38.3594

> <Gold.PLP.part.repulsive>
0.6604

> <Gold.PLP.ligand.clash>
0.0000

> <Gold.PLP.ligand.torsion>
0.1844

> <Gold.PLP.Chemscore.Hbond>
3.5228

> <Gold.PLP.Chemscore.CHOScore>
0.0000

> <Gold.PLP.Chemscore.Metal>
0.0000

> <Gold.Chemscore.Hbonds>
donor molecule, donor type, donor heavy atom, donor atom, acceptor molecule, acceptor atom, score
      L1  H     8    30       P1  8028  1.00
      L1  H    11    31       P1  8028  0.86
      P1  H  6933  6945       L1     3  0.80
      P1  H  7989  7998       L1    10  0.82

> <Gold.PLP.Chemscore.Internal.Correction>
0.0233

> <Gold.Rescore>
     Score         DG    S(hbond)    S(metal)    S(lipo)     H(rot)  DE(clash)    DE(int)     intcor
     19.30     -22.80       2.78        0.00     105.67       1.69       3.43       0.07       ----

> <Gold.Chemscore.Fitness>
19.2985

> <Gold.Chemscore.DG>
-22.8041

> <Gold.Chemscore.ZeroCoef>
-5.4800

> <Gold.Chemscore.Hbond>
2.7802

> <Gold.Chemscore.Metal>
0.0000

> <Gold.Chemscore.Lipo>
105.6739

> <Gold.Chemscore.Internal_Hbond>
0.0000

> <Gold.Chemscore.DEClash>
3.4332

> <Gold.Chemscore.DEInternal>
0.0725

> <Gold.Chemscore.Rot>
1.6896

> <Gold.Chemscore.Internal.Correction>
   9.000000E+99

> <Gold.Chemscore.Hbonds>
donor molecule, donor type, donor heavy atom, donor atom, acceptor molecule, acceptor atom, score
      L1  H     8    30       P1  8028  0.99
      L1  H    11    31       P1  8028  0.80
      P1  H  6933  6945       L1     3  0.75
      P1  H  7989  7998       L1    10  0.23

> <Gold.Chemscore.Hbond.Weighted>
-9.2858

> <Gold.Chemscore.Metal.Weighted>
-0.0000

> <Gold.Chemscore.Lipo.Weighted>
-12.3638

> <Gold.Chemscore.Internal_Hbond.Weighted>
0.0000

> <Gold.Chemscore.DEClash.Weighted>
3.4332

> <Gold.Chemscore.DEInternal.Weighted>
0.0725

> <Gold.Chemscore.Rot.Weighted>
4.3255

> <Gold.Chemscore.Internal.Correction.Weighted>
   9.000000E+99

> <Gold.Protein.RotatedTorsions>
[ 6907 6896 6895 6894 ] final  -61.10 input  -60.11 | X-H torsion
[ 7974 7965 7964 7962 ] final -116.71 input  175.53 | X-H torsion
[ 8008 7997 7996 7995 ] final  163.88 input   59.86 | X-H torsion
[ 10167 10162 10161 10158 ] final   69.31 input  -65.29 | X-H torsion
[ 10718 10713 10712 10709 ] final   49.94 input   66.30 | X-H torsion
[ 10763 10752 10751 10750 ] final  131.82 input  -60.55 | X-H torsion
[ 11005 11000 10999 10996 ] final   64.76 input  -57.11 | X-H torsion

> <Gold.Protein.ActiveResidues>
 VAL166  LYS551  ARG553  GLY616  TRP617  ASP618  TYR619  PRO620  LYS621  CYS622 
 ASP623  PHE694  ASN695  SER759  ASP760  ASP761  ALA762  ILE779  LEU786  VAL792 
 PHE793  MET794  SER795  GLU796  ALA797  LYS798  CYS799  TRP800  GLU811  SER814 

> <Gold.Protein.RotatedAtoms>
  150.7809  134.6750  159.6411 H   0  0  0  0  0  0  0  0  0  0  0  0  # atno 6907 bound_to 6896
  152.3893  134.6464  160.0123 H   0  0  0  0  0  0  0  0  0  0  0  0  # atno 6908 bound_to 6896
  151.6770  133.3276  159.3246 H   0  0  0  0  0  0  0  0  0  0  0  0  # atno 6909 bound_to 6896
  145.0936  140.8506  143.3968 H   0  0  0  0  0  0  0  0  0  0  0  0  # atno 7974 bound_to 7965
  156.1923  140.1711  156.8068 H   0  0  0  0  0  0  0  0  0  0  0  0  # atno 8008 bound_to 7997
  154.5486  140.0722  156.8662 H   0  0  0  0  0  0  0  0  0  0  0  0  # atno 8009 bound_to 7997
  155.3073  140.3365  155.4247 H   0  0  0  0  0  0  0  0  0  0  0  0  # atno 8010 bound_to 7997
  140.0692  144.5167  150.7239 H   0  0  0  0  0  0  0  0  0  0  0  0  # atno 10167 bound_to 10162
  157.4836  130.8330  149.8121 H   0  0  0  0  0  0  0  0  0  0  0  0  # atno 10718 bound_to 10713
  153.7806  135.3169  155.3365 H   0  0  0  0  0  0  0  0  0  0  0  0  # atno 10763 bound_to 10752
  154.8163  135.4634  154.0655 H   0  0  0  0  0  0  0  0  0  0  0  0  # atno 10764 bound_to 10752
  153.1942  135.6913  153.8398 H   0  0  0  0  0  0  0  0  0  0  0  0  # atno 10765 bound_to 10752
  139.9938  134.6550  156.0046 H   0  0  0  0  0  0  0  0  0  0  0  0  # atno 11005 bound_to 11000
  145.1037  139.2804  143.5673 LP  0  0  0  0  0  0  0  0  0  0  0  0  # atno 17320 bound_to 7965
  146.3531  140.0612  142.8629 LP  0  0  0  0  0  0  0  0  0  0  0  0  # atno 17321 bound_to 7965
  140.7134  143.2523  151.4511 LP  0  0  0  0  0  0  0  0  0  0  0  0  # atno 17342 bound_to 10162
  139.5846  144.1633  152.2012 LP  0  0  0  0  0  0  0  0  0  0  0  0  # atno 17343 bound_to 10162
  156.0134  130.3823  150.2188 LP  0  0  0  0  0  0  0  0  0  0  0  0  # atno 17370 bound_to 10713
  157.0375  131.0025  151.3294 LP  0  0  0  0  0  0  0  0  0  0  0  0  # atno 17371 bound_to 10713
  141.1587  133.6540  156.4247 LP  0  0  0  0  0  0  0  0  0  0  0  0  # atno 17394 bound_to 11000
  140.4858  134.6622  157.5190 LP  0  0  0  0  0  0  0  0  0  0  0  0  # atno 17395 bound_to 11000

$$$$
