AV-unprocessed.smi:2083|AV-procd|sdf|8494|dock2
  -GOLD-   2272011203D 1   1.00000     0.00000
 Structure written by MMmdl.
 45 46  0  0  0  0  0  0  0  0  2 V2000
  153.3398  142.0185  160.5061 C   0  0  0  0  0  0  0  0  0  0  0  0
  152.5959  142.5661  159.3366 C   0  0  0  0  0  0  0  0  0  0  0  0
  151.7325  142.0053  158.4377 C   0  0  0  0  0  0  0  0  0  0  0  0
  151.3980  143.0963  157.5923 C   0  0  0  0  0  0  0  0  0  0  0  0
  150.4980  142.9298  156.5085 N   0  0  0  0  0  0  0  0  0  0  0  0
  150.1204  141.7767  155.9306 C   0  0  0  0  0  0  0  0  0  0  0  0
  150.4907  140.6541  156.2759 O   0  0  0  0  0  0  0  0  0  0  0  0
  149.2792  141.9904  154.9083 N   0  0  0  0  0  0  0  0  0  0  0  0
  148.7053  140.9355  154.0780 C   0  0  0  0  0  0  0  0  0  0  0  0
  147.2009  141.1565  153.7727 C   0  0  2  0  0  0  0  0  0  0  0  0
  146.4958  141.7909  154.9957 C   0  0  0  0  0  0  0  0  0  0  0  0
  146.5885  139.8704  153.3047 N   0  3  1  0  0  0  0  0  0  0  0  0
  147.1401  139.2965  152.0431 C   0  0  0  0  0  0  0  0  0  0  0  0
  146.3359  138.0685  151.5842 C   0  0  0  0  0  0  0  0  0  0  0  0
  146.2626  137.0014  152.6827 C   0  0  0  0  0  0  0  0  0  0  0  0
  145.7429  137.6006  153.9999 C   0  0  2  0  0  0  0  0  0  0  0  0
  144.2322  137.8910  153.9729 C   0  0  0  0  0  0  0  0  0  0  0  0
  146.5700  138.8426  154.3862 C   0  0  0  0  0  0  0  0  0  0  0  0
  152.0043  144.2208  157.9416 N   0  0  0  0  0  0  0  0  0  0  0  0
  152.7755  143.8865  159.0610 O   0  0  0  0  0  0  0  0  0  0  0  0
  152.9473  141.0437  160.7956 H   0  0  0  0  0  0  0  0  0  0  0  0
  153.2560  142.6842  161.3656 H   0  0  0  0  0  0  0  0  0  0  0  0
  154.3975  141.9011  160.2697 H   0  0  0  0  0  0  0  0  0  0  0  0
  151.3955  140.9800  158.3963 H   0  0  0  0  0  0  0  0  0  0  0  0
  150.1105  143.7802  156.1270 H   0  0  0  0  0  0  0  0  0  0  0  0
  149.0210  142.9415  154.6880 H   0  0  0  0  0  0  0  0  0  0  0  0
  149.2978  140.8549  153.1668 H   0  0  0  0  0  0  0  0  0  0  0  0
  148.8375  139.9884  154.6020 H   0  0  0  0  0  0  0  0  0  0  0  0
  147.1050  141.8766  152.9582 H   0  0  0  0  0  0  0  0  0  0  0  0
  146.9809  142.7181  155.3002 H   0  0  0  0  0  0  0  0  0  0  0  0
  146.5068  141.1221  155.8569 H   0  0  0  0  0  0  0  0  0  0  0  0
  145.4610  142.0563  154.7784 H   0  0  0  0  0  0  0  0  0  0  0  0
  147.0969  140.0222  151.2319 H   0  0  0  0  0  0  0  0  0  0  0  0
  148.1886  139.0317  152.1878 H   0  0  0  0  0  0  0  0  0  0  0  0
  145.3296  138.3756  151.2975 H   0  0  0  0  0  0  0  0  0  0  0  0
  146.7893  137.6438  150.6880 H   0  0  0  0  0  0  0  0  0  0  0  0
  145.6329  136.1700  152.3638 H   0  0  0  0  0  0  0  0  0  0  0  0
  147.2584  136.5861  152.8439 H   0  0  0  0  0  0  0  0  0  0  0  0
  145.8968  136.8515  154.7780 H   0  0  0  0  0  0  0  0  0  0  0  0
  143.9750  138.6517  153.2359 H   0  0  0  0  0  0  0  0  0  0  0  0
  143.8856  138.2447  154.9442 H   0  0  0  0  0  0  0  0  0  0  0  0
  143.6658  136.9909  153.7324 H   0  0  0  0  0  0  0  0  0  0  0  0
  147.5968  138.5424  154.6025 H   0  0  0  0  0  0  0  0  0  0  0  0
  146.1767  139.2553  155.3143 H   0  0  0  0  0  0  0  0  0  0  0  0
  145.6243  140.0891  153.0980 H   0  0  0  0  0  0  0  0  0  0  0  0
  1  2  1  0  0  0  0
  1 21  1  0  0  0  0
  1 22  1  0  0  0  0
  1 23  1  0  0  0  0
  2 20  1  0  0  0  0
  2  3  2  0  0  0  0
  3  4  1  0  0  0  0
  3 24  1  0  0  0  0
  4  5  1  0  0  0  0
  4 19  2  0  0  0  0
  5  6  1  0  0  0  0
  5 25  1  0  0  0  0
  6  7  2  0  0  0  0
  6  8  1  0  0  0  0
  8  9  1  0  0  0  0
  8 26  1  0  0  0  0
  9 10  1  0  0  0  0
  9 27  1  0  0  0  0
  9 28  1  0  0  0  0
 10 11  1  0  0  0  0
 10 12  1  0  0  0  0
 10 29  1  0  0  0  0
 11 30  1  0  0  0  0
 11 31  1  0  0  0  0
 11 32  1  0  0  0  0
 12 18  1  0  0  0  0
 12 13  1  0  0  0  0
 12 45  1  0  0  0  0
 13 14  1  0  0  0  0
 13 33  1  0  0  0  0
 13 34  1  0  0  0  0
 14 15  1  0  0  0  0
 14 35  1  0  0  0  0
 14 36  1  0  0  0  0
 15 16  1  0  0  0  0
 15 37  1  0  0  0  0
 15 38  1  0  0  0  0
 16 17  1  0  0  0  0
 16 18  1  0  0  0  0
 16 39  1  0  0  0  0
 17 40  1  0  0  0  0
 17 41  1  0  0  0  0
 17 42  1  0  0  0  0
 18 43  1  0  0  0  0
 18 44  1  0  0  0  0
 19 20  1  0  0  0  0
M  CHG  1  12   1
M  END
> <s_m_source_file>
AV-unprocessed.smi

> <i_m_source_file_index>
2083

> <i_lp_mmshare_version>
43012

> <i_f3d_flags>
0

> <s_epik_input>
W0NIM11jMVtjSF1jKG5vMSlbTkhdQyg9TylbTkhdW0NIMl1bQ0BIXShbQ0gzXSlOMltDSDJdW0NIMl1bQ0gyXVtDQEBIXShbQ0gzXSlbQ0gyXTI=

> <s_epik_cmdline>
J2VwaWtfcHl0aG9uJywgJy1waCcsICc3LjAnLCAnLXRuJywgJzgnLCAnLW1hJywgJzIwMCcsICctbWV0YWxfYmluZGluZycsICctaW1hZScsICc8aW5maWxlLm1hZT4nLCAnLW9tYWUnLCAnPG91dGZpbGUubWFlPic=

> <r_epik_Ionization_Penalty>
0.00216453

> <r_epik_Ionization_Penalty_Charging>
0.00212879

> <r_epik_Ionization_Penalty_Neutral>
3.57418e-05

> <r_epik_State_Penalty>
0.00146033

> <r_epik_Charging_Adjusted_Penalty>
0.00358912

> <i_epik_Tot_Q>
1

> <i_epik_Tot_abs_Q>
1

> <r_epik_Metal_State_Penalty>
0.0215827

> <b_epik_Metal_Only>
0

> <s_lp_Force_Field>
OPLS_2005

> <r_lp_Energy>
21.862

> <b_lp_Chiralities_Consistent>
1

> <s_lp_Variant>
AV-unprocessed.smi:2083-5

> <Gold.Version>
5.8.1

> <Gold.Id.Protein>
6NUR|6NUR_protein|mol2

> <Gold.PLP.Fitness>
44.8106

> <Gold.PLP.PLP>
-34.0195

> <Gold.PLP.part.hbond>
-3.0000

> <Gold.PLP.part.metal>
0.0000

> <Gold.PLP.part.buried>
-0.3312

> <Gold.PLP.part.nonpolar>
-31.1711

> <Gold.PLP.part.repulsive>
0.3863

> <Gold.PLP.ligand.clash>
0.0000

> <Gold.PLP.ligand.torsion>
0.4149

> <Gold.PLP.Chemscore.Hbond>
3.8480

> <Gold.PLP.Chemscore.CHOScore>
0.0000

> <Gold.PLP.Chemscore.Metal>
0.0000

> <Gold.Chemscore.Hbonds>
donor molecule, donor type, donor heavy atom, donor atom, acceptor molecule, acceptor atom, score
      L1  H     5    25       P1  8028  1.00
      L1  H     8    26       P1  8028  0.78
      L1  H    12    45       P1 10175  1.79

> <Gold.PLP.Chemscore.Internal.Correction>
0.0769

> <Gold.Rescore>
     Score         DG    S(hbond)    S(metal)    S(lipo)     H(rot)  DE(clash)    DE(int)     intcor
     17.62     -19.84       2.88        0.00      74.34       1.55       0.45       1.77       ----

> <Gold.Chemscore.Fitness>
17.6155

> <Gold.Chemscore.DG>
-19.8434

> <Gold.Chemscore.ZeroCoef>
-5.4800

> <Gold.Chemscore.Hbond>
2.8821

> <Gold.Chemscore.Metal>
0.0000

> <Gold.Chemscore.Lipo>
74.3445

> <Gold.Chemscore.Internal_Hbond>
0.0000

> <Gold.Chemscore.DEClash>
0.4535

> <Gold.Chemscore.DEInternal>
1.7743

> <Gold.Chemscore.Rot>
1.5474

> <Gold.Chemscore.Internal.Correction>
   9.000000E+99

> <Gold.Chemscore.Hbonds>
donor molecule, donor type, donor heavy atom, donor atom, acceptor molecule, acceptor atom, score
      L1  H     5    25       P1  8028  0.96
      L1  H     8    26       P1  8028  0.74
      L1  H    12    45       P1 10175  0.85

> <Gold.Chemscore.Hbond.Weighted>
-9.6263

> <Gold.Chemscore.Metal.Weighted>
-0.0000

> <Gold.Chemscore.Lipo.Weighted>
-8.6983

> <Gold.Chemscore.Internal_Hbond.Weighted>
0.0000

> <Gold.Chemscore.DEClash.Weighted>
0.4535

> <Gold.Chemscore.DEInternal.Weighted>
1.7743

> <Gold.Chemscore.Rot.Weighted>
3.9612

> <Gold.Chemscore.Internal.Correction.Weighted>
   9.000000E+99

> <Gold.Protein.RotatedTorsions>
[ 6907 6896 6895 6894 ] final  157.69 input  -60.11 | X-H torsion
[ 7974 7965 7964 7962 ] final -141.29 input  175.53 | X-H torsion
[ 8008 7997 7996 7995 ] final   75.10 input   59.86 | X-H torsion
[ 10167 10162 10161 10158 ] final  -81.52 input  -65.29 | X-H torsion
[ 10718 10713 10712 10709 ] final   23.10 input   66.30 | X-H torsion
[ 10763 10752 10751 10750 ] final -102.93 input  -60.55 | X-H torsion
[ 11005 11000 10999 10996 ] final   82.99 input  -57.11 | X-H torsion

> <Gold.Protein.ActiveResidues>
 VAL166  LYS551  ARG553  GLY616  TRP617  ASP618  TYR619  PRO620  LYS621  CYS622 
 ASP623  PHE694  ASN695  SER759  ASP760  ASP761  ALA762  ILE779  LEU786  VAL792 
 PHE793  MET794  SER795  GLU796  ALA797  LYS798  CYS799  TRP800  GLU811  SER814 

> <Gold.Protein.RotatedAtoms>
  152.0114  133.3863  159.4220 H   0  0  0  0  0  0  0  0  0  0  0  0  # atno 6907 bound_to 6896
  150.6899  134.3726  159.5008 H   0  0  0  0  0  0  0  0  0  0  0  0  # atno 6908 bound_to 6896
  152.1487  134.9005  160.0600 H   0  0  0  0  0  0  0  0  0  0  0  0  # atno 6909 bound_to 6896
  144.8530  140.6097  143.5377 H   0  0  0  0  0  0  0  0  0  0  0  0  # atno 7974 bound_to 7965
  155.8080  140.3474  155.5441 H   0  0  0  0  0  0  0  0  0  0  0  0  # atno 8008 bound_to 7997
  155.8470  140.0950  157.1719 H   0  0  0  0  0  0  0  0  0  0  0  0  # atno 8009 bound_to 7997
  154.4006  140.1383  156.3785 H   0  0  0  0  0  0  0  0  0  0  0  0  # atno 8010 bound_to 7997
  140.4404  143.2517  151.8634 H   0  0  0  0  0  0  0  0  0  0  0  0  # atno 10167 bound_to 10162
  157.1614  130.6718  149.6045 H   0  0  0  0  0  0  0  0  0  0  0  0  # atno 10718 bound_to 10713
  154.7770  135.4842  153.9765 H   0  0  0  0  0  0  0  0  0  0  0  0  # atno 10763 bound_to 10752
  153.1442  135.6778  153.8987 H   0  0  0  0  0  0  0  0  0  0  0  0  # atno 10764 bound_to 10752
  153.8652  135.3150  155.3418 H   0  0  0  0  0  0  0  0  0  0  0  0  # atno 10765 bound_to 10752
  139.9045  134.8112  156.2248 H   0  0  0  0  0  0  0  0  0  0  0  0  # atno 11005 bound_to 11000
  145.4461  139.1529  143.3944 LP  0  0  0  0  0  0  0  0  0  0  0  0  # atno 17320 bound_to 7965
  146.2800  140.4585  142.8780 LP  0  0  0  0  0  0  0  0  0  0  0  0  # atno 17321 bound_to 7965
  139.4789  144.5235  151.8767 LP  0  0  0  0  0  0  0  0  0  0  0  0  # atno 17342 bound_to 10162
  140.4325  144.2096  150.5888 LP  0  0  0  0  0  0  0  0  0  0  0  0  # atno 17343 bound_to 10162
  155.9753  130.4710  150.6450 LP  0  0  0  0  0  0  0  0  0  0  0  0  # atno 17370 bound_to 10713
  157.4129  131.0826  151.1204 LP  0  0  0  0  0  0  0  0  0  0  0  0  # atno 17371 bound_to 10713
  141.0383  133.6951  156.1551 LP  0  0  0  0  0  0  0  0  0  0  0  0  # atno 17394 bound_to 11000
  140.6994  134.4580  157.5586 LP  0  0  0  0  0  0  0  0  0  0  0  0  # atno 17395 bound_to 11000

$$$$
