AV-unprocessed.smi:3039|AV-procd|sdf|11593|dock6
  -GOLD-   2272016573D 1   1.00000     0.00000
 Structure written by MMmdl.
 38 39  0  0  0  0  0  0  0  0  1 V2000
  150.6588  137.0522  159.3669 O   0  0  0  0  0  0  0  0  0  0  0  0
  149.7337  137.6006  158.7682 C   0  0  0  0  0  0  0  0  0  0  0  0
  148.3210  137.0209  158.8425 C   0  0  0  0  0  0  0  0  0  0  0  0
  147.9021  136.8534  160.2793 C   0  0  0  0  0  0  0  0  0  0  0  0
  148.4649  136.0033  161.2732 C   0  0  0  0  0  0  0  0  0  0  0  0
  147.7028  136.2547  162.3775 C   0  0  0  0  0  0  0  0  0  0  0  0
  146.7536  137.1832  162.0984 O   0  0  0  0  0  0  0  0  0  0  0  0
  146.8897  137.5606  160.7578 N   0  0  0  0  0  0  0  0  0  0  0  0
  149.8825  138.7111  158.0290 N   0  0  0  0  0  0  0  0  0  0  0  0
  151.1284  139.4462  157.8201 C   0  0  2  0  0  0  0  0  0  0  0  0
  151.6655  139.9123  159.1940 C   0  0  0  0  0  0  0  0  0  0  0  0
  152.7399  141.0109  159.1606 C   0  0  0  0  0  0  0  0  0  0  0  0
  152.1348  142.4256  159.1498 C   0  0  0  0  0  0  0  0  0  0  0  0
  151.4923  142.8457  157.8193 C   0  0  0  0  0  0  0  0  0  0  0  0
  150.3990  141.8981  157.2911 C   0  0  0  0  0  0  0  0  0  0  0  0
  150.9616  140.5635  156.7490 C   0  0  2  0  0  0  0  0  0  0  0  0
  150.2367  140.0992  155.4611 C   0  0  0  0  0  0  0  0  0  0  0  0
  151.0888  139.4148  154.5625 O   0  0  0  0  0  0  0  0  0  0  0  0
  147.6294  137.6829  158.3198 H   0  0  0  0  0  0  0  0  0  0  0  0
  148.2945  136.0672  158.3128 H   0  0  0  0  0  0  0  0  0  0  0  0
  149.2926  135.3146  161.1874 H   0  0  0  0  0  0  0  0  0  0  0  0
  147.7113  135.8727  163.3877 H   0  0  0  0  0  0  0  0  0  0  0  0
  149.0644  139.0781  157.5639 H   0  0  0  0  0  0  0  0  0  0  0  0
  151.8565  138.7461  157.4051 H   0  0  0  0  0  0  0  0  0  0  0  0
  150.8405  140.2428  159.8274 H   0  0  0  0  0  0  0  0  0  0  0  0
  152.0804  139.0418  159.7041 H   0  0  0  0  0  0  0  0  0  0  0  0
  153.3408  140.9185  160.0659 H   0  0  0  0  0  0  0  0  0  0  0  0
  153.4315  140.8654  158.3301 H   0  0  0  0  0  0  0  0  0  0  0  0
  151.4035  142.5182  159.9535 H   0  0  0  0  0  0  0  0  0  0  0  0
  152.9217  143.1424  159.3872 H   0  0  0  0  0  0  0  0  0  0  0  0
  151.0564  143.8363  157.9537 H   0  0  0  0  0  0  0  0  0  0  0  0
  152.2675  142.9707  157.0624 H   0  0  0  0  0  0  0  0  0  0  0  0
  149.6337  141.7207  158.0476 H   0  0  0  0  0  0  0  0  0  0  0  0
  149.8931  142.4242  156.4808 H   0  0  0  0  0  0  0  0  0  0  0  0
  151.9738  140.7780  156.4036 H   0  0  0  0  0  0  0  0  0  0  0  0
  149.4201  139.4248  155.7209 H   0  0  0  0  0  0  0  0  0  0  0  0
  149.7856  140.9498  154.9489 H   0  0  0  0  0  0  0  0  0  0  0  0
  151.2864  138.5646  154.9252 H   0  0  0  0  0  0  0  0  0  0  0  0
  1  2  2  0  0  0  0
  2  3  1  0  0  0  0
  2  9  1  0  0  0  0
  3  4  1  0  0  0  0
  3 19  1  0  0  0  0
  3 20  1  0  0  0  0
  4  8  2  0  0  0  0
  4  5  1  0  0  0  0
  5  6  2  0  0  0  0
  5 21  1  0  0  0  0
  6  7  1  0  0  0  0
  6 22  1  0  0  0  0
  7  8  1  0  0  0  0
  9 10  1  0  0  0  0
  9 23  1  0  0  0  0
 10 16  1  0  0  0  0
 10 11  1  0  0  0  0
 10 24  1  0  0  0  0
 11 12  1  0  0  0  0
 11 25  1  0  0  0  0
 11 26  1  0  0  0  0
 12 13  1  0  0  0  0
 12 27  1  0  0  0  0
 12 28  1  0  0  0  0
 13 14  1  0  0  0  0
 13 29  1  0  0  0  0
 13 30  1  0  0  0  0
 14 15  1  0  0  0  0
 14 31  1  0  0  0  0
 14 32  1  0  0  0  0
 15 16  1  0  0  0  0
 15 33  1  0  0  0  0
 15 34  1  0  0  0  0
 16 17  1  0  0  0  0
 16 35  1  0  0  0  0
 17 18  1  0  0  0  0
 17 36  1  0  0  0  0
 17 37  1  0  0  0  0
 18 38  1  0  0  0  0
M  END
> <s_m_source_file>
AV-unprocessed.smi

> <i_m_source_file_index>
3039

> <i_lp_mmshare_version>
43012

> <i_f3d_flags>
0

> <s_epik_input>
bjFvW2NIXVtjSF1jMVtDSDJdQyg9TylbTkhdW0NAQEhdMltDSDJdW0NIMl1bQ0gyXVtDSDJdW0NIMl1bQ0BIXTJbQ0gyXVtPSF0=

> <s_epik_cmdline>
J2VwaWtfcHl0aG9uJywgJy1waCcsICc3LjAnLCAnLXRuJywgJzgnLCAnLW1hJywgJzIwMCcsICctbWV0YWxfYmluZGluZycsICctaW1hZScsICc8aW5maWxlLm1hZT4nLCAnLW9tYWUnLCAnPG91dGZpbGUubWFlPic=

> <r_lp_tautomer_probability>
1

> <r_epik_Ionization_Penalty>
3.05817e-07

> <r_epik_Ionization_Penalty_Charging>
0

> <r_epik_Ionization_Penalty_Neutral>
3.05817e-07

> <r_epik_State_Penalty>
-0

> <r_epik_Charging_Adjusted_Penalty>
0

> <i_epik_Tot_Q>
0

> <i_epik_Tot_abs_Q>
0

> <r_epik_Metal_State_Penalty>
-0

> <b_epik_Metal_Only>
0

> <s_lp_Force_Field>
OPLS_2005

> <r_lp_Energy>
21.1275

> <b_lp_Chiralities_Consistent>
1

> <s_lp_Variant>
AV-unprocessed.smi:3039-3

> <Gold.Version>
5.8.1

> <Gold.Id.Protein>
6NUR|6NUR_protein|mol2

> <Gold.PLP.Fitness>
37.7136

> <Gold.PLP.PLP>
-29.6278

> <Gold.PLP.part.hbond>
-3.8511

> <Gold.PLP.part.metal>
0.0000

> <Gold.PLP.part.buried>
-5.8444

> <Gold.PLP.part.nonpolar>
-21.7585

> <Gold.PLP.part.repulsive>
0.1111

> <Gold.PLP.ligand.clash>
0.0000

> <Gold.PLP.ligand.torsion>
0.4114

> <Gold.PLP.Chemscore.Hbond>
2.9425

> <Gold.PLP.Chemscore.CHOScore>
0.0000

> <Gold.PLP.Chemscore.Metal>
0.0000

> <Gold.Chemscore.Hbonds>
donor molecule, donor type, donor heavy atom, donor atom, acceptor molecule, acceptor atom, score
      P1  H  6896  6907       L1     1  0.89
      P1  H  6934  6947       L1     8  0.93
      P1  H  7989  7998       L1    18  1.00

> <Gold.PLP.Chemscore.Internal.Correction>
0.0811

> <Gold.Rescore>
     Score         DG    S(hbond)    S(metal)    S(lipo)     H(rot)  DE(clash)    DE(int)     intcor
     17.59     -18.62       2.93        0.00      78.09       2.26       0.36       0.67       ----

> <Gold.Chemscore.Fitness>
17.5932

> <Gold.Chemscore.DG>
-18.6150

> <Gold.Chemscore.ZeroCoef>
-5.4800

> <Gold.Chemscore.Hbond>
2.9307

> <Gold.Chemscore.Metal>
0.0000

> <Gold.Chemscore.Lipo>
78.0856

> <Gold.Chemscore.Internal_Hbond>
0.0000

> <Gold.Chemscore.DEClash>
0.3559

> <Gold.Chemscore.DEInternal>
0.6660

> <Gold.Chemscore.Rot>
2.2616

> <Gold.Chemscore.Internal.Correction>
   9.000000E+99

> <Gold.Chemscore.Hbonds>
donor molecule, donor type, donor heavy atom, donor atom, acceptor molecule, acceptor atom, score
      P1  H  6896  6907       L1     1  0.86
      P1  H  6934  6947       L1     8  0.21
      P1  H  7989  7998       L1    18  0.26

> <Gold.Chemscore.Hbond.Weighted>
-9.7887

> <Gold.Chemscore.Metal.Weighted>
-0.0000

> <Gold.Chemscore.Lipo.Weighted>
-9.1360

> <Gold.Chemscore.Internal_Hbond.Weighted>
0.0000

> <Gold.Chemscore.DEClash.Weighted>
0.3559

> <Gold.Chemscore.DEInternal.Weighted>
0.6660

> <Gold.Chemscore.Rot.Weighted>
5.7896

> <Gold.Chemscore.Internal.Correction.Weighted>
   9.000000E+99

> <Gold.Protein.RotatedTorsions>
[ 6907 6896 6895 6894 ] final  -22.42 input  -60.11 | X-H torsion
[ 7974 7965 7964 7962 ] final  -75.96 input  175.53 | X-H torsion
[ 8008 7997 7996 7995 ] final   26.56 input   59.86 | X-H torsion
[ 10167 10162 10161 10158 ] final   -7.50 input  -65.29 | X-H torsion
[ 10718 10713 10712 10709 ] final   13.43 input   66.30 | X-H torsion
[ 10763 10752 10751 10750 ] final  148.43 input  -60.55 | X-H torsion
[ 11005 11000 10999 10996 ] final   38.02 input  -57.11 | X-H torsion

> <Gold.Protein.ActiveResidues>
 VAL166  LYS551  ARG553  GLY616  TRP617  ASP618  TYR619  PRO620  LYS621  CYS622 
 ASP623  PHE694  ASN695  SER759  ASP760  ASP761  ALA762  ILE779  LEU786  VAL792 
 PHE793  MET794  SER795  GLU796  ALA797  LYS798  CYS799  TRP800  GLU811  SER814 

> <Gold.Protein.RotatedAtoms>
  151.2189  135.0511  159.8941 H   0  0  0  0  0  0  0  0  0  0  0  0  # atno 6907 bound_to 6896
  152.5417  134.0662  159.8184 H   0  0  0  0  0  0  0  0  0  0  0  0  # atno 6908 bound_to 6896
  151.0826  133.5330  159.2651 H   0  0  0  0  0  0  0  0  0  0  0  0  # atno 6909 bound_to 6896
  145.6191  140.9367  143.1148 H   0  0  0  0  0  0  0  0  0  0  0  0  # atno 7974 bound_to 7965
  155.0292  140.3156  155.4765 H   0  0  0  0  0  0  0  0  0  0  0  0  # atno 8008 bound_to 7997
  156.2877  140.2183  156.5355 H   0  0  0  0  0  0  0  0  0  0  0  0  # atno 8009 bound_to 7997
  154.7385  140.0475  157.0778 H   0  0  0  0  0  0  0  0  0  0  0  0  # atno 8010 bound_to 7997
  140.7030  143.6074  150.8737 H   0  0  0  0  0  0  0  0  0  0  0  0  # atno 10167 bound_to 10162
  157.0245  130.6168  149.5726 H   0  0  0  0  0  0  0  0  0  0  0  0  # atno 10718 bound_to 10713
  154.0546  135.2879  155.3335 H   0  0  0  0  0  0  0  0  0  0  0  0  # atno 10763 bound_to 10752
  154.6847  135.5250  153.8314 H   0  0  0  0  0  0  0  0  0  0  0  0  # atno 10764 bound_to 10752
  153.0547  135.6590  154.0739 H   0  0  0  0  0  0  0  0  0  0  0  0  # atno 10765 bound_to 10752
  140.2168  134.3689  155.8023 H   0  0  0  0  0  0  0  0  0  0  0  0  # atno 11005 bound_to 11000
  144.7238  139.7942  143.7372 LP  0  0  0  0  0  0  0  0  0  0  0  0  # atno 17320 bound_to 7965
  146.1445  139.4510  143.0088 LP  0  0  0  0  0  0  0  0  0  0  0  0  # atno 17321 bound_to 7965
  139.9798  143.5964  152.2947 LP  0  0  0  0  0  0  0  0  0  0  0  0  # atno 17342 bound_to 10162
  139.6581  144.7662  151.2016 LP  0  0  0  0  0  0  0  0  0  0  0  0  # atno 17343 bound_to 10162
  156.0091  130.5180  150.7928 LP  0  0  0  0  0  0  0  0  0  0  0  0  # atno 17370 bound_to 10713
  157.5224  131.0932  151.0061 LP  0  0  0  0  0  0  0  0  0  0  0  0  # atno 17371 bound_to 10713
  141.2224  133.7172  156.8509 LP  0  0  0  0  0  0  0  0  0  0  0  0  # atno 17394 bound_to 11000
  140.1892  134.8978  157.3040 LP  0  0  0  0  0  0  0  0  0  0  0  0  # atno 17395 bound_to 11000

$$$$
