AV-unprocessed.smi:1510|AV-procd|sdf|6095|dock4
  -GOLD-   22720 6223D 1   1.00000     0.00000
 Structure written by MMmdl.
 32 33  0  0  0  0  0  0  0  0  2 V2000
  153.0242  139.7447  158.0239 O   0  0  0  0  0  0  0  0  0  0  0  0
  151.9657  140.2703  158.3731 C   0  0  0  0  0  0  0  0  0  0  0  0
  150.6254  139.8731  157.7342 C   0  0  0  0  0  0  0  0  0  0  0  0
  150.7472  138.9506  156.5958 N   0  0  0  0  0  0  0  0  0  0  0  0
  151.2473  137.6277  156.9601 N   0  5  0  0  0  0  0  0  0  0  0  0
  151.3984  136.6866  155.9908 C   0  0  0  0  0  0  0  0  0  0  0  0
  151.8017  135.5493  156.2234 O   0  0  0  0  0  0  0  0  0  0  0  0
  151.0699  137.0538  154.6232 C   0  0  0  0  0  0  0  0  0  0  0  0
  150.6272  138.2883  154.3131 C   0  0  0  0  0  0  0  0  0  0  0  0
  150.4461  139.3270  155.3199 C   0  0  0  0  0  0  0  0  0  0  0  0
  150.0506  140.4594  155.0424 O   0  0  0  0  0  0  0  0  0  0  0  0
  151.8977  141.2220  159.3161 N   0  0  0  0  0  0  0  0  0  0  0  0
  153.0343  141.7545  160.0577 C   0  0  0  0  0  0  0  0  0  0  0  0
  152.9838  143.2888  160.1472 C   0  0  1  0  0  0  0  0  0  0  0  0
  152.6968  143.9781  158.8119 C   0  0  0  0  0  0  0  0  0  0  0  0
  151.9487  145.2463  159.2015 C   0  0  0  0  0  0  0  0  0  0  0  0
  151.7163  145.0978  160.7061 C   0  0  0  0  0  0  0  0  0  0  0  0
  151.8974  143.7130  160.9562 O   0  0  0  0  0  0  0  0  0  0  0  0
  149.9876  139.4251  158.4981 H   0  0  0  0  0  0  0  0  0  0  0  0
  150.1143  140.7876  157.4276 H   0  0  0  0  0  0  0  0  0  0  0  0
  151.1861  136.3210  153.8384 H   0  0  0  0  0  0  0  0  0  0  0  0
  150.3975  138.5175  153.2832 H   0  0  0  0  0  0  0  0  0  0  0  0
  150.9889  141.5988  159.5418 H   0  0  0  0  0  0  0  0  0  0  0  0
  153.0601  141.3179  161.0576 H   0  0  0  0  0  0  0  0  0  0  0  0
  153.9494  141.4369  159.5574 H   0  0  0  0  0  0  0  0  0  0  0  0
  153.9121  143.6815  160.5670 H   0  0  0  0  0  0  0  0  0  0  0  0
  153.6093  144.1826  158.2509 H   0  0  0  0  0  0  0  0  0  0  0  0
  152.0548  143.3545  158.1881 H   0  0  0  0  0  0  0  0  0  0  0  0
  152.5190  146.1480  158.9766 H   0  0  0  0  0  0  0  0  0  0  0  0
  151.0014  145.3056  158.6641 H   0  0  0  0  0  0  0  0  0  0  0  0
  152.4604  145.6644  161.2680 H   0  0  0  0  0  0  0  0  0  0  0  0
  150.7266  145.4345  161.0155 H   0  0  0  0  0  0  0  0  0  0  0  0
  1  2  2  0  0  0  0
  2  3  1  0  0  0  0
  2 12  1  0  0  0  0
  3 19  1  0  0  0  0
  3 20  1  0  0  0  0
  3  4  1  0  0  0  0
  4  5  1  0  0  0  0
  4 10  1  0  0  0  0
  5  6  1  0  0  0  0
  6  7  2  0  0  0  0
  6  8  1  0  0  0  0
  8 21  1  0  0  0  0
  8  9  2  0  0  0  0
  9 22  1  0  0  0  0
  9 10  1  0  0  0  0
 10 11  2  0  0  0  0
 12 13  1  0  0  0  0
 12 23  1  0  0  0  0
 13 14  1  0  0  0  0
 13 24  1  0  0  0  0
 13 25  1  0  0  0  0
 14 18  1  0  0  0  0
 14 15  1  0  0  0  0
 14 26  1  0  0  0  0
 15 16  1  0  0  0  0
 15 27  1  0  0  0  0
 15 28  1  0  0  0  0
 16 17  1  0  0  0  0
 16 29  1  0  0  0  0
 16 30  1  0  0  0  0
 17 18  1  0  0  0  0
 17 31  1  0  0  0  0
 17 32  1  0  0  0  0
M  CHG  1   5  -1
M  END
> <s_m_source_file>
AV-unprocessed.smi

> <i_m_source_file_index>
1510

> <i_lp_mmshare_version>
43012

> <i_f3d_flags>
0

> <s_epik_input>
TzFbQ0gyXVtDSDJdW0NIMl1bQ0BIXTFbQ0gyXVtOSF1DKD1PKVtDSDJdbjJbbkhdYyg9TylbY0hdW2NIXWMyPU8=

> <s_epik_cmdline>
J2VwaWtfcHl0aG9uJywgJy1waCcsICc3LjAnLCAnLXRuJywgJzgnLCAnLW1hJywgJzIwMCcsICctbWV0YWxfYmluZGluZycsICctaW1hZScsICc8aW5maWxlLm1hZT4nLCAnLW9tYWUnLCAnPG91dGZpbGUubWFlPic=

> <r_lp_tautomer_probability>
1

> <r_epik_Ionization_Penalty>
0.0970799

> <r_epik_Ionization_Penalty_Charging>
0.0970799

> <r_epik_Ionization_Penalty_Neutral>
2.6859e-08

> <r_epik_State_Penalty>
0.0341592

> <r_epik_Charging_Adjusted_Penalty>
0.131239

> <i_epik_Tot_Q>
-1

> <i_epik_Tot_abs_Q>
1

> <r_epik_Metal_State_Penalty>
0.0341592

> <b_epik_Metal_Only>
0

> <s_lp_Force_Field>
OPLS_2005

> <r_lp_Energy>
32.1041

> <b_lp_Chiralities_Consistent>
1

> <s_lp_Variant>
AV-unprocessed.smi:1510-2

> <Gold.Version>
5.8.1

> <Gold.Id.Protein>
6NUR|6NUR_protein|mol2

> <Gold.PLP.Fitness>
45.9281

> <Gold.PLP.PLP>
-37.5992

> <Gold.PLP.part.hbond>
-3.0000

> <Gold.PLP.part.metal>
0.0000

> <Gold.PLP.part.buried>
-5.4177

> <Gold.PLP.part.nonpolar>
-30.3535

> <Gold.PLP.part.repulsive>
0.3394

> <Gold.PLP.ligand.clash>
0.0000

> <Gold.PLP.ligand.torsion>
0.2445

> <Gold.PLP.Chemscore.Hbond>
2.9360

> <Gold.PLP.Chemscore.CHOScore>
0.0000

> <Gold.PLP.Chemscore.Metal>
0.0000

> <Gold.Chemscore.Hbonds>
donor molecule, donor type, donor heavy atom, donor atom, acceptor molecule, acceptor atom, score
      P1  H  7989  7998       L1    11  0.36
      P1  H  7997  8009       L1     1  1.00
      P1  H 10752 10765       L1     7  1.00

> <Gold.PLP.Chemscore.Internal.Correction>
0.0099

> <Gold.Rescore>
     Score         DG    S(hbond)    S(metal)    S(lipo)     H(rot)  DE(clash)    DE(int)     intcor
     16.11     -16.44       2.00        0.00      81.47       2.05       0.02       0.32       ----

> <Gold.Chemscore.Fitness>
16.1076

> <Gold.Chemscore.DG>
-16.4448

> <Gold.Chemscore.ZeroCoef>
-5.4800

> <Gold.Chemscore.Hbond>
1.9973

> <Gold.Chemscore.Metal>
0.0000

> <Gold.Chemscore.Lipo>
81.4731

> <Gold.Chemscore.Internal_Hbond>
0.0000

> <Gold.Chemscore.DEClash>
0.0152

> <Gold.Chemscore.DEInternal>
0.3221

> <Gold.Chemscore.Rot>
2.0463

> <Gold.Chemscore.Internal.Correction>
   9.000000E+99

> <Gold.Chemscore.Hbonds>
donor molecule, donor type, donor heavy atom, donor atom, acceptor molecule, acceptor atom, score
      P1  H  7989  7998       L1    11  0.05
      P1  H  7997  8009       L1     1  1.00
      P1  H 10752 10765       L1     7  0.43

> <Gold.Chemscore.Hbond.Weighted>
-6.6711

> <Gold.Chemscore.Metal.Weighted>
-0.0000

> <Gold.Chemscore.Lipo.Weighted>
-9.5324

> <Gold.Chemscore.Internal_Hbond.Weighted>
0.0000

> <Gold.Chemscore.DEClash.Weighted>
0.0152

> <Gold.Chemscore.DEInternal.Weighted>
0.3221

> <Gold.Chemscore.Rot.Weighted>
5.2386

> <Gold.Chemscore.Internal.Correction.Weighted>
   9.000000E+99

> <Gold.Protein.RotatedTorsions>
[ 6907 6896 6895 6894 ] final  105.81 input  -60.11 | X-H torsion
[ 7974 7965 7964 7962 ] final  -81.04 input  175.53 | X-H torsion
[ 8008 7997 7996 7995 ] final  164.88 input   59.86 | X-H torsion
[ 10167 10162 10161 10158 ] final -162.25 input  -65.29 | X-H torsion
[ 10718 10713 10712 10709 ] final  -79.45 input   66.30 | X-H torsion
[ 10763 10752 10751 10750 ] final -133.11 input  -60.55 | X-H torsion
[ 11005 11000 10999 10996 ] final  -54.47 input  -57.11 | X-H torsion

> <Gold.Protein.ActiveResidues>
 VAL166  LYS551  ARG553  GLY616  TRP617  ASP618  TYR619  PRO620  LYS621  CYS622 
 ASP623  PHE694  ASN695  SER759  ASP760  ASP761  ALA762  ILE779  LEU786  VAL792 
 PHE793  MET794  SER795  GLU796  ALA797  LYS798  CYS799  TRP800  GLU811  SER814 

> <Gold.Protein.RotatedAtoms>
  152.5217  133.9473  159.7654 H   0  0  0  0  0  0  0  0  0  0  0  0  # atno 6907 bound_to 6896
  150.9790  133.6256  159.2732 H   0  0  0  0  0  0  0  0  0  0  0  0  # atno 6908 bound_to 6896
  151.3440  135.0876  159.9434 H   0  0  0  0  0  0  0  0  0  0  0  0  # atno 6909 bound_to 6896
  145.5519  140.9495  143.1494 H   0  0  0  0  0  0  0  0  0  0  0  0  # atno 7974 bound_to 7965
  156.1845  140.1685  156.8212 H   0  0  0  0  0  0  0  0  0  0  0  0  # atno 8008 bound_to 7997
  154.5398  140.0739  156.8522 H   0  0  0  0  0  0  0  0  0  0  0  0  # atno 8009 bound_to 7997
  155.3238  140.3375  155.4243 H   0  0  0  0  0  0  0  0  0  0  0  0  # atno 8010 bound_to 7997
  139.6405  144.0268  152.2088 H   0  0  0  0  0  0  0  0  0  0  0  0  # atno 10167 bound_to 10162
  156.0092  130.4546  150.3650 H   0  0  0  0  0  0  0  0  0  0  0  0  # atno 10718 bound_to 10713
  154.8736  135.3776  154.4519 H   0  0  0  0  0  0  0  0  0  0  0  0  # atno 10763 bound_to 10752
  153.5195  135.7029  153.5744 H   0  0  0  0  0  0  0  0  0  0  0  0  # atno 10764 bound_to 10752
  153.3998  135.3951  155.1945 H   0  0  0  0  0  0  0  0  0  0  0  0  # atno 10765 bound_to 10752
  141.1027  133.6616  156.4325 H   0  0  0  0  0  0  0  0  0  0  0  0  # atno 11005 bound_to 11000
  144.7525  139.7158  143.7267 LP  0  0  0  0  0  0  0  0  0  0  0  0  # atno 17320 bound_to 7965
  146.1910  139.5151  142.9805 LP  0  0  0  0  0  0  0  0  0  0  0  0  # atno 17321 bound_to 7965
  139.9956  144.6330  150.7775 LP  0  0  0  0  0  0  0  0  0  0  0  0  # atno 17342 bound_to 10162
  140.7488  143.2929  151.3283 LP  0  0  0  0  0  0  0  0  0  0  0  0  # atno 17343 bound_to 10162
  157.1737  131.0375  151.2782 LP  0  0  0  0  0  0  0  0  0  0  0  0  # atno 17370 bound_to 10713
  157.4206  130.7435  149.6910 LP  0  0  0  0  0  0  0  0  0  0  0  0  # atno 17371 bound_to 10713
  140.4981  134.6512  157.5237 LP  0  0  0  0  0  0  0  0  0  0  0  0  # atno 17394 bound_to 11000
  139.9885  134.7023  155.9732 LP  0  0  0  0  0  0  0  0  0  0  0  0  # atno 17395 bound_to 11000

$$$$
