AV-unprocessed.smi:2377|AV-procd|sdf|9447|dock2
  -GOLD-   2272013 73D 1   1.00000     0.00000
 Structure written by MMmdl.
 23 23  0  0  0  0  0  0  0  0  1 V2000
  151.1962  141.9593  156.8440 C   0  0  0  0  0  0  0  0  0  0  0  0
  151.0641  143.3879  157.1003 N   0  0  0  0  0  0  0  0  0  0  0  0
  150.5904  143.6895  158.4487 C   0  0  0  0  0  0  0  0  0  0  0  0
  151.6730  144.3940  159.2859 C   0  0  2  0  0  0  0  0  0  0  0  0
  152.5754  145.0394  158.4085 O   0  0  0  0  0  0  0  0  0  0  0  0
  152.3925  143.4032  160.1868 C   0  0  0  0  0  0  0  0  0  0  0  0
  152.3465  143.5209  161.5932 C   0  0  0  0  0  0  0  0  0  0  0  0
  153.0410  142.5808  162.3785 C   0  0  0  0  0  0  0  0  0  0  0  0
  153.7572  141.5591  161.7243 C   0  0  0  0  0  0  0  0  0  0  0  0
  153.8124  141.4367  160.3807 N   0  0  0  0  0  0  0  0  0  0  0  0
  153.1437  142.3425  159.6351 C   0  0  0  0  0  0  0  0  0  0  0  0
  151.5648  141.7825  155.8335 H   0  0  0  0  0  0  0  0  0  0  0  0
  150.2360  141.4523  156.9431 H   0  0  0  0  0  0  0  0  0  0  0  0
  151.8974  141.4988  157.5406 H   0  0  0  0  0  0  0  0  0  0  0  0
  150.4325  143.7995  156.4210 H   0  0  0  0  0  0  0  0  0  0  0  0
  149.7230  144.3471  158.3757 H   0  0  0  0  0  0  0  0  0  0  0  0
  150.2496  142.7826  158.9503 H   0  0  0  0  0  0  0  0  0  0  0  0
  151.2110  145.1592  159.9116 H   0  0  0  0  0  0  0  0  0  0  0  0
  153.0112  144.3815  157.8886 H   0  0  0  0  0  0  0  0  0  0  0  0
  151.7912  144.3189  162.0641 H   0  0  0  0  0  0  0  0  0  0  0  0
  153.0263  142.6420  163.4568 H   0  0  0  0  0  0  0  0  0  0  0  0
  154.3016  140.8217  162.2955 H   0  0  0  0  0  0  0  0  0  0  0  0
  153.2128  142.2156  158.5646 H   0  0  0  0  0  0  0  0  0  0  0  0
  1  2  1  0  0  0  0
  1 12  1  0  0  0  0
  1 13  1  0  0  0  0
  1 14  1  0  0  0  0
  2  3  1  0  0  0  0
  2 15  1  0  0  0  0
  3  4  1  0  0  0  0
  3 16  1  0  0  0  0
  3 17  1  0  0  0  0
  4  5  1  0  0  0  0
  4  6  1  0  0  0  0
  4 18  1  0  0  0  0
  5 19  1  0  0  0  0
  6 11  1  0  0  0  0
  6  7  2  0  0  0  0
  7  8  1  0  0  0  0
  7 20  1  0  0  0  0
  8  9  2  0  0  0  0
  8 21  1  0  0  0  0
  9 10  1  0  0  0  0
  9 22  1  0  0  0  0
 10 11  2  0  0  0  0
 11 23  1  0  0  0  0
M  END
> <s_m_source_file>
AV-unprocessed.smi

> <i_m_source_file_index>
2377

> <i_lp_mmshare_version>
43012

> <i_f3d_flags>
0

> <s_epik_input>
W0NIM11bTkhdW0NIMl1bQ0BIXShbT0hdKWMxW2NIXVtjSF1bY0hdbltjSF0x

> <s_epik_cmdline>
J2VwaWtfcHl0aG9uJywgJy1waCcsICc3LjAnLCAnLXRuJywgJzgnLCAnLW1hJywgJzIwMCcsICctbWV0YWxfYmluZGluZycsICctaW1hZScsICc8aW5maWxlLm1hZT4nLCAnLW9tYWUnLCAnPG91dGZpbGUubWFlPic=

> <r_epik_Ionization_Penalty>
2.4626

> <r_epik_Ionization_Penalty_Charging>
0

> <r_epik_Ionization_Penalty_Neutral>
2.4626

> <r_epik_State_Penalty>
2.6219

> <r_epik_Charging_Adjusted_Penalty>
2.6219

> <i_epik_Tot_Q>
0

> <i_epik_Tot_abs_Q>
0

> <r_epik_Metal_State_Penalty>
2.61964

> <b_epik_Metal_Only>
0

> <s_lp_Force_Field>
OPLS_2005

> <r_lp_Energy>
11.5551

> <b_lp_Chiralities_Consistent>
1

> <s_lp_Variant>
AV-unprocessed.smi:2377-3

> <Gold.Version>
5.8.1

> <Gold.Id.Protein>
6NUR|6NUR_protein|mol2

> <Gold.PLP.Fitness>
33.7213

> <Gold.PLP.PLP>
-32.4800

> <Gold.PLP.part.hbond>
-1.0000

> <Gold.PLP.part.metal>
0.0000

> <Gold.PLP.part.buried>
-5.2989

> <Gold.PLP.part.nonpolar>
-26.0321

> <Gold.PLP.part.repulsive>
0.0000

> <Gold.PLP.ligand.clash>
0.0000

> <Gold.PLP.ligand.torsion>
0.8834

> <Gold.PLP.Chemscore.Hbond>
1.0000

> <Gold.PLP.Chemscore.CHOScore>
0.0000

> <Gold.PLP.Chemscore.Metal>
0.0000

> <Gold.Chemscore.Hbonds>
donor molecule, donor type, donor heavy atom, donor atom, acceptor molecule, acceptor atom, score
      L1  H     2    15       P1  8028  1.00

> <Gold.PLP.Chemscore.Internal.Correction>
0.0082

> <Gold.Rescore>
     Score         DG    S(hbond)    S(metal)    S(lipo)     H(rot)  DE(clash)    DE(int)     intcor
     13.25     -13.96       1.00        0.00      86.34       1.94       0.00       0.70       ----

> <Gold.Chemscore.Fitness>
13.2492

> <Gold.Chemscore.DG>
-13.9571

> <Gold.Chemscore.ZeroCoef>
-5.4800

> <Gold.Chemscore.Hbond>
0.9978

> <Gold.Chemscore.Metal>
0.0000

> <Gold.Chemscore.Lipo>
86.3359

> <Gold.Chemscore.Internal_Hbond>
0.0000

> <Gold.Chemscore.DEClash>
0.0038

> <Gold.Chemscore.DEInternal>
0.7041

> <Gold.Chemscore.Rot>
1.9363

> <Gold.Chemscore.Internal.Correction>
   9.000000E+99

> <Gold.Chemscore.Hbonds>
donor molecule, donor type, donor heavy atom, donor atom, acceptor molecule, acceptor atom, score
      L1  H     2    15       P1  8028  0.99

> <Gold.Chemscore.Hbond.Weighted>
-3.3327

> <Gold.Chemscore.Metal.Weighted>
-0.0000

> <Gold.Chemscore.Lipo.Weighted>
-10.1013

> <Gold.Chemscore.Internal_Hbond.Weighted>
0.0000

> <Gold.Chemscore.DEClash.Weighted>
0.0038

> <Gold.Chemscore.DEInternal.Weighted>
0.7041

> <Gold.Chemscore.Rot.Weighted>
4.9570

> <Gold.Chemscore.Internal.Correction.Weighted>
   9.000000E+99

> <Gold.Protein.RotatedTorsions>
[ 6907 6896 6895 6894 ] final  152.07 input  -60.11 | X-H torsion
[ 7974 7965 7964 7962 ] final  -57.78 input  175.53 | X-H torsion
[ 8008 7997 7996 7995 ] final  135.38 input   59.86 | X-H torsion
[ 10167 10162 10161 10158 ] final -135.56 input  -65.29 | X-H torsion
[ 10718 10713 10712 10709 ] final -154.59 input   66.30 | X-H torsion
[ 10763 10752 10751 10750 ] final  -12.42 input  -60.55 | X-H torsion
[ 11005 11000 10999 10996 ] final  127.74 input  -57.11 | X-H torsion

> <Gold.Protein.ActiveResidues>
 VAL166  LYS551  ARG553  GLY616  TRP617  ASP618  TYR619  PRO620  LYS621  CYS622 
 ASP623  PHE694  ASN695  SER759  ASP760  ASP761  ALA762  ILE779  LEU786  VAL792 
 PHE793  MET794  SER795  GLU796  ALA797  LYS798  CYS799  TRP800  GLU811  SER814 

> <Gold.Protein.RotatedAtoms>
  152.0919  133.4205  159.4547 H   0  0  0  0  0  0  0  0  0  0  0  0  # atno 6907 bound_to 6896
  150.6862  134.2862  159.4657 H   0  0  0  0  0  0  0  0  0  0  0  0  # atno 6908 bound_to 6896
  152.0714  134.9530  160.0625 H   0  0  0  0  0  0  0  0  0  0  0  0  # atno 6909 bound_to 6896
  145.8471  140.8378  143.0005 H   0  0  0  0  0  0  0  0  0  0  0  0  # atno 7974 bound_to 7965
  156.3003  140.2472  156.3572 H   0  0  0  0  0  0  0  0  0  0  0  0  # atno 8008 bound_to 7997
  154.8910  140.0409  157.1858 H   0  0  0  0  0  0  0  0  0  0  0  0  # atno 8009 bound_to 7997
  154.8597  140.2918  155.5550 H   0  0  0  0  0  0  0  0  0  0  0  0  # atno 8010 bound_to 7997
  139.8767  143.6890  152.2633 H   0  0  0  0  0  0  0  0  0  0  0  0  # atno 10167 bound_to 10162
  156.5013  130.8393  151.2610 H   0  0  0  0  0  0  0  0  0  0  0  0  # atno 10718 bound_to 10713
  153.4982  135.7017  153.5846 H   0  0  0  0  0  0  0  0  0  0  0  0  # atno 10763 bound_to 10752
  153.3989  135.3877  155.1974 H   0  0  0  0  0  0  0  0  0  0  0  0  # atno 10764 bound_to 10752
  154.8712  135.3876  154.4450 H   0  0  0  0  0  0  0  0  0  0  0  0  # atno 10765 bound_to 10752
  139.9523  134.9619  156.8899 H   0  0  0  0  0  0  0  0  0  0  0  0  # atno 11005 bound_to 11000
  144.6730  140.0898  143.7465 LP  0  0  0  0  0  0  0  0  0  0  0  0  # atno 17320 bound_to 7965
  145.9400  139.2662  143.1274 LP  0  0  0  0  0  0  0  0  0  0  0  0  # atno 17321 bound_to 7965
  139.7234  144.7598  151.0918 LP  0  0  0  0  0  0  0  0  0  0  0  0  # atno 17342 bound_to 10162
  140.7751  143.5179  150.9572 LP  0  0  0  0  0  0  0  0  0  0  0  0  # atno 17343 bound_to 10162
  157.7462  130.9980  150.2838 LP  0  0  0  0  0  0  0  0  0  0  0  0  # atno 17370 bound_to 10713
  156.3329  130.3803  149.7475 LP  0  0  0  0  0  0  0  0  0  0  0  0  # atno 17371 bound_to 10713
  140.5689  134.0462  155.7424 LP  0  0  0  0  0  0  0  0  0  0  0  0  # atno 17394 bound_to 11000
  141.1188  133.9495  157.2769 LP  0  0  0  0  0  0  0  0  0  0  0  0  # atno 17395 bound_to 11000

$$$$
