AV-unprocessed.smi:1015|AV-procd|sdf|4435|dock1
  -GOLD-   22720 2393D 1   1.00000     0.00000
 Structure written by MMmdl.
 43 44  0  0  0  0  0  0  0  0  2 V2000
  141.7163  135.4229  153.4517 C   0  0  0  0  0  0  0  0  0  0  0  0
  143.0514  135.3841  152.9789 O   0  0  0  0  0  0  0  0  0  0  0  0
  143.5613  136.6737  152.6827 C   0  0  0  0  0  0  0  0  0  0  0  0
  144.1153  137.2975  153.9731 C   0  0  0  0  0  0  0  0  0  0  0  0
  145.0062  138.4560  153.7086 N   0  3  2  0  0  0  0  0  0  0  0  0
  146.1438  138.0978  152.8227 C   0  0  0  0  0  0  0  0  0  0  0  0
  146.9822  139.3365  152.4544 C   0  0  0  0  0  0  0  0  0  0  0  0
  147.4848  140.0930  153.6981 C   0  0  2  0  0  0  0  0  0  0  0  0
  148.6433  139.3481  154.4033 C   0  0  0  0  0  0  0  0  0  0  0  0
  149.3398  140.2052  155.3568 N   0  0  0  0  0  0  0  0  0  0  0  0
  150.6727  140.3008  155.4882 C   0  0  0  0  0  0  0  0  0  0  0  0
  151.4730  139.7220  154.7541 O   0  0  0  0  0  0  0  0  0  0  0  0
  151.1812  141.1504  156.6520 C   0  0  0  0  0  0  0  0  0  0  0  0
  151.9569  140.3375  157.5699 N   0  0  0  0  0  0  0  0  0  0  0  0
  151.8194  140.1189  158.8796 C   0  0  0  0  0  0  0  0  0  0  0  0
  152.7314  139.2724  159.3322 N   0  0  0  0  0  0  0  0  0  0  0  0
  153.4691  138.9694  158.2000 N   0  0  0  0  0  0  0  0  0  0  0  0
  153.0137  139.5973  157.1509 N   0  0  0  0  0  0  0  0  0  0  0  0
  146.2756  140.4046  154.6056 C   0  0  0  0  0  0  0  0  0  0  0  0
  145.4679  139.1406  154.9452 C   0  0  0  0  0  0  0  0  0  0  0  0
  141.3746  134.4108  153.6677 H   0  0  0  0  0  0  0  0  0  0  0  0
  141.0463  135.8520  152.7055 H   0  0  0  0  0  0  0  0  0  0  0  0
  141.6389  136.0073  154.3694 H   0  0  0  0  0  0  0  0  0  0  0  0
  144.3218  136.6192  151.9035 H   0  0  0  0  0  0  0  0  0  0  0  0
  142.7562  137.3006  152.2962 H   0  0  0  0  0  0  0  0  0  0  0  0
  143.3002  137.6048  154.6298 H   0  0  0  0  0  0  0  0  0  0  0  0
  144.6659  136.5239  154.5103 H   0  0  0  0  0  0  0  0  0  0  0  0
  146.7635  137.3434  153.3090 H   0  0  0  0  0  0  0  0  0  0  0  0
  145.7637  137.6449  151.9062 H   0  0  0  0  0  0  0  0  0  0  0  0
  147.8223  139.0452  151.8229 H   0  0  0  0  0  0  0  0  0  0  0  0
  146.3710  140.0085  151.8502 H   0  0  0  0  0  0  0  0  0  0  0  0
  147.8904  141.0469  153.3575 H   0  0  0  0  0  0  0  0  0  0  0  0
  148.2900  138.4357  154.8845 H   0  0  0  0  0  0  0  0  0  0  0  0
  149.3742  139.0272  153.6607 H   0  0  0  0  0  0  0  0  0  0  0  0
  148.7631  140.7272  156.0009 H   0  0  0  0  0  0  0  0  0  0  0  0
  151.8021  141.9677  156.2815 H   0  0  0  0  0  0  0  0  0  0  0  0
  150.3439  141.5962  157.1904 H   0  0  0  0  0  0  0  0  0  0  0  0
  151.0516  140.5671  159.4932 H   0  0  0  0  0  0  0  0  0  0  0  0
  146.5863  140.9099  155.5198 H   0  0  0  0  0  0  0  0  0  0  0  0
  145.6207  141.1104  154.0928 H   0  0  0  0  0  0  0  0  0  0  0  0
  144.6162  139.4287  155.5597 H   0  0  0  0  0  0  0  0  0  0  0  0
  146.0659  138.4538  155.5455 H   0  0  0  0  0  0  0  0  0  0  0  0
  144.4514  139.1248  153.1931 H   0  0  0  0  0  0  0  0  0  0  0  0
  1  2  1  0  0  0  0
  1 21  1  0  0  0  0
  1 22  1  0  0  0  0
  1 23  1  0  0  0  0
  2  3  1  0  0  0  0
  3  4  1  0  0  0  0
  3 24  1  0  0  0  0
  3 25  1  0  0  0  0
  4  5  1  0  0  0  0
  4 26  1  0  0  0  0
  4 27  1  0  0  0  0
  5 20  1  0  0  0  0
  5  6  1  0  0  0  0
  5 43  1  0  0  0  0
  6  7  1  0  0  0  0
  6 28  1  0  0  0  0
  6 29  1  0  0  0  0
  7  8  1  0  0  0  0
  7 30  1  0  0  0  0
  7 31  1  0  0  0  0
  8  9  1  0  0  0  0
  8 19  1  0  0  0  0
  8 32  1  0  0  0  0
  9 10  1  0  0  0  0
  9 33  1  0  0  0  0
  9 34  1  0  0  0  0
 10 11  1  0  0  0  0
 10 35  1  0  0  0  0
 11 12  2  0  0  0  0
 11 13  1  0  0  0  0
 13 14  1  0  0  0  0
 13 36  1  0  0  0  0
 13 37  1  0  0  0  0
 14 18  1  0  0  0  0
 14 15  1  0  0  0  0
 15 16  2  0  0  0  0
 15 38  1  0  0  0  0
 16 17  1  0  0  0  0
 17 18  2  0  0  0  0
 19 20  1  0  0  0  0
 19 39  1  0  0  0  0
 19 40  1  0  0  0  0
 20 41  1  0  0  0  0
 20 42  1  0  0  0  0
M  CHG  1   5   1
M  END
> <s_m_source_file>
AV-unprocessed.smi

> <i_m_source_file_index>
1015

> <i_lp_mmshare_version>
43012

> <i_f3d_flags>
0

> <s_epik_input>
W0NIM11PW0NIMl1bQ0gyXU4xW0NIMl1bQ0gyXVtDSF0oW0NIMl1bQ0gyXTEpW0NIMl1bTkhdQyg9TylbQ0gyXW4yW2NIXW5ubjI=

> <s_epik_cmdline>
J2VwaWtfcHl0aG9uJywgJy1waCcsICc3LjAnLCAnLXRuJywgJzgnLCAnLW1hJywgJzIwMCcsICctbWV0YWxfYmluZGluZycsICctaW1hZScsICc8aW5maWxlLm1hZT4nLCAnLW9tYWUnLCAnPG91dGZpbGUubWFlPic=

> <r_lp_tautomer_probability>
1

> <r_epik_Ionization_Penalty>
0.0104119

> <r_epik_Ionization_Penalty_Charging>
0.0104107

> <r_epik_Ionization_Penalty_Neutral>
1.19574e-06

> <r_epik_State_Penalty>
0.00795975

> <r_epik_Charging_Adjusted_Penalty>
0.0183705

> <i_epik_Tot_Q>
1

> <i_epik_Tot_abs_Q>
1

> <r_epik_Metal_State_Penalty>
0.00795975

> <b_epik_Metal_Only>
0

> <s_lp_Force_Field>
OPLS_2005

> <r_lp_Energy>
22.9597

> <b_lp_Chiralities_Consistent>
1

> <s_lp_Variant>
AV-unprocessed.smi:1015-2

> <Gold.Version>
5.8.1

> <Gold.Id.Protein>
6NUR|6NUR_protein|mol2

> <Gold.PLP.Fitness>
39.3373

> <Gold.PLP.PLP>
-28.1317

> <Gold.PLP.part.hbond>
-3.9065

> <Gold.PLP.part.metal>
0.0000

> <Gold.PLP.part.buried>
-2.7476

> <Gold.PLP.part.nonpolar>
-22.0175

> <Gold.PLP.part.repulsive>
0.2875

> <Gold.PLP.ligand.clash>
0.0000

> <Gold.PLP.ligand.torsion>
0.4139

> <Gold.PLP.Chemscore.Hbond>
3.9913

> <Gold.PLP.Chemscore.CHOScore>
0.0000

> <Gold.PLP.Chemscore.Metal>
0.0000

> <Gold.Chemscore.Hbonds>
donor molecule, donor type, donor heavy atom, donor atom, acceptor molecule, acceptor atom, score
      L1  H     5    43       P1 10175  2.00
      P1  H  7989  7998       L1    12  1.00
      P1  H  7997  8008       L1    18  1.00

> <Gold.PLP.Chemscore.Internal.Correction>
0.0597

> <Gold.Rescore>
     Score         DG    S(hbond)    S(metal)    S(lipo)     H(rot)  DE(clash)    DE(int)     intcor
     11.60     -12.34       2.87        0.00      46.54       3.19       0.12       0.62       ----

> <Gold.Chemscore.Fitness>
11.5993

> <Gold.Chemscore.DG>
-12.3384

> <Gold.Chemscore.ZeroCoef>
-5.4800

> <Gold.Chemscore.Hbond>
2.8702

> <Gold.Chemscore.Metal>
0.0000

> <Gold.Chemscore.Lipo>
46.5439

> <Gold.Chemscore.Internal_Hbond>
0.0000

> <Gold.Chemscore.DEClash>
0.1171

> <Gold.Chemscore.DEInternal>
0.6221

> <Gold.Chemscore.Rot>
3.1928

> <Gold.Chemscore.Internal.Correction>
   9.000000E+99

> <Gold.Chemscore.Hbonds>
donor molecule, donor type, donor heavy atom, donor atom, acceptor molecule, acceptor atom, score
      L1  H     5    43       P1 10175  1.00
      P1  H  7989  7998       L1    12  0.30
      P1  H  7997  8008       L1    18  0.29

> <Gold.Chemscore.Hbond.Weighted>
-9.5865

> <Gold.Chemscore.Metal.Weighted>
-0.0000

> <Gold.Chemscore.Lipo.Weighted>
-5.4456

> <Gold.Chemscore.Internal_Hbond.Weighted>
0.0000

> <Gold.Chemscore.DEClash.Weighted>
0.1171

> <Gold.Chemscore.DEInternal.Weighted>
0.6221

> <Gold.Chemscore.Rot.Weighted>
8.1737

> <Gold.Chemscore.Internal.Correction.Weighted>
   9.000000E+99

> <Gold.Protein.RotatedTorsions>
[ 6907 6896 6895 6894 ] final  103.89 input  -60.11 | X-H torsion
[ 7974 7965 7964 7962 ] final   17.99 input  175.53 | X-H torsion
[ 8008 7997 7996 7995 ] final  -51.77 input   59.86 | X-H torsion
[ 10167 10162 10161 10158 ] final   72.84 input  -65.29 | X-H torsion
[ 10718 10713 10712 10709 ] final   23.52 input   66.30 | X-H torsion
[ 10763 10752 10751 10750 ] final -131.69 input  -60.55 | X-H torsion
[ 11005 11000 10999 10996 ] final  -64.26 input  -57.11 | X-H torsion

> <Gold.Protein.ActiveResidues>
 VAL166  LYS551  ARG553  GLY616  TRP617  ASP618  TYR619  PRO620  LYS621  CYS622 
 ASP623  PHE694  ASN695  SER759  ASP760  ASP761  ALA762  ILE779  LEU786  VAL792 
 PHE793  MET794  SER795  GLU796  ALA797  LYS798  CYS799  TRP800  GLU811  SER814 

> <Gold.Protein.RotatedAtoms>
  152.5281  133.9758  159.7783 H   0  0  0  0  0  0  0  0  0  0  0  0  # atno 6907 bound_to 6896
  151.0021  133.6038  159.2700 H   0  0  0  0  0  0  0  0  0  0  0  0  # atno 6908 bound_to 6896
  151.3143  135.0808  159.9336 H   0  0  0  0  0  0  0  0  0  0  0  0  # atno 6909 bound_to 6896
  146.2200  139.8522  142.8620 H   0  0  0  0  0  0  0  0  0  0  0  0  # atno 7974 bound_to 7965
  154.4090  140.1240  156.4883 H   0  0  0  0  0  0  0  0  0  0  0  0  # atno 8008 bound_to 7997
  155.7016  140.3494  155.4916 H   0  0  0  0  0  0  0  0  0  0  0  0  # atno 8009 bound_to 7997
  155.9380  140.1082  157.1068 H   0  0  0  0  0  0  0  0  0  0  0  0  # atno 8010 bound_to 7997
  140.0309  144.5466  150.7508 H   0  0  0  0  0  0  0  0  0  0  0  0  # atno 10167 bound_to 10162
  157.1672  130.6743  149.6065 H   0  0  0  0  0  0  0  0  0  0  0  0  # atno 10718 bound_to 10713
  154.8749  135.3822  154.4288 H   0  0  0  0  0  0  0  0  0  0  0  0  # atno 10763 bound_to 10752
  153.4984  135.7030  153.5850 H   0  0  0  0  0  0  0  0  0  0  0  0  # atno 10764 bound_to 10752
  153.4193  135.3905  155.2067 H   0  0  0  0  0  0  0  0  0  0  0  0  # atno 10765 bound_to 10752
  141.1419  133.6663  156.5806 H   0  0  0  0  0  0  0  0  0  0  0  0  # atno 11005 bound_to 11000
  145.2790  141.0132  143.3728 LP  0  0  0  0  0  0  0  0  0  0  0  0  # atno 17320 bound_to 7965
  144.9165  139.4464  143.6562 LP  0  0  0  0  0  0  0  0  0  0  0  0  # atno 17321 bound_to 7965
  140.7302  143.2681  151.3978 LP  0  0  0  0  0  0  0  0  0  0  0  0  # atno 17342 bound_to 10162
  139.6077  144.1164  152.2266 LP  0  0  0  0  0  0  0  0  0  0  0  0  # atno 17343 bound_to 10162
  155.9744  130.4691  150.6384 LP  0  0  0  0  0  0  0  0  0  0  0  0  # atno 17370 bound_to 10713
  157.4077  131.0819  151.1250 LP  0  0  0  0  0  0  0  0  0  0  0  0  # atno 17371 bound_to 10713
  140.3840  134.7498  157.4680 LP  0  0  0  0  0  0  0  0  0  0  0  0  # atno 17394 bound_to 11000
  140.0616  134.5988  155.8743 LP  0  0  0  0  0  0  0  0  0  0  0  0  # atno 17395 bound_to 11000

$$$$
