AV-unprocessed.smi:2945|AV-procd|sdf|11276|dock10
  -GOLD-   2272016173D 1   1.00000     0.00000
 Structure written by MMmdl.
 36 37  0  0  0  0  0  0  0  0  1 V2000
  149.3146  123.9913  150.8393 C   0  0  0  0  0  0  0  0  0  0  0  0
  148.7384  125.3082  151.2325 C   0  0  0  0  0  0  0  0  0  0  0  0
  148.6210  126.5037  150.5811 C   0  0  0  0  0  0  0  0  0  0  0  0
  147.9733  127.3277  151.5395 C   0  0  0  0  0  0  0  0  0  0  0  0
  147.6637  128.6799  151.2446 N   0  0  0  0  0  0  0  0  0  0  0  0
  146.5182  129.3338  151.5022 C   0  0  0  0  0  0  0  0  0  0  0  0
  145.5288  128.8415  152.0452 O   0  0  0  0  0  0  0  0  0  0  0  0
  146.5856  130.6083  151.0889 N   0  0  0  0  0  0  0  0  0  0  0  0
  145.5171  131.6024  151.1877 C   0  0  2  0  0  0  0  0  0  0  0  0
  145.1596  132.0830  149.7672 C   0  0  0  0  0  0  0  0  0  0  0  0
  144.0891  133.1832  149.7898 C   0  0  0  0  0  0  0  0  0  0  0  0
  144.5341  134.3616  150.6655 C   0  0  0  0  0  0  0  0  0  0  0  0
  144.8704  133.8924  152.0887 C   0  0  0  0  0  0  0  0  0  0  0  0
  145.9455  132.7861  152.0934 C   0  0  1  0  0  0  0  0  0  0  0  0
  146.2579  132.3483  153.5355 C   0  0  0  0  0  0  0  0  0  0  0  0
  147.7195  126.6932  152.6739 N   0  0  0  0  0  0  0  0  0  0  0  0
  148.2089  125.3956  152.4829 O   0  0  0  0  0  0  0  0  0  0  0  0
  149.6063  123.9916  149.7890 H   0  0  0  0  0  0  0  0  0  0  0  0
  148.5889  123.1915  150.9883 H   0  0  0  0  0  0  0  0  0  0  0  0
  150.1979  123.7628  151.4358 H   0  0  0  0  0  0  0  0  0  0  0  0
  148.9461  126.7462  149.5803 H   0  0  0  0  0  0  0  0  0  0  0  0
  148.3934  129.2058  150.7870 H   0  0  0  0  0  0  0  0  0  0  0  0
  147.4452  130.9176  150.6597 H   0  0  0  0  0  0  0  0  0  0  0  0
  144.6214  131.1501  151.6179 H   0  0  0  0  0  0  0  0  0  0  0  0
  146.0535  132.4628  149.2697 H   0  0  0  0  0  0  0  0  0  0  0  0
  144.8064  131.2436  149.1672 H   0  0  0  0  0  0  0  0  0  0  0  0
  143.8889  133.5288  148.7752 H   0  0  0  0  0  0  0  0  0  0  0  0
  143.1515  132.7756  150.1701 H   0  0  0  0  0  0  0  0  0  0  0  0
  145.4071  134.8410  150.2206 H   0  0  0  0  0  0  0  0  0  0  0  0
  143.7489  135.1175  150.6986 H   0  0  0  0  0  0  0  0  0  0  0  0
  145.2095  134.7442  152.6796 H   0  0  0  0  0  0  0  0  0  0  0  0
  143.9637  133.5257  152.5719 H   0  0  0  0  0  0  0  0  0  0  0  0
  146.8587  133.2153  151.6779 H   0  0  0  0  0  0  0  0  0  0  0  0
  145.3928  131.8734  153.9995 H   0  0  0  0  0  0  0  0  0  0  0  0
  146.5384  133.2024  154.1522 H   0  0  0  0  0  0  0  0  0  0  0  0
  147.0855  131.6402  153.5726 H   0  0  0  0  0  0  0  0  0  0  0  0
  1  2  1  0  0  0  0
  1 18  1  0  0  0  0
  1 19  1  0  0  0  0
  1 20  1  0  0  0  0
  2 17  1  0  0  0  0
  2  3  2  0  0  0  0
  3  4  1  0  0  0  0
  3 21  1  0  0  0  0
  4  5  1  0  0  0  0
  4 16  2  0  0  0  0
  5  6  1  0  0  0  0
  5 22  1  0  0  0  0
  6  7  2  0  0  0  0
  6  8  1  0  0  0  0
  8  9  1  0  0  0  0
  8 23  1  0  0  0  0
  9 14  1  0  0  0  0
  9 10  1  0  0  0  0
  9 24  1  0  0  0  0
 10 11  1  0  0  0  0
 10 25  1  0  0  0  0
 10 26  1  0  0  0  0
 11 12  1  0  0  0  0
 11 27  1  0  0  0  0
 11 28  1  0  0  0  0
 12 13  1  0  0  0  0
 12 29  1  0  0  0  0
 12 30  1  0  0  0  0
 13 14  1  0  0  0  0
 13 31  1  0  0  0  0
 13 32  1  0  0  0  0
 14 15  1  0  0  0  0
 14 33  1  0  0  0  0
 15 34  1  0  0  0  0
 15 35  1  0  0  0  0
 15 36  1  0  0  0  0
 16 17  1  0  0  0  0
M  END
> <s_m_source_file>
AV-unprocessed.smi

> <i_m_source_file_index>
2945

> <i_lp_mmshare_version>
43012

> <i_f3d_flags>
0

> <s_epik_input>
W0NIM11jMVtjSF1jKG5vMSlbTkhdQyg9TylbTkhdW0NAQEhdMltDSDJdW0NIMl1bQ0gyXVtDSDJdW0NASF0yW0NIM10=

> <s_epik_cmdline>
J2VwaWtfcHl0aG9uJywgJy1waCcsICc3LjAnLCAnLXRuJywgJzgnLCAnLW1hJywgJzIwMCcsICctbWV0YWxfYmluZGluZycsICctaW1hZScsICc8aW5maWxlLm1hZT4nLCAnLW9tYWUnLCAnPG91dGZpbGUubWFlPic=

> <r_lp_tautomer_probability>
1

> <r_epik_Ionization_Penalty>
2.357e-05

> <r_epik_Ionization_Penalty_Charging>
0

> <r_epik_Ionization_Penalty_Neutral>
2.357e-05

> <r_epik_State_Penalty>
-0

> <r_epik_Charging_Adjusted_Penalty>
0

> <i_epik_Tot_Q>
0

> <i_epik_Tot_abs_Q>
0

> <r_epik_Metal_State_Penalty>
-0

> <b_epik_Metal_Only>
0

> <s_lp_Force_Field>
OPLS_2005

> <r_lp_Energy>
8.52615

> <b_lp_Chiralities_Consistent>
1

> <s_lp_Variant>
AV-unprocessed.smi:2945-1

> <Gold.Version>
5.8.1

> <Gold.Id.Protein>
6NUR|6NUR_protein|mol2

> <Gold.PLP.Fitness>
39.4018

> <Gold.PLP.PLP>
-35.0836

> <Gold.PLP.part.hbond>
-3.0302

> <Gold.PLP.part.metal>
0.0000

> <Gold.PLP.part.buried>
-6.8184

> <Gold.PLP.part.nonpolar>
-25.7172

> <Gold.PLP.part.repulsive>
0.3363

> <Gold.PLP.ligand.clash>
0.0000

> <Gold.PLP.ligand.torsion>
0.3677

> <Gold.PLP.Chemscore.Hbond>
1.6832

> <Gold.PLP.Chemscore.CHOScore>
0.0000

> <Gold.PLP.Chemscore.Metal>
0.0000

> <Gold.Chemscore.Hbonds>
donor molecule, donor type, donor heavy atom, donor atom, acceptor molecule, acceptor atom, score
      L1  H     5    22       P1 10747  0.62
      L1  H     8    23       P1 10747  1.00

> <Gold.PLP.Chemscore.Internal.Correction>
0.0040

> <Gold.Rescore>
     Score         DG    S(hbond)    S(metal)    S(lipo)     H(rot)  DE(clash)    DE(int)     intcor
     14.24     -14.68       1.04        0.00      70.91       1.00       0.07       0.37       ----

> <Gold.Chemscore.Fitness>
14.2432

> <Gold.Chemscore.DG>
-14.6823

> <Gold.Chemscore.ZeroCoef>
-5.4800

> <Gold.Chemscore.Hbond>
1.0377

> <Gold.Chemscore.Metal>
0.0000

> <Gold.Chemscore.Lipo>
70.9101

> <Gold.Chemscore.Internal_Hbond>
0.0000

> <Gold.Chemscore.DEClash>
0.0688

> <Gold.Chemscore.DEInternal>
0.3703

> <Gold.Chemscore.Rot>
1.0000

> <Gold.Chemscore.Internal.Correction>
   9.000000E+99

> <Gold.Chemscore.Hbonds>
donor molecule, donor type, donor heavy atom, donor atom, acceptor molecule, acceptor atom, score
      L1  H     5    22       P1 10747  0.05
      L1  H     8    23       P1 10747  0.96

> <Gold.Chemscore.Hbond.Weighted>
-3.4658

> <Gold.Chemscore.Metal.Weighted>
-0.0000

> <Gold.Chemscore.Lipo.Weighted>
-8.2965

> <Gold.Chemscore.Internal_Hbond.Weighted>
0.0000

> <Gold.Chemscore.DEClash.Weighted>
0.0688

> <Gold.Chemscore.DEInternal.Weighted>
0.3703

> <Gold.Chemscore.Rot.Weighted>
2.5600

> <Gold.Chemscore.Internal.Correction.Weighted>
   9.000000E+99

> <Gold.Protein.RotatedTorsions>
[ 6907 6896 6895 6894 ] final  -81.01 input  -60.11 | X-H torsion
[ 7974 7965 7964 7962 ] final  -75.01 input  175.53 | X-H torsion
[ 8008 7997 7996 7995 ] final  115.82 input   59.86 | X-H torsion
[ 10167 10162 10161 10158 ] final  117.67 input  -65.29 | X-H torsion
[ 10718 10713 10712 10709 ] final   11.16 input   66.30 | X-H torsion
[ 10763 10752 10751 10750 ] final  -30.92 input  -60.55 | X-H torsion
[ 11005 11000 10999 10996 ] final  -49.17 input  -57.11 | X-H torsion

> <Gold.Protein.ActiveResidues>
 VAL166  LYS551  ARG553  GLY616  TRP617  ASP618  TYR619  PRO620  LYS621  CYS622 
 ASP623  PHE694  ASN695  SER759  ASP760  ASP761  ALA762  ILE779  LEU786  VAL792 
 PHE793  MET794  SER795  GLU796  ALA797  LYS798  CYS799  TRP800  GLU811  SER814 

> <Gold.Protein.RotatedAtoms>
  150.6919  134.3882  159.5064 H   0  0  0  0  0  0  0  0  0  0  0  0  # atno 6907 bound_to 6896
  152.1674  134.8859  160.0546 H   0  0  0  0  0  0  0  0  0  0  0  0  # atno 6908 bound_to 6896
  151.9898  133.3752  159.4177 H   0  0  0  0  0  0  0  0  0  0  0  0  # atno 6909 bound_to 6896
  145.6316  140.9336  143.1084 H   0  0  0  0  0  0  0  0  0  0  0  0  # atno 7974 bound_to 7965
  156.2403  140.2930  156.0427 H   0  0  0  0  0  0  0  0  0  0  0  0  # atno 8008 bound_to 7997
  155.1969  140.0408  157.2928 H   0  0  0  0  0  0  0  0  0  0  0  0  # atno 8009 bound_to 7997
  154.6156  140.2463  155.7620 H   0  0  0  0  0  0  0  0  0  0  0  0  # atno 8010 bound_to 7997
  139.6163  144.7092  151.2733 H   0  0  0  0  0  0  0  0  0  0  0  0  # atno 10167 bound_to 10162
  156.9916  130.6044  149.5686 H   0  0  0  0  0  0  0  0  0  0  0  0  # atno 10718 bound_to 10713
  153.7889  135.6899  153.4875 H   0  0  0  0  0  0  0  0  0  0  0  0  # atno 10763 bound_to 10752
  153.1762  135.4523  154.9967 H   0  0  0  0  0  0  0  0  0  0  0  0  # atno 10764 bound_to 10752
  154.8052  135.3354  154.7387 H   0  0  0  0  0  0  0  0  0  0  0  0  # atno 10765 bound_to 10752
  141.0744  133.6670  156.3547 H   0  0  0  0  0  0  0  0  0  0  0  0  # atno 11005 bound_to 11000
  144.7191  139.8091  143.7388 LP  0  0  0  0  0  0  0  0  0  0  0  0  # atno 17320 bound_to 7965
  146.1352  139.4396  143.0143 LP  0  0  0  0  0  0  0  0  0  0  0  0  # atno 17321 bound_to 7965
  140.7353  143.6741  150.8056 LP  0  0  0  0  0  0  0  0  0  0  0  0  # atno 17342 bound_to 10162
  140.0345  143.5410  152.2745 LP  0  0  0  0  0  0  0  0  0  0  0  0  # atno 17343 bound_to 10162
  156.0205  130.5300  150.8261 LP  0  0  0  0  0  0  0  0  0  0  0  0  # atno 17370 bound_to 10713
  157.5455  131.0942  150.9769 LP  0  0  0  0  0  0  0  0  0  0  0  0  # atno 17371 bound_to 10713
  140.5606  134.5938  157.5432 LP  0  0  0  0  0  0  0  0  0  0  0  0  # atno 17394 bound_to 11000
  139.9556  134.7541  156.0349 LP  0  0  0  0  0  0  0  0  0  0  0  0  # atno 17395 bound_to 11000

$$$$
