AV-unprocessed.smi:1703|AV-procd|sdf|6859|dock8
  -GOLD-   22720 8 43D 1   1.00000     0.00000
 Structure written by MMmdl.
 49 51  0  0  0  0  0  0  0  0  2 V2000
  146.2688  136.7240  157.6908 C   0  0  0  0  0  0  0  0  0  0  0  0
  146.5790  137.5704  156.4514 C   0  0  2  0  0  0  0  0  0  0  0  0
  148.0935  137.7458  156.2371 C   0  0  0  0  0  0  0  0  0  0  0  0
  148.3507  138.6404  155.0859 N   0  3  2  0  0  0  0  0  0  0  0  0
  149.7942  138.7548  154.7592 C   0  0  0  0  0  0  0  0  0  0  0  0
  150.5583  139.6176  155.7869 C   0  0  2  0  0  0  0  0  0  0  0  0
  151.8172  139.9646  155.2464 O   0  0  0  0  0  0  0  0  0  0  0  0
  150.8004  138.9093  157.1345 C   0  0  0  0  0  0  0  0  0  0  0  0
  151.7870  139.5960  157.9579 N   0  0  0  0  0  0  0  0  0  0  0  0
  152.8675  139.0789  158.5976 C   0  0  0  0  0  0  0  0  0  0  0  0
  153.2186  137.6238  158.5379 C   0  0  0  0  0  0  0  0  0  0  0  0
  153.2910  137.0281  159.8153 O   0  0  0  0  0  0  0  0  0  0  0  0
  153.6015  139.9492  159.2914 N   0  0  0  0  0  0  0  0  0  0  0  0
  152.9453  141.1442  159.0731 C   0  0  0  0  0  0  0  0  0  0  0  0
  153.2320  142.4478  159.5375 C   0  0  0  0  0  0  0  0  0  0  0  0
  152.4048  143.5317  159.1774 C   0  0  0  0  0  0  0  0  0  0  0  0
  151.2818  143.3284  158.3494 C   0  0  0  0  0  0  0  0  0  0  0  0
  150.9783  142.0375  157.8758 C   0  0  0  0  0  0  0  0  0  0  0  0
  151.8062  140.9587  158.2396 C   0  0  0  0  0  0  0  0  0  0  0  0
  147.6851  139.9496  155.2955 C   0  0  0  0  0  0  0  0  0  0  0  0
  146.1775  139.7669  155.5566 C   0  0  1  0  0  0  0  0  0  0  0  0
  145.3789  139.3855  154.2973 C   0  0  0  0  0  0  0  0  0  0  0  0
  145.9715  138.8475  156.6294 O   0  0  0  0  0  0  0  0  0  0  0  0
  146.7023  135.7273  157.6052 H   0  0  0  0  0  0  0  0  0  0  0  0
  145.1929  136.6071  157.8236 H   0  0  0  0  0  0  0  0  0  0  0  0
  146.6669  137.1857  158.5950 H   0  0  0  0  0  0  0  0  0  0  0  0
  146.1422  137.0725  155.5854 H   0  0  0  0  0  0  0  0  0  0  0  0
  148.5613  138.1598  157.1321 H   0  0  0  0  0  0  0  0  0  0  0  0
  148.5502  136.7719  156.0566 H   0  0  0  0  0  0  0  0  0  0  0  0
  150.2160  137.7512  154.6919 H   0  0  0  0  0  0  0  0  0  0  0  0
  149.9191  139.2016  153.7716 H   0  0  0  0  0  0  0  0  0  0  0  0
  150.0163  140.5428  155.9780 H   0  0  0  0  0  0  0  0  0  0  0  0
  151.7849  139.8565  154.3077 H   0  0  0  0  0  0  0  0  0  0  0  0
  149.8655  138.8089  157.6849 H   0  0  0  0  0  0  0  0  0  0  0  0
  151.1587  137.8932  156.9624 H   0  0  0  0  0  0  0  0  0  0  0  0
  152.4670  137.0952  157.9503 H   0  0  0  0  0  0  0  0  0  0  0  0
  154.1684  137.4937  158.0196 H   0  0  0  0  0  0  0  0  0  0  0  0
  154.1642  137.1495  160.1554 H   0  0  0  0  0  0  0  0  0  0  0  0
  154.0910  142.6144  160.1704 H   0  0  0  0  0  0  0  0  0  0  0  0
  152.6342  144.5242  159.5367 H   0  0  0  0  0  0  0  0  0  0  0  0
  150.6549  144.1648  158.0769 H   0  0  0  0  0  0  0  0  0  0  0  0
  150.1204  141.8803  157.2391 H   0  0  0  0  0  0  0  0  0  0  0  0
  148.1441  140.4490  156.1504 H   0  0  0  0  0  0  0  0  0  0  0  0
  147.8320  140.6047  154.4374 H   0  0  0  0  0  0  0  0  0  0  0  0
  145.7832  140.7236  155.9005 H   0  0  0  0  0  0  0  0  0  0  0  0
  145.4558  140.1670  153.5411 H   0  0  0  0  0  0  0  0  0  0  0  0
  144.3219  139.2578  154.5314 H   0  0  0  0  0  0  0  0  0  0  0  0
  145.7354  138.4616  153.8432 H   0  0  0  0  0  0  0  0  0  0  0  0
  147.9121  138.2066  154.2857 H   0  0  0  0  0  0  0  0  0  0  0  0
  1  2  1  0  0  0  0
  1 24  1  0  0  0  0
  1 25  1  0  0  0  0
  1 26  1  0  0  0  0
  2 23  1  0  0  0  0
  2  3  1  0  0  0  0
  2 27  1  0  0  0  0
  3  4  1  0  0  0  0
  3 28  1  0  0  0  0
  3 29  1  0  0  0  0
  4  5  1  0  0  0  0
  4 20  1  0  0  0  0
  4 49  1  0  0  0  0
  5  6  1  0  0  0  0
  5 30  1  0  0  0  0
  5 31  1  0  0  0  0
  6  7  1  0  0  0  0
  6  8  1  0  0  0  0
  6 32  1  0  0  0  0
  7 33  1  0  0  0  0
  8  9  1  0  0  0  0
  8 34  1  0  0  0  0
  8 35  1  0  0  0  0
  9 19  1  0  0  0  0
  9 10  1  0  0  0  0
 10 11  1  0  0  0  0
 10 13  2  0  0  0  0
 11 12  1  0  0  0  0
 11 36  1  0  0  0  0
 11 37  1  0  0  0  0
 12 38  1  0  0  0  0
 13 14  1  0  0  0  0
 14 19  2  0  0  0  0
 14 15  1  0  0  0  0
 15 16  2  0  0  0  0
 15 39  1  0  0  0  0
 16 17  1  0  0  0  0
 16 40  1  0  0  0  0
 17 18  2  0  0  0  0
 17 41  1  0  0  0  0
 18 19  1  0  0  0  0
 18 42  1  0  0  0  0
 20 21  1  0  0  0  0
 20 43  1  0  0  0  0
 20 44  1  0  0  0  0
 21 22  1  0  0  0  0
 21 23  1  0  0  0  0
 21 45  1  0  0  0  0
 22 46  1  0  0  0  0
 22 47  1  0  0  0  0
 22 48  1  0  0  0  0
M  CHG  1   4   1
M  END
> <s_m_source_file>
AV-unprocessed.smi

> <i_m_source_file_index>
1703

> <i_lp_mmshare_version>
43012

> <i_f3d_flags>
0

> <s_epik_input>
W0NIM11bQ0BASF0xW0NIMl1OKFtDSDJdW0NASF0oTzEpW0NIM10pW0NIMl1bQ0BIXShbT0hdKVtDSDJdbihjKG4yKVtDSDJdW09IXSljKGMyMylbY0hdW2NIXVtjSF1bY0hdMw==

> <s_epik_cmdline>
J2VwaWtfcHl0aG9uJywgJy1waCcsICc3LjAnLCAnLXRuJywgJzgnLCAnLW1hJywgJzIwMCcsICctbWV0YWxfYmluZGluZycsICctaW1hZScsICc8aW5maWxlLm1hZT4nLCAnLW9tYWUnLCAnPG91dGZpbGUubWFlPic=

> <r_epik_Ionization_Penalty>
0.655661

> <r_epik_Ionization_Penalty_Charging>
0.608065

> <r_epik_Ionization_Penalty_Neutral>
0.0475963

> <r_epik_State_Penalty>
0.695267

> <r_epik_Charging_Adjusted_Penalty>
1.30333

> <i_epik_Tot_Q>
1

> <i_epik_Tot_abs_Q>
1

> <r_epik_Metal_State_Penalty>
0.653591

> <b_epik_Metal_Only>
0

> <s_lp_Force_Field>
OPLS_2005

> <r_lp_Energy>
25.4362

> <b_lp_Chiralities_Consistent>
1

> <s_lp_Variant>
AV-unprocessed.smi:1703-7

> <Gold.Version>
5.8.1

> <Gold.Id.Protein>
6NUR|6NUR_protein|mol2

> <Gold.PLP.Fitness>
48.6991

> <Gold.PLP.PLP>
-37.4352

> <Gold.PLP.part.hbond>
-4.0000

> <Gold.PLP.part.metal>
0.0000

> <Gold.PLP.part.buried>
-5.1680

> <Gold.PLP.part.nonpolar>
-28.8314

> <Gold.PLP.part.repulsive>
0.0896

> <Gold.PLP.ligand.clash>
0.0000

> <Gold.PLP.ligand.torsion>
0.3904

> <Gold.PLP.Chemscore.Hbond>
3.9913

> <Gold.PLP.Chemscore.CHOScore>
0.0000

> <Gold.PLP.Chemscore.Metal>
0.0000

> <Gold.Chemscore.Hbonds>
donor molecule, donor type, donor heavy atom, donor atom, acceptor molecule, acceptor atom, score
      P1  H  6896  6907       L1    12  0.16

> <Gold.PLP.Chemscore.Internal.Correction>
0.0709

> <Gold.Rescore>
     Score         DG    S(hbond)    S(metal)    S(lipo)     H(rot)  DE(clash)    DE(int)     intcor
     17.70     -18.44       2.77        0.00      96.37       2.96       0.10       0.63       ----

> <Gold.Chemscore.Fitness>
17.7045

> <Gold.Chemscore.DG>
-18.4357

> <Gold.Chemscore.ZeroCoef>
-5.4800

> <Gold.Chemscore.Hbond>
2.7727

> <Gold.Chemscore.Metal>
0.0000

> <Gold.Chemscore.Lipo>
96.3711

> <Gold.Chemscore.Internal_Hbond>
0.0000

> <Gold.Chemscore.DEClash>
0.0997

> <Gold.Chemscore.DEInternal>
0.6315

> <Gold.Chemscore.Rot>
2.9611

> <Gold.Chemscore.Internal.Correction>
   9.000000E+99

> <Gold.Chemscore.Hbonds>
donor molecule, donor type, donor heavy atom, donor atom, acceptor molecule, acceptor atom, score
      P1  H  6896  6907       L1    12  0.16

> <Gold.Chemscore.Hbond.Weighted>
-9.2607

> <Gold.Chemscore.Metal.Weighted>
-0.0000

> <Gold.Chemscore.Lipo.Weighted>
-11.2754

> <Gold.Chemscore.Internal_Hbond.Weighted>
0.0000

> <Gold.Chemscore.DEClash.Weighted>
0.0997

> <Gold.Chemscore.DEInternal.Weighted>
0.6315

> <Gold.Chemscore.Rot.Weighted>
7.5803

> <Gold.Chemscore.Internal.Correction.Weighted>
   9.000000E+99

> <Gold.Protein.RotatedTorsions>
[ 6907 6896 6895 6894 ] final   41.35 input  -60.11 | X-H torsion
[ 7974 7965 7964 7962 ] final   71.44 input  175.53 | X-H torsion
[ 8008 7997 7996 7995 ] final -133.35 input   59.86 | X-H torsion
[ 10167 10162 10161 10158 ] final  -86.39 input  -65.29 | X-H torsion
[ 10718 10713 10712 10709 ] final  153.52 input   66.30 | X-H torsion
[ 10763 10752 10751 10750 ] final  -70.67 input  -60.55 | X-H torsion
[ 11005 11000 10999 10996 ] final -110.01 input  -57.11 | X-H torsion

> <Gold.Protein.ActiveResidues>
 VAL166  LYS551  ARG553  GLY616  TRP617  ASP618  TYR619  PRO620  LYS621  CYS622 
 ASP623  PHE694  ASN695  SER759  ASP760  ASP761  ALA762  ILE779  LEU786  VAL792 
 PHE793  MET794  SER795  GLU796  ALA797  LYS798  CYS799  TRP800  GLU811  SER814 

> <Gold.Protein.RotatedAtoms>
  152.1941  134.8646  160.0514 H   0  0  0  0  0  0  0  0  0  0  0  0  # atno 6907 bound_to 6896
  151.9523  133.3665  159.4013 H   0  0  0  0  0  0  0  0  0  0  0  0  # atno 6908 bound_to 6896
  150.6941  134.4251  159.5266 H   0  0  0  0  0  0  0  0  0  0  0  0  # atno 6909 bound_to 6896
  145.7657  139.2820  143.1350 H   0  0  0  0  0  0  0  0  0  0  0  0  # atno 7974 bound_to 7965
  155.3441  140.0473  157.3045 H   0  0  0  0  0  0  0  0  0  0  0  0  # atno 8008 bound_to 7997
  154.5262  140.2241  155.8851 H   0  0  0  0  0  0  0  0  0  0  0  0  # atno 8009 bound_to 7997
  156.1741  140.3089  155.9034 H   0  0  0  0  0  0  0  0  0  0  0  0  # atno 8010 bound_to 7997
  140.3946  143.2689  151.9220 H   0  0  0  0  0  0  0  0  0  0  0  0  # atno 10167 bound_to 10162
  157.2437  131.0764  151.1776 H   0  0  0  0  0  0  0  0  0  0  0  0  # atno 10718 bound_to 10713
  154.4209  135.5987  153.6009 H   0  0  0  0  0  0  0  0  0  0  0  0  # atno 10763 bound_to 10752
  152.9794  135.5952  154.3956 H   0  0  0  0  0  0  0  0  0  0  0  0  # atno 10764 bound_to 10752
  154.3781  135.2841  155.2206 H   0  0  0  0  0  0  0  0  0  0  0  0  # atno 10765 bound_to 10752
  141.0816  133.9210  157.2277 H   0  0  0  0  0  0  0  0  0  0  0  0  # atno 11005 bound_to 11000
  146.0219  140.8339  142.9919 LP  0  0  0  0  0  0  0  0  0  0  0  0  # atno 17320 bound_to 7965
  144.6822  140.2642  143.7315 LP  0  0  0  0  0  0  0  0  0  0  0  0  # atno 17321 bound_to 7965
  139.4787  144.5694  151.8113 LP  0  0  0  0  0  0  0  0  0  0  0  0  # atno 17342 bound_to 10162
  140.4804  144.1458  150.5931 LP  0  0  0  0  0  0  0  0  0  0  0  0  # atno 17343 bound_to 10162
  157.3352  130.7005  149.6348 LP  0  0  0  0  0  0  0  0  0  0  0  0  # atno 17370 bound_to 10713
  155.9669  130.4296  150.4839 LP  0  0  0  0  0  0  0  0  0  0  0  0  # atno 17371 bound_to 10713
  139.9630  135.0149  156.9312 LP  0  0  0  0  0  0  0  0  0  0  0  0  # atno 17394 bound_to 11000
  140.5456  134.0677  155.7354 LP  0  0  0  0  0  0  0  0  0  0  0  0  # atno 17395 bound_to 11000

$$$$
