AV-unprocessed.smi:2073|AV-procd|sdf|8451|dock2
  -GOLD-   2272011143D 1   1.00000     0.00000
 Structure written by MMmdl.
 27 27  0  0  0  0  0  0  0  0  2 V2000
  145.1203  135.1877  161.9721 C   0  0  0  0  0  0  0  0  0  0  0  0
  146.6272  135.1857  161.6677 C   0  0  0  0  0  0  0  0  0  0  0  0
  147.4336  134.5634  162.8214 C   0  0  0  0  0  0  0  0  0  0  0  0
  147.1128  136.6106  161.3463 C   0  0  0  0  0  0  0  0  0  0  0  0
  146.3396  137.5610  161.4827 O   0  0  0  0  0  0  0  0  0  0  0  0
  148.4000  136.6243  160.9226 N   0  5  0  0  0  0  0  0  0  0  0  0
  148.6650  136.7463  159.6129 C   0  0  0  0  0  0  0  0  0  0  0  0
  149.6376  136.0635  158.9996 N   0  0  0  0  0  0  0  0  0  0  0  0
  149.7404  136.3389  157.6328 C   0  0  0  0  0  0  0  0  0  0  0  0
  150.7766  135.6367  156.8030 C   0  0  0  0  0  0  0  0  0  0  0  0
  150.6044  135.9745  155.3198 C   0  0  0  0  0  0  0  0  0  0  0  0
  149.4512  135.6268  154.7411 N   0  0  0  0  0  0  0  0  0  0  0  0
  151.5077  136.5315  154.6994 O   0  0  0  0  0  0  0  0  0  0  0  0
  148.8317  137.2723  157.2046 C   0  0  0  0  0  0  0  0  0  0  0  0
  147.8120  137.8215  158.5035 S   0  0  0  0  0  0  0  0  0  0  0  0
  144.5493  135.6101  161.1442 H   0  0  0  0  0  0  0  0  0  0  0  0
  144.8941  135.7714  162.8654 H   0  0  0  0  0  0  0  0  0  0  0  0
  144.7548  134.1742  162.1372 H   0  0  0  0  0  0  0  0  0  0  0  0
  146.7866  134.5501  160.7938 H   0  0  0  0  0  0  0  0  0  0  0  0
  148.5042  134.5878  162.6146 H   0  0  0  0  0  0  0  0  0  0  0  0
  147.1537  133.5207  162.9717 H   0  0  0  0  0  0  0  0  0  0  0  0
  147.2629  135.0885  163.7620 H   0  0  0  0  0  0  0  0  0  0  0  0
  151.7785  135.9232  157.1250 H   0  0  0  0  0  0  0  0  0  0  0  0
  150.7114  134.5551  156.9293 H   0  0  0  0  0  0  0  0  0  0  0  0
  149.3071  135.8136  153.7586 H   0  0  0  0  0  0  0  0  0  0  0  0
  148.7371  135.1607  155.2812 H   0  0  0  0  0  0  0  0  0  0  0  0
  148.6976  137.6648  156.2077 H   0  0  0  0  0  0  0  0  0  0  0  0
  1  2  1  0  0  0  0
  1 16  1  0  0  0  0
  1 17  1  0  0  0  0
  1 18  1  0  0  0  0
  2  3  1  0  0  0  0
  2  4  1  0  0  0  0
  2 19  1  0  0  0  0
  3 20  1  0  0  0  0
  3 21  1  0  0  0  0
  3 22  1  0  0  0  0
  4  5  2  0  0  0  0
  4  6  1  0  0  0  0
  6  7  1  0  0  0  0
  7 15  1  0  0  0  0
  7  8  2  0  0  0  0
  8  9  1  0  0  0  0
  9 10  1  0  0  0  0
  9 14  2  0  0  0  0
 10 11  1  0  0  0  0
 10 23  1  0  0  0  0
 10 24  1  0  0  0  0
 11 12  1  0  0  0  0
 11 13  2  0  0  0  0
 12 25  1  0  0  0  0
 12 26  1  0  0  0  0
 14 15  1  0  0  0  0
 14 27  1  0  0  0  0
M  CHG  1   6  -1
M  END
> <s_m_source_file>
AV-unprocessed.smi

> <i_m_source_file_index>
2073

> <i_lp_mmshare_version>
43012

> <i_f3d_flags>
0

> <s_epik_input>
W0NIM11bQ0hdKFtDSDNdKUMoPU8pW05IXWMxbmMoW2NIXXMxKVtDSDJdQyg9TylbTkgyXQ==

> <s_epik_cmdline>
J2VwaWtfcHl0aG9uJywgJy1waCcsICc3LjAnLCAnLXRuJywgJzgnLCAnLW1hJywgJzIwMCcsICctbWV0YWxfYmluZGluZycsICctaW1hZScsICc8aW5maWxlLm1hZT4nLCAnLW9tYWUnLCAnPG91dGZpbGUubWFlPic=

> <r_lp_tautomer_probability>
1

> <r_epik_Ionization_Penalty>
5.4698

> <r_epik_Ionization_Penalty_Charging>
4.98646

> <r_epik_Ionization_Penalty_Neutral>
0.483343

> <r_epik_State_Penalty>
4.98633

> <r_epik_Charging_Adjusted_Penalty>
9.97279

> <i_epik_Tot_Q>
-1

> <i_epik_Tot_abs_Q>
1

> <r_epik_Metal_State_Penalty>
1.11062

> <b_epik_Metal_Only>
1

> <s_lp_Force_Field>
OPLS_2005

> <r_lp_Energy>
-0.551018

> <b_lp_Chiralities_Consistent>
1

> <s_lp_Variant>
AV-unprocessed.smi:2073-2

> <Gold.Version>
5.8.1

> <Gold.Id.Protein>
6NUR|6NUR_protein|mol2

> <Gold.PLP.Fitness>
38.3463

> <Gold.PLP.PLP>
-22.4259

> <Gold.PLP.part.hbond>
-5.0000

> <Gold.PLP.part.metal>
0.0000

> <Gold.PLP.part.buried>
-4.3303

> <Gold.PLP.part.nonpolar>
-13.7231

> <Gold.PLP.part.repulsive>
0.1831

> <Gold.PLP.ligand.clash>
0.0000

> <Gold.PLP.ligand.torsion>
1.1278

> <Gold.PLP.Chemscore.Hbond>
6.0000

> <Gold.PLP.Chemscore.CHOScore>
0.0000

> <Gold.PLP.Chemscore.Metal>
0.0000

> <Gold.Chemscore.Hbonds>
donor molecule, donor type, donor heavy atom, donor atom, acceptor molecule, acceptor atom, score
      L1  H    12    25       P1  7948  1.00
      P1  H  6896  6907       L1     8  1.00
      P1  H  6931  6943       L1     6  2.00
      P1  H  6934  6947       L1     5  1.00
      P1  H 10752 10765       L1    13  1.00

> <Gold.PLP.Chemscore.Internal.Correction>
0.1760

> <Gold.Rescore>
     Score         DG    S(hbond)    S(metal)    S(lipo)     H(rot)  DE(clash)    DE(int)     intcor
     15.43     -17.25       3.76        0.00      34.79       1.90       0.08       1.74       ----

> <Gold.Chemscore.Fitness>
15.4333

> <Gold.Chemscore.DG>
-17.2476

> <Gold.Chemscore.ZeroCoef>
-5.4800

> <Gold.Chemscore.Hbond>
3.7617

> <Gold.Chemscore.Metal>
0.0000

> <Gold.Chemscore.Lipo>
34.7929

> <Gold.Chemscore.Internal_Hbond>
0.0000

> <Gold.Chemscore.DEClash>
0.0782

> <Gold.Chemscore.DEInternal>
1.7360

> <Gold.Chemscore.Rot>
1.9012

> <Gold.Chemscore.Internal.Correction>
   9.000000E+99

> <Gold.Chemscore.Hbonds>
donor molecule, donor type, donor heavy atom, donor atom, acceptor molecule, acceptor atom, score
      L1  H    12    25       P1  7948  0.65
      P1  H  6896  6907       L1     8  0.83
      P1  H  6931  6943       L1     6  0.18
      P1  H  6934  6947       L1     5  0.68
      P1  H 10752 10765       L1    13  0.97

> <Gold.Chemscore.Hbond.Weighted>
-12.5639

> <Gold.Chemscore.Metal.Weighted>
-0.0000

> <Gold.Chemscore.Lipo.Weighted>
-4.0708

> <Gold.Chemscore.Internal_Hbond.Weighted>
0.0000

> <Gold.Chemscore.DEClash.Weighted>
0.0782

> <Gold.Chemscore.DEInternal.Weighted>
1.7360

> <Gold.Chemscore.Rot.Weighted>
4.8671

> <Gold.Chemscore.Internal.Correction.Weighted>
   9.000000E+99

> <Gold.Protein.RotatedTorsions>
[ 6907 6896 6895 6894 ] final  -71.12 input  -60.11 | X-H torsion
[ 7974 7965 7964 7962 ] final  -97.98 input  175.53 | X-H torsion
[ 8008 7997 7996 7995 ] final  133.36 input   59.86 | X-H torsion
[ 10167 10162 10161 10158 ] final   50.57 input  -65.29 | X-H torsion
[ 10718 10713 10712 10709 ] final -126.64 input   66.30 | X-H torsion
[ 10763 10752 10751 10750 ] final  160.19 input  -60.55 | X-H torsion
[ 11005 11000 10999 10996 ] final -131.75 input  -57.11 | X-H torsion

> <Gold.Protein.ActiveResidues>
 VAL166  LYS551  ARG553  GLY616  TRP617  ASP618  TYR619  PRO620  LYS621  CYS622 
 ASP623  PHE694  ASN695  SER759  ASP760  ASP761  ALA762  ILE779  LEU786  VAL792 
 PHE793  MET794  SER795  GLU796  ALA797  LYS798  CYS799  TRP800  GLU811  SER814 

> <Gold.Protein.RotatedAtoms>
  150.7227  134.5355  159.5721 H   0  0  0  0  0  0  0  0  0  0  0  0  # atno 6907 bound_to 6896
  152.2878  134.7753  160.0393 H   0  0  0  0  0  0  0  0  0  0  0  0  # atno 6908 bound_to 6896
  151.8377  133.3383  159.3670 H   0  0  0  0  0  0  0  0  0  0  0  0  # atno 6909 bound_to 6896
  145.3266  140.9433  143.2685 H   0  0  0  0  0  0  0  0  0  0  0  0  # atno 7974 bound_to 7965
  156.2991  140.2523  156.3241 H   0  0  0  0  0  0  0  0  0  0  0  0  # atno 8008 bound_to 7997
  154.9207  140.0401  157.2015 H   0  0  0  0  0  0  0  0  0  0  0  0  # atno 8009 bound_to 7997
  154.8313  140.2876  155.5724 H   0  0  0  0  0  0  0  0  0  0  0  0  # atno 8010 bound_to 7997
  140.2711  144.3265  150.6290 H   0  0  0  0  0  0  0  0  0  0  0  0  # atno 10167 bound_to 10162
  156.1783  130.6715  151.0272 H   0  0  0  0  0  0  0  0  0  0  0  0  # atno 10718 bound_to 10713
  154.2436  135.2774  155.2844 H   0  0  0  0  0  0  0  0  0  0  0  0  # atno 10763 bound_to 10752
  154.5524  135.5671  153.6938 H   0  0  0  0  0  0  0  0  0  0  0  0  # atno 10764 bound_to 10752
  152.9995  135.6278  154.2580 H   0  0  0  0  0  0  0  0  0  0  0  0  # atno 10765 bound_to 10752
  140.9231  134.1418  157.4297 H   0  0  0  0  0  0  0  0  0  0  0  0  # atno 11005 bound_to 11000
  144.8897  139.4791  143.6684 LP  0  0  0  0  0  0  0  0  0  0  0  0  # atno 17320 bound_to 7965
  146.3062  139.7587  142.9054 LP  0  0  0  0  0  0  0  0  0  0  0  0  # atno 17321 bound_to 7965
  140.5889  143.2169  151.7290 LP  0  0  0  0  0  0  0  0  0  0  0  0  # atno 17342 bound_to 10162
  139.4989  144.3969  152.0222 LP  0  0  0  0  0  0  0  0  0  0  0  0  # atno 17343 bound_to 10162
  157.6851  131.0827  150.7265 LP  0  0  0  0  0  0  0  0  0  0  0  0  # atno 17370 bound_to 10713
  156.7322  130.4713  149.5497 LP  0  0  0  0  0  0  0  0  0  0  0  0  # atno 17371 bound_to 10713
  139.8780  134.9978  156.5869 LP  0  0  0  0  0  0  0  0  0  0  0  0  # atno 17394 bound_to 11000
  140.7961  133.8543  155.8687 LP  0  0  0  0  0  0  0  0  0  0  0  0  # atno 17395 bound_to 11000

$$$$
