AV-unprocessed.smi:743|AV-procd|sdf|3560|dock2
  -GOLD-   22720 0553D 1   1.00000     0.00000
 Structure written by MMmdl.
 29 30  0  0  0  0  0  0  0  0  2 V2000
  151.8394  138.3172  154.6143 C   0  0  0  0  0  0  0  0  0  0  0  0
  150.6510  139.1338  154.4905 N   0  0  0  0  0  0  0  0  0  0  0  0
  149.3836  138.7562  154.1048 C   0  0  0  0  0  0  0  0  0  0  0  0
  148.5917  139.8727  154.1302 C   0  0  0  0  0  0  0  0  0  0  0  0
  147.1227  140.0248  153.7887 C   0  0  2  0  0  0  0  0  0  0  0  0
  146.3194  140.1834  155.0039 N   0  0  0  0  0  0  0  0  0  0  0  0
  145.6304  139.2186  155.6420 C   0  0  0  0  0  0  0  0  0  0  0  0
  145.0837  139.4306  156.7212 O   0  0  0  0  0  0  0  0  0  0  0  0
  145.4817  137.8377  154.9809 C   0  0  0  0  0  0  0  0  0  0  0  0
  146.4365  137.5917  153.7984 C   0  0  0  0  0  0  0  0  0  0  0  0
  146.5842  138.8513  152.9345 C   0  0  2  0  0  0  0  0  0  0  0  0
  147.4046  138.5996  151.7350 N   0  3  0  0  0  0  0  0  0  0  0  0
  149.4873  140.8918  154.5671 C   0  0  0  0  0  0  0  0  0  0  0  0
  150.7161  140.4500  154.7735 N   0  0  0  0  0  0  0  0  0  0  0  0
  145.5919  139.1221  152.5703 H   0  0  0  0  0  0  0  0  0  0  0  0
  151.6188  137.2891  154.3263 H   0  0  0  0  0  0  0  0  0  0  0  0
  152.1891  138.3283  155.6471 H   0  0  0  0  0  0  0  0  0  0  0  0
  152.6246  138.7058  153.9650 H   0  0  0  0  0  0  0  0  0  0  0  0
  149.1528  137.7344  153.8401 H   0  0  0  0  0  0  0  0  0  0  0  0
  146.9841  140.9425  153.2155 H   0  0  0  0  0  0  0  0  0  0  0  0
  146.3548  141.0904  155.4473 H   0  0  0  0  0  0  0  0  0  0  0  0
  145.6086  137.0576  155.7321 H   0  0  0  0  0  0  0  0  0  0  0  0
  144.4521  137.7620  154.6299 H   0  0  0  0  0  0  0  0  0  0  0  0
  147.4101  137.2710  154.1717 H   0  0  0  0  0  0  0  0  0  0  0  0
  146.0564  136.7665  153.1953 H   0  0  0  0  0  0  0  0  0  0  0  0
  147.8156  137.6789  151.7976 H   0  0  0  0  0  0  0  0  0  0  0  0
  148.1377  139.2917  151.6749 H   0  0  0  0  0  0  0  0  0  0  0  0
  149.2811  141.9390  154.7328 H   0  0  0  0  0  0  0  0  0  0  0  0
  146.8232  138.6531  150.9107 H   0  0  0  0  0  0  0  0  0  0  0  0
  1  2  1  0  0  0  0
  1 16  1  0  0  0  0
  1 17  1  0  0  0  0
  1 18  1  0  0  0  0
  2 14  1  0  0  0  0
  2  3  1  0  0  0  0
  3  4  2  0  0  0  0
  3 19  1  0  0  0  0
  4  5  1  0  0  0  0
  4 13  1  0  0  0  0
  5 11  1  0  0  0  0
  5  6  1  0  0  0  0
  5 20  1  0  0  0  0
  6  7  1  0  0  0  0
  6 21  1  0  0  0  0
  7  8  2  0  0  0  0
  7  9  1  0  0  0  0
  9 10  1  0  0  0  0
  9 22  1  0  0  0  0
  9 23  1  0  0  0  0
 10 11  1  0  0  0  0
 10 24  1  0  0  0  0
 10 25  1  0  0  0  0
 11 15  1  0  0  0  0
 11 12  1  0  0  0  0
 12 26  1  0  0  0  0
 12 27  1  0  0  0  0
 12 29  1  0  0  0  0
 13 14  2  0  0  0  0
 13 28  1  0  0  0  0
M  CHG  1  12   1
M  END
> <s_m_source_file>
AV-unprocessed.smi

> <i_m_source_file_index>
743

> <i_lp_mmshare_version>
43012

> <i_f3d_flags>
0

> <s_epik_input>
W0NIM11uMVtjSF1jKFtjSF1uMSlbQ0BASF0yW05IXUMoPU8pW0NIMl1bQ0gyXVtDQEBIXTJbTkgyXQ==

> <s_epik_cmdline>
J2VwaWtfcHl0aG9uJywgJy1waCcsICc3LjAnLCAnLXRuJywgJzgnLCAnLW1hJywgJzIwMCcsICctbWV0YWxfYmluZGluZycsICctaW1hZScsICc8aW5maWxlLm1hZT4nLCAnLW9tYWUnLCAnPG91dGZpbGUubWFlPic=

> <r_lp_tautomer_probability>
1

> <r_epik_Ionization_Penalty>
0.00878543

> <r_epik_Ionization_Penalty_Charging>
0.00874185

> <r_epik_Ionization_Penalty_Neutral>
4.35793e-05

> <r_epik_State_Penalty>
0.00660351

> <r_epik_Charging_Adjusted_Penalty>
0.0153454

> <i_epik_Tot_Q>
1

> <i_epik_Tot_abs_Q>
1

> <r_epik_Metal_State_Penalty>
0.00660727

> <b_epik_Metal_Only>
0

> <s_lp_Force_Field>
OPLS_2005

> <r_lp_Energy>
11.1602

> <b_lp_Chiralities_Consistent>
1

> <s_lp_Variant>
AV-unprocessed.smi:743-1

> <Gold.Version>
5.8.1

> <Gold.Id.Protein>
6NUR|6NUR_protein|mol2

> <Gold.PLP.Fitness>
36.5270

> <Gold.PLP.PLP>
-22.3648

> <Gold.PLP.part.hbond>
-3.0000

> <Gold.PLP.part.metal>
0.0000

> <Gold.PLP.part.buried>
-1.6405

> <Gold.PLP.part.nonpolar>
-17.9912

> <Gold.PLP.part.repulsive>
0.8823

> <Gold.PLP.ligand.clash>
0.0000

> <Gold.PLP.ligand.torsion>
0.4284

> <Gold.PLP.Chemscore.Hbond>
4.0000

> <Gold.PLP.Chemscore.CHOScore>
1.0000

> <Gold.PLP.Chemscore.Metal>
0.0000

> <Gold.Chemscore.Hbonds>
donor molecule, donor type, donor heavy atom, donor atom, acceptor molecule, acceptor atom, score
      L1  H    12    26       P1  7948  2.00
      L1  H    12    27       P1  7957  1.00
      P1  H  7989  7998       L1    14  0.85
      L1  C     3    19       P1  7948  1.00

> <Gold.PLP.Chemscore.Internal.Correction>
0.0189

> <Gold.Rescore>
     Score         DG    S(hbond)    S(metal)    S(lipo)     H(rot)  DE(clash)    DE(int)     intcor
     15.85     -16.51       2.54        0.00      43.70       1.00       0.04       0.63       ----

> <Gold.Chemscore.Fitness>
15.8505

> <Gold.Chemscore.DG>
-16.5142

> <Gold.Chemscore.ZeroCoef>
-5.4800

> <Gold.Chemscore.Hbond>
2.5393

> <Gold.Chemscore.Metal>
0.0000

> <Gold.Chemscore.Lipo>
43.7017

> <Gold.Chemscore.Internal_Hbond>
0.0000

> <Gold.Chemscore.DEClash>
0.0384

> <Gold.Chemscore.DEInternal>
0.6253

> <Gold.Chemscore.Rot>
1.0000

> <Gold.Chemscore.Internal.Correction>
   9.000000E+99

> <Gold.Chemscore.Hbonds>
donor molecule, donor type, donor heavy atom, donor atom, acceptor molecule, acceptor atom, score
      L1  H    12    26       P1  7948  1.00
      L1  H    12    27       P1  7957  0.97
      P1  H  7989  7998       L1    14  0.09

> <Gold.Chemscore.Hbond.Weighted>
-8.4811

> <Gold.Chemscore.Metal.Weighted>
-0.0000

> <Gold.Chemscore.Lipo.Weighted>
-5.1131

> <Gold.Chemscore.Internal_Hbond.Weighted>
0.0000

> <Gold.Chemscore.DEClash.Weighted>
0.0384

> <Gold.Chemscore.DEInternal.Weighted>
0.6253

> <Gold.Chemscore.Rot.Weighted>
2.5600

> <Gold.Chemscore.Internal.Correction.Weighted>
   9.000000E+99

> <Gold.Protein.RotatedTorsions>
[ 6907 6896 6895 6894 ] final -171.20 input  -60.11 | X-H torsion
[ 7974 7965 7964 7962 ] final  145.41 input  175.53 | X-H torsion
[ 8008 7997 7996 7995 ] final  -63.98 input   59.86 | X-H torsion
[ 10167 10162 10161 10158 ] final  -66.43 input  -65.29 | X-H torsion
[ 10718 10713 10712 10709 ] final -140.59 input   66.30 | X-H torsion
[ 10763 10752 10751 10750 ] final  -96.70 input  -60.55 | X-H torsion
[ 11005 11000 10999 10996 ] final   66.03 input  -57.11 | X-H torsion

> <Gold.Protein.ActiveResidues>
 VAL166  LYS551  ARG553  GLY616  TRP617  ASP618  TYR619  PRO620  LYS621  CYS622 
 ASP623  PHE694  ASN695  SER759  ASP760  ASP761  ALA762  ILE779  LEU786  VAL792 
 PHE793  MET794  SER795  GLU796  ALA797  LYS798  CYS799  TRP800  GLU811  SER814 

> <Gold.Protein.RotatedAtoms>
  151.5199  133.3468  159.2899 H   0  0  0  0  0  0  0  0  0  0  0  0  # atno 6907 bound_to 6896
  150.8659  134.8024  159.7129 H   0  0  0  0  0  0  0  0  0  0  0  0  # atno 6908 bound_to 6896
  152.4663  134.5076  159.9795 H   0  0  0  0  0  0  0  0  0  0  0  0  # atno 6909 bound_to 6896
  144.8754  139.5780  143.5867 H   0  0  0  0  0  0  0  0  0  0  0  0  # atno 7974 bound_to 7965
  154.4585  140.0963  156.6826 H   0  0  0  0  0  0  0  0  0  0  0  0  # atno 8008 bound_to 7997
  155.5065  140.3475  155.4362 H   0  0  0  0  0  0  0  0  0  0  0  0  # atno 8009 bound_to 7997
  156.0825  140.1376  156.9684 H   0  0  0  0  0  0  0  0  0  0  0  0  # atno 8010 bound_to 7997
  140.5657  143.2314  151.6639 H   0  0  0  0  0  0  0  0  0  0  0  0  # atno 10167 bound_to 10162
  156.3240  130.7550  151.1654 H   0  0  0  0  0  0  0  0  0  0  0  0  # atno 10718 bound_to 10713
  154.7262  135.5074  153.8891 H   0  0  0  0  0  0  0  0  0  0  0  0  # atno 10763 bound_to 10752
  153.0907  135.6658  153.9868 H   0  0  0  0  0  0  0  0  0  0  0  0  # atno 10764 bound_to 10752
  153.9679  135.3041  155.3408 H   0  0  0  0  0  0  0  0  0  0  0  0  # atno 10765 bound_to 10752
  139.9857  134.6672  156.0181 H   0  0  0  0  0  0  0  0  0  0  0  0  # atno 11005 bound_to 11000
  146.2959  139.7277  142.9127 LP  0  0  0  0  0  0  0  0  0  0  0  0  # atno 17320 bound_to 7965
  145.4052  141.0390  143.3048 LP  0  0  0  0  0  0  0  0  0  0  0  0  # atno 17321 bound_to 7965
  139.5092  144.3585  152.0584 LP  0  0  0  0  0  0  0  0  0  0  0  0  # atno 17342 bound_to 10162
  140.2717  144.3957  150.6149 LP  0  0  0  0  0  0  0  0  0  0  0  0  # atno 17343 bound_to 10162
  157.7417  131.0499  150.5074 LP  0  0  0  0  0  0  0  0  0  0  0  0  # atno 17370 bound_to 10713
  156.5230  130.4166  149.6240 LP  0  0  0  0  0  0  0  0  0  0  0  0  # atno 17371 bound_to 10713
  141.1522  133.6547  156.4049 LP  0  0  0  0  0  0  0  0  0  0  0  0  # atno 17394 bound_to 11000
  140.5007  134.6488  157.5247 LP  0  0  0  0  0  0  0  0  0  0  0  0  # atno 17395 bound_to 11000

$$$$
