AV-unprocessed.smi:101|AV-procd|sdf|921|dock5
  -GOLD-   2262017423D 1   1.00000     0.00000
 Structure written by MMmdl.
 44 46  0  0  0  0  0  0  0  0  1 V2000
  144.6540  137.8686  157.9536 C   0  0  0  0  0  0  0  0  0  0  0  0
  144.9014  137.7470  156.4587 C   0  0  0  0  0  0  0  0  0  0  0  0
  145.9401  138.3660  155.8410 C   0  0  0  0  0  0  0  0  0  0  0  0
  146.1924  138.2734  154.4768 N   0  0  0  0  0  0  0  0  0  0  0  0
  147.3714  138.9640  153.8124 C   0  0  2  0  0  0  0  0  0  0  0  0
  148.5295  138.7397  154.5605 O   0  0  0  0  0  0  0  0  0  0  0  0
  148.8908  139.9271  155.2564 C   0  0  1  0  0  0  0  0  0  0  0  0
  150.3624  139.8880  155.6866 C   0  0  0  0  0  0  0  0  0  0  0  0
  150.5189  140.7598  156.7935 O   0  0  0  0  0  0  0  0  0  0  0  0
  151.6782  140.7942  157.4751 C   0  0  0  0  0  0  0  0  0  0  0  0
  152.4904  139.8671  157.4894 O   0  0  0  0  0  0  0  0  0  0  0  0
  151.8728  142.0746  158.2151 C   0  0  0  0  0  0  0  0  0  0  0  0
  151.2910  143.2617  157.7119 C   0  0  0  0  0  0  0  0  0  0  0  0
  151.4613  144.4860  158.3873 C   0  0  0  0  0  0  0  0  0  0  0  0
  152.2142  144.5379  159.5748 C   0  0  0  0  0  0  0  0  0  0  0  0
  152.7967  143.3638  160.0867 C   0  0  0  0  0  0  0  0  0  0  0  0
  152.6285  142.1386  159.4125 C   0  0  0  0  0  0  0  0  0  0  0  0
  148.4998  141.0331  154.2740 C   0  0  1  0  0  0  0  0  0  0  0  0
  149.4800  141.1838  153.2631 O   0  0  0  0  0  0  0  0  0  0  0  0
  147.1973  140.5009  153.6878 C   0  0  2  0  0  0  0  0  0  0  0  0
  146.1036  141.0171  154.4277 O   0  0  0  0  0  0  0  0  0  0  0  0
  145.3371  137.4946  153.6706 C   0  0  0  0  0  0  0  0  0  0  0  0
  145.4983  137.3720  152.4568 O   0  0  0  0  0  0  0  0  0  0  0  0
  144.2705  136.8599  154.3038 N   0  0  0  0  0  0  0  0  0  0  0  0
  143.9786  136.9279  155.6680 C   0  0  0  0  0  0  0  0  0  0  0  0
  143.0046  136.3219  156.1115 O   0  0  0  0  0  0  0  0  0  0  0  0
  143.6557  136.3036  153.7280 H   0  0  0  0  0  0  0  0  0  0  0  0
  145.4094  138.4859  158.4411 H   0  0  0  0  0  0  0  0  0  0  0  0
  144.6722  136.8853  158.4249 H   0  0  0  0  0  0  0  0  0  0  0  0
  143.6798  138.3210  158.1422 H   0  0  0  0  0  0  0  0  0  0  0  0
  146.5968  138.9567  156.4607 H   0  0  0  0  0  0  0  0  0  0  0  0
  147.5019  138.4643  152.8505 H   0  0  0  0  0  0  0  0  0  0  0  0
  148.2597  140.0260  156.1411 H   0  0  0  0  0  0  0  0  0  0  0  0
  150.6635  138.8716  155.9450 H   0  0  0  0  0  0  0  0  0  0  0  0
  151.0021  140.2304  154.8723 H   0  0  0  0  0  0  0  0  0  0  0  0
  150.7097  143.2470  156.8011 H   0  0  0  0  0  0  0  0  0  0  0  0
  151.0140  145.3864  157.9924 H   0  0  0  0  0  0  0  0  0  0  0  0
  152.3455  145.4771  160.0918 H   0  0  0  0  0  0  0  0  0  0  0  0
  153.3743  143.4019  160.9985 H   0  0  0  0  0  0  0  0  0  0  0  0
  153.0903  141.2571  159.8330 H   0  0  0  0  0  0  0  0  0  0  0  0
  148.3767  141.9963  154.7714 H   0  0  0  0  0  0  0  0  0  0  0  0
  149.3161  140.5455  152.5857 H   0  0  0  0  0  0  0  0  0  0  0  0
  147.0666  140.7760  152.6403 H   0  0  0  0  0  0  0  0  0  0  0  0
  145.3130  140.8676  153.9316 H   0  0  0  0  0  0  0  0  0  0  0  0
  1  2  1  0  0  0  0
  1 28  1  0  0  0  0
  1 29  1  0  0  0  0
  1 30  1  0  0  0  0
  2 25  1  0  0  0  0
  2  3  2  0  0  0  0
  3  4  1  0  0  0  0
  3 31  1  0  0  0  0
  4  5  1  0  0  0  0
  4 22  1  0  0  0  0
  5 20  1  0  0  0  0
  5  6  1  0  0  0  0
  5 32  1  0  0  0  0
  6  7  1  0  0  0  0
  7  8  1  0  0  0  0
  7 18  1  0  0  0  0
  7 33  1  0  0  0  0
  8  9  1  0  0  0  0
  8 34  1  0  0  0  0
  8 35  1  0  0  0  0
  9 10  1  0  0  0  0
 10 11  2  0  0  0  0
 10 12  1  0  0  0  0
 12 17  1  0  0  0  0
 12 13  2  0  0  0  0
 13 14  1  0  0  0  0
 13 36  1  0  0  0  0
 14 15  2  0  0  0  0
 14 37  1  0  0  0  0
 15 16  1  0  0  0  0
 15 38  1  0  0  0  0
 16 17  2  0  0  0  0
 16 39  1  0  0  0  0
 17 40  1  0  0  0  0
 18 19  1  0  0  0  0
 18 20  1  0  0  0  0
 18 41  1  0  0  0  0
 19 42  1  0  0  0  0
 20 21  1  0  0  0  0
 20 43  1  0  0  0  0
 21 44  1  0  0  0  0
 22 23  2  0  0  0  0
 22 24  1  0  0  0  0
 24 27  1  0  0  0  0
 24 25  1  0  0  0  0
 25 26  2  0  0  0  0
M  END
> <s_m_source_file>
AV-unprocessed.smi

> <i_m_source_file_index>
101

> <i_lp_mmshare_version>
43012

> <i_f3d_flags>
0

> <s_epik_input>
Tz1jMVtuSF1jKD1PKW4oW2NIXWMxW0NIM10pW0NAQEhdMk9bQ0BIXShbQ0BASF0oW09IXSlbQ0BIXTJbT0hdKVtDSDJdT0MoPU8pYzNbY0hdW2NIXVtjSF1bY0hdW2NIXTM=

> <s_epik_cmdline>
J2VwaWtfcHl0aG9uJywgJy1waCcsICc3LjAnLCAnLXRuJywgJzgnLCAnLW1hJywgJzIwMCcsICctbWV0YWxfYmluZGluZycsICctaW1hZScsICc8aW5maWxlLm1hZT4nLCAnLW9tYWUnLCAnPG91dGZpbGUubWFlPic=

> <r_lp_tautomer_probability>
0.999537

> <r_epik_Ionization_Penalty>
0.00263537

> <r_epik_Ionization_Penalty_Charging>
0.00263428

> <r_epik_Ionization_Penalty_Neutral>
1.09111e-06

> <r_epik_State_Penalty>
0.00183335

> <r_epik_Charging_Adjusted_Penalty>
0.00446763

> <i_epik_Tot_Q>
0

> <i_epik_Tot_abs_Q>
0

> <r_epik_Metal_State_Penalty>
1.00528

> <b_epik_Metal_Only>
0

> <s_epik_Chemistry_Notes>
This compound has an ester and may undergo hydrolysis at high or low pH. This compound contains an acetal/aminal-like group ( X-CH(R)-Y where X, Y are N, S, or O) that may be acid/base labile, releasing an aldehyde.

> <s_lp_Force_Field>
OPLS_2005

> <r_lp_Energy>
37.3052

> <b_lp_Chiralities_Consistent>
1

> <s_lp_Variant>
AV-unprocessed.smi:101-9

> <Gold.Version>
5.8.1

> <Gold.Id.Protein>
6NUR|6NUR_protein|mol2

> <Gold.PLP.Fitness>
45.6860

> <Gold.PLP.PLP>
-37.4860

> <Gold.PLP.part.hbond>
-3.9601

> <Gold.PLP.part.metal>
0.0000

> <Gold.PLP.part.buried>
-5.8203

> <Gold.PLP.part.nonpolar>
-28.7781

> <Gold.PLP.part.repulsive>
0.4094

> <Gold.PLP.ligand.clash>
0.0000

> <Gold.PLP.ligand.torsion>
1.2680

> <Gold.PLP.Chemscore.Hbond>
3.5313

> <Gold.PLP.Chemscore.CHOScore>
0.0000

> <Gold.PLP.Chemscore.Metal>
0.0000

> <Gold.Chemscore.Hbonds>
donor molecule, donor type, donor heavy atom, donor atom, acceptor molecule, acceptor atom, score
      L1  H    19    42       P1  7957  0.96
      L1  H    21    44       P1 10175  0.55
      P1  H  7989  7998       L1    19  0.07
      P1  H  7997  8010       L1    11  0.89
      P1  H  8011  8017       L1    19  0.90

> <Gold.PLP.Chemscore.Internal.Correction>
0.1420

> <Gold.Rescore>
     Score         DG    S(hbond)    S(metal)    S(lipo)     H(rot)  DE(clash)    DE(int)     intcor
     16.34     -18.46       3.12        0.00      94.46       3.32       0.02       2.10       ----

> <Gold.Chemscore.Fitness>
16.3399

> <Gold.Chemscore.DG>
-18.4643

> <Gold.Chemscore.ZeroCoef>
-5.4800

> <Gold.Chemscore.Hbond>
3.1212

> <Gold.Chemscore.Metal>
0.0000

> <Gold.Chemscore.Lipo>
94.4582

> <Gold.Chemscore.Internal_Hbond>
0.0000

> <Gold.Chemscore.DEClash>
0.0239

> <Gold.Chemscore.DEInternal>
2.1005

> <Gold.Chemscore.Rot>
3.3172

> <Gold.Chemscore.Internal.Correction>
   9.000000E+99

> <Gold.Chemscore.Hbonds>
donor molecule, donor type, donor heavy atom, donor atom, acceptor molecule, acceptor atom, score
      L1  H    19    42       P1  7957  0.86
      L1  H    21    44       P1 10175  0.50
      P1  H  7989  7998       L1    19  0.02
      P1  H  7997  8010       L1    11  0.85
      P1  H  8011  8017       L1    19  0.17

> <Gold.Chemscore.Hbond.Weighted>
-10.4247

> <Gold.Chemscore.Metal.Weighted>
-0.0000

> <Gold.Chemscore.Lipo.Weighted>
-11.0516

> <Gold.Chemscore.Internal_Hbond.Weighted>
0.0000

> <Gold.Chemscore.DEClash.Weighted>
0.0239

> <Gold.Chemscore.DEInternal.Weighted>
2.1005

> <Gold.Chemscore.Rot.Weighted>
8.4920

> <Gold.Chemscore.Internal.Correction.Weighted>
   9.000000E+99

> <Gold.Protein.RotatedTorsions>
[ 6907 6896 6895 6894 ] final   82.63 input  -60.11 | X-H torsion
[ 7974 7965 7964 7962 ] final -105.71 input  175.53 | X-H torsion
[ 8008 7997 7996 7995 ] final   56.39 input   59.86 | X-H torsion
[ 10167 10162 10161 10158 ] final -132.38 input  -65.29 | X-H torsion
[ 10718 10713 10712 10709 ] final   57.92 input   66.30 | X-H torsion
[ 10763 10752 10751 10750 ] final   41.93 input  -60.55 | X-H torsion
[ 11005 11000 10999 10996 ] final -161.88 input  -57.11 | X-H torsion

> <Gold.Protein.ActiveResidues>
 VAL166  LYS551  ARG553  GLY616  TRP617  ASP618  TYR619  PRO620  LYS621  CYS622 
 ASP623  PHE694  ASN695  SER759  ASP760  ASP761  ALA762  ILE779  LEU786  VAL792 
 PHE793  MET794  SER795  GLU796  ALA797  LYS798  CYS799  TRP800  GLU811  SER814 

> <Gold.Protein.RotatedAtoms>
  152.5304  134.3020  159.9081 H   0  0  0  0  0  0  0  0  0  0  0  0  # atno 6907 bound_to 6896
  151.2971  133.4132  159.2645 H   0  0  0  0  0  0  0  0  0  0  0  0  # atno 6908 bound_to 6896
  151.0151  134.9442  159.8085 H   0  0  0  0  0  0  0  0  0  0  0  0  # atno 6909 bound_to 6896
  145.2270  140.9156  143.3226 H   0  0  0  0  0  0  0  0  0  0  0  0  # atno 7974 bound_to 7965
  155.5166  140.3478  155.4398 H   0  0  0  0  0  0  0  0  0  0  0  0  # atno 8008 bound_to 7997
  156.0813  140.1387  156.9736 H   0  0  0  0  0  0  0  0  0  0  0  0  # atno 8009 bound_to 7997
  154.4581  140.0945  156.6792 H   0  0  0  0  0  0  0  0  0  0  0  0  # atno 8010 bound_to 7997
  139.9092  143.6515  152.2579 H   0  0  0  0  0  0  0  0  0  0  0  0  # atno 10167 bound_to 10162
  157.5554  130.8796  149.9028 H   0  0  0  0  0  0  0  0  0  0  0  0  # atno 10718 bound_to 10713
  152.9895  135.6147  154.2868 H   0  0  0  0  0  0  0  0  0  0  0  0  # atno 10763 bound_to 10752
  154.2595  135.2783  155.2786 H   0  0  0  0  0  0  0  0  0  0  0  0  # atno 10764 bound_to 10752
  154.5218  135.5812  153.6744 H   0  0  0  0  0  0  0  0  0  0  0  0  # atno 10765 bound_to 10752
  140.6155  134.4805  157.5219 H   0  0  0  0  0  0  0  0  0  0  0  0  # atno 11005 bound_to 11000
  144.9712  139.3878  143.6308 LP  0  0  0  0  0  0  0  0  0  0  0  0  # atno 17320 bound_to 7965
  146.3362  139.8810  142.8824 LP  0  0  0  0  0  0  0  0  0  0  0  0  # atno 17321 bound_to 7965
  139.6957  144.7641  151.1360 LP  0  0  0  0  0  0  0  0  0  0  0  0  # atno 17342 bound_to 10162
  140.7689  143.5526  150.9187 LP  0  0  0  0  0  0  0  0  0  0  0  0  # atno 17343 bound_to 10162
  156.0614  130.3699  150.0974 LP  0  0  0  0  0  0  0  0  0  0  0  0  # atno 17370 bound_to 10713
  156.9143  130.9662  151.3558 LP  0  0  0  0  0  0  0  0  0  0  0  0  # atno 17371 bound_to 10713
  139.9174  134.8217  156.1320 LP  0  0  0  0  0  0  0  0  0  0  0  0  # atno 17394 bound_to 11000
  141.0778  133.6767  156.2273 LP  0  0  0  0  0  0  0  0  0  0  0  0  # atno 17395 bound_to 11000

$$$$
