AV-unprocessed.smi:2027|AV-procd|sdf|8209|dock4
  -GOLD-   2272010473D 1   1.00000     0.00000
 Structure written by MMmdl.
 49 51  0  0  0  0  0  0  0  0  1 V2000
  152.8034  143.1229  161.7171 C   0  0  0  0  0  0  0  0  0  0  0  0
  152.2816  142.7288  160.3466 C   0  0  0  0  0  0  0  0  0  0  0  0
  152.7850  141.5613  159.7296 C   0  0  0  0  0  0  0  0  0  0  0  0
  152.3221  141.1565  158.4586 C   0  0  0  0  0  0  0  0  0  0  0  0
  152.6689  140.0643  157.6818 N   0  0  0  0  0  0  0  0  0  0  0  0
  151.8892  140.2339  156.6178 C   0  0  0  0  0  0  0  0  0  0  0  0
  151.0761  141.3077  156.6138 N   0  0  0  0  0  0  0  0  0  0  0  0
  150.1354  141.6941  155.5762 C   0  0  0  0  0  0  0  0  0  0  0  0
  149.4177  140.4768  154.9644 C   0  0  2  0  0  0  0  0  0  0  0  0
  150.0974  140.0772  153.7894 O   0  0  0  0  0  0  0  0  0  0  0  0
  147.9494  140.7873  154.6045 C   0  0  0  0  0  0  0  0  0  0  0  0
  146.9414  140.5119  155.6417 N   0  0  0  0  0  0  0  0  0  0  0  0
  145.8573  139.7227  155.0676 C   0  0  0  0  0  0  0  0  0  0  0  0
  146.3749  141.7224  156.2541 C   0  0  0  0  0  0  0  0  0  0  0  0
  145.7296  142.6850  155.2940 C   0  0  0  0  0  0  0  0  0  0  0  0
  144.4525  143.3028  155.4167 C   0  0  0  0  0  0  0  0  0  0  0  0
  144.1594  144.0874  154.3934 N   0  0  0  0  0  0  0  0  0  0  0  0
  145.2356  144.0023  153.5859 N   0  0  0  0  0  0  0  0  0  0  0  0
  145.2454  144.7298  152.3354 C   0  0  0  0  0  0  0  0  0  0  0  0
  146.2097  143.1826  154.1142 C   0  0  0  0  0  0  0  0  0  0  0  0
  151.3336  141.9578  157.8162 C   0  0  0  0  0  0  0  0  0  0  0  0
  150.8301  143.1252  158.4171 C   0  0  0  0  0  0  0  0  0  0  0  0
  151.3034  143.5155  159.6870 C   0  0  0  0  0  0  0  0  0  0  0  0
  150.7480  144.7749  160.3281 C   0  0  0  0  0  0  0  0  0  0  0  0
  153.4837  142.3698  162.1158 H   0  0  0  0  0  0  0  0  0  0  0  0
  151.9802  143.2362  162.4229 H   0  0  0  0  0  0  0  0  0  0  0  0
  153.3446  144.0676  161.6602 H   0  0  0  0  0  0  0  0  0  0  0  0
  153.5318  140.9627  160.2304 H   0  0  0  0  0  0  0  0  0  0  0  0
  151.9054  139.5331  155.7957 H   0  0  0  0  0  0  0  0  0  0  0  0
  149.4084  142.3764  156.0184 H   0  0  0  0  0  0  0  0  0  0  0  0
  150.6669  142.2559  154.8065 H   0  0  0  0  0  0  0  0  0  0  0  0
  149.4877  139.6706  155.6854 H   0  0  0  0  0  0  0  0  0  0  0  0
  149.5567  140.2865  153.0433 H   0  0  0  0  0  0  0  0  0  0  0  0
  147.8644  141.8305  154.2960 H   0  0  0  0  0  0  0  0  0  0  0  0
  147.7168  140.2071  153.7099 H   0  0  0  0  0  0  0  0  0  0  0  0
  145.1186  139.4634  155.8270 H   0  0  0  0  0  0  0  0  0  0  0  0
  146.2341  138.7878  154.6514 H   0  0  0  0  0  0  0  0  0  0  0  0
  145.3497  140.2695  154.2716 H   0  0  0  0  0  0  0  0  0  0  0  0
  145.6706  141.4339  157.0360 H   0  0  0  0  0  0  0  0  0  0  0  0
  147.1708  142.2534  156.7781 H   0  0  0  0  0  0  0  0  0  0  0  0
  143.7277  143.1939  156.2101 H   0  0  0  0  0  0  0  0  0  0  0  0
  146.1583  144.5091  151.7815 H   0  0  0  0  0  0  0  0  0  0  0  0
  145.1978  145.8013  152.5313 H   0  0  0  0  0  0  0  0  0  0  0  0
  144.3858  144.4357  151.7316 H   0  0  0  0  0  0  0  0  0  0  0  0
  147.1431  143.0004  153.6020 H   0  0  0  0  0  0  0  0  0  0  0  0
  150.0812  143.7127  157.9072 H   0  0  0  0  0  0  0  0  0  0  0  0
  150.1204  145.3310  159.6312 H   0  0  0  0  0  0  0  0  0  0  0  0
  151.5539  145.4366  160.6458 H   0  0  0  0  0  0  0  0  0  0  0  0
  150.1420  144.5209  161.1980 H   0  0  0  0  0  0  0  0  0  0  0  0
  1  2  1  0  0  0  0
  1 25  1  0  0  0  0
  1 26  1  0  0  0  0
  1 27  1  0  0  0  0
  2 23  1  0  0  0  0
  2  3  2  0  0  0  0
  3  4  1  0  0  0  0
  3 28  1  0  0  0  0
  4 21  2  0  0  0  0
  4  5  1  0  0  0  0
  5  6  2  0  0  0  0
  6  7  1  0  0  0  0
  6 29  1  0  0  0  0
  7  8  1  0  0  0  0
  7 21  1  0  0  0  0
  8  9  1  0  0  0  0
  8 30  1  0  0  0  0
  8 31  1  0  0  0  0
  9 10  1  0  0  0  0
  9 11  1  0  0  0  0
  9 32  1  0  0  0  0
 10 33  1  0  0  0  0
 11 12  1  0  0  0  0
 11 34  1  0  0  0  0
 11 35  1  0  0  0  0
 12 13  1  0  0  0  0
 12 14  1  0  0  0  0
 13 36  1  0  0  0  0
 13 37  1  0  0  0  0
 13 38  1  0  0  0  0
 14 15  1  0  0  0  0
 14 39  1  0  0  0  0
 14 40  1  0  0  0  0
 15 20  2  0  0  0  0
 15 16  1  0  0  0  0
 16 17  2  0  0  0  0
 16 41  1  0  0  0  0
 17 18  1  0  0  0  0
 18 19  1  0  0  0  0
 18 20  1  0  0  0  0
 19 42  1  0  0  0  0
 19 43  1  0  0  0  0
 19 44  1  0  0  0  0
 20 45  1  0  0  0  0
 21 22  1  0  0  0  0
 22 23  2  0  0  0  0
 22 46  1  0  0  0  0
 23 24  1  0  0  0  0
 24 47  1  0  0  0  0
 24 48  1  0  0  0  0
 24 49  1  0  0  0  0
M  END
> <s_m_source_file>
AV-unprocessed.smi

> <i_m_source_file_index>
2027

> <i_lp_mmshare_version>
43012

> <i_f3d_flags>
0

> <s_epik_input>
W0NIM11jKFtjSF0xKWMoW0NIM10pW2NIXWMoYzEyKW4oW2NIXW4yKVtDSDJdW0NASF0oW09IXSlbQ0gyXU4oW0NIM10pW0NIMl1jM1tjSF1ubihbQ0gzXSlbY0hdMw==

> <s_epik_cmdline>
J2VwaWtfcHl0aG9uJywgJy1waCcsICc3LjAnLCAnLXRuJywgJzgnLCAnLW1hJywgJzIwMCcsICctbWV0YWxfYmluZGluZycsICctaW1hZScsICc8aW5maWxlLm1hZT4nLCAnLW9tYWUnLCAnPG91dGZpbGUubWFlPic=

> <r_lp_tautomer_probability>
1

> <r_epik_Ionization_Penalty>
0.374241

> <r_epik_Ionization_Penalty_Charging>
0

> <r_epik_Ionization_Penalty_Neutral>
0.374241

> <r_epik_State_Penalty>
0.350767

> <r_epik_Charging_Adjusted_Penalty>
0.350767

> <i_epik_Tot_Q>
0

> <i_epik_Tot_abs_Q>
0

> <r_epik_Metal_State_Penalty>
0.343203

> <b_epik_Metal_Only>
0

> <s_lp_Force_Field>
OPLS_2005

> <r_lp_Energy>
16.8083

> <b_lp_Chiralities_Consistent>
1

> <s_lp_Variant>
AV-unprocessed.smi:2027-1

> <Gold.Version>
5.8.1

> <Gold.Id.Protein>
6NUR|6NUR_protein|mol2

> <Gold.PLP.Fitness>
56.1780

> <Gold.PLP.PLP>
-52.3736

> <Gold.PLP.part.hbond>
-3.0000

> <Gold.PLP.part.metal>
0.0000

> <Gold.PLP.part.buried>
-7.8276

> <Gold.PLP.part.nonpolar>
-41.3423

> <Gold.PLP.part.repulsive>
0.1917

> <Gold.PLP.ligand.clash>
0.0000

> <Gold.PLP.ligand.torsion>
2.0108

> <Gold.PLP.Chemscore.Hbond>
2.5840

> <Gold.PLP.Chemscore.CHOScore>
0.0000

> <Gold.PLP.Chemscore.Metal>
0.0000

> <Gold.Chemscore.Hbonds>
donor molecule, donor type, donor heavy atom, donor atom, acceptor molecule, acceptor atom, score
      L1  H    10    33       P1  7957  0.75
      P1  H  7989  7998       L1    10  0.82
      P1  H  7997  8008       L1     5  0.95

> <Gold.PLP.Chemscore.Internal.Correction>
0.0739

> <Gold.Rescore>
     Score         DG    S(hbond)    S(metal)    S(lipo)     H(rot)  DE(clash)    DE(int)     intcor
     17.60     -19.81       1.86        0.00     122.45       2.42       0.36       1.84       ----

> <Gold.Chemscore.Fitness>
17.6047

> <Gold.Chemscore.DG>
-19.8083

> <Gold.Chemscore.ZeroCoef>
-5.4800

> <Gold.Chemscore.Hbond>
1.8550

> <Gold.Chemscore.Metal>
0.0000

> <Gold.Chemscore.Lipo>
122.4548

> <Gold.Chemscore.Internal_Hbond>
0.0000

> <Gold.Chemscore.DEClash>
0.3594

> <Gold.Chemscore.DEInternal>
1.8441

> <Gold.Chemscore.Rot>
2.4198

> <Gold.Chemscore.Internal.Correction>
   9.000000E+99

> <Gold.Chemscore.Hbonds>
donor molecule, donor type, donor heavy atom, donor atom, acceptor molecule, acceptor atom, score
      L1  H    10    33       P1  7957  0.74
      P1  H  7989  7998       L1    10  0.34
      P1  H  7997  8008       L1     5  0.20

> <Gold.Chemscore.Hbond.Weighted>
-6.1958

> <Gold.Chemscore.Metal.Weighted>
-0.0000

> <Gold.Chemscore.Lipo.Weighted>
-14.3272

> <Gold.Chemscore.Internal_Hbond.Weighted>
0.0000

> <Gold.Chemscore.DEClash.Weighted>
0.3594

> <Gold.Chemscore.DEInternal.Weighted>
1.8441

> <Gold.Chemscore.Rot.Weighted>
6.1948

> <Gold.Chemscore.Internal.Correction.Weighted>
   9.000000E+99

> <Gold.Protein.RotatedTorsions>
[ 6907 6896 6895 6894 ] final  -44.75 input  -60.11 | X-H torsion
[ 7974 7965 7964 7962 ] final  134.40 input  175.53 | X-H torsion
[ 8008 7997 7996 7995 ] final  -69.18 input   59.86 | X-H torsion
[ 10167 10162 10161 10158 ] final -108.70 input  -65.29 | X-H torsion
[ 10718 10713 10712 10709 ] final  177.90 input   66.30 | X-H torsion
[ 10763 10752 10751 10750 ] final  112.58 input  -60.55 | X-H torsion
[ 11005 11000 10999 10996 ] final  -58.88 input  -57.11 | X-H torsion

> <Gold.Protein.ActiveResidues>
 VAL166  LYS551  ARG553  GLY616  TRP617  ASP618  TYR619  PRO620  LYS621  CYS622 
 ASP623  PHE694  ASN695  SER759  ASP760  ASP761  ALA762  ILE779  LEU786  VAL792 
 PHE793  MET794  SER795  GLU796  ALA797  LYS798  CYS799  TRP800  GLU811  SER814 

> <Gold.Protein.RotatedAtoms>
  150.9294  134.8710  159.7541 H   0  0  0  0  0  0  0  0  0  0  0  0  # atno 6907 bound_to 6896
  152.5031  134.4101  159.9456 H   0  0  0  0  0  0  0  0  0  0  0  0  # atno 6908 bound_to 6896
  151.4129  133.3682  159.2781 H   0  0  0  0  0  0  0  0  0  0  0  0  # atno 6909 bound_to 6896
  144.9767  139.4547  143.5406 H   0  0  0  0  0  0  0  0  0  0  0  0  # atno 7974 bound_to 7965
  154.4920  140.0858  156.7616 H   0  0  0  0  0  0  0  0  0  0  0  0  # atno 8008 bound_to 7997
  155.4207  140.3445  155.4253 H   0  0  0  0  0  0  0  0  0  0  0  0  # atno 8009 bound_to 7997
  156.1343  140.1510  156.9006 H   0  0  0  0  0  0  0  0  0  0  0  0  # atno 8010 bound_to 7997
  140.1633  143.4102  152.1409 H   0  0  0  0  0  0  0  0  0  0  0  0  # atno 10167 bound_to 10162
  156.8985  130.9871  151.3039 H   0  0  0  0  0  0  0  0  0  0  0  0  # atno 10718 bound_to 10713
  153.4799  135.3682  155.2436 H   0  0  0  0  0  0  0  0  0  0  0  0  # atno 10763 bound_to 10752
  154.8755  135.3952  154.3712 H   0  0  0  0  0  0  0  0  0  0  0  0  # atno 10764 bound_to 10752
  153.4314  135.7082  153.6293 H   0  0  0  0  0  0  0  0  0  0  0  0  # atno 10765 bound_to 10752
  141.1226  133.6614  156.4988 H   0  0  0  0  0  0  0  0  0  0  0  0  # atno 11005 bound_to 11000
  146.3397  139.9015  142.8794 LP  0  0  0  0  0  0  0  0  0  0  0  0  # atno 17320 bound_to 7965
  145.2479  141.0033  143.3898 LP  0  0  0  0  0  0  0  0  0  0  0  0  # atno 17321 bound_to 7965
  139.5371  144.7220  151.4857 LP  0  0  0  0  0  0  0  0  0  0  0  0  # atno 17342 bound_to 10162
  140.6629  143.8460  150.6908 LP  0  0  0  0  0  0  0  0  0  0  0  0  # atno 17343 bound_to 10162
  157.6041  130.8534  149.8847 LP  0  0  0  0  0  0  0  0  0  0  0  0  # atno 17370 bound_to 10713
  156.0594  130.3702  150.1017 LP  0  0  0  0  0  0  0  0  0  0  0  0  # atno 17371 bound_to 10713
  140.4463  134.6969  157.5017 LP  0  0  0  0  0  0  0  0  0  0  0  0  # atno 17394 bound_to 11000
  140.0195  134.6568  155.9260 LP  0  0  0  0  0  0  0  0  0  0  0  0  # atno 17395 bound_to 11000

$$$$
