AV-unprocessed.smi:2560|AV-procd|sdf|10038|dock7
  -GOLD-   2272014 83D 1   1.00000     0.00000
 Structure written by MMmdl.
 31 32  0  0  0  0  0  0  0  0  1 V2000
  154.7747  134.4047  164.4724 C   0  0  0  0  0  0  0  0  0  0  0  0
  155.1952  134.7226  162.7367 S   0  0  0  0  0  0  0  0  0  0  0  0
  155.2761  136.4765  162.5720 C   0  0  0  0  0  0  0  0  0  0  0  0
  156.1006  137.2014  163.3498 N   0  0  0  0  0  0  0  0  0  0  0  0
  155.9334  138.8328  162.9375 S   0  0  0  0  0  0  0  0  0  0  0  0
  154.7481  138.4373  161.7277 C   0  0  0  0  0  0  0  0  0  0  0  0
  154.1207  139.4274  160.9167 N   0  0  0  0  0  0  0  0  0  0  0  0
  154.1911  140.7757  160.9472 C   0  0  0  0  0  0  0  0  0  0  0  0
  154.8870  141.3569  161.7780 O   0  0  0  0  0  0  0  0  0  0  0  0
  153.4621  141.4268  160.0257 N   0  0  0  0  0  0  0  0  0  0  0  0
  153.3840  142.8725  159.8565 C   0  0  2  0  0  0  0  0  0  0  0  0
  152.9327  143.4984  161.1672 C   0  0  0  0  0  0  0  0  0  0  0  0
  151.9943  144.4563  161.2565 C   0  0  0  0  0  0  0  0  0  0  0  0
  151.2819  145.0438  160.0531 C   0  0  0  0  0  0  0  0  0  0  0  0
  152.0031  144.7092  158.7359 C   0  0  0  0  0  0  0  0  0  0  0  0
  152.4401  143.2373  158.6864 C   0  0  0  0  0  0  0  0  0  0  0  0
  154.5192  137.1255  161.6700 N   0  0  0  0  0  0  0  0  0  0  0  0
  154.7080  133.3321  164.6529 H   0  0  0  0  0  0  0  0  0  0  0  0
  153.8149  134.8577  164.7214 H   0  0  0  0  0  0  0  0  0  0  0  0
  155.5369  134.8197  165.1323 H   0  0  0  0  0  0  0  0  0  0  0  0
  153.5207  139.0563  160.1943 H   0  0  0  0  0  0  0  0  0  0  0  0
  152.9198  140.8675  159.3826 H   0  0  0  0  0  0  0  0  0  0  0  0
  154.3828  143.2629  159.6544 H   0  0  0  0  0  0  0  0  0  0  0  0
  153.4039  143.1331  162.0682 H   0  0  0  0  0  0  0  0  0  0  0  0
  151.7071  144.8370  162.2256 H   0  0  0  0  0  0  0  0  0  0  0  0
  150.2642  144.6527  160.0375 H   0  0  0  0  0  0  0  0  0  0  0  0
  151.2066  146.1249  160.1711 H   0  0  0  0  0  0  0  0  0  0  0  0
  151.3570  144.9416  157.8891 H   0  0  0  0  0  0  0  0  0  0  0  0
  152.8842  145.3443  158.6342 H   0  0  0  0  0  0  0  0  0  0  0  0
  152.9248  143.0232  157.7332 H   0  0  0  0  0  0  0  0  0  0  0  0
  151.5479  142.6102  158.7232 H   0  0  0  0  0  0  0  0  0  0  0  0
  1  2  1  0  0  0  0
  1 18  1  0  0  0  0
  1 19  1  0  0  0  0
  1 20  1  0  0  0  0
  2  3  1  0  0  0  0
  3 17  1  0  0  0  0
  3  4  2  0  0  0  0
  4  5  1  0  0  0  0
  5  6  1  0  0  0  0
  6  7  1  0  0  0  0
  6 17  2  0  0  0  0
  7  8  1  0  0  0  0
  7 21  1  0  0  0  0
  8  9  2  0  0  0  0
  8 10  1  0  0  0  0
 10 11  1  0  0  0  0
 10 22  1  0  0  0  0
 11 16  1  0  0  0  0
 11 12  1  0  0  0  0
 11 23  1  0  0  0  0
 12 13  2  0  0  0  0
 12 24  1  0  0  0  0
 13 14  1  0  0  0  0
 13 25  1  0  0  0  0
 14 15  1  0  0  0  0
 14 26  1  0  0  0  0
 14 27  1  0  0  0  0
 15 16  1  0  0  0  0
 15 28  1  0  0  0  0
 15 29  1  0  0  0  0
 16 30  1  0  0  0  0
 16 31  1  0  0  0  0
M  END
> <s_m_source_file>
AV-unprocessed.smi

> <i_m_source_file_index>
2560

> <i_lp_mmshare_version>
43012

> <i_f3d_flags>
0

> <s_epik_input>
W0NIM11TYzFuc2MobjEpW05IXUMoPU8pW05IXVtDQEBIXTJbQ0hdPVtDSF1bQ0gyXVtDSDJdW0NIMl0y

> <s_epik_cmdline>
J2VwaWtfcHl0aG9uJywgJy1waCcsICc3LjAnLCAnLXRuJywgJzgnLCAnLW1hJywgJzIwMCcsICctbWV0YWxfYmluZGluZycsICctaW1hZScsICc8aW5maWxlLm1hZT4nLCAnLW9tYWUnLCAnPG91dGZpbGUubWFlPic=

> <r_lp_tautomer_probability>
1

> <r_epik_Ionization_Penalty>
2.65559e-05

> <r_epik_Ionization_Penalty_Charging>
0

> <r_epik_Ionization_Penalty_Neutral>
2.65559e-05

> <r_epik_State_Penalty>
-0

> <r_epik_Charging_Adjusted_Penalty>
0

> <i_epik_Tot_Q>
0

> <i_epik_Tot_abs_Q>
0

> <r_epik_Metal_State_Penalty>
-0

> <b_epik_Metal_Only>
0

> <s_lp_Force_Field>
OPLS_2005

> <r_lp_Energy>
8.21818

> <b_lp_Chiralities_Consistent>
1

> <s_lp_Variant>
AV-unprocessed.smi:2560-1

> <Gold.Version>
5.8.1

> <Gold.Id.Protein>
6NUR|6NUR_protein|mol2

> <Gold.PLP.Fitness>
38.3724

> <Gold.PLP.PLP>
-38.4169

> <Gold.PLP.part.hbond>
-1.0000

> <Gold.PLP.part.metal>
0.0000

> <Gold.PLP.part.buried>
-5.2079

> <Gold.PLP.part.nonpolar>
-31.4095

> <Gold.PLP.part.repulsive>
0.1144

> <Gold.PLP.ligand.clash>
0.0000

> <Gold.PLP.ligand.torsion>
0.0255

> <Gold.PLP.Chemscore.Hbond>
0.0000

> <Gold.PLP.Chemscore.CHOScore>
0.0000

> <Gold.PLP.Chemscore.Metal>
0.0000

> <Gold.PLP.Chemscore.Internal.Correction>
0.0065

> <Gold.Rescore>
     Score         DG    S(hbond)    S(metal)    S(lipo)     H(rot)  DE(clash)    DE(int)     intcor
     10.54     -12.91       0.00        0.00      90.90       1.25       0.03       2.33       ----

> <Gold.Chemscore.Fitness>
10.5449

> <Gold.Chemscore.DG>
-12.9097

> <Gold.Chemscore.ZeroCoef>
-5.4800

> <Gold.Chemscore.Hbond>
0.0000

> <Gold.Chemscore.Metal>
0.0000

> <Gold.Chemscore.Lipo>
90.9049

> <Gold.Chemscore.Internal_Hbond>
0.0000

> <Gold.Chemscore.DEClash>
0.0298

> <Gold.Chemscore.DEInternal>
2.3349

> <Gold.Chemscore.Rot>
1.2524

> <Gold.Chemscore.Internal.Correction>
   9.000000E+99

> <Gold.Chemscore.Hbond.Weighted>
-0.0000

> <Gold.Chemscore.Metal.Weighted>
-0.0000

> <Gold.Chemscore.Lipo.Weighted>
-10.6359

> <Gold.Chemscore.Internal_Hbond.Weighted>
0.0000

> <Gold.Chemscore.DEClash.Weighted>
0.0298

> <Gold.Chemscore.DEInternal.Weighted>
2.3349

> <Gold.Chemscore.Rot.Weighted>
3.2062

> <Gold.Chemscore.Internal.Correction.Weighted>
   9.000000E+99

> <Gold.Protein.RotatedTorsions>
[ 6907 6896 6895 6894 ] final   20.23 input  -60.11 | X-H torsion
[ 7974 7965 7964 7962 ] final  -27.61 input  175.53 | X-H torsion
[ 8008 7997 7996 7995 ] final -167.40 input   59.86 | X-H torsion
[ 10167 10162 10161 10158 ] final -177.01 input  -65.29 | X-H torsion
[ 10718 10713 10712 10709 ] final  142.94 input   66.30 | X-H torsion
[ 10763 10752 10751 10750 ] final  -35.34 input  -60.55 | X-H torsion
[ 11005 11000 10999 10996 ] final   84.90 input  -57.11 | X-H torsion

> <Gold.Protein.ActiveResidues>
 VAL166  LYS551  ARG553  GLY616  TRP617  ASP618  TYR619  PRO620  LYS621  CYS622 
 ASP623  PHE694  ASN695  SER759  ASP760  ASP761  ALA762  ILE779  LEU786  VAL792 
 PHE793  MET794  SER795  GLU796  ALA797  LYS798  CYS799  TRP800  GLU811  SER814 

> <Gold.Protein.RotatedAtoms>
  151.8932  135.0408  160.0499 H   0  0  0  0  0  0  0  0  0  0  0  0  # atno 6907 bound_to 6896
  152.2419  133.5138  159.5283 H   0  0  0  0  0  0  0  0  0  0  0  0  # atno 6908 bound_to 6896
  150.7056  134.0994  159.4003 H   0  0  0  0  0  0  0  0  0  0  0  0  # atno 6909 bound_to 6896
  146.1345  140.5175  142.8678 H   0  0  0  0  0  0  0  0  0  0  0  0  # atno 7974 bound_to 7965
  155.8772  140.1003  157.1510 H   0  0  0  0  0  0  0  0  0  0  0  0  # atno 8008 bound_to 7997
  154.4002  140.1336  156.4215 H   0  0  0  0  0  0  0  0  0  0  0  0  # atno 8009 bound_to 7997
  155.7684  140.3461  155.5236 H   0  0  0  0  0  0  0  0  0  0  0  0  # atno 8010 bound_to 7997
  139.5501  144.2131  152.1062 H   0  0  0  0  0  0  0  0  0  0  0  0  # atno 10167 bound_to 10162
  157.3748  131.0984  151.0794 H   0  0  0  0  0  0  0  0  0  0  0  0  # atno 10718 bound_to 10713
  153.8615  135.6839  153.4782 H   0  0  0  0  0  0  0  0  0  0  0  0  # atno 10763 bound_to 10752
  153.1339  135.4686  154.9389 H   0  0  0  0  0  0  0  0  0  0  0  0  # atno 10764 bound_to 10752
  154.7756  135.3252  154.8048 H   0  0  0  0  0  0  0  0  0  0  0  0  # atno 10765 bound_to 10752
  139.8987  134.8249  156.2508 H   0  0  0  0  0  0  0  0  0  0  0  0  # atno 11005 bound_to 11000
  144.7726  140.5670  143.6660 LP  0  0  0  0  0  0  0  0  0  0  0  0  # atno 17320 bound_to 7965
  145.5186  139.1477  143.3565 LP  0  0  0  0  0  0  0  0  0  0  0  0  # atno 17321 bound_to 7965
  140.1625  144.5012  150.6624 LP  0  0  0  0  0  0  0  0  0  0  0  0  # atno 17342 bound_to 10162
  140.6761  143.2306  151.5502 LP  0  0  0  0  0  0  0  0  0  0  0  0  # atno 17343 bound_to 10162
  157.1885  130.6341  149.5696 LP  0  0  0  0  0  0  0  0  0  0  0  0  # atno 17370 bound_to 10713
  155.9763  130.4730  150.6518 LP  0  0  0  0  0  0  0  0  0  0  0  0  # atno 17371 bound_to 10713
  141.0225  133.7033  156.1292 LP  0  0  0  0  0  0  0  0  0  0  0  0  # atno 17394 bound_to 11000
  140.7213  134.4355  157.5574 LP  0  0  0  0  0  0  0  0  0  0  0  0  # atno 17395 bound_to 11000

$$$$
