AV-unprocessed.smi:886|AV-procd|sdf|4049|dock3
  -GOLD-   22720 1533D 1   1.00000     0.00000
 Structure written by MMmdl.
 35 37  0  0  0  0  0  0  0  0  1 V2000
  146.3120  142.8241  156.2693 C   0  0  0  0  0  0  0  0  0  0  0  0
  147.5673  142.1032  156.1257 N   0  0  0  0  0  0  0  0  0  0  0  0
  147.9823  141.5316  154.9849 C   0  0  0  0  0  0  0  0  0  0  0  0
  147.3403  141.5764  153.9347 O   0  0  0  0  0  0  0  0  0  0  0  0
  149.3233  140.8474  155.0591 C   0  0  0  0  0  0  0  0  0  0  0  0
  149.5233  139.6307  154.3654 C   0  0  0  0  0  0  0  0  0  0  0  0
  150.7823  139.0056  154.4057 C   0  0  0  0  0  0  0  0  0  0  0  0
  151.8085  139.6257  155.1384 C   0  0  0  0  0  0  0  0  0  0  0  0
  151.6404  140.7865  155.8028 N   0  0  0  0  0  0  0  0  0  0  0  0
  150.4302  141.3967  155.7695 C   0  0  0  0  0  0  0  0  0  0  0  0
  150.2982  142.5935  156.4969 N   0  0  0  0  0  0  0  0  0  0  0  0
  151.3153  143.0024  157.4597 C   0  0  1  0  0  0  0  0  0  0  0  0
  151.7665  144.4570  157.2730 C   0  0  0  0  0  0  0  0  0  0  0  0
  151.4802  145.0591  158.6542 C   0  0  2  0  0  0  0  0  0  0  0  0
  152.4261  144.5150  159.7333 C   0  0  0  0  0  0  0  0  0  0  0  0
  151.8971  143.0939  159.9240 C   0  0  0  0  0  0  0  0  0  0  0  0
  150.7606  143.0383  158.8939 C   0  0  1  0  0  0  0  0  0  0  0  0
  150.2856  144.3723  158.9817 O   0  0  0  0  0  0  0  0  0  0  0  0
  146.2150  143.2031  157.2866 H   0  0  0  0  0  0  0  0  0  0  0  0
  145.4632  142.1697  156.0661 H   0  0  0  0  0  0  0  0  0  0  0  0
  146.2705  143.6720  155.5844 H   0  0  0  0  0  0  0  0  0  0  0  0
  148.1589  142.0365  156.9413 H   0  0  0  0  0  0  0  0  0  0  0  0
  148.7247  139.1761  153.7970 H   0  0  0  0  0  0  0  0  0  0  0  0
  150.9578  138.0768  153.8835 H   0  0  0  0  0  0  0  0  0  0  0  0
  152.7903  139.1792  155.1923 H   0  0  0  0  0  0  0  0  0  0  0  0
  149.7323  143.3253  156.0907 H   0  0  0  0  0  0  0  0  0  0  0  0
  152.1582  142.3116  157.4107 H   0  0  0  0  0  0  0  0  0  0  0  0
  152.8173  144.5366  156.9931 H   0  0  0  0  0  0  0  0  0  0  0  0
  151.1751  144.9684  156.5118 H   0  0  0  0  0  0  0  0  0  0  0  0
  151.3873  146.1455  158.6522 H   0  0  0  0  0  0  0  0  0  0  0  0
  153.4700  144.5411  159.4194 H   0  0  0  0  0  0  0  0  0  0  0  0
  152.3307  145.0855  160.6578 H   0  0  0  0  0  0  0  0  0  0  0  0
  152.6566  142.3309  159.7500 H   0  0  0  0  0  0  0  0  0  0  0  0
  151.5086  142.9642  160.9347 H   0  0  0  0  0  0  0  0  0  0  0  0
  150.0142  142.2731  159.1104 H   0  0  0  0  0  0  0  0  0  0  0  0
  1  2  1  0  0  0  0
  1 19  1  0  0  0  0
  1 20  1  0  0  0  0
  1 21  1  0  0  0  0
  2  3  1  0  0  0  0
  2 22  1  0  0  0  0
  3  4  2  0  0  0  0
  3  5  1  0  0  0  0
  5 10  1  0  0  0  0
  5  6  2  0  0  0  0
  6  7  1  0  0  0  0
  6 23  1  0  0  0  0
  7  8  2  0  0  0  0
  7 24  1  0  0  0  0
  8  9  1  0  0  0  0
  8 25  1  0  0  0  0
  9 10  2  0  0  0  0
 10 11  1  0  0  0  0
 11 12  1  0  0  0  0
 11 26  1  0  0  0  0
 12 17  1  0  0  0  0
 12 13  1  0  0  0  0
 12 27  1  0  0  0  0
 13 14  1  0  0  0  0
 13 28  1  0  0  0  0
 13 29  1  0  0  0  0
 14 18  1  0  0  0  0
 14 15  1  0  0  0  0
 14 30  1  0  0  0  0
 15 16  1  0  0  0  0
 15 31  1  0  0  0  0
 15 32  1  0  0  0  0
 16 17  1  0  0  0  0
 16 33  1  0  0  0  0
 16 34  1  0  0  0  0
 17 18  1  0  0  0  0
 17 35  1  0  0  0  0
M  END
> <s_m_source_file>
AV-unprocessed.smi

> <i_m_source_file_index>
886

> <i_lp_mmshare_version>
43012

> <i_f3d_flags>
0

> <s_epik_input>
W0NIM11bTkhdQyg9TyljMVtjSF1bY0hdW2NIXW5jMVtOSF1bQ0BIXShbQ0gyXVtDQEhdMjMpW0NASF0oTzMpW0NIMl1bQ0gyXTI=

> <s_epik_cmdline>
J2VwaWtfcHl0aG9uJywgJy1waCcsICc3LjAnLCAnLXRuJywgJzgnLCAnLW1hJywgJzIwMCcsICctbWV0YWxfYmluZGluZycsICctaW1hZScsICc8aW5maWxlLm1hZT4nLCAnLW9tYWUnLCAnPG91dGZpbGUubWFlPic=

> <r_lp_tautomer_probability>
1

> <r_epik_Ionization_Penalty>
0.0065447

> <r_epik_Ionization_Penalty_Charging>
0

> <r_epik_Ionization_Penalty_Neutral>
0.0065447

> <r_epik_State_Penalty>
0.00484214

> <r_epik_Charging_Adjusted_Penalty>
0.00484214

> <i_epik_Tot_Q>
0

> <i_epik_Tot_abs_Q>
0

> <r_epik_Metal_State_Penalty>
-0

> <b_epik_Metal_Only>
0

> <s_lp_Force_Field>
OPLS_2005

> <r_lp_Energy>
46.3803

> <b_lp_Chiralities_Consistent>
1

> <s_lp_Variant>
AV-unprocessed.smi:886-2

> <Gold.Version>
5.8.1

> <Gold.Id.Protein>
6NUR|6NUR_protein|mol2

> <Gold.PLP.Fitness>
40.4404

> <Gold.PLP.PLP>
-38.8635

> <Gold.PLP.part.hbond>
-2.8803

> <Gold.PLP.part.metal>
0.0000

> <Gold.PLP.part.buried>
-2.8936

> <Gold.PLP.part.nonpolar>
-31.9757

> <Gold.PLP.part.repulsive>
0.4167

> <Gold.PLP.ligand.clash>
0.0000

> <Gold.PLP.ligand.torsion>
0.7237

> <Gold.PLP.Chemscore.Hbond>
1.0000

> <Gold.PLP.Chemscore.CHOScore>
0.0000

> <Gold.PLP.Chemscore.Metal>
0.0000

> <Gold.Chemscore.Hbonds>
donor molecule, donor type, donor heavy atom, donor atom, acceptor molecule, acceptor atom, score
      L1  H    11    26       P1  8028  1.00

> <Gold.PLP.Chemscore.Internal.Correction>
0.0242

> <Gold.Rescore>
     Score         DG    S(hbond)    S(metal)    S(lipo)     H(rot)  DE(clash)    DE(int)     intcor
     16.00     -18.23       1.00        0.00     102.29       1.00       0.21       2.02       ----

> <Gold.Chemscore.Fitness>
16.0042

> <Gold.Chemscore.DG>
-18.2267

> <Gold.Chemscore.ZeroCoef>
-5.4800

> <Gold.Chemscore.Hbond>
0.9997

> <Gold.Chemscore.Metal>
0.0000

> <Gold.Chemscore.Lipo>
102.2880

> <Gold.Chemscore.Internal_Hbond>
0.0000

> <Gold.Chemscore.DEClash>
0.2057

> <Gold.Chemscore.DEInternal>
2.0168

> <Gold.Chemscore.Rot>
1.0000

> <Gold.Chemscore.Internal.Correction>
   9.000000E+99

> <Gold.Chemscore.Hbonds>
donor molecule, donor type, donor heavy atom, donor atom, acceptor molecule, acceptor atom, score
      L1  H    11    26       P1  8028  1.00

> <Gold.Chemscore.Hbond.Weighted>
-3.3390

> <Gold.Chemscore.Metal.Weighted>
-0.0000

> <Gold.Chemscore.Lipo.Weighted>
-11.9677

> <Gold.Chemscore.Internal_Hbond.Weighted>
0.0000

> <Gold.Chemscore.DEClash.Weighted>
0.2057

> <Gold.Chemscore.DEInternal.Weighted>
2.0168

> <Gold.Chemscore.Rot.Weighted>
2.5600

> <Gold.Chemscore.Internal.Correction.Weighted>
   9.000000E+99

> <Gold.Protein.RotatedTorsions>
[ 6907 6896 6895 6894 ] final   48.63 input  -60.11 | X-H torsion
[ 7974 7965 7964 7962 ] final -146.98 input  175.53 | X-H torsion
[ 8008 7997 7996 7995 ] final  117.03 input   59.86 | X-H torsion
[ 10167 10162 10161 10158 ] final   64.56 input  -65.29 | X-H torsion
[ 10718 10713 10712 10709 ] final   91.54 input   66.30 | X-H torsion
[ 10763 10752 10751 10750 ] final  -49.76 input  -60.55 | X-H torsion
[ 11005 11000 10999 10996 ] final   57.84 input  -57.11 | X-H torsion

> <Gold.Protein.ActiveResidues>
 VAL166  LYS551  ARG553  GLY616  TRP617  ASP618  TYR619  PRO620  LYS621  CYS622 
 ASP623  PHE694  ASN695  SER759  ASP760  ASP761  ALA762  ILE779  LEU786  VAL792 
 PHE793  MET794  SER795  GLU796  ALA797  LYS798  CYS799  TRP800  GLU811  SER814 

> <Gold.Protein.RotatedAtoms>
  152.2817  134.7821  160.0395 H   0  0  0  0  0  0  0  0  0  0  0  0  # atno 6907 bound_to 6896
  151.8398  133.3416  159.3648 H   0  0  0  0  0  0  0  0  0  0  0  0  # atno 6908 bound_to 6896
  150.7192  134.5330  159.5754 H   0  0  0  0  0  0  0  0  0  0  0  0  # atno 6909 bound_to 6896
  144.8123  140.5386  143.5634 H   0  0  0  0  0  0  0  0  0  0  0  0  # atno 7974 bound_to 7965
  156.2472  140.2905  156.0614 H   0  0  0  0  0  0  0  0  0  0  0  0  # atno 8008 bound_to 7997
  155.1771  140.0403  157.2892 H   0  0  0  0  0  0  0  0  0  0  0  0  # atno 8009 bound_to 7997
  154.6285  140.2493  155.7469 H   0  0  0  0  0  0  0  0  0  0  0  0  # atno 8010 bound_to 7997
  140.1208  144.4733  150.6921 H   0  0  0  0  0  0  0  0  0  0  0  0  # atno 10167 bound_to 10162
  157.6960  131.0411  150.3744 H   0  0  0  0  0  0  0  0  0  0  0  0  # atno 10718 bound_to 10713
  154.0994  135.6565  153.4865 H   0  0  0  0  0  0  0  0  0  0  0  0  # atno 10763 bound_to 10752
  153.0294  135.5221  154.7301 H   0  0  0  0  0  0  0  0  0  0  0  0  # atno 10764 bound_to 10752
  154.6449  135.2993  155.0027 H   0  0  0  0  0  0  0  0  0  0  0  0  # atno 10765 bound_to 10752
  140.0422  134.5856  155.9367 H   0  0  0  0  0  0  0  0  0  0  0  0  # atno 11005 bound_to 11000
  145.5294  139.1475  143.3508 LP  0  0  0  0  0  0  0  0  0  0  0  0  # atno 17320 bound_to 7965
  146.2423  140.5435  142.8929 LP  0  0  0  0  0  0  0  0  0  0  0  0  # atno 17321 bound_to 7965
  140.6873  143.2357  151.5226 LP  0  0  0  0  0  0  0  0  0  0  0  0  # atno 17342 bound_to 10162
  139.5570  144.2252  152.1628 LP  0  0  0  0  0  0  0  0  0  0  0  0  # atno 17343 bound_to 10162
  156.4165  130.3944  149.6854 LP  0  0  0  0  0  0  0  0  0  0  0  0  # atno 17370 bound_to 10713
  156.4120  130.7727  151.2740 LP  0  0  0  0  0  0  0  0  0  0  0  0  # atno 17371 bound_to 10713
  141.1889  133.6564  156.5344 LP  0  0  0  0  0  0  0  0  0  0  0  0  # atno 17394 bound_to 11000
  140.4050  134.7323  157.4802 LP  0  0  0  0  0  0  0  0  0  0  0  0  # atno 17395 bound_to 11000

$$$$
