AV-unprocessed.smi:1340|AV-procd|sdf|5504|dock1
  -GOLD-   22720 5 83D 1   1.00000     0.00000
 Structure written by MMmdl.
 40 41  0  0  0  0  0  0  0  0  1 V2000
  151.5896  143.8282  161.5577 C   0  0  0  0  0  0  0  0  0  0  0  0
  152.4345  143.2753  160.4047 C   0  0  0  0  0  0  0  0  0  0  0  0
  151.8519  143.6301  159.0254 C   0  0  0  0  0  0  0  0  0  0  0  0
  150.3546  143.2984  158.8769 C   0  0  1  0  0  0  0  0  0  0  0  0
  149.4721  144.4311  159.4273 C   0  0  0  0  0  0  0  0  0  0  0  0
  150.0294  143.0422  157.4753 N   0  0  0  0  0  0  0  0  0  0  0  0
  150.6919  142.2050  156.6616 C   0  0  0  0  0  0  0  0  0  0  0  0
  151.6634  141.5405  157.0253 O   0  0  0  0  0  0  0  0  0  0  0  0
  150.1582  142.0993  155.2276 C   0  0  0  0  0  0  0  0  0  0  0  0
  148.7365  141.6131  155.1976 C   0  0  0  0  0  0  0  0  0  0  0  0
  147.9491  141.4426  154.0851 C   0  0  0  0  0  0  0  0  0  0  0  0
  146.3592  140.8592  154.4921 S   0  0  0  0  0  0  0  0  0  0  0  0
  146.8320  140.8592  156.1938 C   0  0  0  0  0  0  0  0  0  0  0  0
  146.0153  140.4755  157.2987 N   0  0  0  0  0  0  0  0  0  0  0  0
  144.5629  140.6153  157.2635 C   0  0  0  0  0  0  0  0  0  0  0  0
  144.1111  140.0881  158.6220 C   0  0  0  0  0  0  0  0  0  0  0  0
  145.3652  139.7271  159.2399 N   0  0  0  0  0  0  0  0  0  0  0  0
  146.4321  139.9569  158.4710 C   0  0  0  0  0  0  0  0  0  0  0  0
  147.5892  139.7220  158.8142 O   0  0  0  0  0  0  0  0  0  0  0  0
  148.0892  141.2714  156.3902 N   0  0  0  0  0  0  0  0  0  0  0  0
  152.0239  143.5595  162.5209 H   0  0  0  0  0  0  0  0  0  0  0  0
  150.5749  143.4305  161.5281 H   0  0  0  0  0  0  0  0  0  0  0  0
  151.5256  144.9157  161.5132 H   0  0  0  0  0  0  0  0  0  0  0  0
  153.4497  143.6631  160.4933 H   0  0  0  0  0  0  0  0  0  0  0  0
  152.5083  142.1917  160.5027 H   0  0  0  0  0  0  0  0  0  0  0  0
  151.9958  144.6970  158.8487 H   0  0  0  0  0  0  0  0  0  0  0  0
  152.4195  143.1161  158.2484 H   0  0  0  0  0  0  0  0  0  0  0  0
  150.1535  142.3960  159.4575 H   0  0  0  0  0  0  0  0  0  0  0  0
  149.6971  144.6282  160.4757 H   0  0  0  0  0  0  0  0  0  0  0  0
  148.4135  144.1775  159.3639 H   0  0  0  0  0  0  0  0  0  0  0  0
  149.6257  145.3585  158.8746 H   0  0  0  0  0  0  0  0  0  0  0  0
  149.2407  143.5443  157.0940 H   0  0  0  0  0  0  0  0  0  0  0  0
  150.2349  143.0815  154.7604 H   0  0  0  0  0  0  0  0  0  0  0  0
  150.7981  141.4322  154.6477 H   0  0  0  0  0  0  0  0  0  0  0  0
  148.2065  141.6308  153.0534 H   0  0  0  0  0  0  0  0  0  0  0  0
  144.2791  141.6599  157.1272 H   0  0  0  0  0  0  0  0  0  0  0  0
  144.1390  140.0290  156.4470 H   0  0  0  0  0  0  0  0  0  0  0  0
  143.5985  140.8509  159.2090 H   0  0  0  0  0  0  0  0  0  0  0  0
  143.4645  139.2152  158.5290 H   0  0  0  0  0  0  0  0  0  0  0  0
  145.4174  139.3376  160.1701 H   0  0  0  0  0  0  0  0  0  0  0  0
  1  2  1  0  0  0  0
  1 21  1  0  0  0  0
  1 22  1  0  0  0  0
  1 23  1  0  0  0  0
  2  3  1  0  0  0  0
  2 24  1  0  0  0  0
  2 25  1  0  0  0  0
  3  4  1  0  0  0  0
  3 26  1  0  0  0  0
  3 27  1  0  0  0  0
  4  5  1  0  0  0  0
  4  6  1  0  0  0  0
  4 28  1  0  0  0  0
  5 29  1  0  0  0  0
  5 30  1  0  0  0  0
  5 31  1  0  0  0  0
  6  7  1  0  0  0  0
  6 32  1  0  0  0  0
  7  8  2  0  0  0  0
  7  9  1  0  0  0  0
  9 10  1  0  0  0  0
  9 33  1  0  0  0  0
  9 34  1  0  0  0  0
 10 20  1  0  0  0  0
 10 11  2  0  0  0  0
 11 12  1  0  0  0  0
 11 35  1  0  0  0  0
 12 13  1  0  0  0  0
 13 14  1  0  0  0  0
 13 20  2  0  0  0  0
 14 18  1  0  0  0  0
 14 15  1  0  0  0  0
 15 16  1  0  0  0  0
 15 36  1  0  0  0  0
 15 37  1  0  0  0  0
 16 17  1  0  0  0  0
 16 38  1  0  0  0  0
 16 39  1  0  0  0  0
 17 18  1  0  0  0  0
 17 40  1  0  0  0  0
 18 19  2  0  0  0  0
M  END
> <s_m_source_file>
AV-unprocessed.smi

> <i_m_source_file_index>
1340

> <i_lp_mmshare_version>
43012

> <i_f3d_flags>
0

> <s_epik_input>
W0NIM11bQ0gyXVtDSDJdW0NASF0oW0NIM10pW05IXUMoPU8pW0NIMl1jMVtjSF1zYyhuMSlOMltDSDJdW0NIMl1bTkhdQzI9Tw==

> <s_epik_cmdline>
J2VwaWtfcHl0aG9uJywgJy1waCcsICc3LjAnLCAnLXRuJywgJzgnLCAnLW1hJywgJzIwMCcsICctbWV0YWxfYmluZGluZycsICctaW1hZScsICc8aW5maWxlLm1hZT4nLCAnLW9tYWUnLCAnPG91dGZpbGUubWFlPic=

> <r_lp_tautomer_probability>
1

> <r_epik_Ionization_Penalty>
0.00012151

> <r_epik_Ionization_Penalty_Charging>
0

> <r_epik_Ionization_Penalty_Neutral>
0.00012151

> <r_epik_State_Penalty>
-0

> <r_epik_Charging_Adjusted_Penalty>
0

> <i_epik_Tot_Q>
0

> <i_epik_Tot_abs_Q>
0

> <r_epik_Metal_State_Penalty>
-0

> <b_epik_Metal_Only>
0

> <s_lp_Force_Field>
OPLS_2005

> <r_lp_Energy>
32.5305

> <b_lp_Chiralities_Consistent>
1

> <s_lp_Variant>
AV-unprocessed.smi:1340-2

> <Gold.Version>
5.8.1

> <Gold.Id.Protein>
6NUR|6NUR_protein|mol2

> <Gold.PLP.Fitness>
42.2365

> <Gold.PLP.PLP>
-35.5998

> <Gold.PLP.part.hbond>
-2.0000

> <Gold.PLP.part.metal>
0.0000

> <Gold.PLP.part.buried>
-4.5535

> <Gold.PLP.part.nonpolar>
-30.8999

> <Gold.PLP.part.repulsive>
1.6061

> <Gold.PLP.ligand.clash>
0.0000

> <Gold.PLP.ligand.torsion>
0.7367

> <Gold.PLP.Chemscore.Hbond>
1.6721

> <Gold.PLP.Chemscore.CHOScore>
1.0000

> <Gold.PLP.Chemscore.Metal>
0.0000

> <Gold.Chemscore.Hbonds>
donor molecule, donor type, donor heavy atom, donor atom, acceptor molecule, acceptor atom, score
      L1  H     6    32       P1  8028  0.77
      L1  C    11    35       P1  7957  0.26

> <Gold.PLP.Chemscore.Internal.Correction>
0.0939

> <Gold.Rescore>
     Score         DG    S(hbond)    S(metal)    S(lipo)     H(rot)  DE(clash)    DE(int)     intcor
     11.67     -15.99       1.65        0.00      84.82       1.92       0.45       3.87       ----

> <Gold.Chemscore.Fitness>
11.6670

> <Gold.Chemscore.DG>
-15.9906

> <Gold.Chemscore.ZeroCoef>
-5.4800

> <Gold.Chemscore.Hbond>
1.6454

> <Gold.Chemscore.Metal>
0.0000

> <Gold.Chemscore.Lipo>
84.8212

> <Gold.Chemscore.Internal_Hbond>
0.0000

> <Gold.Chemscore.DEClash>
0.4507

> <Gold.Chemscore.DEInternal>
3.8729

> <Gold.Chemscore.Rot>
1.9176

> <Gold.Chemscore.Internal.Correction>
   9.000000E+99

> <Gold.Chemscore.Hbonds>
donor molecule, donor type, donor heavy atom, donor atom, acceptor molecule, acceptor atom, score
      L1  H     6    32       P1  8028  0.58

> <Gold.Chemscore.Hbond.Weighted>
-5.4956

> <Gold.Chemscore.Metal.Weighted>
-0.0000

> <Gold.Chemscore.Lipo.Weighted>
-9.9241

> <Gold.Chemscore.Internal_Hbond.Weighted>
0.0000

> <Gold.Chemscore.DEClash.Weighted>
0.4507

> <Gold.Chemscore.DEInternal.Weighted>
3.8729

> <Gold.Chemscore.Rot.Weighted>
4.9091

> <Gold.Chemscore.Internal.Correction.Weighted>
   9.000000E+99

> <Gold.Protein.RotatedTorsions>
[ 6907 6896 6895 6894 ] final -127.84 input  -60.11 | X-H torsion
[ 7974 7965 7964 7962 ] final   73.88 input  175.53 | X-H torsion
[ 8008 7997 7996 7995 ] final -175.08 input   59.86 | X-H torsion
[ 10167 10162 10161 10158 ] final   79.34 input  -65.29 | X-H torsion
[ 10718 10713 10712 10709 ] final  178.59 input   66.30 | X-H torsion
[ 10763 10752 10751 10750 ] final -126.54 input  -60.55 | X-H torsion
[ 11005 11000 10999 10996 ] final  -78.33 input  -57.11 | X-H torsion

> <Gold.Protein.ActiveResidues>
 VAL166  LYS551  ARG553  GLY616  TRP617  ASP618  TYR619  PRO620  LYS621  CYS622 
 ASP623  PHE694  ASN695  SER759  ASP760  ASP761  ALA762  ILE779  LEU786  VAL792 
 PHE793  MET794  SER795  GLU796  ALA797  LYS798  CYS799  TRP800  GLU811  SER814 

> <Gold.Protein.RotatedAtoms>
  150.9116  133.6991  159.2853 H   0  0  0  0  0  0  0  0  0  0  0  0  # atno 6907 bound_to 6896
  151.4476  135.1025  159.9698 H   0  0  0  0  0  0  0  0  0  0  0  0  # atno 6908 bound_to 6896
  152.4932  133.8509  159.7256 H   0  0  0  0  0  0  0  0  0  0  0  0  # atno 6909 bound_to 6896
  145.7352  139.2699  143.1518 H   0  0  0  0  0  0  0  0  0  0  0  0  # atno 7974 bound_to 7965
  155.9781  140.1176  157.0751 H   0  0  0  0  0  0  0  0  0  0  0  0  # atno 8008 bound_to 7997
  154.4175  140.1150  156.5466 H   0  0  0  0  0  0  0  0  0  0  0  0  # atno 8009 bound_to 7997
  155.6507  140.3473  155.4749 H   0  0  0  0  0  0  0  0  0  0  0  0  # atno 8010 bound_to 7997
  139.9613  144.5959  150.8069 H   0  0  0  0  0  0  0  0  0  0  0  0  # atno 10167 bound_to 10162
  156.8883  130.9839  151.3053 H   0  0  0  0  0  0  0  0  0  0  0  0  # atno 10718 bound_to 10713
  154.8746  135.3992  154.3448 H   0  0  0  0  0  0  0  0  0  0  0  0  # atno 10763 bound_to 10752
  153.4242  135.7024  153.6279 H   0  0  0  0  0  0  0  0  0  0  0  0  # atno 10764 bound_to 10752
  153.4928  135.3744  155.2470 H   0  0  0  0  0  0  0  0  0  0  0  0  # atno 10765 bound_to 10752
  141.1664  133.7059  156.7955 H   0  0  0  0  0  0  0  0  0  0  0  0  # atno 11005 bound_to 11000
  146.0500  140.8079  142.9786 LP  0  0  0  0  0  0  0  0  0  0  0  0  # atno 17320 bound_to 7965
  144.6883  140.3038  143.7259 LP  0  0  0  0  0  0  0  0  0  0  0  0  # atno 17321 bound_to 7965
  140.7552  143.3042  151.3004 LP  0  0  0  0  0  0  0  0  0  0  0  0  # atno 17342 bound_to 10162
  139.6552  144.0290  152.2654 LP  0  0  0  0  0  0  0  0  0  0  0  0  # atno 17343 bound_to 10162
  157.6099  130.8575  149.8935 LP  0  0  0  0  0  0  0  0  0  0  0  0  # atno 17370 bound_to 10713
  156.0642  130.3695  150.0915 LP  0  0  0  0  0  0  0  0  0  0  0  0  # atno 17371 bound_to 10713
  140.2294  134.8697  157.3461 LP  0  0  0  0  0  0  0  0  0  0  0  0  # atno 17394 bound_to 11000
  140.1906  134.4376  155.7718 LP  0  0  0  0  0  0  0  0  0  0  0  0  # atno 17395 bound_to 11000

$$$$
