AV-unprocessed.smi:1410|AV-procd|sdf|5731|dock7
  -GOLD-   22720 5363D 1   1.00000     0.00000
 Structure written by MMmdl.
 40 41  0  0  0  0  0  0  0  0  2 V2000
  142.6752  132.6818  150.0261 N   0  0  0  0  0  0  0  0  0  0  0  0
  143.8785  132.8017  150.5918 C   0  0  0  0  0  0  0  0  0  0  0  0
  144.4815  131.8374  151.0596 O   0  0  0  0  0  0  0  0  0  0  0  0
  144.4956  134.2042  150.6179 C   0  0  0  0  0  0  0  0  0  0  0  0
  144.6603  134.7395  151.9939 N   0  3  2  0  0  0  0  0  0  0  0  0
  144.8491  136.2143  152.0273 C   0  0  0  0  0  0  0  0  0  0  0  0
  144.8599  136.7370  153.4742 C   0  0  0  0  0  0  0  0  0  0  0  0
  145.9317  136.0357  154.3331 C   0  0  2  0  0  0  0  0  0  0  0  0
  147.2862  136.4401  153.9552 N   0  0  0  0  0  0  0  0  0  0  0  0
  148.1149  137.1733  154.7139 C   0  0  0  0  0  0  0  0  0  0  0  0
  147.8088  137.6016  155.8260 O   0  0  0  0  0  0  0  0  0  0  0  0
  149.2879  137.3821  154.0903 N   0  0  0  0  0  0  0  0  0  0  0  0
  150.4222  138.1143  154.5380 C   0  0  0  0  0  0  0  0  0  0  0  0
  150.1878  139.3116  155.2453 C   0  0  0  0  0  0  0  0  0  0  0  0
  151.2914  140.0660  155.6915 C   0  0  0  0  0  0  0  0  0  0  0  0
  152.5731  139.7063  155.4711 N   0  0  0  0  0  0  0  0  0  0  0  0
  152.7967  138.5669  154.7832 C   0  0  0  0  0  0  0  0  0  0  0  0
  151.7659  137.7400  154.2930 C   0  0  0  0  0  0  0  0  0  0  0  0
  145.7706  134.5096  154.2192 C   0  0  0  0  0  0  0  0  0  0  0  0
  145.7247  134.0363  152.7541 C   0  0  0  0  0  0  0  0  0  0  0  0
  142.2308  131.7753  149.9828 H   0  0  0  0  0  0  0  0  0  0  0  0
  142.2111  133.4913  149.6394 H   0  0  0  0  0  0  0  0  0  0  0  0
  145.4709  134.1233  150.1360 H   0  0  0  0  0  0  0  0  0  0  0  0
  143.9048  134.8962  150.0149 H   0  0  0  0  0  0  0  0  0  0  0  0
  145.7808  136.4765  151.5239 H   0  0  0  0  0  0  0  0  0  0  0  0
  144.0476  136.7086  151.4780 H   0  0  0  0  0  0  0  0  0  0  0  0
  145.0051  137.8178  153.4799 H   0  0  0  0  0  0  0  0  0  0  0  0
  143.8786  136.5659  153.9190 H   0  0  0  0  0  0  0  0  0  0  0  0
  145.7813  136.3129  155.3782 H   0  0  0  0  0  0  0  0  0  0  0  0
  147.6222  136.1267  153.0562 H   0  0  0  0  0  0  0  0  0  0  0  0
  149.3610  137.0134  153.1536 H   0  0  0  0  0  0  0  0  0  0  0  0
  149.1821  139.6492  155.4494 H   0  0  0  0  0  0  0  0  0  0  0  0
  151.1392  140.9840  156.2395 H   0  0  0  0  0  0  0  0  0  0  0  0
  153.8309  138.3073  154.6121 H   0  0  0  0  0  0  0  0  0  0  0  0
  152.0297  136.8539  153.7372 H   0  0  0  0  0  0  0  0  0  0  0  0
  146.5750  134.0022  154.7533 H   0  0  0  0  0  0  0  0  0  0  0  0
  144.8452  134.2124  154.7150 H   0  0  0  0  0  0  0  0  0  0  0  0
  145.5405  132.9614  152.7352 H   0  0  0  0  0  0  0  0  0  0  0  0
  146.6885  134.1998  152.2695 H   0  0  0  0  0  0  0  0  0  0  0  0
  143.7927  134.5439  152.4736 H   0  0  0  0  0  0  0  0  0  0  0  0
  1  2  1  0  0  0  0
  1 21  1  0  0  0  0
  1 22  1  0  0  0  0
  2  3  2  0  0  0  0
  2  4  1  0  0  0  0
  4  5  1  0  0  0  0
  4 23  1  0  0  0  0
  4 24  1  0  0  0  0
  5 20  1  0  0  0  0
  5  6  1  0  0  0  0
  5 40  1  0  0  0  0
  6  7  1  0  0  0  0
  6 25  1  0  0  0  0
  6 26  1  0  0  0  0
  7  8  1  0  0  0  0
  7 27  1  0  0  0  0
  7 28  1  0  0  0  0
  8  9  1  0  0  0  0
  8 19  1  0  0  0  0
  8 29  1  0  0  0  0
  9 10  1  0  0  0  0
  9 30  1  0  0  0  0
 10 11  2  0  0  0  0
 10 12  1  0  0  0  0
 12 13  1  0  0  0  0
 12 31  1  0  0  0  0
 13 18  1  0  0  0  0
 13 14  2  0  0  0  0
 14 15  1  0  0  0  0
 14 32  1  0  0  0  0
 15 16  2  0  0  0  0
 15 33  1  0  0  0  0
 16 17  1  0  0  0  0
 17 18  2  0  0  0  0
 17 34  1  0  0  0  0
 18 35  1  0  0  0  0
 19 20  1  0  0  0  0
 19 36  1  0  0  0  0
 19 37  1  0  0  0  0
 20 38  1  0  0  0  0
 20 39  1  0  0  0  0
M  CHG  1   5   1
M  END
> <s_m_source_file>
AV-unprocessed.smi

> <i_m_source_file_index>
1410

> <i_lp_mmshare_version>
43012

> <i_f3d_flags>
0

> <s_epik_input>
W05IMl1DKD1PKVtDSDJdTjFbQ0gyXVtDSDJdW0NIXShbQ0gyXVtDSDJdMSlbTkhdQyg9TylbTkhdYzJbY0hdW2NIXW5bY0hdW2NIXTI=

> <s_epik_cmdline>
J2VwaWtfcHl0aG9uJywgJy1waCcsICc3LjAnLCAnLXRuJywgJzgnLCAnLW1hJywgJzIwMCcsICctbWV0YWxfYmluZGluZycsICctaW1hZScsICc8aW5maWxlLm1hZT4nLCAnLW9tYWUnLCAnPG91dGZpbGUubWFlPic=

> <r_epik_Ionization_Penalty>
0.938358

> <r_epik_Ionization_Penalty_Charging>
0.838844

> <r_epik_Ionization_Penalty_Neutral>
0.0995144

> <r_epik_State_Penalty>
0.957795

> <r_epik_Charging_Adjusted_Penalty>
1.79664

> <i_epik_Tot_Q>
1

> <i_epik_Tot_abs_Q>
1

> <r_epik_Metal_State_Penalty>
0.97276

> <b_epik_Metal_Only>
0

> <s_lp_Force_Field>
OPLS_2005

> <r_lp_Energy>
18.9404

> <b_lp_Chiralities_Consistent>
1

> <s_lp_Variant>
AV-unprocessed.smi:1410-3

> <Gold.Version>
5.8.1

> <Gold.Id.Protein>
6NUR|6NUR_protein|mol2

> <Gold.PLP.Fitness>
44.5442

> <Gold.PLP.PLP>
-30.6928

> <Gold.PLP.part.hbond>
-5.7791

> <Gold.PLP.part.metal>
0.0000

> <Gold.PLP.part.buried>
-4.8808

> <Gold.PLP.part.nonpolar>
-21.2872

> <Gold.PLP.part.repulsive>
0.2742

> <Gold.PLP.ligand.clash>
0.0000

> <Gold.PLP.ligand.torsion>
0.4662

> <Gold.PLP.Chemscore.Hbond>
4.9192

> <Gold.PLP.Chemscore.CHOScore>
0.0000

> <Gold.PLP.Chemscore.Metal>
0.0000

> <Gold.Chemscore.Hbonds>
donor molecule, donor type, donor heavy atom, donor atom, acceptor molecule, acceptor atom, score
      L1  H     1    21       P1 10952  0.98
      L1  H     1    22       P1 10186  0.98
      L1  H     9    30       P1  7948  0.91
      L1  H    12    31       P1  7948  1.00
      P1  H  7997  8009       L1    16  1.00

> <Gold.PLP.Chemscore.Internal.Correction>
0.0260

> <Gold.Rescore>
     Score         DG    S(hbond)    S(metal)    S(lipo)     H(rot)  DE(clash)    DE(int)     intcor
     19.95     -21.72       4.46        0.00      54.53       1.96       0.14       1.63       ----

> <Gold.Chemscore.Fitness>
19.9537

> <Gold.Chemscore.DG>
-21.7212

> <Gold.Chemscore.ZeroCoef>
-5.4800

> <Gold.Chemscore.Hbond>
4.4579

> <Gold.Chemscore.Metal>
0.0000

> <Gold.Chemscore.Lipo>
54.5309

> <Gold.Chemscore.Internal_Hbond>
0.0000

> <Gold.Chemscore.DEClash>
0.1378

> <Gold.Chemscore.DEInternal>
1.6297

> <Gold.Chemscore.Rot>
1.9642

> <Gold.Chemscore.Internal.Correction>
   9.000000E+99

> <Gold.Chemscore.Hbonds>
donor molecule, donor type, donor heavy atom, donor atom, acceptor molecule, acceptor atom, score
      L1  H     1    21       P1 10952  0.86
      L1  H     1    22       P1 10186  0.88
      L1  H     9    30       P1  7948  0.90
      L1  H    12    31       P1  7948  0.86
      P1  H  7997  8009       L1    16  0.44

> <Gold.Chemscore.Hbond.Weighted>
-14.8895

> <Gold.Chemscore.Metal.Weighted>
-0.0000

> <Gold.Chemscore.Lipo.Weighted>
-6.3801

> <Gold.Chemscore.Internal_Hbond.Weighted>
0.0000

> <Gold.Chemscore.DEClash.Weighted>
0.1378

> <Gold.Chemscore.DEInternal.Weighted>
1.6297

> <Gold.Chemscore.Rot.Weighted>
5.0283

> <Gold.Chemscore.Internal.Correction.Weighted>
   9.000000E+99

> <Gold.Protein.RotatedTorsions>
[ 6907 6896 6895 6894 ] final  -56.67 input  -60.11 | X-H torsion
[ 7974 7965 7964 7962 ] final  143.26 input  175.53 | X-H torsion
[ 8008 7997 7996 7995 ] final -157.09 input   59.86 | X-H torsion
[ 10167 10162 10161 10158 ] final   32.84 input  -65.29 | X-H torsion
[ 10718 10713 10712 10709 ] final -113.03 input   66.30 | X-H torsion
[ 10763 10752 10751 10750 ] final  153.57 input  -60.55 | X-H torsion
[ 11005 11000 10999 10996 ] final   24.14 input  -57.11 | X-H torsion

> <Gold.Protein.ActiveResidues>
 VAL166  LYS551  ARG553  GLY616  TRP617  ASP618  TYR619  PRO620  LYS621  CYS622 
 ASP623  PHE694  ASN695  SER759  ASP760  ASP761  ALA762  ILE779  LEU786  VAL792 
 PHE793  MET794  SER795  GLU796  ALA797  LYS798  CYS799  TRP800  GLU811  SER814 

> <Gold.Protein.RotatedAtoms>
  150.8148  134.7324  159.6720 H   0  0  0  0  0  0  0  0  0  0  0  0  # atno 6907 bound_to 6896
  152.4267  134.5851  159.9968 H   0  0  0  0  0  0  0  0  0  0  0  0  # atno 6908 bound_to 6896
  151.6050  133.3315  159.3091 H   0  0  0  0  0  0  0  0  0  0  0  0  # atno 6909 bound_to 6896
  144.8936  139.5522  143.5786 H   0  0  0  0  0  0  0  0  0  0  0  0  # atno 7974 bound_to 7965
  155.7271  140.0797  157.2305 H   0  0  0  0  0  0  0  0  0  0  0  0  # atno 8008 bound_to 7997
  154.4037  140.1602  156.2522 H   0  0  0  0  0  0  0  0  0  0  0  0  # atno 8009 bound_to 7997
  155.9143  140.3402  155.6125 H   0  0  0  0  0  0  0  0  0  0  0  0  # atno 8010 bound_to 7997
  140.4462  144.1116  150.6183 H   0  0  0  0  0  0  0  0  0  0  0  0  # atno 10167 bound_to 10162
  156.0741  130.5951  150.8588 H   0  0  0  0  0  0  0  0  0  0  0  0  # atno 10718 bound_to 10713
  154.1383  135.2822  155.3167 H   0  0  0  0  0  0  0  0  0  0  0  0  # atno 10763 bound_to 10752
  154.6305  135.5436  153.7679 H   0  0  0  0  0  0  0  0  0  0  0  0  # atno 10764 bound_to 10752
  153.0259  135.6461  154.1531 H   0  0  0  0  0  0  0  0  0  0  0  0  # atno 10765 bound_to 10752
  140.3620  134.2115  155.7671 H   0  0  0  0  0  0  0  0  0  0  0  0  # atno 11005 bound_to 11000
  146.3068  139.7609  142.9050 LP  0  0  0  0  0  0  0  0  0  0  0  0  # atno 17320 bound_to 7965
  145.3739  141.0347  143.3216 LP  0  0  0  0  0  0  0  0  0  0  0  0  # atno 17321 bound_to 7965
  140.4261  143.2589  151.9654 LP  0  0  0  0  0  0  0  0  0  0  0  0  # atno 17342 bound_to 10162
  139.4793  144.5786  151.7969 LP  0  0  0  0  0  0  0  0  0  0  0  0  # atno 17343 bound_to 10162
  157.5828  131.0946  150.9244 LP  0  0  0  0  0  0  0  0  0  0  0  0  # atno 17370 bound_to 10713
  156.9436  130.5393  149.5280 LP  0  0  0  0  0  0  0  0  0  0  0  0  # atno 17371 bound_to 10713
  141.1981  133.8043  157.0597 LP  0  0  0  0  0  0  0  0  0  0  0  0  # atno 17394 bound_to 11000
  140.0619  134.9750  157.1320 LP  0  0  0  0  0  0  0  0  0  0  0  0  # atno 17395 bound_to 11000

$$$$
