AV-unprocessed.smi:862|AV-procd|sdf|3980|dock10
  -GOLD-   22720 1453D 1   1.00000     0.00000
 Structure written by MMmdl.
 45 47  0  0  0  0  0  0  0  0  3 V2000
  152.3091  130.4036  155.1257 N   0  0  0  0  0  0  0  0  0  0  0  0
  151.1244  129.9416  154.7139 C   0  0  0  0  0  0  0  0  0  0  0  0
  151.0231  128.8310  154.1958 O   0  0  0  0  0  0  0  0  0  0  0  0
  150.0687  130.7600  154.9531 N   0  0  0  0  0  0  0  0  0  0  0  0
  150.1013  132.2316  154.9828 C   0  0  0  0  0  0  0  0  0  0  0  0
  149.4645  132.7667  153.6867 C   0  0  0  0  0  0  0  0  0  0  0  0
  148.0251  132.2384  153.5084 C   0  0  0  0  0  0  0  0  0  0  0  0
  147.4958  132.6597  152.1915 N   0  3  0  0  0  0  0  0  0  0  0  0
  146.0483  132.4349  151.9660 C   0  0  2  0  0  0  0  0  0  0  0  0
  145.7110  131.0060  151.5297 C   0  0  0  0  0  0  0  0  0  0  0  0
  144.3549  131.1135  150.8227 C   0  0  0  0  0  0  0  0  0  0  0  0
  144.2228  132.5699  150.3510 C   0  0  0  0  0  0  0  0  0  0  0  0
  145.5102  133.2806  150.8022 C   0  0  1  0  0  0  0  0  0  0  0  0
  145.3196  134.7036  151.1289 N   0  0  0  0  0  0  0  0  0  0  0  0
  146.2167  135.5259  151.7628 C   0  0  0  0  0  0  0  0  0  0  0  0
  145.6243  136.7590  151.8552 C   0  0  0  0  0  0  0  0  0  0  0  0
  144.3899  136.6401  151.2768 N   0  3  0  0  0  0  0  0  0  0  0  0
  144.2050  135.3910  150.8373 C   0  0  0  0  0  0  0  0  0  0  0  0
  147.9859  130.7012  153.6658 C   0  0  0  0  0  0  0  0  0  0  0  0
  148.6890  130.2592  154.9620 C   0  0  0  0  0  0  0  0  0  0  0  0
  153.1373  129.8416  154.9915 H   0  0  0  0  0  0  0  0  0  0  0  0
  152.3724  131.3031  155.5789 H   0  0  0  0  0  0  0  0  0  0  0  0
  149.5397  132.5846  155.8487 H   0  0  0  0  0  0  0  0  0  0  0  0
  151.1020  132.6477  155.0986 H   0  0  0  0  0  0  0  0  0  0  0  0
  149.4625  133.8573  153.6996 H   0  0  0  0  0  0  0  0  0  0  0  0
  150.0795  132.4683  152.8359 H   0  0  0  0  0  0  0  0  0  0  0  0
  147.4168  132.6847  154.2969 H   0  0  0  0  0  0  0  0  0  0  0  0
  147.6467  133.6560  152.1251 H   0  0  0  0  0  0  0  0  0  0  0  0
  145.4944  132.6710  152.8762 H   0  0  0  0  0  0  0  0  0  0  0  0
  146.4579  130.6435  150.8214 H   0  0  0  0  0  0  0  0  0  0  0  0
  145.6798  130.3077  152.3667 H   0  0  0  0  0  0  0  0  0  0  0  0
  144.2807  130.4081  149.9943 H   0  0  0  0  0  0  0  0  0  0  0  0
  143.5495  130.8798  151.5203 H   0  0  0  0  0  0  0  0  0  0  0  0
  144.0989  132.6339  149.2694 H   0  0  0  0  0  0  0  0  0  0  0  0
  143.3334  133.0130  150.8001 H   0  0  0  0  0  0  0  0  0  0  0  0
  146.2239  133.2303  149.9774 H   0  0  0  0  0  0  0  0  0  0  0  0
  147.1885  135.1851  152.0906 H   0  0  0  0  0  0  0  0  0  0  0  0
  145.9799  137.6883  152.2765 H   0  0  0  0  0  0  0  0  0  0  0  0
  143.3280  135.0169  150.3391 H   0  0  0  0  0  0  0  0  0  0  0  0
  146.9594  130.3376  153.6728 H   0  0  0  0  0  0  0  0  0  0  0  0
  148.4744  130.2276  152.8127 H   0  0  0  0  0  0  0  0  0  0  0  0
  148.6387  129.1741  155.0640 H   0  0  0  0  0  0  0  0  0  0  0  0
  148.1641  130.6599  155.8303 H   0  0  0  0  0  0  0  0  0  0  0  0
  148.0299  132.2110  151.4607 H   0  0  0  0  0  0  0  0  0  0  0  0
  143.7149  137.3897  151.1886 H   0  0  0  0  0  0  0  0  0  0  0  0
  1  2  1  0  0  0  0
  1 21  1  0  0  0  0
  1 22  1  0  0  0  0
  2  3  2  0  0  0  0
  2  4  1  0  0  0  0
  4 20  1  0  0  0  0
  4  5  1  0  0  0  0
  5  6  1  0  0  0  0
  5 23  1  0  0  0  0
  5 24  1  0  0  0  0
  6  7  1  0  0  0  0
  6 25  1  0  0  0  0
  6 26  1  0  0  0  0
  7  8  1  0  0  0  0
  7 19  1  0  0  0  0
  7 27  1  0  0  0  0
  8  9  1  0  0  0  0
  8 28  1  0  0  0  0
  8 44  1  0  0  0  0
  9 13  1  0  0  0  0
  9 10  1  0  0  0  0
  9 29  1  0  0  0  0
 10 11  1  0  0  0  0
 10 30  1  0  0  0  0
 10 31  1  0  0  0  0
 11 12  1  0  0  0  0
 11 32  1  0  0  0  0
 11 33  1  0  0  0  0
 12 13  1  0  0  0  0
 12 34  1  0  0  0  0
 12 35  1  0  0  0  0
 13 14  1  0  0  0  0
 13 36  1  0  0  0  0
 14 18  1  0  0  0  0
 14 15  1  0  0  0  0
 15 16  2  0  0  0  0
 15 37  1  0  0  0  0
 16 17  1  0  0  0  0
 16 38  1  0  0  0  0
 17 18  2  0  0  0  0
 17 45  1  0  0  0  0
 18 39  1  0  0  0  0
 19 20  1  0  0  0  0
 19 40  1  0  0  0  0
 19 41  1  0  0  0  0
 20 42  1  0  0  0  0
 20 43  1  0  0  0  0
M  CHG  1   8   1
M  CHG  1  17   1
M  END
> <s_m_source_file>
AV-unprocessed.smi

> <i_m_source_file_index>
862

> <i_lp_mmshare_version>
43012

> <i_f3d_flags>
0

> <s_epik_input>
W05IMl1DKD1PKU4xW0NIMl1bQ0gyXVtDSF0oW0NIMl1bQ0gyXTEpW05IXVtDQEBIXTJbQ0gyXVtDSDJdW0NIMl1bQ0BIXTJuM1tjSF1bY0hdbltjSF0z

> <s_epik_cmdline>
J2VwaWtfcHl0aG9uJywgJy1waCcsICc3LjAnLCAnLXRuJywgJzgnLCAnLW1hJywgJzIwMCcsICctbWV0YWxfYmluZGluZycsICctaW1hZScsICc8aW5maWxlLm1hZT4nLCAnLW9tYWUnLCAnPG91dGZpbGUubWFlPic=

> <r_lp_tautomer_probability>
1

> <r_epik_Ionization_Penalty>
1.30217

> <r_epik_Ionization_Penalty_Charging>
0.00439521

> <r_epik_Ionization_Penalty_Neutral>
1.29777

> <r_epik_State_Penalty>
0.977606

> <r_epik_Charging_Adjusted_Penalty>
0.982001

> <i_epik_Tot_Q>
2

> <i_epik_Tot_abs_Q>
2

> <r_epik_Metal_State_Penalty>
1.03289

> <b_epik_Metal_Only>
0

> <s_lp_Force_Field>
OPLS_2005

> <r_lp_Energy>
65.3299

> <b_lp_Chiralities_Consistent>
1

> <s_lp_Variant>
AV-unprocessed.smi:862-5

> <Gold.Version>
5.8.1

> <Gold.Id.Protein>
6NUR|6NUR_protein|mol2

> <Gold.PLP.Fitness>
43.6248

> <Gold.PLP.PLP>
-34.8370

> <Gold.PLP.part.hbond>
-1.6022

> <Gold.PLP.part.metal>
0.0000

> <Gold.PLP.part.buried>
-1.8759

> <Gold.PLP.part.nonpolar>
-32.0016

> <Gold.PLP.part.repulsive>
0.2841

> <Gold.PLP.ligand.clash>
0.0000

> <Gold.PLP.ligand.torsion>
0.7626

> <Gold.PLP.Chemscore.Hbond>
1.5120

> <Gold.PLP.Chemscore.CHOScore>
1.9085

> <Gold.PLP.Chemscore.Metal>
0.0000

> <Gold.Chemscore.Hbonds>
donor molecule, donor type, donor heavy atom, donor atom, acceptor molecule, acceptor atom, score
      L1  H     8    44       P1 10747  1.00
      L1  H    17    45       P1 10171  0.40
      L1  C    15    37       P1  7948  0.91
      L1  C    18    39       P1 10186  1.00

> <Gold.PLP.Chemscore.Internal.Correction>
0.0515

> <Gold.Rescore>
     Score         DG    S(hbond)    S(metal)    S(lipo)     H(rot)  DE(clash)    DE(int)     intcor
     14.88     -16.61       1.77        0.00      81.34       1.68       0.99       0.74       ----

> <Gold.Chemscore.Fitness>
14.8751

> <Gold.Chemscore.DG>
-16.6101

> <Gold.Chemscore.ZeroCoef>
-5.4800

> <Gold.Chemscore.Hbond>
1.7718

> <Gold.Chemscore.Metal>
0.0000

> <Gold.Chemscore.Lipo>
81.3397

> <Gold.Chemscore.Internal_Hbond>
0.0000

> <Gold.Chemscore.DEClash>
0.9919

> <Gold.Chemscore.DEInternal>
0.7432

> <Gold.Chemscore.Rot>
1.6814

> <Gold.Chemscore.Internal.Correction>
   9.000000E+99

> <Gold.Chemscore.Hbonds>
donor molecule, donor type, donor heavy atom, donor atom, acceptor molecule, acceptor atom, score
      L1  H     8    44       P1 10747  0.93
      L1  H    17    45       P1 10171  0.40

> <Gold.Chemscore.Hbond.Weighted>
-5.9177

> <Gold.Chemscore.Metal.Weighted>
-0.0000

> <Gold.Chemscore.Lipo.Weighted>
-9.5167

> <Gold.Chemscore.Internal_Hbond.Weighted>
0.0000

> <Gold.Chemscore.DEClash.Weighted>
0.9919

> <Gold.Chemscore.DEInternal.Weighted>
0.7432

> <Gold.Chemscore.Rot.Weighted>
4.3043

> <Gold.Chemscore.Internal.Correction.Weighted>
   9.000000E+99

> <Gold.Protein.RotatedTorsions>
[ 6907 6896 6895 6894 ] final  143.95 input  -60.11 | X-H torsion
[ 7974 7965 7964 7962 ] final  -78.09 input  175.53 | X-H torsion
[ 8008 7997 7996 7995 ] final  163.52 input   59.86 | X-H torsion
[ 10167 10162 10161 10158 ] final   91.59 input  -65.29 | X-H torsion
[ 10718 10713 10712 10709 ] final  146.08 input   66.30 | X-H torsion
[ 10763 10752 10751 10750 ] final  -53.70 input  -60.55 | X-H torsion
[ 11005 11000 10999 10996 ] final -170.42 input  -57.11 | X-H torsion

> <Gold.Protein.ActiveResidues>
 VAL166  LYS551  ARG553  GLY616  TRP617  ASP618  TYR619  PRO620  LYS621  CYS622 
 ASP623  PHE694  ASN695  SER759  ASP760  ASP761  ALA762  ILE779  LEU786  VAL792 
 PHE793  MET794  SER795  GLU796  ALA797  LYS798  CYS799  TRP800  GLU811  SER814 

> <Gold.Protein.RotatedAtoms>
  152.1998  133.4833  159.5052 H   0  0  0  0  0  0  0  0  0  0  0  0  # atno 6907 bound_to 6896
  150.6967  134.1605  159.4183 H   0  0  0  0  0  0  0  0  0  0  0  0  # atno 6908 bound_to 6896
  151.9522  135.0163  160.0593 H   0  0  0  0  0  0  0  0  0  0  0  0  # atno 6909 bound_to 6896
  145.5911  140.9429  143.1292 H   0  0  0  0  0  0  0  0  0  0  0  0  # atno 7974 bound_to 7965
  156.1951  140.1721  156.8015 H   0  0  0  0  0  0  0  0  0  0  0  0  # atno 8008 bound_to 7997
  154.5519  140.0716  156.8713 H   0  0  0  0  0  0  0  0  0  0  0  0  # atno 8009 bound_to 7997
  155.3012  140.3361  155.4250 H   0  0  0  0  0  0  0  0  0  0  0  0  # atno 8010 bound_to 7997
  139.8359  144.6664  150.9342 H   0  0  0  0  0  0  0  0  0  0  0  0  # atno 10167 bound_to 10162
  157.3375  131.0930  151.1110 H   0  0  0  0  0  0  0  0  0  0  0  0  # atno 10718 bound_to 10713
  154.1631  135.6471  153.4990 H   0  0  0  0  0  0  0  0  0  0  0  0  # atno 10763 bound_to 10752
  153.0105  135.5365  154.6691 H   0  0  0  0  0  0  0  0  0  0  0  0  # atno 10764 bound_to 10752
  154.6009  135.2943  155.0508 H   0  0  0  0  0  0  0  0  0  0  0  0  # atno 10765 bound_to 10752
  140.5197  134.5721  157.5044 H   0  0  0  0  0  0  0  0  0  0  0  0  # atno 11005 bound_to 11000
  144.7351  139.7610  143.7332 LP  0  0  0  0  0  0  0  0  0  0  0  0  # atno 17320 bound_to 7965
  146.1646  139.4773  142.9966 LP  0  0  0  0  0  0  0  0  0  0  0  0  # atno 17321 bound_to 7965
  140.7802  143.3957  151.1234 LP  0  0  0  0  0  0  0  0  0  0  0  0  # atno 17342 bound_to 10162
  139.7607  143.8640  152.3099 LP  0  0  0  0  0  0  0  0  0  0  0  0  # atno 17343 bound_to 10162
  157.2335  130.6536  149.5859 LP  0  0  0  0  0  0  0  0  0  0  0  0  # atno 17370 bound_to 10713
  155.9703  130.4591  150.6024 LP  0  0  0  0  0  0  0  0  0  0  0  0  # atno 17371 bound_to 10713
  139.9612  134.7449  156.0232 LP  0  0  0  0  0  0  0  0  0  0  0  0  # atno 17394 bound_to 11000
  141.1341  133.6579  156.3544 LP  0  0  0  0  0  0  0  0  0  0  0  0  # atno 17395 bound_to 11000

$$$$
