AV-unprocessed.smi:2563|AV-procd|sdf|10058|dock1
  -GOLD-   2272014 93D 1   1.00000     0.00000
 Structure written by MMmdl.
 36 37  0  0  0  0  0  0  0  0  3 V2000
  152.1694  139.5325  156.0934 C   0  0  0  0  0  0  0  0  0  0  0  0
  151.3294  140.1912  157.1955 C   0  0  0  0  0  0  0  0  0  0  0  0
  151.0614  141.6009  156.9194 N   0  0  0  0  0  0  0  0  0  0  0  0
  150.5199  141.9721  155.6108 C   0  0  0  0  0  0  0  0  0  0  0  0
  149.1521  141.3223  155.3310 C   0  0  2  0  0  0  0  0  0  0  0  0
  149.2908  139.8183  155.0205 C   0  0  0  0  0  0  0  0  0  0  0  0
  147.9755  139.2420  154.6771 N   0  3  0  0  0  0  0  0  0  0  0  0
  147.3312  139.9772  153.5718 C   0  0  0  0  0  0  0  0  0  0  0  0
  147.2597  141.4761  153.9066 C   0  0  0  0  0  0  0  0  0  0  0  0
  148.5674  141.9594  154.1972 O   0  0  0  0  0  0  0  0  0  0  0  0
  151.3448  142.5906  157.8913 C   0  0  0  0  0  0  0  0  0  0  0  0
  152.1613  142.3532  159.0246 C   0  0  0  0  0  0  0  0  0  0  0  0
  152.3796  143.4003  159.9358 C   0  0  0  0  0  0  0  0  0  0  0  0
  151.7690  144.6360  159.6663 C   0  0  0  0  0  0  0  0  0  0  0  0
  150.9929  144.8538  158.5831 N   0  0  0  0  0  0  0  0  0  0  0  0
  150.8065  143.8312  157.7315 N   0  3  0  0  0  0  0  0  0  0  0  0
  152.3357  138.4782  156.3146 H   0  0  0  0  0  0  0  0  0  0  0  0
  153.1458  140.0074  155.9957 H   0  0  0  0  0  0  0  0  0  0  0  0
  151.6708  139.5920  155.1255 H   0  0  0  0  0  0  0  0  0  0  0  0
  150.3776  139.6646  157.2710 H   0  0  0  0  0  0  0  0  0  0  0  0
  151.8025  140.0696  158.1697 H   0  0  0  0  0  0  0  0  0  0  0  0
  150.4686  143.0538  155.4855 H   0  0  0  0  0  0  0  0  0  0  0  0
  151.2312  141.6307  154.8579 H   0  0  0  0  0  0  0  0  0  0  0  0
  148.5035  141.4523  156.1993 H   0  0  0  0  0  0  0  0  0  0  0  0
  149.9773  139.6624  154.1869 H   0  0  0  0  0  0  0  0  0  0  0  0
  149.6996  139.2835  155.8782 H   0  0  0  0  0  0  0  0  0  0  0  0
  148.0896  138.2734  154.4128 H   0  0  0  0  0  0  0  0  0  0  0  0
  147.9040  139.8223  152.6565 H   0  0  0  0  0  0  0  0  0  0  0  0
  146.3335  139.5727  153.4005 H   0  0  0  0  0  0  0  0  0  0  0  0
  146.8568  142.0317  153.0595 H   0  0  0  0  0  0  0  0  0  0  0  0
  146.5951  141.6583  154.7526 H   0  0  0  0  0  0  0  0  0  0  0  0
  152.6272  141.3973  159.2087 H   0  0  0  0  0  0  0  0  0  0  0  0
  152.9963  143.2616  160.8116 H   0  0  0  0  0  0  0  0  0  0  0  0
  151.9059  145.4730  160.3355 H   0  0  0  0  0  0  0  0  0  0  0  0
  147.3777  139.2916  155.4899 H   0  0  0  0  0  0  0  0  0  0  0  0
  150.2191  143.9928  156.9133 H   0  0  0  0  0  0  0  0  0  0  0  0
  1  2  1  0  0  0  0
  1 17  1  0  0  0  0
  1 18  1  0  0  0  0
  1 19  1  0  0  0  0
  2  3  1  0  0  0  0
  2 20  1  0  0  0  0
  2 21  1  0  0  0  0
  3  4  1  0  0  0  0
  3 11  1  0  0  0  0
  4  5  1  0  0  0  0
  4 22  1  0  0  0  0
  4 23  1  0  0  0  0
  5 10  1  0  0  0  0
  5  6  1  0  0  0  0
  5 24  1  0  0  0  0
  6  7  1  0  0  0  0
  6 25  1  0  0  0  0
  6 26  1  0  0  0  0
  7  8  1  0  0  0  0
  7 27  1  0  0  0  0
  7 35  1  0  0  0  0
  8  9  1  0  0  0  0
  8 28  1  0  0  0  0
  8 29  1  0  0  0  0
  9 10  1  0  0  0  0
  9 30  1  0  0  0  0
  9 31  1  0  0  0  0
 11 16  1  0  0  0  0
 11 12  2  0  0  0  0
 12 13  1  0  0  0  0
 12 32  1  0  0  0  0
 13 14  2  0  0  0  0
 13 33  1  0  0  0  0
 14 15  1  0  0  0  0
 14 34  1  0  0  0  0
 15 16  2  0  0  0  0
 16 36  1  0  0  0  0
M  CHG  1   7   1
M  CHG  1  16   1
M  END
> <s_m_source_file>
AV-unprocessed.smi

> <i_m_source_file_index>
2563

> <i_lp_mmshare_version>
43012

> <i_f3d_flags>
0

> <s_epik_input>
bjFuW2NIXVtjSF1bY0hdYzFOKFtDSDJdW0NIM10pW0NIMl1bQ0BASF0yW0NIMl1bTkhdW0NIMl1bQ0gyXU8y

> <s_epik_cmdline>
J2VwaWtfcHl0aG9uJywgJy1waCcsICc3LjAnLCAnLXRuJywgJzgnLCAnLW1hJywgJzIwMCcsICctbWV0YWxfYmluZGluZycsICctaW1hZScsICc8aW5maWxlLm1hZT4nLCAnLW9tYWUnLCAnPG91dGZpbGUubWFlPic=

> <r_lp_tautomer_probability>
0.966961

> <r_epik_Ionization_Penalty>
1.93862

> <r_epik_Ionization_Penalty_Charging>
1.93862

> <r_epik_Ionization_Penalty_Neutral>
1.19718e-14

> <r_epik_State_Penalty>
1.51688

> <r_epik_Charging_Adjusted_Penalty>
3.4555

> <i_epik_Tot_Q>
2

> <i_epik_Tot_abs_Q>
2

> <r_epik_Metal_State_Penalty>
1.53359

> <b_epik_Metal_Only>
0

> <s_lp_Force_Field>
OPLS_2005

> <r_lp_Energy>
32.8906

> <b_lp_Chiralities_Consistent>
1

> <s_lp_Variant>
AV-unprocessed.smi:2563-3

> <Gold.Version>
5.8.1

> <Gold.Id.Protein>
6NUR|6NUR_protein|mol2

> <Gold.PLP.Fitness>
39.2195

> <Gold.PLP.PLP>
-32.5812

> <Gold.PLP.part.hbond>
-2.0000

> <Gold.PLP.part.metal>
0.0000

> <Gold.PLP.part.buried>
-4.3282

> <Gold.PLP.part.nonpolar>
-25.9897

> <Gold.PLP.part.repulsive>
0.3913

> <Gold.PLP.ligand.clash>
0.0000

> <Gold.PLP.ligand.torsion>
0.2673

> <Gold.PLP.Chemscore.Hbond>
2.3786

> <Gold.PLP.Chemscore.CHOScore>
0.0000

> <Gold.PLP.Chemscore.Metal>
0.0000

> <Gold.Chemscore.Hbonds>
donor molecule, donor type, donor heavy atom, donor atom, acceptor molecule, acceptor atom, score
      L1  H    16    36       P1  8028  2.00
      P1  H  8011  8017       L1    10  0.17

> <Gold.PLP.Chemscore.Internal.Correction>
0.0373

> <Gold.Rescore>
     Score         DG    S(hbond)    S(metal)    S(lipo)     H(rot)  DE(clash)    DE(int)     intcor
     13.86     -15.53       1.24        0.00      81.85       1.44       1.15       0.53       ----

> <Gold.Chemscore.Fitness>
13.8601

> <Gold.Chemscore.DG>
-15.5320

> <Gold.Chemscore.ZeroCoef>
-5.4800

> <Gold.Chemscore.Hbond>
1.2449

> <Gold.Chemscore.Metal>
0.0000

> <Gold.Chemscore.Lipo>
81.8487

> <Gold.Chemscore.Internal_Hbond>
0.0000

> <Gold.Chemscore.DEClash>
1.1465

> <Gold.Chemscore.DEInternal>
0.5254

> <Gold.Chemscore.Rot>
1.4384

> <Gold.Chemscore.Internal.Correction>
   9.000000E+99

> <Gold.Chemscore.Hbonds>
donor molecule, donor type, donor heavy atom, donor atom, acceptor molecule, acceptor atom, score
      L1  H    16    36       P1  8028  0.97
      P1  H  8011  8017       L1    10  0.15

> <Gold.Chemscore.Hbond.Weighted>
-4.1580

> <Gold.Chemscore.Metal.Weighted>
-0.0000

> <Gold.Chemscore.Lipo.Weighted>
-9.5763

> <Gold.Chemscore.Internal_Hbond.Weighted>
0.0000

> <Gold.Chemscore.DEClash.Weighted>
1.1465

> <Gold.Chemscore.DEInternal.Weighted>
0.5254

> <Gold.Chemscore.Rot.Weighted>
3.6822

> <Gold.Chemscore.Internal.Correction.Weighted>
   9.000000E+99

> <Gold.Protein.RotatedTorsions>
[ 6907 6896 6895 6894 ] final  -40.71 input  -60.11 | X-H torsion
[ 7974 7965 7964 7962 ] final   83.95 input  175.53 | X-H torsion
[ 8008 7997 7996 7995 ] final   64.43 input   59.86 | X-H torsion
[ 10167 10162 10161 10158 ] final -165.00 input  -65.29 | X-H torsion
[ 10718 10713 10712 10709 ] final  178.57 input   66.30 | X-H torsion
[ 10763 10752 10751 10750 ] final -143.71 input  -60.55 | X-H torsion
[ 11005 11000 10999 10996 ] final  165.02 input  -57.11 | X-H torsion

> <Gold.Protein.ActiveResidues>
 VAL166  LYS551  ARG553  GLY616  TRP617  ASP618  TYR619  PRO620  LYS621  CYS622 
 ASP623  PHE694  ASN695  SER759  ASP760  ASP761  ALA762  ILE779  LEU786  VAL792 
 PHE793  MET794  SER795  GLU796  ALA797  LYS798  CYS799  TRP800  GLU811  SER814 

> <Gold.Protein.RotatedAtoms>
  150.9752  134.9118  159.7811 H   0  0  0  0  0  0  0  0  0  0  0  0  # atno 6907 bound_to 6896
  152.5204  134.3486  159.9253 H   0  0  0  0  0  0  0  0  0  0  0  0  # atno 6908 bound_to 6896
  151.3494  133.3890  159.2713 H   0  0  0  0  0  0  0  0  0  0  0  0  # atno 6909 bound_to 6896
  145.6051  139.2359  143.2224 H   0  0  0  0  0  0  0  0  0  0  0  0  # atno 7974 bound_to 7965
  155.6459  140.3497  155.4731 H   0  0  0  0  0  0  0  0  0  0  0  0  # atno 8008 bound_to 7997
  155.9888  140.1189  157.0681 H   0  0  0  0  0  0  0  0  0  0  0  0  # atno 8009 bound_to 7997
  154.4213  140.1123  156.5522 H   0  0  0  0  0  0  0  0  0  0  0  0  # atno 8010 bound_to 7997
  139.6212  144.0621  152.1934 H   0  0  0  0  0  0  0  0  0  0  0  0  # atno 10167 bound_to 10162
  156.8887  130.9840  151.3052 H   0  0  0  0  0  0  0  0  0  0  0  0  # atno 10718 bound_to 10713
  154.8459  135.3460  154.6230 H   0  0  0  0  0  0  0  0  0  0  0  0  # atno 10763 bound_to 10752
  153.6839  135.6978  153.5114 H   0  0  0  0  0  0  0  0  0  0  0  0  # atno 10764 bound_to 10752
  153.2647  135.4312  155.0884 H   0  0  0  0  0  0  0  0  0  0  0  0  # atno 10765 bound_to 10752
  140.2518  134.7971  157.3509 H   0  0  0  0  0  0  0  0  0  0  0  0  # atno 11005 bound_to 11000
  146.1547  140.6875  142.9306 LP  0  0  0  0  0  0  0  0  0  0  0  0  # atno 17320 bound_to 7965
  144.7293  140.4623  143.6949 LP  0  0  0  0  0  0  0  0  0  0  0  0  # atno 17321 bound_to 7965
  140.0263  144.6114  150.7524 LP  0  0  0  0  0  0  0  0  0  0  0  0  # atno 17342 bound_to 10162
  140.7383  143.2776  151.3694 LP  0  0  0  0  0  0  0  0  0  0  0  0  # atno 17343 bound_to 10162
  157.6097  130.8573  149.8931 LP  0  0  0  0  0  0  0  0  0  0  0  0  # atno 17370 bound_to 10713
  156.0640  130.3695  150.0919 LP  0  0  0  0  0  0  0  0  0  0  0  0  # atno 17371 bound_to 10713
  140.1550  134.4801  155.7934 LP  0  0  0  0  0  0  0  0  0  0  0  0  # atno 17394 bound_to 11000
  141.2200  133.6878  156.7445 LP  0  0  0  0  0  0  0  0  0  0  0  0  # atno 17395 bound_to 11000

$$$$
