AV-unprocessed.smi:1386|AV-procd|sdf|5636|dock3
  -GOLD-   22720 5253D 1   1.00000     0.00000
 Structure written by MMmdl.
 36 37  0  0  0  0  0  0  0  0  2 V2000
  151.3057  138.8011  157.8157 C   0  0  0  0  0  0  0  0  0  0  0  0
  150.9871  140.2042  157.2830 C   0  0  2  0  0  0  0  0  0  0  0  0
  151.3345  140.3254  155.7833 C   0  0  0  0  0  0  0  0  0  0  0  0
  150.2957  139.7761  154.9056 N   0  0  0  0  0  0  0  0  0  0  0  0
  149.0197  140.2468  154.7301 C   0  0  0  0  0  0  0  0  0  0  0  0
  148.4154  139.4099  153.8278 C   0  0  0  0  0  0  0  0  0  0  0  0
  149.3491  138.4685  153.4864 N   0  3  0  0  0  0  0  0  0  0  0  0
  150.4935  138.6959  154.1390 C   0  0  0  0  0  0  0  0  0  0  0  0
  151.7250  141.1870  158.0754 N   0  0  0  0  0  0  0  0  0  0  0  0
  151.6445  142.5240  157.9548 C   0  0  0  0  0  0  0  0  0  0  0  0
  150.9315  143.0637  157.1074 O   0  0  0  0  0  0  0  0  0  0  0  0
  152.4368  143.2192  158.8095 N   0  0  0  0  0  0  0  0  0  0  0  0
  153.3036  142.6389  159.8487 C   0  0  0  0  0  0  0  0  0  0  0  0
  152.5578  142.6590  161.1932 C   0  0  0  0  0  0  0  0  0  0  0  0
  152.1920  144.3658  161.7080 S   0  0  0  0  0  0  0  0  0  0  0  0
  151.4385  144.9939  160.1746 C   0  0  0  0  0  0  0  0  0  0  0  0
  152.3195  144.6752  158.9544 C   0  0  0  0  0  0  0  0  0  0  0  0
  150.7467  138.0388  157.2722 H   0  0  0  0  0  0  0  0  0  0  0  0
  151.0415  138.7114  158.8700 H   0  0  0  0  0  0  0  0  0  0  0  0
  152.3667  138.5688  157.7169 H   0  0  0  0  0  0  0  0  0  0  0  0
  149.9144  140.3589  157.4120 H   0  0  0  0  0  0  0  0  0  0  0  0
  151.4984  141.3678  155.5057 H   0  0  0  0  0  0  0  0  0  0  0  0
  152.2601  139.7916  155.5628 H   0  0  0  0  0  0  0  0  0  0  0  0
  148.6437  141.1147  155.2521 H   0  0  0  0  0  0  0  0  0  0  0  0
  147.4173  139.4133  153.4145 H   0  0  0  0  0  0  0  0  0  0  0  0
  151.3954  138.1144  154.0693 H   0  0  0  0  0  0  0  0  0  0  0  0
  152.3411  140.8209  158.7869 H   0  0  0  0  0  0  0  0  0  0  0  0
  153.6295  141.6244  159.6197 H   0  0  0  0  0  0  0  0  0  0  0  0
  154.2257  143.2169  159.9272 H   0  0  0  0  0  0  0  0  0  0  0  0
  151.6239  142.1003  161.1202 H   0  0  0  0  0  0  0  0  0  0  0  0
  153.1564  142.1814  161.9689 H   0  0  0  0  0  0  0  0  0  0  0  0
  150.4491  144.5503  160.0566 H   0  0  0  0  0  0  0  0  0  0  0  0
  151.2959  146.0704  160.2704 H   0  0  0  0  0  0  0  0  0  0  0  0
  153.3070  145.1225  159.0755 H   0  0  0  0  0  0  0  0  0  0  0  0
  151.9000  145.1406  158.0611 H   0  0  0  0  0  0  0  0  0  0  0  0
  149.1974  137.7078  152.8360 H   0  0  0  0  0  0  0  0  0  0  0  0
  1  2  1  0  0  0  0
  1 18  1  0  0  0  0
  1 19  1  0  0  0  0
  1 20  1  0  0  0  0
  2  3  1  0  0  0  0
  2  9  1  0  0  0  0
  2 21  1  0  0  0  0
  3  4  1  0  0  0  0
  3 22  1  0  0  0  0
  3 23  1  0  0  0  0
  4  8  1  0  0  0  0
  4  5  1  0  0  0  0
  5  6  2  0  0  0  0
  5 24  1  0  0  0  0
  6  7  1  0  0  0  0
  6 25  1  0  0  0  0
  7  8  2  0  0  0  0
  7 36  1  0  0  0  0
  8 26  1  0  0  0  0
  9 10  1  0  0  0  0
  9 27  1  0  0  0  0
 10 11  2  0  0  0  0
 10 12  1  0  0  0  0
 12 17  1  0  0  0  0
 12 13  1  0  0  0  0
 13 14  1  0  0  0  0
 13 28  1  0  0  0  0
 13 29  1  0  0  0  0
 14 15  1  0  0  0  0
 14 30  1  0  0  0  0
 14 31  1  0  0  0  0
 15 16  1  0  0  0  0
 16 17  1  0  0  0  0
 16 32  1  0  0  0  0
 16 33  1  0  0  0  0
 17 34  1  0  0  0  0
 17 35  1  0  0  0  0
M  CHG  1   7   1
M  END
> <s_m_source_file>
AV-unprocessed.smi

> <i_m_source_file_index>
1386

> <i_lp_mmshare_version>
43012

> <i_f3d_flags>
0

> <s_epik_input>
W2NIXTFuW2NIXVtjSF1uMVtDSDJdW0NAQEhdKFtDSDNdKVtOSF1DKD1PKU4yW0NIMl1bQ0gyXVNbQ0gyXVtDSDJdMg==

> <s_epik_cmdline>
J2VwaWtfcHl0aG9uJywgJy1waCcsICc3LjAnLCAnLXRuJywgJzgnLCAnLW1hJywgJzIwMCcsICctbWV0YWxfYmluZGluZycsICctaW1hZScsICc8aW5maWxlLm1hZT4nLCAnLW9tYWUnLCAnPG91dGZpbGUubWFlPic=

> <r_lp_tautomer_probability>
1

> <r_epik_Ionization_Penalty>
0.254941

> <r_epik_Ionization_Penalty_Charging>
0

> <r_epik_Ionization_Penalty_Neutral>
0.254941

> <r_epik_State_Penalty>
0.246388

> <r_epik_Charging_Adjusted_Penalty>
0.246388

> <i_epik_Tot_Q>
1

> <i_epik_Tot_abs_Q>
1

> <r_epik_Metal_State_Penalty>
0.536262

> <b_epik_Metal_Only>
0

> <s_lp_Force_Field>
OPLS_2005

> <r_lp_Energy>
26.1467

> <b_lp_Chiralities_Consistent>
1

> <s_lp_Variant>
AV-unprocessed.smi:1386-1

> <Gold.Version>
5.8.1

> <Gold.Id.Protein>
6NUR|6NUR_protein|mol2

> <Gold.PLP.Fitness>
47.6735

> <Gold.PLP.PLP>
-42.1958

> <Gold.PLP.part.hbond>
-2.0000

> <Gold.PLP.part.metal>
0.0000

> <Gold.PLP.part.buried>
-2.6690

> <Gold.PLP.part.nonpolar>
-38.2951

> <Gold.PLP.part.repulsive>
0.6390

> <Gold.PLP.ligand.clash>
0.0000

> <Gold.PLP.ligand.torsion>
0.2907

> <Gold.PLP.Chemscore.Hbond>
2.0000

> <Gold.PLP.Chemscore.CHOScore>
0.0000

> <Gold.PLP.Chemscore.Metal>
0.0000

> <Gold.Chemscore.Hbonds>
donor molecule, donor type, donor heavy atom, donor atom, acceptor molecule, acceptor atom, score
      L1  H     7    36       P1  7948  2.00

> <Gold.PLP.Chemscore.Internal.Correction>
0.0591

> <Gold.Rescore>
     Score         DG    S(hbond)    S(metal)    S(lipo)     H(rot)  DE(clash)    DE(int)     intcor
     13.91     -15.04       1.00        0.00      89.06       1.64       0.26       0.87       ----

> <Gold.Chemscore.Fitness>
13.9081

> <Gold.Chemscore.DG>
-15.0373

> <Gold.Chemscore.ZeroCoef>
-5.4800

> <Gold.Chemscore.Hbond>
0.9989

> <Gold.Chemscore.Metal>
0.0000

> <Gold.Chemscore.Lipo>
89.0634

> <Gold.Chemscore.Internal_Hbond>
0.0000

> <Gold.Chemscore.DEClash>
0.2630

> <Gold.Chemscore.DEInternal>
0.8663

> <Gold.Chemscore.Rot>
1.6404

> <Gold.Chemscore.Internal.Correction>
   9.000000E+99

> <Gold.Chemscore.Hbonds>
donor molecule, donor type, donor heavy atom, donor atom, acceptor molecule, acceptor atom, score
      L1  H     7    36       P1  7948  0.98

> <Gold.Chemscore.Hbond.Weighted>
-3.3364

> <Gold.Chemscore.Metal.Weighted>
-0.0000

> <Gold.Chemscore.Lipo.Weighted>
-10.4204

> <Gold.Chemscore.Internal_Hbond.Weighted>
0.0000

> <Gold.Chemscore.DEClash.Weighted>
0.2630

> <Gold.Chemscore.DEInternal.Weighted>
0.8663

> <Gold.Chemscore.Rot.Weighted>
4.1995

> <Gold.Chemscore.Internal.Correction.Weighted>
   9.000000E+99

> <Gold.Protein.RotatedTorsions>
[ 6907 6896 6895 6894 ] final  -26.27 input  -60.11 | X-H torsion
[ 7974 7965 7964 7962 ] final   75.70 input  175.53 | X-H torsion
[ 8008 7997 7996 7995 ] final   94.38 input   59.86 | X-H torsion
[ 10167 10162 10161 10158 ] final  -52.19 input  -65.29 | X-H torsion
[ 10718 10713 10712 10709 ] final -166.98 input   66.30 | X-H torsion
[ 10763 10752 10751 10750 ] final  -29.92 input  -60.55 | X-H torsion
[ 11005 11000 10999 10996 ] final  166.41 input  -57.11 | X-H torsion

> <Gold.Protein.ActiveResidues>
 VAL166  LYS551  ARG553  GLY616  TRP617  ASP618  TYR619  PRO620  LYS621  CYS622 
 ASP623  PHE694  ASN695  SER759  ASP760  ASP761  ALA762  ILE779  LEU786  VAL792 
 PHE793  MET794  SER795  GLU796  ALA797  LYS798  CYS799  TRP800  GLU811  SER814 

> <Gold.Protein.RotatedAtoms>
  151.1633  135.0283  159.8719 H   0  0  0  0  0  0  0  0  0  0  0  0  # atno 6907 bound_to 6896
  152.5451  134.1254  159.8427 H   0  0  0  0  0  0  0  0  0  0  0  0  # atno 6908 bound_to 6896
  151.1352  133.4963  159.2630 H   0  0  0  0  0  0  0  0  0  0  0  0  # atno 6909 bound_to 6896
  145.7122  139.2619  143.1644 H   0  0  0  0  0  0  0  0  0  0  0  0  # atno 7974 bound_to 7965
  156.0573  140.3300  155.7420 H   0  0  0  0  0  0  0  0  0  0  0  0  # atno 8008 bound_to 7997
  155.5510  140.0610  157.2867 H   0  0  0  0  0  0  0  0  0  0  0  0  # atno 8009 bound_to 7997
  154.4464  140.1894  156.0674 H   0  0  0  0  0  0  0  0  0  0  0  0  # atno 8010 bound_to 7997
  140.6550  143.2593  151.4612 H   0  0  0  0  0  0  0  0  0  0  0  0  # atno 10167 bound_to 10162
  156.6757  130.9102  151.3050 H   0  0  0  0  0  0  0  0  0  0  0  0  # atno 10718 bound_to 10713
  153.7724  135.6911  153.4904 H   0  0  0  0  0  0  0  0  0  0  0  0  # atno 10763 bound_to 10752
  153.1865  135.4487  155.0094 H   0  0  0  0  0  0  0  0  0  0  0  0  # atno 10764 bound_to 10752
  154.8112  135.3378  154.7233 H   0  0  0  0  0  0  0  0  0  0  0  0  # atno 10765 bound_to 10752
  140.2661  134.7864  157.3634 H   0  0  0  0  0  0  0  0  0  0  0  0  # atno 11005 bound_to 11000
  146.0702  140.7877  142.9692 LP  0  0  0  0  0  0  0  0  0  0  0  0  # atno 17320 bound_to 7965
  144.6939  140.3330  143.7212 LP  0  0  0  0  0  0  0  0  0  0  0  0  # atno 17321 bound_to 7965
  139.5771  144.1793  152.1918 LP  0  0  0  0  0  0  0  0  0  0  0  0  # atno 17342 bound_to 10162
  140.1107  144.5459  150.6927 LP  0  0  0  0  0  0  0  0  0  0  0  0  # atno 17343 bound_to 10162
  157.7061  130.9387  150.0937 LP  0  0  0  0  0  0  0  0  0  0  0  0  # atno 17370 bound_to 10713
  156.1905  130.3654  149.8916 LP  0  0  0  0  0  0  0  0  0  0  0  0  # atno 17371 bound_to 10713
  140.1418  134.4962  155.8026 LP  0  0  0  0  0  0  0  0  0  0  0  0  # atno 17394 bound_to 11000
  141.2184  133.6828  156.7223 LP  0  0  0  0  0  0  0  0  0  0  0  0  # atno 17395 bound_to 11000

$$$$
