AV-unprocessed.smi:2424|AV-procd|sdf|9568|dock1
  -GOLD-   2272013203D 1   1.00000     0.00000
 Structure written by MMmdl.
 49 50  0  0  0  0  0  0  0  0  2 V2000
  146.3222  133.9010  152.1676 C   0  0  0  0  0  0  0  0  0  0  0  0
  146.7168  132.4291  152.3660 C   0  0  0  0  0  0  0  0  0  0  0  0
  147.5088  132.1233  153.6583 C   0  0  0  0  0  0  0  0  0  0  0  0
  148.8604  132.8843  153.6139 C   0  0  0  0  0  0  0  0  0  0  0  0
  149.9041  132.4307  154.6481 C   0  0  0  0  0  0  0  0  0  0  0  0
  146.6848  132.2473  154.9689 C   0  0  2  0  0  0  0  0  0  0  0  0
  146.9753  133.4428  155.7564 N   0  0  0  0  0  0  0  0  0  0  0  0
  147.0427  133.4913  157.0932 C   0  0  0  0  0  0  0  0  0  0  0  0
  146.8885  132.5065  157.8147 O   0  0  0  0  0  0  0  0  0  0  0  0
  147.2966  134.7437  157.5116 N   0  0  0  0  0  0  0  0  0  0  0  0
  147.4010  135.2237  158.8231 C   0  0  0  0  0  0  0  0  0  0  0  0
  147.6195  136.5660  159.0579 C   0  0  0  0  0  0  0  0  0  0  0  0
  147.7461  137.2106  160.2380 N   0  5  0  0  0  0  0  0  0  0  0  0
  147.6497  136.4774  161.3840 C   0  0  0  0  0  0  0  0  0  0  0  0
  147.7584  136.9952  162.4949 O   0  0  0  0  0  0  0  0  0  0  0  0
  147.4068  135.0242  161.2814 C   0  0  0  0  0  0  0  0  0  0  0  0
  147.2906  134.2121  162.5601 C   0  0  0  0  0  0  0  0  0  0  0  0
  147.2912  134.4482  160.0585 C   0  0  0  0  0  0  0  0  0  0  0  0
  147.3931  131.0058  155.5179 C   0  0  1  0  0  0  0  0  0  0  0  0
  146.6499  130.0560  156.4488 C   0  0  0  0  0  0  0  0  0  0  0  0
  147.6368  130.6204  154.0501 C   0  0  1  0  0  0  0  0  0  0  0  0
  146.5791  129.7993  153.5679 O   0  0  0  0  0  0  0  0  0  0  0  0
  146.8655  129.2089  152.3113 C   0  0  0  0  0  0  0  0  0  0  0  0
  145.6887  134.0085  151.2869 H   0  0  0  0  0  0  0  0  0  0  0  0
  147.1900  134.5423  152.0175 H   0  0  0  0  0  0  0  0  0  0  0  0
  145.7605  134.2827  153.0189 H   0  0  0  0  0  0  0  0  0  0  0  0
  145.7898  131.8554  152.3634 H   0  0  0  0  0  0  0  0  0  0  0  0
  147.2570  132.0831  151.4859 H   0  0  0  0  0  0  0  0  0  0  0  0
  149.3021  132.8341  152.6191 H   0  0  0  0  0  0  0  0  0  0  0  0
  148.6921  133.9483  153.7801 H   0  0  0  0  0  0  0  0  0  0  0  0
  150.7701  133.0923  154.6296 H   0  0  0  0  0  0  0  0  0  0  0  0
  150.2685  131.4245  154.4435 H   0  0  0  0  0  0  0  0  0  0  0  0
  149.5024  132.4457  155.6611 H   0  0  0  0  0  0  0  0  0  0  0  0
  145.6207  132.0560  154.8095 H   0  0  0  0  0  0  0  0  0  0  0  0
  147.1206  134.3003  155.2442 H   0  0  0  0  0  0  0  0  0  0  0  0
  147.4260  135.4415  156.7937 H   0  0  0  0  0  0  0  0  0  0  0  0
  147.7106  137.2194  158.1633 H   0  0  0  0  0  0  0  0  0  0  0  0
  147.1044  133.1589  162.3481 H   0  0  0  0  0  0  0  0  0  0  0  0
  146.4689  134.5824  163.1738 H   0  0  0  0  0  0  0  0  0  0  0  0
  148.2118  134.2811  163.1395 H   0  0  0  0  0  0  0  0  0  0  0  0
  147.1060  133.3872  160.0230 H   0  0  0  0  0  0  0  0  0  0  0  0
  148.3489  131.2869  155.9643 H   0  0  0  0  0  0  0  0  0  0  0  0
  145.6659  129.7970  156.0575 H   0  0  0  0  0  0  0  0  0  0  0  0
  146.5018  130.5067  157.4303 H   0  0  0  0  0  0  0  0  0  0  0  0
  147.2051  129.1287  156.5908 H   0  0  0  0  0  0  0  0  0  0  0  0
  148.6255  130.1821  153.9041 H   0  0  0  0  0  0  0  0  0  0  0  0
  146.0044  128.6328  151.9731 H   0  0  0  0  0  0  0  0  0  0  0  0
  147.7157  128.5299  152.3851 H   0  0  0  0  0  0  0  0  0  0  0  0
  147.0871  129.9602  151.5534 H   0  0  0  0  0  0  0  0  0  0  0  0
  1  2  1  0  0  0  0
  1 24  1  0  0  0  0
  1 25  1  0  0  0  0
  1 26  1  0  0  0  0
  2  3  1  0  0  0  0
  2 27  1  0  0  0  0
  2 28  1  0  0  0  0
  3 21  1  0  0  0  0
  3  4  1  0  0  0  0
  3  6  1  0  0  0  0
  4  5  1  0  0  0  0
  4 29  1  0  0  0  0
  4 30  1  0  0  0  0
  5 31  1  0  0  0  0
  5 32  1  0  0  0  0
  5 33  1  0  0  0  0
  6  7  1  0  0  0  0
  6 19  1  0  0  0  0
  6 34  1  0  0  0  0
  7  8  1  0  0  0  0
  7 35  1  0  0  0  0
  8  9  2  0  0  0  0
  8 10  1  0  0  0  0
 10 11  1  0  0  0  0
 10 36  1  0  0  0  0
 11 18  1  0  0  0  0
 11 12  2  0  0  0  0
 12 13  1  0  0  0  0
 12 37  1  0  0  0  0
 13 14  1  0  0  0  0
 14 15  2  0  0  0  0
 14 16  1  0  0  0  0
 16 17  1  0  0  0  0
 16 18  2  0  0  0  0
 17 38  1  0  0  0  0
 17 39  1  0  0  0  0
 17 40  1  0  0  0  0
 18 41  1  0  0  0  0
 19 20  1  0  0  0  0
 19 21  1  0  0  0  0
 19 42  1  0  0  0  0
 20 43  1  0  0  0  0
 20 44  1  0  0  0  0
 20 45  1  0  0  0  0
 21 22  1  0  0  0  0
 21 46  1  0  0  0  0
 22 23  1  0  0  0  0
 23 47  1  0  0  0  0
 23 48  1  0  0  0  0
 23 49  1  0  0  0  0
M  CHG  1  13  -1
M  END
> <s_m_source_file>
AV-unprocessed.smi

> <i_m_source_file_index>
2424

> <i_lp_mmshare_version>
43012

> <i_f3d_flags>
0

> <s_epik_input>
W0NIM11PW0NAQEhdMVtDQEhdKFtDSDNdKVtDQEBIXShDMShbQ0gyXVtDSDNdKVtDSDJdW0NIM10pW05IXUMoPU8pW05IXWMyW2NIXVtuSF1jKD1PKWMoW0NIM10pW2NIXTI=

> <s_epik_cmdline>
J2VwaWtfcHl0aG9uJywgJy1waCcsICc3LjAnLCAnLXRuJywgJzgnLCAnLW1hJywgJzIwMCcsICctbWV0YWxfYmluZGluZycsICctaW1hZScsICc8aW5maWxlLm1hZT4nLCAnLW9tYWUnLCAnPG91dGZpbGUubWFlPic=

> <r_lp_tautomer_probability>
1

> <r_epik_Ionization_Penalty>
7.6122

> <r_epik_Ionization_Penalty_Charging>
1.53843

> <r_epik_Ionization_Penalty_Neutral>
6.07377

> <r_epik_State_Penalty>
6.07371

> <r_epik_Charging_Adjusted_Penalty>
7.61214

> <i_epik_Tot_Q>
-1

> <i_epik_Tot_abs_Q>
1

> <r_epik_Metal_State_Penalty>
2.02136

> <b_epik_Metal_Only>
1

> <s_lp_Force_Field>
OPLS_2005

> <r_lp_Energy>
41.6495

> <b_lp_Chiralities_Consistent>
1

> <s_lp_Variant>
AV-unprocessed.smi:2424-10

> <Gold.Version>
5.8.1

> <Gold.Id.Protein>
6NUR|6NUR_protein|mol2

> <Gold.PLP.Fitness>
37.9886

> <Gold.PLP.PLP>
-31.4849

> <Gold.PLP.part.hbond>
-2.7889

> <Gold.PLP.part.metal>
0.0000

> <Gold.PLP.part.buried>
-4.9798

> <Gold.PLP.part.nonpolar>
-24.4499

> <Gold.PLP.part.repulsive>
0.1465

> <Gold.PLP.ligand.clash>
0.0000

> <Gold.PLP.ligand.torsion>
0.7933

> <Gold.PLP.Chemscore.Hbond>
2.4600

> <Gold.PLP.Chemscore.CHOScore>
0.0000

> <Gold.PLP.Chemscore.Metal>
0.0000

> <Gold.Chemscore.Hbonds>
donor molecule, donor type, donor heavy atom, donor atom, acceptor molecule, acceptor atom, score
      P1  H  6931  6943       L1    15  0.72
      P1  H  6934  6947       L1    13  1.73

> <Gold.PLP.Chemscore.Internal.Correction>
0.7103

> <Gold.Rescore>
     Score         DG    S(hbond)    S(metal)    S(lipo)     H(rot)  DE(clash)    DE(int)     intcor
      7.14     -12.75       0.89        0.00      69.97       1.52       0.03       5.58       ----

> <Gold.Chemscore.Fitness>
7.1362

> <Gold.Chemscore.DG>
-12.7523

> <Gold.Chemscore.ZeroCoef>
-5.4800

> <Gold.Chemscore.Hbond>
0.8916

> <Gold.Chemscore.Metal>
0.0000

> <Gold.Chemscore.Lipo>
69.9725

> <Gold.Chemscore.Internal_Hbond>
0.0000

> <Gold.Chemscore.DEClash>
0.0330

> <Gold.Chemscore.DEInternal>
5.5831

> <Gold.Chemscore.Rot>
1.5204

> <Gold.Chemscore.Internal.Correction>
   9.000000E+99

> <Gold.Chemscore.Hbonds>
donor molecule, donor type, donor heavy atom, donor atom, acceptor molecule, acceptor atom, score
      P1  H  6931  6943       L1    15  0.09
      P1  H  6934  6947       L1    13  0.24

> <Gold.Chemscore.Hbond.Weighted>
-2.9778

> <Gold.Chemscore.Metal.Weighted>
-0.0000

> <Gold.Chemscore.Lipo.Weighted>
-8.1868

> <Gold.Chemscore.Internal_Hbond.Weighted>
0.0000

> <Gold.Chemscore.DEClash.Weighted>
0.0330

> <Gold.Chemscore.DEInternal.Weighted>
5.5831

> <Gold.Chemscore.Rot.Weighted>
3.8922

> <Gold.Chemscore.Internal.Correction.Weighted>
   9.000000E+99

> <Gold.Protein.RotatedTorsions>
[ 6907 6896 6895 6894 ] final -174.40 input  -60.11 | X-H torsion
[ 7974 7965 7964 7962 ] final   47.46 input  175.53 | X-H torsion
[ 8008 7997 7996 7995 ] final   74.31 input   59.86 | X-H torsion
[ 10167 10162 10161 10158 ] final  -70.95 input  -65.29 | X-H torsion
[ 10718 10713 10712 10709 ] final  -20.31 input   66.30 | X-H torsion
[ 10763 10752 10751 10750 ] final -140.14 input  -60.55 | X-H torsion
[ 11005 11000 10999 10996 ] final   42.38 input  -57.11 | X-H torsion

> <Gold.Protein.ActiveResidues>
 VAL166  LYS551  ARG553  GLY616  TRP617  ASP618  TYR619  PRO620  LYS621  CYS622 
 ASP623  PHE694  ASN695  SER759  ASP760  ASP761  ALA762  ILE779  LEU786  VAL792 
 PHE793  MET794  SER795  GLU796  ALA797  LYS798  CYS799  TRP800  GLU811  SER814 

> <Gold.Protein.RotatedAtoms>
  151.5717  133.3389  159.2990 H   0  0  0  0  0  0  0  0  0  0  0  0  # atno 6907 bound_to 6896
  150.8364  134.7641  159.6907 H   0  0  0  0  0  0  0  0  0  0  0  0  # atno 6908 bound_to 6896
  152.4439  134.5541  159.9927 H   0  0  0  0  0  0  0  0  0  0  0  0  # atno 6909 bound_to 6896
  146.0296  139.4747  142.9846 H   0  0  0  0  0  0  0  0  0  0  0  0  # atno 7974 bound_to 7965
  155.7965  140.3477  155.5379 H   0  0  0  0  0  0  0  0  0  0  0  0  # atno 8008 bound_to 7997
  155.8581  140.0967  157.1652 H   0  0  0  0  0  0  0  0  0  0  0  0  # atno 8009 bound_to 7997
  154.4010  140.1364  156.3914 H   0  0  0  0  0  0  0  0  0  0  0  0  # atno 8010 bound_to 7997
  140.5312  143.2321  151.7259 H   0  0  0  0  0  0  0  0  0  0  0  0  # atno 10167 bound_to 10162
  156.5336  130.4661  149.6534 H   0  0  0  0  0  0  0  0  0  0  0  0  # atno 10718 bound_to 10713
  154.8588  135.3562  154.5659 H   0  0  0  0  0  0  0  0  0  0  0  0  # atno 10763 bound_to 10752
  153.6273  135.7003  153.5293 H   0  0  0  0  0  0  0  0  0  0  0  0  # atno 10764 bound_to 10752
  153.3078  135.4187  155.1269 H   0  0  0  0  0  0  0  0  0  0  0  0  # atno 10765 bound_to 10752
  140.1745  134.4181  155.8237 H   0  0  0  0  0  0  0  0  0  0  0  0  # atno 11005 bound_to 11000
  145.7063  141.0120  143.1477 LP  0  0  0  0  0  0  0  0  0  0  0  0  # atno 17320 bound_to 7965
  144.7024  139.8704  143.7440 LP  0  0  0  0  0  0  0  0  0  0  0  0  # atno 17321 bound_to 7965
  139.4955  144.4112  152.0079 LP  0  0  0  0  0  0  0  0  0  0  0  0  # atno 17342 bound_to 10162
  140.3214  144.3423  150.6008 LP  0  0  0  0  0  0  0  0  0  0  0  0  # atno 17343 bound_to 10162
  156.3036  130.7190  151.2068 LP  0  0  0  0  0  0  0  0  0  0  0  0  # atno 17370 bound_to 10713
  157.7417  131.0500  150.5075 LP  0  0  0  0  0  0  0  0  0  0  0  0  # atno 17371 bound_to 10713
  141.2219  133.6971  156.7821 LP  0  0  0  0  0  0  0  0  0  0  0  0  # atno 17394 bound_to 11000
  140.2339  134.8665  157.3505 LP  0  0  0  0  0  0  0  0  0  0  0  0  # atno 17395 bound_to 11000

$$$$
