AV-unprocessed.smi:229|AV-procd|sdf|1752|dock1
  -GOLD-   2262020273D 1   1.00000     0.00000
 Structure written by MMmdl.
 58 62  0  0  0  0  0  0  0  0  1 V2000
  150.3284  134.3773  159.9185 C   0  0  0  0  0  0  0  0  0  0  0  0
  151.3618  133.5885  159.1004 C   0  0  0  0  0  0  0  0  0  0  0  0
  151.6142  134.1419  157.6867 C   0  0  1  0  0  0  0  0  0  0  0  0
  151.4614  135.6714  157.5884 C   0  0  0  0  0  0  0  0  0  0  0  0
  151.8068  136.1114  156.2425 N   0  0  0  0  0  0  0  0  0  0  0  0
  151.4449  137.3588  155.8545 C   0  0  0  0  0  0  0  0  0  0  0  0
  150.9277  137.5659  154.6141 N   0  0  0  0  0  0  0  0  0  0  0  0
  150.5571  138.7928  154.2350 C   0  0  0  0  0  0  0  0  0  0  0  0
  150.6183  139.9339  154.9247 N   0  0  0  0  0  0  0  0  0  0  0  0
  151.1474  139.7340  156.1653 C   0  0  0  0  0  0  0  0  0  0  0  0
  151.5825  138.4910  156.7051 C   0  0  0  0  0  0  0  0  0  0  0  0
  152.0732  138.6789  157.9923 N   0  0  0  0  0  0  0  0  0  0  0  0
  151.9283  139.9582  158.2045 C   0  0  0  0  0  0  0  0  0  0  0  0
  151.3764  140.6665  157.1618 N   0  0  0  0  0  0  0  0  0  0  0  0
  151.1064  142.0932  157.1352 C   0  0  0  0  0  0  0  0  0  0  0  0
  150.5785  142.6140  158.4859 C   0  0  2  0  0  0  0  0  0  0  0  0
  149.5471  143.5534  158.2497 O   0  0  0  0  0  0  0  0  0  0  0  0
  151.6834  143.2822  159.3240 C   0  0  1  0  0  0  0  0  0  0  0  0
  151.1718  144.1423  160.4804 C   0  0  0  0  0  0  0  0  0  0  0  0
  152.3334  144.1476  161.4613 C   0  0  0  0  0  0  0  0  0  0  0  0
  153.2043  142.9707  161.0133 C   0  0  0  0  0  0  0  0  0  0  0  0
  152.4476  142.3038  160.0124 O   0  0  0  0  0  0  0  0  0  0  0  0
  153.1504  135.7087  155.8462 C   0  0  0  0  0  0  0  0  0  0  0  0
  153.3123  134.1790  155.9557 C   0  0  1  0  0  0  0  0  0  0  0  0
  152.6102  133.3992  154.8480 C   0  0  0  0  0  0  0  0  0  0  0  0
  153.4015  132.1009  154.8219 C   0  0  0  0  0  0  0  0  0  0  0  0
  154.7449  132.5187  155.0094 O   0  0  0  0  0  0  0  0  0  0  0  0
  154.7699  133.7294  155.7626 C   0  0  0  0  0  0  0  0  0  0  0  0
  152.9205  133.7442  157.2645 O   0  0  0  0  0  0  0  0  0  0  0  0
  150.2479  133.9719  160.9272 H   0  0  0  0  0  0  0  0  0  0  0  0
  149.3368  134.3303  159.4694 H   0  0  0  0  0  0  0  0  0  0  0  0
  150.6093  135.4270  160.0073 H   0  0  0  0  0  0  0  0  0  0  0  0
  152.3056  133.5794  159.6464 H   0  0  0  0  0  0  0  0  0  0  0  0
  151.0453  132.5475  159.0307 H   0  0  0  0  0  0  0  0  0  0  0  0
  150.8750  133.6824  157.0314 H   0  0  0  0  0  0  0  0  0  0  0  0
  150.4359  135.9555  157.8286 H   0  0  0  0  0  0  0  0  0  0  0  0
  152.1164  136.1739  158.3009 H   0  0  0  0  0  0  0  0  0  0  0  0
  150.1527  138.8712  153.2366 H   0  0  0  0  0  0  0  0  0  0  0  0
  152.2200  140.4237  159.1347 H   0  0  0  0  0  0  0  0  0  0  0  0
  152.0320  142.6045  156.8685 H   0  0  0  0  0  0  0  0  0  0  0  0
  150.3938  142.3050  156.3370 H   0  0  0  0  0  0  0  0  0  0  0  0
  150.1527  141.7836  159.0509 H   0  0  0  0  0  0  0  0  0  0  0  0
  149.2624  143.4664  157.3528 H   0  0  0  0  0  0  0  0  0  0  0  0
  152.3488  143.8687  158.6872 H   0  0  0  0  0  0  0  0  0  0  0  0
  150.8803  145.1440  160.1636 H   0  0  0  0  0  0  0  0  0  0  0  0
  150.3047  143.6714  160.9454 H   0  0  0  0  0  0  0  0  0  0  0  0
  152.8956  145.0801  161.4044 H   0  0  0  0  0  0  0  0  0  0  0  0
  151.9821  144.0282  162.4865 H   0  0  0  0  0  0  0  0  0  0  0  0
  154.1386  143.3293  160.5791 H   0  0  0  0  0  0  0  0  0  0  0  0
  153.4478  142.2946  161.8331 H   0  0  0  0  0  0  0  0  0  0  0  0
  153.3918  136.0384  154.8361 H   0  0  0  0  0  0  0  0  0  0  0  0
  153.8624  136.2016  156.5098 H   0  0  0  0  0  0  0  0  0  0  0  0
  151.5433  133.2445  154.9985 H   0  0  0  0  0  0  0  0  0  0  0  0
  152.7317  133.9130  153.8933 H   0  0  0  0  0  0  0  0  0  0  0  0
  153.1051  131.4525  155.6475 H   0  0  0  0  0  0  0  0  0  0  0  0
  153.2794  131.5492  153.8897 H   0  0  0  0  0  0  0  0  0  0  0  0
  155.3376  134.4630  155.1888 H   0  0  0  0  0  0  0  0  0  0  0  0
  155.2866  133.5877  156.7125 H   0  0  0  0  0  0  0  0  0  0  0  0
  1  2  1  0  0  0  0
  1 30  1  0  0  0  0
  1 31  1  0  0  0  0
  1 32  1  0  0  0  0
  2  3  1  0  0  0  0
  2 33  1  0  0  0  0
  2 34  1  0  0  0  0
  3 29  1  0  0  0  0
  3  4  1  0  0  0  0
  3 35  1  0  0  0  0
  4  5  1  0  0  0  0
  4 36  1  0  0  0  0
  4 37  1  0  0  0  0
  5  6  1  0  0  0  0
  5 23  1  0  0  0  0
  6 11  1  0  0  0  0
  6  7  2  0  0  0  0
  7  8  1  0  0  0  0
  8  9  2  0  0  0  0
  8 38  1  0  0  0  0
  9 10  1  0  0  0  0
 10 14  1  0  0  0  0
 10 11  2  0  0  0  0
 11 12  1  0  0  0  0
 12 13  2  0  0  0  0
 13 14  1  0  0  0  0
 13 39  1  0  0  0  0
 14 15  1  0  0  0  0
 15 16  1  0  0  0  0
 15 40  1  0  0  0  0
 15 41  1  0  0  0  0
 16 17  1  0  0  0  0
 16 18  1  0  0  0  0
 16 42  1  0  0  0  0
 17 43  1  0  0  0  0
 18 22  1  0  0  0  0
 18 19  1  0  0  0  0
 18 44  1  0  0  0  0
 19 20  1  0  0  0  0
 19 45  1  0  0  0  0
 19 46  1  0  0  0  0
 20 21  1  0  0  0  0
 20 47  1  0  0  0  0
 20 48  1  0  0  0  0
 21 22  1  0  0  0  0
 21 49  1  0  0  0  0
 21 50  1  0  0  0  0
 23 24  1  0  0  0  0
 23 51  1  0  0  0  0
 23 52  1  0  0  0  0
 24 28  1  0  0  0  0
 24 25  1  0  0  0  0
 24 29  1  0  0  0  0
 25 26  1  0  0  0  0
 25 53  1  0  0  0  0
 25 54  1  0  0  0  0
 26 27  1  0  0  0  0
 26 55  1  0  0  0  0
 26 56  1  0  0  0  0
 27 28  1  0  0  0  0
 28 57  1  0  0  0  0
 28 58  1  0  0  0  0
M  END
> <s_m_source_file>
AV-unprocessed.smi

> <i_m_source_file_index>
229

> <i_lp_mmshare_version>
43012

> <i_f3d_flags>
0

> <s_epik_input>
W0NIMl0xT1tDSDJdW0NIMl1bQ0BdMTJbQ0gyXU4oW0NIMl1bQ0BIXShPMilbQ0gyXVtDSDNdKWMobltjSF1uMyljKGMzNCluW2NIXW40W0NIMl1bQ0BIXShbT0hdKVtDQEBIXTVbQ0gyXVtDSDJdW0NIMl1PNQ==

> <s_epik_cmdline>
J2VwaWtfcHl0aG9uJywgJy1waCcsICc3LjAnLCAnLXRuJywgJzgnLCAnLW1hJywgJzIwMCcsICctbWV0YWxfYmluZGluZycsICctaW1hZScsICc8aW5maWxlLm1hZT4nLCAnLW9tYWUnLCAnPG91dGZpbGUubWFlPic=

> <r_lp_tautomer_probability>
1

> <r_epik_Ionization_Penalty>
0.00318402

> <r_epik_Ionization_Penalty_Charging>
0

> <r_epik_Ionization_Penalty_Neutral>
0.00318402

> <r_epik_State_Penalty>
0.00215642

> <r_epik_Charging_Adjusted_Penalty>
0.00215642

> <i_epik_Tot_Q>
0

> <i_epik_Tot_abs_Q>
0

> <r_epik_Metal_State_Penalty>
-0

> <b_epik_Metal_Only>
0

> <s_lp_Force_Field>
OPLS_2005

> <r_lp_Energy>
54.3536

> <b_lp_Chiralities_Consistent>
1

> <s_lp_Variant>
AV-unprocessed.smi:229-6

> <Gold.Version>
5.8.1

> <Gold.Id.Protein>
6NUR|6NUR_protein|mol2

> <Gold.PLP.Fitness>
50.0040

> <Gold.PLP.PLP>
-42.5473

> <Gold.PLP.part.hbond>
-3.7544

> <Gold.PLP.part.metal>
0.0000

> <Gold.PLP.part.buried>
-7.6459

> <Gold.PLP.part.nonpolar>
-31.5096

> <Gold.PLP.part.repulsive>
0.2787

> <Gold.PLP.ligand.clash>
0.0000

> <Gold.PLP.ligand.torsion>
2.1033

> <Gold.PLP.Chemscore.Hbond>
2.7360

> <Gold.PLP.Chemscore.CHOScore>
1.0000

> <Gold.PLP.Chemscore.Metal>
0.0000

> <Gold.Chemscore.Hbonds>
donor molecule, donor type, donor heavy atom, donor atom, acceptor molecule, acceptor atom, score
      L1  H    17    43       P1  8028  0.57
      P1  H  7989  7998       L1     9  0.65
      L1  C     8    38       P1  7957  1.00

> <Gold.PLP.Chemscore.Internal.Correction>
0.4553

> <Gold.Rescore>
     Score         DG    S(hbond)    S(metal)    S(lipo)     H(rot)  DE(clash)    DE(int)     intcor
     14.58     -16.49       1.66        0.00     100.47       2.46       0.22       1.69       ----

> <Gold.Chemscore.Fitness>
14.5834

> <Gold.Chemscore.DG>
-16.4916

> <Gold.Chemscore.ZeroCoef>
-5.4800

> <Gold.Chemscore.Hbond>
1.6622

> <Gold.Chemscore.Metal>
0.0000

> <Gold.Chemscore.Lipo>
100.4706

> <Gold.Chemscore.Internal_Hbond>
0.0000

> <Gold.Chemscore.DEClash>
0.2190

> <Gold.Chemscore.DEInternal>
1.6893

> <Gold.Chemscore.Rot>
2.4591

> <Gold.Chemscore.Internal.Correction>
   9.000000E+99

> <Gold.Chemscore.Hbonds>
donor molecule, donor type, donor heavy atom, donor atom, acceptor molecule, acceptor atom, score
      L1  H    17    43       P1  8028  0.34
      P1  H  7989  7998       L1     9  0.05

> <Gold.Chemscore.Hbond.Weighted>
-5.5519

> <Gold.Chemscore.Metal.Weighted>
-0.0000

> <Gold.Chemscore.Lipo.Weighted>
-11.7551

> <Gold.Chemscore.Internal_Hbond.Weighted>
0.0000

> <Gold.Chemscore.DEClash.Weighted>
0.2190

> <Gold.Chemscore.DEInternal.Weighted>
1.6893

> <Gold.Chemscore.Rot.Weighted>
6.2953

> <Gold.Chemscore.Internal.Correction.Weighted>
   9.000000E+99

> <Gold.Protein.RotatedTorsions>
[ 6907 6896 6895 6894 ] final  104.84 input  -60.11 | X-H torsion
[ 7974 7965 7964 7962 ] final   -4.64 input  175.53 | X-H torsion
[ 8008 7997 7996 7995 ] final  167.16 input   59.86 | X-H torsion
[ 10167 10162 10161 10158 ] final  -87.28 input  -65.29 | X-H torsion
[ 10718 10713 10712 10709 ] final  -61.70 input   66.30 | X-H torsion
[ 10763 10752 10751 10750 ] final -159.90 input  -60.55 | X-H torsion
[ 11005 11000 10999 10996 ] final  -51.06 input  -57.11 | X-H torsion

> <Gold.Protein.ActiveResidues>
 VAL166  LYS551  ARG553  GLY616  TRP617  ASP618  TYR619  PRO620  LYS621  CYS622 
 ASP623  PHE694  ASN695  SER759  ASP760  ASP761  ALA762  ILE779  LEU786  VAL792 
 PHE793  MET794  SER795  GLU796  ALA797  LYS798  CYS799  TRP800  GLU811  SER814 

> <Gold.Protein.RotatedAtoms>
  152.5251  133.9617  159.7720 H   0  0  0  0  0  0  0  0  0  0  0  0  # atno 6907 bound_to 6896
  150.9906  133.6145  159.2716 H   0  0  0  0  0  0  0  0  0  0  0  0  # atno 6908 bound_to 6896
  151.3289  135.0843  159.9385 H   0  0  0  0  0  0  0  0  0  0  0  0  # atno 6909 bound_to 6896
  146.2368  140.1901  142.8332 H   0  0  0  0  0  0  0  0  0  0  0  0  # atno 7974 bound_to 7965
  156.1657  140.1624  156.8535 H   0  0  0  0  0  0  0  0  0  0  0  0  # atno 8008 bound_to 7997
  154.5205  140.0779  156.8198 H   0  0  0  0  0  0  0  0  0  0  0  0  # atno 8009 bound_to 7997
  155.3616  140.3395  155.4243 H   0  0  0  0  0  0  0  0  0  0  0  0  # atno 8010 bound_to 7997
  140.3860  143.2726  151.9324 H   0  0  0  0  0  0  0  0  0  0  0  0  # atno 10167 bound_to 10162
  156.0904  130.4201  150.1031 H   0  0  0  0  0  0  0  0  0  0  0  0  # atno 10718 bound_to 10713
  154.7436  135.3074  154.8684 H   0  0  0  0  0  0  0  0  0  0  0  0  # atno 10763 bound_to 10752
  153.9492  135.6766  153.4748 H   0  0  0  0  0  0  0  0  0  0  0  0  # atno 10764 bound_to 10752
  153.1033  135.4901  154.8832 H   0  0  0  0  0  0  0  0  0  0  0  0  # atno 10765 bound_to 10752
  141.0850  133.6644  156.3822 H   0  0  0  0  0  0  0  0  0  0  0  0  # atno 11005 bound_to 11000
  144.9865  140.8507  143.5365 LP  0  0  0  0  0  0  0  0  0  0  0  0  # atno 17320 bound_to 7965
  145.1901  139.2305  143.5247 LP  0  0  0  0  0  0  0  0  0  0  0  0  # atno 17321 bound_to 7965
  139.4792  144.5773  151.7990 LP  0  0  0  0  0  0  0  0  0  0  0  0  # atno 17342 bound_to 10162
  140.4889  144.1340  150.5946 LP  0  0  0  0  0  0  0  0  0  0  0  0  # atno 17343 bound_to 10162
  156.9042  130.9630  151.3572 LP  0  0  0  0  0  0  0  0  0  0  0  0  # atno 17370 bound_to 10713
  157.6051  130.8541  149.8863 LP  0  0  0  0  0  0  0  0  0  0  0  0  # atno 17371 bound_to 10713
  140.5382  134.6146  157.5371 LP  0  0  0  0  0  0  0  0  0  0  0  0  # atno 17394 bound_to 11000
  139.9668  134.7360  156.0122 LP  0  0  0  0  0  0  0  0  0  0  0  0  # atno 17395 bound_to 11000

$$$$
