AV-unprocessed.smi:1962|AV-procd|sdf|7925|dock5
  -GOLD-   2272010 93D 1   1.00000     0.00000
 Structure written by MMmdl.
 35 36  0  0  0  0  0  0  0  0  2 V2000
  151.3185  140.5924  158.8767 C   0  0  0  0  0  0  0  0  0  0  0  0
  151.1880  142.0524  158.4212 C   0  0  1  0  0  0  0  0  0  0  0  0
  152.2972  142.9372  159.0497 C   0  0  0  0  0  0  0  0  0  0  0  0
  152.6343  142.5978  160.4306 N   0  0  0  0  0  0  0  0  0  0  0  0
  153.4297  141.5698  160.9021 C   0  0  0  0  0  0  0  0  0  0  0  0
  153.4593  141.6643  162.2638 C   0  0  0  0  0  0  0  0  0  0  0  0
  152.6536  142.8034  162.5402 C   0  0  0  0  0  0  0  0  0  0  0  0
  152.1734  143.3672  161.4446 N   0  0  0  0  0  0  0  0  0  0  0  0
  151.2715  142.0961  156.9566 N   0  5  0  0  0  0  0  0  0  0  0  0
  151.3860  141.0072  156.1360 C   0  0  0  0  0  0  0  0  0  0  0  0
  152.3116  140.1863  156.1399 O   0  0  0  0  0  0  0  0  0  0  0  0
  150.3126  140.7500  155.1304 C   0  0  0  0  0  0  0  0  0  0  0  0
  149.3683  141.6229  154.9631 N   0  0  0  0  0  0  0  0  0  0  0  0
  148.3582  141.4496  154.0399 N   0  0  0  0  0  0  0  0  0  0  0  0
  147.5410  142.6368  153.7984 C   0  0  0  0  0  0  0  0  0  0  0  0
  148.0893  140.2845  153.4008 C   0  0  0  0  0  0  0  0  0  0  0  0
  147.1990  140.1539  152.5604 O   0  0  0  0  0  0  0  0  0  0  0  0
  148.9424  139.0771  153.7971 C   0  0  0  0  0  0  0  0  0  0  0  0
  150.3453  139.4882  154.2852 C   0  0  0  0  0  0  0  0  0  0  0  0
  151.2422  140.5137  159.9612 H   0  0  0  0  0  0  0  0  0  0  0  0
  152.2772  140.1651  158.5801 H   0  0  0  0  0  0  0  0  0  0  0  0
  150.5295  139.9735  158.4477 H   0  0  0  0  0  0  0  0  0  0  0  0
  150.2242  142.4123  158.7851 H   0  0  0  0  0  0  0  0  0  0  0  0
  153.2112  142.8458  158.4620 H   0  0  0  0  0  0  0  0  0  0  0  0
  152.0121  143.9898  159.0029 H   0  0  0  0  0  0  0  0  0  0  0  0
  153.8956  140.8600  160.2345 H   0  0  0  0  0  0  0  0  0  0  0  0
  153.9779  141.0182  162.9561 H   0  0  0  0  0  0  0  0  0  0  0  0
  152.4094  143.2385  163.4978 H   0  0  0  0  0  0  0  0  0  0  0  0
  147.6378  142.9628  152.7622 H   0  0  0  0  0  0  0  0  0  0  0  0
  147.8346  143.4716  154.4369 H   0  0  0  0  0  0  0  0  0  0  0  0
  146.4885  142.4284  153.9954 H   0  0  0  0  0  0  0  0  0  0  0  0
  148.4164  138.5532  154.5961 H   0  0  0  0  0  0  0  0  0  0  0  0
  149.0205  138.3802  152.9619 H   0  0  0  0  0  0  0  0  0  0  0  0
  151.0061  139.6453  153.4321 H   0  0  0  0  0  0  0  0  0  0  0  0
  150.7628  138.6534  154.8488 H   0  0  0  0  0  0  0  0  0  0  0  0
  1  2  1  0  0  0  0
  1 20  1  0  0  0  0
  1 21  1  0  0  0  0
  1 22  1  0  0  0  0
  2  3  1  0  0  0  0
  2  9  1  0  0  0  0
  2 23  1  0  0  0  0
  3  4  1  0  0  0  0
  3 24  1  0  0  0  0
  3 25  1  0  0  0  0
  4  8  1  0  0  0  0
  4  5  1  0  0  0  0
  5  6  2  0  0  0  0
  5 26  1  0  0  0  0
  6  7  1  0  0  0  0
  6 27  1  0  0  0  0
  7  8  2  0  0  0  0
  7 28  1  0  0  0  0
  9 10  1  0  0  0  0
 10 11  2  0  0  0  0
 10 12  1  0  0  0  0
 12 19  1  0  0  0  0
 12 13  2  0  0  0  0
 13 14  1  0  0  0  0
 14 15  1  0  0  0  0
 14 16  1  0  0  0  0
 15 29  1  0  0  0  0
 15 30  1  0  0  0  0
 15 31  1  0  0  0  0
 16 17  2  0  0  0  0
 16 18  1  0  0  0  0
 18 19  1  0  0  0  0
 18 32  1  0  0  0  0
 18 33  1  0  0  0  0
 19 34  1  0  0  0  0
 19 35  1  0  0  0  0
M  CHG  1   9  -1
M  END
> <s_m_source_file>
AV-unprocessed.smi

> <i_m_source_file_index>
1962

> <i_lp_mmshare_version>
43012

> <i_f3d_flags>
0

> <s_epik_input>
bjFbY0hdW2NIXVtjSF1uMVtDSDJdW0NAQEhdKFtDSDNdKVtOSF1DKD1PKUMyPU5OKFtDSDNdKUMoPU8pW0NIMl1bQ0gyXTI=

> <s_epik_cmdline>
J2VwaWtfcHl0aG9uJywgJy1waCcsICc3LjAnLCAnLXRuJywgJzgnLCAnLW1hJywgJzIwMCcsICctbWV0YWxfYmluZGluZycsICctaW1hZScsICc8aW5maWxlLm1hZT4nLCAnLW9tYWUnLCAnPG91dGZpbGUubWFlPic=

> <r_lp_tautomer_probability>
1

> <r_epik_Ionization_Penalty>
5.21086

> <r_epik_Ionization_Penalty_Charging>
5.21084

> <r_epik_Ionization_Penalty_Neutral>
2.41961e-05

> <r_epik_State_Penalty>
5.21075

> <r_epik_Charging_Adjusted_Penalty>
10.4216

> <i_epik_Tot_Q>
-1

> <i_epik_Tot_abs_Q>
1

> <r_epik_Metal_State_Penalty>
1.27477

> <b_epik_Metal_Only>
1

> <s_epik_Chemistry_Notes>
This compound has an imine and may undergo hydrolysis.

> <s_lp_Force_Field>
OPLS_2005

> <r_lp_Energy>
25.3594

> <b_lp_Chiralities_Consistent>
1

> <s_lp_Variant>
AV-unprocessed.smi:1962-4

> <Gold.Version>
5.8.1

> <Gold.Id.Protein>
6NUR|6NUR_protein|mol2

> <Gold.PLP.Fitness>
43.7578

> <Gold.PLP.PLP>
-42.8632

> <Gold.PLP.part.hbond>
-1.0000

> <Gold.PLP.part.metal>
0.0000

> <Gold.PLP.part.buried>
-2.9128

> <Gold.PLP.part.nonpolar>
-38.3160

> <Gold.PLP.part.repulsive>
0.5636

> <Gold.PLP.ligand.clash>
0.0000

> <Gold.PLP.ligand.torsion>
1.0677

> <Gold.PLP.Chemscore.Hbond>
1.0000

> <Gold.PLP.Chemscore.CHOScore>
0.0000

> <Gold.PLP.Chemscore.Metal>
0.0000

> <Gold.Chemscore.Hbonds>
donor molecule, donor type, donor heavy atom, donor atom, acceptor molecule, acceptor atom, score
      P1  H  7997  8009       L1    11  1.00

> <Gold.PLP.Chemscore.Internal.Correction>
0.0300

> <Gold.Rescore>
     Score         DG    S(hbond)    S(metal)    S(lipo)     H(rot)  DE(clash)    DE(int)     intcor
     12.92     -14.79       0.89        0.00      86.92       1.50       0.20       1.67       ----

> <Gold.Chemscore.Fitness>
12.9189

> <Gold.Chemscore.DG>
-14.7911

> <Gold.Chemscore.ZeroCoef>
-5.4800

> <Gold.Chemscore.Hbond>
0.8898

> <Gold.Chemscore.Metal>
0.0000

> <Gold.Chemscore.Lipo>
86.9228

> <Gold.Chemscore.Internal_Hbond>
0.0000

> <Gold.Chemscore.DEClash>
0.1991

> <Gold.Chemscore.DEInternal>
1.6732

> <Gold.Chemscore.Rot>
1.4964

> <Gold.Chemscore.Internal.Correction>
   9.000000E+99

> <Gold.Chemscore.Hbonds>
donor molecule, donor type, donor heavy atom, donor atom, acceptor molecule, acceptor atom, score
      P1  H  7997  8009       L1    11  0.92

> <Gold.Chemscore.Hbond.Weighted>
-2.9720

> <Gold.Chemscore.Metal.Weighted>
-0.0000

> <Gold.Chemscore.Lipo.Weighted>
-10.1700

> <Gold.Chemscore.Internal_Hbond.Weighted>
0.0000

> <Gold.Chemscore.DEClash.Weighted>
0.1991

> <Gold.Chemscore.DEInternal.Weighted>
1.6732

> <Gold.Chemscore.Rot.Weighted>
3.8309

> <Gold.Chemscore.Internal.Correction.Weighted>
   9.000000E+99

> <Gold.Protein.RotatedTorsions>
[ 6907 6896 6895 6894 ] final  -94.75 input  -60.11 | X-H torsion
[ 7974 7965 7964 7962 ] final   99.02 input  175.53 | X-H torsion
[ 8008 7997 7996 7995 ] final -161.37 input   59.86 | X-H torsion
[ 10167 10162 10161 10158 ] final  107.12 input  -65.29 | X-H torsion
[ 10718 10713 10712 10709 ] final  -20.72 input   66.30 | X-H torsion
[ 10763 10752 10751 10750 ] final   -8.73 input  -60.55 | X-H torsion
[ 11005 11000 10999 10996 ] final  -69.01 input  -57.11 | X-H torsion

> <Gold.Protein.ActiveResidues>
 VAL166  LYS551  ARG553  GLY616  TRP617  ASP618  TYR619  PRO620  LYS621  CYS622 
 ASP623  PHE694  ASN695  SER759  ASP760  ASP761  ALA762  ILE779  LEU786  VAL792 
 PHE793  MET794  SER795  GLU796  ALA797  LYS798  CYS799  TRP800  GLU811  SER814 

> <Gold.Protein.RotatedAtoms>
  150.6948  134.1764  159.4231 H   0  0  0  0  0  0  0  0  0  0  0  0  # atno 6907 bound_to 6896
  151.9740  135.0060  160.0563 H   0  0  0  0  0  0  0  0  0  0  0  0  # atno 6908 bound_to 6896
  152.1816  133.4676  159.4998 H   0  0  0  0  0  0  0  0  0  0  0  0  # atno 6909 bound_to 6896
  145.4044  139.2343  143.3282 H   0  0  0  0  0  0  0  0  0  0  0  0  # atno 7974 bound_to 7965
  155.7912  140.0878  157.2008 H   0  0  0  0  0  0  0  0  0  0  0  0  # atno 8008 bound_to 7997
  154.3985  140.1489  156.3223 H   0  0  0  0  0  0  0  0  0  0  0  0  # atno 8009 bound_to 7997
  155.8557  140.3432  155.5725 H   0  0  0  0  0  0  0  0  0  0  0  0  # atno 8010 bound_to 7997
  139.6953  144.7102  151.1277 H   0  0  0  0  0  0  0  0  0  0  0  0  # atno 10167 bound_to 10162
  156.5279  130.4648  149.6562 H   0  0  0  0  0  0  0  0  0  0  0  0  # atno 10718 bound_to 10713
  153.4447  135.7014  153.6146 H   0  0  0  0  0  0  0  0  0  0  0  0  # atno 10763 bound_to 10752
  153.4506  135.3759  155.2282 H   0  0  0  0  0  0  0  0  0  0  0  0  # atno 10764 bound_to 10752
  154.8728  135.3996  154.3851 H   0  0  0  0  0  0  0  0  0  0  0  0  # atno 10765 bound_to 10752
  141.1545  133.6754  156.6534 H   0  0  0  0  0  0  0  0  0  0  0  0  # atno 11005 bound_to 11000
  146.2736  140.4746  142.8804 LP  0  0  0  0  0  0  0  0  0  0  0  0  # atno 17320 bound_to 7965
  144.8352  140.6770  143.6265 LP  0  0  0  0  0  0  0  0  0  0  0  0  # atno 17321 bound_to 7965
  140.7694  143.5500  150.9215 LP  0  0  0  0  0  0  0  0  0  0  0  0  # atno 17342 bound_to 10162
  139.9179  143.6641  152.3102 LP  0  0  0  0  0  0  0  0  0  0  0  0  # atno 17343 bound_to 10162
  156.3087  130.7217  151.2105 LP  0  0  0  0  0  0  0  0  0  0  0  0  # atno 17370 bound_to 10713
  157.7426  131.0487  150.5008 LP  0  0  0  0  0  0  0  0  0  0  0  0  # atno 17371 bound_to 10713
  140.3303  134.7934  157.4321 LP  0  0  0  0  0  0  0  0  0  0  0  0  # atno 17394 bound_to 11000
  140.1022  134.5457  155.8342 LP  0  0  0  0  0  0  0  0  0  0  0  0  # atno 17395 bound_to 11000

$$$$
