AV-unprocessed.smi:1005|AV-procd|sdf|4389|dock7
  -GOLD-   22720 2313D 1   1.00000     0.00000
 Structure written by MMmdl.
 55 57  0  0  0  0  0  0  0  0  1 V2000
  151.2081  145.0416  160.3016 C   0  0  0  0  0  0  0  0  0  0  0  0
  151.5472  143.6451  159.8114 C   0  0  0  0  0  0  0  0  0  0  0  0
  151.1795  143.2683  158.4994 C   0  0  0  0  0  0  0  0  0  0  0  0
  151.4708  141.9766  158.0082 C   0  0  0  0  0  0  0  0  0  0  0  0
  151.2071  141.3994  156.7773 N   0  0  0  0  0  0  0  0  0  0  0  0
  151.7132  140.1795  156.9384 C   0  0  0  0  0  0  0  0  0  0  0  0
  152.2742  139.8993  158.1299 N   0  0  0  0  0  0  0  0  0  0  0  0
  152.8761  138.6499  158.5542 C   0  0  0  0  0  0  0  0  0  0  0  0
  151.9623  137.4441  158.2565 C   0  0  1  0  0  0  0  0  0  0  0  0
  152.6816  136.2498  158.4877 O   0  0  0  0  0  0  0  0  0  0  0  0
  150.6900  137.4178  159.1269 C   0  0  0  0  0  0  0  0  0  0  0  0
  149.8793  136.2046  159.0145 N   0  0  0  0  0  0  0  0  0  0  0  0
  149.5149  135.9401  157.6279 C   0  0  0  0  0  0  0  0  0  0  0  0
  148.6721  134.6611  157.4921 C   0  0  0  0  0  0  0  0  0  0  0  0
  147.5225  134.7587  158.3268 O   0  0  0  0  0  0  0  0  0  0  0  0
  147.8452  134.9506  159.7028 C   0  0  2  0  0  0  0  0  0  0  0  0
  146.5525  135.0120  160.5390 C   0  0  0  0  0  0  0  0  0  0  0  0
  146.6522  135.7376  161.8066 N   0  0  0  0  0  0  0  0  0  0  0  0
  147.5602  135.0980  162.7510 C   0  0  0  0  0  0  0  0  0  0  0  0
  145.3365  135.9048  162.4077 C   0  0  0  0  0  0  0  0  0  0  0  0
  148.6634  136.2506  159.8234 C   0  0  0  0  0  0  0  0  0  0  0  0
  152.1433  141.0659  158.8736 C   0  0  0  0  0  0  0  0  0  0  0  0
  152.5202  141.4304  160.1779 C   0  0  0  0  0  0  0  0  0  0  0  0
  152.2228  142.7244  160.6526 C   0  0  0  0  0  0  0  0  0  0  0  0
  152.6339  143.1062  162.0636 C   0  0  0  0  0  0  0  0  0  0  0  0
  150.6809  145.6150  159.5387 H   0  0  0  0  0  0  0  0  0  0  0  0
  152.1162  145.5856  160.5621 H   0  0  0  0  0  0  0  0  0  0  0  0
  150.5686  144.9921  161.1831 H   0  0  0  0  0  0  0  0  0  0  0  0
  150.6666  143.9697  157.8578 H   0  0  0  0  0  0  0  0  0  0  0  0
  151.6677  139.4449  156.1478 H   0  0  0  0  0  0  0  0  0  0  0  0
  153.8470  138.5350  158.0700 H   0  0  0  0  0  0  0  0  0  0  0  0
  153.0703  138.7277  159.6244 H   0  0  0  0  0  0  0  0  0  0  0  0
  151.6886  137.4401  157.2016 H   0  0  0  0  0  0  0  0  0  0  0  0
  153.5901  136.4015  158.2768 H   0  0  0  0  0  0  0  0  0  0  0  0
  150.9674  137.5687  160.1714 H   0  0  0  0  0  0  0  0  0  0  0  0
  150.0763  138.2774  158.8534 H   0  0  0  0  0  0  0  0  0  0  0  0
  148.9534  136.7850  157.2260 H   0  0  0  0  0  0  0  0  0  0  0  0
  150.4145  135.8452  157.0189 H   0  0  0  0  0  0  0  0  0  0  0  0
  148.3525  134.5245  156.4589 H   0  0  0  0  0  0  0  0  0  0  0  0
  149.2561  133.7814  157.7669 H   0  0  0  0  0  0  0  0  0  0  0  0
  148.4548  134.1157  160.0540 H   0  0  0  0  0  0  0  0  0  0  0  0
  145.7987  135.5121  159.9289 H   0  0  0  0  0  0  0  0  0  0  0  0
  146.1724  134.0034  160.7087 H   0  0  0  0  0  0  0  0  0  0  0  0
  147.5678  135.6316  163.7021 H   0  0  0  0  0  0  0  0  0  0  0  0
  148.5836  135.1006  162.3778 H   0  0  0  0  0  0  0  0  0  0  0  0
  147.2658  134.0657  162.9450 H   0  0  0  0  0  0  0  0  0  0  0  0
  145.4017  136.4891  163.3262 H   0  0  0  0  0  0  0  0  0  0  0  0
  144.8881  134.9401  162.6494 H   0  0  0  0  0  0  0  0  0  0  0  0
  144.6644  136.4328  161.7304 H   0  0  0  0  0  0  0  0  0  0  0  0
  148.9141  136.3983  160.8725 H   0  0  0  0  0  0  0  0  0  0  0  0
  148.0495  137.1020  159.5248 H   0  0  0  0  0  0  0  0  0  0  0  0
  153.0332  140.7186  160.8074 H   0  0  0  0  0  0  0  0  0  0  0  0
  153.1419  142.2828  162.5667 H   0  0  0  0  0  0  0  0  0  0  0  0
  151.7596  143.3724  162.6581 H   0  0  0  0  0  0  0  0  0  0  0  0
  153.3145  143.9577  162.0460 H   0  0  0  0  0  0  0  0  0  0  0  0
  1  2  1  0  0  0  0
  1 26  1  0  0  0  0
  1 27  1  0  0  0  0
  1 28  1  0  0  0  0
  2 24  1  0  0  0  0
  2  3  2  0  0  0  0
  3  4  1  0  0  0  0
  3 29  1  0  0  0  0
  4 22  2  0  0  0  0
  4  5  1  0  0  0  0
  5  6  2  0  0  0  0
  6  7  1  0  0  0  0
  6 30  1  0  0  0  0
  7  8  1  0  0  0  0
  7 22  1  0  0  0  0
  8  9  1  0  0  0  0
  8 31  1  0  0  0  0
  8 32  1  0  0  0  0
  9 10  1  0  0  0  0
  9 11  1  0  0  0  0
  9 33  1  0  0  0  0
 10 34  1  0  0  0  0
 11 12  1  0  0  0  0
 11 35  1  0  0  0  0
 11 36  1  0  0  0  0
 12 21  1  0  0  0  0
 12 13  1  0  0  0  0
 13 14  1  0  0  0  0
 13 37  1  0  0  0  0
 13 38  1  0  0  0  0
 14 15  1  0  0  0  0
 14 39  1  0  0  0  0
 14 40  1  0  0  0  0
 15 16  1  0  0  0  0
 16 17  1  0  0  0  0
 16 21  1  0  0  0  0
 16 41  1  0  0  0  0
 17 18  1  0  0  0  0
 17 42  1  0  0  0  0
 17 43  1  0  0  0  0
 18 19  1  0  0  0  0
 18 20  1  0  0  0  0
 19 44  1  0  0  0  0
 19 45  1  0  0  0  0
 19 46  1  0  0  0  0
 20 47  1  0  0  0  0
 20 48  1  0  0  0  0
 20 49  1  0  0  0  0
 21 50  1  0  0  0  0
 21 51  1  0  0  0  0
 22 23  1  0  0  0  0
 23 24  2  0  0  0  0
 23 52  1  0  0  0  0
 24 25  1  0  0  0  0
 25 53  1  0  0  0  0
 25 54  1  0  0  0  0
 25 55  1  0  0  0  0
M  END
> <s_m_source_file>
AV-unprocessed.smi

> <i_m_source_file_index>
1005

> <i_lp_mmshare_version>
43012

> <i_f3d_flags>
0

> <s_epik_input>
W0NIM11jKFtjSF0xKWMoW0NIM10pW2NIXWMoYzEyKW4oW2NIXW4yKVtDSDJdW0NASF0oW09IXSlbQ0gyXU4zW0NIMl1bQ0gyXU9bQ0BIXShbQ0gyXTMpW0NIMl1OKFtDSDNdKVtDSDNd

> <s_epik_cmdline>
J2VwaWtfcHl0aG9uJywgJy1waCcsICc3LjAnLCAnLXRuJywgJzgnLCAnLW1hJywgJzIwMCcsICctbWV0YWxfYmluZGluZycsICctaW1hZScsICc8aW5maWxlLm1hZT4nLCAnLW9tYWUnLCAnPG91dGZpbGUubWFlPic=

> <r_epik_Ionization_Penalty>
2.78613

> <r_epik_Ionization_Penalty_Charging>
0

> <r_epik_Ionization_Penalty_Neutral>
2.78613

> <r_epik_State_Penalty>
2.57336

> <r_epik_Charging_Adjusted_Penalty>
2.57336

> <i_epik_Tot_Q>
0

> <i_epik_Tot_abs_Q>
0

> <r_epik_Metal_State_Penalty>
2.49087

> <b_epik_Metal_Only>
0

> <s_lp_Force_Field>
OPLS_2005

> <r_lp_Energy>
32.9837

> <b_lp_Chiralities_Consistent>
1

> <s_lp_Variant>
AV-unprocessed.smi:1005-28

> <Gold.Version>
5.8.1

> <Gold.Id.Protein>
6NUR|6NUR_protein|mol2

> <Gold.PLP.Fitness>
50.5559

> <Gold.PLP.PLP>
-47.1479

> <Gold.PLP.part.hbond>
-2.0000

> <Gold.PLP.part.metal>
0.0000

> <Gold.PLP.part.buried>
-7.2450

> <Gold.PLP.part.nonpolar>
-38.2733

> <Gold.PLP.part.repulsive>
0.0366

> <Gold.PLP.ligand.clash>
0.0000

> <Gold.PLP.ligand.torsion>
0.4868

> <Gold.PLP.Chemscore.Hbond>
1.4320

> <Gold.PLP.Chemscore.CHOScore>
0.0000

> <Gold.PLP.Chemscore.Metal>
0.0000

> <Gold.Chemscore.Hbonds>
donor molecule, donor type, donor heavy atom, donor atom, acceptor molecule, acceptor atom, score
      P1  H  6896  6907       L1    10  0.34
      P1  H  6896  6909       L1    12  1.00

> <Gold.PLP.Chemscore.Internal.Correction>
0.0856

> <Gold.Rescore>
     Score         DG    S(hbond)    S(metal)    S(lipo)     H(rot)  DE(clash)    DE(int)     intcor
     16.62     -17.08       0.66        0.00     130.41       2.29       0.01       0.45       ----

> <Gold.Chemscore.Fitness>
16.6175

> <Gold.Chemscore.DG>
-17.0785

> <Gold.Chemscore.ZeroCoef>
-5.4800

> <Gold.Chemscore.Hbond>
0.6592

> <Gold.Chemscore.Metal>
0.0000

> <Gold.Chemscore.Lipo>
130.4104

> <Gold.Chemscore.Internal_Hbond>
0.0000

> <Gold.Chemscore.DEClash>
0.0149

> <Gold.Chemscore.DEInternal>
0.4461

> <Gold.Chemscore.Rot>
2.2895

> <Gold.Chemscore.Internal.Correction>
   9.000000E+99

> <Gold.Chemscore.Hbonds>
donor molecule, donor type, donor heavy atom, donor atom, acceptor molecule, acceptor atom, score
      P1  H  6896  6907       L1    10  0.29
      P1  H  6896  6909       L1    12  0.15

> <Gold.Chemscore.Hbond.Weighted>
-2.2016

> <Gold.Chemscore.Metal.Weighted>
-0.0000

> <Gold.Chemscore.Lipo.Weighted>
-15.2580

> <Gold.Chemscore.Internal_Hbond.Weighted>
0.0000

> <Gold.Chemscore.DEClash.Weighted>
0.0149

> <Gold.Chemscore.DEInternal.Weighted>
0.4461

> <Gold.Chemscore.Rot.Weighted>
5.8612

> <Gold.Chemscore.Internal.Correction.Weighted>
   9.000000E+99

> <Gold.Protein.RotatedTorsions>
[ 6907 6896 6895 6894 ] final   52.13 input  -60.11 | X-H torsion
[ 7974 7965 7964 7962 ] final -146.47 input  175.53 | X-H torsion
[ 8008 7997 7996 7995 ] final  -96.32 input   59.86 | X-H torsion
[ 10167 10162 10161 10158 ] final  -16.07 input  -65.29 | X-H torsion
[ 10718 10713 10712 10709 ] final  -27.28 input   66.30 | X-H torsion
[ 10763 10752 10751 10750 ] final -144.45 input  -60.55 | X-H torsion
[ 11005 11000 10999 10996 ] final   46.60 input  -57.11 | X-H torsion

> <Gold.Protein.ActiveResidues>
 VAL166  LYS551  ARG553  GLY616  TRP617  ASP618  TYR619  PRO620  LYS621  CYS622 
 ASP623  PHE694  ASN695  SER759  ASP760  ASP761  ALA762  ILE779  LEU786  VAL792 
 PHE793  MET794  SER795  GLU796  ALA797  LYS798  CYS799  TRP800  GLU811  SER814 

> <Gold.Protein.RotatedAtoms>
  152.3200  134.7392  160.0315 H   0  0  0  0  0  0  0  0  0  0  0  0  # atno 6907 bound_to 6896
  151.7843  133.3347  159.3489 H   0  0  0  0  0  0  0  0  0  0  0  0  # atno 6908 bound_to 6896
  150.7365  134.5832  159.5994 H   0  0  0  0  0  0  0  0  0  0  0  0  # atno 6909 bound_to 6896
  144.8157  140.5452  143.5612 H   0  0  0  0  0  0  0  0  0  0  0  0  # atno 7974 bound_to 7965
  154.7729  140.0472  157.1065 H   0  0  0  0  0  0  0  0  0  0  0  0  # atno 8008 bound_to 7997
  154.9799  140.3100  155.4931 H   0  0  0  0  0  0  0  0  0  0  0  0  # atno 8009 bound_to 7997
  156.2924  140.2238  156.4897 H   0  0  0  0  0  0  0  0  0  0  0  0  # atno 8010 bound_to 7997
  140.7228  143.5153  150.9699 H   0  0  0  0  0  0  0  0  0  0  0  0  # atno 10167 bound_to 10162
  156.4402  130.4463  149.7058 H   0  0  0  0  0  0  0  0  0  0  0  0  # atno 10718 bound_to 10713
  154.8427  135.3440  154.6347 H   0  0  0  0  0  0  0  0  0  0  0  0  # atno 10763 bound_to 10752
  153.6958  135.6972  153.5081 H   0  0  0  0  0  0  0  0  0  0  0  0  # atno 10764 bound_to 10752
  153.2561  135.4338  155.0801 H   0  0  0  0  0  0  0  0  0  0  0  0  # atno 10765 bound_to 10752
  140.1354  134.4651  155.8489 H   0  0  0  0  0  0  0  0  0  0  0  0  # atno 11005 bound_to 11000
  145.5219  139.1476  143.3547 LP  0  0  0  0  0  0  0  0  0  0  0  0  # atno 17320 bound_to 7965
  146.2460  140.5360  142.8913 LP  0  0  0  0  0  0  0  0  0  0  0  0  # atno 17321 bound_to 7965
  139.8868  143.7003  152.3150 LP  0  0  0  0  0  0  0  0  0  0  0  0  # atno 17342 bound_to 10162
  139.7304  144.7583  151.0811 LP  0  0  0  0  0  0  0  0  0  0  0  0  # atno 17343 bound_to 10162
  156.3925  130.7634  151.2636 LP  0  0  0  0  0  0  0  0  0  0  0  0  # atno 17370 bound_to 10713
  157.7506  131.0263  150.3958 LP  0  0  0  0  0  0  0  0  0  0  0  0  # atno 17371 bound_to 10713
  141.2177  133.6812  156.7148 LP  0  0  0  0  0  0  0  0  0  0  0  0  # atno 17394 bound_to 11000
  140.2788  134.8333  157.3915 LP  0  0  0  0  0  0  0  0  0  0  0  0  # atno 17395 bound_to 11000

$$$$
