AV-unprocessed.smi:80|AV-procd|sdf|785|dock4
  -GOLD-   2262017153D 1   1.00000     0.00000
 Structure written by MMmdl.
 51 54  0  0  0  0  0  0  0  0  1 V2000
  147.5046  134.7278  163.3875 N   0  0  0  0  0  0  0  0  0  0  0  0
  146.7630  135.0850  162.5740 C   0  0  0  0  0  0  0  0  0  0  0  0
  145.8201  135.5430  161.5400 C   0  0  0  0  0  0  0  0  0  0  0  0
  146.2970  136.7894  160.7828 C   0  0  0  0  0  0  0  0  0  0  0  0
  147.3129  137.3690  161.1687 O   0  0  0  0  0  0  0  0  0  0  0  0
  145.5805  137.2134  159.7155 N   0  0  0  0  0  0  0  0  0  0  0  0
  145.9356  138.3478  158.8539 C   0  0  0  0  0  0  0  0  0  0  0  0
  146.3269  137.8087  157.4661 C   0  0  0  0  0  0  0  0  0  0  0  0
  145.2581  136.9730  156.9215 N   0  0  0  0  0  0  0  0  0  0  0  0
  145.4854  136.5621  155.6572 C   0  0  0  0  0  0  0  0  0  0  0  0
  146.7253  136.7709  155.1520 N   0  0  0  0  0  0  0  0  0  0  0  0
  147.0106  136.3827  153.9052 C   0  0  0  0  0  0  0  0  0  0  0  0
  146.2181  135.7790  153.0164 N   0  0  0  0  0  0  0  0  0  0  0  0
  144.9698  135.5660  153.5249 C   0  0  0  0  0  0  0  0  0  0  0  0
  144.5204  135.9271  154.8261 C   0  0  0  0  0  0  0  0  0  0  0  0
  143.1896  135.5631  154.9873 N   0  0  0  0  0  0  0  0  0  0  0  0
  142.8685  135.0221  153.8438 C   0  0  0  0  0  0  0  0  0  0  0  0
  143.8821  134.9671  152.9118 N   0  0  0  0  0  0  0  0  0  0  0  0
  143.8042  134.4484  151.5749 C   0  0  0  0  0  0  0  0  0  0  0  0
  143.4311  132.9852  151.3327 C   0  0  0  0  0  0  0  0  0  0  0  0
  144.4119  132.9201  150.1396 C   0  0  0  0  0  0  0  0  0  0  0  0
  145.3136  131.6763  150.1310 C   0  0  0  0  0  0  0  0  0  0  0  0
  146.4278  131.8509  149.2795 O   0  0  0  0  0  0  0  0  0  0  0  0
  143.7857  133.0371  148.7321 C   0  0  0  0  0  0  0  0  0  0  0  0
  143.4629  134.3653  148.3733 O   0  0  0  0  0  0  0  0  0  0  0  0
  145.0567  134.1951  150.7298 C   0  0  0  0  0  0  0  0  0  0  0  0
  144.7674  135.9165  157.8059 C   0  0  0  0  0  0  0  0  0  0  0  0
  144.4155  136.4888  159.1923 C   0  0  0  0  0  0  0  0  0  0  0  0
  145.6737  134.7169  160.8436 H   0  0  0  0  0  0  0  0  0  0  0  0
  144.8709  135.7471  162.0361 H   0  0  0  0  0  0  0  0  0  0  0  0
  145.0732  139.0099  158.7654 H   0  0  0  0  0  0  0  0  0  0  0  0
  146.7394  138.9657  159.2503 H   0  0  0  0  0  0  0  0  0  0  0  0
  146.5252  138.6388  156.7870 H   0  0  0  0  0  0  0  0  0  0  0  0
  147.2477  137.2293  157.5429 H   0  0  0  0  0  0  0  0  0  0  0  0
  148.0184  136.5829  153.5723 H   0  0  0  0  0  0  0  0  0  0  0  0
  141.8734  134.6487  153.6517 H   0  0  0  0  0  0  0  0  0  0  0  0
  143.1262  135.1058  151.0292 H   0  0  0  0  0  0  0  0  0  0  0  0
  143.7250  132.3419  152.1637 H   0  0  0  0  0  0  0  0  0  0  0  0
  142.3829  132.8284  151.0759 H   0  0  0  0  0  0  0  0  0  0  0  0
  145.6919  131.4635  151.1314 H   0  0  0  0  0  0  0  0  0  0  0  0
  144.7619  130.7902  149.8153 H   0  0  0  0  0  0  0  0  0  0  0  0
  147.1740  131.4218  149.6696 H   0  0  0  0  0  0  0  0  0  0  0  0
  144.4635  132.6515  147.9701 H   0  0  0  0  0  0  0  0  0  0  0  0
  142.8725  132.4449  148.6651 H   0  0  0  0  0  0  0  0  0  0  0  0
  144.2357  134.7775  148.0185 H   0  0  0  0  0  0  0  0  0  0  0  0
  145.2675  134.9767  149.9991 H   0  0  0  0  0  0  0  0  0  0  0  0
  145.9432  133.9775  151.3262 H   0  0  0  0  0  0  0  0  0  0  0  0
  143.8879  135.4469  157.3638 H   0  0  0  0  0  0  0  0  0  0  0  0
  145.5261  135.1400  157.9106 H   0  0  0  0  0  0  0  0  0  0  0  0
  144.0827  135.6854  159.8507 H   0  0  0  0  0  0  0  0  0  0  0  0
  143.5732  137.1773  159.1104 H   0  0  0  0  0  0  0  0  0  0  0  0
  1  2  3  0  0  0  0
  2  3  1  0  0  0  0
  3  4  1  0  0  0  0
  3 29  1  0  0  0  0
  3 30  1  0  0  0  0
  4  5  2  0  0  0  0
  4  6  1  0  0  0  0
  6 28  1  0  0  0  0
  6  7  1  0  0  0  0
  7  8  1  0  0  0  0
  7 31  1  0  0  0  0
  7 32  1  0  0  0  0
  8  9  1  0  0  0  0
  8 33  1  0  0  0  0
  8 34  1  0  0  0  0
  9 10  1  0  0  0  0
  9 27  1  0  0  0  0
 10 15  1  0  0  0  0
 10 11  2  0  0  0  0
 11 12  1  0  0  0  0
 12 13  2  0  0  0  0
 12 35  1  0  0  0  0
 13 14  1  0  0  0  0
 14 18  1  0  0  0  0
 14 15  2  0  0  0  0
 15 16  1  0  0  0  0
 16 17  2  0  0  0  0
 17 18  1  0  0  0  0
 17 36  1  0  0  0  0
 18 19  1  0  0  0  0
 19 26  1  0  0  0  0
 19 20  1  0  0  0  0
 19 37  1  0  0  0  0
 20 21  1  0  0  0  0
 20 38  1  0  0  0  0
 20 39  1  0  0  0  0
 21 22  1  0  0  0  0
 21 24  1  0  0  0  0
 21 26  1  0  0  0  0
 22 23  1  0  0  0  0
 22 40  1  0  0  0  0
 22 41  1  0  0  0  0
 23 42  1  0  0  0  0
 24 25  1  0  0  0  0
 24 43  1  0  0  0  0
 24 44  1  0  0  0  0
 25 45  1  0  0  0  0
 26 46  1  0  0  0  0
 26 47  1  0  0  0  0
 27 28  1  0  0  0  0
 27 48  1  0  0  0  0
 27 49  1  0  0  0  0
 28 50  1  0  0  0  0
 28 51  1  0  0  0  0
M  END
> <s_m_source_file>
AV-unprocessed.smi

> <i_m_source_file_index>
80

> <i_lp_mmshare_version>
43012

> <i_f3d_flags>
0

> <s_epik_input>
TiNDW0NIMl1DKD1PKU4xW0NIMl1bQ0gyXU4oW0NIMl1bQ0gyXTEpYyhuW2NIXW4yKWMoYzIzKW5bY0hdbjNbQ0hdKFtDSDJdNClbQ0gyXUM0KFtDSDJdW09IXSlbQ0gyXVtPSF0=

> <s_epik_cmdline>
J2VwaWtfcHl0aG9uJywgJy1waCcsICc3LjAnLCAnLXRuJywgJzgnLCAnLW1hJywgJzIwMCcsICctbWV0YWxfYmluZGluZycsICctaW1hZScsICc8aW5maWxlLm1hZT4nLCAnLW9tYWUnLCAnPG91dGZpbGUubWFlPic=

> <r_lp_tautomer_probability>
1

> <r_epik_Ionization_Penalty>
0.000827394

> <r_epik_Ionization_Penalty_Charging>
0

> <r_epik_Ionization_Penalty_Neutral>
0.000827394

> <r_epik_State_Penalty>
0.000406949

> <r_epik_Charging_Adjusted_Penalty>
0.000406949

> <i_epik_Tot_Q>
0

> <i_epik_Tot_abs_Q>
0

> <r_epik_Metal_State_Penalty>
-0

> <b_epik_Metal_Only>
0

> <s_lp_Force_Field>
OPLS_2005

> <r_lp_Energy>
60.4217

> <b_lp_Chiralities_Consistent>
1

> <s_lp_Variant>
AV-unprocessed.smi:80-1

> <Gold.Version>
5.8.1

> <Gold.Id.Protein>
6NUR|6NUR_protein|mol2

> <Gold.PLP.Fitness>
49.9827

> <Gold.PLP.PLP>
-34.7675

> <Gold.PLP.part.hbond>
-7.4051

> <Gold.PLP.part.metal>
0.0000

> <Gold.PLP.part.buried>
-1.3946

> <Gold.PLP.part.nonpolar>
-24.6002

> <Gold.PLP.part.repulsive>
0.9095

> <Gold.PLP.ligand.clash>
0.0000

> <Gold.PLP.ligand.torsion>
0.9449

> <Gold.PLP.Chemscore.Hbond>
4.4853

> <Gold.PLP.Chemscore.CHOScore>
1.0000

> <Gold.PLP.Chemscore.Metal>
0.0000

> <Gold.Chemscore.Hbonds>
donor molecule, donor type, donor heavy atom, donor atom, acceptor molecule, acceptor atom, score
      L1  H    23    42       P1 10747  1.00
      L1  H    25    45       P1  7921  1.00
      P1  H  6931  6943       L1     5  0.71
      P1  H  6934  6947       L1     5  1.00
      P1  H 10192 10197       L1    25  0.94
      L1  C    12    35       P1  7948  0.87

> <Gold.PLP.Chemscore.Internal.Correction>
0.6491

> <Gold.Rescore>
     Score         DG    S(hbond)    S(metal)    S(lipo)     H(rot)  DE(clash)    DE(int)     intcor
     12.02     -16.05       4.00        0.00      59.63       3.82       2.04       1.98       ----

> <Gold.Chemscore.Fitness>
12.0221

> <Gold.Chemscore.DG>
-16.0468

> <Gold.Chemscore.ZeroCoef>
-5.4800

> <Gold.Chemscore.Hbond>
4.0001

> <Gold.Chemscore.Metal>
0.0000

> <Gold.Chemscore.Lipo>
59.6262

> <Gold.Chemscore.Internal_Hbond>
0.0000

> <Gold.Chemscore.DEClash>
2.0431

> <Gold.Chemscore.DEInternal>
1.9816

> <Gold.Chemscore.Rot>
3.8164

> <Gold.Chemscore.Internal.Correction>
   9.000000E+99

> <Gold.Chemscore.Hbonds>
donor molecule, donor type, donor heavy atom, donor atom, acceptor molecule, acceptor atom, score
      L1  H    23    42       P1 10747  0.99
      L1  H    25    45       P1  7921  0.97
      P1  H  6931  6943       L1     5  0.67
      P1  H  6934  6947       L1     5  0.75
      P1  H 10192 10197       L1    25  0.23

> <Gold.Chemscore.Hbond.Weighted>
-13.3604

> <Gold.Chemscore.Metal.Weighted>
-0.0000

> <Gold.Chemscore.Lipo.Weighted>
-6.9763

> <Gold.Chemscore.Internal_Hbond.Weighted>
0.0000

> <Gold.Chemscore.DEClash.Weighted>
2.0431

> <Gold.Chemscore.DEInternal.Weighted>
1.9816

> <Gold.Chemscore.Rot.Weighted>
9.7699

> <Gold.Chemscore.Internal.Correction.Weighted>
   9.000000E+99

> <Gold.Protein.RotatedTorsions>
[ 6907 6896 6895 6894 ] final   -7.26 input  -60.11 | X-H torsion
[ 7974 7965 7964 7962 ] final   53.93 input  175.53 | X-H torsion
[ 8008 7997 7996 7995 ] final  145.21 input   59.86 | X-H torsion
[ 10167 10162 10161 10158 ] final -166.78 input  -65.29 | X-H torsion
[ 10718 10713 10712 10709 ] final  -91.48 input   66.30 | X-H torsion
[ 10763 10752 10751 10750 ] final   -1.07 input  -60.55 | X-H torsion
[ 11005 11000 10999 10996 ] final  118.28 input  -57.11 | X-H torsion

> <Gold.Protein.ActiveResidues>
 VAL166  LYS551  ARG553  GLY616  TRP617  ASP618  TYR619  PRO620  LYS621  CYS622 
 ASP623  PHE694  ASN695  SER759  ASP760  ASP761  ALA762  ILE779  LEU786  VAL792 
 PHE793  MET794  SER795  GLU796  ALA797  LYS798  CYS799  TRP800  GLU811  SER814 

> <Gold.Protein.RotatedAtoms>
  151.4525  135.1031  159.9701 H   0  0  0  0  0  0  0  0  0  0  0  0  # atno 6907 bound_to 6896
  152.4883  133.8427  159.7171 H   0  0  0  0  0  0  0  0  0  0  0  0  # atno 6908 bound_to 6896
  150.9012  133.7056  159.2905 H   0  0  0  0  0  0  0  0  0  0  0  0  # atno 6909 bound_to 6896
  145.9661  139.4104  143.0219 H   0  0  0  0  0  0  0  0  0  0  0  0  # atno 7974 bound_to 7965
  156.2889  140.2215  156.5178 H   0  0  0  0  0  0  0  0  0  0  0  0  # atno 8008 bound_to 7997
  154.7554  140.0477  157.0950 H   0  0  0  0  0  0  0  0  0  0  0  0  # atno 8009 bound_to 7997
  155.0057  140.3107  155.4852 H   0  0  0  0  0  0  0  0  0  0  0  0  # atno 8010 bound_to 7997
  139.6092  144.0849  152.1825 H   0  0  0  0  0  0  0  0  0  0  0  0  # atno 10167 bound_to 10162
  155.9994  130.4950  150.5481 H   0  0  0  0  0  0  0  0  0  0  0  0  # atno 10718 bound_to 10713
  153.3401  135.6980  153.6874 H   0  0  0  0  0  0  0  0  0  0  0  0  # atno 10763 bound_to 10752
  153.5643  135.3529  155.2812 H   0  0  0  0  0  0  0  0  0  0  0  0  # atno 10764 bound_to 10752
  154.8635  135.4257  154.2611 H   0  0  0  0  0  0  0  0  0  0  0  0  # atno 10765 bound_to 10752
  139.9104  134.9619  156.7479 H   0  0  0  0  0  0  0  0  0  0  0  0  # atno 11005 bound_to 11000
  145.7972  140.9787  143.1018 LP  0  0  0  0  0  0  0  0  0  0  0  0  # atno 17320 bound_to 7965
  144.6826  139.9756  143.7483 LP  0  0  0  0  0  0  0  0  0  0  0  0  # atno 17321 bound_to 7965
  140.0464  144.5967  150.7370 LP  0  0  0  0  0  0  0  0  0  0  0  0  # atno 17342 bound_to 10162
  140.7307  143.2686  151.3962 LP  0  0  0  0  0  0  0  0  0  0  0  0  # atno 17343 bound_to 10162
  157.3408  131.0716  151.1790 LP  0  0  0  0  0  0  0  0  0  0  0  0  # atno 17370 bound_to 10713
  157.2639  130.6672  149.5987 LP  0  0  0  0  0  0  0  0  0  0  0  0  # atno 17371 bound_to 10713
  140.6797  133.9486  155.7903 LP  0  0  0  0  0  0  0  0  0  0  0  0  # atno 17394 bound_to 11000
  141.0519  134.0472  157.3772 LP  0  0  0  0  0  0  0  0  0  0  0  0  # atno 17395 bound_to 11000

$$$$
