AV-unprocessed.smi:1163|AV-procd|sdf|4925|dock8
  -GOLD-   22720 3503D 1   1.00000     0.00000
 Structure written by MMmdl.
 40 41  0  0  0  0  0  0  0  0  2 V2000
  152.7370  142.1945  159.8356 C   0  0  0  0  0  0  0  0  0  0  0  0
  153.0601  141.0670  159.0291 O   0  0  0  0  0  0  0  0  0  0  0  0
  152.2473  140.7772  157.9523 C   0  0  0  0  0  0  0  0  0  0  0  0
  150.9749  141.3784  157.8866 C   0  0  0  0  0  0  0  0  0  0  0  0
  150.1368  141.0849  156.7939 C   0  0  0  0  0  0  0  0  0  0  0  0
  150.6022  140.1989  155.7921 C   0  0  0  0  0  0  0  0  0  0  0  0
  149.8586  139.8027  154.6458 N   0  0  0  0  0  0  0  0  0  0  0  0
  148.5279  139.7933  154.4552 C   0  0  0  0  0  0  0  0  0  0  0  0
  147.6832  140.1760  155.2639 O   0  0  0  0  0  0  0  0  0  0  0  0
  148.2163  139.3109  153.2440 N   0  0  0  0  0  0  0  0  0  0  0  0
  146.8576  139.1624  152.7324 C   0  0  1  0  0  0  0  0  0  0  0  0
  146.7990  138.7001  151.2771 C   0  0  0  0  0  0  0  0  0  0  0  0
  145.4742  137.9245  151.1711 C   0  0  0  0  0  0  0  0  0  0  0  0
  144.9488  137.7749  152.5503 N   0  3  1  0  0  0  0  0  0  0  0  0
  144.2604  136.4932  152.8374 C   0  0  0  0  0  0  0  0  0  0  0  0
  143.0201  136.6720  153.7301 C   0  0  0  0  0  0  0  0  0  0  0  0
  142.3948  135.5014  153.8439 F   0  0  0  0  0  0  0  0  0  0  0  0
  143.3856  137.0821  154.9444 F   0  0  0  0  0  0  0  0  0  0  0  0
  142.1714  137.5546  153.2047 F   0  0  0  0  0  0  0  0  0  0  0  0
  146.0702  138.0720  153.4584 C   0  0  0  0  0  0  0  0  0  0  0  0
  151.8900  139.6471  155.9558 C   0  0  0  0  0  0  0  0  0  0  0  0
  152.6979  139.9233  157.0007 N   0  0  0  0  0  0  0  0  0  0  0  0
  153.4716  142.2881  160.6354 H   0  0  0  0  0  0  0  0  0  0  0  0
  151.7554  142.0861  160.2989 H   0  0  0  0  0  0  0  0  0  0  0  0
  152.7597  143.1185  159.2563 H   0  0  0  0  0  0  0  0  0  0  0  0
  150.6442  142.0504  158.6648 H   0  0  0  0  0  0  0  0  0  0  0  0
  149.1593  141.5379  156.7610 H   0  0  0  0  0  0  0  0  0  0  0  0
  150.4172  139.5038  153.8597 H   0  0  0  0  0  0  0  0  0  0  0  0
  148.9700  139.0262  152.6353 H   0  0  0  0  0  0  0  0  0  0  0  0
  146.3253  140.1119  152.8207 H   0  0  0  0  0  0  0  0  0  0  0  0
  146.8519  139.5337  150.5762 H   0  0  0  0  0  0  0  0  0  0  0  0
  147.6305  138.0290  151.0563 H   0  0  0  0  0  0  0  0  0  0  0  0
  144.7450  138.4625  150.5645 H   0  0  0  0  0  0  0  0  0  0  0  0
  145.6478  136.9554  150.7004 H   0  0  0  0  0  0  0  0  0  0  0  0
  143.9985  135.9886  151.9061 H   0  0  0  0  0  0  0  0  0  0  0  0
  144.9642  135.8398  153.3553 H   0  0  0  0  0  0  0  0  0  0  0  0
  146.6852  137.1793  153.5908 H   0  0  0  0  0  0  0  0  0  0  0  0
  145.7156  138.3909  154.4392 H   0  0  0  0  0  0  0  0  0  0  0  0
  152.2879  138.9592  155.2237 H   0  0  0  0  0  0  0  0  0  0  0  0
  144.2767  138.5168  152.6877 H   0  0  0  0  0  0  0  0  0  0  0  0
  1  2  1  0  0  0  0
  1 23  1  0  0  0  0
  1 24  1  0  0  0  0
  1 25  1  0  0  0  0
  2  3  1  0  0  0  0
  3 22  1  0  0  0  0
  3  4  2  0  0  0  0
  4  5  1  0  0  0  0
  4 26  1  0  0  0  0
  5  6  2  0  0  0  0
  5 27  1  0  0  0  0
  6  7  1  0  0  0  0
  6 21  1  0  0  0  0
  7  8  1  0  0  0  0
  7 28  1  0  0  0  0
  8  9  2  0  0  0  0
  8 10  1  0  0  0  0
 10 11  1  0  0  0  0
 10 29  1  0  0  0  0
 11 20  1  0  0  0  0
 11 12  1  0  0  0  0
 11 30  1  0  0  0  0
 12 13  1  0  0  0  0
 12 31  1  0  0  0  0
 12 32  1  0  0  0  0
 13 14  1  0  0  0  0
 13 33  1  0  0  0  0
 13 34  1  0  0  0  0
 14 15  1  0  0  0  0
 14 20  1  0  0  0  0
 14 40  1  0  0  0  0
 15 16  1  0  0  0  0
 15 35  1  0  0  0  0
 15 36  1  0  0  0  0
 16 17  1  0  0  0  0
 16 18  1  0  0  0  0
 16 19  1  0  0  0  0
 20 37  1  0  0  0  0
 20 38  1  0  0  0  0
 21 22  2  0  0  0  0
 21 39  1  0  0  0  0
M  CHG  1  14   1
M  END
> <s_m_source_file>
AV-unprocessed.smi

> <i_m_source_file_index>
1163

> <i_lp_mmshare_version>
43012

> <i_f3d_flags>
0

> <s_epik_input>
W0NIM11PYzFbY0hdW2NIXWMoW2NIXW4xKVtOSF1DKD1PKVtOSF1bQ0BASF0yW0NIMl1bQ0gyXU4oW0NIMl0yKVtDSDJdQyhGKShGKUY=

> <s_epik_cmdline>
J2VwaWtfcHl0aG9uJywgJy1waCcsICc3LjAnLCAnLXRuJywgJzgnLCAnLW1hJywgJzIwMCcsICctbWV0YWxfYmluZGluZycsICctaW1hZScsICc8aW5maWxlLm1hZT4nLCAnLW9tYWUnLCAnPG91dGZpbGUubWFlPic=

> <r_lp_tautomer_probability>
1

> <r_epik_Ionization_Penalty>
1.12054

> <r_epik_Ionization_Penalty_Charging>
1.12047

> <r_epik_Ionization_Penalty_Neutral>
7.20346e-05

> <r_epik_State_Penalty>
1.17927

> <r_epik_Charging_Adjusted_Penalty>
2.29974

> <i_epik_Tot_Q>
1

> <i_epik_Tot_abs_Q>
1

> <r_epik_Metal_State_Penalty>
1.17928

> <b_epik_Metal_Only>
0

> <s_lp_Force_Field>
OPLS_2005

> <r_lp_Energy>
29.7576

> <b_lp_Chiralities_Consistent>
1

> <s_lp_Variant>
AV-unprocessed.smi:1163-6

> <Gold.Version>
5.8.1

> <Gold.Id.Protein>
6NUR|6NUR_protein|mol2

> <Gold.PLP.Fitness>
41.0751

> <Gold.PLP.PLP>
-31.9785

> <Gold.PLP.part.hbond>
-3.9570

> <Gold.PLP.part.metal>
0.0000

> <Gold.PLP.part.buried>
4.1751

> <Gold.PLP.part.nonpolar>
-33.1567

> <Gold.PLP.part.repulsive>
0.2339

> <Gold.PLP.ligand.clash>
0.0000

> <Gold.PLP.ligand.torsion>
0.9035

> <Gold.PLP.Chemscore.Hbond>
3.4800

> <Gold.PLP.Chemscore.CHOScore>
0.0000

> <Gold.PLP.Chemscore.Metal>
0.0000

> <Gold.Chemscore.Hbonds>
donor molecule, donor type, donor heavy atom, donor atom, acceptor molecule, acceptor atom, score
      L1  H    10    29       P1  7957  0.51
      L1  H    14    40       P1 10175  1.98
      P1  H  7997  8009       L1    22  1.00

> <Gold.PLP.Chemscore.Internal.Correction>
0.4636

> <Gold.Rescore>
     Score         DG    S(hbond)    S(metal)    S(lipo)     H(rot)  DE(clash)    DE(int)     intcor
     13.59     -17.29       2.38        0.00      69.62       1.68       2.08       1.63       ----

> <Gold.Chemscore.Fitness>
13.5918

> <Gold.Chemscore.DG>
-17.2936

> <Gold.Chemscore.ZeroCoef>
-5.4800

> <Gold.Chemscore.Hbond>
2.3843

> <Gold.Chemscore.Metal>
0.0000

> <Gold.Chemscore.Lipo>
69.6155

> <Gold.Chemscore.Internal_Hbond>
0.0000

> <Gold.Chemscore.DEClash>
2.0751

> <Gold.Chemscore.DEInternal>
1.6267

> <Gold.Chemscore.Rot>
1.6778

> <Gold.Chemscore.Internal.Correction>
   9.000000E+99

> <Gold.Chemscore.Hbonds>
donor molecule, donor type, donor heavy atom, donor atom, acceptor molecule, acceptor atom, score
      L1  H    10    29       P1  7957  0.50
      L1  H    14    40       P1 10175  0.89
      P1  H  7997  8009       L1    22  0.81

> <Gold.Chemscore.Hbond.Weighted>
-7.9637

> <Gold.Chemscore.Metal.Weighted>
-0.0000

> <Gold.Chemscore.Lipo.Weighted>
-8.1450

> <Gold.Chemscore.Internal_Hbond.Weighted>
0.0000

> <Gold.Chemscore.DEClash.Weighted>
2.0751

> <Gold.Chemscore.DEInternal.Weighted>
1.6267

> <Gold.Chemscore.Rot.Weighted>
4.2951

> <Gold.Chemscore.Internal.Correction.Weighted>
   9.000000E+99

> <Gold.Protein.RotatedTorsions>
[ 6907 6896 6895 6894 ] final -113.94 input  -60.11 | X-H torsion
[ 7974 7965 7964 7962 ] final   77.47 input  175.53 | X-H torsion
[ 8008 7997 7996 7995 ] final  176.14 input   59.86 | X-H torsion
[ 10167 10162 10161 10158 ] final   75.22 input  -65.29 | X-H torsion
[ 10718 10713 10712 10709 ] final  149.84 input   66.30 | X-H torsion
[ 10763 10752 10751 10750 ] final  -12.64 input  -60.55 | X-H torsion
[ 11005 11000 10999 10996 ] final   35.00 input  -57.11 | X-H torsion

> <Gold.Protein.ActiveResidues>
 VAL166  LYS551  ARG553  GLY616  TRP617  ASP618  TYR619  PRO620  LYS621  CYS622 
 ASP623  PHE694  ASN695  SER759  ASP760  ASP761  ALA762  ILE779  LEU786  VAL792 
 PHE793  MET794  SER795  GLU796  ALA797  LYS798  CYS799  TRP800  GLU811  SER814 

> <Gold.Protein.RotatedAtoms>
  150.7865  133.8872  159.3302 H   0  0  0  0  0  0  0  0  0  0  0  0  # atno 6907 bound_to 6896
  151.6721  135.0972  160.0209 H   0  0  0  0  0  0  0  0  0  0  0  0  # atno 6908 bound_to 6896
  152.3931  133.6668  159.6289 H   0  0  0  0  0  0  0  0  0  0  0  0  # atno 6909 bound_to 6896
  145.6895  139.2548  143.1768 H   0  0  0  0  0  0  0  0  0  0  0  0  # atno 7974 bound_to 7965
  156.0796  140.1391  156.9728 H   0  0  0  0  0  0  0  0  0  0  0  0  # atno 8008 bound_to 7997
  154.4577  140.0955  156.6855 H   0  0  0  0  0  0  0  0  0  0  0  0  # atno 8009 bound_to 7997
  155.5097  140.3453  155.4388 H   0  0  0  0  0  0  0  0  0  0  0  0  # atno 8010 bound_to 7997
  140.0053  144.5655  150.7703 H   0  0  0  0  0  0  0  0  0  0  0  0  # atno 10167 bound_to 10162
  157.2911  131.0853  151.1461 H   0  0  0  0  0  0  0  0  0  0  0  0  # atno 10718 bound_to 10713
  153.5015  135.7017  153.5829 H   0  0  0  0  0  0  0  0  0  0  0  0  # atno 10763 bound_to 10752
  153.3959  135.3884  155.1955 H   0  0  0  0  0  0  0  0  0  0  0  0  # atno 10764 bound_to 10752
  154.8710  135.3869  154.4486 H   0  0  0  0  0  0  0  0  0  0  0  0  # atno 10765 bound_to 10752
  140.2471  134.3347  155.7904 H   0  0  0  0  0  0  0  0  0  0  0  0  # atno 11005 bound_to 11000
  146.0894  140.7673  142.9603 LP  0  0  0  0  0  0  0  0  0  0  0  0  # atno 17320 bound_to 7965
  144.7001  140.3613  143.7163 LP  0  0  0  0  0  0  0  0  0  0  0  0  # atno 17321 bound_to 7965
  140.7403  143.2802  151.3620 LP  0  0  0  0  0  0  0  0  0  0  0  0  # atno 17342 bound_to 10162
  139.6243  144.0845  152.2420 LP  0  0  0  0  0  0  0  0  0  0  0  0  # atno 17343 bound_to 10162
  157.2857  130.6772  149.6088 LP  0  0  0  0  0  0  0  0  0  0  0  0  # atno 17370 bound_to 10713
  155.9667  130.4436  150.5428 LP  0  0  0  0  0  0  0  0  0  0  0  0  # atno 17371 bound_to 10713
  141.2205  133.7332  156.8978 LP  0  0  0  0  0  0  0  0  0  0  0  0  # atno 17394 bound_to 11000
  140.1595  134.9175  157.2696 LP  0  0  0  0  0  0  0  0  0  0  0  0  # atno 17395 bound_to 11000

$$$$
