AV-unprocessed.smi:2137|AV-procd|sdf|8708|dock8
  -GOLD-   2272011473D 1   1.00000     0.00000
 Structure written by MMmdl.
 50 51  0  0  0  0  0  0  0  0  2 V2000
  151.9490  144.0112  161.5415 C   0  0  0  0  0  0  0  0  0  0  0  0
  152.4214  144.2400  160.0947 C   0  0  2  0  0  0  0  0  0  0  0  0
  151.3759  144.9717  159.2328 C   0  0  0  0  0  0  0  0  0  0  0  0
  150.2132  144.0421  158.8579 C   0  0  0  0  0  0  0  0  0  0  0  0
  150.7287  142.7504  158.2041 C   0  0  0  0  0  0  0  0  0  0  0  0
  151.7018  142.0560  159.0865 N   0  3  1  0  0  0  0  0  0  0  0  0
  152.1009  140.7291  158.5529 C   0  0  0  0  0  0  0  0  0  0  0  0
  150.8957  139.9121  158.0561 C   0  0  0  0  0  0  0  0  0  0  0  0
  151.2230  138.4197  157.9141 C   0  0  0  0  0  0  0  0  0  0  0  0
  150.0037  137.6232  157.9558 N   0  0  0  0  0  0  0  0  0  0  0  0
  149.6617  136.8001  158.9574 C   0  0  0  0  0  0  0  0  0  0  0  0
  150.3688  136.6114  159.9479 O   0  0  0  0  0  0  0  0  0  0  0  0
  148.3258  136.0618  158.8013 C   0  0  0  0  0  0  0  0  0  0  0  0
  148.0136  135.2095  159.9556 N   0  0  0  0  0  0  0  0  0  0  0  0
  147.6938  133.8784  159.7599 C   0  0  0  0  0  0  0  0  0  0  0  0
  147.3965  133.0283  160.7668 C   0  0  0  0  0  0  0  0  0  0  0  0
  147.4007  133.4794  162.1531 C   0  0  0  0  0  0  0  0  0  0  0  0
  147.1121  132.7461  163.0998 O   0  0  0  0  0  0  0  0  0  0  0  0
  147.7498  134.8397  162.3271 N   0  0  0  0  0  0  0  0  0  0  0  0
  147.7606  135.3728  163.6739 C   0  0  0  0  0  0  0  0  0  0  0  0
  148.0411  135.7291  161.2681 C   0  0  0  0  0  0  0  0  0  0  0  0
  148.3054  136.9179  161.4651 O   0  0  0  0  0  0  0  0  0  0  0  0
  152.8631  142.9289  159.4121 C   0  0  0  0  0  0  0  0  0  0  0  0
  151.0928  143.3385  161.5896 H   0  0  0  0  0  0  0  0  0  0  0  0
  151.6593  144.9512  162.0123 H   0  0  0  0  0  0  0  0  0  0  0  0
  152.7437  143.5747  162.1474 H   0  0  0  0  0  0  0  0  0  0  0  0
  153.2976  144.8869  160.1580 H   0  0  0  0  0  0  0  0  0  0  0  0
  151.0029  145.8566  159.7498 H   0  0  0  0  0  0  0  0  0  0  0  0
  151.8522  145.3304  158.3192 H   0  0  0  0  0  0  0  0  0  0  0  0
  149.6288  143.7981  159.7457 H   0  0  0  0  0  0  0  0  0  0  0  0
  149.5335  144.5564  158.1777 H   0  0  0  0  0  0  0  0  0  0  0  0
  149.8810  142.0954  157.9987 H   0  0  0  0  0  0  0  0  0  0  0  0
  151.1984  142.9725  157.2446 H   0  0  0  0  0  0  0  0  0  0  0  0
  152.7790  140.8687  157.7099 H   0  0  0  0  0  0  0  0  0  0  0  0
  152.6614  140.1778  159.3095 H   0  0  0  0  0  0  0  0  0  0  0  0
  150.0546  140.0210  158.7404 H   0  0  0  0  0  0  0  0  0  0  0  0
  150.5639  140.3048  157.0937 H   0  0  0  0  0  0  0  0  0  0  0  0
  151.7358  138.2296  156.9703 H   0  0  0  0  0  0  0  0  0  0  0  0
  151.9002  138.1176  158.7150 H   0  0  0  0  0  0  0  0  0  0  0  0
  149.3690  137.7107  157.1753 H   0  0  0  0  0  0  0  0  0  0  0  0
  147.5173  136.7761  158.6352 H   0  0  0  0  0  0  0  0  0  0  0  0
  148.3764  135.4586  157.8939 H   0  0  0  0  0  0  0  0  0  0  0  0
  147.6794  133.4948  158.7501 H   0  0  0  0  0  0  0  0  0  0  0  0
  147.1507  132.0005  160.5434 H   0  0  0  0  0  0  0  0  0  0  0  0
  148.5361  136.1363  163.7535 H   0  0  0  0  0  0  0  0  0  0  0  0
  147.9979  134.5797  164.3842 H   0  0  0  0  0  0  0  0  0  0  0  0
  146.7690  135.7886  163.8574 H   0  0  0  0  0  0  0  0  0  0  0  0
  153.4030  143.1580  158.4919 H   0  0  0  0  0  0  0  0  0  0  0  0
  153.5678  142.4078  160.0593 H   0  0  0  0  0  0  0  0  0  0  0  0
  151.2141  141.8790  159.9531 H   0  0  0  0  0  0  0  0  0  0  0  0
  1  2  1  0  0  0  0
  1 24  1  0  0  0  0
  1 25  1  0  0  0  0
  1 26  1  0  0  0  0
  2 23  1  0  0  0  0
  2  3  1  0  0  0  0
  2 27  1  0  0  0  0
  3  4  1  0  0  0  0
  3 28  1  0  0  0  0
  3 29  1  0  0  0  0
  4  5  1  0  0  0  0
  4 30  1  0  0  0  0
  4 31  1  0  0  0  0
  5  6  1  0  0  0  0
  5 32  1  0  0  0  0
  5 33  1  0  0  0  0
  6  7  1  0  0  0  0
  6 23  1  0  0  0  0
  6 50  1  0  0  0  0
  7  8  1  0  0  0  0
  7 34  1  0  0  0  0
  7 35  1  0  0  0  0
  8  9  1  0  0  0  0
  8 36  1  0  0  0  0
  8 37  1  0  0  0  0
  9 10  1  0  0  0  0
  9 38  1  0  0  0  0
  9 39  1  0  0  0  0
 10 11  1  0  0  0  0
 10 40  1  0  0  0  0
 11 12  2  0  0  0  0
 11 13  1  0  0  0  0
 13 14  1  0  0  0  0
 13 41  1  0  0  0  0
 13 42  1  0  0  0  0
 14 21  1  0  0  0  0
 14 15  1  0  0  0  0
 15 16  2  0  0  0  0
 15 43  1  0  0  0  0
 16 17  1  0  0  0  0
 16 44  1  0  0  0  0
 17 18  2  0  0  0  0
 17 19  1  0  0  0  0
 19 20  1  0  0  0  0
 19 21  1  0  0  0  0
 20 45  1  0  0  0  0
 20 46  1  0  0  0  0
 20 47  1  0  0  0  0
 21 22  2  0  0  0  0
 23 48  1  0  0  0  0
 23 49  1  0  0  0  0
M  CHG  1   6   1
M  END
> <s_m_source_file>
AV-unprocessed.smi

> <i_m_source_file_index>
2137

> <i_lp_mmshare_version>
43012

> <i_f3d_flags>
0

> <s_epik_input>
W0NIM11bQ0BASF0xW0NIMl1bQ0gyXVtDSDJdTihbQ0gyXTEpW0NIMl1bQ0gyXVtDSDJdW05IXUMoPU8pW0NIMl1uMltjSF1bY0hdYyg9TyluKFtDSDNdKWMyPU8=

> <s_epik_cmdline>
J2VwaWtfcHl0aG9uJywgJy1waCcsICc3LjAnLCAnLXRuJywgJzgnLCAnLW1hJywgJzIwMCcsICctbWV0YWxfYmluZGluZycsICctaW1hZScsICc8aW5maWxlLm1hZT4nLCAnLW9tYWUnLCAnPG91dGZpbGUubWFlPic=

> <r_lp_tautomer_probability>
1

> <r_epik_Ionization_Penalty>
0.000384839

> <r_epik_Ionization_Penalty_Charging>
0.000384812

> <r_epik_Ionization_Penalty_Neutral>
2.6907e-08

> <r_epik_State_Penalty>
0.000235226

> <r_epik_Charging_Adjusted_Penalty>
0.000620038

> <i_epik_Tot_Q>
1

> <i_epik_Tot_abs_Q>
1

> <r_epik_Metal_State_Penalty>
-0

> <b_epik_Metal_Only>
0

> <s_lp_Force_Field>
OPLS_2005

> <r_lp_Energy>
28.7219

> <b_lp_Chiralities_Consistent>
1

> <s_lp_Variant>
AV-unprocessed.smi:2137-3

> <Gold.Version>
5.8.1

> <Gold.Id.Protein>
6NUR|6NUR_protein|mol2

> <Gold.PLP.Fitness>
49.9266

> <Gold.PLP.PLP>
-42.3569

> <Gold.PLP.part.hbond>
-3.8861

> <Gold.PLP.part.metal>
0.0000

> <Gold.PLP.part.buried>
-4.0768

> <Gold.PLP.part.nonpolar>
-36.1537

> <Gold.PLP.part.repulsive>
0.2077

> <Gold.PLP.ligand.clash>
0.0000

> <Gold.PLP.ligand.torsion>
0.3529

> <Gold.PLP.Chemscore.Hbond>
2.7440

> <Gold.PLP.Chemscore.CHOScore>
0.0000

> <Gold.PLP.Chemscore.Metal>
0.0000

> <Gold.Chemscore.Hbonds>
donor molecule, donor type, donor heavy atom, donor atom, acceptor molecule, acceptor atom, score
      P1  H  6896  6909       L1    12  1.00
      P1  H  6931  6943       L1    22  1.00

> <Gold.PLP.Chemscore.Internal.Correction>
0.0435

> <Gold.Rescore>
     Score         DG    S(hbond)    S(metal)    S(lipo)     H(rot)  DE(clash)    DE(int)     intcor
     17.36     -19.77       2.46        0.00     101.61       2.27       0.30       2.11       ----

> <Gold.Chemscore.Fitness>
17.3632

> <Gold.Chemscore.DG>
-19.7669

> <Gold.Chemscore.ZeroCoef>
-5.4800

> <Gold.Chemscore.Hbond>
2.4617

> <Gold.Chemscore.Metal>
0.0000

> <Gold.Chemscore.Lipo>
101.6074

> <Gold.Chemscore.Internal_Hbond>
0.0000

> <Gold.Chemscore.DEClash>
0.2957

> <Gold.Chemscore.DEInternal>
2.1080

> <Gold.Chemscore.Rot>
2.2748

> <Gold.Chemscore.Internal.Correction>
   9.000000E+99

> <Gold.Chemscore.Hbonds>
donor molecule, donor type, donor heavy atom, donor atom, acceptor molecule, acceptor atom, score
      P1  H  6896  6909       L1    12  0.55
      P1  H  6931  6943       L1    22  0.97
      P1  H  6934  6947       L1    22  0.04

> <Gold.Chemscore.Hbond.Weighted>
-8.2222

> <Gold.Chemscore.Metal.Weighted>
-0.0000

> <Gold.Chemscore.Lipo.Weighted>
-11.8881

> <Gold.Chemscore.Internal_Hbond.Weighted>
0.0000

> <Gold.Chemscore.DEClash.Weighted>
0.2957

> <Gold.Chemscore.DEInternal.Weighted>
2.1080

> <Gold.Chemscore.Rot.Weighted>
5.8234

> <Gold.Chemscore.Internal.Correction.Weighted>
   9.000000E+99

> <Gold.Protein.RotatedTorsions>
[ 6907 6896 6895 6894 ] final   82.20 input  -60.11 | X-H torsion
[ 7974 7965 7964 7962 ] final -133.87 input  175.53 | X-H torsion
[ 8008 7997 7996 7995 ] final -140.11 input   59.86 | X-H torsion
[ 10167 10162 10161 10158 ] final   36.69 input  -65.29 | X-H torsion
[ 10718 10713 10712 10709 ] final  -34.95 input   66.30 | X-H torsion
[ 10763 10752 10751 10750 ] final   65.91 input  -60.55 | X-H torsion
[ 11005 11000 10999 10996 ] final   33.24 input  -57.11 | X-H torsion

> <Gold.Protein.ActiveResidues>
 VAL166  LYS551  ARG553  GLY616  TRP617  ASP618  TYR619  PRO620  LYS621  CYS622 
 ASP623  PHE694  ASN695  SER759  ASP760  ASP761  ALA762  ILE779  LEU786  VAL792 
 PHE793  MET794  SER795  GLU796  ALA797  LYS798  CYS799  TRP800  GLU811  SER814 

> <Gold.Protein.RotatedAtoms>
  152.5292  134.3086  159.9105 H   0  0  0  0  0  0  0  0  0  0  0  0  # atno 6907 bound_to 6896
  151.3036  133.4105  159.2649 H   0  0  0  0  0  0  0  0  0  0  0  0  # atno 6908 bound_to 6896
  151.0098  134.9404  159.8058 H   0  0  0  0  0  0  0  0  0  0  0  0  # atno 6909 bound_to 6896
  144.9154  140.6948  143.4999 H   0  0  0  0  0  0  0  0  0  0  0  0  # atno 7974 bound_to 7965
  155.4560  140.0542  157.2996 H   0  0  0  0  0  0  0  0  0  0  0  0  # atno 8008 bound_to 7997
  154.4757  140.2060  155.9839 H   0  0  0  0  0  0  0  0  0  0  0  0  # atno 8009 bound_to 7997
  156.1128  140.3201  155.8101 H   0  0  0  0  0  0  0  0  0  0  0  0  # atno 8010 bound_to 7997
  140.4104  144.1600  150.6139 H   0  0  0  0  0  0  0  0  0  0  0  0  # atno 10167 bound_to 10162
  156.3445  130.4298  149.7758 H   0  0  0  0  0  0  0  0  0  0  0  0  # atno 10718 bound_to 10713
  153.0117  135.5339  154.6742 H   0  0  0  0  0  0  0  0  0  0  0  0  # atno 10763 bound_to 10752
  154.5918  135.2859  155.0629 H   0  0  0  0  0  0  0  0  0  0  0  0  # atno 10764 bound_to 10752
  154.1719  135.6530  153.5064 H   0  0  0  0  0  0  0  0  0  0  0  0  # atno 10765 bound_to 10752
  140.2652  134.3146  155.7845 H   0  0  0  0  0  0  0  0  0  0  0  0  # atno 11005 bound_to 11000
  145.3384  139.1739  143.4499 LP  0  0  0  0  0  0  0  0  0  0  0  0  # atno 17320 bound_to 7965
  146.3179  140.3422  142.8649 LP  0  0  0  0  0  0  0  0  0  0  0  0  # atno 17321 bound_to 7965
  140.4644  143.2436  151.9176 LP  0  0  0  0  0  0  0  0  0  0  0  0  # atno 17342 bound_to 10162
  139.4782  144.5434  151.8494 LP  0  0  0  0  0  0  0  0  0  0  0  0  # atno 17343 bound_to 10162
  156.4982  130.8116  151.3122 LP  0  0  0  0  0  0  0  0  0  0  0  0  # atno 17370 bound_to 10713
  157.7452  130.9953  150.2739 LP  0  0  0  0  0  0  0  0  0  0  0  0  # atno 17371 bound_to 10713
  141.2185  133.7433  156.9249 LP  0  0  0  0  0  0  0  0  0  0  0  0  # atno 17394 bound_to 11000
  140.1426  134.9283  157.2487 LP  0  0  0  0  0  0  0  0  0  0  0  0  # atno 17395 bound_to 11000

$$$$
