AV-unprocessed.smi:2324|AV-procd|sdf|9291|dock1
  -GOLD-   2272012513D 1   1.00000     0.00000
 Structure written by MMmdl.
 37 39  0  0  0  0  0  0  0  0  1 V2000
  153.7186  139.3063  158.4907 O   0  0  0  0  0  0  0  0  0  0  0  0
  154.0528  139.0016  159.6345 C   0  0  0  0  0  0  0  0  0  0  0  0
  154.4743  137.7522  159.9241 N   0  0  0  0  0  0  0  0  0  0  0  0
  154.6337  136.5940  159.1081 C   0  0  0  0  0  0  0  0  0  0  0  0
  154.9754  135.4193  159.8120 C   0  0  0  0  0  0  0  0  0  0  0  0
  155.1509  134.2296  159.0851 C   0  0  0  0  0  0  0  0  0  0  0  0
  154.9716  134.2939  157.6930 C   0  0  0  0  0  0  0  0  0  0  0  0
  154.6442  135.4396  157.0578 N   0  0  0  0  0  0  0  0  0  0  0  0
  154.4793  136.5670  157.7575 N   0  0  0  0  0  0  0  0  0  0  0  0
  154.0197  139.8734  160.6561 N   0  0  0  0  0  0  0  0  0  0  0  0
  153.5968  141.2673  160.5666 C   0  0  2  0  0  0  0  0  0  0  0  0
  153.3582  141.8307  161.9736 C   0  0  0  0  0  0  0  0  0  0  0  0
  152.8031  143.2610  161.8971 C   0  0  0  0  0  0  0  0  0  0  0  0
  151.6082  143.2920  161.1190 O   0  0  0  0  0  0  0  0  0  0  0  0
  151.7426  142.8311  159.7731 C   0  0  1  0  0  0  0  0  0  0  0  0
  152.5420  143.8033  158.9156 C   0  0  0  0  0  0  0  0  0  0  0  0
  152.2124  145.2775  158.9121 C   0  0  0  0  0  0  0  0  0  0  0  0
  151.9245  144.4369  157.6911 C   0  0  0  0  0  0  0  0  0  0  0  0
  152.3012  141.3950  159.7465 C   0  0  0  0  0  0  0  0  0  0  0  0
  154.7206  137.6132  160.8934 H   0  0  0  0  0  0  0  0  0  0  0  0
  155.1004  135.4260  160.8852 H   0  0  0  0  0  0  0  0  0  0  0  0
  155.4121  133.3036  159.5756 H   0  0  0  0  0  0  0  0  0  0  0  0
  155.0908  133.4141  157.0783 H   0  0  0  0  0  0  0  0  0  0  0  0
  154.3089  139.5431  161.5661 H   0  0  0  0  0  0  0  0  0  0  0  0
  154.3894  141.8483  160.0919 H   0  0  0  0  0  0  0  0  0  0  0  0
  152.6498  141.1994  162.5122 H   0  0  0  0  0  0  0  0  0  0  0  0
  154.2850  141.8207  162.5484 H   0  0  0  0  0  0  0  0  0  0  0  0
  152.5714  143.6214  162.8993 H   0  0  0  0  0  0  0  0  0  0  0  0
  153.5469  143.9450  161.4882 H   0  0  0  0  0  0  0  0  0  0  0  0
  150.7323  142.7993  159.3635 H   0  0  0  0  0  0  0  0  0  0  0  0
  153.5979  143.5593  158.8237 H   0  0  0  0  0  0  0  0  0  0  0  0
  151.3624  145.6089  159.5051 H   0  0  0  0  0  0  0  0  0  0  0  0
  153.0441  145.9770  158.8578 H   0  0  0  0  0  0  0  0  0  0  0  0
  152.5646  144.5738  156.8222 H   0  0  0  0  0  0  0  0  0  0  0  0
  150.8834  144.2084  157.4717 H   0  0  0  0  0  0  0  0  0  0  0  0
  152.4639  141.0759  158.7163 H   0  0  0  0  0  0  0  0  0  0  0  0
  151.5488  140.7213  160.1595 H   0  0  0  0  0  0  0  0  0  0  0  0
  1  2  2  0  0  0  0
  2  3  1  0  0  0  0
  2 10  1  0  0  0  0
  3  4  1  0  0  0  0
  3 20  1  0  0  0  0
  4  9  1  0  0  0  0
  4  5  2  0  0  0  0
  5  6  1  0  0  0  0
  5 21  1  0  0  0  0
  6  7  2  0  0  0  0
  6 22  1  0  0  0  0
  7  8  1  0  0  0  0
  7 23  1  0  0  0  0
  8  9  2  0  0  0  0
 10 11  1  0  0  0  0
 10 24  1  0  0  0  0
 11 19  1  0  0  0  0
 11 12  1  0  0  0  0
 11 25  1  0  0  0  0
 12 13  1  0  0  0  0
 12 26  1  0  0  0  0
 12 27  1  0  0  0  0
 13 14  1  0  0  0  0
 13 28  1  0  0  0  0
 13 29  1  0  0  0  0
 14 15  1  0  0  0  0
 15 16  1  0  0  0  0
 15 19  1  0  0  0  0
 15 30  1  0  0  0  0
 16 18  1  0  0  0  0
 16 17  1  0  0  0  0
 16 31  1  0  0  0  0
 17 18  1  0  0  0  0
 17 32  1  0  0  0  0
 17 33  1  0  0  0  0
 18 34  1  0  0  0  0
 18 35  1  0  0  0  0
 19 36  1  0  0  0  0
 19 37  1  0  0  0  0
M  END
> <s_m_source_file>
AV-unprocessed.smi

> <i_m_source_file_index>
2324

> <i_lp_mmshare_version>
43012

> <i_f3d_flags>
0

> <s_epik_input>
bjFuW2NIXVtjSF1bY0hdYzFbTkhdQyg9TylbTkhdW0NAQEhdMltDSDJdW0NIMl1PW0NASF0oW0NIMl0yKVtDSF0zW0NIMl1bQ0gyXTM=

> <s_epik_cmdline>
J2VwaWtfcHl0aG9uJywgJy1waCcsICc3LjAnLCAnLXRuJywgJzgnLCAnLW1hJywgJzIwMCcsICctbWV0YWxfYmluZGluZycsICctaW1hZScsICc8aW5maWxlLm1hZT4nLCAnLW9tYWUnLCAnPG91dGZpbGUubWFlPic=

> <r_lp_tautomer_probability>
1

> <r_epik_Ionization_Penalty>
0.00521499

> <r_epik_Ionization_Penalty_Charging>
0

> <r_epik_Ionization_Penalty_Neutral>
0.00521499

> <r_epik_State_Penalty>
-0

> <r_epik_Charging_Adjusted_Penalty>
0

> <i_epik_Tot_Q>
0

> <i_epik_Tot_abs_Q>
0

> <r_epik_Metal_State_Penalty>
-0

> <b_epik_Metal_Only>
0

> <s_lp_Force_Field>
OPLS_2005

> <r_lp_Energy>
28.1305

> <b_lp_Chiralities_Consistent>
1

> <s_lp_Variant>
AV-unprocessed.smi:2324-1

> <Gold.Version>
5.8.1

> <Gold.Id.Protein>
6NUR|6NUR_protein|mol2

> <Gold.PLP.Fitness>
43.3853

> <Gold.PLP.PLP>
-38.2284

> <Gold.PLP.part.hbond>
-2.9199

> <Gold.PLP.part.metal>
0.0000

> <Gold.PLP.part.buried>
-5.5368

> <Gold.PLP.part.nonpolar>
-29.7307

> <Gold.PLP.part.repulsive>
0.2045

> <Gold.PLP.ligand.clash>
0.0000

> <Gold.PLP.ligand.torsion>
0.9634

> <Gold.PLP.Chemscore.Hbond>
2.0000

> <Gold.PLP.Chemscore.CHOScore>
0.0000

> <Gold.PLP.Chemscore.Metal>
0.0000

> <Gold.Chemscore.Hbonds>
donor molecule, donor type, donor heavy atom, donor atom, acceptor molecule, acceptor atom, score
      P1  H  7997  8010       L1     1  1.00
      P1  H 10752 10764       L1     8  1.00

> <Gold.PLP.Chemscore.Internal.Correction>
1.0836

> <Gold.Rescore>
     Score         DG    S(hbond)    S(metal)    S(lipo)     H(rot)  DE(clash)    DE(int)     intcor
     16.95     -20.38       2.09        0.00      95.09       1.25       0.00       3.43       ----

> <Gold.Chemscore.Fitness>
16.9545

> <Gold.Chemscore.DG>
-20.3838

> <Gold.Chemscore.ZeroCoef>
-5.4800

> <Gold.Chemscore.Hbond>
2.0873

> <Gold.Chemscore.Metal>
0.0000

> <Gold.Chemscore.Lipo>
95.0924

> <Gold.Chemscore.Internal_Hbond>
0.0000

> <Gold.Chemscore.DEClash>
0.0000

> <Gold.Chemscore.DEInternal>
3.4292

> <Gold.Chemscore.Rot>
1.2476

> <Gold.Chemscore.Internal.Correction>
   9.000000E+99

> <Gold.Chemscore.Hbonds>
donor molecule, donor type, donor heavy atom, donor atom, acceptor molecule, acceptor atom, score
      P1  H  6933  6945       L1    14  0.01
      P1  H  7997  8010       L1     1  1.00
      P1  H 10752 10764       L1     8  0.93

> <Gold.Chemscore.Hbond.Weighted>
-6.9717

> <Gold.Chemscore.Metal.Weighted>
-0.0000

> <Gold.Chemscore.Lipo.Weighted>
-11.1258

> <Gold.Chemscore.Internal_Hbond.Weighted>
0.0000

> <Gold.Chemscore.DEClash.Weighted>
0.0000

> <Gold.Chemscore.DEInternal.Weighted>
3.4292

> <Gold.Chemscore.Rot.Weighted>
3.1938

> <Gold.Chemscore.Internal.Correction.Weighted>
   9.000000E+99

> <Gold.Protein.RotatedTorsions>
[ 6907 6896 6895 6894 ] final -143.78 input  -60.11 | X-H torsion
[ 7974 7965 7964 7962 ] final   98.92 input  175.53 | X-H torsion
[ 8008 7997 7996 7995 ] final   21.88 input   59.86 | X-H torsion
[ 10167 10162 10161 10158 ] final    5.22 input  -65.29 | X-H torsion
[ 10718 10713 10712 10709 ] final  -34.26 input   66.30 | X-H torsion
[ 10763 10752 10751 10750 ] final   28.79 input  -60.55 | X-H torsion
[ 11005 11000 10999 10996 ] final  -84.18 input  -57.11 | X-H torsion

> <Gold.Protein.ActiveResidues>
 VAL166  LYS551  ARG553  GLY616  TRP617  ASP618  TYR619  PRO620  LYS621  CYS622 
 ASP623  PHE694  ASN695  SER759  ASP760  ASP761  ALA762  ILE779  LEU786  VAL792 
 PHE793  MET794  SER795  GLU796  ALA797  LYS798  CYS799  TRP800  GLU811  SER814 

> <Gold.Protein.RotatedAtoms>
  151.1051  133.5214  159.2607 H   0  0  0  0  0  0  0  0  0  0  0  0  # atno 6907 bound_to 6896
  151.2030  135.0450  159.8890 H   0  0  0  0  0  0  0  0  0  0  0  0  # atno 6908 bound_to 6896
  152.5446  134.0877  159.8317 H   0  0  0  0  0  0  0  0  0  0  0  0  # atno 6909 bound_to 6896
  145.4057  139.2341  143.3275 H   0  0  0  0  0  0  0  0  0  0  0  0  # atno 7974 bound_to 7965
  154.9573  140.3073  155.5047 H   0  0  0  0  0  0  0  0  0  0  0  0  # atno 8008 bound_to 7997
  156.2981  140.2308  156.4594 H   0  0  0  0  0  0  0  0  0  0  0  0  # atno 8009 bound_to 7997
  154.7998  140.0435  157.1252 H   0  0  0  0  0  0  0  0  0  0  0  0  # atno 8010 bound_to 7997
  140.6494  143.7583  150.7550 H   0  0  0  0  0  0  0  0  0  0  0  0  # atno 10167 bound_to 10162
  156.3527  130.4311  149.7691 H   0  0  0  0  0  0  0  0  0  0  0  0  # atno 10718 bound_to 10713
  153.0470  135.6505  154.0791 H   0  0  0  0  0  0  0  0  0  0  0  0  # atno 10763 bound_to 10752
  154.0487  135.2897  155.3345 H   0  0  0  0  0  0  0  0  0  0  0  0  # atno 10764 bound_to 10752
  154.6734  135.5347  153.8233 H   0  0  0  0  0  0  0  0  0  0  0  0  # atno 10765 bound_to 10752
  141.1652  133.7332  156.8829 H   0  0  0  0  0  0  0  0  0  0  0  0  # atno 11005 bound_to 11000
  146.2729  140.4762  142.8807 LP  0  0  0  0  0  0  0  0  0  0  0  0  # atno 17320 bound_to 7965
  144.8343  140.6757  143.6271 LP  0  0  0  0  0  0  0  0  0  0  0  0  # atno 17321 bound_to 7965
  140.1231  143.4594  152.2301 LP  0  0  0  0  0  0  0  0  0  0  0  0  # atno 17342 bound_to 10162
  139.5707  144.7461  151.3899 LP  0  0  0  0  0  0  0  0  0  0  0  0  # atno 17343 bound_to 10162
  156.4885  130.8074  151.3085 LP  0  0  0  0  0  0  0  0  0  0  0  0  # atno 17370 bound_to 10713
  157.7463  130.9983  150.2847 LP  0  0  0  0  0  0  0  0  0  0  0  0  # atno 17371 bound_to 10713
  140.1702  134.9105  157.2824 LP  0  0  0  0  0  0  0  0  0  0  0  0  # atno 17394 bound_to 11000
  140.2511  134.3682  155.7442 LP  0  0  0  0  0  0  0  0  0  0  0  0  # atno 17395 bound_to 11000

$$$$
