AV-unprocessed.smi:160|AV-procd|sdf|1372|dock6
  -GOLD-   2262019 93D 1   1.00000     0.00000
 Structure written by MMmdl.
 28 29  0  0  0  0  0  0  0  0  2 V2000
  145.8577  129.2966  153.4327 N   0  5  0  0  0  0  0  0  0  0  0  0
  146.6246  130.1207  154.1797 C   0  0  0  0  0  0  0  0  0  0  0  0
  147.0868  129.8740  155.2932 O   0  0  0  0  0  0  0  0  0  0  0  0
  146.9121  131.4589  153.5405 C   0  0  0  0  0  0  0  0  0  0  0  0
  147.7168  132.3719  154.1651 N   0  0  0  0  0  0  0  0  0  0  0  0
  147.6714  133.3460  153.2659 C   0  0  0  0  0  0  0  0  0  0  0  0
  146.9293  133.0633  152.1895 N   0  0  0  0  0  0  0  0  0  0  0  0
  146.5909  133.8745  150.9780 C   0  0  1  0  0  0  0  0  0  0  0  0
  145.8842  133.0574  150.0933 O   0  0  0  0  0  0  0  0  0  0  0  0
  144.4874  133.2330  150.3024 C   0  0  2  0  0  0  0  0  0  0  0  0
  143.6700  132.6847  149.1187 C   0  0  0  0  0  0  0  0  0  0  0  0
  144.0395  133.3431  147.9257 O   0  0  0  0  0  0  0  0  0  0  0  0
  144.3971  134.7475  150.5282 C   0  0  2  0  0  0  0  0  0  0  0  0
  144.3966  135.4365  149.2878 O   0  0  0  0  0  0  0  0  0  0  0  0
  145.6482  135.0331  151.3609 C   0  0  2  0  0  0  0  0  0  0  0  0
  146.1993  136.3119  151.1059 O   0  0  0  0  0  0  0  0  0  0  0  0
  146.4061  131.8251  152.3585 N   0  0  0  0  0  0  0  0  0  0  0  0
  147.5545  134.1769  150.5659 H   0  0  0  0  0  0  0  0  0  0  0  0
  144.1939  132.7290  151.2256 H   0  0  0  0  0  0  0  0  0  0  0  0
  143.4889  135.0213  151.0664 H   0  0  0  0  0  0  0  0  0  0  0  0
  145.3952  134.9661  152.4204 H   0  0  0  0  0  0  0  0  0  0  0  0
  144.8590  129.2207  153.6593 H   0  0  0  0  0  0  0  0  0  0  0  0
  148.1905  134.2841  153.3973 H   0  0  0  0  0  0  0  0  0  0  0  0
  143.8746  131.6223  148.9813 H   0  0  0  0  0  0  0  0  0  0  0  0
  142.5985  132.7911  149.2909 H   0  0  0  0  0  0  0  0  0  0  0  0
  144.9269  133.6553  148.0180 H   0  0  0  0  0  0  0  0  0  0  0  0
  144.9231  134.9441  148.6763 H   0  0  0  0  0  0  0  0  0  0  0  0
  147.1185  136.2881  151.3266 H   0  0  0  0  0  0  0  0  0  0  0  0
  1  2  1  0  0  0  0
  1 22  1  0  0  0  0
  2  3  2  0  0  0  0
  2  4  1  0  0  0  0
  4 17  2  0  0  0  0
  4  5  1  0  0  0  0
  5  6  2  0  0  0  0
  6  7  1  0  0  0  0
  6 23  1  0  0  0  0
  7  8  1  0  0  0  0
  7 17  1  0  0  0  0
  8 18  1  0  0  0  0
  8 15  1  0  0  0  0
  8  9  1  0  0  0  0
  9 10  1  0  0  0  0
 10 19  1  0  0  0  0
 10 11  1  0  0  0  0
 10 13  1  0  0  0  0
 11 12  1  0  0  0  0
 11 24  1  0  0  0  0
 11 25  1  0  0  0  0
 12 26  1  0  0  0  0
 13 20  1  0  0  0  0
 13 14  1  0  0  0  0
 13 15  1  0  0  0  0
 14 27  1  0  0  0  0
 15 21  1  0  0  0  0
 15 16  1  0  0  0  0
 16 28  1  0  0  0  0
M  CHG  1   1  -1
M  END
> <s_m_source_file>
AV-unprocessed.smi

> <i_m_source_file_index>
160

> <i_lp_mmshare_version>
43012

> <i_f3d_flags>
0

> <s_epik_input>
W05IMl1DKD1PKWMxbltjSF1uKG4xKVtDQEBIXTJPW0NASF0oW0NIMl1bT0hdKVtDQEBIXShbT0hdKVtDQEhdMltPSF0=

> <s_epik_cmdline>
J2VwaWtfcHl0aG9uJywgJy1waCcsICc3LjAnLCAnLXRuJywgJzgnLCAnLW1hJywgJzIwMCcsICctbWV0YWxfYmluZGluZycsICctaW1hZScsICc8aW5maWxlLm1hZT4nLCAnLW9tYWUnLCAnPG91dGZpbGUubWFlPic=

> <r_lp_tautomer_probability>
1

> <r_epik_Ionization_Penalty>
6.6993

> <r_epik_Ionization_Penalty_Charging>
6.6993

> <r_epik_Ionization_Penalty_Neutral>
6.01698e-06

> <r_epik_State_Penalty>
6.69929

> <r_epik_Charging_Adjusted_Penalty>
13.3986

> <i_epik_Tot_Q>
-1

> <i_epik_Tot_abs_Q>
1

> <r_epik_Metal_State_Penalty>
2.62798

> <b_epik_Metal_Only>
1

> <s_epik_Chemistry_Notes>
This compound contains an acetal/aminal-like group ( X-CH(R)-Y where X, Y are N, S, or O) that may be acid/base labile, releasing an aldehyde.

> <s_lp_Force_Field>
OPLS_2005

> <r_lp_Energy>
45.7221

> <b_lp_Chiralities_Consistent>
1

> <s_lp_Variant>
AV-unprocessed.smi:160-30

> <Gold.Version>
5.8.1

> <Gold.Id.Protein>
6NUR|6NUR_protein|mol2

> <Gold.PLP.Fitness>
42.7024

> <Gold.PLP.PLP>
-28.0306

> <Gold.PLP.part.hbond>
-5.5778

> <Gold.PLP.part.metal>
0.0000

> <Gold.PLP.part.buried>
-6.1896

> <Gold.PLP.part.nonpolar>
-16.9334

> <Gold.PLP.part.repulsive>
1.2609

> <Gold.PLP.ligand.clash>
0.0000

> <Gold.PLP.ligand.torsion>
0.1663

> <Gold.PLP.Chemscore.Hbond>
3.9913

> <Gold.PLP.Chemscore.CHOScore>
1.0000

> <Gold.PLP.Chemscore.Metal>
0.0000

> <Gold.Chemscore.Hbonds>
donor molecule, donor type, donor heavy atom, donor atom, acceptor molecule, acceptor atom, score
      L1  H     1    22       P1 10956  1.00
      L1  H    12    26       P1  7921  0.98
      L1  H    14    27       P1  7921  1.00
      L1  H    16    28       P1  7948  1.00
      L1  C     6    23       P1  7948  0.93

> <Gold.PLP.Chemscore.Internal.Correction>
0.0307

> <Gold.Rescore>
     Score         DG    S(hbond)    S(metal)    S(lipo)     H(rot)  DE(clash)    DE(int)     intcor
     11.50     -11.76       3.88        0.00      31.34       4.04       0.06       0.21       ----

> <Gold.Chemscore.Fitness>
11.4953

> <Gold.Chemscore.DG>
-11.7635

> <Gold.Chemscore.ZeroCoef>
-5.4800

> <Gold.Chemscore.Hbond>
3.8803

> <Gold.Chemscore.Metal>
0.0000

> <Gold.Chemscore.Lipo>
31.3364

> <Gold.Chemscore.Internal_Hbond>
0.0000

> <Gold.Chemscore.DEClash>
0.0582

> <Gold.Chemscore.DEInternal>
0.2099

> <Gold.Chemscore.Rot>
4.0403

> <Gold.Chemscore.Internal.Correction>
   9.000000E+99

> <Gold.Chemscore.Hbonds>
donor molecule, donor type, donor heavy atom, donor atom, acceptor molecule, acceptor atom, score
      L1  H     1    22       P1 10956  0.79
      L1  H    12    26       P1  7921  0.80
      L1  H    14    27       P1  7921  0.95
      L1  H    16    28       P1  7948  1.00

> <Gold.Chemscore.Hbond.Weighted>
-12.9602

> <Gold.Chemscore.Metal.Weighted>
-0.0000

> <Gold.Chemscore.Lipo.Weighted>
-3.6664

> <Gold.Chemscore.Internal_Hbond.Weighted>
0.0000

> <Gold.Chemscore.DEClash.Weighted>
0.0582

> <Gold.Chemscore.DEInternal.Weighted>
0.2099

> <Gold.Chemscore.Rot.Weighted>
10.3431

> <Gold.Chemscore.Internal.Correction.Weighted>
   9.000000E+99

> <Gold.Protein.RotatedTorsions>
[ 6907 6896 6895 6894 ] final   63.37 input  -60.11 | X-H torsion
[ 7974 7965 7964 7962 ] final  121.39 input  175.53 | X-H torsion
[ 8008 7997 7996 7995 ] final -168.10 input   59.86 | X-H torsion
[ 10167 10162 10161 10158 ] final -152.19 input  -65.29 | X-H torsion
[ 10718 10713 10712 10709 ] final  -84.51 input   66.30 | X-H torsion
[ 10763 10752 10751 10750 ] final   24.27 input  -60.55 | X-H torsion
[ 11005 11000 10999 10996 ] final -109.88 input  -57.11 | X-H torsion

> <Gold.Protein.ActiveResidues>
 VAL166  LYS551  ARG553  GLY616  TRP617  ASP618  TYR619  PRO620  LYS621  CYS622 
 ASP623  PHE694  ASN695  SER759  ASP760  ASP761  ALA762  ILE779  LEU786  VAL792 
 PHE793  MET794  SER795  GLU796  ALA797  LYS798  CYS799  TRP800  GLU811  SER814 

> <Gold.Protein.RotatedAtoms>
  152.4247  134.5890  159.9968 H   0  0  0  0  0  0  0  0  0  0  0  0  # atno 6907 bound_to 6896
  151.6029  133.3349  159.3059 H   0  0  0  0  0  0  0  0  0  0  0  0  # atno 6908 bound_to 6896
  150.8136  134.7343  159.6776 H   0  0  0  0  0  0  0  0  0  0  0  0  # atno 6909 bound_to 6896
  145.1198  139.3396  143.4720 H   0  0  0  0  0  0  0  0  0  0  0  0  # atno 7974 bound_to 7965
  155.8868  140.1018  157.1446 H   0  0  0  0  0  0  0  0  0  0  0  0  # atno 8008 bound_to 7997
  154.4011  140.1318  156.4330 H   0  0  0  0  0  0  0  0  0  0  0  0  # atno 8009 bound_to 7997
  155.7579  140.3463  155.5185 H   0  0  0  0  0  0  0  0  0  0  0  0  # atno 8010 bound_to 7997
  139.7202  143.8969  152.2500 H   0  0  0  0  0  0  0  0  0  0  0  0  # atno 10167 bound_to 10162
  156.0005  130.4700  150.4421 H   0  0  0  0  0  0  0  0  0  0  0  0  # atno 10718 bound_to 10713
  153.0776  135.6609  154.0113 H   0  0  0  0  0  0  0  0  0  0  0  0  # atno 10763 bound_to 10752
  153.9743  135.2961  155.3426 H   0  0  0  0  0  0  0  0  0  0  0  0  # atno 10764 bound_to 10752
  154.7168  135.5182  153.8821 H   0  0  0  0  0  0  0  0  0  0  0  0  # atno 10765 bound_to 10752
  141.0823  133.9199  157.2262 H   0  0  0  0  0  0  0  0  0  0  0  0  # atno 11005 bound_to 11000
  146.3521  140.1153  142.8602 LP  0  0  0  0  0  0  0  0  0  0  0  0  # atno 17320 bound_to 7965
  145.0753  140.9183  143.4858 LP  0  0  0  0  0  0  0  0  0  0  0  0  # atno 17321 bound_to 7965
  139.8863  144.6990  150.8821 LP  0  0  0  0  0  0  0  0  0  0  0  0  # atno 17342 bound_to 10162
  140.7752  143.3621  151.1807 LP  0  0  0  0  0  0  0  0  0  0  0  0  # atno 17343 bound_to 10162
  157.2462  131.0536  151.2407 LP  0  0  0  0  0  0  0  0  0  0  0  0  # atno 17370 bound_to 10713
  157.3573  130.7113  149.6479 LP  0  0  0  0  0  0  0  0  0  0  0  0  # atno 17371 bound_to 10713
  139.9638  135.0147  156.9332 LP  0  0  0  0  0  0  0  0  0  0  0  0  # atno 17394 bound_to 11000
  140.5441  134.0691  155.7350 LP  0  0  0  0  0  0  0  0  0  0  0  0  # atno 17395 bound_to 11000

$$$$
