AV-unprocessed.smi:1065|AV-procd|sdf|4667|dock5
  -GOLD-   22720 3183D 1   1.00000     0.00000
 Structure written by MMmdl.
 39 40  0  0  0  0  0  0  0  0  1 V2000
  153.0989  142.6926  162.5355 C   0  0  0  0  0  0  0  0  0  0  0  0
  152.4349  143.7381  161.6285 C   0  0  0  0  0  0  0  0  0  0  0  0
  152.5305  143.4182  160.1228 C   0  0  2  0  0  0  0  0  0  0  0  0
  151.6137  144.3520  159.3069 C   0  0  0  0  0  0  0  0  0  0  0  0
  151.6817  144.0542  157.7985 C   0  0  0  0  0  0  0  0  0  0  0  0
  151.3616  142.5818  157.4717 C   0  0  2  0  0  0  0  0  0  0  0  0
  149.8569  142.2672  157.6210 C   0  0  0  0  0  0  0  0  0  0  0  0
  149.5498  140.9241  157.1483 N   0  0  0  0  0  0  0  0  0  0  0  0
  149.7680  140.4772  155.9031 C   0  0  0  0  0  0  0  0  0  0  0  0
  150.3205  141.1433  155.0284 O   0  0  0  0  0  0  0  0  0  0  0  0
  149.2771  139.0626  155.5936 C   0  0  0  0  0  0  0  0  0  0  0  0
  150.3936  138.1446  155.4624 N   0  0  0  0  0  0  0  0  0  0  0  0
  150.8680  137.4861  154.4028 C   0  0  0  0  0  0  0  0  0  0  0  0
  151.9020  136.7239  154.7242 N   0  0  0  0  0  0  0  0  0  0  0  0
  152.0512  136.9514  156.0824 N   0  0  0  0  0  0  0  0  0  0  0  0
  151.1588  137.7932  156.5263 N   0  0  0  0  0  0  0  0  0  0  0  0
  152.2773  141.6522  158.2996 C   0  0  0  0  0  0  0  0  0  0  0  0
  152.2005  141.9432  159.8082 C   0  0  0  0  0  0  0  0  0  0  0  0
  153.0692  143.0132  163.5771 H   0  0  0  0  0  0  0  0  0  0  0  0
  154.1445  142.5432  162.2653 H   0  0  0  0  0  0  0  0  0  0  0  0
  152.5941  141.7287  162.4784 H   0  0  0  0  0  0  0  0  0  0  0  0
  151.3903  143.8613  161.9170 H   0  0  0  0  0  0  0  0  0  0  0  0
  152.9141  144.6993  161.8179 H   0  0  0  0  0  0  0  0  0  0  0  0
  153.5569  143.6093  159.8059 H   0  0  0  0  0  0  0  0  0  0  0  0
  150.5851  144.2597  159.6571 H   0  0  0  0  0  0  0  0  0  0  0  0
  151.8974  145.3910  159.4785 H   0  0  0  0  0  0  0  0  0  0  0  0
  151.0059  144.7169  157.2570 H   0  0  0  0  0  0  0  0  0  0  0  0
  152.6843  144.2886  157.4385 H   0  0  0  0  0  0  0  0  0  0  0  0
  151.6084  142.4262  156.4202 H   0  0  0  0  0  0  0  0  0  0  0  0
  149.5455  142.3716  158.6610 H   0  0  0  0  0  0  0  0  0  0  0  0
  149.2662  142.9790  157.0433 H   0  0  0  0  0  0  0  0  0  0  0  0
  149.0936  140.3042  157.8023 H   0  0  0  0  0  0  0  0  0  0  0  0
  148.6242  138.7071  156.3915 H   0  0  0  0  0  0  0  0  0  0  0  0
  148.6933  139.0633  154.6717 H   0  0  0  0  0  0  0  0  0  0  0  0
  150.4548  137.5599  153.4073 H   0  0  0  0  0  0  0  0  0  0  0  0
  152.0456  140.6035  158.1113 H   0  0  0  0  0  0  0  0  0  0  0  0
  153.3081  141.7879  157.9701 H   0  0  0  0  0  0  0  0  0  0  0  0
  152.8954  141.2816  160.3250 H   0  0  0  0  0  0  0  0  0  0  0  0
  151.2074  141.6941  160.1835 H   0  0  0  0  0  0  0  0  0  0  0  0
  1  2  1  0  0  0  0
  1 19  1  0  0  0  0
  1 20  1  0  0  0  0
  1 21  1  0  0  0  0
  2  3  1  0  0  0  0
  2 22  1  0  0  0  0
  2 23  1  0  0  0  0
  3 18  1  0  0  0  0
  3  4  1  0  0  0  0
  3 24  1  0  0  0  0
  4  5  1  0  0  0  0
  4 25  1  0  0  0  0
  4 26  1  0  0  0  0
  5  6  1  0  0  0  0
  5 27  1  0  0  0  0
  5 28  1  0  0  0  0
  6  7  1  0  0  0  0
  6 17  1  0  0  0  0
  6 29  1  0  0  0  0
  7  8  1  0  0  0  0
  7 30  1  0  0  0  0
  7 31  1  0  0  0  0
  8  9  1  0  0  0  0
  8 32  1  0  0  0  0
  9 10  2  0  0  0  0
  9 11  1  0  0  0  0
 11 12  1  0  0  0  0
 11 33  1  0  0  0  0
 11 34  1  0  0  0  0
 12 16  1  0  0  0  0
 12 13  1  0  0  0  0
 13 14  2  0  0  0  0
 13 35  1  0  0  0  0
 14 15  1  0  0  0  0
 15 16  2  0  0  0  0
 17 18  1  0  0  0  0
 17 36  1  0  0  0  0
 17 37  1  0  0  0  0
 18 38  1  0  0  0  0
 18 39  1  0  0  0  0
M  END
> <s_m_source_file>
AV-unprocessed.smi

> <i_m_source_file_index>
1065

> <i_lp_mmshare_version>
43012

> <i_f3d_flags>
0

> <s_epik_input>
W0NIM11bQ0gyXVtDQEBIXTFbQ0gyXVtDSDJdW0NASF0oW0NIMl1bQ0gyXTEpW0NIMl1bTkhdQyg9TylbQ0gyXW4yW2NIXW5ubjI=

> <s_epik_cmdline>
J2VwaWtfcHl0aG9uJywgJy1waCcsICc3LjAnLCAnLXRuJywgJzgnLCAnLW1hJywgJzIwMCcsICctbWV0YWxfYmluZGluZycsICctaW1hZScsICc8aW5maWxlLm1hZT4nLCAnLW9tYWUnLCAnPG91dGZpbGUubWFlPic=

> <r_lp_tautomer_probability>
1

> <r_epik_Ionization_Penalty>
4.54759e-07

> <r_epik_Ionization_Penalty_Charging>
0

> <r_epik_Ionization_Penalty_Neutral>
4.54759e-07

> <r_epik_State_Penalty>
-0

> <r_epik_Charging_Adjusted_Penalty>
0

> <i_epik_Tot_Q>
0

> <i_epik_Tot_abs_Q>
0

> <r_epik_Metal_State_Penalty>
-0

> <b_epik_Metal_Only>
0

> <s_lp_Force_Field>
OPLS_2005

> <r_lp_Energy>
15.297

> <b_lp_Chiralities_Consistent>
1

> <s_lp_Variant>
AV-unprocessed.smi:1065-2

> <Gold.Version>
5.8.1

> <Gold.Id.Protein>
6NUR|6NUR_protein|mol2

> <Gold.PLP.Fitness>
44.9218

> <Gold.PLP.PLP>
-37.3191

> <Gold.PLP.part.hbond>
-2.8563

> <Gold.PLP.part.metal>
0.0000

> <Gold.PLP.part.buried>
-4.2379

> <Gold.PLP.part.nonpolar>
-29.9201

> <Gold.PLP.part.repulsive>
0.2924

> <Gold.PLP.ligand.clash>
0.0000

> <Gold.PLP.ligand.torsion>
0.2930

> <Gold.PLP.Chemscore.Hbond>
1.6400

> <Gold.PLP.Chemscore.CHOScore>
1.0825

> <Gold.PLP.Chemscore.Metal>
0.0000

> <Gold.Chemscore.Hbonds>
donor molecule, donor type, donor heavy atom, donor atom, acceptor molecule, acceptor atom, score
      P1  H  7989  7998       L1    10  0.64
      P1  H 10752 10763       L1    14  1.00
      L1  C    13    35       P1  7948  0.71
      L1  C    13    35       P1  7949  0.37

> <Gold.PLP.Chemscore.Internal.Correction>
0.0210

> <Gold.Rescore>
     Score         DG    S(hbond)    S(metal)    S(lipo)     H(rot)  DE(clash)    DE(int)     intcor
     14.59     -16.00       1.59        0.00      98.06       2.45       0.04       1.37       ----

> <Gold.Chemscore.Fitness>
14.5906

> <Gold.Chemscore.DG>
-15.9984

> <Gold.Chemscore.ZeroCoef>
-5.4800

> <Gold.Chemscore.Hbond>
1.5928

> <Gold.Chemscore.Metal>
0.0000

> <Gold.Chemscore.Lipo>
98.0628

> <Gold.Chemscore.Internal_Hbond>
0.0000

> <Gold.Chemscore.DEClash>
0.0385

> <Gold.Chemscore.DEInternal>
1.3693

> <Gold.Chemscore.Rot>
2.4512

> <Gold.Chemscore.Internal.Correction>
   9.000000E+99

> <Gold.Chemscore.Hbonds>
donor molecule, donor type, donor heavy atom, donor atom, acceptor molecule, acceptor atom, score
      P1  H  7989  7998       L1    10  0.60
      P1  H 10752 10763       L1    14  0.56

> <Gold.Chemscore.Hbond.Weighted>
-5.3201

> <Gold.Chemscore.Metal.Weighted>
-0.0000

> <Gold.Chemscore.Lipo.Weighted>
-11.4733

> <Gold.Chemscore.Internal_Hbond.Weighted>
0.0000

> <Gold.Chemscore.DEClash.Weighted>
0.0385

> <Gold.Chemscore.DEInternal.Weighted>
1.3693

> <Gold.Chemscore.Rot.Weighted>
6.2750

> <Gold.Chemscore.Internal.Correction.Weighted>
   9.000000E+99

> <Gold.Protein.RotatedTorsions>
[ 6907 6896 6895 6894 ] final   41.70 input  -60.11 | X-H torsion
[ 7974 7965 7964 7962 ] final  170.64 input  175.53 | X-H torsion
[ 8008 7997 7996 7995 ] final -123.05 input   59.86 | X-H torsion
[ 10167 10162 10161 10158 ] final  120.56 input  -65.29 | X-H torsion
[ 10718 10713 10712 10709 ] final   73.52 input   66.30 | X-H torsion
[ 10763 10752 10751 10750 ] final   43.09 input  -60.55 | X-H torsion
[ 11005 11000 10999 10996 ] final  -51.11 input  -57.11 | X-H torsion

> <Gold.Protein.ActiveResidues>
 VAL166  LYS551  ARG553  GLY616  TRP617  ASP618  TYR619  PRO620  LYS621  CYS622 
 ASP623  PHE694  ASN695  SER759  ASP760  ASP761  ALA762  ILE779  LEU786  VAL792 
 PHE793  MET794  SER795  GLU796  ALA797  LYS798  CYS799  TRP800  GLU811  SER814 

> <Gold.Protein.RotatedAtoms>
  152.1985  134.8609  160.0510 H   0  0  0  0  0  0  0  0  0  0  0  0  # atno 6907 bound_to 6896
  151.9471  133.3650  159.3994 H   0  0  0  0  0  0  0  0  0  0  0  0  # atno 6908 bound_to 6896
  150.6950  134.4303  159.5289 H   0  0  0  0  0  0  0  0  0  0  0  0  # atno 6909 bound_to 6896
  144.7318  139.9232  143.6421 H   0  0  0  0  0  0  0  0  0  0  0  0  # atno 7974 bound_to 7965
  155.1743  140.0409  157.2869 H   0  0  0  0  0  0  0  0  0  0  0  0  # atno 8008 bound_to 7997
  154.6248  140.2509  155.7478 H   0  0  0  0  0  0  0  0  0  0  0  0  # atno 8009 bound_to 7997
  156.2453  140.2887  156.0572 H   0  0  0  0  0  0  0  0  0  0  0  0  # atno 8010 bound_to 7997
  139.5974  144.7046  151.3144 H   0  0  0  0  0  0  0  0  0  0  0  0  # atno 10167 bound_to 10162
  157.6551  130.9632  150.1081 H   0  0  0  0  0  0  0  0  0  0  0  0  # atno 10718 bound_to 10713
  152.9868  135.6112  154.3056 H   0  0  0  0  0  0  0  0  0  0  0  0  # atno 10763 bound_to 10752
  154.2774  135.2778  155.2714 H   0  0  0  0  0  0  0  0  0  0  0  0  # atno 10764 bound_to 10752
  154.5068  135.5852  153.6630 H   0  0  0  0  0  0  0  0  0  0  0  0  # atno 10765 bound_to 10752
  141.0853  133.6644  156.3830 H   0  0  0  0  0  0  0  0  0  0  0  0  # atno 11005 bound_to 11000
  146.0913  139.3903  143.0404 LP  0  0  0  0  0  0  0  0  0  0  0  0  # atno 17320 bound_to 7965
  145.7706  140.9898  143.1151 LP  0  0  0  0  0  0  0  0  0  0  0  0  # atno 17321 bound_to 7965
  140.7223  143.7102  150.7775 LP  0  0  0  0  0  0  0  0  0  0  0  0  # atno 17342 bound_to 10162
  140.0671  143.5097  152.2598 LP  0  0  0  0  0  0  0  0  0  0  0  0  # atno 17343 bound_to 10162
  156.1985  130.3659  149.8818 LP  0  0  0  0  0  0  0  0  0  0  0  0  # atno 17370 bound_to 10713
  156.6728  130.8827  151.3564 LP  0  0  0  0  0  0  0  0  0  0  0  0  # atno 17371 bound_to 10713
  140.5376  134.6151  157.5370 LP  0  0  0  0  0  0  0  0  0  0  0  0  # atno 17394 bound_to 11000
  139.9671  134.7355  156.0116 LP  0  0  0  0  0  0  0  0  0  0  0  0  # atno 17395 bound_to 11000

$$$$
