AV-unprocessed.smi:2747|AV-procd|sdf|10577|dock6
  -GOLD-   2272015 33D 1   1.00000     0.00000
 Structure written by MMmdl.
 24 25  0  0  0  0  0  0  0  0  1 V2000
  154.3738  136.6773  161.6312 O   0  0  0  0  0  0  0  0  0  0  0  0
  154.4103  137.6558  162.6538 C   0  0  2  0  0  0  0  0  0  0  0  0
  155.3222  138.8218  162.2216 C   0  0  0  0  0  0  0  0  0  0  0  0
  154.7718  139.5728  161.1073 N   0  0  0  0  0  0  0  0  0  0  0  0
  154.8966  139.0797  159.8428 N   0  0  0  0  0  0  0  0  0  0  0  0
  154.3414  139.9132  159.0146 N   0  0  0  0  0  0  0  0  0  0  0  0
  153.8415  140.9767  159.7473 C   0  0  0  0  0  0  0  0  0  0  0  0
  153.1532  142.1477  159.3592 C   0  0  0  0  0  0  0  0  0  0  0  0
  152.7501  143.0934  160.3274 C   0  0  0  0  0  0  0  0  0  0  0  0
  151.9121  144.5141  159.8130 Cl  0  0  0  0  0  0  0  0  0  0  0  0
  153.0318  142.8769  161.6981 C   0  0  0  0  0  0  0  0  0  0  0  0
  152.5486  144.0248  162.8955 Cl  0  0  0  0  0  0  0  0  0  0  0  0
  153.7163  141.7124  162.0998 C   0  0  0  0  0  0  0  0  0  0  0  0
  154.1080  140.7841  161.1202 C   0  0  0  0  0  0  0  0  0  0  0  0
  154.8645  136.9978  163.9705 C   0  0  0  0  0  0  0  0  0  0  0  0
  156.0171  136.3529  163.7883 F   0  0  0  0  0  0  0  0  0  0  0  0
  155.0086  137.9071  164.9353 F   0  0  0  0  0  0  0  0  0  0  0  0
  153.9517  136.1069  164.3577 F   0  0  0  0  0  0  0  0  0  0  0  0
  154.7128  135.8665  161.9786 H   0  0  0  0  0  0  0  0  0  0  0  0
  153.3938  138.0294  162.7849 H   0  0  0  0  0  0  0  0  0  0  0  0
  155.4816  139.5084  163.0541 H   0  0  0  0  0  0  0  0  0  0  0  0
  156.3066  138.4499  161.9350 H   0  0  0  0  0  0  0  0  0  0  0  0
  152.9359  142.3192  158.3151 H   0  0  0  0  0  0  0  0  0  0  0  0
  153.9382  141.5359  163.1419 H   0  0  0  0  0  0  0  0  0  0  0  0
  1  2  1  0  0  0  0
  1 19  1  0  0  0  0
  2  3  1  0  0  0  0
  2 15  1  0  0  0  0
  2 20  1  0  0  0  0
  3  4  1  0  0  0  0
  3 21  1  0  0  0  0
  3 22  1  0  0  0  0
  4 14  1  0  0  0  0
  4  5  1  0  0  0  0
  5  6  2  0  0  0  0
  6  7  1  0  0  0  0
  7 14  2  0  0  0  0
  7  8  1  0  0  0  0
  8  9  2  0  0  0  0
  8 23  1  0  0  0  0
  9 10  1  0  0  0  0
  9 11  1  0  0  0  0
 11 12  1  0  0  0  0
 11 13  2  0  0  0  0
 13 14  1  0  0  0  0
 13 24  1  0  0  0  0
 15 16  1  0  0  0  0
 15 17  1  0  0  0  0
 15 18  1  0  0  0  0
M  END
> <s_m_source_file>
AV-unprocessed.smi

> <i_m_source_file_index>
2747

> <i_lp_mmshare_version>
43012

> <i_f3d_flags>
0

> <s_epik_input>
RkMoRikoRilbQ0BIXShbT0hdKVtDSDJdbihubjEpYyhjMTIpW2NIXWMoQ2wpYyhDbClbY0hdMg==

> <s_epik_cmdline>
J2VwaWtfcHl0aG9uJywgJy1waCcsICc3LjAnLCAnLXRuJywgJzgnLCAnLW1hJywgJzIwMCcsICctbWV0YWxfYmluZGluZycsICctaW1hZScsICc8aW5maWxlLm1hZT4nLCAnLW9tYWUnLCAnPG91dGZpbGUubWFlPic=

> <r_lp_tautomer_probability>
1

> <r_epik_Ionization_Penalty>
0.0735676

> <r_epik_Ionization_Penalty_Charging>
0

> <r_epik_Ionization_Penalty_Neutral>
0.0735676

> <r_epik_State_Penalty>
0.0647209

> <r_epik_Charging_Adjusted_Penalty>
0.0647209

> <i_epik_Tot_Q>
0

> <i_epik_Tot_abs_Q>
0

> <r_epik_Metal_State_Penalty>
0.0647209

> <b_epik_Metal_Only>
0

> <s_lp_Force_Field>
OPLS_2005

> <r_lp_Energy>
9.1287

> <b_lp_Chiralities_Consistent>
1

> <s_lp_Variant>
AV-unprocessed.smi:2747-1

> <Gold.Version>
5.8.1

> <Gold.Id.Protein>
6NUR|6NUR_protein|mol2

> <Gold.PLP.Fitness>
45.6980

> <Gold.PLP.PLP>
-43.4263

> <Gold.PLP.part.hbond>
-1.0000

> <Gold.PLP.part.metal>
0.0000

> <Gold.PLP.part.buried>
-1.9289

> <Gold.PLP.part.nonpolar>
-39.8178

> <Gold.PLP.part.repulsive>
0.0000

> <Gold.PLP.ligand.clash>
0.0000

> <Gold.PLP.ligand.torsion>
0.3684

> <Gold.PLP.Chemscore.Hbond>
1.0000

> <Gold.PLP.Chemscore.CHOScore>
0.0000

> <Gold.PLP.Chemscore.Metal>
0.0000

> <Gold.Chemscore.Hbonds>
donor molecule, donor type, donor heavy atom, donor atom, acceptor molecule, acceptor atom, score
      P1  H  7997  8009       L1     6  1.00

> <Gold.PLP.Chemscore.Internal.Correction>
0.0086

> <Gold.Rescore>
     Score         DG    S(hbond)    S(metal)    S(lipo)     H(rot)  DE(clash)    DE(int)     intcor
     15.56     -16.54       0.94        0.00     109.70       1.92       0.56       0.42       ----

> <Gold.Chemscore.Fitness>
15.5603

> <Gold.Chemscore.DG>
-16.5424

> <Gold.Chemscore.ZeroCoef>
-5.4800

> <Gold.Chemscore.Hbond>
0.9436

> <Gold.Chemscore.Metal>
0.0000

> <Gold.Chemscore.Lipo>
109.7017

> <Gold.Chemscore.Internal_Hbond>
0.0000

> <Gold.Chemscore.DEClash>
0.5629

> <Gold.Chemscore.DEInternal>
0.4192

> <Gold.Chemscore.Rot>
1.9235

> <Gold.Chemscore.Internal.Correction>
   9.000000E+99

> <Gold.Chemscore.Hbonds>
donor molecule, donor type, donor heavy atom, donor atom, acceptor molecule, acceptor atom, score
      P1  H  7997  8009       L1     6  0.93

> <Gold.Chemscore.Hbond.Weighted>
-3.1515

> <Gold.Chemscore.Metal.Weighted>
-0.0000

> <Gold.Chemscore.Lipo.Weighted>
-12.8351

> <Gold.Chemscore.Internal_Hbond.Weighted>
0.0000

> <Gold.Chemscore.DEClash.Weighted>
0.5629

> <Gold.Chemscore.DEInternal.Weighted>
0.4192

> <Gold.Chemscore.Rot.Weighted>
4.9242

> <Gold.Chemscore.Internal.Correction.Weighted>
   9.000000E+99

> <Gold.Protein.RotatedTorsions>
[ 6907 6896 6895 6894 ] final -102.42 input  -60.11 | X-H torsion
[ 7974 7965 7964 7962 ] final   37.28 input  175.53 | X-H torsion
[ 8008 7997 7996 7995 ] final  123.40 input   59.86 | X-H torsion
[ 10167 10162 10161 10158 ] final  -59.10 input  -65.29 | X-H torsion
[ 10718 10713 10712 10709 ] final    1.26 input   66.30 | X-H torsion
[ 10763 10752 10751 10750 ] final  -80.28 input  -60.55 | X-H torsion
[ 11005 11000 10999 10996 ] final   69.03 input  -57.11 | X-H torsion

> <Gold.Protein.ActiveResidues>
 VAL166  LYS551  ARG553  GLY616  TRP617  ASP618  TYR619  PRO620  LYS621  CYS622 
 ASP623  PHE694  ASN695  SER759  ASP760  ASP761  ALA762  ILE779  LEU786  VAL792 
 PHE793  MET794  SER795  GLU796  ALA797  LYS798  CYS799  TRP800  GLU811  SER814 

> <Gold.Protein.RotatedAtoms>
  150.7195  134.0584  159.3822 H   0  0  0  0  0  0  0  0  0  0  0  0  # atno 6907 bound_to 6896
  151.8563  135.0538  160.0474 H   0  0  0  0  0  0  0  0  0  0  0  0  # atno 6908 bound_to 6896
  152.2752  133.5383  159.5500 H   0  0  0  0  0  0  0  0  0  0  0  0  # atno 6909 bound_to 6896
  146.1149  139.5914  142.9327 H   0  0  0  0  0  0  0  0  0  0  0  0  # atno 7974 bound_to 7965
  156.2764  140.2763  156.1622 H   0  0  0  0  0  0  0  0  0  0  0  0  # atno 8008 bound_to 7997
  155.0742  140.0387  157.2636 H   0  0  0  0  0  0  0  0  0  0  0  0  # atno 8009 bound_to 7997
  154.7016  140.2650  155.6720 H   0  0  0  0  0  0  0  0  0  0  0  0  # atno 8010 bound_to 7997
  140.6156  143.2401  151.5604 H   0  0  0  0  0  0  0  0  0  0  0  0  # atno 10167 bound_to 10162
  156.8455  130.5535  149.5674 H   0  0  0  0  0  0  0  0  0  0  0  0  # atno 10718 bound_to 10713
  154.5492  135.5666  153.6907 H   0  0  0  0  0  0  0  0  0  0  0  0  # atno 10763 bound_to 10752
  152.9985  135.6246  154.2397 H   0  0  0  0  0  0  0  0  0  0  0  0  # atno 10764 bound_to 10752
  154.2331  135.2865  155.2862 H   0  0  0  0  0  0  0  0  0  0  0  0  # atno 10765 bound_to 10752
  139.9677  134.6952  156.0511 H   0  0  0  0  0  0  0  0  0  0  0  0  # atno 11005 bound_to 11000
  145.5586  141.0406  143.2238 LP  0  0  0  0  0  0  0  0  0  0  0  0  # atno 17320 bound_to 7965
  144.7544  139.7111  143.7260 LP  0  0  0  0  0  0  0  0  0  0  0  0  # atno 17321 bound_to 7965
  139.5396  144.2684  152.1323 LP  0  0  0  0  0  0  0  0  0  0  0  0  # atno 17342 bound_to 10162
  140.1893  144.4768  150.6487 LP  0  0  0  0  0  0  0  0  0  0  0  0  # atno 17343 bound_to 10162
  156.0857  130.5856  150.9643 LP  0  0  0  0  0  0  0  0  0  0  0  0  # atno 17370 bound_to 10713
  157.6332  131.0919  150.8400 LP  0  0  0  0  0  0  0  0  0  0  0  0  # atno 17371 bound_to 10713
  141.1357  133.6575  156.3587 LP  0  0  0  0  0  0  0  0  0  0  0  0  # atno 17394 bound_to 11000
  140.5360  134.6166  157.5365 LP  0  0  0  0  0  0  0  0  0  0  0  0  # atno 17395 bound_to 11000

$$$$
