AV-unprocessed.smi:2779|AV-procd|sdf|10712|dock8
  -GOLD-   2272015153D 1   1.00000     0.00000
 Structure written by MMmdl.
 38 39  0  0  0  0  0  0  0  0  1 V2000
  149.6055  136.3827  159.4568 O   0  0  0  0  0  0  0  0  0  0  0  0
  149.6528  137.0785  158.4428 C   0  0  0  0  0  0  0  0  0  0  0  0
  148.4625  137.5876  157.7658 C   0  0  0  0  0  0  0  0  0  0  0  0
  148.5486  138.3536  156.6572 C   0  0  0  0  0  0  0  0  0  0  0  0
  149.8559  138.6834  156.1147 C   0  0  0  0  0  0  0  0  0  0  0  0
  150.0576  139.5322  154.8836 C   0  0  0  0  0  0  0  0  0  0  0  0
  150.7934  138.8921  153.9744 F   0  0  0  0  0  0  0  0  0  0  0  0
  148.8794  139.8350  154.3375 F   0  0  0  0  0  0  0  0  0  0  0  0
  150.6777  140.6674  155.2069 F   0  0  0  0  0  0  0  0  0  0  0  0
  150.9140  138.2334  156.7084 N   0  0  0  0  0  0  0  0  0  0  0  0
  150.8228  137.4495  157.8464 N   0  0  0  0  0  0  0  0  0  0  0  0
  152.1209  137.0528  158.4041 C   0  0  0  0  0  0  0  0  0  0  0  0
  153.0554  138.2677  158.5972 C   0  0  1  0  0  0  0  0  0  0  0  0
  153.2464  138.9083  157.3516 O   0  0  0  0  0  0  0  0  0  0  0  0
  152.4639  139.3153  159.5529 C   0  0  0  0  0  0  0  0  0  0  0  0
  153.0821  140.5686  159.3101 O   0  0  0  0  0  0  0  0  0  0  0  0
  153.0122  141.4422  160.4237 C   0  0  0  0  0  0  0  0  0  0  0  0
  152.6858  142.8570  159.9919 C   0  0  0  0  0  0  0  0  0  0  0  0
  152.2099  143.7890  160.9375 C   0  0  0  0  0  0  0  0  0  0  0  0
  151.9046  145.1058  160.5414 C   0  0  0  0  0  0  0  0  0  0  0  0
  152.0772  145.4955  159.1990 C   0  0  0  0  0  0  0  0  0  0  0  0
  152.5554  144.5681  158.2530 C   0  0  0  0  0  0  0  0  0  0  0  0
  152.8594  143.2506  158.6484 C   0  0  0  0  0  0  0  0  0  0  0  0
  154.0276  137.9523  158.9787 H   0  0  0  0  0  0  0  0  0  0  0  0
  147.4888  137.3447  158.1654 H   0  0  0  0  0  0  0  0  0  0  0  0
  147.6545  138.7195  156.1747 H   0  0  0  0  0  0  0  0  0  0  0  0
  152.0160  136.4839  159.3300 H   0  0  0  0  0  0  0  0  0  0  0  0
  152.5782  136.3521  157.7031 H   0  0  0  0  0  0  0  0  0  0  0  0
  152.4140  138.9558  156.9068 H   0  0  0  0  0  0  0  0  0  0  0  0
  151.3894  139.4087  159.3844 H   0  0  0  0  0  0  0  0  0  0  0  0
  152.6086  139.0128  160.5915 H   0  0  0  0  0  0  0  0  0  0  0  0
  152.2556  141.0901  161.1269 H   0  0  0  0  0  0  0  0  0  0  0  0
  153.9652  141.4489  160.9556 H   0  0  0  0  0  0  0  0  0  0  0  0
  152.0780  143.4954  161.9687 H   0  0  0  0  0  0  0  0  0  0  0  0
  151.5384  145.8169  161.2672 H   0  0  0  0  0  0  0  0  0  0  0  0
  151.8433  146.5053  158.8953 H   0  0  0  0  0  0  0  0  0  0  0  0
  152.6894  144.8674  157.2240 H   0  0  0  0  0  0  0  0  0  0  0  0
  153.2270  142.5450  157.9178 H   0  0  0  0  0  0  0  0  0  0  0  0
  1  2  2  0  0  0  0
  2 11  1  0  0  0  0
  2  3  1  0  0  0  0
  3  4  2  0  0  0  0
  3 25  1  0  0  0  0
  4  5  1  0  0  0  0
  4 26  1  0  0  0  0
  5  6  1  0  0  0  0
  5 10  2  0  0  0  0
  6  7  1  0  0  0  0
  6  8  1  0  0  0  0
  6  9  1  0  0  0  0
 10 11  1  0  0  0  0
 11 12  1  0  0  0  0
 12 13  1  0  0  0  0
 12 27  1  0  0  0  0
 12 28  1  0  0  0  0
 13 24  1  0  0  0  0
 13 14  1  0  0  0  0
 13 15  1  0  0  0  0
 14 29  1  0  0  0  0
 15 16  1  0  0  0  0
 15 30  1  0  0  0  0
 15 31  1  0  0  0  0
 16 17  1  0  0  0  0
 17 18  1  0  0  0  0
 17 32  1  0  0  0  0
 17 33  1  0  0  0  0
 18 23  1  0  0  0  0
 18 19  2  0  0  0  0
 19 20  1  0  0  0  0
 19 34  1  0  0  0  0
 20 21  2  0  0  0  0
 20 35  1  0  0  0  0
 21 22  1  0  0  0  0
 21 36  1  0  0  0  0
 22 23  2  0  0  0  0
 22 37  1  0  0  0  0
 23 38  1  0  0  0  0
M  END
> <s_m_source_file>
AV-unprocessed.smi

> <i_m_source_file_index>
2779

> <i_lp_mmshare_version>
43012

> <i_f3d_flags>
0

> <s_epik_input>
Tz1jMVtjSF1bY0hdYyhDKEYpKEYpRilubjFbQ0gyXVtDQEhdKFtPSF0pW0NIMl1PW0NIMl1jMltjSF1bY0hdW2NIXVtjSF1bY0hdMg==

> <s_epik_cmdline>
J2VwaWtfcHl0aG9uJywgJy1waCcsICc3LjAnLCAnLXRuJywgJzgnLCAnLW1hJywgJzIwMCcsICctbWV0YWxfYmluZGluZycsICctaW1hZScsICc8aW5maWxlLm1hZT4nLCAnLW9tYWUnLCAnPG91dGZpbGUubWFlPic=

> <r_lp_tautomer_probability>
1

> <r_epik_Ionization_Penalty>
6.7226e-08

> <r_epik_Ionization_Penalty_Charging>
6.11342e-09

> <r_epik_Ionization_Penalty_Neutral>
6.11126e-08

> <r_epik_State_Penalty>
-0

> <r_epik_Charging_Adjusted_Penalty>
6.11342e-09

> <i_epik_Tot_Q>
0

> <i_epik_Tot_abs_Q>
0

> <r_epik_Metal_State_Penalty>
-0

> <b_epik_Metal_Only>
0

> <s_lp_Force_Field>
OPLS_2005

> <r_lp_Energy>
32.3095

> <b_lp_Chiralities_Consistent>
1

> <s_lp_Variant>
AV-unprocessed.smi:2779-2

> <Gold.Version>
5.8.1

> <Gold.Id.Protein>
6NUR|6NUR_protein|mol2

> <Gold.PLP.Fitness>
49.9299

> <Gold.PLP.PLP>
-45.7874

> <Gold.PLP.part.hbond>
-2.0000

> <Gold.PLP.part.metal>
0.0000

> <Gold.PLP.part.buried>
-2.7625

> <Gold.PLP.part.nonpolar>
-40.0251

> <Gold.PLP.part.repulsive>
0.0000

> <Gold.PLP.ligand.clash>
0.0000

> <Gold.PLP.ligand.torsion>
1.0053

> <Gold.PLP.Chemscore.Hbond>
2.0000

> <Gold.PLP.Chemscore.CHOScore>
0.0000

> <Gold.PLP.Chemscore.Metal>
0.0000

> <Gold.Chemscore.Hbonds>
donor molecule, donor type, donor heavy atom, donor atom, acceptor molecule, acceptor atom, score
      P1  H  6896  6909       L1     1  1.00
      P1  H  7997  8009       L1    14  1.00

> <Gold.PLP.Chemscore.Internal.Correction>
0.1532

> <Gold.Rescore>
     Score         DG    S(hbond)    S(metal)    S(lipo)     H(rot)  DE(clash)    DE(int)     intcor
     17.04     -17.95       1.98        0.00     111.44       2.80       0.07       0.84       ----

> <Gold.Chemscore.Fitness>
17.0396

> <Gold.Chemscore.DG>
-17.9453

> <Gold.Chemscore.ZeroCoef>
-5.4800

> <Gold.Chemscore.Hbond>
1.9761

> <Gold.Chemscore.Metal>
0.0000

> <Gold.Chemscore.Lipo>
111.4433

> <Gold.Chemscore.Internal_Hbond>
0.0000

> <Gold.Chemscore.DEClash>
0.0668

> <Gold.Chemscore.DEInternal>
0.8389

> <Gold.Chemscore.Rot>
2.8022

> <Gold.Chemscore.Internal.Correction>
   9.000000E+99

> <Gold.Chemscore.Hbonds>
donor molecule, donor type, donor heavy atom, donor atom, acceptor molecule, acceptor atom, score
      P1  H  6896  6909       L1     1  0.97
      P1  H  7997  8009       L1    14  0.94

> <Gold.Chemscore.Hbond.Weighted>
-6.6001

> <Gold.Chemscore.Metal.Weighted>
-0.0000

> <Gold.Chemscore.Lipo.Weighted>
-13.0389

> <Gold.Chemscore.Internal_Hbond.Weighted>
0.0000

> <Gold.Chemscore.DEClash.Weighted>
0.0668

> <Gold.Chemscore.DEInternal.Weighted>
0.8389

> <Gold.Chemscore.Rot.Weighted>
7.1736

> <Gold.Chemscore.Internal.Correction.Weighted>
   9.000000E+99

> <Gold.Protein.RotatedTorsions>
[ 6907 6896 6895 6894 ] final   68.77 input  -60.11 | X-H torsion
[ 7974 7965 7964 7962 ] final  -39.63 input  175.53 | X-H torsion
[ 8008 7997 7996 7995 ] final  166.08 input   59.86 | X-H torsion
[ 10167 10162 10161 10158 ] final  123.30 input  -65.29 | X-H torsion
[ 10718 10713 10712 10709 ] final  -89.71 input   66.30 | X-H torsion
[ 10763 10752 10751 10750 ] final  105.11 input  -60.55 | X-H torsion
[ 11005 11000 10999 10996 ] final -178.60 input  -57.11 | X-H torsion

> <Gold.Protein.ActiveResidues>
 VAL166  LYS551  ARG553  GLY616  TRP617  ASP618  TYR619  PRO620  LYS621  CYS622 
 ASP623  PHE694  ASN695  SER759  ASP760  ASP761  ALA762  ILE779  LEU786  VAL792 
 PHE793  MET794  SER795  GLU796  ALA797  LYS798  CYS799  TRP800  GLU811  SER814 

> <Gold.Protein.RotatedAtoms>
  152.4642  134.5113  159.9754 H   0  0  0  0  0  0  0  0  0  0  0  0  # atno 6907 bound_to 6896
  151.5155  133.3470  159.2900 H   0  0  0  0  0  0  0  0  0  0  0  0  # atno 6908 bound_to 6896
  150.8619  134.8002  159.7151 H   0  0  0  0  0  0  0  0  0  0  0  0  # atno 6909 bound_to 6896
  146.0378  140.6648  142.9101 H   0  0  0  0  0  0  0  0  0  0  0  0  # atno 7974 bound_to 7965
  156.1747  140.1653  156.8383 H   0  0  0  0  0  0  0  0  0  0  0  0  # atno 8008 bound_to 7997
  154.5295  140.0760  156.8352 H   0  0  0  0  0  0  0  0  0  0  0  0  # atno 8009 bound_to 7997
  155.3437  140.3386  155.4241 H   0  0  0  0  0  0  0  0  0  0  0  0  # atno 8010 bound_to 7997
  139.5808  144.6985  151.3534 H   0  0  0  0  0  0  0  0  0  0  0  0  # atno 10167 bound_to 10162
  155.9985  130.4882  150.5213 H   0  0  0  0  0  0  0  0  0  0  0  0  # atno 10718 bound_to 10713
  153.3750  135.3921  155.1816 H   0  0  0  0  0  0  0  0  0  0  0  0  # atno 10763 bound_to 10752
  154.8700  135.3711  154.4929 H   0  0  0  0  0  0  0  0  0  0  0  0  # atno 10764 bound_to 10752
  153.5401  135.7084  153.5702 H   0  0  0  0  0  0  0  0  0  0  0  0  # atno 10765 bound_to 10752
  140.4279  134.6545  157.4697 H   0  0  0  0  0  0  0  0  0  0  0  0  # atno 11005 bound_to 11000
  144.7060  140.3853  143.7118 LP  0  0  0  0  0  0  0  0  0  0  0  0  # atno 17320 bound_to 7965
  145.6934  139.1644  143.2634 LP  0  0  0  0  0  0  0  0  0  0  0  0  # atno 17321 bound_to 7965
  140.7086  143.7449  150.7526 LP  0  0  0  0  0  0  0  0  0  0  0  0  # atno 17342 bound_to 10162
  140.0981  143.4813  152.2441 LP  0  0  0  0  0  0  0  0  0  0  0  0  # atno 17343 bound_to 10162
  157.3174  131.0675  151.1957 LP  0  0  0  0  0  0  0  0  0  0  0  0  # atno 17370 bound_to 10713
  157.2882  130.6783  149.6100 LP  0  0  0  0  0  0  0  0  0  0  0  0  # atno 17371 bound_to 10713
  140.0154  134.6627  155.9317 LP  0  0  0  0  0  0  0  0  0  0  0  0  # atno 17394 bound_to 11000
  141.1757  133.6540  156.4821 LP  0  0  0  0  0  0  0  0  0  0  0  0  # atno 17395 bound_to 11000

$$$$
