AV-unprocessed.smi:3089|AV-procd|sdf|11773|dock8
  -GOLD-   2272017153D 1   1.00000     0.00000
 Structure written by MMmdl.
 24 24  0  0  0  0  0  0  0  0  1 V2000
  139.6419  137.3291  154.1817 C   0  0  0  0  0  0  0  0  0  0  0  0
  140.8589  136.6459  153.7994 N   0  0  0  0  0  0  0  0  0  0  0  0
  141.9967  137.1711  153.2268 C   0  0  0  0  0  0  0  0  0  0  0  0
  142.8807  136.1439  153.0415 C   0  0  0  0  0  0  0  0  0  0  0  0
  144.2719  136.1925  152.4449 C   0  0  2  0  0  0  0  0  0  0  0  0
  145.2945  135.6653  153.4667 C   0  0  0  0  0  0  0  0  0  0  0  0
  144.6846  137.5132  152.1490 O   0  0  0  0  0  0  0  0  0  0  0  0
  144.3685  135.3809  151.1338 C   0  0  0  0  0  0  0  0  0  0  0  0
  145.4773  135.7991  150.2592 N   0  0  0  0  0  0  0  0  0  0  0  0
  142.1731  135.0144  153.5490 C   0  0  0  0  0  0  0  0  0  0  0  0
  140.9662  135.3172  153.9992 N   0  0  0  0  0  0  0  0  0  0  0  0
  139.7172  138.3897  153.9412 H   0  0  0  0  0  0  0  0  0  0  0  0
  139.4776  137.2195  155.2540 H   0  0  0  0  0  0  0  0  0  0  0  0
  138.7949  136.9034  153.6427 H   0  0  0  0  0  0  0  0  0  0  0  0
  142.0845  138.2230  152.9980 H   0  0  0  0  0  0  0  0  0  0  0  0
  145.0884  134.6292  153.7376 H   0  0  0  0  0  0  0  0  0  0  0  0
  145.2773  136.2533  154.3855 H   0  0  0  0  0  0  0  0  0  0  0  0
  146.3105  135.7014  153.0713 H   0  0  0  0  0  0  0  0  0  0  0  0
  144.3551  137.7458  151.2945 H   0  0  0  0  0  0  0  0  0  0  0  0
  144.4552  134.3177  151.3610 H   0  0  0  0  0  0  0  0  0  0  0  0
  143.4352  135.4906  150.5805 H   0  0  0  0  0  0  0  0  0  0  0  0
  145.2592  136.6890  149.8127 H   0  0  0  0  0  0  0  0  0  0  0  0
  146.3284  135.9368  150.8022 H   0  0  0  0  0  0  0  0  0  0  0  0
  142.5003  133.9864  153.6021 H   0  0  0  0  0  0  0  0  0  0  0  0
  1  2  1  0  0  0  0
  1 12  1  0  0  0  0
  1 13  1  0  0  0  0
  1 14  1  0  0  0  0
  2 11  1  0  0  0  0
  2  3  1  0  0  0  0
  3  4  2  0  0  0  0
  3 15  1  0  0  0  0
  4  5  1  0  0  0  0
  4 10  1  0  0  0  0
  5  6  1  0  0  0  0
  5  7  1  0  0  0  0
  5  8  1  0  0  0  0
  6 16  1  0  0  0  0
  6 17  1  0  0  0  0
  6 18  1  0  0  0  0
  7 19  1  0  0  0  0
  8  9  1  0  0  0  0
  8 20  1  0  0  0  0
  8 21  1  0  0  0  0
  9 22  1  0  0  0  0
  9 23  1  0  0  0  0
 10 11  2  0  0  0  0
 10 24  1  0  0  0  0
M  END
> <s_m_source_file>
AV-unprocessed.smi

> <i_m_source_file_index>
3089

> <i_lp_mmshare_version>
43012

> <i_f3d_flags>
0

> <s_epik_input>
W0NIM11uMVtjSF1jKFtjSF1uMSlbQ0BAXShbQ0gzXSkoW09IXSlbQ0gyXVtOSDJd

> <s_epik_cmdline>
J2VwaWtfcHl0aG9uJywgJy1waCcsICc3LjAnLCAnLXRuJywgJzgnLCAnLW1hJywgJzIwMCcsICctbWV0YWxfYmluZGluZycsICctaW1hZScsICc8aW5maWxlLm1hZT4nLCAnLW9tYWUnLCAnPG91dGZpbGUubWFlPic=

> <r_lp_tautomer_probability>
1

> <r_epik_Ionization_Penalty>
2.22427

> <r_epik_Ionization_Penalty_Charging>
0

> <r_epik_Ionization_Penalty_Neutral>
2.22427

> <r_epik_State_Penalty>
2.36938

> <r_epik_Charging_Adjusted_Penalty>
2.36938

> <i_epik_Tot_Q>
0

> <i_epik_Tot_abs_Q>
0

> <r_epik_Metal_State_Penalty>
2.36933

> <b_epik_Metal_Only>
0

> <s_lp_Force_Field>
OPLS_2005

> <r_lp_Energy>
8.30456

> <b_lp_Chiralities_Consistent>
1

> <s_lp_Variant>
AV-unprocessed.smi:3089-4

> <Gold.Version>
5.8.1

> <Gold.Id.Protein>
6NUR|6NUR_protein|mol2

> <Gold.PLP.Fitness>
35.3329

> <Gold.PLP.PLP>
-23.1372

> <Gold.PLP.part.hbond>
-5.0000

> <Gold.PLP.part.metal>
0.0000

> <Gold.PLP.part.buried>
-5.7795

> <Gold.PLP.part.nonpolar>
-12.8000

> <Gold.PLP.part.repulsive>
0.1349

> <Gold.PLP.ligand.clash>
0.0000

> <Gold.PLP.ligand.torsion>
0.4097

> <Gold.PLP.Chemscore.Hbond>
2.9840

> <Gold.PLP.Chemscore.CHOScore>
1.3475

> <Gold.PLP.Chemscore.Metal>
0.0000

> <Gold.Chemscore.Hbonds>
donor molecule, donor type, donor heavy atom, donor atom, acceptor molecule, acceptor atom, score
      L1  H     7    19       P1 10171  1.00
      L1  H     9    22       P1 10171  0.23
      P1  H 11000 11005       L1    11  0.84
      L1  C     3    15       P1 10175  0.49
      L1  C    10    24       P1 10957  1.00

> <Gold.PLP.Chemscore.Internal.Correction>
0.0207

> <Gold.Rescore>
     Score         DG    S(hbond)    S(metal)    S(lipo)     H(rot)  DE(clash)    DE(int)     intcor
     13.45     -13.70       2.82        0.00      29.96       1.84       0.00       0.25       ----

> <Gold.Chemscore.Fitness>
13.4470

> <Gold.Chemscore.DG>
-13.6981

> <Gold.Chemscore.ZeroCoef>
-5.4800

> <Gold.Chemscore.Hbond>
2.8201

> <Gold.Chemscore.Metal>
0.0000

> <Gold.Chemscore.Lipo>
29.9637

> <Gold.Chemscore.Internal_Hbond>
0.0000

> <Gold.Chemscore.DEClash>
0.0015

> <Gold.Chemscore.DEInternal>
0.2496

> <Gold.Chemscore.Rot>
1.8386

> <Gold.Chemscore.Internal.Correction>
   9.000000E+99

> <Gold.Chemscore.Hbonds>
donor molecule, donor type, donor heavy atom, donor atom, acceptor molecule, acceptor atom, score
      L1  H     7    19       P1 10171  1.00
      L1  H     9    22       P1 10171  0.23
      P1  H 11000 11005       L1    11  0.74

> <Gold.Chemscore.Hbond.Weighted>
-9.4193

> <Gold.Chemscore.Metal.Weighted>
-0.0000

> <Gold.Chemscore.Lipo.Weighted>
-3.5057

> <Gold.Chemscore.Internal_Hbond.Weighted>
0.0000

> <Gold.Chemscore.DEClash.Weighted>
0.0015

> <Gold.Chemscore.DEInternal.Weighted>
0.2496

> <Gold.Chemscore.Rot.Weighted>
4.7069

> <Gold.Chemscore.Internal.Correction.Weighted>
   9.000000E+99

> <Gold.Protein.RotatedTorsions>
[ 6907 6896 6895 6894 ] final   -0.14 input  -60.11 | X-H torsion
[ 7974 7965 7964 7962 ] final   76.89 input  175.53 | X-H torsion
[ 8008 7997 7996 7995 ] final -169.26 input   59.86 | X-H torsion
[ 10167 10162 10161 10158 ] final   29.68 input  -65.29 | X-H torsion
[ 10718 10713 10712 10709 ] final -160.70 input   66.30 | X-H torsion
[ 10763 10752 10751 10750 ] final    0.23 input  -60.55 | X-H torsion
[ 11005 11000 10999 10996 ] final   28.56 input  -57.11 | X-H torsion

> <Gold.Protein.ActiveResidues>
 VAL166  LYS551  ARG553  GLY616  TRP617  ASP618  TYR619  PRO620  LYS621  CYS622 
 ASP623  PHE694  ASN695  SER759  ASP760  ASP761  ALA762  ILE779  LEU786  VAL792 
 PHE793  MET794  SER795  GLU796  ALA797  LYS798  CYS799  TRP800  GLU811  SER814 

> <Gold.Protein.RotatedAtoms>
  151.5670  135.1064  159.9985 H   0  0  0  0  0  0  0  0  0  0  0  0  # atno 6907 bound_to 6896
  152.4419  133.7460  159.6678 H   0  0  0  0  0  0  0  0  0  0  0  0  # atno 6908 bound_to 6896
  150.8326  133.7997  159.3116 H   0  0  0  0  0  0  0  0  0  0  0  0  # atno 6909 bound_to 6896
  145.6971  139.2570  143.1727 H   0  0  0  0  0  0  0  0  0  0  0  0  # atno 7974 bound_to 7965
  155.9026  140.1043  157.1339 H   0  0  0  0  0  0  0  0  0  0  0  0  # atno 8008 bound_to 7997
  154.4028  140.1289  156.4519 H   0  0  0  0  0  0  0  0  0  0  0  0  # atno 8009 bound_to 7997
  155.7405  140.3467  155.5104 H   0  0  0  0  0  0  0  0  0  0  0  0  # atno 8010 bound_to 7997
  140.4745  144.0712  150.6246 H   0  0  0  0  0  0  0  0  0  0  0  0  # atno 10167 bound_to 10162
  156.5859  130.8749  151.2877 H   0  0  0  0  0  0  0  0  0  0  0  0  # atno 10718 bound_to 10713
  153.3234  135.6970  153.7011 H   0  0  0  0  0  0  0  0  0  0  0  0  # atno 10763 bound_to 10752
  153.5842  135.3492  155.2887 H   0  0  0  0  0  0  0  0  0  0  0  0  # atno 10764 bound_to 10752
  154.8602  135.4302  154.2404 H   0  0  0  0  0  0  0  0  0  0  0  0  # atno 10765 bound_to 10752
  140.3143  134.2615  155.7728 H   0  0  0  0  0  0  0  0  0  0  0  0  # atno 11005 bound_to 11000
  146.0831  140.7742  142.9632 LP  0  0  0  0  0  0  0  0  0  0  0  0  # atno 17320 bound_to 7965
  144.6979  140.3520  143.7180 LP  0  0  0  0  0  0  0  0  0  0  0  0  # atno 17321 bound_to 7965
  140.3936  143.2740  152.0031 LP  0  0  0  0  0  0  0  0  0  0  0  0  # atno 17342 bound_to 10162
  139.4823  144.6057  151.7526 LP  0  0  0  0  0  0  0  0  0  0  0  0  # atno 17343 bound_to 10162
  157.7315  130.9702  150.1885 LP  0  0  0  0  0  0  0  0  0  0  0  0  # atno 17370 bound_to 10713
  156.2591  130.3709  149.8149 LP  0  0  0  0  0  0  0  0  0  0  0  0  # atno 17371 bound_to 10713
  141.2101  133.7729  156.9953 LP  0  0  0  0  0  0  0  0  0  0  0  0  # atno 17394 bound_to 11000
  140.0997  134.9542  157.1905 LP  0  0  0  0  0  0  0  0  0  0  0  0  # atno 17395 bound_to 11000

$$$$
