AV-unprocessed.smi:1093|AV-procd|sdf|4740|dock6
  -GOLD-   22720 3273D 1   1.00000     0.00000
 Structure written by MMmdl.
 48 49  0  0  0  0  0  0  0  0  3 V2000
  144.8298  143.9310  156.4033 C   0  0  0  0  0  0  0  0  0  0  0  0
  144.1115  143.0340  155.3848 C   0  0  0  0  0  0  0  0  0  0  0  0
  144.9948  141.9660  154.8544 N   0  3  1  0  0  0  0  0  0  0  0  0
  146.1694  142.5106  154.1251 C   0  0  0  0  0  0  0  0  0  0  0  0
  146.9791  141.3860  153.4562 C   0  0  0  0  0  0  0  0  0  0  0  0
  147.3944  140.3114  154.4749 C   0  0  0  0  0  0  0  0  0  0  0  0
  146.1755  139.7948  155.2599 C   0  0  2  0  0  0  0  0  0  0  0  0
  145.3149  138.9992  154.3827 N   0  0  0  0  0  0  0  0  0  0  0  0
  145.6815  137.8732  153.7533 C   0  0  0  0  0  0  0  0  0  0  0  0
  146.7950  137.3640  153.8747 O   0  0  0  0  0  0  0  0  0  0  0  0
  144.6777  137.3814  153.0061 N   0  0  0  0  0  0  0  0  0  0  0  0
  144.6695  136.2215  152.1832 C   0  0  0  0  0  0  0  0  0  0  0  0
  145.8959  135.5575  151.9701 C   0  0  0  0  0  0  0  0  0  0  0  0
  145.9378  134.3967  151.1708 C   0  0  0  0  0  0  0  0  0  0  0  0
  144.7459  133.8953  150.5929 C   0  0  0  0  0  0  0  0  0  0  0  0
  144.7057  132.7393  149.7835 N   0  0  0  0  0  0  0  0  0  0  0  0
  143.6020  132.5487  148.8488 C   0  0  0  0  0  0  0  0  0  0  0  0
  145.8321  131.8147  149.7865 C   0  0  0  0  0  0  0  0  0  0  0  0
  143.5900  134.5596  150.8372 N   0  3  0  0  0  0  0  0  0  0  0  0
  143.5046  135.6753  151.5933 C   0  0  0  0  0  0  0  0  0  0  0  0
  145.4151  140.9837  155.8891 C   0  0  0  0  0  0  0  0  0  0  0  0
  144.1342  144.6491  156.8380 H   0  0  0  0  0  0  0  0  0  0  0  0
  145.6402  144.5015  155.9505 H   0  0  0  0  0  0  0  0  0  0  0  0
  145.2484  143.3421  157.2201 H   0  0  0  0  0  0  0  0  0  0  0  0
  143.2582  142.5789  155.8896 H   0  0  0  0  0  0  0  0  0  0  0  0
  143.7043  143.6273  154.5650 H   0  0  0  0  0  0  0  0  0  0  0  0
  145.8377  143.2135  153.3598 H   0  0  0  0  0  0  0  0  0  0  0  0
  146.8010  143.0703  154.8170 H   0  0  0  0  0  0  0  0  0  0  0  0
  146.3853  140.9323  152.6617 H   0  0  0  0  0  0  0  0  0  0  0  0
  147.8647  141.8020  152.9751 H   0  0  0  0  0  0  0  0  0  0  0  0
  147.9053  139.4892  153.9722 H   0  0  0  0  0  0  0  0  0  0  0  0
  148.1162  140.7390  155.1719 H   0  0  0  0  0  0  0  0  0  0  0  0
  146.5367  139.1437  156.0583 H   0  0  0  0  0  0  0  0  0  0  0  0
  144.3821  139.3509  154.2219 H   0  0  0  0  0  0  0  0  0  0  0  0
  143.8005  137.8783  153.0597 H   0  0  0  0  0  0  0  0  0  0  0  0
  146.8061  135.9351  152.4126 H   0  0  0  0  0  0  0  0  0  0  0  0
  146.8878  133.9068  151.0174 H   0  0  0  0  0  0  0  0  0  0  0  0
  142.6479  132.5397  149.3767 H   0  0  0  0  0  0  0  0  0  0  0  0
  143.6936  131.6032  148.3140 H   0  0  0  0  0  0  0  0  0  0  0  0
  143.5831  133.3507  148.1102 H   0  0  0  0  0  0  0  0  0  0  0  0
  146.7519  132.3287  149.5052 H   0  0  0  0  0  0  0  0  0  0  0  0
  145.6774  130.9993  149.0795 H   0  0  0  0  0  0  0  0  0  0  0  0
  145.9655  131.3753  150.7756 H   0  0  0  0  0  0  0  0  0  0  0  0
  142.5058  136.0703  151.6996 H   0  0  0  0  0  0  0  0  0  0  0  0
  146.0502  141.4833  156.6225 H   0  0  0  0  0  0  0  0  0  0  0  0
  144.5507  140.6157  156.4403 H   0  0  0  0  0  0  0  0  0  0  0  0
  144.4488  141.4597  154.1723 H   0  0  0  0  0  0  0  0  0  0  0  0
  142.7302  134.1943  150.4274 H   0  0  0  0  0  0  0  0  0  0  0  0
  1  2  1  0  0  0  0
  1 22  1  0  0  0  0
  1 23  1  0  0  0  0
  1 24  1  0  0  0  0
  2  3  1  0  0  0  0
  2 25  1  0  0  0  0
  2 26  1  0  0  0  0
  3 21  1  0  0  0  0
  3  4  1  0  0  0  0
  3 47  1  0  0  0  0
  4  5  1  0  0  0  0
  4 27  1  0  0  0  0
  4 28  1  0  0  0  0
  5  6  1  0  0  0  0
  5 29  1  0  0  0  0
  5 30  1  0  0  0  0
  6  7  1  0  0  0  0
  6 31  1  0  0  0  0
  6 32  1  0  0  0  0
  7  8  1  0  0  0  0
  7 21  1  0  0  0  0
  7 33  1  0  0  0  0
  8  9  1  0  0  0  0
  8 34  1  0  0  0  0
  9 10  2  0  0  0  0
  9 11  1  0  0  0  0
 11 12  1  0  0  0  0
 11 35  1  0  0  0  0
 12 20  1  0  0  0  0
 12 13  2  0  0  0  0
 13 14  1  0  0  0  0
 13 36  1  0  0  0  0
 14 15  2  0  0  0  0
 14 37  1  0  0  0  0
 15 16  1  0  0  0  0
 15 19  1  0  0  0  0
 16 17  1  0  0  0  0
 16 18  1  0  0  0  0
 17 38  1  0  0  0  0
 17 39  1  0  0  0  0
 17 40  1  0  0  0  0
 18 41  1  0  0  0  0
 18 42  1  0  0  0  0
 18 43  1  0  0  0  0
 19 20  2  0  0  0  0
 19 48  1  0  0  0  0
 20 44  1  0  0  0  0
 21 45  1  0  0  0  0
 21 46  1  0  0  0  0
M  CHG  1   3   1
M  CHG  1  19   1
M  END
> <s_m_source_file>
AV-unprocessed.smi

> <i_m_source_file_index>
1093

> <i_lp_mmshare_version>
43012

> <i_f3d_flags>
0

> <s_epik_input>
W0NIM11bQ0gyXU4xW0NIMl1bQ0gyXVtDSDJdW0NASF0oW0NIMl0xKVtOSF1DKD1PKVtOSF1jMltjSF1bY0hdYyhOKFtDSDNdKVtDSDNdKW5bY0hdMg==

> <s_epik_cmdline>
J2VwaWtfcHl0aG9uJywgJy1waCcsICc3LjAnLCAnLXRuJywgJzgnLCAnLW1hJywgJzIwMCcsICctbWV0YWxfYmluZGluZycsICctaW1hZScsICc8aW5maWxlLm1hZT4nLCAnLW9tYWUnLCAnPG91dGZpbGUubWFlPic=

> <r_lp_tautomer_probability>
0.999994

> <r_epik_Ionization_Penalty>
0.346711

> <r_epik_Ionization_Penalty_Charging>
0.346691

> <r_epik_Ionization_Penalty_Neutral>
1.93006e-05

> <r_epik_State_Penalty>
0.339838

> <r_epik_Charging_Adjusted_Penalty>
0.68653

> <i_epik_Tot_Q>
2

> <i_epik_Tot_abs_Q>
2

> <r_epik_Metal_State_Penalty>
0.600835

> <b_epik_Metal_Only>
0

> <s_lp_Force_Field>
OPLS_2005

> <r_lp_Energy>
35.5794

> <b_lp_Chiralities_Consistent>
1

> <s_lp_Variant>
AV-unprocessed.smi:1093-3

> <Gold.Version>
5.8.1

> <Gold.Id.Protein>
6NUR|6NUR_protein|mol2

> <Gold.PLP.Fitness>
46.9292

> <Gold.PLP.PLP>
-33.4764

> <Gold.PLP.part.hbond>
-3.3991

> <Gold.PLP.part.metal>
0.0000

> <Gold.PLP.part.buried>
-5.6129

> <Gold.PLP.part.nonpolar>
-26.4631

> <Gold.PLP.part.repulsive>
0.1463

> <Gold.PLP.ligand.clash>
0.0000

> <Gold.PLP.ligand.torsion>
0.1980

> <Gold.PLP.Chemscore.Hbond>
4.6032

> <Gold.PLP.Chemscore.CHOScore>
0.0000

> <Gold.PLP.Chemscore.Metal>
0.0000

> <Gold.Chemscore.Hbonds>
donor molecule, donor type, donor heavy atom, donor atom, acceptor molecule, acceptor atom, score
      L1  H     3    47       P1 10175  1.79
      L1  H     8    34       P1 10175  0.35
      L1  H    19    48       P1 10186  2.00

> <Gold.PLP.Chemscore.Internal.Correction>
0.0391

> <Gold.Rescore>
     Score         DG    S(hbond)    S(metal)    S(lipo)     H(rot)  DE(clash)    DE(int)     intcor
     14.86     -16.48       1.77        0.00      69.75       1.19       0.11       1.52       ----

> <Gold.Chemscore.Fitness>
14.8609

> <Gold.Chemscore.DG>
-16.4850

> <Gold.Chemscore.ZeroCoef>
-5.4800

> <Gold.Chemscore.Hbond>
1.7675

> <Gold.Chemscore.Metal>
0.0000

> <Gold.Chemscore.Lipo>
69.7470

> <Gold.Chemscore.Internal_Hbond>
0.0000

> <Gold.Chemscore.DEClash>
0.1066

> <Gold.Chemscore.DEInternal>
1.5175

> <Gold.Chemscore.Rot>
1.1949

> <Gold.Chemscore.Internal.Correction>
   9.000000E+99

> <Gold.Chemscore.Hbonds>
donor molecule, donor type, donor heavy atom, donor atom, acceptor molecule, acceptor atom, score
      L1  H     3    47       P1 10175  0.30
      L1  H     8    34       P1 10175  0.35
      L1  H    19    48       P1 10186  0.78

> <Gold.Chemscore.Hbond.Weighted>
-5.9036

> <Gold.Chemscore.Metal.Weighted>
-0.0000

> <Gold.Chemscore.Lipo.Weighted>
-8.1604

> <Gold.Chemscore.Internal_Hbond.Weighted>
0.0000

> <Gold.Chemscore.DEClash.Weighted>
0.1066

> <Gold.Chemscore.DEInternal.Weighted>
1.5175

> <Gold.Chemscore.Rot.Weighted>
3.0590

> <Gold.Chemscore.Internal.Correction.Weighted>
   9.000000E+99

> <Gold.Protein.RotatedTorsions>
[ 6907 6896 6895 6894 ] final  -67.90 input  -60.11 | X-H torsion
[ 7974 7965 7964 7962 ] final  173.76 input  175.53 | X-H torsion
[ 8008 7997 7996 7995 ] final  143.26 input   59.86 | X-H torsion
[ 10167 10162 10161 10158 ] final  178.35 input  -65.29 | X-H torsion
[ 10718 10713 10712 10709 ] final  157.82 input   66.30 | X-H torsion
[ 10763 10752 10751 10750 ] final   -3.29 input  -60.55 | X-H torsion
[ 11005 11000 10999 10996 ] final  144.44 input  -57.11 | X-H torsion

> <Gold.Protein.ActiveResidues>
 VAL166  LYS551  ARG553  GLY616  TRP617  ASP618  TYR619  PRO620  LYS621  CYS622 
 ASP623  PHE694  ASN695  SER759  ASP760  ASP761  ALA762  ILE779  LEU786  VAL792 
 PHE793  MET794  SER795  GLU796  ALA797  LYS798  CYS799  TRP800  GLU811  SER814 

> <Gold.Protein.RotatedAtoms>
  150.7385  134.5816  159.5941 H   0  0  0  0  0  0  0  0  0  0  0  0  # atno 6907 bound_to 6896
  152.3228  134.7356  160.0318 H   0  0  0  0  0  0  0  0  0  0  0  0  # atno 6908 bound_to 6896
  151.7866  133.3319  159.3523 H   0  0  0  0  0  0  0  0  0  0  0  0  # atno 6909 bound_to 6896
  144.7236  139.9695  143.6436 H   0  0  0  0  0  0  0  0  0  0  0  0  # atno 7974 bound_to 7965
  156.2934  140.2267  156.4861 H   0  0  0  0  0  0  0  0  0  0  0  0  # atno 8008 bound_to 7997
  154.7811  140.0460  157.1149 H   0  0  0  0  0  0  0  0  0  0  0  0  # atno 8009 bound_to 7997
  154.9758  140.3072  155.4971 H   0  0  0  0  0  0  0  0  0  0  0  0  # atno 8010 bound_to 7997
  139.5290  144.2691  152.0643 H   0  0  0  0  0  0  0  0  0  0  0  0  # atno 10167 bound_to 10162
  157.1862  131.0644  151.2104 H   0  0  0  0  0  0  0  0  0  0  0  0  # atno 10718 bound_to 10713
  153.3694  135.6994  153.6649 H   0  0  0  0  0  0  0  0  0  0  0  0  # atno 10763 bound_to 10752
  153.5306  135.3593  155.2674 H   0  0  0  0  0  0  0  0  0  0  0  0  # atno 10764 bound_to 10752
  154.8679  135.4179  154.2969 H   0  0  0  0  0  0  0  0  0  0  0  0  # atno 10765 bound_to 10752
  140.0633  134.9193  157.1221 H   0  0  0  0  0  0  0  0  0  0  0  0  # atno 11005 bound_to 11000
  146.0574  139.3570  143.0602 LP  0  0  0  0  0  0  0  0  0  0  0  0  # atno 17320 bound_to 7965
  145.8137  140.9713  143.0935 LP  0  0  0  0  0  0  0  0  0  0  0  0  # atno 17321 bound_to 7965
  140.2151  144.4523  150.6367 LP  0  0  0  0  0  0  0  0  0  0  0  0  # atno 17342 bound_to 10162
  140.6455  143.2212  151.6195 LP  0  0  0  0  0  0  0  0  0  0  0  0  # atno 17343 bound_to 10162
  157.3904  130.7279  149.6694 LP  0  0  0  0  0  0  0  0  0  0  0  0  # atno 17370 bound_to 10713
  155.9717  130.4148  150.4149 LP  0  0  0  0  0  0  0  0  0  0  0  0  # atno 17371 bound_to 10713
  140.3738  134.2362  155.7176 LP  0  0  0  0  0  0  0  0  0  0  0  0  # atno 17394 bound_to 11000
  141.1982  133.8041  157.0593 LP  0  0  0  0  0  0  0  0  0  0  0  0  # atno 17395 bound_to 11000

$$$$
