AV-unprocessed.smi:2439|AV-procd|sdf|9609|dock9
  -GOLD-   2272013243D 1   1.00000     0.00000
 Structure written by MMmdl.
 41 43  0  0  0  0  0  0  0  0  2 V2000
  151.5576  136.8970  154.7837 N   0  0  0  0  0  0  0  0  0  0  0  0
  150.9697  137.8814  154.9382 C   0  0  0  0  0  0  0  0  0  0  0  0
  150.2294  139.1225  155.1310 C   0  0  0  0  0  0  0  0  0  0  0  0
  150.7366  140.0898  156.0239 C   0  0  0  0  0  0  0  0  0  0  0  0
  150.0232  141.2871  156.2151 C   0  0  0  0  0  0  0  0  0  0  0  0
  148.8254  141.4706  155.5012 C   0  0  0  0  0  0  0  0  0  0  0  0
  148.3287  140.5540  154.6441 N   0  0  0  0  0  0  0  0  0  0  0  0
  149.0100  139.3972  154.4554 C   0  0  0  0  0  0  0  0  0  0  0  0
  148.4653  138.4619  153.5577 N   0  0  0  0  0  0  0  0  0  0  0  0
  147.0754  138.5479  153.1329 C   0  0  0  0  0  0  0  0  0  0  0  0
  146.1427  137.7768  154.0873 C   0  0  2  0  0  0  0  0  0  0  0  0
  146.6375  136.3498  154.3894 C   0  0  0  0  0  0  0  0  0  0  0  0
  146.4821  135.4643  153.2113 N   0  3  1  0  0  0  0  0  0  0  0  0
  146.9926  134.0937  153.4697 C   0  0  0  0  0  0  0  0  0  0  0  0
  146.9017  133.2195  152.2092 C   0  0  0  0  0  0  0  0  0  0  0  0
  145.4634  133.1776  151.6788 C   0  0  0  0  0  0  0  0  0  0  0  0
  144.9513  134.6042  151.4418 C   0  0  0  0  0  0  0  0  0  0  0  0
  145.0797  135.4676  152.7133 C   0  0  2  0  0  0  0  0  0  0  0  0
  144.6167  136.9130  152.4483 C   0  0  0  0  0  0  0  0  0  0  0  0
  144.7983  137.7164  153.6097 O   0  0  0  0  0  0  0  0  0  0  0  0
  151.6600  139.9211  156.5595 H   0  0  0  0  0  0  0  0  0  0  0  0
  150.3858  142.0459  156.8929 H   0  0  0  0  0  0  0  0  0  0  0  0
  148.2496  142.3763  155.6216 H   0  0  0  0  0  0  0  0  0  0  0  0
  149.0048  137.6485  153.2964 H   0  0  0  0  0  0  0  0  0  0  0  0
  146.7743  139.5920  153.0500 H   0  0  0  0  0  0  0  0  0  0  0  0
  146.9990  138.1228  152.1313 H   0  0  0  0  0  0  0  0  0  0  0  0
  146.1152  138.3226  155.0313 H   0  0  0  0  0  0  0  0  0  0  0  0
  147.6822  136.3735  154.7021 H   0  0  0  0  0  0  0  0  0  0  0  0
  146.0682  135.9359  155.2234 H   0  0  0  0  0  0  0  0  0  0  0  0
  148.0302  134.1473  153.8015 H   0  0  0  0  0  0  0  0  0  0  0  0
  146.4232  133.6383  154.2816 H   0  0  0  0  0  0  0  0  0  0  0  0
  147.5670  133.6129  151.4395 H   0  0  0  0  0  0  0  0  0  0  0  0
  147.2467  132.2090  152.4304 H   0  0  0  0  0  0  0  0  0  0  0  0
  145.4193  132.6024  150.7535 H   0  0  0  0  0  0  0  0  0  0  0  0
  144.8191  132.6677  152.3962 H   0  0  0  0  0  0  0  0  0  0  0  0
  145.5160  135.0595  150.6266 H   0  0  0  0  0  0  0  0  0  0  0  0
  143.9113  134.5713  151.1150 H   0  0  0  0  0  0  0  0  0  0  0  0
  144.4447  135.0404  153.4917 H   0  0  0  0  0  0  0  0  0  0  0  0
  145.1410  137.3469  151.5966 H   0  0  0  0  0  0  0  0  0  0  0  0
  143.5575  136.9221  152.1902 H   0  0  0  0  0  0  0  0  0  0  0  0
  147.0537  135.8540  152.4752 H   0  0  0  0  0  0  0  0  0  0  0  0
  1  2  3  0  0  0  0
  2  3  1  0  0  0  0
  3  8  1  0  0  0  0
  3  4  2  0  0  0  0
  4  5  1  0  0  0  0
  4 21  1  0  0  0  0
  5  6  2  0  0  0  0
  5 22  1  0  0  0  0
  6  7  1  0  0  0  0
  6 23  1  0  0  0  0
  7  8  2  0  0  0  0
  8  9  1  0  0  0  0
  9 10  1  0  0  0  0
  9 24  1  0  0  0  0
 10 11  1  0  0  0  0
 10 25  1  0  0  0  0
 10 26  1  0  0  0  0
 11 20  1  0  0  0  0
 11 12  1  0  0  0  0
 11 27  1  0  0  0  0
 12 13  1  0  0  0  0
 12 28  1  0  0  0  0
 12 29  1  0  0  0  0
 13 18  1  0  0  0  0
 13 14  1  0  0  0  0
 13 41  1  0  0  0  0
 14 15  1  0  0  0  0
 14 30  1  0  0  0  0
 14 31  1  0  0  0  0
 15 16  1  0  0  0  0
 15 32  1  0  0  0  0
 15 33  1  0  0  0  0
 16 17  1  0  0  0  0
 16 34  1  0  0  0  0
 16 35  1  0  0  0  0
 17 18  1  0  0  0  0
 17 36  1  0  0  0  0
 17 37  1  0  0  0  0
 18 19  1  0  0  0  0
 18 38  1  0  0  0  0
 19 20  1  0  0  0  0
 19 39  1  0  0  0  0
 19 40  1  0  0  0  0
M  CHG  1  13   1
M  END
> <s_m_source_file>
AV-unprocessed.smi

> <i_m_source_file_index>
2439

> <i_lp_mmshare_version>
43012

> <i_f3d_flags>
0

> <s_epik_input>
TiNDYzFbY0hdW2NIXVtjSF1uYzFbTkhdW0NIMl1bQ0BIXShbQ0gyXTIpT1tDSDJdW0NAQEhdKE4yMylbQ0gyXVtDSDJdW0NIMl1bQ0gyXTM=

> <s_epik_cmdline>
J2VwaWtfcHl0aG9uJywgJy1waCcsICc3LjAnLCAnLXRuJywgJzgnLCAnLW1hJywgJzIwMCcsICctbWV0YWxfYmluZGluZycsICctaW1hZScsICc8aW5maWxlLm1hZT4nLCAnLW9tYWUnLCAnPG91dGZpbGUubWFlPic=

> <r_epik_Ionization_Penalty>
0.0803594

> <r_epik_Ionization_Penalty_Charging>
0.0803403

> <r_epik_Ionization_Penalty_Neutral>
1.90988e-05

> <r_epik_State_Penalty>
0.0711481

> <r_epik_Charging_Adjusted_Penalty>
0.151488

> <i_epik_Tot_Q>
1

> <i_epik_Tot_abs_Q>
1

> <r_epik_Metal_State_Penalty>
0.0711482

> <b_epik_Metal_Only>
0

> <s_lp_Force_Field>
OPLS_2005

> <r_lp_Energy>
31.556

> <b_lp_Chiralities_Consistent>
1

> <s_lp_Variant>
AV-unprocessed.smi:2439-7

> <Gold.Version>
5.8.1

> <Gold.Id.Protein>
6NUR|6NUR_protein|mol2

> <Gold.PLP.Fitness>
44.4859

> <Gold.PLP.PLP>
-31.7122

> <Gold.PLP.part.hbond>
-4.0000

> <Gold.PLP.part.metal>
0.0000

> <Gold.PLP.part.buried>
0.2025

> <Gold.PLP.part.nonpolar>
-28.0297

> <Gold.PLP.part.repulsive>
0.6221

> <Gold.PLP.ligand.clash>
0.0000

> <Gold.PLP.ligand.torsion>
0.2890

> <Gold.PLP.Chemscore.Hbond>
3.4480

> <Gold.PLP.Chemscore.CHOScore>
1.0000

> <Gold.PLP.Chemscore.Metal>
0.0000

> <Gold.Chemscore.Hbonds>
donor molecule, donor type, donor heavy atom, donor atom, acceptor molecule, acceptor atom, score
      L1  H     9    24       P1  7948  0.75
      L1  H    13    41       P1  7948  1.82
      P1  H 10752 10764       L1     1  1.00
      L1  C     6    23       P1  8028  1.00

> <Gold.PLP.Chemscore.Internal.Correction>
0.0078

> <Gold.Rescore>
     Score         DG    S(hbond)    S(metal)    S(lipo)     H(rot)  DE(clash)    DE(int)     intcor
     17.59     -18.04       2.49        0.00      63.93       1.27       0.17       0.27       ----

> <Gold.Chemscore.Fitness>
17.5940

> <Gold.Chemscore.DG>
-18.0367

> <Gold.Chemscore.ZeroCoef>
-5.4800

> <Gold.Chemscore.Hbond>
2.4903

> <Gold.Chemscore.Metal>
0.0000

> <Gold.Chemscore.Lipo>
63.9316

> <Gold.Chemscore.Internal_Hbond>
0.0000

> <Gold.Chemscore.DEClash>
0.1686

> <Gold.Chemscore.DEInternal>
0.2740

> <Gold.Chemscore.Rot>
1.2659

> <Gold.Chemscore.Internal.Correction>
   9.000000E+99

> <Gold.Chemscore.Hbonds>
donor molecule, donor type, donor heavy atom, donor atom, acceptor molecule, acceptor atom, score
      L1  H     9    24       P1  7948  0.73
      L1  H    13    41       P1  7948  0.85
      P1  H 10752 10764       L1     1  1.00

> <Gold.Chemscore.Hbond.Weighted>
-8.3174

> <Gold.Chemscore.Metal.Weighted>
-0.0000

> <Gold.Chemscore.Lipo.Weighted>
-7.4800

> <Gold.Chemscore.Internal_Hbond.Weighted>
0.0000

> <Gold.Chemscore.DEClash.Weighted>
0.1686

> <Gold.Chemscore.DEInternal.Weighted>
0.2740

> <Gold.Chemscore.Rot.Weighted>
3.2408

> <Gold.Chemscore.Internal.Correction.Weighted>
   9.000000E+99

> <Gold.Protein.RotatedTorsions>
[ 6907 6896 6895 6894 ] final -136.13 input  -60.11 | X-H torsion
[ 7974 7965 7964 7962 ] final  -23.73 input  175.53 | X-H torsion
[ 8008 7997 7996 7995 ] final  128.17 input   59.86 | X-H torsion
[ 10167 10162 10161 10158 ] final  -42.60 input  -65.29 | X-H torsion
[ 10718 10713 10712 10709 ] final  -63.03 input   66.30 | X-H torsion
[ 10763 10752 10751 10750 ] final  -69.93 input  -60.55 | X-H torsion
[ 11005 11000 10999 10996 ] final    7.71 input  -57.11 | X-H torsion

> <Gold.Protein.ActiveResidues>
 VAL166  LYS551  ARG553  GLY616  TRP617  ASP618  TYR619  PRO620  LYS621  CYS622 
 ASP623  PHE694  ASN695  SER759  ASP760  ASP761  ALA762  ILE779  LEU786  VAL792 
 PHE793  MET794  SER795  GLU796  ALA797  LYS798  CYS799  TRP800  GLU811  SER814 

> <Gold.Protein.RotatedAtoms>
  151.0063  133.6008  159.2688 H   0  0  0  0  0  0  0  0  0  0  0  0  # atno 6907 bound_to 6896
  151.3176  135.0809  159.9304 H   0  0  0  0  0  0  0  0  0  0  0  0  # atno 6908 bound_to 6896
  152.5287  133.9716  159.7819 H   0  0  0  0  0  0  0  0  0  0  0  0  # atno 6909 bound_to 6896
  146.1598  140.4656  142.8576 H   0  0  0  0  0  0  0  0  0  0  0  0  # atno 7974 bound_to 7965
  156.2908  140.2651  156.2391 H   0  0  0  0  0  0  0  0  0  0  0  0  # atno 8008 bound_to 7997
  154.9995  140.0388  157.2372 H   0  0  0  0  0  0  0  0  0  0  0  0  # atno 8009 bound_to 7997
  154.7614  140.2761  155.6216 H   0  0  0  0  0  0  0  0  0  0  0  0  # atno 8010 bound_to 7997
  140.6963  143.3029  151.3232 H   0  0  0  0  0  0  0  0  0  0  0  0  # atno 10167 bound_to 10162
  156.0817  130.4216  150.1219 H   0  0  0  0  0  0  0  0  0  0  0  0  # atno 10718 bound_to 10713
  154.4105  135.6010  153.5950 H   0  0  0  0  0  0  0  0  0  0  0  0  # atno 10763 bound_to 10752
  152.9790  135.5928  154.4076 H   0  0  0  0  0  0  0  0  0  0  0  0  # atno 10764 bound_to 10752
  154.3887  135.2842  155.2146 H   0  0  0  0  0  0  0  0  0  0  0  0  # atno 10765 bound_to 10752
  140.5452  134.0336  155.7917 H   0  0  0  0  0  0  0  0  0  0  0  0  # atno 11005 bound_to 11000
  144.8012  140.6216  143.6477 LP  0  0  0  0  0  0  0  0  0  0  0  0  # atno 17320 bound_to 7965
  145.4617  139.1512  143.3863 LP  0  0  0  0  0  0  0  0  0  0  0  0  # atno 17321 bound_to 7965
  139.6423  144.0516  152.2564 LP  0  0  0  0  0  0  0  0  0  0  0  0  # atno 17342 bound_to 10162
  140.0025  144.6283  150.7717 LP  0  0  0  0  0  0  0  0  0  0  0  0  # atno 17343 bound_to 10162
  156.9249  130.9695  151.3542 LP  0  0  0  0  0  0  0  0  0  0  0  0  # atno 17370 bound_to 10713
  157.5936  130.8461  149.8696 LP  0  0  0  0  0  0  0  0  0  0  0  0  # atno 17371 bound_to 10713
  141.1204  133.9471  157.2741 LP  0  0  0  0  0  0  0  0  0  0  0  0  # atno 17394 bound_to 11000
  139.9483  135.0180  156.8919 LP  0  0  0  0  0  0  0  0  0  0  0  0  # atno 17395 bound_to 11000

$$$$
