AV-unprocessed.smi:2906|AV-procd|sdf|11162|dock6
  -GOLD-   2272016 53D 1   1.00000     0.00000
 Structure written by MMmdl.
 40 41  0  0  0  0  0  0  0  0  1 V2000
  146.0466  129.5323  151.4749 C   0  0  0  0  0  0  0  0  0  0  0  0
  145.6409  130.8439  152.1664 C   0  0  0  0  0  0  0  0  0  0  0  0
  145.6820  132.0716  151.2405 C   0  0  0  0  0  0  0  0  0  0  0  0
  145.8526  131.9204  150.0298 O   0  0  0  0  0  0  0  0  0  0  0  0
  145.5248  133.2929  151.7931 N   0  0  0  0  0  0  0  0  0  0  0  0
  145.3415  133.5072  153.2246 C   0  0  0  0  0  0  0  0  0  0  0  0
  144.8885  134.9565  153.3925 C   0  0  0  0  0  0  0  0  0  0  0  0
  145.2551  135.6696  152.0907 C   0  0  1  0  0  0  0  0  0  0  0  0
  146.3890  136.5720  152.2733 N   0  0  0  0  0  0  0  0  0  0  0  0
  146.3864  137.6631  153.0527 C   0  0  0  0  0  0  0  0  0  0  0  0
  145.4062  138.0302  153.7015 O   0  0  0  0  0  0  0  0  0  0  0  0
  147.5789  138.2838  153.0249 N   0  0  0  0  0  0  0  0  0  0  0  0
  147.9643  139.4710  153.7003 C   0  0  0  0  0  0  0  0  0  0  0  0
  149.1352  139.6356  154.3255 N   0  0  0  0  0  0  0  0  0  0  0  0
  149.2518  140.9020  154.9067 C   0  0  0  0  0  0  0  0  0  0  0  0
  150.5013  141.2701  155.6476 C   0  0  0  0  0  0  0  0  0  0  0  0
  150.2215  141.6548  157.1046 C   0  0  0  0  0  0  0  0  0  0  0  0
  148.1451  141.6921  154.7114 C   0  0  0  0  0  0  0  0  0  0  0  0
  146.9125  140.8751  153.7880 S   0  0  0  0  0  0  0  0  0  0  0  0
  145.5573  134.5610  151.0685 C   0  0  0  0  0  0  0  0  0  0  0  0
  146.0017  128.6986  152.1757 H   0  0  0  0  0  0  0  0  0  0  0  0
  147.0655  129.5826  151.0897 H   0  0  0  0  0  0  0  0  0  0  0  0
  145.3811  129.2981  150.6431 H   0  0  0  0  0  0  0  0  0  0  0  0
  144.6325  130.7354  152.5667 H   0  0  0  0  0  0  0  0  0  0  0  0
  146.3039  131.0187  153.0143 H   0  0  0  0  0  0  0  0  0  0  0  0
  144.6137  132.8167  153.6537 H   0  0  0  0  0  0  0  0  0  0  0  0
  146.2955  133.3458  153.7285 H   0  0  0  0  0  0  0  0  0  0  0  0
  143.8051  134.9783  153.5180 H   0  0  0  0  0  0  0  0  0  0  0  0
  145.3211  135.4231  154.2786 H   0  0  0  0  0  0  0  0  0  0  0  0
  144.3985  136.2592  151.7581 H   0  0  0  0  0  0  0  0  0  0  0  0
  147.2356  136.3450  151.7728 H   0  0  0  0  0  0  0  0  0  0  0  0
  148.2942  137.8583  152.4540 H   0  0  0  0  0  0  0  0  0  0  0  0
  151.2074  140.4394  155.6261 H   0  0  0  0  0  0  0  0  0  0  0  0
  151.0011  142.0995  155.1462 H   0  0  0  0  0  0  0  0  0  0  0  0
  151.1452  141.9137  157.6221 H   0  0  0  0  0  0  0  0  0  0  0  0
  149.7553  140.8313  157.6462 H   0  0  0  0  0  0  0  0  0  0  0  0
  149.5549  142.5157  157.1636 H   0  0  0  0  0  0  0  0  0  0  0  0
  147.9816  142.7031  155.0535 H   0  0  0  0  0  0  0  0  0  0  0  0
  146.5270  134.6982  150.5869 H   0  0  0  0  0  0  0  0  0  0  0  0
  144.7969  134.5626  150.2863 H   0  0  0  0  0  0  0  0  0  0  0  0
  1  2  1  0  0  0  0
  1 21  1  0  0  0  0
  1 22  1  0  0  0  0
  1 23  1  0  0  0  0
  2  3  1  0  0  0  0
  2 24  1  0  0  0  0
  2 25  1  0  0  0  0
  3  4  2  0  0  0  0
  3  5  1  0  0  0  0
  5 20  1  0  0  0  0
  5  6  1  0  0  0  0
  6  7  1  0  0  0  0
  6 26  1  0  0  0  0
  6 27  1  0  0  0  0
  7  8  1  0  0  0  0
  7 28  1  0  0  0  0
  7 29  1  0  0  0  0
  8  9  1  0  0  0  0
  8 20  1  0  0  0  0
  8 30  1  0  0  0  0
  9 10  1  0  0  0  0
  9 31  1  0  0  0  0
 10 11  2  0  0  0  0
 10 12  1  0  0  0  0
 12 13  1  0  0  0  0
 12 32  1  0  0  0  0
 13 19  1  0  0  0  0
 13 14  2  0  0  0  0
 14 15  1  0  0  0  0
 15 16  1  0  0  0  0
 15 18  2  0  0  0  0
 16 17  1  0  0  0  0
 16 33  1  0  0  0  0
 16 34  1  0  0  0  0
 17 35  1  0  0  0  0
 17 36  1  0  0  0  0
 17 37  1  0  0  0  0
 18 19  1  0  0  0  0
 18 38  1  0  0  0  0
 20 39  1  0  0  0  0
 20 40  1  0  0  0  0
M  END
> <s_m_source_file>
AV-unprocessed.smi

> <i_m_source_file_index>
2906

> <i_lp_mmshare_version>
43012

> <i_f3d_flags>
0

> <s_epik_input>
W0NIM11bQ0gyXUMoPU8pTjFbQ0gyXVtDSDJdW0NASF0oW0NIMl0xKVtOSF1DKD1PKVtOSF1jMm5jKFtjSF1zMilbQ0gyXVtDSDNd

> <s_epik_cmdline>
J2VwaWtfcHl0aG9uJywgJy1waCcsICc3LjAnLCAnLXRuJywgJzgnLCAnLW1hJywgJzIwMCcsICctbWV0YWxfYmluZGluZycsICctaW1hZScsICc8aW5maWxlLm1hZT4nLCAnLW9tYWUnLCAnPG91dGZpbGUubWFlPic=

> <r_lp_tautomer_probability>
1

> <r_epik_Ionization_Penalty>
0.000174744

> <r_epik_Ionization_Penalty_Charging>
0

> <r_epik_Ionization_Penalty_Neutral>
0.000174744

> <r_epik_State_Penalty>
-0

> <r_epik_Charging_Adjusted_Penalty>
0

> <i_epik_Tot_Q>
0

> <i_epik_Tot_abs_Q>
0

> <r_epik_Metal_State_Penalty>
0.0273865

> <b_epik_Metal_Only>
0

> <s_lp_Force_Field>
OPLS_2005

> <r_lp_Energy>
22.1367

> <b_lp_Chiralities_Consistent>
1

> <s_lp_Variant>
AV-unprocessed.smi:2906-1

> <Gold.Version>
5.8.1

> <Gold.Id.Protein>
6NUR|6NUR_protein|mol2

> <Gold.PLP.Fitness>
40.0857

> <Gold.PLP.PLP>
-32.3098

> <Gold.PLP.part.hbond>
-2.4420

> <Gold.PLP.part.metal>
0.0000

> <Gold.PLP.part.buried>
-4.4438

> <Gold.PLP.part.nonpolar>
-27.0602

> <Gold.PLP.part.repulsive>
0.7547

> <Gold.PLP.ligand.clash>
0.0000

> <Gold.PLP.ligand.torsion>
0.4471

> <Gold.PLP.Chemscore.Hbond>
1.8880

> <Gold.PLP.Chemscore.CHOScore>
1.0000

> <Gold.PLP.Chemscore.Metal>
0.0000

> <Gold.Chemscore.Hbonds>
donor molecule, donor type, donor heavy atom, donor atom, acceptor molecule, acceptor atom, score
      L1  H     9    31       P1  7948  0.94
      L1  H    12    32       P1  7948  0.90
      L1  C    18    38       P1  8028  1.00

> <Gold.PLP.Chemscore.Internal.Correction>
0.0060

> <Gold.Rescore>
     Score         DG    S(hbond)    S(metal)    S(lipo)     H(rot)  DE(clash)    DE(int)     intcor
     15.47     -15.91       1.90        0.00      65.76       1.41       0.08       0.36       ----

> <Gold.Chemscore.Fitness>
15.4748

> <Gold.Chemscore.DG>
-15.9086

> <Gold.Chemscore.ZeroCoef>
-5.4800

> <Gold.Chemscore.Hbond>
1.8997

> <Gold.Chemscore.Metal>
0.0000

> <Gold.Chemscore.Lipo>
65.7589

> <Gold.Chemscore.Internal_Hbond>
0.0000

> <Gold.Chemscore.DEClash>
0.0779

> <Gold.Chemscore.DEInternal>
0.3559

> <Gold.Chemscore.Rot>
1.4102

> <Gold.Chemscore.Internal.Correction>
   9.000000E+99

> <Gold.Chemscore.Hbonds>
donor molecule, donor type, donor heavy atom, donor atom, acceptor molecule, acceptor atom, score
      L1  H     9    31       P1  7948  0.91
      L1  H    12    32       P1  7948  0.88

> <Gold.Chemscore.Hbond.Weighted>
-6.3449

> <Gold.Chemscore.Metal.Weighted>
-0.0000

> <Gold.Chemscore.Lipo.Weighted>
-7.6938

> <Gold.Chemscore.Internal_Hbond.Weighted>
0.0000

> <Gold.Chemscore.DEClash.Weighted>
0.0779

> <Gold.Chemscore.DEInternal.Weighted>
0.3559

> <Gold.Chemscore.Rot.Weighted>
3.6101

> <Gold.Chemscore.Internal.Correction.Weighted>
   9.000000E+99

> <Gold.Protein.RotatedTorsions>
[ 6907 6896 6895 6894 ] final -147.72 input  -60.11 | X-H torsion
[ 7974 7965 7964 7962 ] final  164.20 input  175.53 | X-H torsion
[ 8008 7997 7996 7995 ] final   67.24 input   59.86 | X-H torsion
[ 10167 10162 10161 10158 ] final   68.57 input  -65.29 | X-H torsion
[ 10718 10713 10712 10709 ] final  -83.89 input   66.30 | X-H torsion
[ 10763 10752 10751 10750 ] final  164.61 input  -60.55 | X-H torsion
[ 11005 11000 10999 10996 ] final  -39.96 input  -57.11 | X-H torsion

> <Gold.Protein.ActiveResidues>
 VAL166  LYS551  ARG553  GLY616  TRP617  ASP618  TYR619  PRO620  LYS621  CYS622 
 ASP623  PHE694  ASN695  SER759  ASP760  ASP761  ALA762  ILE779  LEU786  VAL792 
 PHE793  MET794  SER795  GLU796  ALA797  LYS798  CYS799  TRP800  GLU811  SER814 

> <Gold.Protein.RotatedAtoms>
  151.1596  133.4854  159.2594 H   0  0  0  0  0  0  0  0  0  0  0  0  # atno 6907 bound_to 6896
  151.1468  135.0207  159.8660 H   0  0  0  0  0  0  0  0  0  0  0  0  # atno 6908 bound_to 6896
  152.5463  134.1484  159.8561 H   0  0  0  0  0  0  0  0  0  0  0  0  # atno 6909 bound_to 6896
  144.7556  139.8292  143.6351 H   0  0  0  0  0  0  0  0  0  0  0  0  # atno 7974 bound_to 7965
  155.6899  140.3496  155.4889 H   0  0  0  0  0  0  0  0  0  0  0  0  # atno 8008 bound_to 7997
  155.9533  140.1123  157.0980 H   0  0  0  0  0  0  0  0  0  0  0  0  # atno 8009 bound_to 7997
  154.4127  140.1190  156.5068 H   0  0  0  0  0  0  0  0  0  0  0  0  # atno 8010 bound_to 7997
  140.0772  144.5102  150.7187 H   0  0  0  0  0  0  0  0  0  0  0  0  # atno 10167 bound_to 10162
  156.0013  130.4680  150.4326 H   0  0  0  0  0  0  0  0  0  0  0  0  # atno 10718 bound_to 10713
  154.3115  135.2757  155.2564 H   0  0  0  0  0  0  0  0  0  0  0  0  # atno 10763 bound_to 10752
  154.4957  135.5822  153.6496 H   0  0  0  0  0  0  0  0  0  0  0  0  # atno 10764 bound_to 10752
  152.9887  135.6145  154.3292 H   0  0  0  0  0  0  0  0  0  0  0  0  # atno 10765 bound_to 10752
  141.0140  133.6894  156.2257 H   0  0  0  0  0  0  0  0  0  0  0  0  # atno 11005 bound_to 11000
  146.1561  139.4659  143.0018 LP  0  0  0  0  0  0  0  0  0  0  0  0  # atno 17320 bound_to 7965
  145.6793  141.0195  143.1615 LP  0  0  0  0  0  0  0  0  0  0  0  0  # atno 17321 bound_to 7965
  140.7096  143.2494  151.4622 LP  0  0  0  0  0  0  0  0  0  0  0  0  # atno 17342 bound_to 10162
  139.5801  144.1729  152.1956 LP  0  0  0  0  0  0  0  0  0  0  0  0  # atno 17343 bound_to 10162
  157.2374  131.0518  151.2457 LP  0  0  0  0  0  0  0  0  0  0  0  0  # atno 17370 bound_to 10713
  157.3653  130.7153  149.6529 LP  0  0  0  0  0  0  0  0  0  0  0  0  # atno 17371 bound_to 10713
  140.6686  134.4891  157.5586 LP  0  0  0  0  0  0  0  0  0  0  0  0  # atno 17394 bound_to 11000
  139.9106  134.8353  156.1543 LP  0  0  0  0  0  0  0  0  0  0  0  0  # atno 17395 bound_to 11000

$$$$
