AV-unprocessed.smi:2479|AV-procd|sdf|9768|dock5
  -GOLD-   2272013413D 1   1.00000     0.00000
 Structure written by MMmdl.
 29 30  0  0  0  0  0  0  0  0  1 V2000
  152.1977  145.5993  158.8987 N   0  0  0  0  0  0  0  0  0  0  0  0
  152.0223  144.4802  158.6635 C   0  0  0  0  0  0  0  0  0  0  0  0
  151.8019  143.0751  158.3688 C   0  0  0  0  0  0  0  0  0  0  0  0
  150.7906  142.6748  157.4734 C   0  0  0  0  0  0  0  0  0  0  0  0
  150.5461  141.3835  157.1655 N   0  0  0  0  0  0  0  0  0  0  0  0
  151.3105  140.4213  157.7388 C   0  0  0  0  0  0  0  0  0  0  0  0
  151.0364  139.0768  157.4150 N   0  0  0  0  0  0  0  0  0  0  0  0
  150.6491  138.3376  158.6141 C   0  0  0  0  0  0  0  0  0  0  0  0
  150.4984  136.8424  158.3037 C   0  0  0  0  0  0  0  0  0  0  0  0
  149.5507  136.6823  157.2576 O   0  0  0  0  0  0  0  0  0  0  0  0
  149.9884  137.3037  156.0550 C   0  0  0  0  0  0  0  0  0  0  0  0
  150.1617  138.8285  156.2553 C   0  0  2  0  0  0  0  0  0  0  0  0
  150.6202  139.4338  154.9118 C   0  0  0  0  0  0  0  0  0  0  0  0
  149.7753  139.4089  153.8752 N   0  0  0  0  0  0  0  0  0  0  0  0
  151.7460  139.9168  154.8116 O   0  0  0  0  0  0  0  0  0  0  0  0
  152.3471  140.7282  158.6543 C   0  0  0  0  0  0  0  0  0  0  0  0
  153.3186  139.4910  159.3726 Cl  0  0  0  0  0  0  0  0  0  0  0  0
  152.5944  142.0786  158.9707 C   0  0  0  0  0  0  0  0  0  0  0  0
  150.1574  143.4044  156.9893 H   0  0  0  0  0  0  0  0  0  0  0  0
  151.3938  138.4709  159.4003 H   0  0  0  0  0  0  0  0  0  0  0  0
  149.7061  138.7306  158.9986 H   0  0  0  0  0  0  0  0  0  0  0  0
  151.4556  136.4003  158.0220 H   0  0  0  0  0  0  0  0  0  0  0  0
  150.1466  136.3081  159.1863 H   0  0  0  0  0  0  0  0  0  0  0  0
  150.9204  136.8406  155.7244 H   0  0  0  0  0  0  0  0  0  0  0  0
  149.2465  137.1020  155.2810 H   0  0  0  0  0  0  0  0  0  0  0  0
  149.1768  139.2426  156.4792 H   0  0  0  0  0  0  0  0  0  0  0  0
  150.0567  139.7986  152.9870 H   0  0  0  0  0  0  0  0  0  0  0  0
  148.8591  138.9989  153.9847 H   0  0  0  0  0  0  0  0  0  0  0  0
  153.3814  142.3405  159.6632 H   0  0  0  0  0  0  0  0  0  0  0  0
  1  2  3  0  0  0  0
  2  3  1  0  0  0  0
  3 18  1  0  0  0  0
  3  4  2  0  0  0  0
  4  5  1  0  0  0  0
  4 19  1  0  0  0  0
  5  6  2  0  0  0  0
  6  7  1  0  0  0  0
  6 16  1  0  0  0  0
  7 12  1  0  0  0  0
  7  8  1  0  0  0  0
  8  9  1  0  0  0  0
  8 20  1  0  0  0  0
  8 21  1  0  0  0  0
  9 10  1  0  0  0  0
  9 22  1  0  0  0  0
  9 23  1  0  0  0  0
 10 11  1  0  0  0  0
 11 12  1  0  0  0  0
 11 24  1  0  0  0  0
 11 25  1  0  0  0  0
 12 13  1  0  0  0  0
 12 26  1  0  0  0  0
 13 14  1  0  0  0  0
 13 15  2  0  0  0  0
 14 27  1  0  0  0  0
 14 28  1  0  0  0  0
 16 17  1  0  0  0  0
 16 18  2  0  0  0  0
 18 29  1  0  0  0  0
M  END
> <s_m_source_file>
AV-unprocessed.smi

> <i_m_source_file_index>
2479

> <i_lp_mmshare_version>
43012

> <i_f3d_flags>
0

> <s_epik_input>
TiNDYzFbY0hdbmMoYyhDbClbY0hdMSlOMltDSDJdW0NIMl1PW0NIMl1bQ0BIXTJDKD1PKVtOSDJd

> <s_epik_cmdline>
J2VwaWtfcHl0aG9uJywgJy1waCcsICc3LjAnLCAnLXRuJywgJzgnLCAnLW1hJywgJzIwMCcsICctbWV0YWxfYmluZGluZycsICctaW1hZScsICc8aW5maWxlLm1hZT4nLCAnLW9tYWUnLCAnPG91dGZpbGUubWFlPic=

> <r_lp_tautomer_probability>
1

> <r_epik_Ionization_Penalty>
1.61078e-07

> <r_epik_Ionization_Penalty_Charging>
0

> <r_epik_Ionization_Penalty_Neutral>
1.61078e-07

> <r_epik_State_Penalty>
-0

> <r_epik_Charging_Adjusted_Penalty>
0

> <i_epik_Tot_Q>
0

> <i_epik_Tot_abs_Q>
0

> <r_epik_Metal_State_Penalty>
-0

> <b_epik_Metal_Only>
0

> <s_lp_Force_Field>
OPLS_2005

> <r_lp_Energy>
19.0846

> <b_lp_Chiralities_Consistent>
1

> <s_lp_Variant>
AV-unprocessed.smi:2479-2

> <Gold.Version>
5.8.1

> <Gold.Id.Protein>
6NUR|6NUR_protein|mol2

> <Gold.PLP.Fitness>
35.8158

> <Gold.PLP.PLP>
-27.3990

> <Gold.PLP.part.hbond>
-2.6897

> <Gold.PLP.part.metal>
0.0000

> <Gold.PLP.part.buried>
-3.7690

> <Gold.PLP.part.nonpolar>
-21.3117

> <Gold.PLP.part.repulsive>
0.3108

> <Gold.PLP.ligand.clash>
0.0000

> <Gold.PLP.ligand.torsion>
0.2895

> <Gold.PLP.Chemscore.Hbond>
1.9440

> <Gold.PLP.Chemscore.CHOScore>
1.0000

> <Gold.PLP.Chemscore.Metal>
0.0000

> <Gold.Chemscore.Hbonds>
donor molecule, donor type, donor heavy atom, donor atom, acceptor molecule, acceptor atom, score
      L1  H    14    27       P1  7957  0.93
      P1  H  7989  7998       L1    15  1.00
      L1  C     4    19       P1  8028  1.00

> <Gold.PLP.Chemscore.Internal.Correction>
0.1638

> <Gold.Rescore>
     Score         DG    S(hbond)    S(metal)    S(lipo)     H(rot)  DE(clash)    DE(int)     intcor
     10.55     -13.89       1.68        0.00      56.90       1.50       0.08       3.26       ----

> <Gold.Chemscore.Fitness>
10.5525

> <Gold.Chemscore.DG>
-13.8942

> <Gold.Chemscore.ZeroCoef>
-5.4800

> <Gold.Chemscore.Hbond>
1.6761

> <Gold.Chemscore.Metal>
0.0000

> <Gold.Chemscore.Lipo>
56.9015

> <Gold.Chemscore.Internal_Hbond>
0.0000

> <Gold.Chemscore.DEClash>
0.0775

> <Gold.Chemscore.DEInternal>
3.2642

> <Gold.Chemscore.Rot>
1.5006

> <Gold.Chemscore.Internal.Correction>
   9.000000E+99

> <Gold.Chemscore.Hbonds>
donor molecule, donor type, donor heavy atom, donor atom, acceptor molecule, acceptor atom, score
      L1  H    14    27       P1  7957  0.91
      P1  H  7989  7998       L1    15  0.47

> <Gold.Chemscore.Hbond.Weighted>
-5.5983

> <Gold.Chemscore.Metal.Weighted>
-0.0000

> <Gold.Chemscore.Lipo.Weighted>
-6.6575

> <Gold.Chemscore.Internal_Hbond.Weighted>
0.0000

> <Gold.Chemscore.DEClash.Weighted>
0.0775

> <Gold.Chemscore.DEInternal.Weighted>
3.2642

> <Gold.Chemscore.Rot.Weighted>
3.8416

> <Gold.Chemscore.Internal.Correction.Weighted>
   9.000000E+99

> <Gold.Protein.RotatedTorsions>
[ 6907 6896 6895 6894 ] final  109.01 input  -60.11 | X-H torsion
[ 7974 7965 7964 7962 ] final -129.28 input  175.53 | X-H torsion
[ 8008 7997 7996 7995 ] final   29.92 input   59.86 | X-H torsion
[ 10167 10162 10161 10158 ] final   47.75 input  -65.29 | X-H torsion
[ 10718 10713 10712 10709 ] final   56.45 input   66.30 | X-H torsion
[ 10763 10752 10751 10750 ] final  -81.97 input  -60.55 | X-H torsion
[ 11005 11000 10999 10996 ] final  -69.37 input  -57.11 | X-H torsion

> <Gold.Protein.ActiveResidues>
 VAL166  LYS551  ARG553  GLY616  TRP617  ASP618  TYR619  PRO620  LYS621  CYS622 
 ASP623  PHE694  ASN695  SER759  ASP760  ASP761  ALA762  ILE779  LEU786  VAL792 
 PHE793  MET794  SER795  GLU796  ALA797  LYS798  CYS799  TRP800  GLU811  SER814 

> <Gold.Protein.RotatedAtoms>
  152.5087  133.9007  159.7439 H   0  0  0  0  0  0  0  0  0  0  0  0  # atno 6907 bound_to 6896
  150.9423  133.6634  159.2795 H   0  0  0  0  0  0  0  0  0  0  0  0  # atno 6908 bound_to 6896
  151.3941  135.0965  159.9588 H   0  0  0  0  0  0  0  0  0  0  0  0  # atno 6909 bound_to 6896
  144.9588  140.7424  143.4742 H   0  0  0  0  0  0  0  0  0  0  0  0  # atno 7974 bound_to 7965
  155.0822  140.3211  155.4598 H   0  0  0  0  0  0  0  0  0  0  0  0  # atno 8008 bound_to 7997
  156.2764  140.2093  156.5895 H   0  0  0  0  0  0  0  0  0  0  0  0  # atno 8009 bound_to 7997
  154.6970  140.0511  157.0407 H   0  0  0  0  0  0  0  0  0  0  0  0  # atno 8010 bound_to 7997
  140.3004  144.2940  150.6220 H   0  0  0  0  0  0  0  0  0  0  0  0  # atno 10167 bound_to 10162
  157.5431  130.8712  149.8852 H   0  0  0  0  0  0  0  0  0  0  0  0  # atno 10718 bound_to 10713
  154.5700  135.5608  153.7086 H   0  0  0  0  0  0  0  0  0  0  0  0  # atno 10763 bound_to 10752
  153.0045  135.6295  154.2127 H   0  0  0  0  0  0  0  0  0  0  0  0  # atno 10764 bound_to 10752
  154.2066  135.2875  155.2952 H   0  0  0  0  0  0  0  0  0  0  0  0  # atno 10765 bound_to 10752
  141.1552  133.6763  156.6590 H   0  0  0  0  0  0  0  0  0  0  0  0  # atno 11005 bound_to 11000
  145.2732  139.1947  143.4830 LP  0  0  0  0  0  0  0  0  0  0  0  0  # atno 17320 bound_to 7965
  146.3346  140.2681  142.8604 LP  0  0  0  0  0  0  0  0  0  0  0  0  # atno 17321 bound_to 7965
  140.5656  143.2186  151.7690 LP  0  0  0  0  0  0  0  0  0  0  0  0  # atno 17342 bound_to 10162
  139.4916  144.4289  151.9895 LP  0  0  0  0  0  0  0  0  0  0  0  0  # atno 17343 bound_to 10162
  156.0513  130.3717  150.1194 LP  0  0  0  0  0  0  0  0  0  0  0  0  # atno 17370 bound_to 10713
  156.9372  130.9733  151.3522 LP  0  0  0  0  0  0  0  0  0  0  0  0  # atno 17371 bound_to 10713
  140.3262  134.7966  157.4291 LP  0  0  0  0  0  0  0  0  0  0  0  0  # atno 17394 bound_to 11000
  140.1055  134.5415  155.8313 LP  0  0  0  0  0  0  0  0  0  0  0  0  # atno 17395 bound_to 11000

$$$$
