AV-unprocessed.smi:2457|AV-procd|sdf|9705|dock3
  -GOLD-   2272013343D 1   1.00000     0.00000
 Structure written by MMmdl.
 40 41  0  0  0  0  0  0  0  0  1 V2000
  153.1351  138.7116  154.4922 C   0  0  0  0  0  0  0  0  0  0  0  0
  151.7609  138.1318  154.6084 C   0  0  0  0  0  0  0  0  0  0  0  0
  150.6003  138.6464  154.0869 C   0  0  0  0  0  0  0  0  0  0  0  0
  149.2230  137.6455  154.4554 S   0  0  0  0  0  0  0  0  0  0  0  0
  150.2924  136.5438  155.3174 C   0  0  0  0  0  0  0  0  0  0  0  0
  149.8067  135.3074  156.0116 C   0  0  1  0  0  0  0  0  0  0  0  0
  148.4825  135.5407  156.7527 C   0  0  0  0  0  0  0  0  0  0  0  0
  149.7723  134.0665  155.0914 C   0  0  0  0  0  0  0  0  0  0  0  0
  148.8992  134.2404  153.9334 N   0  0  0  0  0  0  0  0  0  0  0  0
  147.8942  133.4194  153.6002 C   0  0  0  0  0  0  0  0  0  0  0  0
  147.5593  132.4362  154.2610 O   0  0  0  0  0  0  0  0  0  0  0  0
  147.3155  133.7846  152.4481 N   0  0  0  0  0  0  0  0  0  0  0  0
  146.2332  133.0627  151.7858 C   0  0  2  0  0  0  0  0  0  0  0  0
  146.5530  132.8928  150.2859 C   0  0  0  0  0  0  0  0  0  0  0  0
  145.4765  132.0894  149.5392 C   0  0  0  0  0  0  0  0  0  0  0  0
  144.0991  132.7652  149.5946 C   0  0  0  0  0  0  0  0  0  0  0  0
  143.5047  132.9081  151.3020 S   0  0  0  0  0  0  0  0  0  0  0  0
  144.9095  133.8153  152.0054 C   0  0  0  0  0  0  0  0  0  0  0  0
  151.5692  136.9391  155.3110 N   0  0  0  0  0  0  0  0  0  0  0  0
  153.1370  139.6143  153.8810 H   0  0  0  0  0  0  0  0  0  0  0  0
  153.8234  138.0018  154.0325 H   0  0  0  0  0  0  0  0  0  0  0  0
  153.5356  138.9751  155.4713 H   0  0  0  0  0  0  0  0  0  0  0  0
  150.4719  139.5496  153.5091 H   0  0  0  0  0  0  0  0  0  0  0  0
  150.5423  135.0957  156.7885 H   0  0  0  0  0  0  0  0  0  0  0  0
  148.5716  136.3598  157.4669 H   0  0  0  0  0  0  0  0  0  0  0  0
  148.1810  134.6510  157.3061 H   0  0  0  0  0  0  0  0  0  0  0  0
  147.6785  135.7889  156.0592 H   0  0  0  0  0  0  0  0  0  0  0  0
  150.7791  133.8033  154.7636 H   0  0  0  0  0  0  0  0  0  0  0  0
  149.3971  133.2090  155.6503 H   0  0  0  0  0  0  0  0  0  0  0  0
  149.1007  135.0202  153.3249 H   0  0  0  0  0  0  0  0  0  0  0  0
  147.6680  134.6055  151.9784 H   0  0  0  0  0  0  0  0  0  0  0  0
  146.1392  132.0753  152.2425 H   0  0  0  0  0  0  0  0  0  0  0  0
  146.6693  133.8713  149.8180 H   0  0  0  0  0  0  0  0  0  0  0  0
  147.5112  132.3849  150.1691 H   0  0  0  0  0  0  0  0  0  0  0  0
  145.7765  131.9708  148.4976 H   0  0  0  0  0  0  0  0  0  0  0  0
  145.4116  131.0832  149.9554 H   0  0  0  0  0  0  0  0  0  0  0  0
  144.1450  133.7595  149.1493 H   0  0  0  0  0  0  0  0  0  0  0  0
  143.3733  132.1899  149.0196 H   0  0  0  0  0  0  0  0  0  0  0  0
  144.7239  133.9575  153.0706 H   0  0  0  0  0  0  0  0  0  0  0  0
  144.9516  134.8068  151.5530 H   0  0  0  0  0  0  0  0  0  0  0  0
  1  2  1  0  0  0  0
  1 20  1  0  0  0  0
  1 21  1  0  0  0  0
  1 22  1  0  0  0  0
  2 19  1  0  0  0  0
  2  3  2  0  0  0  0
  3  4  1  0  0  0  0
  3 23  1  0  0  0  0
  4  5  1  0  0  0  0
  5  6  1  0  0  0  0
  5 19  2  0  0  0  0
  6  7  1  0  0  0  0
  6  8  1  0  0  0  0
  6 24  1  0  0  0  0
  7 25  1  0  0  0  0
  7 26  1  0  0  0  0
  7 27  1  0  0  0  0
  8  9  1  0  0  0  0
  8 28  1  0  0  0  0
  8 29  1  0  0  0  0
  9 10  1  0  0  0  0
  9 30  1  0  0  0  0
 10 11  2  0  0  0  0
 10 12  1  0  0  0  0
 12 13  1  0  0  0  0
 12 31  1  0  0  0  0
 13 18  1  0  0  0  0
 13 14  1  0  0  0  0
 13 32  1  0  0  0  0
 14 15  1  0  0  0  0
 14 33  1  0  0  0  0
 14 34  1  0  0  0  0
 15 16  1  0  0  0  0
 15 35  1  0  0  0  0
 15 36  1  0  0  0  0
 16 17  1  0  0  0  0
 16 37  1  0  0  0  0
 16 38  1  0  0  0  0
 17 18  1  0  0  0  0
 18 39  1  0  0  0  0
 18 40  1  0  0  0  0
M  END
> <s_m_source_file>
AV-unprocessed.smi

> <i_m_source_file_index>
2457

> <i_lp_mmshare_version>
43012

> <i_f3d_flags>
0

> <s_epik_input>
W0NIM11jMVtjSF1zYyhuMSlbQ0BIXShbQ0gzXSlbQ0gyXVtOSF1DKD1PKVtOSF1bQ0BASF0yW0NIMl1bQ0gyXVtDSDJdU1tDSDJdMg==

> <s_epik_cmdline>
J2VwaWtfcHl0aG9uJywgJy1waCcsICc3LjAnLCAnLXRuJywgJzgnLCAnLW1hJywgJzIwMCcsICctbWV0YWxfYmluZGluZycsICctaW1hZScsICc8aW5maWxlLm1hZT4nLCAnLW9tYWUnLCAnPG91dGZpbGUubWFlPic=

> <r_epik_Ionization_Penalty>
0.00154805

> <r_epik_Ionization_Penalty_Charging>
0

> <r_epik_Ionization_Penalty_Neutral>
0.00154805

> <r_epik_State_Penalty>
0.00100357

> <r_epik_Charging_Adjusted_Penalty>
0.00100357

> <i_epik_Tot_Q>
0

> <i_epik_Tot_abs_Q>
0

> <r_epik_Metal_State_Penalty>
-0

> <b_epik_Metal_Only>
0

> <s_lp_Force_Field>
OPLS_2005

> <r_lp_Energy>
-7.39523

> <b_lp_Chiralities_Consistent>
1

> <s_lp_Variant>
AV-unprocessed.smi:2457-2

> <Gold.Version>
5.8.1

> <Gold.Id.Protein>
6NUR|6NUR_protein|mol2

> <Gold.PLP.Fitness>
45.6716

> <Gold.PLP.PLP>
-35.6850

> <Gold.PLP.part.hbond>
-3.0000

> <Gold.PLP.part.metal>
0.0000

> <Gold.PLP.part.buried>
-3.4108

> <Gold.PLP.part.nonpolar>
-29.1414

> <Gold.PLP.part.repulsive>
0.1418

> <Gold.PLP.ligand.clash>
0.0000

> <Gold.PLP.ligand.torsion>
0.8330

> <Gold.PLP.Chemscore.Hbond>
2.9000

> <Gold.PLP.Chemscore.CHOScore>
0.9439

> <Gold.PLP.Chemscore.Metal>
0.0000

> <Gold.Chemscore.Hbonds>
donor molecule, donor type, donor heavy atom, donor atom, acceptor molecule, acceptor atom, score
      L1  H     9    30       P1  7948  0.90
      L1  H    12    31       P1  7948  1.00
      P1  H 10752 10764       L1    19  0.96
      L1  C     3    23       P1  7957  0.98

> <Gold.PLP.Chemscore.Internal.Correction>
0.1209

> <Gold.Rescore>
     Score         DG    S(hbond)    S(metal)    S(lipo)     H(rot)  DE(clash)    DE(int)     intcor
     17.79     -18.66       1.78        0.00      93.71       1.46       0.07       0.80       ----

> <Gold.Chemscore.Fitness>
17.7895

> <Gold.Chemscore.DG>
-18.6563

> <Gold.Chemscore.ZeroCoef>
-5.4800

> <Gold.Chemscore.Hbond>
1.7824

> <Gold.Chemscore.Metal>
0.0000

> <Gold.Chemscore.Lipo>
93.7142

> <Gold.Chemscore.Internal_Hbond>
0.0000

> <Gold.Chemscore.DEClash>
0.0656

> <Gold.Chemscore.DEInternal>
0.8012

> <Gold.Chemscore.Rot>
1.4616

> <Gold.Chemscore.Internal.Correction>
   9.000000E+99

> <Gold.Chemscore.Hbonds>
donor molecule, donor type, donor heavy atom, donor atom, acceptor molecule, acceptor atom, score
      L1  H     9    30       P1  7948  0.18
      L1  H    12    31       P1  7948  0.45
      P1  H 10752 10764       L1    19  0.65

> <Gold.Chemscore.Hbond.Weighted>
-5.9534

> <Gold.Chemscore.Metal.Weighted>
-0.0000

> <Gold.Chemscore.Lipo.Weighted>
-10.9646

> <Gold.Chemscore.Internal_Hbond.Weighted>
0.0000

> <Gold.Chemscore.DEClash.Weighted>
0.0656

> <Gold.Chemscore.DEInternal.Weighted>
0.8012

> <Gold.Chemscore.Rot.Weighted>
3.7416

> <Gold.Chemscore.Internal.Correction.Weighted>
   9.000000E+99

> <Gold.Protein.RotatedTorsions>
[ 6907 6896 6895 6894 ] final  151.33 input  -60.11 | X-H torsion
[ 7974 7965 7964 7962 ] final    6.68 input  175.53 | X-H torsion
[ 8008 7997 7996 7995 ] final -160.65 input   59.86 | X-H torsion
[ 10167 10162 10161 10158 ] final   28.90 input  -65.29 | X-H torsion
[ 10718 10713 10712 10709 ] final -156.75 input   66.30 | X-H torsion
[ 10763 10752 10751 10750 ] final  -49.85 input  -60.55 | X-H torsion
[ 11005 11000 10999 10996 ] final -176.77 input  -57.11 | X-H torsion

> <Gold.Protein.ActiveResidues>
 VAL166  LYS551  ARG553  GLY616  TRP617  ASP618  TYR619  PRO620  LYS621  CYS622 
 ASP623  PHE694  ASN695  SER759  ASP760  ASP761  ALA762  ILE779  LEU786  VAL792 
 PHE793  MET794  SER795  GLU796  ALA797  LYS798  CYS799  TRP800  GLU811  SER814 

> <Gold.Protein.RotatedAtoms>
  152.1021  133.4255  159.4591 H   0  0  0  0  0  0  0  0  0  0  0  0  # atno 6907 bound_to 6896
  150.6864  134.2748  159.4612 H   0  0  0  0  0  0  0  0  0  0  0  0  # atno 6908 bound_to 6896
  152.0609  134.9594  160.0625 H   0  0  0  0  0  0  0  0  0  0  0  0  # atno 6909 bound_to 6896
  146.2433  140.0197  142.8399 H   0  0  0  0  0  0  0  0  0  0  0  0  # atno 7974 bound_to 7965
  155.7805  140.0864  157.2061 H   0  0  0  0  0  0  0  0  0  0  0  0  # atno 8008 bound_to 7997
  154.3990  140.1508  156.3104 H   0  0  0  0  0  0  0  0  0  0  0  0  # atno 8009 bound_to 7997
  155.8658  140.3428  155.5790 H   0  0  0  0  0  0  0  0  0  0  0  0  # atno 8010 bound_to 7997
  140.4812  144.0612  150.6266 H   0  0  0  0  0  0  0  0  0  0  0  0  # atno 10167 bound_to 10162
  156.5308  130.8520  151.2715 H   0  0  0  0  0  0  0  0  0  0  0  0  # atno 10718 bound_to 10713
  154.1008  135.6563  153.4868 H   0  0  0  0  0  0  0  0  0  0  0  0  # atno 10763 bound_to 10752
  153.0289  135.5224  154.7288 H   0  0  0  0  0  0  0  0  0  0  0  0  # atno 10764 bound_to 10752
  154.6440  135.2992  155.0038 H   0  0  0  0  0  0  0  0  0  0  0  0  # atno 10765 bound_to 10752
  140.4484  134.6366  157.4790 H   0  0  0  0  0  0  0  0  0  0  0  0  # atno 11005 bound_to 11000
  145.1252  140.9486  143.4577 LP  0  0  0  0  0  0  0  0  0  0  0  0  # atno 17320 bound_to 7965
  145.0442  139.3235  143.5961 LP  0  0  0  0  0  0  0  0  0  0  0  0  # atno 17321 bound_to 7965
  140.3855  143.2780  152.0121 LP  0  0  0  0  0  0  0  0  0  0  0  0  # atno 17342 bound_to 10162
  139.4834  144.6120  151.7416 LP  0  0  0  0  0  0  0  0  0  0  0  0  # atno 17343 bound_to 10162
  157.7422  130.9885  150.2499 LP  0  0  0  0  0  0  0  0  0  0  0  0  # atno 17370 bound_to 10713
  156.3062  130.3765  149.7704 LP  0  0  0  0  0  0  0  0  0  0  0  0  # atno 17371 bound_to 10713
  140.0023  134.6817  155.9510 LP  0  0  0  0  0  0  0  0  0  0  0  0  # atno 17394 bound_to 11000
  141.1675  133.6537  156.4531 LP  0  0  0  0  0  0  0  0  0  0  0  0  # atno 17395 bound_to 11000

$$$$
