AV-unprocessed.smi:2045|AV-procd|sdf|8308|dock8
  -GOLD-   2272010573D 1   1.00000     0.00000
 Structure written by MMmdl.
 39 40  0  0  0  0  0  0  0  0  2 V2000
  150.0439  142.1454  157.7451 C   0  0  0  0  0  0  0  0  0  0  0  0
  150.0103  141.3414  156.4908 C   0  0  0  0  0  0  0  0  0  0  0  0
  149.0099  141.0246  155.6153 C   0  0  0  0  0  0  0  0  0  0  0  0
  149.6746  140.2294  154.6446 C   0  0  0  0  0  0  0  0  0  0  0  0
  148.9700  139.6904  153.5378 N   0  0  0  0  0  0  0  0  0  0  0  0
  147.7386  139.1521  153.5363 C   0  0  0  0  0  0  0  0  0  0  0  0
  147.0061  139.0499  154.5209 O   0  0  0  0  0  0  0  0  0  0  0  0
  147.3911  138.7246  152.3135 N   0  0  0  0  0  0  0  0  0  0  0  0
  146.1180  138.0931  151.9855 C   0  0  0  0  0  0  0  0  0  0  0  0
  145.8084  136.9164  152.9321 C   0  0  0  0  0  0  0  0  0  0  0  0
  146.3627  135.6309  152.4381 N   0  3  0  0  0  0  0  0  0  0  0  0
  146.5016  134.6265  153.5254 C   0  0  0  0  0  0  0  0  0  0  0  0
  147.2002  133.3516  153.0228 C   0  0  0  0  0  0  0  0  0  0  0  0
  146.4561  132.7536  151.8222 C   0  0  0  0  0  0  0  0  0  0  0  0
  146.2949  133.8143  150.7262 C   0  0  0  0  0  0  0  0  0  0  0  0
  145.6127  135.0776  151.2779 C   0  0  0  0  0  0  0  0  0  0  0  0
  150.9640  140.0751  154.9031 N   0  0  0  0  0  0  0  0  0  0  0  0
  151.1856  140.7864  156.0884 O   0  0  0  0  0  0  0  0  0  0  0  0
  149.1291  142.7270  157.8600 H   0  0  0  0  0  0  0  0  0  0  0  0
  150.8854  142.8383  157.7388 H   0  0  0  0  0  0  0  0  0  0  0  0
  150.1448  141.4974  158.6159 H   0  0  0  0  0  0  0  0  0  0  0  0
  147.9714  141.3169  155.6650 H   0  0  0  0  0  0  0  0  0  0  0  0
  149.4587  139.7137  152.6551 H   0  0  0  0  0  0  0  0  0  0  0  0
  148.0487  138.8507  151.5576 H   0  0  0  0  0  0  0  0  0  0  0  0
  145.3316  138.8479  152.0113 H   0  0  0  0  0  0  0  0  0  0  0  0
  146.1716  137.7373  150.9563 H   0  0  0  0  0  0  0  0  0  0  0  0
  146.2439  137.1469  153.9056 H   0  0  0  0  0  0  0  0  0  0  0  0
  144.7349  136.8101  153.0947 H   0  0  0  0  0  0  0  0  0  0  0  0
  147.0814  135.0485  154.3472 H   0  0  0  0  0  0  0  0  0  0  0  0
  145.5157  134.3833  153.9251 H   0  0  0  0  0  0  0  0  0  0  0  0
  148.2278  133.5833  152.7396 H   0  0  0  0  0  0  0  0  0  0  0  0
  147.2590  132.6175  153.8270 H   0  0  0  0  0  0  0  0  0  0  0  0
  146.9959  131.8888  151.4356 H   0  0  0  0  0  0  0  0  0  0  0  0
  145.4750  132.3956  152.1368 H   0  0  0  0  0  0  0  0  0  0  0  0
  147.2730  134.0738  150.3187 H   0  0  0  0  0  0  0  0  0  0  0  0
  145.7133  133.4077  149.8984 H   0  0  0  0  0  0  0  0  0  0  0  0
  144.5900  134.8474  151.5813 H   0  0  0  0  0  0  0  0  0  0  0  0
  145.5434  135.8156  150.4795 H   0  0  0  0  0  0  0  0  0  0  0  0
  147.2998  135.8282  152.1175 H   0  0  0  0  0  0  0  0  0  0  0  0
  1  2  1  0  0  0  0
  1 19  1  0  0  0  0
  1 20  1  0  0  0  0
  1 21  1  0  0  0  0
  2 18  1  0  0  0  0
  2  3  2  0  0  0  0
  3  4  1  0  0  0  0
  3 22  1  0  0  0  0
  4  5  1  0  0  0  0
  4 17  2  0  0  0  0
  5  6  1  0  0  0  0
  5 23  1  0  0  0  0
  6  7  2  0  0  0  0
  6  8  1  0  0  0  0
  8  9  1  0  0  0  0
  8 24  1  0  0  0  0
  9 10  1  0  0  0  0
  9 25  1  0  0  0  0
  9 26  1  0  0  0  0
 10 11  1  0  0  0  0
 10 27  1  0  0  0  0
 10 28  1  0  0  0  0
 11 16  1  0  0  0  0
 11 12  1  0  0  0  0
 11 39  1  0  0  0  0
 12 13  1  0  0  0  0
 12 29  1  0  0  0  0
 12 30  1  0  0  0  0
 13 14  1  0  0  0  0
 13 31  1  0  0  0  0
 13 32  1  0  0  0  0
 14 15  1  0  0  0  0
 14 33  1  0  0  0  0
 14 34  1  0  0  0  0
 15 16  1  0  0  0  0
 15 35  1  0  0  0  0
 15 36  1  0  0  0  0
 16 37  1  0  0  0  0
 16 38  1  0  0  0  0
 17 18  1  0  0  0  0
M  CHG  1  11   1
M  END
> <s_m_source_file>
AV-unprocessed.smi

> <i_m_source_file_index>
2045

> <i_lp_mmshare_version>
43012

> <i_f3d_flags>
0

> <s_epik_input>
W0NIM11jMVtjSF1jKG5vMSlbTkhdQyg9TylbTkhdW0NIMl1bQ0gyXU4yW0NIMl1bQ0gyXVtDSDJdW0NIMl1bQ0gyXTI=

> <s_epik_cmdline>
J2VwaWtfcHl0aG9uJywgJy1waCcsICc3LjAnLCAnLXRuJywgJzgnLCAnLW1hJywgJzIwMCcsICctbWV0YWxfYmluZGluZycsICctaW1hZScsICc8aW5maWxlLm1hZT4nLCAnLW9tYWUnLCAnPG91dGZpbGUubWFlPic=

> <r_epik_Ionization_Penalty>
0.00265971

> <r_epik_Ionization_Penalty_Charging>
0.00262393

> <r_epik_Ionization_Penalty_Neutral>
3.57846e-05

> <r_epik_State_Penalty>
0.00182566

> <r_epik_Charging_Adjusted_Penalty>
0.00444959

> <i_epik_Tot_Q>
1

> <i_epik_Tot_abs_Q>
1

> <r_epik_Metal_State_Penalty>
0.0216344

> <b_epik_Metal_Only>
0

> <s_lp_Force_Field>
OPLS_2005

> <r_lp_Energy>
12.4185

> <b_lp_Chiralities_Consistent>
1

> <s_lp_Variant>
AV-unprocessed.smi:2045-1

> <Gold.Version>
5.8.1

> <Gold.Id.Protein>
6NUR|6NUR_protein|mol2

> <Gold.PLP.Fitness>
43.2041

> <Gold.PLP.PLP>
-30.1755

> <Gold.PLP.part.hbond>
-4.8352

> <Gold.PLP.part.metal>
0.0000

> <Gold.PLP.part.buried>
-4.3654

> <Gold.PLP.part.nonpolar>
-21.1351

> <Gold.PLP.part.repulsive>
0.4146

> <Gold.PLP.ligand.clash>
0.0000

> <Gold.PLP.ligand.torsion>
0.6692

> <Gold.PLP.Chemscore.Hbond>
4.7840

> <Gold.PLP.Chemscore.CHOScore>
0.0000

> <Gold.PLP.Chemscore.Metal>
0.0000

> <Gold.Chemscore.Hbonds>
donor molecule, donor type, donor heavy atom, donor atom, acceptor molecule, acceptor atom, score
      L1  H     5    23       P1  7957  1.00
      L1  H     8    24       P1  7957  0.77
      L1  H    11    39       P1  7948  2.00
      P1  H  7989  7998       L1    17  1.00

> <Gold.PLP.Chemscore.Internal.Correction>
0.0151

> <Gold.Rescore>
     Score         DG    S(hbond)    S(metal)    S(lipo)     H(rot)  DE(clash)    DE(int)     intcor
     16.47     -19.53       3.59        0.00      52.25       1.58       0.01       3.05       ----

> <Gold.Chemscore.Fitness>
16.4676

> <Gold.Chemscore.DG>
-19.5306

> <Gold.Chemscore.ZeroCoef>
-5.4800

> <Gold.Chemscore.Hbond>
3.5901

> <Gold.Chemscore.Metal>
0.0000

> <Gold.Chemscore.Lipo>
52.2485

> <Gold.Chemscore.Internal_Hbond>
0.0000

> <Gold.Chemscore.DEClash>
0.0088

> <Gold.Chemscore.DEInternal>
3.0542

> <Gold.Chemscore.Rot>
1.5833

> <Gold.Chemscore.Internal.Correction>
   9.000000E+99

> <Gold.Chemscore.Hbonds>
donor molecule, donor type, donor heavy atom, donor atom, acceptor molecule, acceptor atom, score
      L1  H     5    23       P1  7957  0.92
      L1  H     8    24       P1  7957  0.57
      L1  H    11    39       P1  7948  1.00
      P1  H  7989  7998       L1    17  0.22

> <Gold.Chemscore.Hbond.Weighted>
-11.9908

> <Gold.Chemscore.Metal.Weighted>
-0.0000

> <Gold.Chemscore.Lipo.Weighted>
-6.1131

> <Gold.Chemscore.Internal_Hbond.Weighted>
0.0000

> <Gold.Chemscore.DEClash.Weighted>
0.0088

> <Gold.Chemscore.DEInternal.Weighted>
3.0542

> <Gold.Chemscore.Rot.Weighted>
4.0532

> <Gold.Chemscore.Internal.Correction.Weighted>
   9.000000E+99

> <Gold.Protein.RotatedTorsions>
[ 6907 6896 6895 6894 ] final  -18.04 input  -60.11 | X-H torsion
[ 7974 7965 7964 7962 ] final   -0.02 input  175.53 | X-H torsion
[ 8008 7997 7996 7995 ] final -120.73 input   59.86 | X-H torsion
[ 10167 10162 10161 10158 ] final  -80.52 input  -65.29 | X-H torsion
[ 10718 10713 10712 10709 ] final   86.49 input   66.30 | X-H torsion
[ 10763 10752 10751 10750 ] final   85.35 input  -60.55 | X-H torsion
[ 11005 11000 10999 10996 ] final   61.18 input  -57.11 | X-H torsion

> <Gold.Protein.ActiveResidues>
 VAL166  LYS551  ARG553  GLY616  TRP617  ASP618  TYR619  PRO620  LYS621  CYS622 
 ASP623  PHE694  ASN695  SER759  ASP760  ASP761  ALA762  ILE779  LEU786  VAL792 
 PHE793  MET794  SER795  GLU796  ALA797  LYS798  CYS799  TRP800  GLU811  SER814 

> <Gold.Protein.RotatedAtoms>
  151.2842  135.0723  159.9180 H   0  0  0  0  0  0  0  0  0  0  0  0  # atno 6907 bound_to 6896
  152.5328  133.9999  159.7900 H   0  0  0  0  0  0  0  0  0  0  0  0  # atno 6908 bound_to 6896
  151.0258  133.5784  159.2697 H   0  0  0  0  0  0  0  0  0  0  0  0  # atno 6909 bound_to 6896
  146.2431  140.1207  142.8340 H   0  0  0  0  0  0  0  0  0  0  0  0  # atno 7974 bound_to 7965
  155.1365  140.0401  157.2788 H   0  0  0  0  0  0  0  0  0  0  0  0  # atno 8008 bound_to 7997
  154.6504  140.2568  155.7194 H   0  0  0  0  0  0  0  0  0  0  0  0  # atno 8009 bound_to 7997
  156.2574  140.2837  156.0935 H   0  0  0  0  0  0  0  0  0  0  0  0  # atno 8010 bound_to 7997
  140.4496  143.2487  151.8509 H   0  0  0  0  0  0  0  0  0  0  0  0  # atno 10167 bound_to 10162
  157.6929  131.0217  150.2981 H   0  0  0  0  0  0  0  0  0  0  0  0  # atno 10718 bound_to 10713
  153.1467  135.4620  154.9576 H   0  0  0  0  0  0  0  0  0  0  0  0  # atno 10763 bound_to 10752
  154.7791  135.3183  154.8030 H   0  0  0  0  0  0  0  0  0  0  0  0  # atno 10764 bound_to 10752
  153.8542  135.6918  153.4843 H   0  0  0  0  0  0  0  0  0  0  0  0  # atno 10765 bound_to 10752
  140.0179  134.6197  155.9683 H   0  0  0  0  0  0  0  0  0  0  0  0  # atno 11005 bound_to 11000
  145.0409  140.8944  143.5053 LP  0  0  0  0  0  0  0  0  0  0  0  0  # atno 17320 bound_to 7965
  145.1287  139.2646  143.5550 LP  0  0  0  0  0  0  0  0  0  0  0  0  # atno 17321 bound_to 7965
  139.4795  144.5136  151.8899 LP  0  0  0  0  0  0  0  0  0  0  0  0  # atno 17342 bound_to 10162
  140.4223  144.2226  150.5887 LP  0  0  0  0  0  0  0  0  0  0  0  0  # atno 17343 bound_to 10162
  156.3501  130.3829  149.7336 LP  0  0  0  0  0  0  0  0  0  0  0  0  # atno 17370 bound_to 10713
  156.4817  130.8044  151.3058 LP  0  0  0  0  0  0  0  0  0  0  0  0  # atno 17371 bound_to 10713
  141.1755  133.6540  156.4811 LP  0  0  0  0  0  0  0  0  0  0  0  0  # atno 17394 bound_to 11000
  140.4439  134.6991  157.5005 LP  0  0  0  0  0  0  0  0  0  0  0  0  # atno 17395 bound_to 11000

$$$$
