AV-unprocessed.smi:2402|AV-procd|sdf|9505|dock8
  -GOLD-   2272013133D 1   1.00000     0.00000
 Structure written by MMmdl.
 38 39  0  0  0  0  0  0  0  0  1 V2000
  152.2055  145.9529  160.3230 C   0  0  0  0  0  0  0  0  0  0  0  0
  152.1329  144.5404  159.7821 C   0  0  0  0  0  0  0  0  0  0  0  0
  152.8865  143.5037  160.3651 C   0  0  0  0  0  0  0  0  0  0  0  0
  152.7749  142.2111  159.8163 C   0  0  0  0  0  0  0  0  0  0  0  0
  153.5613  141.0512  160.3901 C   0  0  0  0  0  0  0  0  0  0  0  0
  151.9823  141.9246  158.7614 N   0  0  0  0  0  0  0  0  0  0  0  0
  151.2514  142.9149  158.1918 C   0  0  0  0  0  0  0  0  0  0  0  0
  150.3939  142.7196  157.0762 N   0  0  0  0  0  0  0  0  0  0  0  0
  150.1915  141.5929  156.3704 C   0  0  0  0  0  0  0  0  0  0  0  0
  150.7017  140.4983  156.6117 O   0  0  0  0  0  0  0  0  0  0  0  0
  149.3471  141.8042  155.3505 N   0  0  0  0  0  0  0  0  0  0  0  0
  148.9238  140.7855  154.3960 C   0  0  2  0  0  0  0  0  0  0  0  0
  147.9151  141.3485  153.4330 C   0  0  0  0  0  0  0  0  0  0  0  0
  146.7915  140.6360  153.3910 C   0  0  0  0  0  0  0  0  0  0  0  0
  146.8133  139.4534  154.3234 C   0  0  2  0  0  0  0  0  0  0  0  0
  145.5865  139.4242  155.2499 C   0  0  0  0  0  0  0  0  0  0  0  0
  144.4163  139.1685  154.5027 O   0  0  0  0  0  0  0  0  0  0  0  0
  148.1651  139.6115  155.0688 C   0  0  0  0  0  0  0  0  0  0  0  0
  151.3055  144.2394  158.6815 C   0  0  0  0  0  0  0  0  0  0  0  0
  149.7770  140.4209  153.8211 H   0  0  0  0  0  0  0  0  0  0  0  0
  146.8310  138.5546  153.7055 H   0  0  0  0  0  0  0  0  0  0  0  0
  152.9938  146.0514  161.0698 H   0  0  0  0  0  0  0  0  0  0  0  0
  151.2581  146.2278  160.7872 H   0  0  0  0  0  0  0  0  0  0  0  0
  152.4114  146.6576  159.5168 H   0  0  0  0  0  0  0  0  0  0  0  0
  153.5335  143.6939  161.2091 H   0  0  0  0  0  0  0  0  0  0  0  0
  154.0070  141.3128  161.3502 H   0  0  0  0  0  0  0  0  0  0  0  0
  154.3623  140.7656  159.7079 H   0  0  0  0  0  0  0  0  0  0  0  0
  152.9135  140.1872  160.5414 H   0  0  0  0  0  0  0  0  0  0  0  0
  149.8879  143.5372  156.7704 H   0  0  0  0  0  0  0  0  0  0  0  0
  148.9704  142.7322  155.2247 H   0  0  0  0  0  0  0  0  0  0  0  0
  148.1152  142.2274  152.8378 H   0  0  0  0  0  0  0  0  0  0  0  0
  145.9438  140.8524  152.7576 H   0  0  0  0  0  0  0  0  0  0  0  0
  145.6973  138.6622  156.0224 H   0  0  0  0  0  0  0  0  0  0  0  0
  145.4693  140.3828  155.7561 H   0  0  0  0  0  0  0  0  0  0  0  0
  144.2911  139.8749  153.8877 H   0  0  0  0  0  0  0  0  0  0  0  0
  148.7483  138.6911  155.0237 H   0  0  0  0  0  0  0  0  0  0  0  0
  147.9942  139.8194  156.1264 H   0  0  0  0  0  0  0  0  0  0  0  0
  150.7190  145.0200  158.2184 H   0  0  0  0  0  0  0  0  0  0  0  0
  1  2  1  0  0  0  0
  1 22  1  0  0  0  0
  1 23  1  0  0  0  0
  1 24  1  0  0  0  0
  2 19  1  0  0  0  0
  2  3  2  0  0  0  0
  3  4  1  0  0  0  0
  3 25  1  0  0  0  0
  4  5  1  0  0  0  0
  4  6  2  0  0  0  0
  5 26  1  0  0  0  0
  5 27  1  0  0  0  0
  5 28  1  0  0  0  0
  6  7  1  0  0  0  0
  7  8  1  0  0  0  0
  7 19  2  0  0  0  0
  8  9  1  0  0  0  0
  8 29  1  0  0  0  0
  9 10  2  0  0  0  0
  9 11  1  0  0  0  0
 11 12  1  0  0  0  0
 11 30  1  0  0  0  0
 12 20  1  0  0  0  0
 12 18  1  0  0  0  0
 12 13  1  0  0  0  0
 13 14  2  0  0  0  0
 13 31  1  0  0  0  0
 14 15  1  0  0  0  0
 14 32  1  0  0  0  0
 15 21  1  0  0  0  0
 15 16  1  0  0  0  0
 15 18  1  0  0  0  0
 16 17  1  0  0  0  0
 16 33  1  0  0  0  0
 16 34  1  0  0  0  0
 17 35  1  0  0  0  0
 18 36  1  0  0  0  0
 18 37  1  0  0  0  0
 19 38  1  0  0  0  0
M  END
> <s_m_source_file>
AV-unprocessed.smi

> <i_m_source_file_index>
2402

> <i_lp_mmshare_version>
43012

> <i_f3d_flags>
0

> <s_epik_input>
W0NIM11jMVtjSF1jKFtDSDNdKW5jKFtjSF0xKVtOSF1DKD1PKVtOSF1bQ0BASF0yW0NIXT1bQ0hdW0NAQEhdKFtDSDJdMilbQ0gyXVtPSF0=

> <s_epik_cmdline>
J2VwaWtfcHl0aG9uJywgJy1waCcsICc3LjAnLCAnLXRuJywgJzgnLCAnLW1hJywgJzIwMCcsICctbWV0YWxfYmluZGluZycsICctaW1hZScsICc8aW5maWxlLm1hZT4nLCAnLW9tYWUnLCAnPG91dGZpbGUubWFlPic=

> <r_lp_tautomer_probability>
1

> <r_epik_Ionization_Penalty>
0.000257495

> <r_epik_Ionization_Penalty_Charging>
0

> <r_epik_Ionization_Penalty_Neutral>
0.000257495

> <r_epik_State_Penalty>
-0

> <r_epik_Charging_Adjusted_Penalty>
0

> <i_epik_Tot_Q>
0

> <i_epik_Tot_abs_Q>
0

> <r_epik_Metal_State_Penalty>
-0

> <b_epik_Metal_Only>
0

> <s_lp_Force_Field>
OPLS_2005

> <r_lp_Energy>
18.4158

> <b_lp_Chiralities_Consistent>
1

> <s_lp_Variant>
AV-unprocessed.smi:2402-1

> <Gold.Version>
5.8.1

> <Gold.Id.Protein>
6NUR|6NUR_protein|mol2

> <Gold.PLP.Fitness>
46.1051

> <Gold.PLP.PLP>
-37.1502

> <Gold.PLP.part.hbond>
-3.0000

> <Gold.PLP.part.metal>
0.0000

> <Gold.PLP.part.buried>
-4.8916

> <Gold.PLP.part.nonpolar>
-30.4718

> <Gold.PLP.part.repulsive>
0.1875

> <Gold.PLP.ligand.clash>
0.0000

> <Gold.PLP.ligand.torsion>
0.0296

> <Gold.PLP.Chemscore.Hbond>
3.0000

> <Gold.PLP.Chemscore.CHOScore>
0.0000

> <Gold.PLP.Chemscore.Metal>
0.0000

> <Gold.Chemscore.Hbonds>
donor molecule, donor type, donor heavy atom, donor atom, acceptor molecule, acceptor atom, score
      L1  H     8    29       P1  8028  1.00
      L1  H    11    30       P1  8028  1.00
      L1  H    17    35       P1 10175  1.00

> <Gold.PLP.Chemscore.Internal.Correction>
0.0141

> <Gold.Rescore>
     Score         DG    S(hbond)    S(metal)    S(lipo)     H(rot)  DE(clash)    DE(int)     intcor
     19.50     -21.70       2.80        0.00      97.69       1.78       0.76       1.43       ----

> <Gold.Chemscore.Fitness>
19.5032

> <Gold.Chemscore.DG>
-21.6997

> <Gold.Chemscore.ZeroCoef>
-5.4800

> <Gold.Chemscore.Hbond>
2.8018

> <Gold.Chemscore.Metal>
0.0000

> <Gold.Chemscore.Lipo>
97.6910

> <Gold.Chemscore.Internal_Hbond>
0.0000

> <Gold.Chemscore.DEClash>
0.7644

> <Gold.Chemscore.DEInternal>
1.4321

> <Gold.Chemscore.Rot>
1.7844

> <Gold.Chemscore.Internal.Correction>
   9.000000E+99

> <Gold.Chemscore.Hbonds>
donor molecule, donor type, donor heavy atom, donor atom, acceptor molecule, acceptor atom, score
      L1  H     8    29       P1  8028  0.99
      L1  H    11    30       P1  8028  0.91
      L1  H    17    35       P1 10175  0.95

> <Gold.Chemscore.Hbond.Weighted>
-9.3580

> <Gold.Chemscore.Metal.Weighted>
-0.0000

> <Gold.Chemscore.Lipo.Weighted>
-11.4298

> <Gold.Chemscore.Internal_Hbond.Weighted>
0.0000

> <Gold.Chemscore.DEClash.Weighted>
0.7644

> <Gold.Chemscore.DEInternal.Weighted>
1.4321

> <Gold.Chemscore.Rot.Weighted>
4.5681

> <Gold.Chemscore.Internal.Correction.Weighted>
   9.000000E+99

> <Gold.Protein.RotatedTorsions>
[ 6907 6896 6895 6894 ] final    9.05 input  -60.11 | X-H torsion
[ 7974 7965 7964 7962 ] final  179.15 input  175.53 | X-H torsion
[ 8008 7997 7996 7995 ] final  160.36 input   59.86 | X-H torsion
[ 10167 10162 10161 10158 ] final -138.53 input  -65.29 | X-H torsion
[ 10718 10713 10712 10709 ] final   79.02 input   66.30 | X-H torsion
[ 10763 10752 10751 10750 ] final  -95.54 input  -60.55 | X-H torsion
[ 11005 11000 10999 10996 ] final   96.23 input  -57.11 | X-H torsion

> <Gold.Protein.ActiveResidues>
 VAL166  LYS551  ARG553  GLY616  TRP617  ASP618  TYR619  PRO620  LYS621  CYS622 
 ASP623  PHE694  ASN695  SER759  ASP760  ASP761  ALA762  ILE779  LEU786  VAL792 
 PHE793  MET794  SER795  GLU796  ALA797  LYS798  CYS799  TRP800  GLU811  SER814 

> <Gold.Protein.RotatedAtoms>
  151.7160  135.0903  160.0275 H   0  0  0  0  0  0  0  0  0  0  0  0  # atno 6907 bound_to 6896
  152.3632  133.6319  159.6039 H   0  0  0  0  0  0  0  0  0  0  0  0  # atno 6908 bound_to 6896
  150.7619  133.9306  159.3467 H   0  0  0  0  0  0  0  0  0  0  0  0  # atno 6909 bound_to 6896
  144.7148  140.0505  143.6435 H   0  0  0  0  0  0  0  0  0  0  0  0  # atno 7974 bound_to 7965
  156.2177  140.1806  156.7550 H   0  0  0  0  0  0  0  0  0  0  0  0  # atno 8008 bound_to 7997
  154.5817  140.0665  156.9142 H   0  0  0  0  0  0  0  0  0  0  0  0  # atno 8009 bound_to 7997
  155.2491  140.3327  155.4286 H   0  0  0  0  0  0  0  0  0  0  0  0  # atno 8010 bound_to 7997
  139.8469  143.7249  152.2660 H   0  0  0  0  0  0  0  0  0  0  0  0  # atno 10167 bound_to 10162
  157.6764  130.9895  150.1872 H   0  0  0  0  0  0  0  0  0  0  0  0  # atno 10718 bound_to 10713
  154.7158  135.5117  153.8735 H   0  0  0  0  0  0  0  0  0  0  0  0  # atno 10763 bound_to 10752
  153.0819  135.6634  154.0037 H   0  0  0  0  0  0  0  0  0  0  0  0  # atno 10764 bound_to 10752
  153.9870  135.3023  155.3395 H   0  0  0  0  0  0  0  0  0  0  0  0  # atno 10765 bound_to 10752
  139.8783  134.8940  156.4128 H   0  0  0  0  0  0  0  0  0  0  0  0  # atno 11005 bound_to 11000
  145.9948  139.3043  143.0963 LP  0  0  0  0  0  0  0  0  0  0  0  0  # atno 17320 bound_to 7965
  145.8861  140.9332  143.0576 LP  0  0  0  0  0  0  0  0  0  0  0  0  # atno 17321 bound_to 7965
  139.7504  144.7536  151.0516 LP  0  0  0  0  0  0  0  0  0  0  0  0  # atno 17342 bound_to 10162
  140.7792  143.4867  150.9946 LP  0  0  0  0  0  0  0  0  0  0  0  0  # atno 17343 bound_to 10162
  156.2591  130.3709  149.8150 LP  0  0  0  0  0  0  0  0  0  0  0  0  # atno 17370 bound_to 10713
  156.5900  130.8502  151.3405 LP  0  0  0  0  0  0  0  0  0  0  0  0  # atno 17371 bound_to 10713
  140.9188  133.7659  155.9881 LP  0  0  0  0  0  0  0  0  0  0  0  0  # atno 17394 bound_to 11000
  140.8463  134.3007  157.5293 LP  0  0  0  0  0  0  0  0  0  0  0  0  # atno 17395 bound_to 11000

$$$$
