AV-unprocessed.smi:114|AV-procd|sdf|1120|dock9
  -GOLD-   2262018243D 1   1.00000     0.00000
 Structure written by MMmdl.
 32 34  0  0  0  0  0  0  0  0  1 V2000
  143.1574  134.5137  155.6164 N   0  0  0  0  0  0  0  0  0  0  0  0
  143.8348  135.6403  155.8791 C   0  0  0  0  0  0  0  0  0  0  0  0
  143.2453  136.5822  156.6525 N   0  0  0  0  0  0  0  0  0  0  0  0
  143.8870  137.7226  156.9376 C   0  0  0  0  0  0  0  0  0  0  0  0
  143.2222  138.6072  157.7173 F   0  0  0  0  0  0  0  0  0  0  0  0
  145.1107  138.0872  156.5382 N   0  0  0  0  0  0  0  0  0  0  0  0
  145.7059  137.1380  155.7600 C   0  0  0  0  0  0  0  0  0  0  0  0
  145.1377  135.8925  155.3847 C   0  0  0  0  0  0  0  0  0  0  0  0
  146.0301  135.1875  154.5882 N   0  0  0  0  0  0  0  0  0  0  0  0
  147.0663  135.9791  154.4996 C   0  0  0  0  0  0  0  0  0  0  0  0
  146.9508  137.1787  155.1720 N   0  0  0  0  0  0  0  0  0  0  0  0
  147.9306  138.3084  155.2875 C   0  0  1  0  0  0  0  0  0  0  0  0
  149.1646  137.7851  155.6773 O   0  0  0  0  0  0  0  0  0  0  0  0
  150.0298  137.7039  154.5503 C   0  0  2  0  0  0  0  0  0  0  0  0
  151.5017  137.5930  154.9826 C   0  0  0  0  0  0  0  0  0  0  0  0
  152.2968  137.1998  153.8848 O   0  0  0  0  0  0  0  0  0  0  0  0
  149.6611  138.9670  153.7623 C   0  0  2  0  0  0  0  0  0  0  0  0
  150.2892  140.1124  154.3096 O   0  0  0  0  0  0  0  0  0  0  0  0
  148.1498  139.0481  153.9439 C   0  0  1  0  0  0  0  0  0  0  0  0
  147.5028  138.4433  152.8369 O   0  0  0  0  0  0  0  0  0  0  0  0
  147.5263  138.9430  156.0769 H   0  0  0  0  0  0  0  0  0  0  0  0
  149.7524  136.8372  153.9475 H   0  0  0  0  0  0  0  0  0  0  0  0
  149.9557  138.8921  152.7145 H   0  0  0  0  0  0  0  0  0  0  0  0
  147.7973  140.0770  154.0296 H   0  0  0  0  0  0  0  0  0  0  0  0
  143.5778  133.7981  155.0408 H   0  0  0  0  0  0  0  0  0  0  0  0
  142.2293  134.3830  155.9923 H   0  0  0  0  0  0  0  0  0  0  0  0
  147.9458  135.7010  153.9374 H   0  0  0  0  0  0  0  0  0  0  0  0
  151.8684  138.5629  155.3200 H   0  0  0  0  0  0  0  0  0  0  0  0
  151.6240  136.8910  155.8081 H   0  0  0  0  0  0  0  0  0  0  0  0
  151.7351  137.0775  153.1347 H   0  0  0  0  0  0  0  0  0  0  0  0
  149.6833  140.5355  154.8986 H   0  0  0  0  0  0  0  0  0  0  0  0
  148.1341  137.9079  152.3805 H   0  0  0  0  0  0  0  0  0  0  0  0
  1  2  1  0  0  0  0
  1 25  1  0  0  0  0
  1 26  1  0  0  0  0
  2  8  1  0  0  0  0
  2  3  2  0  0  0  0
  3  4  1  0  0  0  0
  4  5  1  0  0  0  0
  4  6  2  0  0  0  0
  6  7  1  0  0  0  0
  7 11  1  0  0  0  0
  7  8  2  0  0  0  0
  8  9  1  0  0  0  0
  9 10  2  0  0  0  0
 10 11  1  0  0  0  0
 10 27  1  0  0  0  0
 11 12  1  0  0  0  0
 12 21  1  0  0  0  0
 12 19  1  0  0  0  0
 12 13  1  0  0  0  0
 13 14  1  0  0  0  0
 14 22  1  0  0  0  0
 14 15  1  0  0  0  0
 14 17  1  0  0  0  0
 15 16  1  0  0  0  0
 15 28  1  0  0  0  0
 15 29  1  0  0  0  0
 16 30  1  0  0  0  0
 17 23  1  0  0  0  0
 17 18  1  0  0  0  0
 17 19  1  0  0  0  0
 18 31  1  0  0  0  0
 19 24  1  0  0  0  0
 19 20  1  0  0  0  0
 20 32  1  0  0  0  0
M  END
> <s_m_source_file>
AV-unprocessed.smi

> <i_m_source_file_index>
114

> <i_lp_mmshare_version>
43012

> <i_f3d_flags>
0

> <s_epik_input>
RmMobjEpbmMoW05IMl0pYyhjMTIpbltjSF1uMltDQEBIXTNPW0NASF0oW0NIMl1bT0hdKVtDQEBIXShbT0hdKVtDQEBIXTNbT0hd

> <s_epik_cmdline>
J2VwaWtfcHl0aG9uJywgJy1waCcsICc3LjAnLCAnLXRuJywgJzgnLCAnLW1hJywgJzIwMCcsICctbWV0YWxfYmluZGluZycsICctaW1hZScsICc8aW5maWxlLm1hZT4nLCAnLW9tYWUnLCAnPG91dGZpbGUubWFlPic=

> <r_lp_tautomer_probability>
1

> <r_epik_Ionization_Penalty>
1.13199e-05

> <r_epik_Ionization_Penalty_Charging>
0

> <r_epik_Ionization_Penalty_Neutral>
1.13199e-05

> <r_epik_State_Penalty>
-0

> <r_epik_Charging_Adjusted_Penalty>
0

> <i_epik_Tot_Q>
0

> <i_epik_Tot_abs_Q>
0

> <r_epik_Metal_State_Penalty>
-0

> <b_epik_Metal_Only>
0

> <s_epik_Chemistry_Notes>
This compound contains an acetal/aminal-like group ( X-CH(R)-Y where X, Y are N, S, or O) that may be acid/base labile, releasing an aldehyde.

> <s_lp_Force_Field>
OPLS_2005

> <r_lp_Energy>
38.7556

> <b_lp_Chiralities_Consistent>
1

> <s_lp_Variant>
AV-unprocessed.smi:114-14

> <Gold.Version>
5.8.1

> <Gold.Id.Protein>
6NUR|6NUR_protein|mol2

> <Gold.PLP.Fitness>
33.4571

> <Gold.PLP.PLP>
-15.6645

> <Gold.PLP.part.hbond>
-7.2400

> <Gold.PLP.part.metal>
0.0000

> <Gold.PLP.part.buried>
0.1538

> <Gold.PLP.part.nonpolar>
-9.5805

> <Gold.PLP.part.repulsive>
0.1013

> <Gold.PLP.ligand.clash>
0.0000

> <Gold.PLP.ligand.torsion>
0.2612

> <Gold.PLP.Chemscore.Hbond>
5.0846

> <Gold.PLP.Chemscore.CHOScore>
1.0000

> <Gold.PLP.Chemscore.Metal>
0.0000

> <Gold.Chemscore.Hbonds>
donor molecule, donor type, donor heavy atom, donor atom, acceptor molecule, acceptor atom, score
      L1  H     1    25       P1 10957  0.21
      L1  H     1    26       P1 11000  1.00
      L1  H    16    30       P1  7949  0.96
      L1  H    20    32       P1  7948  1.00
      P1  H  7989  7998       L1    18  1.00
      P1  H 10752 10765       L1    16  0.86
      L1  C    10    27       P1  7948  1.00

> <Gold.PLP.Chemscore.Internal.Correction>
0.0612

> <Gold.Rescore>
     Score         DG    S(hbond)    S(metal)    S(lipo)     H(rot)  DE(clash)    DE(int)     intcor
     12.76     -15.03       5.04        0.00      25.76       4.03       0.98       1.29       ----

> <Gold.Chemscore.Fitness>
12.7588

> <Gold.Chemscore.DG>
-15.0305

> <Gold.Chemscore.ZeroCoef>
-5.4800

> <Gold.Chemscore.Hbond>
5.0442

> <Gold.Chemscore.Metal>
0.0000

> <Gold.Chemscore.Lipo>
25.7588

> <Gold.Chemscore.Internal_Hbond>
0.0000

> <Gold.Chemscore.DEClash>
0.9834

> <Gold.Chemscore.DEInternal>
1.2882

> <Gold.Chemscore.Rot>
4.0277

> <Gold.Chemscore.Internal.Correction>
   9.000000E+99

> <Gold.Chemscore.Hbonds>
donor molecule, donor type, donor heavy atom, donor atom, acceptor molecule, acceptor atom, score
      L1  H     1    25       P1 10957  0.21
      L1  H     1    26       P1 11000  0.58
      L1  H    16    30       P1  7949  0.84
      L1  H    20    32       P1  7948  0.98
      P1  H  7989  7998       L1    18  0.96
      P1  H 10752 10765       L1    16  0.21

> <Gold.Chemscore.Hbond.Weighted>
-16.8477

> <Gold.Chemscore.Metal.Weighted>
-0.0000

> <Gold.Chemscore.Lipo.Weighted>
-3.0138

> <Gold.Chemscore.Internal_Hbond.Weighted>
0.0000

> <Gold.Chemscore.DEClash.Weighted>
0.9834

> <Gold.Chemscore.DEInternal.Weighted>
1.2882

> <Gold.Chemscore.Rot.Weighted>
10.3110

> <Gold.Chemscore.Internal.Correction.Weighted>
   9.000000E+99

> <Gold.Protein.RotatedTorsions>
[ 6907 6896 6895 6894 ] final  159.18 input  -60.11 | X-H torsion
[ 7974 7965 7964 7962 ] final   54.21 input  175.53 | X-H torsion
[ 8008 7997 7996 7995 ] final -102.83 input   59.86 | X-H torsion
[ 10167 10162 10161 10158 ] final  131.51 input  -65.29 | X-H torsion
[ 10718 10713 10712 10709 ] final -157.30 input   66.30 | X-H torsion
[ 10763 10752 10751 10750 ] final  134.00 input  -60.55 | X-H torsion
[ 11005 11000 10999 10996 ] final  119.33 input  -57.11 | X-H torsion

> <Gold.Protein.ActiveResidues>
 VAL166  LYS551  ARG553  GLY616  TRP617  ASP618  TYR619  PRO620  LYS621  CYS622 
 ASP623  PHE694  ASN695  SER759  ASP760  ASP761  ALA762  ILE779  LEU786  VAL792 
 PHE793  MET794  SER795  GLU796  ALA797  LYS798  CYS799  TRP800  GLU811  SER814 

> <Gold.Protein.RotatedAtoms>
  151.9894  133.3785  159.4138 H   0  0  0  0  0  0  0  0  0  0  0  0  # atno 6907 bound_to 6896
  150.6924  134.3953  159.5104 H   0  0  0  0  0  0  0  0  0  0  0  0  # atno 6908 bound_to 6896
  152.1684  134.8854  160.0587 H   0  0  0  0  0  0  0  0  0  0  0  0  # atno 6909 bound_to 6896
  145.9632  139.4078  143.0235 H   0  0  0  0  0  0  0  0  0  0  0  0  # atno 7974 bound_to 7965
  154.8622  140.0426  157.1672 H   0  0  0  0  0  0  0  0  0  0  0  0  # atno 8008 bound_to 7997
  154.8827  140.2975  155.5395 H   0  0  0  0  0  0  0  0  0  0  0  0  # atno 8009 bound_to 7997
  156.2998  140.2408  156.3832 H   0  0  0  0  0  0  0  0  0  0  0  0  # atno 8010 bound_to 7997
  139.5381  144.6703  151.4718 H   0  0  0  0  0  0  0  0  0  0  0  0  # atno 10167 bound_to 10162
  156.5384  130.8552  151.2740 H   0  0  0  0  0  0  0  0  0  0  0  0  # atno 10718 bound_to 10713
  153.8163  135.3122  155.3406 H   0  0  0  0  0  0  0  0  0  0  0  0  # atno 10763 bound_to 10752
  154.8031  135.4714  154.0327 H   0  0  0  0  0  0  0  0  0  0  0  0  # atno 10764 bound_to 10752
  153.1721  135.6879  153.8682 H   0  0  0  0  0  0  0  0  0  0  0  0  # atno 10765 bound_to 10752
  139.9142  134.9627  156.7639 H   0  0  0  0  0  0  0  0  0  0  0  0  # atno 11005 bound_to 11000
  145.8011  140.9770  143.0998 LP  0  0  0  0  0  0  0  0  0  0  0  0  # atno 17320 bound_to 7965
  144.6819  139.9802  143.7483 LP  0  0  0  0  0  0  0  0  0  0  0  0  # atno 17321 bound_to 7965
  140.6597  143.8524  150.6874 LP  0  0  0  0  0  0  0  0  0  0  0  0  # atno 17342 bound_to 10162
  140.1914  143.4033  152.1860 LP  0  0  0  0  0  0  0  0  0  0  0  0  # atno 17343 bound_to 10162
  157.7409  130.9860  150.2413 LP  0  0  0  0  0  0  0  0  0  0  0  0  # atno 17370 bound_to 10713
  156.2994  130.3756  149.7764 LP  0  0  0  0  0  0  0  0  0  0  0  0  # atno 17371 bound_to 10713
  140.6675  133.9590  155.7838 LP  0  0  0  0  0  0  0  0  0  0  0  0  # atno 17394 bound_to 11000
  141.0601  134.0359  157.3670 LP  0  0  0  0  0  0  0  0  0  0  0  0  # atno 17395 bound_to 11000

$$$$
