AV-unprocessed.smi:1273|AV-procd|sdf|5339|dock6
  -GOLD-   22720 4473D 1   1.00000     0.00000
 Structure written by MMmdl.
 40 41  0  0  0  0  0  0  0  0  1 V2000
  150.1897  138.0745  157.8376 C   0  0  0  0  0  0  0  0  0  0  0  0
  151.2616  137.7983  156.7705 C   0  0  1  0  0  0  0  0  0  0  0  0
  150.8192  136.7023  155.7912 C   0  0  0  0  0  0  0  0  0  0  0  0
  151.5888  136.3186  154.9103 O   0  0  0  0  0  0  0  0  0  0  0  0
  149.5813  136.2095  155.9838 N   0  0  0  0  0  0  0  0  0  0  0  0
  148.9067  135.2133  155.2297 C   0  0  0  0  0  0  0  0  0  0  0  0
  149.6790  134.2365  154.5724 C   0  0  0  0  0  0  0  0  0  0  0  0
  149.0299  133.2245  153.8401 C   0  0  0  0  0  0  0  0  0  0  0  0
  147.6158  133.2072  153.7908 C   0  0  0  0  0  0  0  0  0  0  0  0
  146.9416  132.2022  153.0635 N   0  0  0  0  0  0  0  0  0  0  0  0
  147.5712  130.8838  153.0734 C   0  0  0  0  0  0  0  0  0  0  0  0
  146.6055  129.8235  152.5160 C   0  0  0  0  0  0  0  0  0  0  0  0
  146.1539  130.2123  151.2231 O   0  0  0  0  0  0  0  0  0  0  0  0
  145.4429  131.4450  151.2601 C   0  0  0  0  0  0  0  0  0  0  0  0
  146.3711  132.5619  151.7662 C   0  0  0  0  0  0  0  0  0  0  0  0
  146.8736  134.1356  154.4429 N   0  0  0  0  0  0  0  0  0  0  0  0
  147.4992  135.1067  155.1402 C   0  0  0  0  0  0  0  0  0  0  0  0
  151.6520  139.3598  155.8496 S   0  0  0  0  0  0  0  0  0  0  0  0
  151.7728  140.6181  157.1899 C   0  0  0  0  0  0  0  0  0  0  0  0
  152.9781  139.2300  155.2259 O   0  0  0  0  0  0  0  0  0  0  0  0
  150.4913  139.6945  155.0102 O   0  0  0  0  0  0  0  0  0  0  0  0
  149.9076  137.1615  158.3633 H   0  0  0  0  0  0  0  0  0  0  0  0
  149.2873  138.5013  157.3981 H   0  0  0  0  0  0  0  0  0  0  0  0
  150.5573  138.7807  158.5822 H   0  0  0  0  0  0  0  0  0  0  0  0
  152.1770  137.4841  157.2733 H   0  0  0  0  0  0  0  0  0  0  0  0
  149.0904  136.5425  156.8007 H   0  0  0  0  0  0  0  0  0  0  0  0
  150.7578  134.2593  154.6252 H   0  0  0  0  0  0  0  0  0  0  0  0
  149.6198  132.4693  153.3427 H   0  0  0  0  0  0  0  0  0  0  0  0
  148.4747  130.9218  152.4635 H   0  0  0  0  0  0  0  0  0  0  0  0
  147.8780  130.5901  154.0761 H   0  0  0  0  0  0  0  0  0  0  0  0
  147.1101  128.8602  152.4402 H   0  0  0  0  0  0  0  0  0  0  0  0
  145.7536  129.6846  153.1838 H   0  0  0  0  0  0  0  0  0  0  0  0
  145.0858  131.6798  150.2574 H   0  0  0  0  0  0  0  0  0  0  0  0
  144.5626  131.3513  151.8983 H   0  0  0  0  0  0  0  0  0  0  0  0
  145.8061  133.4916  151.8459 H   0  0  0  0  0  0  0  0  0  0  0  0
  147.1773  132.7295  151.0506 H   0  0  0  0  0  0  0  0  0  0  0  0
  146.8416  135.7915  155.6528 H   0  0  0  0  0  0  0  0  0  0  0  0
  151.9113  141.6031  156.7444 H   0  0  0  0  0  0  0  0  0  0  0  0
  152.6246  140.3974  157.8327 H   0  0  0  0  0  0  0  0  0  0  0  0
  150.8566  140.6157  157.7797 H   0  0  0  0  0  0  0  0  0  0  0  0
  1  2  1  0  0  0  0
  1 22  1  0  0  0  0
  1 23  1  0  0  0  0
  1 24  1  0  0  0  0
  2  3  1  0  0  0  0
  2 18  1  0  0  0  0
  2 25  1  0  0  0  0
  3  4  2  0  0  0  0
  3  5  1  0  0  0  0
  5  6  1  0  0  0  0
  5 26  1  0  0  0  0
  6 17  1  0  0  0  0
  6  7  2  0  0  0  0
  7  8  1  0  0  0  0
  7 27  1  0  0  0  0
  8  9  2  0  0  0  0
  8 28  1  0  0  0  0
  9 10  1  0  0  0  0
  9 16  1  0  0  0  0
 10 15  1  0  0  0  0
 10 11  1  0  0  0  0
 11 12  1  0  0  0  0
 11 29  1  0  0  0  0
 11 30  1  0  0  0  0
 12 13  1  0  0  0  0
 12 31  1  0  0  0  0
 12 32  1  0  0  0  0
 13 14  1  0  0  0  0
 14 15  1  0  0  0  0
 14 33  1  0  0  0  0
 14 34  1  0  0  0  0
 15 35  1  0  0  0  0
 15 36  1  0  0  0  0
 16 17  2  0  0  0  0
 17 37  1  0  0  0  0
 18 19  1  0  0  0  0
 18 20  2  0  0  0  0
 18 21  2  0  0  0  0
 19 38  1  0  0  0  0
 19 39  1  0  0  0  0
 19 40  1  0  0  0  0
M  END
> <s_m_source_file>
AV-unprocessed.smi

> <i_m_source_file_index>
1273

> <i_lp_mmshare_version>
43012

> <i_f3d_flags>
0

> <s_epik_input>
W0NIM11TKD1PKSg9TylbQ0BIXShbQ0gzXSlDKD1PKVtOSF1jMVtjSF1bY0hdYyhuW2NIXTEpTjJbQ0gyXVtDSDJdT1tDSDJdW0NIMl0y

> <s_epik_cmdline>
J2VwaWtfcHl0aG9uJywgJy1waCcsICc3LjAnLCAnLXRuJywgJzgnLCAnLW1hJywgJzIwMCcsICctbWV0YWxfYmluZGluZycsICctaW1hZScsICc8aW5maWxlLm1hZT4nLCAnLW9tYWUnLCAnPG91dGZpbGUubWFlPic=

> <r_lp_tautomer_probability>
1

> <r_epik_Ionization_Penalty>
0.000253983

> <r_epik_Ionization_Penalty_Charging>
0

> <r_epik_Ionization_Penalty_Neutral>
0.000253983

> <r_epik_State_Penalty>
-0

> <r_epik_Charging_Adjusted_Penalty>
0

> <i_epik_Tot_Q>
0

> <i_epik_Tot_abs_Q>
0

> <r_epik_Metal_State_Penalty>
-0

> <b_epik_Metal_Only>
0

> <s_lp_Force_Field>
OPLS_2005

> <r_lp_Energy>
19.0029

> <b_lp_Chiralities_Consistent>
1

> <s_lp_Variant>
AV-unprocessed.smi:1273-2

> <Gold.Version>
5.8.1

> <Gold.Id.Protein>
6NUR|6NUR_protein|mol2

> <Gold.PLP.Fitness>
33.5543

> <Gold.PLP.PLP>
-28.3896

> <Gold.PLP.part.hbond>
-3.0000

> <Gold.PLP.part.metal>
0.0000

> <Gold.PLP.part.buried>
-6.2565

> <Gold.PLP.part.nonpolar>
-20.5215

> <Gold.PLP.part.repulsive>
1.0908

> <Gold.PLP.ligand.clash>
1.8335

> <Gold.PLP.ligand.torsion>
1.2476

> <Gold.PLP.Chemscore.Hbond>
3.0000

> <Gold.PLP.Chemscore.CHOScore>
0.0000

> <Gold.PLP.Chemscore.Metal>
0.0000

> <Gold.Chemscore.Hbonds>
donor molecule, donor type, donor heavy atom, donor atom, acceptor molecule, acceptor atom, score
      P1  H  7989  7998       L1    21  0.40
      P1  H  7997  8010       L1    20  1.00
      P1  H 10752 10763       L1     4  1.00

> <Gold.PLP.Chemscore.Internal.Correction>
0.4935

> <Gold.Rescore>
     Score         DG    S(hbond)    S(metal)    S(lipo)     H(rot)  DE(clash)    DE(int)     intcor
     15.20     -17.83       2.89        0.00      57.26       1.56       0.08       2.55       ----

> <Gold.Chemscore.Fitness>
15.2018

> <Gold.Chemscore.DG>
-17.8345

> <Gold.Chemscore.ZeroCoef>
-5.4800

> <Gold.Chemscore.Hbond>
2.8906

> <Gold.Chemscore.Metal>
0.0000

> <Gold.Chemscore.Lipo>
57.2615

> <Gold.Chemscore.Internal_Hbond>
0.0000

> <Gold.Chemscore.DEClash>
0.0784

> <Gold.Chemscore.DEInternal>
2.5542

> <Gold.Chemscore.Rot>
1.5624

> <Gold.Chemscore.Internal.Correction>
   9.000000E+99

> <Gold.Chemscore.Hbonds>
donor molecule, donor type, donor heavy atom, donor atom, acceptor molecule, acceptor atom, score
      P1  H  7989  7998       L1    21  0.06
      P1  H  7997  8010       L1    20  0.94
      P1  H 10752 10763       L1     4  0.97

> <Gold.Chemscore.Hbond.Weighted>
-9.6545

> <Gold.Chemscore.Metal.Weighted>
-0.0000

> <Gold.Chemscore.Lipo.Weighted>
-6.6996

> <Gold.Chemscore.Internal_Hbond.Weighted>
0.0000

> <Gold.Chemscore.DEClash.Weighted>
0.0784

> <Gold.Chemscore.DEInternal.Weighted>
2.5542

> <Gold.Chemscore.Rot.Weighted>
3.9996

> <Gold.Chemscore.Internal.Correction.Weighted>
   9.000000E+99

> <Gold.Protein.RotatedTorsions>
[ 6907 6896 6895 6894 ] final -111.49 input  -60.11 | X-H torsion
[ 7974 7965 7964 7962 ] final  112.24 input  175.53 | X-H torsion
[ 8008 7997 7996 7995 ] final   95.14 input   59.86 | X-H torsion
[ 10167 10162 10161 10158 ] final -104.03 input  -65.29 | X-H torsion
[ 10718 10713 10712 10709 ] final  154.84 input   66.30 | X-H torsion
[ 10763 10752 10751 10750 ] final   53.63 input  -60.55 | X-H torsion
[ 11005 11000 10999 10996 ] final  128.77 input  -57.11 | X-H torsion

> <Gold.Protein.ActiveResidues>
 VAL166  LYS551  ARG553  GLY616  TRP617  ASP618  TYR619  PRO620  LYS621  CYS622 
 ASP623  PHE694  ASN695  SER759  ASP760  ASP761  ALA762  ILE779  LEU786  VAL792 
 PHE793  MET794  SER795  GLU796  ALA797  LYS798  CYS799  TRP800  GLU811  SER814 

> <Gold.Protein.RotatedAtoms>
  150.7694  133.9227  159.3402 H   0  0  0  0  0  0  0  0  0  0  0  0  # atno 6907 bound_to 6896
  151.7117  135.0909  160.0278 H   0  0  0  0  0  0  0  0  0  0  0  0  # atno 6908 bound_to 6896
  152.3705  133.6375  159.6119 H   0  0  0  0  0  0  0  0  0  0  0  0  # atno 6909 bound_to 6896
  145.2320  139.2815  143.4163 H   0  0  0  0  0  0  0  0  0  0  0  0  # atno 7974 bound_to 7965
  156.0657  140.3290  155.7514 H   0  0  0  0  0  0  0  0  0  0  0  0  # atno 8008 bound_to 7997
  155.5385  140.0599  157.2892 H   0  0  0  0  0  0  0  0  0  0  0  0  # atno 8009 bound_to 7997
  154.4504  140.1915  156.0556 H   0  0  0  0  0  0  0  0  0  0  0  0  # atno 8010 bound_to 7997
  140.2136  143.3728  152.1029 H   0  0  0  0  0  0  0  0  0  0  0  0  # atno 10167 bound_to 10162
  157.2263  131.0729  151.1881 H   0  0  0  0  0  0  0  0  0  0  0  0  # atno 10718 bound_to 10713
  152.9797  135.5772  154.4772 H   0  0  0  0  0  0  0  0  0  0  0  0  # atno 10763 bound_to 10752
  154.4326  135.2774  155.1904 H   0  0  0  0  0  0  0  0  0  0  0  0  # atno 10764 bound_to 10752
  154.3606  135.6189  153.5742 H   0  0  0  0  0  0  0  0  0  0  0  0  # atno 10765 bound_to 10752
  139.9579  134.9609  156.9051 H   0  0  0  0  0  0  0  0  0  0  0  0  # atno 11005 bound_to 11000
  146.3350  140.2658  142.8604 LP  0  0  0  0  0  0  0  0  0  0  0  0  # atno 17320 bound_to 7965
  144.9667  140.8329  143.5480 LP  0  0  0  0  0  0  0  0  0  0  0  0  # atno 17321 bound_to 7965
  139.5170  144.6986  151.5559 LP  0  0  0  0  0  0  0  0  0  0  0  0  # atno 17342 bound_to 10162
  140.6306  143.9084  150.6602 LP  0  0  0  0  0  0  0  0  0  0  0  0  # atno 17343 bound_to 10162
  157.3524  130.7089  149.6449 LP  0  0  0  0  0  0  0  0  0  0  0  0  # atno 17370 bound_to 10713
  155.9678  130.4249  150.4628 LP  0  0  0  0  0  0  0  0  0  0  0  0  # atno 17371 bound_to 10713
  140.5567  134.0574  155.7386 LP  0  0  0  0  0  0  0  0  0  0  0  0  # atno 17394 bound_to 11000
  141.1252  133.9394  157.2649 LP  0  0  0  0  0  0  0  0  0  0  0  0  # atno 17395 bound_to 11000

$$$$
