AV-unprocessed.smi:47|AV-procd|sdf|445|dock1
  -GOLD-   2262016313D 1   1.00000     0.00000
 Structure written by MMmdl.
 30 32  0  0  0  0  0  0  0  0  2 V2000
  145.8373  140.2713  154.5072 O   0  0  0  0  0  0  0  0  0  0  0  0
  147.1387  140.1577  153.9716 C   0  0  1  0  0  0  0  0  0  0  0  0
  147.7363  141.5113  153.5991 C   0  0  0  0  0  0  0  0  0  0  0  0
  149.1851  141.3216  153.6090 N   0  0  0  0  0  0  0  0  0  0  0  0
  149.4845  140.1160  154.3915 C   0  0  1  0  0  0  0  0  0  0  0  0
  150.5416  140.3230  155.4601 C   0  0  0  0  0  0  0  0  0  0  0  0
  151.7173  139.6656  155.5270 N   0  0  0  0  0  0  0  0  0  0  0  0
  152.3603  140.1668  156.5648 N   0  5  0  0  0  0  0  0  0  0  0  0
  151.5834  141.1183  157.1046 C   0  0  0  0  0  0  0  0  0  0  0  0
  152.0010  141.9018  158.2855 C   0  0  0  0  0  0  0  0  0  0  0  0
  151.6787  143.2752  158.3845 C   0  0  0  0  0  0  0  0  0  0  0  0
  152.0736  144.0363  159.5020 C   0  0  0  0  0  0  0  0  0  0  0  0
  152.8016  143.4323  160.5432 C   0  0  0  0  0  0  0  0  0  0  0  0
  153.1312  142.0671  160.4623 C   0  0  0  0  0  0  0  0  0  0  0  0
  152.7325  141.3104  159.3431 C   0  0  0  0  0  0  0  0  0  0  0  0
  150.4459  141.2406  156.4347 N   0  0  0  0  0  0  0  0  0  0  0  0
  148.1521  139.6302  154.9760 C   0  0  0  0  0  0  0  0  0  0  0  0
  147.1138  139.5081  153.0954 H   0  0  0  0  0  0  0  0  0  0  0  0
  149.8533  139.3510  153.7071 H   0  0  0  0  0  0  0  0  0  0  0  0
  145.2142  140.1656  153.8046 H   0  0  0  0  0  0  0  0  0  0  0  0
  147.3791  141.8780  152.6368 H   0  0  0  0  0  0  0  0  0  0  0  0
  147.4678  142.2511  154.3546 H   0  0  0  0  0  0  0  0  0  0  0  0
  149.4992  141.1687  152.6565 H   0  0  0  0  0  0  0  0  0  0  0  0
  151.1214  143.7575  157.5949 H   0  0  0  0  0  0  0  0  0  0  0  0
  151.8180  145.0841  159.5581 H   0  0  0  0  0  0  0  0  0  0  0  0
  153.1065  144.0141  161.4005 H   0  0  0  0  0  0  0  0  0  0  0  0
  153.6910  141.5984  161.2582 H   0  0  0  0  0  0  0  0  0  0  0  0
  152.9977  140.2643  159.3022 H   0  0  0  0  0  0  0  0  0  0  0  0
  147.9790  140.0976  155.9475 H   0  0  0  0  0  0  0  0  0  0  0  0
  148.1140  138.5490  155.1123 H   0  0  0  0  0  0  0  0  0  0  0  0
  1  2  1  0  0  0  0
  1 20  1  0  0  0  0
  2 18  1  0  0  0  0
  2 17  1  0  0  0  0
  2  3  1  0  0  0  0
  3  4  1  0  0  0  0
  3 21  1  0  0  0  0
  3 22  1  0  0  0  0
  4  5  1  0  0  0  0
  4 23  1  0  0  0  0
  5 19  1  0  0  0  0
  5  6  1  0  0  0  0
  5 17  1  0  0  0  0
  6 16  1  0  0  0  0
  6  7  2  0  0  0  0
  7  8  1  0  0  0  0
  8  9  1  0  0  0  0
  9 10  1  0  0  0  0
  9 16  2  0  0  0  0
 10 15  1  0  0  0  0
 10 11  2  0  0  0  0
 11 12  1  0  0  0  0
 11 24  1  0  0  0  0
 12 13  2  0  0  0  0
 12 25  1  0  0  0  0
 13 14  1  0  0  0  0
 13 26  1  0  0  0  0
 14 15  2  0  0  0  0
 14 27  1  0  0  0  0
 15 28  1  0  0  0  0
 17 29  1  0  0  0  0
 17 30  1  0  0  0  0
M  CHG  1   8  -1
M  END
> <s_m_source_file>
AV-unprocessed.smi

> <i_m_source_file_index>
47

> <i_lp_mmshare_version>
43012

> <i_f3d_flags>
0

> <s_epik_input>
W09IXVtDQEhdMVtDSDJdW05IXVtDQEBIXShbQ0gyXTEpYzJuW25IXWMobjIpLWMzW2NIXVtjSF1bY0hdW2NIXVtjSF0z

> <s_epik_cmdline>
J2VwaWtfcHl0aG9uJywgJy1waCcsICc3LjAnLCAnLXRuJywgJzgnLCAnLW1hJywgJzIwMCcsICctbWV0YWxfYmluZGluZycsICctaW1hZScsICc8aW5maWxlLm1hZT4nLCAnLW9tYWUnLCAnPG91dGZpbGUubWFlPic=

> <r_epik_Ionization_Penalty>
16.1968

> <r_epik_Ionization_Penalty_Charging>
13.1522

> <r_epik_Ionization_Penalty_Neutral>
3.04463

> <r_epik_State_Penalty>
6.32428

> <r_epik_Charging_Adjusted_Penalty>
19.4764

> <i_epik_Tot_Q>
-1

> <i_epik_Tot_abs_Q>
1

> <r_epik_Metal_State_Penalty>
2.82187

> <b_epik_Metal_Only>
1

> <s_lp_Force_Field>
OPLS_2005

> <r_lp_Energy>
30.8256

> <b_lp_Chiralities_Consistent>
1

> <s_lp_Variant>
AV-unprocessed.smi:47-23

> <Gold.Version>
5.8.1

> <Gold.Id.Protein>
6NUR|6NUR_protein|mol2

> <Gold.PLP.Fitness>
47.6285

> <Gold.PLP.PLP>
-36.7400

> <Gold.PLP.part.hbond>
-5.0513

> <Gold.PLP.part.metal>
0.0000

> <Gold.PLP.part.buried>
-4.4516

> <Gold.PLP.part.nonpolar>
-26.2423

> <Gold.PLP.part.repulsive>
0.0613

> <Gold.PLP.ligand.clash>
0.0000

> <Gold.PLP.ligand.torsion>
0.5621

> <Gold.PLP.Chemscore.Hbond>
4.0000

> <Gold.PLP.Chemscore.CHOScore>
0.0000

> <Gold.PLP.Chemscore.Metal>
0.0000

> <Gold.Chemscore.Hbonds>
donor molecule, donor type, donor heavy atom, donor atom, acceptor molecule, acceptor atom, score
      L1  H     1    20       P1 10175  0.94
      L1  H     4    23       P1  7957  1.00
      P1  H  7997  8008       L1     8  2.00

> <Gold.PLP.Chemscore.Internal.Correction>
0.0127

> <Gold.Rescore>
     Score         DG    S(hbond)    S(metal)    S(lipo)     H(rot)  DE(clash)    DE(int)     intcor
     21.31     -21.62       2.87        0.00      87.89       1.46       0.05       0.27       ----

> <Gold.Chemscore.Fitness>
21.3077

> <Gold.Chemscore.DG>
-21.6197

> <Gold.Chemscore.ZeroCoef>
-5.4800

> <Gold.Chemscore.Hbond>
2.8740

> <Gold.Chemscore.Metal>
0.0000

> <Gold.Chemscore.Lipo>
87.8919

> <Gold.Chemscore.Internal_Hbond>
0.0000

> <Gold.Chemscore.DEClash>
0.0456

> <Gold.Chemscore.DEInternal>
0.2664

> <Gold.Chemscore.Rot>
1.4621

> <Gold.Chemscore.Internal.Correction>
   9.000000E+99

> <Gold.Chemscore.Hbonds>
donor molecule, donor type, donor heavy atom, donor atom, acceptor molecule, acceptor atom, score
      L1  H     1    20       P1 10175  0.90
      L1  H     4    23       P1  7957  0.94
      P1  H  7997  8008       L1     8  0.85

> <Gold.Chemscore.Hbond.Weighted>
-9.5992

> <Gold.Chemscore.Metal.Weighted>
-0.0000

> <Gold.Chemscore.Lipo.Weighted>
-10.2833

> <Gold.Chemscore.Internal_Hbond.Weighted>
0.0000

> <Gold.Chemscore.DEClash.Weighted>
0.0456

> <Gold.Chemscore.DEInternal.Weighted>
0.2664

> <Gold.Chemscore.Rot.Weighted>
3.7429

> <Gold.Chemscore.Internal.Correction.Weighted>
   9.000000E+99

> <Gold.Protein.RotatedTorsions>
[ 6907 6896 6895 6894 ] final  -52.80 input  -60.11 | X-H torsion
[ 7974 7965 7964 7962 ] final -153.03 input  175.53 | X-H torsion
[ 8008 7997 7996 7995 ] final  -45.11 input   59.86 | X-H torsion
[ 10167 10162 10161 10158 ] final  -62.98 input  -65.29 | X-H torsion
[ 10718 10713 10712 10709 ] final -172.26 input   66.30 | X-H torsion
[ 10763 10752 10751 10750 ] final  174.79 input  -60.55 | X-H torsion
[ 11005 11000 10999 10996 ] final   89.64 input  -57.11 | X-H torsion

> <Gold.Protein.ActiveResidues>
 VAL166  LYS551  ARG553  GLY616  TRP617  ASP618  TYR619  PRO620  LYS621  CYS622 
 ASP623  PHE694  ASN695  SER759  ASP760  ASP761  ALA762  ILE779  LEU786  VAL792 
 PHE793  MET794  SER795  GLU796  ALA797  LYS798  CYS799  TRP800  GLU811  SER814 

> <Gold.Protein.RotatedAtoms>
  150.8484  134.7801  159.6988 H   0  0  0  0  0  0  0  0  0  0  0  0  # atno 6907 bound_to 6896
  152.4555  134.5297  159.9817 H   0  0  0  0  0  0  0  0  0  0  0  0  # atno 6908 bound_to 6896
  151.5423  133.3393  159.2973 H   0  0  0  0  0  0  0  0  0  0  0  0  # atno 6909 bound_to 6896
  144.7762  140.4581  143.5872 H   0  0  0  0  0  0  0  0  0  0  0  0  # atno 7974 bound_to 7965
  154.3999  140.1405  156.3793 H   0  0  0  0  0  0  0  0  0  0  0  0  # atno 8008 bound_to 7997
  155.8019  140.3475  155.5387 H   0  0  0  0  0  0  0  0  0  0  0  0  # atno 8009 bound_to 7997
  155.8475  140.0936  157.1686 H   0  0  0  0  0  0  0  0  0  0  0  0  # atno 8010 bound_to 7997
  140.5902  143.2340  151.6156 H   0  0  0  0  0  0  0  0  0  0  0  0  # atno 10167 bound_to 10162
  156.7530  130.9385  151.3115 H   0  0  0  0  0  0  0  0  0  0  0  0  # atno 10718 bound_to 10713
  154.4588  135.2767  155.1728 H   0  0  0  0  0  0  0  0  0  0  0  0  # atno 10763 bound_to 10752
  154.3525  135.6147  153.5653 H   0  0  0  0  0  0  0  0  0  0  0  0  # atno 10764 bound_to 10752
  152.9853  135.5815  154.4946 H   0  0  0  0  0  0  0  0  0  0  0  0  # atno 10765 bound_to 10752
  139.8871  134.8564  156.3171 H   0  0  0  0  0  0  0  0  0  0  0  0  # atno 11005 bound_to 11000
  145.6179  139.1520  143.3039 LP  0  0  0  0  0  0  0  0  0  0  0  0  # atno 17320 bound_to 7965
  146.1943  140.6291  142.9131 LP  0  0  0  0  0  0  0  0  0  0  0  0  # atno 17321 bound_to 7965
  139.5222  144.3168  152.0945 LP  0  0  0  0  0  0  0  0  0  0  0  0  # atno 17342 bound_to 10162
  140.2331  144.4347  150.6291 LP  0  0  0  0  0  0  0  0  0  0  0  0  # atno 17343 bound_to 10162
  157.6768  130.9102  150.0171 LP  0  0  0  0  0  0  0  0  0  0  0  0  # atno 17370 bound_to 10713
  156.1389  130.3642  149.9614 LP  0  0  0  0  0  0  0  0  0  0  0  0  # atno 17371 bound_to 10713
  140.9811  133.7267  156.0674 LP  0  0  0  0  0  0  0  0  0  0  0  0  # atno 17394 bound_to 11000
  140.7748  134.3792  157.5500 LP  0  0  0  0  0  0  0  0  0  0  0  0  # atno 17395 bound_to 11000

$$$$
