AV-unprocessed.smi:3218|AV-procd|sdf|12294|dock6
  -GOLD-   2272018133D 1   1.00000     0.00000
 Structure written by MMmdl.
 37 38  0  0  0  0  0  0  0  0  1 V2000
  145.4741  132.8442  150.4416 C   0  0  0  0  0  0  0  0  0  0  0  0
  145.1178  134.1330  151.1248 C   0  0  0  0  0  0  0  0  0  0  0  0
  143.8193  134.6174  151.4524 C   0  0  0  0  0  0  0  0  0  0  0  0
  143.8459  135.7970  152.0510 N   0  0  0  0  0  0  0  0  0  0  0  0
  145.1577  136.1051  152.1292 N   0  0  0  0  0  0  0  0  0  0  0  0
  145.5689  137.3575  152.7323 C   0  0  0  0  0  0  0  0  0  0  0  0
  146.6705  138.0384  151.9093 C   0  0  0  0  0  0  0  0  0  0  0  0
  147.6612  138.6184  152.8006 N   0  0  0  0  0  0  0  0  0  0  0  0
  147.0889  139.7562  153.4999 C   0  0  0  0  0  0  0  0  0  0  0  0
  148.1370  140.8734  153.6127 C   0  0  0  0  0  0  0  0  0  0  0  0
  148.7813  140.8604  154.9222 N   0  0  0  0  0  0  0  0  0  0  0  0
  148.1762  141.5395  156.0556 C   0  0  0  0  0  0  0  0  0  0  0  0
  149.2445  141.4988  157.1576 C   0  0  0  0  0  0  0  0  0  0  0  0
  150.2688  140.4532  156.7034 C   0  0  0  0  0  0  0  0  0  0  0  0
  149.9224  140.2376  155.2399 C   0  0  0  0  0  0  0  0  0  0  0  0
  150.6231  139.5726  154.4782 O   0  0  0  0  0  0  0  0  0  0  0  0
  145.9479  135.1197  151.5768 C   0  0  0  0  0  0  0  0  0  0  0  0
  144.8106  132.0325  150.7405 H   0  0  0  0  0  0  0  0  0  0  0  0
  146.4914  132.5294  150.6750 H   0  0  0  0  0  0  0  0  0  0  0  0
  145.4050  132.9334  149.3574 H   0  0  0  0  0  0  0  0  0  0  0  0
  142.8627  134.1496  151.2721 H   0  0  0  0  0  0  0  0  0  0  0  0
  144.6963  138.0069  152.8211 H   0  0  0  0  0  0  0  0  0  0  0  0
  145.9183  137.1539  153.7456 H   0  0  0  0  0  0  0  0  0  0  0  0
  147.1480  137.3113  151.2508 H   0  0  0  0  0  0  0  0  0  0  0  0
  146.2415  138.8198  151.2805 H   0  0  0  0  0  0  0  0  0  0  0  0
  148.4666  138.9167  152.2689 H   0  0  0  0  0  0  0  0  0  0  0  0
  146.2106  140.1120  152.9594 H   0  0  0  0  0  0  0  0  0  0  0  0
  146.7615  139.4502  154.4948 H   0  0  0  0  0  0  0  0  0  0  0  0
  148.8957  140.7559  152.8374 H   0  0  0  0  0  0  0  0  0  0  0  0
  147.6744  141.8480  153.4472 H   0  0  0  0  0  0  0  0  0  0  0  0
  147.8933  142.5622  155.8030 H   0  0  0  0  0  0  0  0  0  0  0  0
  147.2782  141.0005  156.3608 H   0  0  0  0  0  0  0  0  0  0  0  0
  149.7269  142.4733  157.2457 H   0  0  0  0  0  0  0  0  0  0  0  0
  148.8142  141.2568  158.1300 H   0  0  0  0  0  0  0  0  0  0  0  0
  151.2956  140.7994  156.8254 H   0  0  0  0  0  0  0  0  0  0  0  0
  150.1472  139.5151  157.2461 H   0  0  0  0  0  0  0  0  0  0  0  0
  147.0246  135.2029  151.5493 H   0  0  0  0  0  0  0  0  0  0  0  0
  1  2  1  0  0  0  0
  1 18  1  0  0  0  0
  1 19  1  0  0  0  0
  1 20  1  0  0  0  0
  2 17  2  0  0  0  0
  2  3  1  0  0  0  0
  3  4  2  0  0  0  0
  3 21  1  0  0  0  0
  4  5  1  0  0  0  0
  5  6  1  0  0  0  0
  5 17  1  0  0  0  0
  6  7  1  0  0  0  0
  6 22  1  0  0  0  0
  6 23  1  0  0  0  0
  7  8  1  0  0  0  0
  7 24  1  0  0  0  0
  7 25  1  0  0  0  0
  8  9  1  0  0  0  0
  8 26  1  0  0  0  0
  9 10  1  0  0  0  0
  9 27  1  0  0  0  0
  9 28  1  0  0  0  0
 10 11  1  0  0  0  0
 10 29  1  0  0  0  0
 10 30  1  0  0  0  0
 11 15  1  0  0  0  0
 11 12  1  0  0  0  0
 12 13  1  0  0  0  0
 12 31  1  0  0  0  0
 12 32  1  0  0  0  0
 13 14  1  0  0  0  0
 13 33  1  0  0  0  0
 13 34  1  0  0  0  0
 14 15  1  0  0  0  0
 14 35  1  0  0  0  0
 14 36  1  0  0  0  0
 15 16  2  0  0  0  0
 17 37  1  0  0  0  0
M  END
> <s_m_source_file>
AV-unprocessed.smi

> <i_m_source_file_index>
3218

> <i_lp_mmshare_version>
43012

> <i_f3d_flags>
0

> <s_epik_input>
W0NIM11jMVtjSF1ubihbY0hdMSlbQ0gyXVtDSDJdW05IXVtDSDJdW0NIMl1OMltDSDJdW0NIMl1bQ0gyXUMyPU8=

> <s_epik_cmdline>
J2VwaWtfcHl0aG9uJywgJy1waCcsICc3LjAnLCAnLXRuJywgJzgnLCAnLW1hJywgJzIwMCcsICctbWV0YWxfYmluZGluZycsICctaW1hZScsICc8aW5maWxlLm1hZT4nLCAnLW9tYWUnLCAnPG91dGZpbGUubWFlPic=

> <r_lp_tautomer_probability>
1

> <r_epik_Ionization_Penalty>
2.53806

> <r_epik_Ionization_Penalty_Charging>
0

> <r_epik_Ionization_Penalty_Neutral>
2.53806

> <r_epik_State_Penalty>
2.70334

> <r_epik_Charging_Adjusted_Penalty>
2.70334

> <i_epik_Tot_Q>
0

> <i_epik_Tot_abs_Q>
0

> <r_epik_Metal_State_Penalty>
2.70114

> <b_epik_Metal_Only>
0

> <s_lp_Force_Field>
OPLS_2005

> <r_lp_Energy>
17.5506

> <b_lp_Chiralities_Consistent>
1

> <s_lp_Variant>
AV-unprocessed.smi:3218-2

> <Gold.Version>
5.8.1

> <Gold.Id.Protein>
6NUR|6NUR_protein|mol2

> <Gold.PLP.Fitness>
40.8783

> <Gold.PLP.PLP>
-31.6602

> <Gold.PLP.part.hbond>
-2.9263

> <Gold.PLP.part.metal>
0.0000

> <Gold.PLP.part.buried>
-0.8081

> <Gold.PLP.part.nonpolar>
-28.1255

> <Gold.PLP.part.repulsive>
0.3095

> <Gold.PLP.ligand.clash>
0.0000

> <Gold.PLP.ligand.torsion>
1.4281

> <Gold.PLP.Chemscore.Hbond>
2.0000

> <Gold.PLP.Chemscore.CHOScore>
2.0000

> <Gold.PLP.Chemscore.Metal>
0.0000

> <Gold.Chemscore.Hbonds>
donor molecule, donor type, donor heavy atom, donor atom, acceptor molecule, acceptor atom, score
      L1  H     8    26       P1  7957  1.00
      P1  H  7989  7998       L1    16  1.00
      L1  C     3    21       P1 10186  0.99
      L1  C    17    37       P1  7948  1.00

> <Gold.PLP.Chemscore.Internal.Correction>
0.0742

> <Gold.Rescore>
     Score         DG    S(hbond)    S(metal)    S(lipo)     H(rot)  DE(clash)    DE(int)     intcor
     13.68     -14.99       2.00        0.00      66.91       1.95       0.25       1.06       ----

> <Gold.Chemscore.Fitness>
13.6810

> <Gold.Chemscore.DG>
-14.9940

> <Gold.Chemscore.ZeroCoef>
-5.4800

> <Gold.Chemscore.Hbond>
1.9962

> <Gold.Chemscore.Metal>
0.0000

> <Gold.Chemscore.Lipo>
66.9147

> <Gold.Chemscore.Internal_Hbond>
0.0000

> <Gold.Chemscore.DEClash>
0.2525

> <Gold.Chemscore.DEInternal>
1.0605

> <Gold.Chemscore.Rot>
1.9463

> <Gold.Chemscore.Internal.Correction>
   9.000000E+99

> <Gold.Chemscore.Hbonds>
donor molecule, donor type, donor heavy atom, donor atom, acceptor molecule, acceptor atom, score
      L1  H     8    26       P1  7957  0.98
      P1  H  7989  7998       L1    16  0.50

> <Gold.Chemscore.Hbond.Weighted>
-6.6675

> <Gold.Chemscore.Metal.Weighted>
-0.0000

> <Gold.Chemscore.Lipo.Weighted>
-7.8290

> <Gold.Chemscore.Internal_Hbond.Weighted>
0.0000

> <Gold.Chemscore.DEClash.Weighted>
0.2525

> <Gold.Chemscore.DEInternal.Weighted>
1.0605

> <Gold.Chemscore.Rot.Weighted>
4.9824

> <Gold.Chemscore.Internal.Correction.Weighted>
   9.000000E+99

> <Gold.Protein.RotatedTorsions>
[ 6907 6896 6895 6894 ] final -119.49 input  -60.11 | X-H torsion
[ 7974 7965 7964 7962 ] final  112.78 input  175.53 | X-H torsion
[ 8008 7997 7996 7995 ] final   85.43 input   59.86 | X-H torsion
[ 10167 10162 10161 10158 ] final  -85.42 input  -65.29 | X-H torsion
[ 10718 10713 10712 10709 ] final -113.65 input   66.30 | X-H torsion
[ 10763 10752 10751 10750 ] final  164.06 input  -60.55 | X-H torsion
[ 11005 11000 10999 10996 ] final  169.91 input  -57.11 | X-H torsion

> <Gold.Protein.ActiveResidues>
 VAL166  LYS551  ARG553  GLY616  TRP617  ASP618  TYR619  PRO620  LYS621  CYS622 
 ASP623  PHE694  ASN695  SER759  ASP760  ASP761  ALA762  ILE779  LEU786  VAL792 
 PHE793  MET794  SER795  GLU796  ALA797  LYS798  CYS799  TRP800  GLU811  SER814 

> <Gold.Protein.RotatedAtoms>
  150.8310  133.8092  159.3098 H   0  0  0  0  0  0  0  0  0  0  0  0  # atno 6907 bound_to 6896
  151.5822  135.1056  160.0029 H   0  0  0  0  0  0  0  0  0  0  0  0  # atno 6908 bound_to 6896
  152.4389  133.7370  159.6676 H   0  0  0  0  0  0  0  0  0  0  0  0  # atno 6909 bound_to 6896
  145.2253  139.2844  143.4197 H   0  0  0  0  0  0  0  0  0  0  0  0  # atno 7974 bound_to 7965
  155.9499  140.3401  155.6399 H   0  0  0  0  0  0  0  0  0  0  0  0  # atno 8008 bound_to 7997
  155.6933  140.0751  157.2458 H   0  0  0  0  0  0  0  0  0  0  0  0  # atno 8009 bound_to 7997
  154.4120  140.1653  156.2097 H   0  0  0  0  0  0  0  0  0  0  0  0  # atno 8010 bound_to 7997
  140.4039  143.2651  151.9107 H   0  0  0  0  0  0  0  0  0  0  0  0  # atno 10167 bound_to 10162
  156.0780  130.5985  150.8671 H   0  0  0  0  0  0  0  0  0  0  0  0  # atno 10718 bound_to 10713
  154.3031  135.2758  155.2601 H   0  0  0  0  0  0  0  0  0  0  0  0  # atno 10763 bound_to 10752
  154.5029  135.5803  153.6549 H   0  0  0  0  0  0  0  0  0  0  0  0  # atno 10764 bound_to 10752
  152.9898  135.6162  154.3203 H   0  0  0  0  0  0  0  0  0  0  0  0  # atno 10765 bound_to 10752
  140.3027  134.7582  157.3929 H   0  0  0  0  0  0  0  0  0  0  0  0  # atno 11005 bound_to 11000
  146.3366  140.2571  142.8600 LP  0  0  0  0  0  0  0  0  0  0  0  0  # atno 17320 bound_to 7965
  144.9727  140.8384  143.5445 LP  0  0  0  0  0  0  0  0  0  0  0  0  # atno 17321 bound_to 7965
  139.4784  144.5606  151.8245 LP  0  0  0  0  0  0  0  0  0  0  0  0  # atno 17342 bound_to 10162
  140.4711  144.1586  150.5918 LP  0  0  0  0  0  0  0  0  0  0  0  0  # atno 17343 bound_to 10162
  157.5884  131.0945  150.9158 LP  0  0  0  0  0  0  0  0  0  0  0  0  # atno 17370 bound_to 10713
  156.9339  130.5360  149.5279 LP  0  0  0  0  0  0  0  0  0  0  0  0  # atno 17371 bound_to 10713
  140.1095  134.5365  155.8279 LP  0  0  0  0  0  0  0  0  0  0  0  0  # atno 17394 bound_to 11000
  141.2125  133.6720  156.6662 LP  0  0  0  0  0  0  0  0  0  0  0  0  # atno 17395 bound_to 11000

$$$$
