AV-unprocessed.smi:1232|AV-procd|sdf|5169|dock3
  -GOLD-   22720 4243D 1   1.00000     0.00000
 Structure written by MMmdl.
 53 54  0  0  0  0  0  0  0  0  1 V2000
  151.6939  131.4422  156.6953 C   0  0  0  0  0  0  0  0  0  0  0  0
  151.1284  132.8399  156.9214 C   0  0  0  0  0  0  0  0  0  0  0  0
  151.3577  133.4365  157.9729 O   0  0  0  0  0  0  0  0  0  0  0  0
  150.3925  133.3521  155.9221 N   0  0  0  0  0  0  0  0  0  0  0  0
  149.7487  134.6672  155.9272 C   0  0  2  0  0  0  0  0  0  0  0  0
  150.8299  135.7485  155.7388 C   0  0  0  0  0  0  0  0  0  0  0  0
  151.7418  135.8709  156.5583 O   0  0  0  0  0  0  0  0  0  0  0  0
  150.6988  136.5384  154.6619 N   0  0  0  0  0  0  0  0  0  0  0  0
  151.5886  137.6442  154.3246 C   0  0  0  0  0  0  0  0  0  0  0  0
  151.6511  138.7235  155.3946 C   0  0  0  0  0  0  0  0  0  0  0  0
  150.6851  139.7476  155.4362 C   0  0  0  0  0  0  0  0  0  0  0  0
  150.7770  140.7334  156.4373 C   0  0  0  0  0  0  0  0  0  0  0  0
  151.8334  140.6680  157.3770 C   0  0  0  0  0  0  0  0  0  0  0  0
  151.9492  141.6501  158.3843 N   0  0  0  0  0  0  0  0  0  0  0  0
  152.0691  143.0464  157.9703 C   0  0  0  0  0  0  0  0  0  0  0  0
  151.8872  143.9789  159.1785 C   0  0  0  0  0  0  0  0  0  0  0  0
  152.8128  143.6238  160.2006 O   0  0  0  0  0  0  0  0  0  0  0  0
  152.6090  142.2944  160.6717 C   0  0  2  0  0  0  0  0  0  0  0  0
  153.5857  142.0383  161.8244 C   0  0  0  0  0  0  0  0  0  0  0  0
  152.8149  141.3044  159.5088 C   0  0  0  0  0  0  0  0  0  0  0  0
  152.7591  139.6779  157.3355 N   0  0  0  0  0  0  0  0  0  0  0  0
  152.6641  138.7340  156.3763 C   0  0  0  0  0  0  0  0  0  0  0  0
  149.0213  134.8624  157.2909 C   0  0  0  0  0  0  0  0  0  0  0  0
  147.9453  133.7831  157.5219 C   0  0  0  0  0  0  0  0  0  0  0  0
  148.3794  136.2569  157.4467 C   0  0  0  0  0  0  0  0  0  0  0  0
  150.9525  130.7953  156.2251 H   0  0  0  0  0  0  0  0  0  0  0  0
  151.9889  130.9878  157.6418 H   0  0  0  0  0  0  0  0  0  0  0  0
  152.5708  131.4904  156.0492 H   0  0  0  0  0  0  0  0  0  0  0  0
  150.2540  132.7847  155.0986 H   0  0  0  0  0  0  0  0  0  0  0  0
  149.0194  134.7241  155.1162 H   0  0  0  0  0  0  0  0  0  0  0  0
  149.9240  136.3664  154.0372 H   0  0  0  0  0  0  0  0  0  0  0  0
  152.5898  137.2633  154.1156 H   0  0  0  0  0  0  0  0  0  0  0  0
  151.2323  138.0989  153.4001 H   0  0  0  0  0  0  0  0  0  0  0  0
  149.8887  139.7860  154.7076 H   0  0  0  0  0  0  0  0  0  0  0  0
  150.0518  141.5332  156.4611 H   0  0  0  0  0  0  0  0  0  0  0  0
  153.0492  143.2069  157.5190 H   0  0  0  0  0  0  0  0  0  0  0  0
  151.3181  143.2828  157.2152 H   0  0  0  0  0  0  0  0  0  0  0  0
  152.0628  145.0134  158.8833 H   0  0  0  0  0  0  0  0  0  0  0  0
  150.8665  143.9260  159.5608 H   0  0  0  0  0  0  0  0  0  0  0  0
  151.5905  142.2036  161.0539 H   0  0  0  0  0  0  0  0  0  0  0  0
  153.4609  141.0336  162.2286 H   0  0  0  0  0  0  0  0  0  0  0  0
  153.4232  142.7461  162.6376 H   0  0  0  0  0  0  0  0  0  0  0  0
  154.6201  142.1409  161.4952 H   0  0  0  0  0  0  0  0  0  0  0  0
  152.6245  140.2931  159.8654 H   0  0  0  0  0  0  0  0  0  0  0  0
  153.8520  141.3309  159.1716 H   0  0  0  0  0  0  0  0  0  0  0  0
  153.4239  137.9666  156.3952 H   0  0  0  0  0  0  0  0  0  0  0  0
  149.7550  134.7569  158.0921 H   0  0  0  0  0  0  0  0  0  0  0  0
  147.1860  133.8098  156.7393 H   0  0  0  0  0  0  0  0  0  0  0  0
  147.4405  133.9298  158.4771 H   0  0  0  0  0  0  0  0  0  0  0  0
  148.3698  132.7793  157.5394 H   0  0  0  0  0  0  0  0  0  0  0  0
  147.6900  136.4692  156.6290 H   0  0  0  0  0  0  0  0  0  0  0  0
  149.1258  137.0506  157.4712 H   0  0  0  0  0  0  0  0  0  0  0  0
  147.8188  136.3292  158.3790 H   0  0  0  0  0  0  0  0  0  0  0  0
  1  2  1  0  0  0  0
  1 26  1  0  0  0  0
  1 27  1  0  0  0  0
  1 28  1  0  0  0  0
  2  3  2  0  0  0  0
  2  4  1  0  0  0  0
  4  5  1  0  0  0  0
  4 29  1  0  0  0  0
  5  6  1  0  0  0  0
  5 23  1  0  0  0  0
  5 30  1  0  0  0  0
  6  7  2  0  0  0  0
  6  8  1  0  0  0  0
  8  9  1  0  0  0  0
  8 31  1  0  0  0  0
  9 10  1  0  0  0  0
  9 32  1  0  0  0  0
  9 33  1  0  0  0  0
 10 22  1  0  0  0  0
 10 11  2  0  0  0  0
 11 12  1  0  0  0  0
 11 34  1  0  0  0  0
 12 13  2  0  0  0  0
 12 35  1  0  0  0  0
 13 14  1  0  0  0  0
 13 21  1  0  0  0  0
 14 20  1  0  0  0  0
 14 15  1  0  0  0  0
 15 16  1  0  0  0  0
 15 36  1  0  0  0  0
 15 37  1  0  0  0  0
 16 17  1  0  0  0  0
 16 38  1  0  0  0  0
 16 39  1  0  0  0  0
 17 18  1  0  0  0  0
 18 19  1  0  0  0  0
 18 20  1  0  0  0  0
 18 40  1  0  0  0  0
 19 41  1  0  0  0  0
 19 42  1  0  0  0  0
 19 43  1  0  0  0  0
 20 44  1  0  0  0  0
 20 45  1  0  0  0  0
 21 22  2  0  0  0  0
 22 46  1  0  0  0  0
 23 24  1  0  0  0  0
 23 25  1  0  0  0  0
 23 47  1  0  0  0  0
 24 48  1  0  0  0  0
 24 49  1  0  0  0  0
 24 50  1  0  0  0  0
 25 51  1  0  0  0  0
 25 52  1  0  0  0  0
 25 53  1  0  0  0  0
M  END
> <s_m_source_file>
AV-unprocessed.smi

> <i_m_source_file_index>
1232

> <i_lp_mmshare_version>
43012

> <i_f3d_flags>
0

> <s_epik_input>
W0NIM11DKD1PKVtOSF1bQ0BASF0oW0NIXShbQ0gzXSlbQ0gzXSlDKD1PKVtOSF1bQ0gyXWMxW2NIXVtjSF1jKG5bY0hdMSlOMltDSDJdW0NIMl1PW0NAQEhdKFtDSDNdKVtDSDJdMg==

> <s_epik_cmdline>
J2VwaWtfcHl0aG9uJywgJy1waCcsICc3LjAnLCAnLXRuJywgJzgnLCAnLW1hJywgJzIwMCcsICctbWV0YWxfYmluZGluZycsICctaW1hZScsICc8aW5maWxlLm1hZT4nLCAnLW9tYWUnLCAnPG91dGZpbGUubWFlPic=

> <r_lp_tautomer_probability>
1

> <r_epik_Ionization_Penalty>
0.00557618

> <r_epik_Ionization_Penalty_Charging>
0

> <r_epik_Ionization_Penalty_Neutral>
0.00557618

> <r_epik_State_Penalty>
0.00408363

> <r_epik_Charging_Adjusted_Penalty>
0.00408363

> <i_epik_Tot_Q>
0

> <i_epik_Tot_abs_Q>
0

> <r_epik_Metal_State_Penalty>
-0

> <b_epik_Metal_Only>
0

> <s_lp_Force_Field>
OPLS_2005

> <r_lp_Energy>
16.2808

> <b_lp_Chiralities_Consistent>
1

> <s_lp_Variant>
AV-unprocessed.smi:1232-3

> <Gold.Version>
5.8.1

> <Gold.Id.Protein>
6NUR|6NUR_protein|mol2

> <Gold.PLP.Fitness>
51.9532

> <Gold.PLP.PLP>
-43.4784

> <Gold.PLP.part.hbond>
-5.0000

> <Gold.PLP.part.metal>
0.0000

> <Gold.PLP.part.buried>
-5.5130

> <Gold.PLP.part.nonpolar>
-33.2577

> <Gold.PLP.part.repulsive>
0.1492

> <Gold.PLP.ligand.clash>
0.0000

> <Gold.PLP.ligand.torsion>
0.7472

> <Gold.PLP.Chemscore.Hbond>
3.1700

> <Gold.PLP.Chemscore.CHOScore>
0.0000

> <Gold.PLP.Chemscore.Metal>
0.0000

> <Gold.Chemscore.Hbonds>
donor molecule, donor type, donor heavy atom, donor atom, acceptor molecule, acceptor atom, score
      L1  H     8    31       P1  7948  0.21
      P1  H  6896  6907       L1     3  0.16
      P1  H  7997  8009       L1    21  0.40
      P1  H 10752 10764       L1     7  0.32

> <Gold.PLP.Chemscore.Internal.Correction>
0.4593

> <Gold.Rescore>
     Score         DG    S(hbond)    S(metal)    S(lipo)     H(rot)  DE(clash)    DE(int)     intcor
     15.79     -20.05       2.32        0.00     104.85       2.13       0.17       4.09       ----

> <Gold.Chemscore.Fitness>
15.7911

> <Gold.Chemscore.DG>
-20.0504

> <Gold.Chemscore.ZeroCoef>
-5.4800

> <Gold.Chemscore.Hbond>
2.3233

> <Gold.Chemscore.Metal>
0.0000

> <Gold.Chemscore.Lipo>
104.8539

> <Gold.Chemscore.Internal_Hbond>
0.0000

> <Gold.Chemscore.DEClash>
0.1665

> <Gold.Chemscore.DEInternal>
4.0928

> <Gold.Chemscore.Rot>
2.1317

> <Gold.Chemscore.Internal.Correction>
   9.000000E+99

> <Gold.Chemscore.Hbonds>
donor molecule, donor type, donor heavy atom, donor atom, acceptor molecule, acceptor atom, score
      L1  H     8    31       P1  7948  0.07
      P1  H  6896  6907       L1     3  0.15
      P1  H  7997  8009       L1    21  0.01
      P1  H 10752 10764       L1     7  0.01

> <Gold.Chemscore.Hbond.Weighted>
-7.7597

> <Gold.Chemscore.Metal.Weighted>
-0.0000

> <Gold.Chemscore.Lipo.Weighted>
-12.2679

> <Gold.Chemscore.Internal_Hbond.Weighted>
0.0000

> <Gold.Chemscore.DEClash.Weighted>
0.1665

> <Gold.Chemscore.DEInternal.Weighted>
4.0928

> <Gold.Chemscore.Rot.Weighted>
5.4572

> <Gold.Chemscore.Internal.Correction.Weighted>
   9.000000E+99

> <Gold.Protein.RotatedTorsions>
[ 6907 6896 6895 6894 ] final -148.23 input  -60.11 | X-H torsion
[ 7974 7965 7964 7962 ] final -140.38 input  175.53 | X-H torsion
[ 8008 7997 7996 7995 ] final  176.67 input   59.86 | X-H torsion
[ 10167 10162 10161 10158 ] final  140.21 input  -65.29 | X-H torsion
[ 10718 10713 10712 10709 ] final  -12.52 input   66.30 | X-H torsion
[ 10763 10752 10751 10750 ] final  -35.27 input  -60.55 | X-H torsion
[ 11005 11000 10999 10996 ] final   30.67 input  -57.11 | X-H torsion

> <Gold.Protein.ActiveResidues>
 VAL166  LYS551  ARG553  GLY616  TRP617  ASP618  TYR619  PRO620  LYS621  CYS622 
 ASP623  PHE694  ASN695  SER759  ASP760  ASP761  ALA762  ILE779  LEU786  VAL792 
 PHE793  MET794  SER795  GLU796  ALA797  LYS798  CYS799  TRP800  GLU811  SER814 

> <Gold.Protein.RotatedAtoms>
  151.1669  133.4809  159.2593 H   0  0  0  0  0  0  0  0  0  0  0  0  # atno 6907 bound_to 6896
  151.1396  135.0173  159.8630 H   0  0  0  0  0  0  0  0  0  0  0  0  # atno 6908 bound_to 6896
  152.5462  134.1563  159.8592 H   0  0  0  0  0  0  0  0  0  0  0  0  # atno 6909 bound_to 6896
  144.8602  140.6206  143.5333 H   0  0  0  0  0  0  0  0  0  0  0  0  # atno 7974 bound_to 7965
  156.0739  140.1377  156.9795 H   0  0  0  0  0  0  0  0  0  0  0  0  # atno 8008 bound_to 7997
  154.4547  140.0966  156.6773 H   0  0  0  0  0  0  0  0  0  0  0  0  # atno 8009 bound_to 7997
  155.5184  140.3455  155.4404 H   0  0  0  0  0  0  0  0  0  0  0  0  # atno 8010 bound_to 7997
  139.5055  144.6248  151.5964 H   0  0  0  0  0  0  0  0  0  0  0  0  # atno 10167 bound_to 10162
  156.6435  130.4934  149.6087 H   0  0  0  0  0  0  0  0  0  0  0  0  # atno 10718 bound_to 10713
  153.8604  135.6840  153.4783 H   0  0  0  0  0  0  0  0  0  0  0  0  # atno 10763 bound_to 10752
  153.1345  135.4683  154.9399 H   0  0  0  0  0  0  0  0  0  0  0  0  # atno 10764 bound_to 10752
  154.7761  135.3254  154.8038 H   0  0  0  0  0  0  0  0  0  0  0  0  # atno 10765 bound_to 10752
  140.2919  134.2854  155.7774 H   0  0  0  0  0  0  0  0  0  0  0  0  # atno 11005 bound_to 11000
  145.4328  139.1546  143.4013 LP  0  0  0  0  0  0  0  0  0  0  0  0  # atno 17320 bound_to 7965
  146.2854  140.4445  142.8760 LP  0  0  0  0  0  0  0  0  0  0  0  0  # atno 17321 bound_to 7965
  140.5961  143.9693  150.6356 LP  0  0  0  0  0  0  0  0  0  0  0  0  # atno 17342 bound_to 10162
  140.2889  143.3338  152.1081 LP  0  0  0  0  0  0  0  0  0  0  0  0  # atno 17343 bound_to 10162
  156.2140  130.6696  151.1300 LP  0  0  0  0  0  0  0  0  0  0  0  0  # atno 17370 bound_to 10713
  157.7164  131.0707  150.6311 LP  0  0  0  0  0  0  0  0  0  0  0  0  # atno 17371 bound_to 10713
  141.2144  133.7591  156.9637 LP  0  0  0  0  0  0  0  0  0  0  0  0  # atno 17394 bound_to 11000
  140.1187  134.9430  157.2172 LP  0  0  0  0  0  0  0  0  0  0  0  0  # atno 17395 bound_to 11000

$$$$
