AV-unprocessed.smi:936|AV-procd|sdf|4208|dock10
  -GOLD-   22720 2113D 1   1.00000     0.00000
 Structure written by MMmdl.
 40 41  0  0  0  0  0  0  0  0  1 V2000
  154.3137  140.7805  160.7502 C   0  0  0  0  0  0  0  0  0  0  0  0
  153.2811  141.4830  159.8565 C   0  0  0  0  0  0  0  0  0  0  0  0
  152.6811  142.7401  160.5020 C   0  0  0  0  0  0  0  0  0  0  0  0
  152.2233  140.5423  159.3716 C   0  0  0  0  0  0  0  0  0  0  0  0
  152.1377  139.2632  159.7504 N   0  0  0  0  0  0  0  0  0  0  0  0
  151.0572  138.5968  159.1646 C   0  0  0  0  0  0  0  0  0  0  0  0
  150.8083  137.1529  159.4785 C   0  0  0  0  0  0  0  0  0  0  0  0
  149.3734  136.7218  159.1324 C   0  0  0  0  0  0  0  0  0  0  0  0
  148.6337  136.3181  160.3227 N   0  0  0  0  0  0  0  0  0  0  0  0
  147.3961  136.7329  160.6436 C   0  0  0  0  0  0  0  0  0  0  0  0
  146.7732  137.5339  159.9447 O   0  0  0  0  0  0  0  0  0  0  0  0
  146.9064  136.2215  161.8018 N   0  0  0  0  0  0  0  0  0  0  0  0
  147.4865  135.1043  162.5657 C   0  0  0  0  0  0  0  0  0  0  0  0
  146.7644  133.8021  162.1813 C   0  0  0  0  0  0  0  0  0  0  0  0
  145.0004  133.8810  162.6234 S   0  0  0  0  0  0  0  0  0  0  0  0
  144.5698  135.4833  161.8745 C   0  0  0  0  0  0  0  0  0  0  0  0
  145.5691  136.5752  162.2928 C   0  0  0  0  0  0  0  0  0  0  0  0
  150.3181  139.3956  158.3284 C   0  0  0  0  0  0  0  0  0  0  0  0
  150.9542  141.0152  158.2467 S   0  0  0  0  0  0  0  0  0  0  0  0
  154.7754  139.9405  160.2305 H   0  0  0  0  0  0  0  0  0  0  0  0
  153.8535  140.3963  161.6611 H   0  0  0  0  0  0  0  0  0  0  0  0
  155.1096  141.4651  161.0439 H   0  0  0  0  0  0  0  0  0  0  0  0
  153.8211  141.8205  158.9710 H   0  0  0  0  0  0  0  0  0  0  0  0
  152.0187  143.2583  159.8078 H   0  0  0  0  0  0  0  0  0  0  0  0
  153.4619  143.4406  160.7989 H   0  0  0  0  0  0  0  0  0  0  0  0
  152.1021  142.4907  161.3918 H   0  0  0  0  0  0  0  0  0  0  0  0
  151.5197  136.5319  158.9329 H   0  0  0  0  0  0  0  0  0  0  0  0
  150.9996  136.9650  160.5359 H   0  0  0  0  0  0  0  0  0  0  0  0
  148.8385  137.5499  158.6668 H   0  0  0  0  0  0  0  0  0  0  0  0
  149.3830  135.9097  158.4035 H   0  0  0  0  0  0  0  0  0  0  0  0
  149.0925  135.6716  160.9478 H   0  0  0  0  0  0  0  0  0  0  0  0
  148.5599  134.9925  162.4136 H   0  0  0  0  0  0  0  0  0  0  0  0
  147.3741  135.2887  163.6350 H   0  0  0  0  0  0  0  0  0  0  0  0
  146.8565  133.6156  161.1107 H   0  0  0  0  0  0  0  0  0  0  0  0
  147.2142  132.9517  162.6941 H   0  0  0  0  0  0  0  0  0  0  0  0
  144.5557  135.3762  160.7893 H   0  0  0  0  0  0  0  0  0  0  0  0
  143.5598  135.7538  162.1822 H   0  0  0  0  0  0  0  0  0  0  0  0
  145.5816  136.6792  163.3786 H   0  0  0  0  0  0  0  0  0  0  0  0
  145.2407  137.5446  161.9147 H   0  0  0  0  0  0  0  0  0  0  0  0
  149.4404  139.1300  157.7577 H   0  0  0  0  0  0  0  0  0  0  0  0
  1  2  1  0  0  0  0
  1 20  1  0  0  0  0
  1 21  1  0  0  0  0
  1 22  1  0  0  0  0
  2  3  1  0  0  0  0
  2  4  1  0  0  0  0
  2 23  1  0  0  0  0
  3 24  1  0  0  0  0
  3 25  1  0  0  0  0
  3 26  1  0  0  0  0
  4 19  1  0  0  0  0
  4  5  2  0  0  0  0
  5  6  1  0  0  0  0
  6  7  1  0  0  0  0
  6 18  2  0  0  0  0
  7  8  1  0  0  0  0
  7 27  1  0  0  0  0
  7 28  1  0  0  0  0
  8  9  1  0  0  0  0
  8 29  1  0  0  0  0
  8 30  1  0  0  0  0
  9 10  1  0  0  0  0
  9 31  1  0  0  0  0
 10 11  2  0  0  0  0
 10 12  1  0  0  0  0
 12 17  1  0  0  0  0
 12 13  1  0  0  0  0
 13 14  1  0  0  0  0
 13 32  1  0  0  0  0
 13 33  1  0  0  0  0
 14 15  1  0  0  0  0
 14 34  1  0  0  0  0
 14 35  1  0  0  0  0
 15 16  1  0  0  0  0
 16 17  1  0  0  0  0
 16 36  1  0  0  0  0
 16 37  1  0  0  0  0
 17 38  1  0  0  0  0
 17 39  1  0  0  0  0
 18 19  1  0  0  0  0
 18 40  1  0  0  0  0
M  END
> <s_m_source_file>
AV-unprocessed.smi

> <i_m_source_file_index>
936

> <i_lp_mmshare_version>
43012

> <i_f3d_flags>
0

> <s_epik_input>
W0NIM11bQ0hdKFtDSDNdKWMxbmMoW2NIXXMxKVtDSDJdW0NIMl1bTkhdQyg9TylOMltDSDJdW0NIMl1TW0NIMl1bQ0gyXTI=

> <s_epik_cmdline>
J2VwaWtfcHl0aG9uJywgJy1waCcsICc3LjAnLCAnLXRuJywgJzgnLCAnLW1hJywgJzIwMCcsICctbWV0YWxfYmluZGluZycsICctaW1hZScsICc8aW5maWxlLm1hZT4nLCAnLW9tYWUnLCAnPG91dGZpbGUubWFlPic=

> <r_epik_Ionization_Penalty>
0.00156596

> <r_epik_Ionization_Penalty_Charging>
0

> <r_epik_Ionization_Penalty_Neutral>
0.00156596

> <r_epik_State_Penalty>
0.00101864

> <r_epik_Charging_Adjusted_Penalty>
0.00101864

> <i_epik_Tot_Q>
0

> <i_epik_Tot_abs_Q>
0

> <r_epik_Metal_State_Penalty>
-0

> <b_epik_Metal_Only>
0

> <s_lp_Force_Field>
OPLS_2005

> <r_lp_Energy>
11.6004

> <b_lp_Chiralities_Consistent>
1

> <s_lp_Variant>
AV-unprocessed.smi:936-1

> <Gold.Version>
5.8.1

> <Gold.Id.Protein>
6NUR|6NUR_protein|mol2

> <Gold.PLP.Fitness>
39.1834

> <Gold.PLP.PLP>
-37.5798

> <Gold.PLP.part.hbond>
-1.0000

> <Gold.PLP.part.metal>
0.0000

> <Gold.PLP.part.buried>
-4.3853

> <Gold.PLP.part.nonpolar>
-33.0504

> <Gold.PLP.part.repulsive>
0.2194

> <Gold.PLP.ligand.clash>
0.0000

> <Gold.PLP.ligand.torsion>
0.7545

> <Gold.PLP.Chemscore.Hbond>
1.0000

> <Gold.PLP.Chemscore.CHOScore>
0.0000

> <Gold.PLP.Chemscore.Metal>
0.0000

> <Gold.Chemscore.Hbonds>
donor molecule, donor type, donor heavy atom, donor atom, acceptor molecule, acceptor atom, score
      P1  H  6934  6947       L1    11  0.85

> <Gold.PLP.Chemscore.Internal.Correction>
0.1126

> <Gold.Rescore>
     Score         DG    S(hbond)    S(metal)    S(lipo)     H(rot)  DE(clash)    DE(int)     intcor
     14.89     -16.07       0.83        0.00      97.64       1.41       0.02       1.16       ----

> <Gold.Chemscore.Fitness>
14.8862

> <Gold.Chemscore.DG>
-16.0674

> <Gold.Chemscore.ZeroCoef>
-5.4800

> <Gold.Chemscore.Hbond>
0.8280

> <Gold.Chemscore.Metal>
0.0000

> <Gold.Chemscore.Lipo>
97.6351

> <Gold.Chemscore.Internal_Hbond>
0.0000

> <Gold.Chemscore.DEClash>
0.0234

> <Gold.Chemscore.DEInternal>
1.1579

> <Gold.Chemscore.Rot>
1.4068

> <Gold.Chemscore.Internal.Correction>
   9.000000E+99

> <Gold.Chemscore.Hbonds>
donor molecule, donor type, donor heavy atom, donor atom, acceptor molecule, acceptor atom, score
      P1  H  6934  6947       L1    11  0.14

> <Gold.Chemscore.Hbond.Weighted>
-2.7655

> <Gold.Chemscore.Metal.Weighted>
-0.0000

> <Gold.Chemscore.Lipo.Weighted>
-11.4233

> <Gold.Chemscore.Internal_Hbond.Weighted>
0.0000

> <Gold.Chemscore.DEClash.Weighted>
0.0234

> <Gold.Chemscore.DEInternal.Weighted>
1.1579

> <Gold.Chemscore.Rot.Weighted>
3.6014

> <Gold.Chemscore.Internal.Correction.Weighted>
   9.000000E+99

> <Gold.Protein.RotatedTorsions>
[ 6907 6896 6895 6894 ] final -144.06 input  -60.11 | X-H torsion
[ 7974 7965 7964 7962 ] final  104.75 input  175.53 | X-H torsion
[ 8008 7997 7996 7995 ] final   74.16 input   59.86 | X-H torsion
[ 10167 10162 10161 10158 ] final    9.07 input  -65.29 | X-H torsion
[ 10718 10713 10712 10709 ] final   99.04 input   66.30 | X-H torsion
[ 10763 10752 10751 10750 ] final  102.67 input  -60.55 | X-H torsion
[ 11005 11000 10999 10996 ] final -165.56 input  -57.11 | X-H torsion

> <Gold.Protein.ActiveResidues>
 VAL166  LYS551  ARG553  GLY616  TRP617  ASP618  TYR619  PRO620  LYS621  CYS622 
 ASP623  PHE694  ASN695  SER759  ASP760  ASP761  ALA762  ILE779  LEU786  VAL792 
 PHE793  MET794  SER795  GLU796  ALA797  LYS798  CYS799  TRP800  GLU811  SER814 

> <Gold.Protein.RotatedAtoms>
  151.1090  133.5187  159.2606 H   0  0  0  0  0  0  0  0  0  0  0  0  # atno 6907 bound_to 6896
  151.1989  135.0433  159.8874 H   0  0  0  0  0  0  0  0  0  0  0  0  # atno 6908 bound_to 6896
  152.5449  134.0920  159.8334 H   0  0  0  0  0  0  0  0  0  0  0  0  # atno 6909 bound_to 6896
  145.3287  139.2492  143.3672 H   0  0  0  0  0  0  0  0  0  0  0  0  # atno 7974 bound_to 7965
  155.7942  140.3478  155.5366 H   0  0  0  0  0  0  0  0  0  0  0  0  # atno 8008 bound_to 7997
  155.8603  140.0970  157.1638 H   0  0  0  0  0  0  0  0  0  0  0  0  # atno 8009 bound_to 7997
  154.4011  140.1360  156.3940 H   0  0  0  0  0  0  0  0  0  0  0  0  # atno 8010 bound_to 7997
  140.6277  143.8064  150.7254 H   0  0  0  0  0  0  0  0  0  0  0  0  # atno 10167 bound_to 10162
  157.6884  131.0658  150.4887 H   0  0  0  0  0  0  0  0  0  0  0  0  # atno 10718 bound_to 10713
  153.3426  135.4003  155.1583 H   0  0  0  0  0  0  0  0  0  0  0  0  # atno 10763 bound_to 10752
  154.8646  135.3637  154.5326 H   0  0  0  0  0  0  0  0  0  0  0  0  # atno 10764 bound_to 10752
  153.5772  135.7077  153.5538 H   0  0  0  0  0  0  0  0  0  0  0  0  # atno 10765 bound_to 10752
  140.5743  134.5205  157.5167 H   0  0  0  0  0  0  0  0  0  0  0  0  # atno 11005 bound_to 11000
  146.3054  140.3860  142.8689 LP  0  0  0  0  0  0  0  0  0  0  0  0  # atno 17320 bound_to 7965
  144.8881  140.7489  143.5944 LP  0  0  0  0  0  0  0  0  0  0  0  0  # atno 17321 bound_to 7965
  140.1668  143.4228  152.2029 LP  0  0  0  0  0  0  0  0  0  0  0  0  # atno 17342 bound_to 10162
  139.5495  144.7326  151.4479 LP  0  0  0  0  0  0  0  0  0  0  0  0  # atno 17343 bound_to 10162
  156.5215  130.4163  149.6248 LP  0  0  0  0  0  0  0  0  0  0  0  0  # atno 17370 bound_to 10713
  156.3150  130.7249  151.2150 LP  0  0  0  0  0  0  0  0  0  0  0  0  # atno 17371 bound_to 10713
  139.9347  134.7898  156.0836 LP  0  0  0  0  0  0  0  0  0  0  0  0  # atno 17394 bound_to 11000
  141.1036  133.6668  156.2812 LP  0  0  0  0  0  0  0  0  0  0  0  0  # atno 17395 bound_to 11000

$$$$
