AV-unprocessed.smi:594|AV-procd|sdf|3016|dock7
  -GOLD-   2262023523D 1   1.00000     0.00000
 Structure written by MMmdl.
 40 41  0  0  0  0  0  0  0  0  3 V2000
  153.9327  141.4186  160.3778 C   0  0  0  0  0  0  0  0  0  0  0  0
  153.3869  142.8541  160.2848 C   0  0  2  0  0  0  0  0  0  0  0  0
  152.3900  143.1557  161.4232 C   0  0  0  0  0  0  0  0  0  0  0  0
  151.8933  144.6094  161.3694 C   0  0  0  0  0  0  0  0  0  0  0  0
  151.2736  144.9383  160.0032 C   0  0  0  0  0  0  0  0  0  0  0  0
  152.2572  144.6392  158.8582 C   0  0  0  0  0  0  0  0  0  0  0  0
  152.7777  143.1882  158.8982 C   0  0  2  0  0  0  0  0  0  0  0  0
  151.7002  142.2633  158.5396 N   0  0  0  0  0  0  0  0  0  0  0  0
  151.0737  142.1979  157.3547 C   0  0  0  0  0  0  0  0  0  0  0  0
  151.3416  142.9352  156.4047 O   0  0  0  0  0  0  0  0  0  0  0  0
  149.9938  141.1131  157.2350 C   0  0  0  0  0  0  0  0  0  0  0  0
  150.4178  139.9494  156.4386 N   0  0  0  0  0  0  0  0  0  0  0  0
  150.9654  138.8607  157.1455 C   0  0  0  0  0  0  0  0  0  0  0  0
  151.4007  137.7484  156.5222 C   0  0  0  0  0  0  0  0  0  0  0  0
  151.9703  136.6448  157.2638 N   0  3  0  0  0  0  0  0  0  0  0  0
  152.5216  135.7412  156.6433 O   0  0  0  0  0  0  0  0  0  0  0  0
  151.8856  136.6435  158.4885 O   0  5  0  0  0  0  0  0  0  0  0  0
  151.2858  137.6967  155.0775 C   0  0  0  0  0  0  0  0  0  0  0  0
  150.7671  138.7368  154.3953 C   0  0  0  0  0  0  0  0  0  0  0  0
  150.3018  139.9501  155.0755 C   0  0  0  0  0  0  0  0  0  0  0  0
  149.8370  140.9078  154.4572 O   0  0  0  0  0  0  0  0  0  0  0  0
  153.1350  140.6775  160.3211 H   0  0  0  0  0  0  0  0  0  0  0  0
  154.4588  141.2614  161.3196 H   0  0  0  0  0  0  0  0  0  0  0  0
  154.6362  141.2139  159.5703 H   0  0  0  0  0  0  0  0  0  0  0  0
  154.2409  143.5190  160.4229 H   0  0  0  0  0  0  0  0  0  0  0  0
  151.5390  142.4760  161.3637 H   0  0  0  0  0  0  0  0  0  0  0  0
  152.8616  142.9703  162.3889 H   0  0  0  0  0  0  0  0  0  0  0  0
  151.1624  144.7821  162.1600 H   0  0  0  0  0  0  0  0  0  0  0  0
  152.7255  145.2869  161.5650 H   0  0  0  0  0  0  0  0  0  0  0  0
  150.3593  144.3593  159.8670 H   0  0  0  0  0  0  0  0  0  0  0  0
  150.9792  145.9876  159.9728 H   0  0  0  0  0  0  0  0  0  0  0  0
  151.7855  144.8448  157.8966 H   0  0  0  0  0  0  0  0  0  0  0  0
  153.1034  145.3237  158.9310 H   0  0  0  0  0  0  0  0  0  0  0  0
  153.5738  143.1150  158.1552 H   0  0  0  0  0  0  0  0  0  0  0  0
  151.4130  141.6129  159.2565 H   0  0  0  0  0  0  0  0  0  0  0  0
  149.7145  140.7961  158.2411 H   0  0  0  0  0  0  0  0  0  0  0  0
  149.0888  141.5582  156.8173 H   0  0  0  0  0  0  0  0  0  0  0  0
  151.0144  139.0020  158.2160 H   0  0  0  0  0  0  0  0  0  0  0  0
  151.6146  136.8241  154.5323 H   0  0  0  0  0  0  0  0  0  0  0  0
  150.6913  138.6769  153.3193 H   0  0  0  0  0  0  0  0  0  0  0  0
  1  2  1  0  0  0  0
  1 22  1  0  0  0  0
  1 23  1  0  0  0  0
  1 24  1  0  0  0  0
  2  7  1  0  0  0  0
  2  3  1  0  0  0  0
  2 25  1  0  0  0  0
  3  4  1  0  0  0  0
  3 26  1  0  0  0  0
  3 27  1  0  0  0  0
  4  5  1  0  0  0  0
  4 28  1  0  0  0  0
  4 29  1  0  0  0  0
  5  6  1  0  0  0  0
  5 30  1  0  0  0  0
  5 31  1  0  0  0  0
  6  7  1  0  0  0  0
  6 32  1  0  0  0  0
  6 33  1  0  0  0  0
  7  8  1  0  0  0  0
  7 34  1  0  0  0  0
  8  9  1  0  0  0  0
  8 35  1  0  0  0  0
  9 10  2  0  0  0  0
  9 11  1  0  0  0  0
 11 12  1  0  0  0  0
 11 36  1  0  0  0  0
 11 37  1  0  0  0  0
 12 20  1  0  0  0  0
 12 13  1  0  0  0  0
 13 14  2  0  0  0  0
 13 38  1  0  0  0  0
 14 15  1  0  0  0  0
 14 18  1  0  0  0  0
 15 16  2  0  0  0  0
 15 17  1  0  0  0  0
 18 19  2  0  0  0  0
 18 39  1  0  0  0  0
 19 20  1  0  0  0  0
 19 40  1  0  0  0  0
 20 21  2  0  0  0  0
M  CHG  1  15   1
M  CHG  1  17  -1
M  END
> <s_m_source_file>
AV-unprocessed.smi

> <i_m_source_file_index>
594

> <i_lp_mmshare_version>
43012

> <i_f3d_flags>
0

> <s_epik_input>
W0NIM11bQ0BASF0xW0NIMl1bQ0gyXVtDSDJdW0NIMl1bQ0BIXTFbTkhdQyg9TylbQ0gyXW4yW2NIXWMoW04rXSg9TylbTy1dKVtjSF1bY0hdYzI9Tw==

> <s_epik_cmdline>
J2VwaWtfcHl0aG9uJywgJy1waCcsICc3LjAnLCAnLXRuJywgJzgnLCAnLW1hJywgJzIwMCcsICctbWV0YWxfYmluZGluZycsICctaW1hZScsICc8aW5maWxlLm1hZT4nLCAnLW9tYWUnLCAnPG91dGZpbGUubWFlPic=

> <r_lp_tautomer_probability>
1

> <r_epik_Ionization_Penalty>
1.91305e-08

> <r_epik_Ionization_Penalty_Charging>
8.35811e-11

> <r_epik_Ionization_Penalty_Neutral>
1.90469e-08

> <r_epik_State_Penalty>
-0

> <r_epik_Charging_Adjusted_Penalty>
8.35811e-11

> <i_epik_Tot_Q>
0

> <i_epik_Tot_abs_Q>
2

> <r_epik_Metal_State_Penalty>
-0

> <b_epik_Metal_Only>
0

> <s_lp_Force_Field>
OPLS_2005

> <r_lp_Energy>
20.6939

> <b_lp_Chiralities_Consistent>
1

> <s_lp_Variant>
AV-unprocessed.smi:594-3

> <Gold.Version>
5.8.1

> <Gold.Id.Protein>
6NUR|6NUR_protein|mol2

> <Gold.PLP.Fitness>
46.6029

> <Gold.PLP.PLP>
-41.7614

> <Gold.PLP.part.hbond>
-3.0000

> <Gold.PLP.part.metal>
0.0000

> <Gold.PLP.part.buried>
-1.1557

> <Gold.PLP.part.nonpolar>
-37.6122

> <Gold.PLP.part.repulsive>
0.3271

> <Gold.PLP.ligand.clash>
0.0000

> <Gold.PLP.ligand.torsion>
0.6195

> <Gold.PLP.Chemscore.Hbond>
2.0224

> <Gold.PLP.Chemscore.CHOScore>
0.0000

> <Gold.PLP.Chemscore.Metal>
0.0000

> <Gold.Chemscore.Hbonds>
donor molecule, donor type, donor heavy atom, donor atom, acceptor molecule, acceptor atom, score
      P1  H  6896  6909       L1    17  0.51
      P1  H  7989  7998       L1    21  0.16
      P1  H 10752 10763       L1    16  1.00

> <Gold.PLP.Chemscore.Internal.Correction>
0.0132

> <Gold.Rescore>
     Score         DG    S(hbond)    S(metal)    S(lipo)     H(rot)  DE(clash)    DE(int)     intcor
     18.63     -20.26       1.77        0.00     109.85       1.55       0.95       0.69       ----

> <Gold.Chemscore.Fitness>
18.6266

> <Gold.Chemscore.DG>
-20.2633

> <Gold.Chemscore.ZeroCoef>
-5.4800

> <Gold.Chemscore.Hbond>
1.7666

> <Gold.Chemscore.Metal>
0.0000

> <Gold.Chemscore.Lipo>
109.8464

> <Gold.Chemscore.Internal_Hbond>
0.0000

> <Gold.Chemscore.DEClash>
0.9466

> <Gold.Chemscore.DEInternal>
0.6901

> <Gold.Chemscore.Rot>
1.5505

> <Gold.Chemscore.Internal.Correction>
   9.000000E+99

> <Gold.Chemscore.Hbonds>
donor molecule, donor type, donor heavy atom, donor atom, acceptor molecule, acceptor atom, score
      P1  H  6896  6909       L1    17  0.52
      P1  H 10752 10763       L1    16  0.99

> <Gold.Chemscore.Hbond.Weighted>
-5.9004

> <Gold.Chemscore.Metal.Weighted>
-0.0000

> <Gold.Chemscore.Lipo.Weighted>
-12.8520

> <Gold.Chemscore.Internal_Hbond.Weighted>
0.0000

> <Gold.Chemscore.DEClash.Weighted>
0.9466

> <Gold.Chemscore.DEInternal.Weighted>
0.6901

> <Gold.Chemscore.Rot.Weighted>
3.9692

> <Gold.Chemscore.Internal.Correction.Weighted>
   9.000000E+99

> <Gold.Protein.RotatedTorsions>
[ 6907 6896 6895 6894 ] final  111.53 input  -60.11 | X-H torsion
[ 7974 7965 7964 7962 ] final  -50.90 input  175.53 | X-H torsion
[ 8008 7997 7996 7995 ] final -111.02 input   59.86 | X-H torsion
[ 10167 10162 10161 10158 ] final  -77.36 input  -65.29 | X-H torsion
[ 10718 10713 10712 10709 ] final  -78.81 input   66.30 | X-H torsion
[ 10763 10752 10751 10750 ] final  121.06 input  -60.55 | X-H torsion
[ 11005 11000 10999 10996 ] final   52.89 input  -57.11 | X-H torsion

> <Gold.Protein.ActiveResidues>
 VAL166  LYS551  ARG553  GLY616  TRP617  ASP618  TYR619  PRO620  LYS621  CYS622 
 ASP623  PHE694  ASN695  SER759  ASP760  ASP761  ALA762  ILE779  LEU786  VAL792 
 PHE793  MET794  SER795  GLU796  ALA797  LYS798  CYS799  TRP800  GLU811  SER814 

> <Gold.Protein.RotatedAtoms>
  152.4964  133.8645  159.7266 H   0  0  0  0  0  0  0  0  0  0  0  0  # atno 6907 bound_to 6896
  150.9148  133.6944  159.2853 H   0  0  0  0  0  0  0  0  0  0  0  0  # atno 6908 bound_to 6896
  151.4341  135.1017  159.9703 H   0  0  0  0  0  0  0  0  0  0  0  0  # atno 6909 bound_to 6896
  145.9249  140.7801  142.9629 H   0  0  0  0  0  0  0  0  0  0  0  0  # atno 7974 bound_to 7965
  154.9834  140.0396  157.2288 H   0  0  0  0  0  0  0  0  0  0  0  0  # atno 8008 bound_to 7997
  154.7693  140.2799  155.6128 H   0  0  0  0  0  0  0  0  0  0  0  0  # atno 8009 bound_to 7997
  156.2918  140.2613  156.2492 H   0  0  0  0  0  0  0  0  0  0  0  0  # atno 8010 bound_to 7997
  140.4777  143.2410  151.8107 H   0  0  0  0  0  0  0  0  0  0  0  0  # atno 10167 bound_to 10162
  156.0108  130.4528  150.3552 H   0  0  0  0  0  0  0  0  0  0  0  0  # atno 10718 bound_to 10713
  153.6082  135.3435  155.2969 H   0  0  0  0  0  0  0  0  0  0  0  0  # atno 10763 bound_to 10752
  154.8623  135.4244  154.2338 H   0  0  0  0  0  0  0  0  0  0  0  0  # atno 10764 bound_to 10752
  153.3183  135.7036  153.7125 H   0  0  0  0  0  0  0  0  0  0  0  0  # atno 10765 bound_to 10752
  140.0812  134.5336  155.8945 H   0  0  0  0  0  0  0  0  0  0  0  0  # atno 11005 bound_to 11000
  144.6757  140.2034  143.7384 LP  0  0  0  0  0  0  0  0  0  0  0  0  # atno 17320 bound_to 7965
  145.8502  139.2172  143.1776 LP  0  0  0  0  0  0  0  0  0  0  0  0  # atno 17321 bound_to 7965
  139.4828  144.4812  151.9304 LP  0  0  0  0  0  0  0  0  0  0  0  0  # atno 17342 bound_to 10162
  140.3898  144.2630  150.5901 LP  0  0  0  0  0  0  0  0  0  0  0  0  # atno 17343 bound_to 10162
  157.1643  131.0353  151.2826 LP  0  0  0  0  0  0  0  0  0  0  0  0  # atno 17370 bound_to 10713
  157.4284  130.7477  149.6970 LP  0  0  0  0  0  0  0  0  0  0  0  0  # atno 17371 bound_to 10713
  141.2047  133.6641  156.6137 LP  0  0  0  0  0  0  0  0  0  0  0  0  # atno 17394 bound_to 11000
  140.3485  134.7788  157.4450 LP  0  0  0  0  0  0  0  0  0  0  0  0  # atno 17395 bound_to 11000

$$$$
