AV-unprocessed.smi:1929|AV-procd|sdf|7803|dock1
  -GOLD-   22720 9543D 1   1.00000     0.00000
 Structure written by MMmdl.
 44 45  0  0  0  0  0  0  0  0  3 V2000
  143.8510  137.1863  153.8635 C   0  0  0  0  0  0  0  0  0  0  0  0
  144.7704  138.0125  153.0959 N   0  0  0  0  0  0  0  0  0  0  0  0
  145.8508  137.5419  152.4573 C   0  0  0  0  0  0  0  0  0  0  0  0
  146.1673  136.3517  152.4533 O   0  0  0  0  0  0  0  0  0  0  0  0
  146.6901  138.5723  151.6942 C   0  0  0  0  0  0  0  0  0  0  0  0
  147.4006  139.5219  152.5893 N   0  3  2  0  0  0  0  0  0  0  0  0
  148.0292  138.8585  153.7632 C   0  0  0  0  0  0  0  0  0  0  0  0
  148.8695  139.8556  154.5780 C   0  0  0  0  0  0  0  0  0  0  0  0
  148.0186  141.0512  155.0344 C   0  0  1  0  0  0  0  0  0  0  0  0
  148.8566  142.0192  155.7372 N   0  0  0  0  0  0  0  0  0  0  0  0
  149.7258  141.7190  156.7134 C   0  0  0  0  0  0  0  0  0  0  0  0
  149.9072  140.5752  157.1302 O   0  0  0  0  0  0  0  0  0  0  0  0
  150.3398  142.8206  157.1791 N   0  0  0  0  0  0  0  0  0  0  0  0
  151.3266  142.9148  158.1977 C   0  0  0  0  0  0  0  0  0  0  0  0
  151.6118  144.1969  158.7178 C   0  0  0  0  0  0  0  0  0  0  0  0
  152.5961  144.3386  159.7172 C   0  0  0  0  0  0  0  0  0  0  0  0
  153.2654  143.2530  160.1610 N   0  3  0  0  0  0  0  0  0  0  0  0
  153.0388  142.0103  159.6836 C   0  0  0  0  0  0  0  0  0  0  0  0
  152.0655  141.8062  158.6840 C   0  0  0  0  0  0  0  0  0  0  0  0
  147.3408  141.6971  153.8118 C   0  0  0  0  0  0  0  0  0  0  0  0
  146.5419  140.6609  153.0027 C   0  0  0  0  0  0  0  0  0  0  0  0
  143.0644  137.8063  154.2934 H   0  0  0  0  0  0  0  0  0  0  0  0
  144.3700  136.6804  154.6786 H   0  0  0  0  0  0  0  0  0  0  0  0
  143.3821  136.4336  153.2288 H   0  0  0  0  0  0  0  0  0  0  0  0
  144.5704  139.0014  153.0472 H   0  0  0  0  0  0  0  0  0  0  0  0
  147.4159  138.0072  151.1078 H   0  0  0  0  0  0  0  0  0  0  0  0
  146.0711  139.1212  150.9823 H   0  0  0  0  0  0  0  0  0  0  0  0
  147.2538  138.4201  154.3933 H   0  0  0  0  0  0  0  0  0  0  0  0
  148.6682  138.0383  153.4352 H   0  0  0  0  0  0  0  0  0  0  0  0
  149.3013  139.3514  155.4436 H   0  0  0  0  0  0  0  0  0  0  0  0
  149.7076  140.2031  153.9714 H   0  0  0  0  0  0  0  0  0  0  0  0
  147.2493  140.6816  155.7157 H   0  0  0  0  0  0  0  0  0  0  0  0
  148.7678  142.9856  155.4580 H   0  0  0  0  0  0  0  0  0  0  0  0
  150.0202  143.7011  156.8023 H   0  0  0  0  0  0  0  0  0  0  0  0
  151.0789  145.0666  158.3617 H   0  0  0  0  0  0  0  0  0  0  0  0
  152.8672  145.2813  160.1699 H   0  0  0  0  0  0  0  0  0  0  0  0
  153.6434  141.2216  160.1074 H   0  0  0  0  0  0  0  0  0  0  0  0
  151.9149  140.8080  158.3021 H   0  0  0  0  0  0  0  0  0  0  0  0
  146.6765  142.5019  154.1292 H   0  0  0  0  0  0  0  0  0  0  0  0
  148.0943  142.1547  153.1689 H   0  0  0  0  0  0  0  0  0  0  0  0
  146.1229  141.1456  152.1199 H   0  0  0  0  0  0  0  0  0  0  0  0
  145.7008  140.2900  153.5904 H   0  0  0  0  0  0  0  0  0  0  0  0
  148.1501  139.9162  152.0381 H   0  0  0  0  0  0  0  0  0  0  0  0
  153.9754  143.3774  160.8834 H   0  0  0  0  0  0  0  0  0  0  0  0
  1  2  1  0  0  0  0
  1 22  1  0  0  0  0
  1 23  1  0  0  0  0
  1 24  1  0  0  0  0
  2  3  1  0  0  0  0
  2 25  1  0  0  0  0
  3  4  2  0  0  0  0
  3  5  1  0  0  0  0
  5  6  1  0  0  0  0
  5 26  1  0  0  0  0
  5 27  1  0  0  0  0
  6 21  1  0  0  0  0
  6  7  1  0  0  0  0
  6 43  1  0  0  0  0
  7  8  1  0  0  0  0
  7 28  1  0  0  0  0
  7 29  1  0  0  0  0
  8  9  1  0  0  0  0
  8 30  1  0  0  0  0
  8 31  1  0  0  0  0
  9 10  1  0  0  0  0
  9 20  1  0  0  0  0
  9 32  1  0  0  0  0
 10 11  1  0  0  0  0
 10 33  1  0  0  0  0
 11 12  2  0  0  0  0
 11 13  1  0  0  0  0
 13 14  1  0  0  0  0
 13 34  1  0  0  0  0
 14 19  1  0  0  0  0
 14 15  2  0  0  0  0
 15 16  1  0  0  0  0
 15 35  1  0  0  0  0
 16 17  2  0  0  0  0
 16 36  1  0  0  0  0
 17 18  1  0  0  0  0
 17 44  1  0  0  0  0
 18 19  2  0  0  0  0
 18 37  1  0  0  0  0
 19 38  1  0  0  0  0
 20 21  1  0  0  0  0
 20 39  1  0  0  0  0
 20 40  1  0  0  0  0
 21 41  1  0  0  0  0
 21 42  1  0  0  0  0
M  CHG  1   6   1
M  CHG  1  17   1
M  END
> <s_m_source_file>
AV-unprocessed.smi

> <i_m_source_file_index>
1929

> <i_lp_mmshare_version>
43012

> <i_f3d_flags>
0

> <s_epik_input>
W0NIM11bTkhdQyg9TylbQ0gyXU4xW0NIMl1bQ0gyXVtDSF0oW0NIMl1bQ0gyXTEpW05IXUMoPU8pW05IXWMyW2NIXVtjSF1uW2NIXVtjSF0y

> <s_epik_cmdline>
J2VwaWtfcHl0aG9uJywgJy1waCcsICc3LjAnLCAnLXRuJywgJzgnLCAnLW1hJywgJzIwMCcsICctbWV0YWxfYmluZGluZycsICctaW1hZScsICc8aW5maWxlLm1hZT4nLCAnLW9tYWUnLCAnPG91dGZpbGUubWFlPic=

> <r_epik_Ionization_Penalty>
1.97435

> <r_epik_Ionization_Penalty_Charging>
1.97431

> <r_epik_Ionization_Penalty_Neutral>
3.89585e-05

> <r_epik_State_Penalty>
2.00691

> <r_epik_Charging_Adjusted_Penalty>
3.98122

> <i_epik_Tot_Q>
2

> <i_epik_Tot_abs_Q>
2

> <r_epik_Metal_State_Penalty>
2.11022

> <b_epik_Metal_Only>
0

> <s_lp_Force_Field>
OPLS_2005

> <r_lp_Energy>
26.2035

> <b_lp_Chiralities_Consistent>
1

> <s_lp_Variant>
AV-unprocessed.smi:1929-5

> <Gold.Version>
5.8.1

> <Gold.Id.Protein>
6NUR|6NUR_protein|mol2

> <Gold.PLP.Fitness>
48.5852

> <Gold.PLP.PLP>
-37.4483

> <Gold.PLP.part.hbond>
-4.0866

> <Gold.PLP.part.metal>
0.0000

> <Gold.PLP.part.buried>
-3.9012

> <Gold.PLP.part.nonpolar>
-31.6966

> <Gold.PLP.part.repulsive>
1.3368

> <Gold.PLP.ligand.clash>
0.0000

> <Gold.PLP.ligand.torsion>
0.4219

> <Gold.PLP.Chemscore.Hbond>
3.9840

> <Gold.PLP.Chemscore.CHOScore>
0.0000

> <Gold.PLP.Chemscore.Metal>
0.0000

> <Gold.Chemscore.Hbonds>
donor molecule, donor type, donor heavy atom, donor atom, acceptor molecule, acceptor atom, score
      L1  H     2    25       P1 10175  1.00
      L1  H     6    43       P1  7957  1.00
      L1  H    10    33       P1  8028  1.00
      L1  H    13    34       P1  8028  1.00

> <Gold.PLP.Chemscore.Internal.Correction>
0.0287

> <Gold.Rescore>
     Score         DG    S(hbond)    S(metal)    S(lipo)     H(rot)  DE(clash)    DE(int)     intcor
     21.36     -25.77       3.90        0.00      99.50       1.71       1.36       3.05       ----

> <Gold.Chemscore.Fitness>
21.3608

> <Gold.Chemscore.DG>
-25.7667

> <Gold.Chemscore.ZeroCoef>
-5.4800

> <Gold.Chemscore.Hbond>
3.9008

> <Gold.Chemscore.Metal>
0.0000

> <Gold.Chemscore.Lipo>
99.5030

> <Gold.Chemscore.Internal_Hbond>
0.0000

> <Gold.Chemscore.DEClash>
1.3595

> <Gold.Chemscore.DEInternal>
3.0463

> <Gold.Chemscore.Rot>
1.7124

> <Gold.Chemscore.Internal.Correction>
   9.000000E+99

> <Gold.Chemscore.Hbonds>
donor molecule, donor type, donor heavy atom, donor atom, acceptor molecule, acceptor atom, score
      L1  H     2    25       P1 10175  0.98
      L1  H     6    43       P1  7957  1.00
      L1  H    10    33       P1  8028  0.99
      L1  H    13    34       P1  8028  0.97

> <Gold.Chemscore.Hbond.Weighted>
-13.0286

> <Gold.Chemscore.Metal.Weighted>
-0.0000

> <Gold.Chemscore.Lipo.Weighted>
-11.6419

> <Gold.Chemscore.Internal_Hbond.Weighted>
0.0000

> <Gold.Chemscore.DEClash.Weighted>
1.3595

> <Gold.Chemscore.DEInternal.Weighted>
3.0463

> <Gold.Chemscore.Rot.Weighted>
4.3838

> <Gold.Chemscore.Internal.Correction.Weighted>
   9.000000E+99

> <Gold.Protein.RotatedTorsions>
[ 6907 6896 6895 6894 ] final   23.74 input  -60.11 | X-H torsion
[ 7974 7965 7964 7962 ] final   87.10 input  175.53 | X-H torsion
[ 8008 7997 7996 7995 ] final  -57.15 input   59.86 | X-H torsion
[ 10167 10162 10161 10158 ] final   75.56 input  -65.29 | X-H torsion
[ 10718 10713 10712 10709 ] final -127.92 input   66.30 | X-H torsion
[ 10763 10752 10751 10750 ] final -109.98 input  -60.55 | X-H torsion
[ 11005 11000 10999 10996 ] final  124.21 input  -57.11 | X-H torsion

> <Gold.Protein.ActiveResidues>
 VAL166  LYS551  ARG553  GLY616  TRP617  ASP618  TYR619  PRO620  LYS621  CYS622 
 ASP623  PHE694  ASN695  SER759  ASP760  ASP761  ALA762  ILE779  LEU786  VAL792 
 PHE793  MET794  SER795  GLU796  ALA797  LYS798  CYS799  TRP800  GLU811  SER814 

> <Gold.Protein.RotatedAtoms>
  151.9469  135.0187  160.0539 H   0  0  0  0  0  0  0  0  0  0  0  0  # atno 6907 bound_to 6896
  152.1987  133.4820  159.5055 H   0  0  0  0  0  0  0  0  0  0  0  0  # atno 6908 bound_to 6896
  150.6950  134.1536  159.4192 H   0  0  0  0  0  0  0  0  0  0  0  0  # atno 6909 bound_to 6896
  145.5635  139.2306  143.2446 H   0  0  0  0  0  0  0  0  0  0  0  0  # atno 7974 bound_to 7965
  154.4257  140.1113  156.5751 H   0  0  0  0  0  0  0  0  0  0  0  0  # atno 8008 bound_to 7997
  155.6171  140.3495  155.4621 H   0  0  0  0  0  0  0  0  0  0  0  0  # atno 8009 bound_to 7997
  156.0054  140.1208  157.0496 H   0  0  0  0  0  0  0  0  0  0  0  0  # atno 8010 bound_to 7997
  140.0017  144.5681  150.7732 H   0  0  0  0  0  0  0  0  0  0  0  0  # atno 10167 bound_to 10162
  156.1902  130.6790  151.0414 H   0  0  0  0  0  0  0  0  0  0  0  0  # atno 10718 bound_to 10713
  154.8223  135.4581  154.0816 H   0  0  0  0  0  0  0  0  0  0  0  0  # atno 10763 bound_to 10752
  153.2159  135.6888  153.8064 H   0  0  0  0  0  0  0  0  0  0  0  0  # atno 10764 bound_to 10752
  153.7499  135.3300  155.3296 H   0  0  0  0  0  0  0  0  0  0  0  0  # atno 10765 bound_to 10752
  139.9348  134.9640  156.8375 H   0  0  0  0  0  0  0  0  0  0  0  0  # atno 11005 bound_to 11000
  146.1835  140.6460  142.9178 LP  0  0  0  0  0  0  0  0  0  0  0  0  # atno 17320 bound_to 7965
  144.7472  140.5097  143.6827 LP  0  0  0  0  0  0  0  0  0  0  0  0  # atno 17321 bound_to 7965
  140.7416  143.2820  151.3570 LP  0  0  0  0  0  0  0  0  0  0  0  0  # atno 17342 bound_to 10162
  139.6267  144.0800  152.2440 LP  0  0  0  0  0  0  0  0  0  0  0  0  # atno 17343 bound_to 10162
  157.6924  131.0805  150.7069 LP  0  0  0  0  0  0  0  0  0  0  0  0  # atno 17370 bound_to 10713
  156.7125  130.4656  149.5543 LP  0  0  0  0  0  0  0  0  0  0  0  0  # atno 17371 bound_to 10713
  140.6105  134.0087  155.7575 LP  0  0  0  0  0  0  0  0  0  0  0  0  # atno 17394 bound_to 11000
  141.0956  133.9849  157.3165 LP  0  0  0  0  0  0  0  0  0  0  0  0  # atno 17395 bound_to 11000

$$$$
