AV-unprocessed.smi:1452|AV-procd|sdf|5909|dock3
  -GOLD-   22720 5593D 1   1.00000     0.00000
 Structure written by MMmdl.
 40 42  0  0  0  0  0  0  0  0  2 V2000
  145.0798  137.3126  150.6460 O   0  0  0  0  0  0  0  0  0  0  0  0
  146.1992  136.9441  150.9968 C   0  0  0  0  0  0  0  0  0  0  0  0
  146.5345  135.6367  151.0056 N   0  0  0  0  0  0  0  0  0  0  0  0
  145.7847  134.4747  150.6569 C   0  0  0  0  0  0  0  0  0  0  0  0
  146.4588  133.2524  150.8779 C   0  0  0  0  0  0  0  0  0  0  0  0
  145.8224  132.0382  150.5551 C   0  0  0  0  0  0  0  0  0  0  0  0
  144.5254  132.0761  150.0137 C   0  0  0  0  0  0  0  0  0  0  0  0
  143.9252  133.3331  149.8194 C   0  0  0  0  0  0  0  0  0  0  0  0
  144.5338  134.4981  150.1284 N   0  0  0  0  0  0  0  0  0  0  0  0
  147.1563  137.8005  151.3914 N   0  0  0  0  0  0  0  0  0  0  0  0
  147.0123  139.2490  151.5142 C   0  0  2  0  0  0  0  0  0  0  0  0
  147.5040  140.0046  150.2640 C   0  0  0  0  0  0  0  0  0  0  0  0
  148.2830  141.2035  150.8141 C   0  0  0  0  0  0  0  0  0  0  0  0
  148.8569  140.6795  152.0587 N   0  3  1  0  0  0  0  0  0  0  0  0
  149.4807  141.6292  153.0021 C   0  0  0  0  0  0  0  0  0  0  0  0
  150.1611  140.8224  154.1288 C   0  0  0  0  0  0  0  0  0  0  0  0
  149.1969  139.8101  154.7882 C   0  0  0  0  0  0  0  0  0  0  0  0
  148.4809  138.9340  153.7381 C   0  0  0  0  0  0  0  0  0  0  0  0
  147.8184  139.8475  152.6903 C   0  0  2  0  0  0  0  0  0  0  0  0
  147.5036  135.4552  151.2235 H   0  0  0  0  0  0  0  0  0  0  0  0
  147.4567  133.2398  151.2920 H   0  0  0  0  0  0  0  0  0  0  0  0
  146.3223  131.0951  150.7191 H   0  0  0  0  0  0  0  0  0  0  0  0
  144.0052  131.1663  149.7525 H   0  0  0  0  0  0  0  0  0  0  0  0
  142.9312  133.4069  149.4039 H   0  0  0  0  0  0  0  0  0  0  0  0
  148.0480  137.4066  151.6573 H   0  0  0  0  0  0  0  0  0  0  0  0
  145.9585  139.4944  151.6604 H   0  0  0  0  0  0  0  0  0  0  0  0
  148.1791  139.3753  149.6816 H   0  0  0  0  0  0  0  0  0  0  0  0
  146.6875  140.3057  149.6067 H   0  0  0  0  0  0  0  0  0  0  0  0
  149.0513  141.5581  150.1267 H   0  0  0  0  0  0  0  0  0  0  0  0
  147.6076  142.0306  151.0390 H   0  0  0  0  0  0  0  0  0  0  0  0
  150.2174  142.2391  152.4780 H   0  0  0  0  0  0  0  0  0  0  0  0
  148.7276  142.3067  153.4076 H   0  0  0  0  0  0  0  0  0  0  0  0
  151.0134  140.2818  153.7149 H   0  0  0  0  0  0  0  0  0  0  0  0
  150.5656  141.4994  154.8819 H   0  0  0  0  0  0  0  0  0  0  0  0
  149.7396  139.1804  155.4940 H   0  0  0  0  0  0  0  0  0  0  0  0
  148.4518  140.3523  155.3719 H   0  0  0  0  0  0  0  0  0  0  0  0
  149.1972  138.2631  153.2615 H   0  0  0  0  0  0  0  0  0  0  0  0
  147.7344  138.3076  154.2273 H   0  0  0  0  0  0  0  0  0  0  0  0
  147.1367  140.5194  153.2167 H   0  0  0  0  0  0  0  0  0  0  0  0
  149.5851  140.0419  151.7703 H   0  0  0  0  0  0  0  0  0  0  0  0
  1  2  2  0  0  0  0
  2  3  1  0  0  0  0
  2 10  1  0  0  0  0
  3  4  1  0  0  0  0
  3 20  1  0  0  0  0
  4  9  1  0  0  0  0
  4  5  2  0  0  0  0
  5  6  1  0  0  0  0
  5 21  1  0  0  0  0
  6  7  2  0  0  0  0
  6 22  1  0  0  0  0
  7  8  1  0  0  0  0
  7 23  1  0  0  0  0
  8  9  2  0  0  0  0
  8 24  1  0  0  0  0
 10 11  1  0  0  0  0
 10 25  1  0  0  0  0
 11 19  1  0  0  0  0
 11 12  1  0  0  0  0
 11 26  1  0  0  0  0
 12 13  1  0  0  0  0
 12 27  1  0  0  0  0
 12 28  1  0  0  0  0
 13 14  1  0  0  0  0
 13 29  1  0  0  0  0
 13 30  1  0  0  0  0
 14 19  1  0  0  0  0
 14 15  1  0  0  0  0
 14 40  1  0  0  0  0
 15 16  1  0  0  0  0
 15 31  1  0  0  0  0
 15 32  1  0  0  0  0
 16 17  1  0  0  0  0
 16 33  1  0  0  0  0
 16 34  1  0  0  0  0
 17 18  1  0  0  0  0
 17 35  1  0  0  0  0
 17 36  1  0  0  0  0
 18 19  1  0  0  0  0
 18 37  1  0  0  0  0
 18 38  1  0  0  0  0
 19 39  1  0  0  0  0
M  CHG  1  14   1
M  END
> <s_m_source_file>
AV-unprocessed.smi

> <i_m_source_file_index>
1452

> <i_lp_mmshare_version>
43012

> <i_f3d_flags>
0

> <s_epik_input>
W0NIMl0xW0NIMl1bQ0gyXVtDSDJdW0NASF0oTjEyKVtDQEBIXShbQ0gyXVtDSDJdMilbTkhdQyg9TylbTkhdYzNbY0hdW2NIXVtjSF1bY0hdbjM=

> <s_epik_cmdline>
J2VwaWtfcHl0aG9uJywgJy1waCcsICc3LjAnLCAnLXRuJywgJzgnLCAnLW1hJywgJzIwMCcsICctbWV0YWxfYmluZGluZycsICctaW1hZScsICc8aW5maWxlLm1hZT4nLCAnLW9tYWUnLCAnPG91dGZpbGUubWFlPic=

> <r_epik_Ionization_Penalty>
0.00100813

> <r_epik_Ionization_Penalty_Charging>
0.000974069

> <r_epik_Ionization_Penalty_Neutral>
3.40643e-05

> <r_epik_State_Penalty>
0.000633842

> <r_epik_Charging_Adjusted_Penalty>
0.00160791

> <i_epik_Tot_Q>
1

> <i_epik_Tot_abs_Q>
1

> <r_epik_Metal_State_Penalty>
-0

> <b_epik_Metal_Only>
0

> <s_lp_Force_Field>
OPLS_2005

> <r_lp_Energy>
45.6992

> <b_lp_Chiralities_Consistent>
1

> <s_lp_Variant>
AV-unprocessed.smi:1452-7

> <Gold.Version>
5.8.1

> <Gold.Id.Protein>
6NUR|6NUR_protein|mol2

> <Gold.PLP.Fitness>
41.6279

> <Gold.PLP.PLP>
-30.4972

> <Gold.PLP.part.hbond>
-2.9892

> <Gold.PLP.part.metal>
0.0000

> <Gold.PLP.part.buried>
-0.9316

> <Gold.PLP.part.nonpolar>
-27.7225

> <Gold.PLP.part.repulsive>
0.5686

> <Gold.PLP.ligand.clash>
0.0000

> <Gold.PLP.ligand.torsion>
0.3509

> <Gold.PLP.Chemscore.Hbond>
2.9440

> <Gold.PLP.Chemscore.CHOScore>
1.0000

> <Gold.PLP.Chemscore.Metal>
0.0000

> <Gold.Chemscore.Hbonds>
donor molecule, donor type, donor heavy atom, donor atom, acceptor molecule, acceptor atom, score
      L1  H     3    20       P1  7948  0.86
      L1  H    10    25       P1  7948  0.83
      L1  C     8    24       P1 10186  1.00

> <Gold.PLP.Chemscore.Internal.Correction>
0.0006

> <Gold.Rescore>
     Score         DG    S(hbond)    S(metal)    S(lipo)     H(rot)  DE(clash)    DE(int)     intcor
     19.13     -21.76       2.67        0.00      84.77       1.00       1.04       1.59       ----

> <Gold.Chemscore.Fitness>
19.1262

> <Gold.Chemscore.DG>
-21.7616

> <Gold.Chemscore.ZeroCoef>
-5.4800

> <Gold.Chemscore.Hbond>
2.6719

> <Gold.Chemscore.Metal>
0.0000

> <Gold.Chemscore.Lipo>
84.7656

> <Gold.Chemscore.Internal_Hbond>
0.0000

> <Gold.Chemscore.DEClash>
1.0423

> <Gold.Chemscore.DEInternal>
1.5932

> <Gold.Chemscore.Rot>
1.0000

> <Gold.Chemscore.Internal.Correction>
   9.000000E+99

> <Gold.Chemscore.Hbonds>
donor molecule, donor type, donor heavy atom, donor atom, acceptor molecule, acceptor atom, score
      L1  H     3    20       P1  7948  0.59
      L1  H    10    25       P1  7948  0.77

> <Gold.Chemscore.Hbond.Weighted>
-8.9240

> <Gold.Chemscore.Metal.Weighted>
-0.0000

> <Gold.Chemscore.Lipo.Weighted>
-9.9176

> <Gold.Chemscore.Internal_Hbond.Weighted>
0.0000

> <Gold.Chemscore.DEClash.Weighted>
1.0423

> <Gold.Chemscore.DEInternal.Weighted>
1.5932

> <Gold.Chemscore.Rot.Weighted>
2.5600

> <Gold.Chemscore.Internal.Correction.Weighted>
   9.000000E+99

> <Gold.Protein.RotatedTorsions>
[ 6907 6896 6895 6894 ] final    3.24 input  -60.11 | X-H torsion
[ 7974 7965 7964 7962 ] final    3.24 input  175.53 | X-H torsion
[ 8008 7997 7996 7995 ] final   55.54 input   59.86 | X-H torsion
[ 10167 10162 10161 10158 ] final   44.68 input  -65.29 | X-H torsion
[ 10718 10713 10712 10709 ] final   44.69 input   66.30 | X-H torsion
[ 10763 10752 10751 10750 ] final -157.59 input  -60.55 | X-H torsion
[ 11005 11000 10999 10996 ] final   15.34 input  -57.11 | X-H torsion

> <Gold.Protein.ActiveResidues>
 VAL166  LYS551  ARG553  GLY616  TRP617  ASP618  TYR619  PRO620  LYS621  CYS622 
 ASP623  PHE694  ASN695  SER759  ASP760  ASP761  ALA762  ILE779  LEU786  VAL792 
 PHE793  MET794  SER795  GLU796  ALA797  LYS798  CYS799  TRP800  GLU811  SER814 

> <Gold.Protein.RotatedAtoms>
  151.6218  135.1031  160.0102 H   0  0  0  0  0  0  0  0  0  0  0  0  # atno 6907 bound_to 6896
  152.4154  133.7025  159.6442 H   0  0  0  0  0  0  0  0  0  0  0  0  # atno 6908 bound_to 6896
  150.8042  133.8467  159.3235 H   0  0  0  0  0  0  0  0  0  0  0  0  # atno 6909 bound_to 6896
  146.2445  140.0715  142.8362 H   0  0  0  0  0  0  0  0  0  0  0  0  # atno 7974 bound_to 7965
  155.5027  140.3475  155.4374 H   0  0  0  0  0  0  0  0  0  0  0  0  # atno 8008 bound_to 7997
  156.0903  140.1409  156.9629 H   0  0  0  0  0  0  0  0  0  0  0  0  # atno 8009 bound_to 7997
  154.4631  140.0927  156.6923 H   0  0  0  0  0  0  0  0  0  0  0  0  # atno 8010 bound_to 7997
  140.3319  144.2578  150.6167 H   0  0  0  0  0  0  0  0  0  0  0  0  # atno 10167 bound_to 10162
  157.4296  130.8017  149.7590 H   0  0  0  0  0  0  0  0  0  0  0  0  # atno 10718 bound_to 10713
  154.7624  135.3121  154.8352 H   0  0  0  0  0  0  0  0  0  0  0  0  # atno 10763 bound_to 10752
  153.9109  135.6806  153.4755 H   0  0  0  0  0  0  0  0  0  0  0  0  # atno 10764 bound_to 10752
  153.1226  135.4815  154.9152 H   0  0  0  0  0  0  0  0  0  0  0  0  # atno 10765 bound_to 10752
  140.4594  134.1143  155.7714 H   0  0  0  0  0  0  0  0  0  0  0  0  # atno 11005 bound_to 11000
  145.0812  140.9222  143.4824 LP  0  0  0  0  0  0  0  0  0  0  0  0  # atno 17320 bound_to 7965
  145.0868  139.2919  143.5755 LP  0  0  0  0  0  0  0  0  0  0  0  0  # atno 17321 bound_to 7965
  140.5389  143.2227  151.8117 LP  0  0  0  0  0  0  0  0  0  0  0  0  # atno 17342 bound_to 10162
  139.4855  144.4625  151.9523 LP  0  0  0  0  0  0  0  0  0  0  0  0  # atno 17343 bound_to 10162
  155.9908  130.3942  150.3011 LP  0  0  0  0  0  0  0  0  0  0  0  0  # atno 17370 bound_to 10713
  157.1166  131.0235  151.3026 LP  0  0  0  0  0  0  0  0  0  0  0  0  # atno 17371 bound_to 10713
  141.1628  133.8760  157.1800 LP  0  0  0  0  0  0  0  0  0  0  0  0  # atno 17394 bound_to 11000
  139.9955  135.0048  157.0073 LP  0  0  0  0  0  0  0  0  0  0  0  0  # atno 17395 bound_to 11000

$$$$
