AV-unprocessed.smi:2789|AV-procd|sdf|10764|dock3
  -GOLD-   2272015193D 1   1.00000     0.00000
 Structure written by MMmdl.
 35 36  0  0  0  0  0  0  0  0  1 V2000
  146.6523  132.8146  151.6806 C   0  0  0  0  0  0  0  0  0  0  0  0
  146.5712  134.1506  152.1496 O   0  0  0  0  0  0  0  0  0  0  0  0
  145.3983  134.4207  152.9129 C   0  0  2  0  0  0  0  0  0  0  0  0
  144.2044  134.1205  152.0036 C   0  0  0  0  0  0  0  0  0  0  0  0
  144.0097  135.4016  151.1991 C   0  0  0  0  0  0  0  0  0  0  0  0
  144.3073  136.5226  152.1955 C   0  0  0  0  0  0  0  0  0  0  0  0
  145.2706  135.9287  153.2420 C   0  0  2  0  0  0  0  0  0  0  0  0
  146.5535  136.6287  153.2192 N   0  0  0  0  0  0  0  0  0  0  0  0
  146.7987  137.8120  153.7987 C   0  0  0  0  0  0  0  0  0  0  0  0
  145.9479  138.4573  154.4114 O   0  0  0  0  0  0  0  0  0  0  0  0
  148.0823  138.1740  153.6309 N   0  0  0  0  0  0  0  0  0  0  0  0
  148.7128  139.2986  154.0627 C   0  0  0  0  0  0  0  0  0  0  0  0
  148.2012  140.5567  154.2308 C   0  0  0  0  0  0  0  0  0  0  0  0
  149.3316  141.2908  154.6904 C   0  0  0  0  0  0  0  0  0  0  0  0
  150.4274  140.5493  154.7906 N   0  0  0  0  0  0  0  0  0  0  0  0
  150.0504  139.3127  154.3995 N   0  0  0  0  0  0  0  0  0  0  0  0
  151.0279  138.2412  154.3928 C   0  0  0  0  0  0  0  0  0  0  0  0
  147.5893  132.6712  151.1427 H   0  0  0  0  0  0  0  0  0  0  0  0
  145.8336  132.5911  150.9954 H   0  0  0  0  0  0  0  0  0  0  0  0
  146.6229  132.1001  152.5033 H   0  0  0  0  0  0  0  0  0  0  0  0
  145.3541  133.8073  153.8153 H   0  0  0  0  0  0  0  0  0  0  0  0
  144.3593  133.2443  151.3729 H   0  0  0  0  0  0  0  0  0  0  0  0
  143.3175  133.9367  152.6116 H   0  0  0  0  0  0  0  0  0  0  0  0
  144.7317  135.4339  150.3823 H   0  0  0  0  0  0  0  0  0  0  0  0
  143.0122  135.4789  150.7655 H   0  0  0  0  0  0  0  0  0  0  0  0
  144.7052  137.4061  151.6948 H   0  0  0  0  0  0  0  0  0  0  0  0
  143.3823  136.8256  152.6877 H   0  0  0  0  0  0  0  0  0  0  0  0
  144.8038  136.0421  154.2225 H   0  0  0  0  0  0  0  0  0  0  0  0
  147.3132  136.1634  152.7450 H   0  0  0  0  0  0  0  0  0  0  0  0
  148.6647  137.5215  153.1272 H   0  0  0  0  0  0  0  0  0  0  0  0
  147.1966  140.9128  154.0593 H   0  0  0  0  0  0  0  0  0  0  0  0
  149.3898  142.3370  154.9527 H   0  0  0  0  0  0  0  0  0  0  0  0
  150.6252  137.3549  153.9026 H   0  0  0  0  0  0  0  0  0  0  0  0
  151.2975  137.9861  155.4179 H   0  0  0  0  0  0  0  0  0  0  0  0
  151.9226  138.5601  153.8574 H   0  0  0  0  0  0  0  0  0  0  0  0
  1  2  1  0  0  0  0
  1 18  1  0  0  0  0
  1 19  1  0  0  0  0
  1 20  1  0  0  0  0
  2  3  1  0  0  0  0
  3  7  1  0  0  0  0
  3  4  1  0  0  0  0
  3 21  1  0  0  0  0
  4  5  1  0  0  0  0
  4 22  1  0  0  0  0
  4 23  1  0  0  0  0
  5  6  1  0  0  0  0
  5 24  1  0  0  0  0
  5 25  1  0  0  0  0
  6  7  1  0  0  0  0
  6 26  1  0  0  0  0
  6 27  1  0  0  0  0
  7  8  1  0  0  0  0
  7 28  1  0  0  0  0
  8  9  1  0  0  0  0
  8 29  1  0  0  0  0
  9 10  2  0  0  0  0
  9 11  1  0  0  0  0
 11 12  1  0  0  0  0
 11 30  1  0  0  0  0
 12 16  1  0  0  0  0
 12 13  2  0  0  0  0
 13 14  1  0  0  0  0
 13 31  1  0  0  0  0
 14 15  2  0  0  0  0
 14 32  1  0  0  0  0
 15 16  1  0  0  0  0
 16 17  1  0  0  0  0
 17 33  1  0  0  0  0
 17 34  1  0  0  0  0
 17 35  1  0  0  0  0
M  END
> <s_m_source_file>
AV-unprocessed.smi

> <i_m_source_file_index>
2789

> <i_lp_mmshare_version>
43012

> <i_f3d_flags>
0

> <s_epik_input>
W0NIM11PW0NAQEhdMVtDSDJdW0NIMl1bQ0gyXVtDQEhdMVtOSF1DKD1PKVtOSF1jMltjSF1bY0hdbm4yW0NIM10=

> <s_epik_cmdline>
J2VwaWtfcHl0aG9uJywgJy1waCcsICc3LjAnLCAnLXRuJywgJzgnLCAnLW1hJywgJzIwMCcsICctbWV0YWxfYmluZGluZycsICctaW1hZScsICc8aW5maWxlLm1hZT4nLCAnLW9tYWUnLCAnPG91dGZpbGUubWFlPic=

> <r_lp_tautomer_probability>
1

> <r_epik_Ionization_Penalty>
4.40608e-05

> <r_epik_Ionization_Penalty_Charging>
0

> <r_epik_Ionization_Penalty_Neutral>
4.40608e-05

> <r_epik_State_Penalty>
-0

> <r_epik_Charging_Adjusted_Penalty>
0

> <i_epik_Tot_Q>
0

> <i_epik_Tot_abs_Q>
0

> <r_epik_Metal_State_Penalty>
-0

> <b_epik_Metal_Only>
0

> <s_lp_Force_Field>
OPLS_2005

> <r_lp_Energy>
23.3685

> <b_lp_Chiralities_Consistent>
1

> <s_lp_Variant>
AV-unprocessed.smi:2789-3

> <Gold.Version>
5.8.1

> <Gold.Id.Protein>
6NUR|6NUR_protein|mol2

> <Gold.PLP.Fitness>
37.8619

> <Gold.PLP.PLP>
-27.0450

> <Gold.PLP.part.hbond>
-3.0000

> <Gold.PLP.part.metal>
0.0000

> <Gold.PLP.part.buried>
-3.3197

> <Gold.PLP.part.nonpolar>
-21.3491

> <Gold.PLP.part.repulsive>
0.3531

> <Gold.PLP.ligand.clash>
0.0000

> <Gold.PLP.ligand.torsion>
0.4898

> <Gold.PLP.Chemscore.Hbond>
2.9272

> <Gold.PLP.Chemscore.CHOScore>
1.0000

> <Gold.PLP.Chemscore.Metal>
0.0000

> <Gold.Chemscore.Hbonds>
donor molecule, donor type, donor heavy atom, donor atom, acceptor molecule, acceptor atom, score
      L1  H     8    29       P1  7948  1.00
      L1  H    11    30       P1  7948  1.00
      P1  H  7989  7998       L1    15  0.93
      L1  C    14    32       P1  8028  1.00

> <Gold.PLP.Chemscore.Internal.Correction>
0.0150

> <Gold.Rescore>
     Score         DG    S(hbond)    S(metal)    S(lipo)     H(rot)  DE(clash)    DE(int)     intcor
     15.24     -15.91       2.35        0.00      49.80       1.27       0.13       0.54       ----

> <Gold.Chemscore.Fitness>
15.2366

> <Gold.Chemscore.DG>
-15.9072

> <Gold.Chemscore.ZeroCoef>
-5.4800

> <Gold.Chemscore.Hbond>
2.3520

> <Gold.Chemscore.Metal>
0.0000

> <Gold.Chemscore.Lipo>
49.7952

> <Gold.Chemscore.Internal_Hbond>
0.0000

> <Gold.Chemscore.DEClash>
0.1322

> <Gold.Chemscore.DEInternal>
0.5384

> <Gold.Chemscore.Rot>
1.2712

> <Gold.Chemscore.Internal.Correction>
   9.000000E+99

> <Gold.Chemscore.Hbonds>
donor molecule, donor type, donor heavy atom, donor atom, acceptor molecule, acceptor atom, score
      L1  H     8    29       P1  7948  0.95
      L1  H    11    30       P1  7948  0.98
      P1  H  7989  7998       L1    15  0.17

> <Gold.Chemscore.Hbond.Weighted>
-7.8556

> <Gold.Chemscore.Metal.Weighted>
-0.0000

> <Gold.Chemscore.Lipo.Weighted>
-5.8260

> <Gold.Chemscore.Internal_Hbond.Weighted>
0.0000

> <Gold.Chemscore.DEClash.Weighted>
0.1322

> <Gold.Chemscore.DEInternal.Weighted>
0.5384

> <Gold.Chemscore.Rot.Weighted>
3.2544

> <Gold.Chemscore.Internal.Correction.Weighted>
   9.000000E+99

> <Gold.Protein.RotatedTorsions>
[ 6907 6896 6895 6894 ] final  109.43 input  -60.11 | X-H torsion
[ 7974 7965 7964 7962 ] final  -35.04 input  175.53 | X-H torsion
[ 8008 7997 7996 7995 ] final   94.79 input   59.86 | X-H torsion
[ 10167 10162 10161 10158 ] final   56.03 input  -65.29 | X-H torsion
[ 10718 10713 10712 10709 ] final   36.28 input   66.30 | X-H torsion
[ 10763 10752 10751 10750 ] final  162.90 input  -60.55 | X-H torsion
[ 11005 11000 10999 10996 ] final -168.91 input  -57.11 | X-H torsion

> <Gold.Protein.ActiveResidues>
 VAL166  LYS551  ARG553  GLY616  TRP617  ASP618  TYR619  PRO620  LYS621  CYS622 
 ASP623  PHE694  ASN695  SER759  ASP760  ASP761  ALA762  ILE779  LEU786  VAL792 
 PHE793  MET794  SER795  GLU796  ALA797  LYS798  CYS799  TRP800  GLU811  SER814 

> <Gold.Protein.RotatedAtoms>
  152.5067  133.8945  159.7410 H   0  0  0  0  0  0  0  0  0  0  0  0  # atno 6907 bound_to 6896
  150.9376  133.6685  159.2804 H   0  0  0  0  0  0  0  0  0  0  0  0  # atno 6908 bound_to 6896
  151.4008  135.0975  159.9608 H   0  0  0  0  0  0  0  0  0  0  0  0  # atno 6909 bound_to 6896
  146.0780  140.6111  142.8922 H   0  0  0  0  0  0  0  0  0  0  0  0  # atno 7974 bound_to 7965
  156.0618  140.3295  155.7471 H   0  0  0  0  0  0  0  0  0  0  0  0  # atno 8008 bound_to 7997
  155.5442  140.0604  157.2881 H   0  0  0  0  0  0  0  0  0  0  0  0  # atno 8009 bound_to 7997
  154.4485  140.1905  156.0610 H   0  0  0  0  0  0  0  0  0  0  0  0  # atno 8010 bound_to 7997
  140.2131  144.3867  150.6480 H   0  0  0  0  0  0  0  0  0  0  0  0  # atno 10167 bound_to 10162
  157.3330  130.7507  149.6860 H   0  0  0  0  0  0  0  0  0  0  0  0  # atno 10718 bound_to 10713
  154.2855  135.2762  155.2678 H   0  0  0  0  0  0  0  0  0  0  0  0  # atno 10763 bound_to 10752
  154.5181  135.5764  153.6661 H   0  0  0  0  0  0  0  0  0  0  0  0  # atno 10764 bound_to 10752
  152.9922  135.6197  154.3016 H   0  0  0  0  0  0  0  0  0  0  0  0  # atno 10765 bound_to 10752
  140.5367  134.5563  157.5089 H   0  0  0  0  0  0  0  0  0  0  0  0  # atno 11005 bound_to 11000
  144.7274  140.4567  143.6963 LP  0  0  0  0  0  0  0  0  0  0  0  0  # atno 17320 bound_to 7965
  145.6271  139.1531  143.2990 LP  0  0  0  0  0  0  0  0  0  0  0  0  # atno 17321 bound_to 7965
  140.6309  143.2187  151.6498 LP  0  0  0  0  0  0  0  0  0  0  0  0  # atno 17342 bound_to 10162
  139.5172  144.3322  152.0816 LP  0  0  0  0  0  0  0  0  0  0  0  0  # atno 17343 bound_to 10162
  155.9698  130.4190  150.4353 LP  0  0  0  0  0  0  0  0  0  0  0  0  # atno 17370 bound_to 10713
  157.2388  131.0520  151.2449 LP  0  0  0  0  0  0  0  0  0  0  0  0  # atno 17371 bound_to 10713
  139.9525  134.7591  156.0415 LP  0  0  0  0  0  0  0  0  0  0  0  0  # atno 17394 bound_to 11000
  141.1250  133.6602  156.3314 LP  0  0  0  0  0  0  0  0  0  0  0  0  # atno 17395 bound_to 11000

$$$$
