AV-unprocessed.smi:2855|AV-procd|sdf|10979|dock3
  -GOLD-   2272015433D 1   1.00000     0.00000
 Structure written by MMmdl.
 47 48  0  0  0  0  0  0  0  0  1 V2000
  152.7329  145.0471  158.1195 C   0  0  0  0  0  0  0  0  0  0  0  0
  151.8385  144.4391  159.2146 C   0  0  2  0  0  0  0  0  0  0  0  0
  152.4898  143.2296  159.9099 C   0  0  0  0  0  0  0  0  0  0  0  0
  152.5074  141.9776  159.0169 C   0  0  0  0  0  0  0  0  0  0  0  0
  151.0916  141.5987  158.5213 C   0  0  2  0  0  0  0  0  0  0  0  0
  151.0602  140.2818  157.6871 C   0  0  0  0  0  0  0  0  0  0  0  0
  151.6677  139.0899  158.4467 C   0  0  0  0  0  0  0  0  0  0  0  0
  151.6831  140.4091  156.2847 C   0  0  0  0  0  0  0  0  0  0  0  0
  150.4374  142.8108  157.8036 C   0  0  1  0  0  0  0  0  0  0  0  0
  149.0648  142.4958  157.4152 N   0  0  0  0  0  0  0  0  0  0  0  0
  148.0021  142.4880  158.2338 C   0  0  0  0  0  0  0  0  0  0  0  0
  148.0780  142.6903  159.4463 O   0  0  0  0  0  0  0  0  0  0  0  0
  146.6476  142.1906  157.5767 C   0  0  0  0  0  0  0  0  0  0  0  0
  145.5537  142.9876  158.1499 N   0  0  0  0  0  0  0  0  0  0  0  0
  144.8432  143.8786  157.3579 C   0  0  0  0  0  0  0  0  0  0  0  0
  143.8217  144.6372  157.8217 C   0  0  0  0  0  0  0  0  0  0  0  0
  143.4099  144.5474  159.2184 C   0  0  0  0  0  0  0  0  0  0  0  0
  142.4992  145.1934  159.7323 O   0  0  0  0  0  0  0  0  0  0  0  0
  144.1467  143.6384  159.9820 N   0  0  0  0  0  0  0  0  0  0  0  0
  145.1997  142.8530  159.5106 C   0  0  0  0  0  0  0  0  0  0  0  0
  145.7822  142.0788  160.2697 O   0  0  0  0  0  0  0  0  0  0  0  0
  150.4352  144.0680  158.6988 C   0  0  0  0  0  0  0  0  0  0  0  0
  143.8951  143.5397  160.9548 H   0  0  0  0  0  0  0  0  0  0  0  0
  152.9278  144.3455  157.3089 H   0  0  0  0  0  0  0  0  0  0  0  0
  153.6965  145.3520  158.5282 H   0  0  0  0  0  0  0  0  0  0  0  0
  152.2690  145.9320  157.6833 H   0  0  0  0  0  0  0  0  0  0  0  0
  151.7108  145.2163  159.9690 H   0  0  0  0  0  0  0  0  0  0  0  0
  153.5041  143.4774  160.2243 H   0  0  0  0  0  0  0  0  0  0  0  0
  151.9384  143.0033  160.8234 H   0  0  0  0  0  0  0  0  0  0  0  0
  153.1716  142.1477  158.1702 H   0  0  0  0  0  0  0  0  0  0  0  0
  152.9445  141.1581  159.5860 H   0  0  0  0  0  0  0  0  0  0  0  0
  150.4916  141.4087  159.4132 H   0  0  0  0  0  0  0  0  0  0  0  0
  150.0145  140.0144  157.5346 H   0  0  0  0  0  0  0  0  0  0  0  0
  152.7463  139.1894  158.5658 H   0  0  0  0  0  0  0  0  0  0  0  0
  151.4866  138.1568  157.9125 H   0  0  0  0  0  0  0  0  0  0  0  0
  151.2275  138.9870  159.4387 H   0  0  0  0  0  0  0  0  0  0  0  0
  152.7459  140.6449  156.3326 H   0  0  0  0  0  0  0  0  0  0  0  0
  151.1924  141.1805  155.6918 H   0  0  0  0  0  0  0  0  0  0  0  0
  151.5829  139.4743  155.7325 H   0  0  0  0  0  0  0  0  0  0  0  0
  151.0220  143.0341  156.9108 H   0  0  0  0  0  0  0  0  0  0  0  0
  148.9051  142.3069  156.4365 H   0  0  0  0  0  0  0  0  0  0  0  0
  146.7048  142.3631  156.4997 H   0  0  0  0  0  0  0  0  0  0  0  0
  146.4459  141.1244  157.6888 H   0  0  0  0  0  0  0  0  0  0  0  0
  145.1102  143.9755  156.3151 H   0  0  0  0  0  0  0  0  0  0  0  0
  143.3058  145.3133  157.1552 H   0  0  0  0  0  0  0  0  0  0  0  0
  149.7816  143.8946  159.5552 H   0  0  0  0  0  0  0  0  0  0  0  0
  150.0047  144.9127  158.1594 H   0  0  0  0  0  0  0  0  0  0  0  0
  1  2  1  0  0  0  0
  1 24  1  0  0  0  0
  1 25  1  0  0  0  0
  1 26  1  0  0  0  0
  2 22  1  0  0  0  0
  2  3  1  0  0  0  0
  2 27  1  0  0  0  0
  3  4  1  0  0  0  0
  3 28  1  0  0  0  0
  3 29  1  0  0  0  0
  4  5  1  0  0  0  0
  4 30  1  0  0  0  0
  4 31  1  0  0  0  0
  5  6  1  0  0  0  0
  5  9  1  0  0  0  0
  5 32  1  0  0  0  0
  6  7  1  0  0  0  0
  6  8  1  0  0  0  0
  6 33  1  0  0  0  0
  7 34  1  0  0  0  0
  7 35  1  0  0  0  0
  7 36  1  0  0  0  0
  8 37  1  0  0  0  0
  8 38  1  0  0  0  0
  8 39  1  0  0  0  0
  9 10  1  0  0  0  0
  9 22  1  0  0  0  0
  9 40  1  0  0  0  0
 10 11  1  0  0  0  0
 10 41  1  0  0  0  0
 11 12  2  0  0  0  0
 11 13  1  0  0  0  0
 13 14  1  0  0  0  0
 13 42  1  0  0  0  0
 13 43  1  0  0  0  0
 14 20  1  0  0  0  0
 14 15  1  0  0  0  0
 15 16  2  0  0  0  0
 15 44  1  0  0  0  0
 16 17  1  0  0  0  0
 16 45  1  0  0  0  0
 17 18  2  0  0  0  0
 17 19  1  0  0  0  0
 19 23  1  0  0  0  0
 19 20  1  0  0  0  0
 20 21  2  0  0  0  0
 22 46  1  0  0  0  0
 22 47  1  0  0  0  0
M  END
> <s_m_source_file>
AV-unprocessed.smi

> <i_m_source_file_index>
2855

> <i_lp_mmshare_version>
43012

> <i_f3d_flags>
0

> <s_epik_input>
W0NIM11bQ0BASF0xW0NIMl1bQ0gyXVtDQEBIXShbQ0hdKFtDSDNdKVtDSDNdKVtDQEhdKFtDSDJdMSlbTkhdQyg9TylbQ0gyXW4yW2NIXVtjSF1jKD1PKVtuSF1jMj1P

> <s_epik_cmdline>
J2VwaWtfcHl0aG9uJywgJy1waCcsICc3LjAnLCAnLXRuJywgJzgnLCAnLW1hJywgJzIwMCcsICctbWV0YWxfYmluZGluZycsICctaW1hZScsICc8aW5maWxlLm1hZT4nLCAnLW9tYWUnLCAnPG91dGZpbGUubWFlPic=

> <r_lp_tautomer_probability>
0.999537

> <r_epik_Ionization_Penalty>
0.00306256

> <r_epik_Ionization_Penalty_Charging>
0.00306254

> <r_epik_Ionization_Penalty_Neutral>
2.0223e-08

> <r_epik_State_Penalty>
0.0021533

> <r_epik_Charging_Adjusted_Penalty>
0.00521583

> <i_epik_Tot_Q>
0

> <i_epik_Tot_abs_Q>
0

> <r_epik_Metal_State_Penalty>
0.362116

> <b_epik_Metal_Only>
0

> <s_lp_Force_Field>
OPLS_2005

> <r_lp_Energy>
15.7359

> <b_lp_Chiralities_Consistent>
1

> <s_lp_Variant>
AV-unprocessed.smi:2855-3

> <Gold.Version>
5.8.1

> <Gold.Id.Protein>
6NUR|6NUR_protein|mol2

> <Gold.PLP.Fitness>
39.7567

> <Gold.PLP.PLP>
-36.1683

> <Gold.PLP.part.hbond>
-3.2166

> <Gold.PLP.part.metal>
0.0000

> <Gold.PLP.part.buried>
-5.6502

> <Gold.PLP.part.nonpolar>
-27.4928

> <Gold.PLP.part.repulsive>
0.2212

> <Gold.PLP.ligand.clash>
0.0000

> <Gold.PLP.ligand.torsion>
0.5792

> <Gold.PLP.Chemscore.Hbond>
1.5600

> <Gold.PLP.Chemscore.CHOScore>
0.0000

> <Gold.PLP.Chemscore.Metal>
0.0000

> <Gold.Chemscore.Hbonds>
donor molecule, donor type, donor heavy atom, donor atom, acceptor molecule, acceptor atom, score
      P1  H  6933  6944       L1    12  0.46
      P1  H  6934  6946       L1    21  1.00

> <Gold.PLP.Chemscore.Internal.Correction>
0.0668

> <Gold.Rescore>
     Score         DG    S(hbond)    S(metal)    S(lipo)     H(rot)  DE(clash)    DE(int)     intcor
     13.82     -16.97       1.47        0.00      96.73       1.85       0.55       2.60       ----

> <Gold.Chemscore.Fitness>
13.8218

> <Gold.Chemscore.DG>
-16.9707

> <Gold.Chemscore.ZeroCoef>
-5.4800

> <Gold.Chemscore.Hbond>
1.4728

> <Gold.Chemscore.Metal>
0.0000

> <Gold.Chemscore.Lipo>
96.7307

> <Gold.Chemscore.Internal_Hbond>
0.0000

> <Gold.Chemscore.DEClash>
0.5504

> <Gold.Chemscore.DEInternal>
2.5985

> <Gold.Chemscore.Rot>
1.8539

> <Gold.Chemscore.Internal.Correction>
   9.000000E+99

> <Gold.Chemscore.Hbonds>
donor molecule, donor type, donor heavy atom, donor atom, acceptor molecule, acceptor atom, score
      P1  H  6933  6944       L1    12  0.44
      P1  H  6934  6946       L1    21  1.00

> <Gold.Chemscore.Hbond.Weighted>
-4.9192

> <Gold.Chemscore.Metal.Weighted>
-0.0000

> <Gold.Chemscore.Lipo.Weighted>
-11.3175

> <Gold.Chemscore.Internal_Hbond.Weighted>
0.0000

> <Gold.Chemscore.DEClash.Weighted>
0.5504

> <Gold.Chemscore.DEInternal.Weighted>
2.5985

> <Gold.Chemscore.Rot.Weighted>
4.7460

> <Gold.Chemscore.Internal.Correction.Weighted>
   9.000000E+99

> <Gold.Protein.RotatedTorsions>
[ 6907 6896 6895 6894 ] final   77.90 input  -60.11 | X-H torsion
[ 7974 7965 7964 7962 ] final  -83.48 input  175.53 | X-H torsion
[ 8008 7997 7996 7995 ] final  171.06 input   59.86 | X-H torsion
[ 10167 10162 10161 10158 ] final  -76.52 input  -65.29 | X-H torsion
[ 10718 10713 10712 10709 ] final  141.94 input   66.30 | X-H torsion
[ 10763 10752 10751 10750 ] final -111.16 input  -60.55 | X-H torsion
[ 11005 11000 10999 10996 ] final   94.77 input  -57.11 | X-H torsion

> <Gold.Protein.ActiveResidues>
 VAL166  LYS551  ARG553  GLY616  TRP617  ASP618  TYR619  PRO620  LYS621  CYS622 
 ASP623  PHE694  ASN695  SER759  ASP760  ASP761  ALA762  ILE779  LEU786  VAL792 
 PHE793  MET794  SER795  GLU796  ALA797  LYS798  CYS799  TRP800  GLU811  SER814 

> <Gold.Protein.RotatedAtoms>
  152.5137  134.3747  159.9330 H   0  0  0  0  0  0  0  0  0  0  0  0  # atno 6907 bound_to 6896
  151.3702  133.3851  159.2706 H   0  0  0  0  0  0  0  0  0  0  0  0  # atno 6908 bound_to 6896
  150.9583  134.8994  159.7773 H   0  0  0  0  0  0  0  0  0  0  0  0  # atno 6909 bound_to 6896
  145.5194  140.9533  143.1664 H   0  0  0  0  0  0  0  0  0  0  0  0  # atno 7974 bound_to 7965
  156.1307  140.1521  156.9070 H   0  0  0  0  0  0  0  0  0  0  0  0  # atno 8008 bound_to 7997
  154.4906  140.0852  156.7626 H   0  0  0  0  0  0  0  0  0  0  0  0  # atno 8009 bound_to 7997
  155.4262  140.3425  155.4278 H   0  0  0  0  0  0  0  0  0  0  0  0  # atno 8010 bound_to 7997
  140.4849  143.2393  151.7999 H   0  0  0  0  0  0  0  0  0  0  0  0  # atno 10167 bound_to 10162
  157.3863  131.0999  151.0690 H   0  0  0  0  0  0  0  0  0  0  0  0  # atno 10718 bound_to 10713
  154.8286  135.4537  154.0997 H   0  0  0  0  0  0  0  0  0  0  0  0  # atno 10763 bound_to 10752
  153.2289  135.6903  153.7919 H   0  0  0  0  0  0  0  0  0  0  0  0  # atno 10764 bound_to 10752
  153.7309  135.3327  155.3262 H   0  0  0  0  0  0  0  0  0  0  0  0  # atno 10765 bound_to 10752
  139.8795  134.8863  156.3912 H   0  0  0  0  0  0  0  0  0  0  0  0  # atno 11005 bound_to 11000
  144.7684  139.6791  143.7205 LP  0  0  0  0  0  0  0  0  0  0  0  0  # atno 17320 bound_to 7965
  146.2116  139.5476  142.9677 LP  0  0  0  0  0  0  0  0  0  0  0  0  # atno 17321 bound_to 7965
  139.4840  144.4724  151.9408 LP  0  0  0  0  0  0  0  0  0  0  0  0  # atno 17342 bound_to 10162
  140.3810  144.2736  150.5908 LP  0  0  0  0  0  0  0  0  0  0  0  0  # atno 17343 bound_to 10162
  157.1740  130.6280  149.5650 LP  0  0  0  0  0  0  0  0  0  0  0  0  # atno 17370 bound_to 10713
  155.9787  130.4775  150.6674 LP  0  0  0  0  0  0  0  0  0  0  0  0  # atno 17371 bound_to 10713
  140.9331  133.7565  156.0050 LP  0  0  0  0  0  0  0  0  0  0  0  0  # atno 17394 bound_to 11000
  140.8307  134.3182  157.5350 LP  0  0  0  0  0  0  0  0  0  0  0  0  # atno 17395 bound_to 11000

$$$$
