AV-unprocessed.smi:3303|AV-procd|sdf|12666|dock2
  -GOLD-   2272019 03D 1   1.00000     0.00000
 Structure written by MMmdl.
 45 46  0  0  0  0  0  0  0  0  3 V2000
  149.5911  139.7260  154.5740 C   0  0  0  0  0  0  0  0  0  0  0  0
  149.5827  141.1747  155.0942 C   0  0  1  0  0  0  0  0  0  0  0  0
  148.4796  142.0136  154.4162 C   0  0  0  0  0  0  0  0  0  0  0  0
  147.1176  141.6375  154.8794 N   0  3  2  0  0  0  0  0  0  0  0  0
  146.0775  142.3467  154.0948 C   0  0  0  0  0  0  0  0  0  0  0  0
  146.9690  141.7817  156.3590 C   0  0  1  0  0  0  0  0  0  0  0  0
  145.5688  141.3743  156.8580 C   0  0  0  0  0  0  0  0  0  0  0  0
  148.0390  140.9447  157.0948 C   0  0  0  0  0  0  0  0  0  0  0  0
  149.4752  141.2481  156.6319 C   0  0  2  0  0  0  0  0  0  0  0  0
  149.9249  142.5683  157.1349 N   0  3  0  0  0  0  0  0  0  0  0  0
  151.3792  142.8046  157.0355 C   0  0  0  0  0  0  0  0  0  0  0  0
  151.8225  143.9406  157.9669 C   0  0  0  0  0  0  0  0  0  0  0  0
  152.2368  143.4262  159.3323 C   0  0  0  0  0  0  0  0  0  0  0  0
  152.8785  142.1770  159.4709 C   0  0  0  0  0  0  0  0  0  0  0  0
  153.2297  141.7444  160.7646 C   0  0  0  0  0  0  0  0  0  0  0  0
  152.9252  142.5720  161.8625 C   0  0  0  0  0  0  0  0  0  0  0  0
  152.2811  143.8011  161.6178 C   0  0  0  0  0  0  0  0  0  0  0  0
  151.9397  144.2251  160.3815 N   0  0  0  0  0  0  0  0  0  0  0  0
  148.6583  139.2064  154.7937 H   0  0  0  0  0  0  0  0  0  0  0  0
  150.4034  139.1526  155.0218 H   0  0  0  0  0  0  0  0  0  0  0  0
  149.7347  139.7003  153.4934 H   0  0  0  0  0  0  0  0  0  0  0  0
  150.5455  141.5997  154.8055 H   0  0  0  0  0  0  0  0  0  0  0  0
  148.6421  143.0739  154.6157 H   0  0  0  0  0  0  0  0  0  0  0  0
  148.5487  141.8922  153.3340 H   0  0  0  0  0  0  0  0  0  0  0  0
  146.0498  143.4075  154.3472 H   0  0  0  0  0  0  0  0  0  0  0  0
  145.0885  141.9229  154.2657 H   0  0  0  0  0  0  0  0  0  0  0  0
  146.2718  142.2586  153.0253 H   0  0  0  0  0  0  0  0  0  0  0  0
  147.1193  142.8330  156.6100 H   0  0  0  0  0  0  0  0  0  0  0  0
  145.5229  141.3933  157.9475 H   0  0  0  0  0  0  0  0  0  0  0  0
  145.3090  140.3650  156.5361 H   0  0  0  0  0  0  0  0  0  0  0  0
  144.7931  142.0535  156.5047 H   0  0  0  0  0  0  0  0  0  0  0  0
  147.9614  141.0988  158.1722 H   0  0  0  0  0  0  0  0  0  0  0  0
  147.8319  139.8853  156.9361 H   0  0  0  0  0  0  0  0  0  0  0  0
  150.1279  140.4844  157.0591 H   0  0  0  0  0  0  0  0  0  0  0  0
  149.4509  143.2904  156.6113 H   0  0  0  0  0  0  0  0  0  0  0  0
  151.9060  141.8840  157.2915 H   0  0  0  0  0  0  0  0  0  0  0  0
  151.6353  143.0498  156.0036 H   0  0  0  0  0  0  0  0  0  0  0  0
  152.6549  144.4870  157.5209 H   0  0  0  0  0  0  0  0  0  0  0  0
  151.0133  144.6617  158.0923 H   0  0  0  0  0  0  0  0  0  0  0  0
  153.0969  141.5619  158.6102 H   0  0  0  0  0  0  0  0  0  0  0  0
  153.7222  140.7945  160.9123 H   0  0  0  0  0  0  0  0  0  0  0  0
  153.1789  142.2725  162.8687 H   0  0  0  0  0  0  0  0  0  0  0  0
  152.0318  144.4604  162.4360 H   0  0  0  0  0  0  0  0  0  0  0  0
  149.6606  142.6503  158.1065 H   0  0  0  0  0  0  0  0  0  0  0  0
  147.0068  140.6551  154.6701 H   0  0  0  0  0  0  0  0  0  0  0  0
  1  2  1  0  0  0  0
  1 19  1  0  0  0  0
  1 20  1  0  0  0  0
  1 21  1  0  0  0  0
  2  9  1  0  0  0  0
  2  3  1  0  0  0  0
  2 22  1  0  0  0  0
  3  4  1  0  0  0  0
  3 23  1  0  0  0  0
  3 24  1  0  0  0  0
  4  5  1  0  0  0  0
  4  6  1  0  0  0  0
  4 45  1  0  0  0  0
  5 25  1  0  0  0  0
  5 26  1  0  0  0  0
  5 27  1  0  0  0  0
  6  7  1  0  0  0  0
  6  8  1  0  0  0  0
  6 28  1  0  0  0  0
  7 29  1  0  0  0  0
  7 30  1  0  0  0  0
  7 31  1  0  0  0  0
  8  9  1  0  0  0  0
  8 32  1  0  0  0  0
  8 33  1  0  0  0  0
  9 10  1  0  0  0  0
  9 34  1  0  0  0  0
 10 11  1  0  0  0  0
 10 35  1  0  0  0  0
 10 44  1  0  0  0  0
 11 12  1  0  0  0  0
 11 36  1  0  0  0  0
 11 37  1  0  0  0  0
 12 13  1  0  0  0  0
 12 38  1  0  0  0  0
 12 39  1  0  0  0  0
 13 18  1  0  0  0  0
 13 14  2  0  0  0  0
 14 15  1  0  0  0  0
 14 40  1  0  0  0  0
 15 16  2  0  0  0  0
 15 41  1  0  0  0  0
 16 17  1  0  0  0  0
 16 42  1  0  0  0  0
 17 18  2  0  0  0  0
 17 43  1  0  0  0  0
M  CHG  1   4   1
M  CHG  1  10   1
M  END
> <s_m_source_file>
AV-unprocessed.smi

> <i_m_source_file_index>
3303

> <i_lp_mmshare_version>
43012

> <i_f3d_flags>
0

> <s_epik_input>
W0NIM11bQ0BASF0xW0NIMl1OKFtDSDNdKVtDQEBIXShbQ0gzXSlbQ0gyXVtDQEhdMVtOSF1bQ0gyXVtDSDJdYzJbY0hdW2NIXVtjSF1bY0hdbjI=

> <s_epik_cmdline>
J2VwaWtfcHl0aG9uJywgJy1waCcsICc3LjAnLCAnLXRuJywgJzgnLCAnLW1hJywgJzIwMCcsICctbWV0YWxfYmluZGluZycsICctaW1hZScsICc8aW5maWxlLm1hZT4nLCAnLW9tYWUnLCAnPG91dGZpbGUubWFlPic=

> <r_epik_Ionization_Penalty>
0.0769462

> <r_epik_Ionization_Penalty_Charging>
0.0759813

> <r_epik_Ionization_Penalty_Neutral>
0.000964829

> <r_epik_State_Penalty>
0.0654373

> <r_epik_Charging_Adjusted_Penalty>
0.141419

> <i_epik_Tot_Q>
2

> <i_epik_Tot_abs_Q>
2

> <r_epik_Metal_State_Penalty>
0.0656439

> <b_epik_Metal_Only>
0

> <s_lp_Force_Field>
OPLS_2005

> <r_lp_Energy>
35.1377

> <b_lp_Chiralities_Consistent>
1

> <s_lp_Variant>
AV-unprocessed.smi:3303-10

> <Gold.Version>
5.8.1

> <Gold.Id.Protein>
6NUR|6NUR_protein|mol2

> <Gold.PLP.Fitness>
47.2768

> <Gold.PLP.PLP>
-42.6828

> <Gold.PLP.part.hbond>
-1.0000

> <Gold.PLP.part.metal>
0.0000

> <Gold.PLP.part.buried>
-3.7957

> <Gold.PLP.part.nonpolar>
-38.2950

> <Gold.PLP.part.repulsive>
0.1549

> <Gold.PLP.ligand.clash>
0.0000

> <Gold.PLP.ligand.torsion>
0.7162

> <Gold.PLP.Chemscore.Hbond>
2.0000

> <Gold.PLP.Chemscore.CHOScore>
0.0000

> <Gold.PLP.Chemscore.Metal>
0.0000

> <Gold.Chemscore.Hbonds>
donor molecule, donor type, donor heavy atom, donor atom, acceptor molecule, acceptor atom, score
      L1  H    10    35       P1  8028  2.00

> <Gold.PLP.Chemscore.Internal.Correction>
0.0263

> <Gold.Rescore>
     Score         DG    S(hbond)    S(metal)    S(lipo)     H(rot)  DE(clash)    DE(int)     intcor
     18.73     -19.46       0.99        0.00     121.17       1.37       0.13       0.60       ----

> <Gold.Chemscore.Fitness>
18.7302

> <Gold.Chemscore.DG>
-19.4575

> <Gold.Chemscore.ZeroCoef>
-5.4800

> <Gold.Chemscore.Hbond>
0.9936

> <Gold.Chemscore.Metal>
0.0000

> <Gold.Chemscore.Lipo>
121.1724

> <Gold.Chemscore.Internal_Hbond>
0.0000

> <Gold.Chemscore.DEClash>
0.1274

> <Gold.Chemscore.DEInternal>
0.5998

> <Gold.Chemscore.Rot>
1.3744

> <Gold.Chemscore.Internal.Correction>
   9.000000E+99

> <Gold.Chemscore.Hbonds>
donor molecule, donor type, donor heavy atom, donor atom, acceptor molecule, acceptor atom, score
      L1  H    10    35       P1  8028  1.00

> <Gold.Chemscore.Hbond.Weighted>
-3.3187

> <Gold.Chemscore.Metal.Weighted>
-0.0000

> <Gold.Chemscore.Lipo.Weighted>
-14.1772

> <Gold.Chemscore.Internal_Hbond.Weighted>
0.0000

> <Gold.Chemscore.DEClash.Weighted>
0.1274

> <Gold.Chemscore.DEInternal.Weighted>
0.5998

> <Gold.Chemscore.Rot.Weighted>
3.5185

> <Gold.Chemscore.Internal.Correction.Weighted>
   9.000000E+99

> <Gold.Protein.RotatedTorsions>
[ 6907 6896 6895 6894 ] final  -96.18 input  -60.11 | X-H torsion
[ 7974 7965 7964 7962 ] final  -15.94 input  175.53 | X-H torsion
[ 8008 7997 7996 7995 ] final -107.25 input   59.86 | X-H torsion
[ 10167 10162 10161 10158 ] final -127.24 input  -65.29 | X-H torsion
[ 10718 10713 10712 10709 ] final  152.77 input   66.30 | X-H torsion
[ 10763 10752 10751 10750 ] final   80.30 input  -60.55 | X-H torsion
[ 11005 11000 10999 10996 ] final  -72.89 input  -57.11 | X-H torsion

> <Gold.Protein.ActiveResidues>
 VAL166  LYS551  ARG553  GLY616  TRP617  ASP618  TYR619  PRO620  LYS621  CYS622 
 ASP623  PHE694  ASN695  SER759  ASP760  ASP761  ALA762  ILE779  LEU786  VAL792 
 PHE793  MET794  SER795  GLU796  ALA797  LYS798  CYS799  TRP800  GLU811  SER814 

> <Gold.Protein.RotatedAtoms>
  150.6982  134.1543  159.4151 H   0  0  0  0  0  0  0  0  0  0  0  0  # atno 6907 bound_to 6896
  151.9525  135.0160  160.0552 H   0  0  0  0  0  0  0  0  0  0  0  0  # atno 6908 bound_to 6896
  152.1998  133.4798  159.5089 H   0  0  0  0  0  0  0  0  0  0  0  0  # atno 6909 bound_to 6896
  146.2010  140.3565  142.8423 H   0  0  0  0  0  0  0  0  0  0  0  0  # atno 7974 bound_to 7965
  154.9266  140.0406  157.2026 H   0  0  0  0  0  0  0  0  0  0  0  0  # atno 8008 bound_to 7997
  154.8202  140.2882  155.5771 H   0  0  0  0  0  0  0  0  0  0  0  0  # atno 8009 bound_to 7997
  156.2979  140.2520  156.3107 H   0  0  0  0  0  0  0  0  0  0  0  0  # atno 8010 bound_to 7997
  139.9630  143.5929  152.2439 H   0  0  0  0  0  0  0  0  0  0  0  0  # atno 10167 bound_to 10162
  157.2535  131.0783  151.1714 H   0  0  0  0  0  0  0  0  0  0  0  0  # atno 10718 bound_to 10713
  153.1022  135.4807  154.8888 H   0  0  0  0  0  0  0  0  0  0  0  0  # atno 10763 bound_to 10752
  154.7392  135.3078  154.8761 H   0  0  0  0  0  0  0  0  0  0  0  0  # atno 10764 bound_to 10752
  153.9374  135.6838  153.4798 H   0  0  0  0  0  0  0  0  0  0  0  0  # atno 10765 bound_to 10752
  141.1615  133.6861  156.7129 H   0  0  0  0  0  0  0  0  0  0  0  0  # atno 11005 bound_to 11000
  144.8683  140.7237  143.6063 LP  0  0  0  0  0  0  0  0  0  0  0  0  # atno 17320 bound_to 7965
  145.3484  139.1713  143.4448 LP  0  0  0  0  0  0  0  0  0  0  0  0  # atno 17321 bound_to 7965
  139.6540  144.7661  151.2093 LP  0  0  0  0  0  0  0  0  0  0  0  0  # atno 17342 bound_to 10162
  140.7547  143.6116  150.8600 LP  0  0  0  0  0  0  0  0  0  0  0  0  # atno 17343 bound_to 10162
  157.3252  130.6957  149.6292 LP  0  0  0  0  0  0  0  0  0  0  0  0  # atno 17370 bound_to 10713
  155.9665  130.4323  150.4959 LP  0  0  0  0  0  0  0  0  0  0  0  0  # atno 17371 bound_to 10713
  140.2874  134.8268  157.3986 LP  0  0  0  0  0  0  0  0  0  0  0  0  # atno 17394 bound_to 11000
  140.1378  134.5011  155.8055 LP  0  0  0  0  0  0  0  0  0  0  0  0  # atno 17395 bound_to 11000

$$$$
