AV-unprocessed.smi:72|AV-procd|sdf|700|dock6
  -GOLD-   2262017 13D 1   1.00000     0.00000
 Structure written by MMmdl.
 30 31  0  0  0  0  0  0  0  0  2 V2000
  151.5935  144.5577  158.1729 N   0  0  0  0  0  0  0  0  0  0  0  0
  151.4185  143.2467  157.7814 C   0  0  0  0  0  0  0  0  0  0  0  0
  150.2992  142.9450  157.0266 N   0  3  0  0  0  0  0  0  0  0  0  0
  149.9847  141.7268  156.5653 C   0  0  0  0  0  0  0  0  0  0  0  0
  150.7896  140.7157  156.8267 N   0  0  0  0  0  0  0  0  0  0  0  0
  150.5002  139.3151  156.3377 C   0  0  1  0  0  0  0  0  0  0  0  0
  149.2011  139.2851  155.8300 O   0  0  0  0  0  0  0  0  0  0  0  0
  149.2357  139.2811  154.4067 C   0  0  2  0  0  0  0  0  0  0  0  0
  147.9109  138.7673  153.8180 C   0  0  0  0  0  0  0  0  0  0  0  0
  148.0150  138.6791  152.4129 O   0  0  0  0  0  0  0  0  0  0  0  0
  150.4723  138.4269  154.1079 C   0  0  2  0  0  0  0  0  0  0  0  0
  150.1773  137.0464  154.2193 O   0  0  0  0  0  0  0  0  0  0  0  0
  151.4469  138.8527  155.1994 C   0  0  1  0  0  0  0  0  0  0  0  0
  152.2961  139.8730  154.7006 O   0  0  0  0  0  0  0  0  0  0  0  0
  151.9566  140.9258  157.6058 C   0  0  0  0  0  0  0  0  0  0  0  0
  152.7107  139.9870  157.8591 O   0  0  0  0  0  0  0  0  0  0  0  0
  152.1987  142.2354  158.0451 N   0  0  0  0  0  0  0  0  0  0  0  0
  150.5366  138.6799  157.2246 H   0  0  0  0  0  0  0  0  0  0  0  0
  149.4346  140.2918  154.0461 H   0  0  0  0  0  0  0  0  0  0  0  0
  150.8583  138.6073  153.1034 H   0  0  0  0  0  0  0  0  0  0  0  0
  152.0674  138.0246  155.5450 H   0  0  0  0  0  0  0  0  0  0  0  0
  152.3796  144.8687  158.7260 H   0  0  0  0  0  0  0  0  0  0  0  0
  150.9590  145.3076  157.9382 H   0  0  0  0  0  0  0  0  0  0  0  0
  149.0753  141.6029  155.9933 H   0  0  0  0  0  0  0  0  0  0  0  0
  147.6962  137.7664  154.1936 H   0  0  0  0  0  0  0  0  0  0  0  0
  147.0736  139.4083  154.0957 H   0  0  0  0  0  0  0  0  0  0  0  0
  148.5522  139.3939  152.1060 H   0  0  0  0  0  0  0  0  0  0  0  0
  149.6635  136.7862  153.4698 H   0  0  0  0  0  0  0  0  0  0  0  0
  153.1879  139.5599  154.7255 H   0  0  0  0  0  0  0  0  0  0  0  0
  149.6705  143.7047  156.8085 H   0  0  0  0  0  0  0  0  0  0  0  0
  1  2  1  0  0  0  0
  1 22  1  0  0  0  0
  1 23  1  0  0  0  0
  2 17  2  0  0  0  0
  2  3  1  0  0  0  0
  3  4  2  0  0  0  0
  3 30  1  0  0  0  0
  4  5  1  0  0  0  0
  4 24  1  0  0  0  0
  5  6  1  0  0  0  0
  5 15  1  0  0  0  0
  6 18  1  0  0  0  0
  6 13  1  0  0  0  0
  6  7  1  0  0  0  0
  7  8  1  0  0  0  0
  8 19  1  0  0  0  0
  8  9  1  0  0  0  0
  8 11  1  0  0  0  0
  9 10  1  0  0  0  0
  9 25  1  0  0  0  0
  9 26  1  0  0  0  0
 10 27  1  0  0  0  0
 11 20  1  0  0  0  0
 11 12  1  0  0  0  0
 11 13  1  0  0  0  0
 12 28  1  0  0  0  0
 13 21  1  0  0  0  0
 13 14  1  0  0  0  0
 14 29  1  0  0  0  0
 15 16  2  0  0  0  0
 15 17  1  0  0  0  0
M  CHG  1   3   1
M  END
> <s_m_source_file>
AV-unprocessed.smi

> <i_m_source_file_index>
72

> <i_lp_mmshare_version>
43012

> <i_f3d_flags>
0

> <s_epik_input>
W05IMl1jMW5bY0hdbihjKD1PKW4xKVtDQEBIXTJPW0NASF0oW0NIMl1bT0hdKVtDQEBIXShbT0hdKVtDQEhdMltPSF0=

> <s_epik_cmdline>
J2VwaWtfcHl0aG9uJywgJy1waCcsICc3LjAnLCAnLXRuJywgJzgnLCAnLW1hJywgJzIwMCcsICctbWV0YWxfYmluZGluZycsICctaW1hZScsICc8aW5maWxlLm1hZT4nLCAnLW9tYWUnLCAnPG91dGZpbGUubWFlPic=

> <r_lp_tautomer_probability>
4.77166e-05

> <r_epik_Ionization_Penalty>
0.104979

> <r_epik_Ionization_Penalty_Charging>
0.0999619

> <r_epik_Ionization_Penalty_Neutral>
0.00501745

> <r_epik_State_Penalty>
2.51541

> <r_epik_Charging_Adjusted_Penalty>
2.61537

> <i_epik_Tot_Q>
1

> <i_epik_Tot_abs_Q>
1

> <r_epik_Metal_State_Penalty>
3.53763

> <b_epik_Metal_Only>
0

> <s_epik_Chemistry_Notes>
This compound contains an acetal/aminal-like group ( X-CH(R)-Y where X, Y are N, S, or O) that may be acid/base labile, releasing an aldehyde.

> <s_lp_Force_Field>
OPLS_2005

> <r_lp_Energy>
34.8878

> <b_lp_Chiralities_Consistent>
1

> <s_lp_Variant>
AV-unprocessed.smi:72-38

> <Gold.Version>
5.8.1

> <Gold.Id.Protein>
6NUR|6NUR_protein|mol2

> <Gold.PLP.Fitness>
42.8115

> <Gold.PLP.PLP>
-26.1960

> <Gold.PLP.part.hbond>
-6.2663

> <Gold.PLP.part.metal>
0.0000

> <Gold.PLP.part.buried>
-3.0986

> <Gold.PLP.part.nonpolar>
-16.1758

> <Gold.PLP.part.repulsive>
0.0931

> <Gold.PLP.ligand.clash>
0.0000

> <Gold.PLP.ligand.torsion>
0.2439

> <Gold.PLP.Chemscore.Hbond>
5.6633

> <Gold.PLP.Chemscore.CHOScore>
0.0000

> <Gold.PLP.Chemscore.Metal>
0.0000

> <Gold.Chemscore.Hbonds>
donor molecule, donor type, donor heavy atom, donor atom, acceptor molecule, acceptor atom, score
      L1  H     3    30       P1  8028  2.00
      L1  H    10    27       P1  7957  1.00
      L1  H    12    28       P1  7948  1.00
      P1  H  7989  7998       L1    14  0.69
      P1  H  7997  8008       L1    16  1.00

> <Gold.PLP.Chemscore.Internal.Correction>
0.1136

> <Gold.Rescore>
     Score         DG    S(hbond)    S(metal)    S(lipo)     H(rot)  DE(clash)    DE(int)     intcor
     10.99     -12.27       4.26        0.00      25.59       4.08       0.99       0.29       ----

> <Gold.Chemscore.Fitness>
10.9892

> <Gold.Chemscore.DG>
-12.2744

> <Gold.Chemscore.ZeroCoef>
-5.4800

> <Gold.Chemscore.Hbond>
4.2638

> <Gold.Chemscore.Metal>
0.0000

> <Gold.Chemscore.Lipo>
25.5881

> <Gold.Chemscore.Internal_Hbond>
0.0000

> <Gold.Chemscore.DEClash>
0.9942

> <Gold.Chemscore.DEInternal>
0.2910

> <Gold.Chemscore.Rot>
4.0783

> <Gold.Chemscore.Internal.Correction>
   9.000000E+99

> <Gold.Chemscore.Hbonds>
donor molecule, donor type, donor heavy atom, donor atom, acceptor molecule, acceptor atom, score
      L1  H     3    30       P1  8028  0.95
      L1  H    10    27       P1  7957  0.91
      L1  H    12    28       P1  7948  0.60
      P1  H  7989  7998       L1    14  0.64
      P1  H  7997  8008       L1    16  0.76

> <Gold.Chemscore.Hbond.Weighted>
-14.2410

> <Gold.Chemscore.Metal.Weighted>
-0.0000

> <Gold.Chemscore.Lipo.Weighted>
-2.9938

> <Gold.Chemscore.Internal_Hbond.Weighted>
0.0000

> <Gold.Chemscore.DEClash.Weighted>
0.9942

> <Gold.Chemscore.DEInternal.Weighted>
0.2910

> <Gold.Chemscore.Rot.Weighted>
10.4404

> <Gold.Chemscore.Internal.Correction.Weighted>
   9.000000E+99

> <Gold.Protein.RotatedTorsions>
[ 6907 6896 6895 6894 ] final  -18.90 input  -60.11 | X-H torsion
[ 7974 7965 7964 7962 ] final    8.88 input  175.53 | X-H torsion
[ 8008 7997 7996 7995 ] final  -70.17 input   59.86 | X-H torsion
[ 10167 10162 10161 10158 ] final   65.83 input  -65.29 | X-H torsion
[ 10718 10713 10712 10709 ] final  120.40 input   66.30 | X-H torsion
[ 10763 10752 10751 10750 ] final  -34.60 input  -60.55 | X-H torsion
[ 11005 11000 10999 10996 ] final   27.81 input  -57.11 | X-H torsion

> <Gold.Protein.ActiveResidues>
 VAL166  LYS551  ARG553  GLY616  TRP617  ASP618  TYR619  PRO620  LYS621  CYS622 
 ASP623  PHE694  ASN695  SER759  ASP760  ASP761  ALA762  ILE779  LEU786  VAL792 
 PHE793  MET794  SER795  GLU796  ALA797  LYS798  CYS799  TRP800  GLU811  SER814 

> <Gold.Protein.RotatedAtoms>
  151.2712  135.0685  159.9134 H   0  0  0  0  0  0  0  0  0  0  0  0  # atno 6907 bound_to 6896
  152.5350  134.0128  159.7956 H   0  0  0  0  0  0  0  0  0  0  0  0  # atno 6908 bound_to 6896
  151.0367  133.5692  159.2686 H   0  0  0  0  0  0  0  0  0  0  0  0  # atno 6909 bound_to 6896
  146.2411  139.9867  142.8430 H   0  0  0  0  0  0  0  0  0  0  0  0  # atno 7974 bound_to 7965
  154.4992  140.0839  156.7762 H   0  0  0  0  0  0  0  0  0  0  0  0  # atno 8008 bound_to 7997
  155.4042  140.3438  155.4241 H   0  0  0  0  0  0  0  0  0  0  0  0  # atno 8009 bound_to 7997
  156.1435  140.1536  156.8872 H   0  0  0  0  0  0  0  0  0  0  0  0  # atno 8010 bound_to 7997
  140.1071  144.4852  150.7001 H   0  0  0  0  0  0  0  0  0  0  0  0  # atno 10167 bound_to 10162
  157.5893  131.1066  150.8030 H   0  0  0  0  0  0  0  0  0  0  0  0  # atno 10718 bound_to 10713
  153.8495  135.6850  153.4794 H   0  0  0  0  0  0  0  0  0  0  0  0  # atno 10763 bound_to 10752
  153.1406  135.4659  154.9487 H   0  0  0  0  0  0  0  0  0  0  0  0  # atno 10764 bound_to 10752
  154.7809  135.3268  154.7940 H   0  0  0  0  0  0  0  0  0  0  0  0  # atno 10765 bound_to 10752
  140.3222  134.2530  155.7715 H   0  0  0  0  0  0  0  0  0  0  0  0  # atno 11005 bound_to 11000
  145.1541  140.9639  143.4415 LP  0  0  0  0  0  0  0  0  0  0  0  0  # atno 17320 bound_to 7965
  145.0177  139.3452  143.6088 LP  0  0  0  0  0  0  0  0  0  0  0  0  # atno 17321 bound_to 7965
  140.6946  143.2396  151.5036 LP  0  0  0  0  0  0  0  0  0  0  0  0  # atno 17342 bound_to 10162
  139.5639  144.2088  152.1735 LP  0  0  0  0  0  0  0  0  0  0  0  0  # atno 17343 bound_to 10162
  156.8456  130.5063  149.5317 LP  0  0  0  0  0  0  0  0  0  0  0  0  # atno 17370 bound_to 10713
  156.0946  130.5922  150.9791 LP  0  0  0  0  0  0  0  0  0  0  0  0  # atno 17371 bound_to 10713
  141.2084  133.7780  157.0063 LP  0  0  0  0  0  0  0  0  0  0  0  0  # atno 17394 bound_to 11000
  140.0932  134.9580  157.1808 LP  0  0  0  0  0  0  0  0  0  0  0  0  # atno 17395 bound_to 11000

$$$$
