AV-unprocessed.smi:1291|AV-procd|sdf|5393|dock1
  -GOLD-   22720 4543D 1   1.00000     0.00000
 Structure written by MMmdl.
 44 46  0  0  0  0  0  0  0  0  2 V2000
  150.3692  140.0547  154.2364 O   0  0  0  0  0  0  0  0  0  0  0  0
  149.5776  140.9364  155.0049 C   0  0  0  0  0  0  0  0  0  0  0  0
  150.3131  141.5380  156.1605 C   0  0  0  0  0  0  0  0  0  0  0  0
  150.6561  142.8498  156.3082 N   0  3  0  0  0  0  0  0  0  0  0  0
  151.3256  143.0319  157.5185 C   0  0  0  0  0  0  0  0  0  0  0  0
  151.8580  144.1779  158.1014 C   0  0  0  0  0  0  0  0  0  0  0  0
  152.4739  144.0199  159.3602 C   0  0  0  0  0  0  0  0  0  0  0  0
  152.5446  142.7602  159.9896 C   0  0  0  0  0  0  0  0  0  0  0  0
  152.0060  141.6049  159.3861 C   0  0  0  0  0  0  0  0  0  0  0  0
  151.3977  141.7689  158.1413 C   0  0  0  0  0  0  0  0  0  0  0  0
  150.7654  140.8776  157.2650 N   0  0  0  0  0  0  0  0  0  0  0  0
  150.6716  139.4510  157.6163 C   0  0  0  0  0  0  0  0  0  0  0  0
  152.0028  138.8685  158.1320 C   0  0  2  0  0  0  0  0  0  0  0  0
  153.0236  139.1229  157.1873 O   0  0  0  0  0  0  0  0  0  0  0  0
  151.9146  137.3502  158.3482 C   0  0  0  0  0  0  0  0  0  0  0  0
  152.2847  137.0537  159.6842 O   0  0  0  0  0  0  0  0  0  0  0  0
  153.6799  137.1705  159.9074 C   0  0  0  0  0  0  0  0  0  0  0  0
  154.0657  136.6454  161.2764 C   0  0  0  0  0  0  0  0  0  0  0  0
  153.6561  137.3293  162.4406 C   0  0  0  0  0  0  0  0  0  0  0  0
  154.0150  136.8405  163.7120 C   0  0  0  0  0  0  0  0  0  0  0  0
  154.7834  135.6656  163.8243 C   0  0  0  0  0  0  0  0  0  0  0  0
  155.1918  134.9790  162.6646 C   0  0  0  0  0  0  0  0  0  0  0  0
  154.8342  135.4668  161.3923 C   0  0  0  0  0  0  0  0  0  0  0  0
  155.2330  134.8001  160.2822 F   0  0  0  0  0  0  0  0  0  0  0  0
  150.6458  139.3395  154.7892 H   0  0  0  0  0  0  0  0  0  0  0  0
  149.2127  141.7348  154.3585 H   0  0  0  0  0  0  0  0  0  0  0  0
  148.7069  140.3961  155.3765 H   0  0  0  0  0  0  0  0  0  0  0  0
  151.8030  145.1440  157.6217 H   0  0  0  0  0  0  0  0  0  0  0  0
  152.8983  144.8822  159.8538 H   0  0  0  0  0  0  0  0  0  0  0  0
  153.0197  142.6774  160.9565 H   0  0  0  0  0  0  0  0  0  0  0  0
  152.0600  140.6469  159.8816 H   0  0  0  0  0  0  0  0  0  0  0  0
  149.9051  139.3609  158.3870 H   0  0  0  0  0  0  0  0  0  0  0  0
  150.2998  138.8906  156.7582 H   0  0  0  0  0  0  0  0  0  0  0  0
  152.2636  139.3567  159.0718 H   0  0  0  0  0  0  0  0  0  0  0  0
  153.0320  138.4146  156.5611 H   0  0  0  0  0  0  0  0  0  0  0  0
  150.8871  137.0156  158.1957 H   0  0  0  0  0  0  0  0  0  0  0  0
  152.5395  136.8139  157.6316 H   0  0  0  0  0  0  0  0  0  0  0  0
  154.2256  136.6267  159.1348 H   0  0  0  0  0  0  0  0  0  0  0  0
  153.9838  138.2162  159.8383 H   0  0  0  0  0  0  0  0  0  0  0  0
  153.0681  138.2320  162.3634 H   0  0  0  0  0  0  0  0  0  0  0  0
  153.7010  137.3676  164.6011 H   0  0  0  0  0  0  0  0  0  0  0  0
  155.0596  135.2913  164.7991 H   0  0  0  0  0  0  0  0  0  0  0  0
  155.7804  134.0776  162.7510 H   0  0  0  0  0  0  0  0  0  0  0  0
  150.4403  143.5652  155.6258 H   0  0  0  0  0  0  0  0  0  0  0  0
  1  2  1  0  0  0  0
  1 25  1  0  0  0  0
  2  3  1  0  0  0  0
  2 26  1  0  0  0  0
  2 27  1  0  0  0  0
  3 11  1  0  0  0  0
  3  4  2  0  0  0  0
  4  5  1  0  0  0  0
  4 44  1  0  0  0  0
  5 10  2  0  0  0  0
  5  6  1  0  0  0  0
  6  7  2  0  0  0  0
  6 28  1  0  0  0  0
  7  8  1  0  0  0  0
  7 29  1  0  0  0  0
  8  9  2  0  0  0  0
  8 30  1  0  0  0  0
  9 10  1  0  0  0  0
  9 31  1  0  0  0  0
 10 11  1  0  0  0  0
 11 12  1  0  0  0  0
 12 13  1  0  0  0  0
 12 32  1  0  0  0  0
 12 33  1  0  0  0  0
 13 14  1  0  0  0  0
 13 15  1  0  0  0  0
 13 34  1  0  0  0  0
 14 35  1  0  0  0  0
 15 16  1  0  0  0  0
 15 36  1  0  0  0  0
 15 37  1  0  0  0  0
 16 17  1  0  0  0  0
 17 18  1  0  0  0  0
 17 38  1  0  0  0  0
 17 39  1  0  0  0  0
 18 23  1  0  0  0  0
 18 19  2  0  0  0  0
 19 20  1  0  0  0  0
 19 40  1  0  0  0  0
 20 21  2  0  0  0  0
 20 41  1  0  0  0  0
 21 22  1  0  0  0  0
 21 42  1  0  0  0  0
 22 23  2  0  0  0  0
 22 43  1  0  0  0  0
 23 24  1  0  0  0  0
M  CHG  1   4   1
M  END
> <s_m_source_file>
AV-unprocessed.smi

> <i_m_source_file_index>
1291

> <i_lp_mmshare_version>
43012

> <i_f3d_flags>
0

> <s_epik_input>
W2NIXTFbY0hdW2NIXVtjSF1jKGMxMiluKGMobjIpW0NIMl1bT0hdKVtDSDJdW0NASF0oW09IXSlbQ0gyXU9bQ0gyXWMzW2NIXVtjSF1bY0hdW2NIXWMzRg==

> <s_epik_cmdline>
J2VwaWtfcHl0aG9uJywgJy1waCcsICc3LjAnLCAnLXRuJywgJzgnLCAnLW1hJywgJzIwMCcsICctbWV0YWxfYmluZGluZycsICctaW1hZScsICc8aW5maWxlLm1hZT4nLCAnLW9tYWUnLCAnPG91dGZpbGUubWFlPic=

> <r_epik_Ionization_Penalty>
1.34314

> <r_epik_Ionization_Penalty_Charging>
1.34228

> <r_epik_Ionization_Penalty_Neutral>
0.000856861

> <r_epik_State_Penalty>
1.41963

> <r_epik_Charging_Adjusted_Penalty>
2.76191

> <i_epik_Tot_Q>
1

> <i_epik_Tot_abs_Q>
1

> <r_epik_Metal_State_Penalty>
5.45585

> <b_epik_Metal_Only>
0

> <s_lp_Force_Field>
OPLS_2005

> <r_lp_Energy>
17.9638

> <b_lp_Chiralities_Consistent>
1

> <s_lp_Variant>
AV-unprocessed.smi:1291-3

> <Gold.Version>
5.8.1

> <Gold.Id.Protein>
6NUR|6NUR_protein|mol2

> <Gold.PLP.Fitness>
62.7005

> <Gold.PLP.PLP>
-52.4213

> <Gold.PLP.part.hbond>
-4.5042

> <Gold.PLP.part.metal>
0.0000

> <Gold.PLP.part.buried>
-7.1171

> <Gold.PLP.part.nonpolar>
-42.5143

> <Gold.PLP.part.repulsive>
0.0978

> <Gold.PLP.ligand.clash>
0.0000

> <Gold.PLP.ligand.torsion>
1.1065

> <Gold.PLP.Chemscore.Hbond>
4.0560

> <Gold.PLP.Chemscore.CHOScore>
0.0000

> <Gold.PLP.Chemscore.Metal>
0.0000

> <Gold.Chemscore.Hbonds>
donor molecule, donor type, donor heavy atom, donor atom, acceptor molecule, acceptor atom, score
      L1  H     4    44       P1  8028  1.06
      P1  H  6896  6908       L1    16  1.00
      P1  H  7989  7998       L1     1  1.00
      P1  H  7997  8008       L1    14  1.00

> <Gold.PLP.Chemscore.Internal.Correction>
0.3243

> <Gold.Rescore>
     Score         DG    S(hbond)    S(metal)    S(lipo)     H(rot)  DE(clash)    DE(int)     intcor
     20.17     -22.42       3.53        0.00     119.20       3.44       0.05       2.20       ----

> <Gold.Chemscore.Fitness>
20.1712

> <Gold.Chemscore.DG>
-22.4162

> <Gold.Chemscore.ZeroCoef>
-5.4800

> <Gold.Chemscore.Hbond>
3.5281

> <Gold.Chemscore.Metal>
0.0000

> <Gold.Chemscore.Lipo>
119.2029

> <Gold.Chemscore.Internal_Hbond>
0.0000

> <Gold.Chemscore.DEClash>
0.0456

> <Gold.Chemscore.DEInternal>
2.1993

> <Gold.Chemscore.Rot>
3.4353

> <Gold.Chemscore.Internal.Correction>
   9.000000E+99

> <Gold.Chemscore.Hbonds>
donor molecule, donor type, donor heavy atom, donor atom, acceptor molecule, acceptor atom, score
      L1  H     4    44       P1  8028  0.54
      P1  H  6896  6908       L1    16  0.31
      P1  H  7989  7998       L1     1  0.70
      P1  H  7997  8008       L1    14  0.30

> <Gold.Chemscore.Hbond.Weighted>
-11.7838

> <Gold.Chemscore.Metal.Weighted>
-0.0000

> <Gold.Chemscore.Lipo.Weighted>
-13.9467

> <Gold.Chemscore.Internal_Hbond.Weighted>
0.0000

> <Gold.Chemscore.DEClash.Weighted>
0.0456

> <Gold.Chemscore.DEInternal.Weighted>
2.1993

> <Gold.Chemscore.Rot.Weighted>
8.7944

> <Gold.Chemscore.Internal.Correction.Weighted>
   9.000000E+99

> <Gold.Protein.RotatedTorsions>
[ 6907 6896 6895 6894 ] final -102.39 input  -60.11 | X-H torsion
[ 7974 7965 7964 7962 ] final  -88.48 input  175.53 | X-H torsion
[ 8008 7997 7996 7995 ] final  -60.85 input   59.86 | X-H torsion
[ 10167 10162 10161 10158 ] final  -86.49 input  -65.29 | X-H torsion
[ 10718 10713 10712 10709 ] final  144.38 input   66.30 | X-H torsion
[ 10763 10752 10751 10750 ] final -115.38 input  -60.55 | X-H torsion
[ 11005 11000 10999 10996 ] final -106.22 input  -57.11 | X-H torsion

> <Gold.Protein.ActiveResidues>
 VAL166  LYS551  ARG553  GLY616  TRP617  ASP618  TYR619  PRO620  LYS621  CYS622 
 ASP623  PHE694  ASN695  SER759  ASP760  ASP761  ALA762  ILE779  LEU786  VAL792 
 PHE793  MET794  SER795  GLU796  ALA797  LYS798  CYS799  TRP800  GLU811  SER814 

> <Gold.Protein.RotatedAtoms>
  150.7194  134.0589  159.3824 H   0  0  0  0  0  0  0  0  0  0  0  0  # atno 6907 bound_to 6896
  151.8568  135.0536  160.0474 H   0  0  0  0  0  0  0  0  0  0  0  0  # atno 6908 bound_to 6896
  152.2748  133.5379  159.5497 H   0  0  0  0  0  0  0  0  0  0  0  0  # atno 6909 bound_to 6896
  145.4527  140.9561  143.2013 H   0  0  0  0  0  0  0  0  0  0  0  0  # atno 7974 bound_to 7965
  154.4419  140.1030  156.6339 H   0  0  0  0  0  0  0  0  0  0  0  0  # atno 8008 bound_to 7997
  155.5575  140.3487  155.4464 H   0  0  0  0  0  0  0  0  0  0  0  0  # atno 8009 bound_to 7997
  156.0484  140.1298  157.0067 H   0  0  0  0  0  0  0  0  0  0  0  0  # atno 8010 bound_to 7997
  140.3936  143.2694  151.9233 H   0  0  0  0  0  0  0  0  0  0  0  0  # atno 10167 bound_to 10162
  157.3579  131.0960  151.0942 H   0  0  0  0  0  0  0  0  0  0  0  0  # atno 10718 bound_to 10713
  154.8479  135.4383  154.1655 H   0  0  0  0  0  0  0  0  0  0  0  0  # atno 10763 bound_to 10752
  153.2781  135.6951  153.7419 H   0  0  0  0  0  0  0  0  0  0  0  0  # atno 10764 bound_to 10752
  153.6633  135.3431  155.3108 H   0  0  0  0  0  0  0  0  0  0  0  0  # atno 10765 bound_to 10752
  141.1015  133.8875  157.1829 H   0  0  0  0  0  0  0  0  0  0  0  0  # atno 11005 bound_to 11000
  144.8052  139.6065  143.7054 LP  0  0  0  0  0  0  0  0  0  0  0  0  # atno 17320 bound_to 7965
  146.2495  139.6170  142.9436 LP  0  0  0  0  0  0  0  0  0  0  0  0  # atno 17321 bound_to 7965
  139.4788  144.5703  151.8099 LP  0  0  0  0  0  0  0  0  0  0  0  0  # atno 17342 bound_to 10162
  140.4814  144.1444  150.5933 LP  0  0  0  0  0  0  0  0  0  0  0  0  # atno 17343 bound_to 10162
  157.2092  130.6430  149.5768 LP  0  0  0  0  0  0  0  0  0  0  0  0  # atno 17370 bound_to 10713
  155.9732  130.4665  150.6292 LP  0  0  0  0  0  0  0  0  0  0  0  0  # atno 17371 bound_to 10713
  139.9869  135.0079  156.9883 LP  0  0  0  0  0  0  0  0  0  0  0  0  # atno 17394 bound_to 11000
  140.5009  134.1098  155.7250 LP  0  0  0  0  0  0  0  0  0  0  0  0  # atno 17395 bound_to 11000

$$$$
