AV-unprocessed.smi:276|AV-procd|sdf|2074|dock2
  -GOLD-   2262021333D 1   1.00000     0.00000
 Structure written by MMmdl.
 57 61  0  0  0  0  0  0  0  0  1 V2000
  145.7757  129.8750  151.8695 C   0  0  0  0  0  0  0  0  0  0  0  0
  146.6111  130.8693  152.4351 O   0  0  0  0  0  0  0  0  0  0  0  0
  145.9870  132.1425  152.4855 C   0  0  2  0  0  0  0  0  0  0  0  0
  145.9184  132.8732  151.1383 C   0  0  0  0  0  0  0  0  0  0  0  0
  146.2752  134.1778  151.8786 C   0  0  1  0  0  0  0  0  0  0  0  0
  145.0684  134.9133  152.2846 N   0  0  0  0  0  0  0  0  0  0  0  0
  144.2017  135.3665  151.2013 C   0  0  0  0  0  0  0  0  0  0  0  0
  145.2718  135.9282  153.1527 C   0  0  0  0  0  0  0  0  0  0  0  0
  144.7923  135.7693  154.4112 N   0  0  0  0  0  0  0  0  0  0  0  0
  144.9693  136.7335  155.3193 C   0  0  0  0  0  0  0  0  0  0  0  0
  145.5762  137.9138  155.1769 N   0  0  0  0  0  0  0  0  0  0  0  0
  146.0422  138.0826  153.9062 C   0  0  0  0  0  0  0  0  0  0  0  0
  145.9340  137.1490  152.8379 C   0  0  0  0  0  0  0  0  0  0  0  0
  146.5223  137.6705  151.6917 N   0  0  0  0  0  0  0  0  0  0  0  0
  146.9527  138.8456  152.0611 C   0  0  0  0  0  0  0  0  0  0  0  0
  146.6975  139.1777  153.3722 N   0  0  0  0  0  0  0  0  0  0  0  0
  147.0504  140.4173  154.0400 C   0  0  0  0  0  0  0  0  0  0  0  0
  148.5543  140.5258  154.3747 C   0  0  1  0  0  0  0  0  0  0  0  0
  149.1930  141.0714  153.2378 O   0  0  0  0  0  0  0  0  0  0  0  0
  148.8842  141.4013  155.6057 C   0  0  2  0  0  0  0  0  0  0  0  0
  150.3802  141.4889  155.9261 C   0  0  0  0  0  0  0  0  0  0  0  0
  150.3731  141.7800  157.4084 C   0  0  0  0  0  0  0  0  0  0  0  0
  149.2210  140.9029  157.8795 C   0  0  0  0  0  0  0  0  0  0  0  0
  148.2996  140.8676  156.7949 O   0  0  0  0  0  0  0  0  0  0  0  0
  146.9131  133.2733  152.9687 C   0  0  0  0  0  0  0  0  0  0  0  0
  148.4386  133.0609  152.9779 C   0  0  0  0  0  0  0  0  0  0  0  0
  148.3415  132.8155  154.4862 C   0  0  0  0  0  0  0  0  0  0  0  0
  147.0388  133.6183  154.4648 C   0  0  0  0  0  0  0  0  0  0  0  0
  146.2981  128.9186  151.8654 H   0  0  0  0  0  0  0  0  0  0  0  0
  145.5109  130.1174  150.8397 H   0  0  0  0  0  0  0  0  0  0  0  0
  144.8588  129.7553  152.4478 H   0  0  0  0  0  0  0  0  0  0  0  0
  145.0343  132.1415  153.0196 H   0  0  0  0  0  0  0  0  0  0  0  0
  146.7056  132.5573  150.4515 H   0  0  0  0  0  0  0  0  0  0  0  0
  144.9416  132.8322  150.6571 H   0  0  0  0  0  0  0  0  0  0  0  0
  147.0002  134.7794  151.3299 H   0  0  0  0  0  0  0  0  0  0  0  0
  143.4590  136.0874  151.5479 H   0  0  0  0  0  0  0  0  0  0  0  0
  143.6567  134.5287  150.7680 H   0  0  0  0  0  0  0  0  0  0  0  0
  144.7881  135.8374  150.4112 H   0  0  0  0  0  0  0  0  0  0  0  0
  144.5670  136.5305  156.3007 H   0  0  0  0  0  0  0  0  0  0  0  0
  147.4617  139.5105  151.3788 H   0  0  0  0  0  0  0  0  0  0  0  0
  146.7479  141.2432  153.3946 H   0  0  0  0  0  0  0  0  0  0  0  0
  146.4554  140.4990  154.9508 H   0  0  0  0  0  0  0  0  0  0  0  0
  148.9645  139.5273  154.5288 H   0  0  0  0  0  0  0  0  0  0  0  0
  149.1602  140.4342  152.5409 H   0  0  0  0  0  0  0  0  0  0  0  0
  148.4905  142.4097  155.4674 H   0  0  0  0  0  0  0  0  0  0  0  0
  150.8703  140.5319  155.7407 H   0  0  0  0  0  0  0  0  0  0  0  0
  150.8959  142.2537  155.3446 H   0  0  0  0  0  0  0  0  0  0  0  0
  151.3181  141.5438  157.8985 H   0  0  0  0  0  0  0  0  0  0  0  0
  150.1455  142.8321  157.5848 H   0  0  0  0  0  0  0  0  0  0  0  0
  149.5681  139.8866  158.0700 H   0  0  0  0  0  0  0  0  0  0  0  0
  148.7530  141.2793  158.7893 H   0  0  0  0  0  0  0  0  0  0  0  0
  148.8019  132.2126  152.3973 H   0  0  0  0  0  0  0  0  0  0  0  0
  148.9904  133.9714  152.7377 H   0  0  0  0  0  0  0  0  0  0  0  0
  148.1864  131.7646  154.7359 H   0  0  0  0  0  0  0  0  0  0  0  0
  149.1438  133.2600  155.0753 H   0  0  0  0  0  0  0  0  0  0  0  0
  147.2240  134.6742  154.6630 H   0  0  0  0  0  0  0  0  0  0  0  0
  146.2448  133.2214  155.0978 H   0  0  0  0  0  0  0  0  0  0  0  0
  1  2  1  0  0  0  0
  1 29  1  0  0  0  0
  1 30  1  0  0  0  0
  1 31  1  0  0  0  0
  2  3  1  0  0  0  0
  3 25  1  0  0  0  0
  3  4  1  0  0  0  0
  3 32  1  0  0  0  0
  4  5  1  0  0  0  0
  4 33  1  0  0  0  0
  4 34  1  0  0  0  0
  5  6  1  0  0  0  0
  5 25  1  0  0  0  0
  5 35  1  0  0  0  0
  6  7  1  0  0  0  0
  6  8  1  0  0  0  0
  7 36  1  0  0  0  0
  7 37  1  0  0  0  0
  7 38  1  0  0  0  0
  8 13  1  0  0  0  0
  8  9  2  0  0  0  0
  9 10  1  0  0  0  0
 10 11  2  0  0  0  0
 10 39  1  0  0  0  0
 11 12  1  0  0  0  0
 12 16  1  0  0  0  0
 12 13  2  0  0  0  0
 13 14  1  0  0  0  0
 14 15  2  0  0  0  0
 15 16  1  0  0  0  0
 15 40  1  0  0  0  0
 16 17  1  0  0  0  0
 17 18  1  0  0  0  0
 17 41  1  0  0  0  0
 17 42  1  0  0  0  0
 18 19  1  0  0  0  0
 18 20  1  0  0  0  0
 18 43  1  0  0  0  0
 19 44  1  0  0  0  0
 20 24  1  0  0  0  0
 20 21  1  0  0  0  0
 20 45  1  0  0  0  0
 21 22  1  0  0  0  0
 21 46  1  0  0  0  0
 21 47  1  0  0  0  0
 22 23  1  0  0  0  0
 22 48  1  0  0  0  0
 22 49  1  0  0  0  0
 23 24  1  0  0  0  0
 23 50  1  0  0  0  0
 23 51  1  0  0  0  0
 25 28  1  0  0  0  0
 25 26  1  0  0  0  0
 26 27  1  0  0  0  0
 26 52  1  0  0  0  0
 26 53  1  0  0  0  0
 27 28  1  0  0  0  0
 27 54  1  0  0  0  0
 27 55  1  0  0  0  0
 28 56  1  0  0  0  0
 28 57  1  0  0  0  0
M  END
> <s_m_source_file>
AV-unprocessed.smi

> <i_m_source_file_index>
276

> <i_lp_mmshare_version>
43012

> <i_f3d_flags>
0

> <s_epik_input>
W0NIMl0xW0NIMl1bQ0gyXUMxMltDQEhdKE9bQ0gzXSlbQ0gyXVtDQEhdMk4oW0NIM10pYyhuW2NIXW4zKWMoYzM0KW5bY0hdbjRbQ0gyXVtDQEhdKFtPSF0pW0NAQEhdNVtDSDJdW0NIMl1bQ0gyXU81

> <s_epik_cmdline>
J2VwaWtfcHl0aG9uJywgJy1waCcsICc3LjAnLCAnLXRuJywgJzgnLCAnLW1hJywgJzIwMCcsICctbWV0YWxfYmluZGluZycsICctaW1hZScsICc8aW5maWxlLm1hZT4nLCAnLW9tYWUnLCAnPG91dGZpbGUubWFlPic=

> <r_lp_tautomer_probability>
1

> <r_epik_Ionization_Penalty>
0.00204117

> <r_epik_Ionization_Penalty_Charging>
0

> <r_epik_Ionization_Penalty_Neutral>
0.00204117

> <r_epik_State_Penalty>
0.00127401

> <r_epik_Charging_Adjusted_Penalty>
0.00127401

> <i_epik_Tot_Q>
0

> <i_epik_Tot_abs_Q>
0

> <r_epik_Metal_State_Penalty>
-0

> <b_epik_Metal_Only>
0

> <s_lp_Force_Field>
OPLS_2005

> <r_lp_Energy>
56.3497

> <b_lp_Chiralities_Consistent>
1

> <s_lp_Variant>
AV-unprocessed.smi:276-5

> <Gold.Version>
5.8.1

> <Gold.Id.Protein>
6NUR|6NUR_protein|mol2

> <Gold.PLP.Fitness>
46.9249

> <Gold.PLP.PLP>
-39.5939

> <Gold.PLP.part.hbond>
-2.2817

> <Gold.PLP.part.metal>
0.0000

> <Gold.PLP.part.buried>
-7.1715

> <Gold.PLP.part.nonpolar>
-34.3990

> <Gold.PLP.part.repulsive>
2.3442

> <Gold.PLP.ligand.clash>
0.0000

> <Gold.PLP.ligand.torsion>
0.8474

> <Gold.PLP.Chemscore.Hbond>
1.7781

> <Gold.PLP.Chemscore.CHOScore>
1.0000

> <Gold.PLP.Chemscore.Metal>
0.0000

> <Gold.Chemscore.Hbonds>
donor molecule, donor type, donor heavy atom, donor atom, acceptor molecule, acceptor atom, score
      L1  H    19    44       P1  7957  0.87
      P1  H  8011  8017       L1    19  0.90
      L1  C    15    40       P1  7957  1.00

> <Gold.PLP.Chemscore.Internal.Correction>
0.6914

> <Gold.Rescore>
     Score         DG    S(hbond)    S(metal)    S(lipo)     H(rot)  DE(clash)    DE(int)     intcor
     11.17     -12.37       1.16        0.00      85.10       2.72       0.32       0.88       ----

> <Gold.Chemscore.Fitness>
11.1669

> <Gold.Chemscore.DG>
-12.3678

> <Gold.Chemscore.ZeroCoef>
-5.4800

> <Gold.Chemscore.Hbond>
1.1639

> <Gold.Chemscore.Metal>
0.0000

> <Gold.Chemscore.Lipo>
85.0967

> <Gold.Chemscore.Internal_Hbond>
0.0000

> <Gold.Chemscore.DEClash>
0.3207

> <Gold.Chemscore.DEInternal>
0.8802

> <Gold.Chemscore.Rot>
2.7172

> <Gold.Chemscore.Internal.Correction>
   9.000000E+99

> <Gold.Chemscore.Hbonds>
donor molecule, donor type, donor heavy atom, donor atom, acceptor molecule, acceptor atom, score
      L1  H    19    44       P1  7957  0.81
      P1  H  8011  8017       L1    19  0.18

> <Gold.Chemscore.Hbond.Weighted>
-3.8875

> <Gold.Chemscore.Metal.Weighted>
-0.0000

> <Gold.Chemscore.Lipo.Weighted>
-9.9563

> <Gold.Chemscore.Internal_Hbond.Weighted>
0.0000

> <Gold.Chemscore.DEClash.Weighted>
0.3207

> <Gold.Chemscore.DEInternal.Weighted>
0.8802

> <Gold.Chemscore.Rot.Weighted>
6.9560

> <Gold.Chemscore.Internal.Correction.Weighted>
   9.000000E+99

> <Gold.Protein.RotatedTorsions>
[ 6907 6896 6895 6894 ] final -109.96 input  -60.11 | X-H torsion
[ 7974 7965 7964 7962 ] final   -0.44 input  175.53 | X-H torsion
[ 8008 7997 7996 7995 ] final  108.65 input   59.86 | X-H torsion
[ 10167 10162 10161 10158 ] final -134.25 input  -65.29 | X-H torsion
[ 10718 10713 10712 10709 ] final -133.87 input   66.30 | X-H torsion
[ 10763 10752 10751 10750 ] final  114.95 input  -60.55 | X-H torsion
[ 11005 11000 10999 10996 ] final  120.03 input  -57.11 | X-H torsion

> <Gold.Protein.ActiveResidues>
 VAL166  LYS551  ARG553  GLY616  TRP617  ASP618  TYR619  PRO620  LYS621  CYS622 
 ASP623  PHE694  ASN695  SER759  ASP760  ASP761  ALA762  ILE779  LEU786  VAL792 
 PHE793  MET794  SER795  GLU796  ALA797  LYS798  CYS799  TRP800  GLU811  SER814 

> <Gold.Protein.RotatedAtoms>
  150.7595  133.9452  159.3468 H   0  0  0  0  0  0  0  0  0  0  0  0  # atno 6907 bound_to 6896
  151.7363  135.0862  160.0318 H   0  0  0  0  0  0  0  0  0  0  0  0  # atno 6908 bound_to 6896
  152.3557  133.6197  159.6013 H   0  0  0  0  0  0  0  0  0  0  0  0  # atno 6909 bound_to 6896
  146.2427  140.1270  142.8339 H   0  0  0  0  0  0  0  0  0  0  0  0  # atno 7974 bound_to 7965
  156.1920  140.3072  155.9350 H   0  0  0  0  0  0  0  0  0  0  0  0  # atno 8008 bound_to 7997
  155.3153  140.0453  157.3054 H   0  0  0  0  0  0  0  0  0  0  0  0  # atno 8009 bound_to 7997
  154.5463  140.2277  155.8567 H   0  0  0  0  0  0  0  0  0  0  0  0  # atno 8010 bound_to 7997
  139.8900  143.6734  152.2614 H   0  0  0  0  0  0  0  0  0  0  0  0  # atno 10167 bound_to 10162
  156.2495  130.7144  151.1038 H   0  0  0  0  0  0  0  0  0  0  0  0  # atno 10718 bound_to 10713
  153.5150  135.3610  155.2605 H   0  0  0  0  0  0  0  0  0  0  0  0  # atno 10763 bound_to 10752
  154.8739  135.4032  154.3325 H   0  0  0  0  0  0  0  0  0  0  0  0  # atno 10764 bound_to 10752
  153.3985  135.7074  153.6510 H   0  0  0  0  0  0  0  0  0  0  0  0  # atno 10765 bound_to 10752
  139.9169  134.9632  156.7744 H   0  0  0  0  0  0  0  0  0  0  0  0  # atno 11005 bound_to 11000
  145.0358  140.8907  143.5082 LP  0  0  0  0  0  0  0  0  0  0  0  0  # atno 17320 bound_to 7965
  145.1342  139.2613  143.5524 LP  0  0  0  0  0  0  0  0  0  0  0  0  # atno 17321 bound_to 7965
  139.7118  144.7619  151.1099 LP  0  0  0  0  0  0  0  0  0  0  0  0  # atno 17342 bound_to 10162
  140.7728  143.5320  150.9412 LP  0  0  0  0  0  0  0  0  0  0  0  0  # atno 17343 bound_to 10162
  157.7209  131.0682  150.6141 LP  0  0  0  0  0  0  0  0  0  0  0  0  # atno 17370 bound_to 10713
  156.6219  130.4408  149.5819 LP  0  0  0  0  0  0  0  0  0  0  0  0  # atno 17371 bound_to 10713
  140.6594  133.9658  155.7797 LP  0  0  0  0  0  0  0  0  0  0  0  0  # atno 17394 bound_to 11000
  141.0653  134.0285  157.3602 LP  0  0  0  0  0  0  0  0  0  0  0  0  # atno 17395 bound_to 11000

$$$$
