AV-unprocessed.smi:239|AV-procd|sdf|1822|dock4
  -GOLD-   2262020413D 1   1.00000     0.00000
 Structure written by MMmdl.
 54 58  0  0  0  0  0  0  0  0  1 V2000
  154.3742  140.3270  161.6348 C   0  0  0  0  0  0  0  0  0  0  0  0
  153.2443  140.9410  160.8019 C   0  0  2  0  0  0  0  0  0  0  0  0
  153.2240  140.3936  159.3622 C   0  0  0  0  0  0  0  0  0  0  0  0
  152.2118  141.0882  158.5698 N   0  0  0  0  0  0  0  0  0  0  0  0
  151.8904  140.5778  157.3532 C   0  0  0  0  0  0  0  0  0  0  0  0
  152.6096  139.5435  156.8395 N   0  0  0  0  0  0  0  0  0  0  0  0
  152.3095  139.0405  155.6385 C   0  0  0  0  0  0  0  0  0  0  0  0
  151.3432  139.4111  154.7968 N   0  0  0  0  0  0  0  0  0  0  0  0
  150.6094  140.4398  155.3094 C   0  0  0  0  0  0  0  0  0  0  0  0
  150.8136  141.0777  156.5660 C   0  0  0  0  0  0  0  0  0  0  0  0
  149.8650  142.0782  156.7449 N   0  0  0  0  0  0  0  0  0  0  0  0
  149.1520  142.0429  155.6526 C   0  0  0  0  0  0  0  0  0  0  0  0
  149.5208  141.0790  154.7417 N   0  0  0  0  0  0  0  0  0  0  0  0
  148.9031  140.8162  153.4512 C   0  0  0  0  0  0  0  0  0  0  0  0
  147.9742  139.5755  153.4233 C   0  0  0  0  0  0  0  0  0  0  0  0
  148.8085  138.4777  153.7476 O   0  0  0  0  0  0  0  0  0  0  0  0
  146.8355  139.6473  154.4638 C   0  0  0  0  0  0  0  0  0  0  0  0
  145.8793  138.4461  154.3508 C   0  0  0  0  0  0  0  0  0  0  0  0
  145.3610  138.3591  153.0284 O   0  0  0  0  0  0  0  0  0  0  0  0
  146.3708  138.1370  152.0509 C   0  0  0  0  0  0  0  0  0  0  0  0
  147.3559  139.3199  152.0317 C   0  0  0  0  0  0  0  0  0  0  0  0
  152.3531  142.5399  158.6119 C   0  0  0  0  0  0  0  0  0  0  0  0
  152.3851  143.0250  160.0719 C   0  0  2  0  0  0  0  0  0  0  0  0
  152.6329  144.5166  160.1649 C   0  0  0  0  0  0  0  0  0  0  0  0
  151.6242  145.5022  159.6226 C   0  0  0  0  0  0  0  0  0  0  0  0
  152.9525  145.3234  158.9279 C   0  0  0  0  0  0  0  0  0  0  0  0
  153.4347  142.3526  160.7619 O   0  0  0  0  0  0  0  0  0  0  0  0
  154.2619  139.2453  161.7117 H   0  0  0  0  0  0  0  0  0  0  0  0
  154.3777  140.7341  162.6462 H   0  0  0  0  0  0  0  0  0  0  0  0
  155.3484  140.5321  161.1898 H   0  0  0  0  0  0  0  0  0  0  0  0
  152.2935  140.7233  161.2915 H   0  0  0  0  0  0  0  0  0  0  0  0
  154.2016  140.5280  158.8968 H   0  0  0  0  0  0  0  0  0  0  0  0
  153.0149  139.3230  159.3805 H   0  0  0  0  0  0  0  0  0  0  0  0
  152.9341  138.2254  155.3045 H   0  0  0  0  0  0  0  0  0  0  0  0
  148.3257  142.7182  155.4839 H   0  0  0  0  0  0  0  0  0  0  0  0
  148.3465  141.7076  153.1578 H   0  0  0  0  0  0  0  0  0  0  0  0
  149.7002  140.7031  152.7145 H   0  0  0  0  0  0  0  0  0  0  0  0
  148.7161  137.8207  153.0745 H   0  0  0  0  0  0  0  0  0  0  0  0
  147.2416  139.7133  155.4739 H   0  0  0  0  0  0  0  0  0  0  0  0
  146.2490  140.5529  154.3095 H   0  0  0  0  0  0  0  0  0  0  0  0
  146.3804  137.5151  154.6194 H   0  0  0  0  0  0  0  0  0  0  0  0
  145.0474  138.5661  155.0450 H   0  0  0  0  0  0  0  0  0  0  0  0
  146.8861  137.1963  152.2506 H   0  0  0  0  0  0  0  0  0  0  0  0
  145.8957  138.0332  151.0753 H   0  0  0  0  0  0  0  0  0  0  0  0
  146.8081  140.2021  151.7013 H   0  0  0  0  0  0  0  0  0  0  0  0
  148.1373  139.1476  151.2905 H   0  0  0  0  0  0  0  0  0  0  0  0
  153.2771  142.8184  158.1031 H   0  0  0  0  0  0  0  0  0  0  0  0
  151.5412  143.0375  158.0836 H   0  0  0  0  0  0  0  0  0  0  0  0
  151.4324  142.8003  160.5554 H   0  0  0  0  0  0  0  0  0  0  0  0
  153.1525  144.8184  161.0726 H   0  0  0  0  0  0  0  0  0  0  0  0
  150.7407  145.1040  159.1272 H   0  0  0  0  0  0  0  0  0  0  0  0
  151.4687  146.4204  160.1852 H   0  0  0  0  0  0  0  0  0  0  0  0
  153.6830  146.1239  159.0254 H   0  0  0  0  0  0  0  0  0  0  0  0
  152.9527  144.8051  157.9707 H   0  0  0  0  0  0  0  0  0  0  0  0
  1  2  1  0  0  0  0
  1 28  1  0  0  0  0
  1 29  1  0  0  0  0
  1 30  1  0  0  0  0
  2 27  1  0  0  0  0
  2  3  1  0  0  0  0
  2 31  1  0  0  0  0
  3  4  1  0  0  0  0
  3 32  1  0  0  0  0
  3 33  1  0  0  0  0
  4  5  1  0  0  0  0
  4 22  1  0  0  0  0
  5 10  1  0  0  0  0
  5  6  2  0  0  0  0
  6  7  1  0  0  0  0
  7  8  2  0  0  0  0
  7 34  1  0  0  0  0
  8  9  1  0  0  0  0
  9 13  1  0  0  0  0
  9 10  2  0  0  0  0
 10 11  1  0  0  0  0
 11 12  2  0  0  0  0
 12 13  1  0  0  0  0
 12 35  1  0  0  0  0
 13 14  1  0  0  0  0
 14 15  1  0  0  0  0
 14 36  1  0  0  0  0
 14 37  1  0  0  0  0
 15 21  1  0  0  0  0
 15 16  1  0  0  0  0
 15 17  1  0  0  0  0
 16 38  1  0  0  0  0
 17 18  1  0  0  0  0
 17 39  1  0  0  0  0
 17 40  1  0  0  0  0
 18 19  1  0  0  0  0
 18 41  1  0  0  0  0
 18 42  1  0  0  0  0
 19 20  1  0  0  0  0
 20 21  1  0  0  0  0
 20 43  1  0  0  0  0
 20 44  1  0  0  0  0
 21 45  1  0  0  0  0
 21 46  1  0  0  0  0
 22 23  1  0  0  0  0
 22 47  1  0  0  0  0
 22 48  1  0  0  0  0
 23 24  1  0  0  0  0
 23 27  1  0  0  0  0
 23 49  1  0  0  0  0
 24 26  1  0  0  0  0
 24 25  1  0  0  0  0
 24 50  1  0  0  0  0
 25 26  1  0  0  0  0
 25 51  1  0  0  0  0
 25 52  1  0  0  0  0
 26 53  1  0  0  0  0
 26 54  1  0  0  0  0
M  END
> <s_m_source_file>
AV-unprocessed.smi

> <i_m_source_file_index>
239

> <i_lp_mmshare_version>
43012

> <i_f3d_flags>
0

> <s_epik_input>
W0NIMl0xW0NIMl1bQ0hdMVtDQEBIXShPMilbQ0gyXU4oW0NIMl1bQ0BIXTJbQ0gzXSljKG5bY0hdbjMpYyhjMzQpbltjSF1uNFtDSDJdQzUoW09IXSlbQ0gyXVtDSDJdT1tDSDJdW0NIMl01

> <s_epik_cmdline>
J2VwaWtfcHl0aG9uJywgJy1waCcsICc3LjAnLCAnLXRuJywgJzgnLCAnLW1hJywgJzIwMCcsICctbWV0YWxfYmluZGluZycsICctaW1hZScsICc8aW5maWxlLm1hZT4nLCAnLW9tYWUnLCAnPG91dGZpbGUubWFlPic=

> <r_lp_tautomer_probability>
1

> <r_epik_Ionization_Penalty>
9.13091e-05

> <r_epik_Ionization_Penalty_Charging>
0

> <r_epik_Ionization_Penalty_Neutral>
9.13091e-05

> <r_epik_State_Penalty>
-0

> <r_epik_Charging_Adjusted_Penalty>
0

> <i_epik_Tot_Q>
0

> <i_epik_Tot_abs_Q>
0

> <r_epik_Metal_State_Penalty>
-0

> <b_epik_Metal_Only>
0

> <s_lp_Force_Field>
OPLS_2005

> <r_lp_Energy>
38.8789

> <b_lp_Chiralities_Consistent>
1

> <s_lp_Variant>
AV-unprocessed.smi:239-3

> <Gold.Version>
5.8.1

> <Gold.Id.Protein>
6NUR|6NUR_protein|mol2

> <Gold.PLP.Fitness>
59.9596

> <Gold.PLP.PLP>
-51.8204

> <Gold.PLP.part.hbond>
-3.3924

> <Gold.PLP.part.metal>
0.0000

> <Gold.PLP.part.buried>
-2.6554

> <Gold.PLP.part.nonpolar>
-46.3199

> <Gold.PLP.part.repulsive>
0.4031

> <Gold.PLP.ligand.clash>
0.0000

> <Gold.PLP.ligand.torsion>
1.1344

> <Gold.PLP.Chemscore.Hbond>
2.8500

> <Gold.PLP.Chemscore.CHOScore>
0.1593

> <Gold.PLP.Chemscore.Metal>
0.0000

> <Gold.Chemscore.Hbonds>
donor molecule, donor type, donor heavy atom, donor atom, acceptor molecule, acceptor atom, score
      L1  H    16    38       P1  7948  1.00
      P1  H  7997  8009       L1     6  0.85
      L1  C    12    35       P1  8028  0.67

> <Gold.PLP.Chemscore.Internal.Correction>
1.3801

> <Gold.Rescore>
     Score         DG    S(hbond)    S(metal)    S(lipo)     H(rot)  DE(clash)    DE(int)     intcor
     17.19     -19.47       1.80        0.00     117.09       2.24       0.16       2.12       ----

> <Gold.Chemscore.Fitness>
17.1905

> <Gold.Chemscore.DG>
-19.4723

> <Gold.Chemscore.ZeroCoef>
-5.4800

> <Gold.Chemscore.Hbond>
1.8036

> <Gold.Chemscore.Metal>
0.0000

> <Gold.Chemscore.Lipo>
117.0895

> <Gold.Chemscore.Internal_Hbond>
0.0000

> <Gold.Chemscore.DEClash>
0.1598

> <Gold.Chemscore.DEInternal>
2.1219

> <Gold.Chemscore.Rot>
2.2387

> <Gold.Chemscore.Internal.Correction>
   9.000000E+99

> <Gold.Chemscore.Hbonds>
donor molecule, donor type, donor heavy atom, donor atom, acceptor molecule, acceptor atom, score
      L1  H    16    38       P1  7948  0.97
      P1  H  7997  8009       L1     6  0.11

> <Gold.Chemscore.Hbond.Weighted>
-6.0239

> <Gold.Chemscore.Metal.Weighted>
-0.0000

> <Gold.Chemscore.Lipo.Weighted>
-13.6995

> <Gold.Chemscore.Internal_Hbond.Weighted>
0.0000

> <Gold.Chemscore.DEClash.Weighted>
0.1598

> <Gold.Chemscore.DEInternal.Weighted>
2.1219

> <Gold.Chemscore.Rot.Weighted>
5.7311

> <Gold.Chemscore.Internal.Correction.Weighted>
   9.000000E+99

> <Gold.Protein.RotatedTorsions>
[ 6907 6896 6895 6894 ] final  146.87 input  -60.11 | X-H torsion
[ 7974 7965 7964 7962 ] final  -39.95 input  175.53 | X-H torsion
[ 8008 7997 7996 7995 ] final -167.15 input   59.86 | X-H torsion
[ 10167 10162 10161 10158 ] final -101.35 input  -65.29 | X-H torsion
[ 10718 10713 10712 10709 ] final -103.88 input   66.30 | X-H torsion
[ 10763 10752 10751 10750 ] final  113.18 input  -60.55 | X-H torsion
[ 11005 11000 10999 10996 ] final  -59.78 input  -57.11 | X-H torsion

> <Gold.Protein.ActiveResidues>
 VAL166  LYS551  ARG553  GLY616  TRP617  ASP618  TYR619  PRO620  LYS621  CYS622 
 ASP623  PHE694  ASN695  SER759  ASP760  ASP761  ALA762  ILE779  LEU786  VAL792 
 PHE793  MET794  SER795  GLU796  ALA797  LYS798  CYS799  TRP800  GLU811  SER814 

> <Gold.Protein.RotatedAtoms>
  152.1623  133.4589  159.4866 H   0  0  0  0  0  0  0  0  0  0  0  0  # atno 6907 bound_to 6896
  150.6908  134.2056  159.4348 H   0  0  0  0  0  0  0  0  0  0  0  0  # atno 6908 bound_to 6896
  151.9959  134.9954  160.0614 H   0  0  0  0  0  0  0  0  0  0  0  0  # atno 6909 bound_to 6896
  146.0349  140.6684  142.9115 H   0  0  0  0  0  0  0  0  0  0  0  0  # atno 7974 bound_to 7965
  155.8737  140.0997  157.1532 H   0  0  0  0  0  0  0  0  0  0  0  0  # atno 8008 bound_to 7997
  154.3999  140.1342  156.4173 H   0  0  0  0  0  0  0  0  0  0  0  0  # atno 8009 bound_to 7997
  155.7721  140.3460  155.5255 H   0  0  0  0  0  0  0  0  0  0  0  0  # atno 8010 bound_to 7997
  140.2422  143.3530  152.0791 H   0  0  0  0  0  0  0  0  0  0  0  0  # atno 10167 bound_to 10162
  156.0282  130.5488  150.7317 H   0  0  0  0  0  0  0  0  0  0  0  0  # atno 10718 bound_to 10713
  153.4888  135.3663  155.2481 H   0  0  0  0  0  0  0  0  0  0  0  0  # atno 10763 bound_to 10752
  154.8753  135.3972  154.3614 H   0  0  0  0  0  0  0  0  0  0  0  0  # atno 10764 bound_to 10752
  153.4230  135.7080  153.6347 H   0  0  0  0  0  0  0  0  0  0  0  0  # atno 10765 bound_to 10752
  141.1261  133.6618  156.5123 H   0  0  0  0  0  0  0  0  0  0  0  0  # atno 11005 bound_to 11000
  144.7047  140.3803  143.7127 LP  0  0  0  0  0  0  0  0  0  0  0  0  # atno 17320 bound_to 7965
  145.6980  139.1654  143.2609 LP  0  0  0  0  0  0  0  0  0  0  0  0  # atno 17321 bound_to 7965
  139.5073  144.6830  151.5960 LP  0  0  0  0  0  0  0  0  0  0  0  0  # atno 17342 bound_to 10162
  140.6104  143.9446  150.6449 LP  0  0  0  0  0  0  0  0  0  0  0  0  # atno 17343 bound_to 10162
  157.4908  131.0910  151.0429 LP  0  0  0  0  0  0  0  0  0  0  0  0  # atno 17370 bound_to 10713
  157.0837  130.5913  149.5425 LP  0  0  0  0  0  0  0  0  0  0  0  0  # atno 17371 bound_to 10713
  140.4359  134.7060  157.4966 LP  0  0  0  0  0  0  0  0  0  0  0  0  # atno 17394 bound_to 11000
  140.0262  134.6473  155.9169 LP  0  0  0  0  0  0  0  0  0  0  0  0  # atno 17395 bound_to 11000

$$$$
