AV-unprocessed.smi:2238|AV-procd|sdf|9054|dock5
  -GOLD-   2272012263D 1   1.00000     0.00000
 Structure written by MMmdl.
 38 39  0  0  0  0  0  0  0  0  1 V2000
  151.8766  145.3178  158.8989 C   0  0  0  0  0  0  0  0  0  0  0  0
  151.9506  143.8062  158.8322 C   0  0  0  0  0  0  0  0  0  0  0  0
  152.6804  143.0870  159.7990 C   0  0  0  0  0  0  0  0  0  0  0  0
  152.7440  141.6837  159.7294 C   0  0  0  0  0  0  0  0  0  0  0  0
  152.0809  140.9950  158.6952 C   0  0  0  0  0  0  0  0  0  0  0  0
  152.1772  139.2714  158.6318 Cl  0  0  0  0  0  0  0  0  0  0  0  0
  151.3468  141.7014  157.7169 C   0  0  0  0  0  0  0  0  0  0  0  0
  150.7265  140.9596  156.7338 O   0  0  0  0  0  0  0  0  0  0  0  0
  149.9900  141.6431  155.7270 C   0  0  0  0  0  0  0  0  0  0  0  0
  149.3130  140.6238  154.7943 C   0  0  2  0  0  0  0  0  0  0  0  0
  150.3372  139.9014  154.1407 O   0  0  0  0  0  0  0  0  0  0  0  0
  148.3668  141.2800  153.7627 C   0  0  0  0  0  0  0  0  0  0  0  0
  147.0494  141.5931  154.3403 N   0  0  0  0  0  0  0  0  0  0  0  0
  146.6433  142.9416  154.2905 C   0  0  0  0  0  0  0  0  0  0  0  0
  145.5034  143.3294  154.7681 N   0  0  0  0  0  0  0  0  0  0  0  0
  144.6459  142.3933  155.3541 C   0  0  0  0  0  0  0  0  0  0  0  0
  143.3265  142.9061  155.8935 C   0  0  0  0  0  0  0  0  0  0  0  0
  144.9936  141.0882  155.4371 C   0  0  0  0  0  0  0  0  0  0  0  0
  146.2761  140.6226  154.9084 C   0  0  0  0  0  0  0  0  0  0  0  0
  146.6314  139.4459  154.9737 O   0  0  0  0  0  0  0  0  0  0  0  0
  151.2881  143.1163  157.7964 C   0  0  0  0  0  0  0  0  0  0  0  0
  152.2317  145.6906  159.8601 H   0  0  0  0  0  0  0  0  0  0  0  0
  150.8484  145.6550  158.7646 H   0  0  0  0  0  0  0  0  0  0  0  0
  152.4891  145.7602  158.1131 H   0  0  0  0  0  0  0  0  0  0  0  0
  153.1932  143.6067  160.5952 H   0  0  0  0  0  0  0  0  0  0  0  0
  153.3041  141.1344  160.4721 H   0  0  0  0  0  0  0  0  0  0  0  0
  149.2476  142.3123  156.1656 H   0  0  0  0  0  0  0  0  0  0  0  0
  150.6778  142.2517  155.1377 H   0  0  0  0  0  0  0  0  0  0  0  0
  148.7608  139.9173  155.4157 H   0  0  0  0  0  0  0  0  0  0  0  0
  149.9534  139.1451  153.7232 H   0  0  0  0  0  0  0  0  0  0  0  0
  148.8217  142.2014  153.3933 H   0  0  0  0  0  0  0  0  0  0  0  0
  148.2733  140.6557  152.8719 H   0  0  0  0  0  0  0  0  0  0  0  0
  147.3541  143.6286  153.8282 H   0  0  0  0  0  0  0  0  0  0  0  0
  142.5873  142.1063  155.9485 H   0  0  0  0  0  0  0  0  0  0  0  0
  142.9262  143.6912  155.2514 H   0  0  0  0  0  0  0  0  0  0  0  0
  143.4629  143.3170  156.8940 H   0  0  0  0  0  0  0  0  0  0  0  0
  144.3230  140.3769  155.8966 H   0  0  0  0  0  0  0  0  0  0  0  0
  150.7387  143.6964  157.0707 H   0  0  0  0  0  0  0  0  0  0  0  0
  1  2  1  0  0  0  0
  1 22  1  0  0  0  0
  1 23  1  0  0  0  0
  1 24  1  0  0  0  0
  2 21  1  0  0  0  0
  2  3  2  0  0  0  0
  3  4  1  0  0  0  0
  3 25  1  0  0  0  0
  4  5  2  0  0  0  0
  4 26  1  0  0  0  0
  5  6  1  0  0  0  0
  5  7  1  0  0  0  0
  7  8  1  0  0  0  0
  7 21  2  0  0  0  0
  8  9  1  0  0  0  0
  9 10  1  0  0  0  0
  9 27  1  0  0  0  0
  9 28  1  0  0  0  0
 10 11  1  0  0  0  0
 10 12  1  0  0  0  0
 10 29  1  0  0  0  0
 11 30  1  0  0  0  0
 12 13  1  0  0  0  0
 12 31  1  0  0  0  0
 12 32  1  0  0  0  0
 13 19  1  0  0  0  0
 13 14  1  0  0  0  0
 14 15  2  0  0  0  0
 14 33  1  0  0  0  0
 15 16  1  0  0  0  0
 16 17  1  0  0  0  0
 16 18  2  0  0  0  0
 17 34  1  0  0  0  0
 17 35  1  0  0  0  0
 17 36  1  0  0  0  0
 18 19  1  0  0  0  0
 18 37  1  0  0  0  0
 19 20  2  0  0  0  0
 21 38  1  0  0  0  0
M  END
> <s_m_source_file>
AV-unprocessed.smi

> <i_m_source_file_index>
2238

> <i_lp_mmshare_version>
43012

> <i_f3d_flags>
0

> <s_epik_input>
W0NIM11jMVtjSF1bY0hdYyhDbCljKFtjSF0xKU9bQ0gyXVtDQEhdKFtPSF0pW0NIMl1uMltjSF1uYyhbQ0gzXSlbY0hdYzI9Tw==

> <s_epik_cmdline>
J2VwaWtfcHl0aG9uJywgJy1waCcsICc3LjAnLCAnLXRuJywgJzgnLCAnLW1hJywgJzIwMCcsICctbWV0YWxfYmluZGluZycsICctaW1hZScsICc8aW5maWxlLm1hZT4nLCAnLW9tYWUnLCAnPG91dGZpbGUubWFlPic=

> <r_lp_tautomer_probability>
1

> <r_epik_Ionization_Penalty>
1.78029e-05

> <r_epik_Ionization_Penalty_Charging>
3.78421e-08

> <r_epik_Ionization_Penalty_Neutral>
1.7765e-05

> <r_epik_State_Penalty>
-0

> <r_epik_Charging_Adjusted_Penalty>
3.78421e-08

> <i_epik_Tot_Q>
0

> <i_epik_Tot_abs_Q>
0

> <r_epik_Metal_State_Penalty>
-0

> <b_epik_Metal_Only>
0

> <s_lp_Force_Field>
OPLS_2005

> <r_lp_Energy>
23.6885

> <b_lp_Chiralities_Consistent>
1

> <s_lp_Variant>
AV-unprocessed.smi:2238-1

> <Gold.Version>
5.8.1

> <Gold.Id.Protein>
6NUR|6NUR_protein|mol2

> <Gold.PLP.Fitness>
47.7792

> <Gold.PLP.PLP>
-43.4956

> <Gold.PLP.part.hbond>
-2.0000

> <Gold.PLP.part.metal>
0.0000

> <Gold.PLP.part.buried>
-4.2831

> <Gold.PLP.part.nonpolar>
-37.4983

> <Gold.PLP.part.repulsive>
0.2840

> <Gold.PLP.ligand.clash>
0.0000

> <Gold.PLP.ligand.torsion>
0.2340

> <Gold.PLP.Chemscore.Hbond>
1.0000

> <Gold.PLP.Chemscore.CHOScore>
0.5627

> <Gold.PLP.Chemscore.Metal>
0.0000

> <Gold.Chemscore.Hbonds>
donor molecule, donor type, donor heavy atom, donor atom, acceptor molecule, acceptor atom, score
      P1  H  7989  7998       L1    11  1.00
      L1  C    14    33       P1  8028  0.54

> <Gold.PLP.Chemscore.Internal.Correction>
0.0635

> <Gold.Rescore>
     Score         DG    S(hbond)    S(metal)    S(lipo)     H(rot)  DE(clash)    DE(int)     intcor
     14.57     -15.09       0.91        0.00     110.31       2.47       0.24       0.28       ----

> <Gold.Chemscore.Fitness>
14.5744

> <Gold.Chemscore.DG>
-15.0882

> <Gold.Chemscore.ZeroCoef>
-5.4800

> <Gold.Chemscore.Hbond>
0.9071

> <Gold.Chemscore.Metal>
0.0000

> <Gold.Chemscore.Lipo>
110.3103

> <Gold.Chemscore.Internal_Hbond>
0.0000

> <Gold.Chemscore.DEClash>
0.2375

> <Gold.Chemscore.DEInternal>
0.2763

> <Gold.Chemscore.Rot>
2.4718

> <Gold.Chemscore.Internal.Correction>
   9.000000E+99

> <Gold.Chemscore.Hbonds>
donor molecule, donor type, donor heavy atom, donor atom, acceptor molecule, acceptor atom, score
      P1  H  7989  7998       L1    11  0.89

> <Gold.Chemscore.Hbond.Weighted>
-3.0298

> <Gold.Chemscore.Metal.Weighted>
-0.0000

> <Gold.Chemscore.Lipo.Weighted>
-12.9063

> <Gold.Chemscore.Internal_Hbond.Weighted>
0.0000

> <Gold.Chemscore.DEClash.Weighted>
0.2375

> <Gold.Chemscore.DEInternal.Weighted>
0.2763

> <Gold.Chemscore.Rot.Weighted>
6.3279

> <Gold.Chemscore.Internal.Correction.Weighted>
   9.000000E+99

> <Gold.Protein.RotatedTorsions>
[ 6907 6896 6895 6894 ] final  -54.85 input  -60.11 | X-H torsion
[ 7974 7965 7964 7962 ] final  107.35 input  175.53 | X-H torsion
[ 8008 7997 7996 7995 ] final  100.59 input   59.86 | X-H torsion
[ 10167 10162 10161 10158 ] final  115.44 input  -65.29 | X-H torsion
[ 10718 10713 10712 10709 ] final   90.23 input   66.30 | X-H torsion
[ 10763 10752 10751 10750 ] final  160.58 input  -60.55 | X-H torsion
[ 11005 11000 10999 10996 ] final   35.02 input  -57.11 | X-H torsion

> <Gold.Protein.ActiveResidues>
 VAL166  LYS551  ARG553  GLY616  TRP617  ASP618  TYR619  PRO620  LYS621  CYS622 
 ASP623  PHE694  ASN695  SER759  ASP760  ASP761  ALA762  ILE779  LEU786  VAL792 
 PHE793  MET794  SER795  GLU796  ALA797  LYS798  CYS799  TRP800  GLU811  SER814 

> <Gold.Protein.RotatedAtoms>
  150.8302  134.7552  159.6846 H   0  0  0  0  0  0  0  0  0  0  0  0  # atno 6907 bound_to 6896
  152.4408  134.5592  159.9899 H   0  0  0  0  0  0  0  0  0  0  0  0  # atno 6908 bound_to 6896
  151.5755  133.3347  159.3034 H   0  0  0  0  0  0  0  0  0  0  0  0  # atno 6909 bound_to 6896
  145.2948  139.2588  143.3845 H   0  0  0  0  0  0  0  0  0  0  0  0  # atno 7974 bound_to 7965
  156.1218  140.3211  155.8220 H   0  0  0  0  0  0  0  0  0  0  0  0  # atno 8008 bound_to 7997
  155.4490  140.0531  157.3020 H   0  0  0  0  0  0  0  0  0  0  0  0  # atno 8009 bound_to 7997
  154.4833  140.2062  155.9726 H   0  0  0  0  0  0  0  0  0  0  0  0  # atno 8010 bound_to 7997
  139.6317  144.7115  151.2418 H   0  0  0  0  0  0  0  0  0  0  0  0  # atno 10167 bound_to 10162
  157.6958  131.0363  150.3547 H   0  0  0  0  0  0  0  0  0  0  0  0  # atno 10718 bound_to 10713
  154.2497  135.2772  155.2821 H   0  0  0  0  0  0  0  0  0  0  0  0  # atno 10763 bound_to 10752
  154.5476  135.5684  153.6897 H   0  0  0  0  0  0  0  0  0  0  0  0  # atno 10764 bound_to 10752
  152.9983  135.6266  154.2643 H   0  0  0  0  0  0  0  0  0  0  0  0  # atno 10765 bound_to 10752
  140.2469  134.3348  155.7904 H   0  0  0  0  0  0  0  0  0  0  0  0  # atno 11005 bound_to 11000
  146.3172  140.3447  142.8651 LP  0  0  0  0  0  0  0  0  0  0  0  0  # atno 17320 bound_to 7965
  144.9143  140.7794  143.5788 LP  0  0  0  0  0  0  0  0  0  0  0  0  # atno 17321 bound_to 7965
  140.7443  143.6468  150.8284 LP  0  0  0  0  0  0  0  0  0  0  0  0  # atno 17342 bound_to 10162
  140.0094  143.5659  152.2845 LP  0  0  0  0  0  0  0  0  0  0  0  0  # atno 17343 bound_to 10162
  156.3990  130.3912  149.6973 LP  0  0  0  0  0  0  0  0  0  0  0  0  # atno 17370 bound_to 10713
  156.4297  130.7809  151.2828 LP  0  0  0  0  0  0  0  0  0  0  0  0  # atno 17371 bound_to 10713
  141.2205  133.7331  156.8975 LP  0  0  0  0  0  0  0  0  0  0  0  0  # atno 17394 bound_to 11000
  140.1597  134.9174  157.2698 LP  0  0  0  0  0  0  0  0  0  0  0  0  # atno 17395 bound_to 11000

$$$$
