AV-unprocessed.smi:3237|AV-procd|sdf|12364|dock3
  -GOLD-   2272018223D 1   1.00000     0.00000
 Structure written by MMmdl.
 37 39  0  0  0  0  0  0  0  0  2 V2000
  152.5032  131.7154  157.2128 C   0  0  0  0  0  0  0  0  0  0  0  0
  151.4441  132.0587  156.2222 C   0  0  0  0  0  0  0  0  0  0  0  0
  150.8934  133.2441  155.8244 C   0  0  0  0  0  0  0  0  0  0  0  0
  149.9376  132.8397  154.8473 C   0  0  0  0  0  0  0  0  0  0  0  0
  149.0759  133.6923  154.1103 N   0  0  0  0  0  0  0  0  0  0  0  0
  147.9449  133.3743  153.4584 C   0  0  0  0  0  0  0  0  0  0  0  0
  147.4540  132.2478  153.3853 O   0  0  0  0  0  0  0  0  0  0  0  0
  147.3962  134.4528  152.8811 N   0  0  0  0  0  0  0  0  0  0  0  0
  146.1520  134.4440  152.1195 C   0  0  1  0  0  0  0  0  0  0  0  0
  145.6581  135.8320  151.7336 C   0  0  0  0  0  0  0  0  0  0  0  0
  144.6965  135.5337  150.5768 C   0  0  0  0  0  0  0  0  0  0  0  0
  145.1666  134.2768  149.9412 N   0  3  2  0  0  0  0  0  0  0  0  0
  144.0900  133.2854  149.7262 C   0  0  0  0  0  0  0  0  0  0  0  0
  143.8029  132.4319  150.9385 C   0  0  0  0  0  0  0  0  0  0  0  0
  144.5703  131.8545  149.7688 C   0  0  0  0  0  0  0  0  0  0  0  0
  146.2885  133.7617  150.7561 C   0  0  0  0  0  0  0  0  0  0  0  0
  149.9099  131.5313  154.6736 N   0  0  0  0  0  0  0  0  0  0  0  0
  150.8742  131.0220  155.5511 O   0  0  0  0  0  0  0  0  0  0  0  0
  153.1490  132.5725  157.4038 H   0  0  0  0  0  0  0  0  0  0  0  0
  153.1267  130.8984  156.8489 H   0  0  0  0  0  0  0  0  0  0  0  0
  152.0598  131.4077  158.1598 H   0  0  0  0  0  0  0  0  0  0  0  0
  151.1464  134.2292  156.1855 H   0  0  0  0  0  0  0  0  0  0  0  0
  149.3516  134.6631  154.0860 H   0  0  0  0  0  0  0  0  0  0  0  0
  147.8627  135.3420  152.9891 H   0  0  0  0  0  0  0  0  0  0  0  0
  145.3738  133.9431  152.7000 H   0  0  0  0  0  0  0  0  0  0  0  0
  145.1768  136.3576  152.5589 H   0  0  0  0  0  0  0  0  0  0  0  0
  146.4877  136.4458  151.3783 H   0  0  0  0  0  0  0  0  0  0  0  0
  143.6868  135.4023  150.9698 H   0  0  0  0  0  0  0  0  0  0  0  0
  144.6618  136.3485  149.8532 H   0  0  0  0  0  0  0  0  0  0  0  0
  143.2837  133.5812  149.0568 H   0  0  0  0  0  0  0  0  0  0  0  0
  144.3564  132.6339  151.8538 H   0  0  0  0  0  0  0  0  0  0  0  0
  142.7798  132.0894  151.0804 H   0  0  0  0  0  0  0  0  0  0  0  0
  144.0523  131.1324  149.1408 H   0  0  0  0  0  0  0  0  0  0  0  0
  145.6346  131.6718  149.9070 H   0  0  0  0  0  0  0  0  0  0  0  0
  147.2200  134.0611  150.2733 H   0  0  0  0  0  0  0  0  0  0  0  0
  146.2923  132.6730  150.8295 H   0  0  0  0  0  0  0  0  0  0  0  0
  145.5433  134.5094  149.0334 H   0  0  0  0  0  0  0  0  0  0  0  0
  1  2  1  0  0  0  0
  1 19  1  0  0  0  0
  1 20  1  0  0  0  0
  1 21  1  0  0  0  0
  2 18  1  0  0  0  0
  2  3  2  0  0  0  0
  3  4  1  0  0  0  0
  3 22  1  0  0  0  0
  4  5  1  0  0  0  0
  4 17  2  0  0  0  0
  5  6  1  0  0  0  0
  5 23  1  0  0  0  0
  6  7  2  0  0  0  0
  6  8  1  0  0  0  0
  8  9  1  0  0  0  0
  8 24  1  0  0  0  0
  9 16  1  0  0  0  0
  9 10  1  0  0  0  0
  9 25  1  0  0  0  0
 10 11  1  0  0  0  0
 10 26  1  0  0  0  0
 10 27  1  0  0  0  0
 11 12  1  0  0  0  0
 11 28  1  0  0  0  0
 11 29  1  0  0  0  0
 12 13  1  0  0  0  0
 12 16  1  0  0  0  0
 12 37  1  0  0  0  0
 13 15  1  0  0  0  0
 13 14  1  0  0  0  0
 13 30  1  0  0  0  0
 14 15  1  0  0  0  0
 14 31  1  0  0  0  0
 14 32  1  0  0  0  0
 15 33  1  0  0  0  0
 15 34  1  0  0  0  0
 16 35  1  0  0  0  0
 16 36  1  0  0  0  0
 17 18  1  0  0  0  0
M  CHG  1  12   1
M  END
> <s_m_source_file>
AV-unprocessed.smi

> <i_m_source_file_index>
3237

> <i_lp_mmshare_version>
43012

> <i_f3d_flags>
0

> <s_epik_input>
W0NIM11jMVtjSF1jKG5vMSlbTkhdQyg9TylbTkhdW0NAQEhdMltDSDJdW0NIMl1OKFtDSDJdMilbQ0hdM1tDSDJdW0NIMl0z

> <s_epik_cmdline>
J2VwaWtfcHl0aG9uJywgJy1waCcsICc3LjAnLCAnLXRuJywgJzgnLCAnLW1hJywgJzIwMCcsICctbWV0YWxfYmluZGluZycsICctaW1hZScsICc8aW5maWxlLm1hZT4nLCAnLW9tYWUnLCAnPG91dGZpbGUubWFlPic=

> <r_epik_Ionization_Penalty>
0.000720579

> <r_epik_Ionization_Penalty_Charging>
0.000680516

> <r_epik_Ionization_Penalty_Neutral>
4.00628e-05

> <r_epik_State_Penalty>
0.000432256

> <r_epik_Charging_Adjusted_Penalty>
0.00111277

> <i_epik_Tot_Q>
1

> <i_epik_Tot_abs_Q>
1

> <r_epik_Metal_State_Penalty>
0.0255091

> <b_epik_Metal_Only>
0

> <s_lp_Force_Field>
OPLS_2005

> <r_lp_Energy>
35.6683

> <b_lp_Chiralities_Consistent>
1

> <s_lp_Variant>
AV-unprocessed.smi:3237-2

> <Gold.Version>
5.8.1

> <Gold.Id.Protein>
6NUR|6NUR_protein|mol2

> <Gold.PLP.Fitness>
35.4766

> <Gold.PLP.PLP>
-30.8546

> <Gold.PLP.part.hbond>
-2.0000

> <Gold.PLP.part.metal>
0.0000

> <Gold.PLP.part.buried>
-3.9778

> <Gold.PLP.part.nonpolar>
-25.4649

> <Gold.PLP.part.repulsive>
0.1931

> <Gold.PLP.ligand.clash>
0.0000

> <Gold.PLP.ligand.torsion>
0.8055

> <Gold.PLP.Chemscore.Hbond>
1.6560

> <Gold.PLP.Chemscore.CHOScore>
0.0000

> <Gold.PLP.Chemscore.Metal>
0.0000

> <Gold.Chemscore.Hbonds>
donor molecule, donor type, donor heavy atom, donor atom, acceptor molecule, acceptor atom, score
      L1  H     8    24       P1  7948  0.58
      L1  H    12    37       P1  7921  1.00

> <Gold.PLP.Chemscore.Internal.Correction>
1.2649

> <Gold.Rescore>
     Score         DG    S(hbond)    S(metal)    S(lipo)     H(rot)  DE(clash)    DE(int)     intcor
     14.06     -16.31       1.83        0.00      67.95       1.26       0.07       2.18       ----

> <Gold.Chemscore.Fitness>
14.0573

> <Gold.Chemscore.DG>
-16.3129

> <Gold.Chemscore.ZeroCoef>
-5.4800

> <Gold.Chemscore.Hbond>
1.8282

> <Gold.Chemscore.Metal>
0.0000

> <Gold.Chemscore.Lipo>
67.9520

> <Gold.Chemscore.Internal_Hbond>
0.0000

> <Gold.Chemscore.DEClash>
0.0745

> <Gold.Chemscore.DEInternal>
2.1811

> <Gold.Chemscore.Rot>
1.2593

> <Gold.Chemscore.Internal.Correction>
   9.000000E+99

> <Gold.Chemscore.Hbonds>
donor molecule, donor type, donor heavy atom, donor atom, acceptor molecule, acceptor atom, score
      L1  H     8    24       P1  7948  0.58
      L1  H    12    37       P1  7921  0.92

> <Gold.Chemscore.Hbond.Weighted>
-6.1062

> <Gold.Chemscore.Metal.Weighted>
-0.0000

> <Gold.Chemscore.Lipo.Weighted>
-7.9504

> <Gold.Chemscore.Internal_Hbond.Weighted>
0.0000

> <Gold.Chemscore.DEClash.Weighted>
0.0745

> <Gold.Chemscore.DEInternal.Weighted>
2.1811

> <Gold.Chemscore.Rot.Weighted>
3.2237

> <Gold.Chemscore.Internal.Correction.Weighted>
   9.000000E+99

> <Gold.Protein.RotatedTorsions>
[ 6907 6896 6895 6894 ] final   98.44 input  -60.11 | X-H torsion
[ 7974 7965 7964 7962 ] final -107.61 input  175.53 | X-H torsion
[ 8008 7997 7996 7995 ] final -178.76 input   59.86 | X-H torsion
[ 10167 10162 10161 10158 ] final  -92.49 input  -65.29 | X-H torsion
[ 10718 10713 10712 10709 ] final   53.40 input   66.30 | X-H torsion
[ 10763 10752 10751 10750 ] final  178.16 input  -60.55 | X-H torsion
[ 11005 11000 10999 10996 ] final   77.76 input  -57.11 | X-H torsion

> <Gold.Protein.ActiveResidues>
 VAL166  LYS551  ARG553  GLY616  TRP617  ASP618  TYR619  PRO620  LYS621  CYS622 
 ASP623  PHE694  ASN695  SER759  ASP760  ASP761  ALA762  ILE779  LEU786  VAL792 
 PHE793  MET794  SER795  GLU796  ALA797  LYS798  CYS799  TRP800  GLU811  SER814 

> <Gold.Protein.RotatedAtoms>
  152.5409  134.0581  159.8139 H   0  0  0  0  0  0  0  0  0  0  0  0  # atno 6907 bound_to 6896
  151.0713  133.5457  159.2634 H   0  0  0  0  0  0  0  0  0  0  0  0  # atno 6908 bound_to 6896
  151.2319  135.0565  159.9045 H   0  0  0  0  0  0  0  0  0  0  0  0  # atno 6909 bound_to 6896
  145.2031  140.9065  143.3358 H   0  0  0  0  0  0  0  0  0  0  0  0  # atno 7974 bound_to 7965
  156.0226  140.1264  157.0342 H   0  0  0  0  0  0  0  0  0  0  0  0  # atno 8008 bound_to 7997
  154.4317  140.1065  156.6055 H   0  0  0  0  0  0  0  0  0  0  0  0  # atno 8009 bound_to 7997
  155.5923  140.3469  155.4572 H   0  0  0  0  0  0  0  0  0  0  0  0  # atno 8010 bound_to 7997
  140.3343  143.2977  151.9907 H   0  0  0  0  0  0  0  0  0  0  0  0  # atno 10167 bound_to 10162
  157.5164  130.8535  149.8501 H   0  0  0  0  0  0  0  0  0  0  0  0  # atno 10718 bound_to 10713
  154.5040  135.2785  155.1397 H   0  0  0  0  0  0  0  0  0  0  0  0  # atno 10763 bound_to 10752
  154.3019  135.6246  153.5432 H   0  0  0  0  0  0  0  0  0  0  0  0  # atno 10764 bound_to 10752
  152.9907  135.5699  154.5490 H   0  0  0  0  0  0  0  0  0  0  0  0  # atno 10765 bound_to 10752
  139.9241  134.7709  156.1562 H   0  0  0  0  0  0  0  0  0  0  0  0  # atno 11005 bound_to 11000
  144.9928  139.3673  143.6206 LP  0  0  0  0  0  0  0  0  0  0  0  0  # atno 17320 bound_to 7965
  146.3413  139.9118  142.8779 LP  0  0  0  0  0  0  0  0  0  0  0  0  # atno 17321 bound_to 7965
  139.4851  144.6209  151.7256 LP  0  0  0  0  0  0  0  0  0  0  0  0  # atno 17342 bound_to 10162
  140.5368  144.0642  150.6073 LP  0  0  0  0  0  0  0  0  0  0  0  0  # atno 17343 bound_to 10162
  156.0323  130.3761  150.1654 LP  0  0  0  0  0  0  0  0  0  0  0  0  # atno 17370 bound_to 10713
  156.9843  130.9874  151.3430 LP  0  0  0  0  0  0  0  0  0  0  0  0  # atno 17371 bound_to 10713
  141.0785  133.6765  156.2287 LP  0  0  0  0  0  0  0  0  0  0  0  0  # atno 17394 bound_to 11000
  140.6388  134.5188  157.5567 LP  0  0  0  0  0  0  0  0  0  0  0  0  # atno 17395 bound_to 11000

$$$$
