AV-unprocessed.smi:3172|AV-procd|sdf|12114|dock2
  -GOLD-   2272017553D 1   1.00000     0.00000
 Structure written by MMmdl.
 44 45  0  0  0  0  0  0  0  0  3 V2000
  146.1322  138.3161  153.1306 C   0  0  0  0  0  0  0  0  0  0  0  0
  147.3557  139.0697  153.5324 C   0  0  0  0  0  0  0  0  0  0  0  0
  148.6066  138.5143  153.4777 N   0  3  0  0  0  0  0  0  0  0  0  0
  149.5265  139.3898  153.8852 C   0  0  0  0  0  0  0  0  0  0  0  0
  148.8751  140.5119  154.2132 N   0  0  0  0  0  0  0  0  0  0  0  0
  149.5845  141.7038  154.7044 C   0  0  0  0  0  0  0  0  0  0  0  0
  150.1944  141.5252  156.1107 C   0  0  1  0  0  0  0  0  0  0  0  0
  151.1911  140.3559  156.1881 C   0  0  0  0  0  0  0  0  0  0  0  0
  150.8585  142.7828  156.5248 N   0  3  0  0  0  0  0  0  0  0  0  0
  151.0671  142.9611  157.9802 C   0  0  0  0  0  0  0  0  0  0  0  0
  151.4847  144.4154  158.2704 C   0  0  0  0  0  0  0  0  0  0  0  0
  151.7293  144.6446  159.7706 C   0  0  0  0  0  0  0  0  0  0  0  0
  152.7736  143.6612  160.3209 C   0  0  0  0  0  0  0  0  0  0  0  0
  152.3696  142.2071  160.0346 C   0  0  0  0  0  0  0  0  0  0  0  0
  152.1233  141.9800  158.5342 C   0  0  0  0  0  0  0  0  0  0  0  0
  147.5228  140.3525  154.0020 C   0  0  0  0  0  0  0  0  0  0  0  0
  146.5170  141.4268  154.2640 C   0  0  0  0  0  0  0  0  0  0  0  0
  145.4597  138.9612  152.5649 H   0  0  0  0  0  0  0  0  0  0  0  0
  145.6068  137.9555  154.0149 H   0  0  0  0  0  0  0  0  0  0  0  0
  146.3929  137.4603  152.5069 H   0  0  0  0  0  0  0  0  0  0  0  0
  150.5871  139.2193  153.9411 H   0  0  0  0  0  0  0  0  0  0  0  0
  150.3641  141.9556  153.9830 H   0  0  0  0  0  0  0  0  0  0  0  0
  148.8790  142.5353  154.6968 H   0  0  0  0  0  0  0  0  0  0  0  0
  149.3779  141.3123  156.8010 H   0  0  0  0  0  0  0  0  0  0  0  0
  150.7066  139.4023  155.9774 H   0  0  0  0  0  0  0  0  0  0  0  0
  151.6337  140.2768  157.1812 H   0  0  0  0  0  0  0  0  0  0  0  0
  152.0050  140.4818  155.4734 H   0  0  0  0  0  0  0  0  0  0  0  0
  151.7488  142.8587  156.0533 H   0  0  0  0  0  0  0  0  0  0  0  0
  150.1142  142.7804  158.4810 H   0  0  0  0  0  0  0  0  0  0  0  0
  152.3922  144.6583  157.7154 H   0  0  0  0  0  0  0  0  0  0  0  0
  150.7148  145.1031  157.9185 H   0  0  0  0  0  0  0  0  0  0  0  0
  152.0597  145.6698  159.9410 H   0  0  0  0  0  0  0  0  0  0  0  0
  150.7923  144.5272  160.3164 H   0  0  0  0  0  0  0  0  0  0  0  0
  153.7447  143.8664  159.8684 H   0  0  0  0  0  0  0  0  0  0  0  0
  152.8956  143.8095  161.3943 H   0  0  0  0  0  0  0  0  0  0  0  0
  153.1461  141.5296  160.3910 H   0  0  0  0  0  0  0  0  0  0  0  0
  151.4660  141.9621  160.5942 H   0  0  0  0  0  0  0  0  0  0  0  0
  151.8081  140.9478  158.3807 H   0  0  0  0  0  0  0  0  0  0  0  0
  153.0617  142.1009  157.9910 H   0  0  0  0  0  0  0  0  0  0  0  0
  145.5449  141.1438  153.8599 H   0  0  0  0  0  0  0  0  0  0  0  0
  146.8213  142.3620  153.7939 H   0  0  0  0  0  0  0  0  0  0  0  0
  146.4050  141.5893  155.3356 H   0  0  0  0  0  0  0  0  0  0  0  0
  150.2734  143.5459  156.2155 H   0  0  0  0  0  0  0  0  0  0  0  0
  148.8084  137.5718  153.1677 H   0  0  0  0  0  0  0  0  0  0  0  0
  1  2  1  0  0  0  0
  1 18  1  0  0  0  0
  1 19  1  0  0  0  0
  1 20  1  0  0  0  0
  2 16  2  0  0  0  0
  2  3  1  0  0  0  0
  3  4  2  0  0  0  0
  3 44  1  0  0  0  0
  4  5  1  0  0  0  0
  4 21  1  0  0  0  0
  5  6  1  0  0  0  0
  5 16  1  0  0  0  0
  6  7  1  0  0  0  0
  6 22  1  0  0  0  0
  6 23  1  0  0  0  0
  7  8  1  0  0  0  0
  7  9  1  0  0  0  0
  7 24  1  0  0  0  0
  8 25  1  0  0  0  0
  8 26  1  0  0  0  0
  8 27  1  0  0  0  0
  9 10  1  0  0  0  0
  9 28  1  0  0  0  0
  9 43  1  0  0  0  0
 10 15  1  0  0  0  0
 10 11  1  0  0  0  0
 10 29  1  0  0  0  0
 11 12  1  0  0  0  0
 11 30  1  0  0  0  0
 11 31  1  0  0  0  0
 12 13  1  0  0  0  0
 12 32  1  0  0  0  0
 12 33  1  0  0  0  0
 13 14  1  0  0  0  0
 13 34  1  0  0  0  0
 13 35  1  0  0  0  0
 14 15  1  0  0  0  0
 14 36  1  0  0  0  0
 14 37  1  0  0  0  0
 15 38  1  0  0  0  0
 15 39  1  0  0  0  0
 16 17  1  0  0  0  0
 17 40  1  0  0  0  0
 17 41  1  0  0  0  0
 17 42  1  0  0  0  0
M  CHG  1   3   1
M  CHG  1   9   1
M  END
> <s_m_source_file>
AV-unprocessed.smi

> <i_m_source_file_index>
3172

> <i_lp_mmshare_version>
43012

> <i_f3d_flags>
0

> <s_epik_input>
W0NIM11jMW5bY0hdbihjMVtDSDNdKVtDSDJdW0NASF0oW0NIM10pW05IXVtDSF0yW0NIMl1bQ0gyXVtDSDJdW0NIMl1bQ0gyXTI=

> <s_epik_cmdline>
J2VwaWtfcHl0aG9uJywgJy1waCcsICc3LjAnLCAnLXRuJywgJzgnLCAnLW1hJywgJzIwMCcsICctbWV0YWxfYmluZGluZycsICctaW1hZScsICc8aW5maWxlLm1hZT4nLCAnLW9tYWUnLCAnPG91dGZpbGUubWFlPic=

> <r_lp_tautomer_probability>
1

> <r_epik_Ionization_Penalty>
0.509043

> <r_epik_Ionization_Penalty_Charging>
0.00159961

> <r_epik_Ionization_Penalty_Neutral>
0.507444

> <r_epik_State_Penalty>
0.272352

> <r_epik_Charging_Adjusted_Penalty>
0.273952

> <i_epik_Tot_Q>
2

> <i_epik_Tot_abs_Q>
2

> <r_epik_Metal_State_Penalty>
3.76994

> <b_epik_Metal_Only>
0

> <s_lp_Force_Field>
OPLS_2005

> <r_lp_Energy>
25.4391

> <b_lp_Chiralities_Consistent>
1

> <s_lp_Variant>
AV-unprocessed.smi:3172-2

> <Gold.Version>
5.8.1

> <Gold.Id.Protein>
6NUR|6NUR_protein|mol2

> <Gold.PLP.Fitness>
50.6554

> <Gold.PLP.PLP>
-39.1981

> <Gold.PLP.part.hbond>
-3.0000

> <Gold.PLP.part.metal>
0.0000

> <Gold.PLP.part.buried>
0.5163

> <Gold.PLP.part.nonpolar>
-36.5674

> <Gold.PLP.part.repulsive>
0.1234

> <Gold.PLP.ligand.clash>
0.0000

> <Gold.PLP.ligand.torsion>
0.2970

> <Gold.PLP.Chemscore.Hbond>
4.0000

> <Gold.PLP.Chemscore.CHOScore>
0.0000

> <Gold.PLP.Chemscore.Metal>
0.0000

> <Gold.Chemscore.Hbonds>
donor molecule, donor type, donor heavy atom, donor atom, acceptor molecule, acceptor atom, score
      L1  H     3    44       P1  7948  2.00
      L1  H     9    43       P1  8028  2.00

> <Gold.PLP.Chemscore.Internal.Correction>
0.0514

> <Gold.Rescore>
     Score         DG    S(hbond)    S(metal)    S(lipo)     H(rot)  DE(clash)    DE(int)     intcor
     18.66     -20.64       2.00        0.00     106.62       1.56       1.43       0.55       ----

> <Gold.Chemscore.Fitness>
18.6602

> <Gold.Chemscore.DG>
-20.6439

> <Gold.Chemscore.ZeroCoef>
-5.4800

> <Gold.Chemscore.Hbond>
1.9985

> <Gold.Chemscore.Metal>
0.0000

> <Gold.Chemscore.Lipo>
106.6170

> <Gold.Chemscore.Internal_Hbond>
0.0000

> <Gold.Chemscore.DEClash>
1.4321

> <Gold.Chemscore.DEInternal>
0.5517

> <Gold.Chemscore.Rot>
1.5567

> <Gold.Chemscore.Internal.Correction>
   9.000000E+99

> <Gold.Chemscore.Hbonds>
donor molecule, donor type, donor heavy atom, donor atom, acceptor molecule, acceptor atom, score
      L1  H     3    44       P1  7948  0.97
      L1  H     9    43       P1  8028  1.00

> <Gold.Chemscore.Hbond.Weighted>
-6.6749

> <Gold.Chemscore.Metal.Weighted>
-0.0000

> <Gold.Chemscore.Lipo.Weighted>
-12.4742

> <Gold.Chemscore.Internal_Hbond.Weighted>
0.0000

> <Gold.Chemscore.DEClash.Weighted>
1.4321

> <Gold.Chemscore.DEInternal.Weighted>
0.5517

> <Gold.Chemscore.Rot.Weighted>
3.9852

> <Gold.Chemscore.Internal.Correction.Weighted>
   9.000000E+99

> <Gold.Protein.RotatedTorsions>
[ 6907 6896 6895 6894 ] final   23.56 input  -60.11 | X-H torsion
[ 7974 7965 7964 7962 ] final -117.54 input  175.53 | X-H torsion
[ 8008 7997 7996 7995 ] final  -85.44 input   59.86 | X-H torsion
[ 10167 10162 10161 10158 ] final  134.11 input  -65.29 | X-H torsion
[ 10718 10713 10712 10709 ] final  -13.10 input   66.30 | X-H torsion
[ 10763 10752 10751 10750 ] final   74.73 input  -60.55 | X-H torsion
[ 11005 11000 10999 10996 ] final   36.46 input  -57.11 | X-H torsion

> <Gold.Protein.ActiveResidues>
 VAL166  LYS551  ARG553  GLY616  TRP617  ASP618  TYR619  PRO620  LYS621  CYS622 
 ASP623  PHE694  ASN695  SER759  ASP760  ASP761  ALA762  ILE779  LEU786  VAL792 
 PHE793  MET794  SER795  GLU796  ALA797  LYS798  CYS799  TRP800  GLU811  SER814 

> <Gold.Protein.RotatedAtoms>
  151.9443  135.0199  160.0537 H   0  0  0  0  0  0  0  0  0  0  0  0  # atno 6907 bound_to 6896
  152.2009  133.4836  159.5066 H   0  0  0  0  0  0  0  0  0  0  0  0  # atno 6908 bound_to 6896
  150.6954  134.1508  159.4182 H   0  0  0  0  0  0  0  0  0  0  0  0  # atno 6909 bound_to 6896
  145.0841  140.8446  143.4021 H   0  0  0  0  0  0  0  0  0  0  0  0  # atno 7974 bound_to 7965
  154.6408  140.0591  156.9843 H   0  0  0  0  0  0  0  0  0  0  0  0  # atno 8008 bound_to 7997
  155.1520  140.3275  155.4411 H   0  0  0  0  0  0  0  0  0  0  0  0  # atno 8009 bound_to 7997
  156.2530  140.1946  156.6631 H   0  0  0  0  0  0  0  0  0  0  0  0  # atno 8010 bound_to 7997
  139.5269  144.6583  151.5092 H   0  0  0  0  0  0  0  0  0  0  0  0  # atno 10167 bound_to 10162
  156.6350  130.4912  149.6115 H   0  0  0  0  0  0  0  0  0  0  0  0  # atno 10718 bound_to 10713
  153.0606  135.5015  154.8085 H   0  0  0  0  0  0  0  0  0  0  0  0  # atno 10763 bound_to 10752
  154.6877  135.2979  154.9527 H   0  0  0  0  0  0  0  0  0  0  0  0  # atno 10764 bound_to 10752
  154.0292  135.6732  153.4832 H   0  0  0  0  0  0  0  0  0  0  0  0  # atno 10765 bound_to 10752
  140.2324  134.3512  155.7958 H   0  0  0  0  0  0  0  0  0  0  0  0  # atno 11005 bound_to 11000
  145.1143  139.2736  143.5621 LP  0  0  0  0  0  0  0  0  0  0  0  0  # atno 17320 bound_to 7965
  146.3531  140.0748  142.8621 LP  0  0  0  0  0  0  0  0  0  0  0  0  # atno 17321 bound_to 7965
  140.6419  143.8871  150.6700 LP  0  0  0  0  0  0  0  0  0  0  0  0  # atno 17342 bound_to 10162
  140.2208  143.3810  152.1644 LP  0  0  0  0  0  0  0  0  0  0  0  0  # atno 17343 bound_to 10162
  156.2204  130.6733  151.1362 LP  0  0  0  0  0  0  0  0  0  0  0  0  # atno 17370 bound_to 10713
  157.7188  131.0694  150.6219 LP  0  0  0  0  0  0  0  0  0  0  0  0  # atno 17371 bound_to 10713
  141.2217  133.7252  156.8752 LP  0  0  0  0  0  0  0  0  0  0  0  0  # atno 17394 bound_to 11000
  140.1737  134.9082  157.2865 LP  0  0  0  0  0  0  0  0  0  0  0  0  # atno 17395 bound_to 11000

$$$$
