AV-unprocessed.smi:3015|AV-procd|sdf|11470|dock4
  -GOLD-   2272016403D 1   1.00000     0.00000
 Structure written by MMmdl.
 24 24  0  0  0  0  0  0  0  0  2 V2000
  149.7973  138.5189  153.2376 N   0  3  0  0  0  0  0  0  0  0  0  0
  148.8268  139.1762  154.1337 C   0  0  2  0  0  0  0  0  0  0  0  0
  147.4275  139.1780  153.4943 C   0  0  0  0  0  0  0  0  0  0  0  0
  147.5246  138.9330  152.1067 O   0  0  0  0  0  0  0  0  0  0  0  0
  149.2913  140.6048  154.4764 C   0  0  0  0  0  0  0  0  0  0  0  0
  150.3175  140.6455  155.5954 C   0  0  0  0  0  0  0  0  0  0  0  0
  150.0644  141.3640  156.7826 C   0  0  0  0  0  0  0  0  0  0  0  0
  151.0437  141.3701  157.7943 C   0  0  0  0  0  0  0  0  0  0  0  0
  152.2393  140.6571  157.5755 C   0  0  0  0  0  0  0  0  0  0  0  0
  152.4929  139.9667  156.4426 N   0  0  0  0  0  0  0  0  0  0  0  0
  151.5507  139.9691  155.4760 C   0  0  0  0  0  0  0  0  0  0  0  0
  150.6746  138.3935  153.7213 H   0  0  0  0  0  0  0  0  0  0  0  0
  149.9418  139.0982  152.4228 H   0  0  0  0  0  0  0  0  0  0  0  0
  148.7840  138.5978  155.0577 H   0  0  0  0  0  0  0  0  0  0  0  0
  146.8089  138.3931  153.9313 H   0  0  0  0  0  0  0  0  0  0  0  0
  146.9147  140.1253  153.6657 H   0  0  0  0  0  0  0  0  0  0  0  0
  148.3693  139.2320  151.8045 H   0  0  0  0  0  0  0  0  0  0  0  0
  149.7017  141.0908  153.5899 H   0  0  0  0  0  0  0  0  0  0  0  0
  148.4359  141.2087  154.7825 H   0  0  0  0  0  0  0  0  0  0  0  0
  149.1360  141.8994  156.9183 H   0  0  0  0  0  0  0  0  0  0  0  0
  150.8834  141.9092  158.7164 H   0  0  0  0  0  0  0  0  0  0  0  0
  153.0116  140.6404  158.3305 H   0  0  0  0  0  0  0  0  0  0  0  0
  151.7853  139.4066  154.5842 H   0  0  0  0  0  0  0  0  0  0  0  0
  149.4363  137.6195  152.9532 H   0  0  0  0  0  0  0  0  0  0  0  0
  1  2  1  0  0  0  0
  1 12  1  0  0  0  0
  1 13  1  0  0  0  0
  1 24  1  0  0  0  0
  2  3  1  0  0  0  0
  2  5  1  0  0  0  0
  2 14  1  0  0  0  0
  3  4  1  0  0  0  0
  3 15  1  0  0  0  0
  3 16  1  0  0  0  0
  4 17  1  0  0  0  0
  5  6  1  0  0  0  0
  5 18  1  0  0  0  0
  5 19  1  0  0  0  0
  6 11  1  0  0  0  0
  6  7  2  0  0  0  0
  7  8  1  0  0  0  0
  7 20  1  0  0  0  0
  8  9  2  0  0  0  0
  8 21  1  0  0  0  0
  9 10  1  0  0  0  0
  9 22  1  0  0  0  0
 10 11  2  0  0  0  0
 11 23  1  0  0  0  0
M  CHG  1   1   1
M  END
> <s_m_source_file>
AV-unprocessed.smi

> <i_m_source_file_index>
3015

> <i_lp_mmshare_version>
43012

> <i_f3d_flags>
0

> <s_epik_input>
W09IXVtDSDJdW0NAQEhdKFtOSDJdKVtDSDJdYzFbY0hdW2NIXVtjSF1uW2NIXTE=

> <s_epik_cmdline>
J2VwaWtfcHl0aG9uJywgJy1waCcsICc3LjAnLCAnLXRuJywgJzgnLCAnLW1hJywgJzIwMCcsICctbWV0YWxfYmluZGluZycsICctaW1hZScsICc8aW5maWxlLm1hZT4nLCAnLW9tYWUnLCAnPG91dGZpbGUubWFlPic=

> <r_epik_Ionization_Penalty>
0.0193991

> <r_epik_Ionization_Penalty_Charging>
0.0188044

> <r_epik_Ionization_Penalty_Neutral>
0.000594726

> <r_epik_State_Penalty>
0.00921718

> <r_epik_Charging_Adjusted_Penalty>
0.0280216

> <i_epik_Tot_Q>
1

> <i_epik_Tot_abs_Q>
1

> <r_epik_Metal_State_Penalty>
0.00867471

> <b_epik_Metal_Only>
0

> <s_lp_Force_Field>
OPLS_2005

> <r_lp_Energy>
6.76442

> <b_lp_Chiralities_Consistent>
1

> <s_lp_Variant>
AV-unprocessed.smi:3015-1

> <Gold.Version>
5.8.1

> <Gold.Id.Protein>
6NUR|6NUR_protein|mol2

> <Gold.PLP.Fitness>
37.3907

> <Gold.PLP.PLP>
-24.1214

> <Gold.PLP.part.hbond>
-4.8454

> <Gold.PLP.part.metal>
0.0000

> <Gold.PLP.part.buried>
-0.4336

> <Gold.PLP.part.nonpolar>
-16.8526

> <Gold.PLP.part.repulsive>
0.0891

> <Gold.PLP.ligand.clash>
0.0000

> <Gold.PLP.ligand.torsion>
0.8696

> <Gold.PLP.Chemscore.Hbond>
5.0000

> <Gold.PLP.Chemscore.CHOScore>
0.0000

> <Gold.PLP.Chemscore.Metal>
0.0000

> <Gold.Chemscore.Hbonds>
donor molecule, donor type, donor heavy atom, donor atom, acceptor molecule, acceptor atom, score
      L1  H     1    13       P1  7957  1.00
      L1  H     1    24       P1  7948  2.00
      L1  H     4    17       P1  7957  1.00
      P1  H  7997  8010       L1    10  0.95

> <Gold.PLP.Chemscore.Internal.Correction>
0.0084

> <Gold.Rescore>
     Score         DG    S(hbond)    S(metal)    S(lipo)     H(rot)  DE(clash)    DE(int)     intcor
     16.35     -17.65       3.57        0.00      48.93       2.14       0.35       0.96       ----

> <Gold.Chemscore.Fitness>
16.3470

> <Gold.Chemscore.DG>
-17.6542

> <Gold.Chemscore.ZeroCoef>
-5.4800

> <Gold.Chemscore.Hbond>
3.5714

> <Gold.Chemscore.Metal>
0.0000

> <Gold.Chemscore.Lipo>
48.9348

> <Gold.Chemscore.Internal_Hbond>
0.0000

> <Gold.Chemscore.DEClash>
0.3518

> <Gold.Chemscore.DEInternal>
0.9555

> <Gold.Chemscore.Rot>
2.1405

> <Gold.Chemscore.Internal.Correction>
   9.000000E+99

> <Gold.Chemscore.Hbonds>
donor molecule, donor type, donor heavy atom, donor atom, acceptor molecule, acceptor atom, score
      L1  H     1    13       P1  7957  0.64
      L1  H     1    24       P1  7948  0.87
      L1  H     4    17       P1  7957  0.96
      P1  H  7997  8010       L1    10  0.22

> <Gold.Chemscore.Hbond.Weighted>
-11.9285

> <Gold.Chemscore.Metal.Weighted>
-0.0000

> <Gold.Chemscore.Lipo.Weighted>
-5.7254

> <Gold.Chemscore.Internal_Hbond.Weighted>
0.0000

> <Gold.Chemscore.DEClash.Weighted>
0.3518

> <Gold.Chemscore.DEInternal.Weighted>
0.9555

> <Gold.Chemscore.Rot.Weighted>
5.4797

> <Gold.Chemscore.Internal.Correction.Weighted>
   9.000000E+99

> <Gold.Protein.RotatedTorsions>
[ 6907 6896 6895 6894 ] final   80.19 input  -60.11 | X-H torsion
[ 7974 7965 7964 7962 ] final  -12.87 input  175.53 | X-H torsion
[ 8008 7997 7996 7995 ] final   72.13 input   59.86 | X-H torsion
[ 10167 10162 10161 10158 ] final   52.67 input  -65.29 | X-H torsion
[ 10718 10713 10712 10709 ] final  -91.45 input   66.30 | X-H torsion
[ 10763 10752 10751 10750 ] final  142.72 input  -60.55 | X-H torsion
[ 11005 11000 10999 10996 ] final   19.17 input  -57.11 | X-H torsion

> <Gold.Protein.ActiveResidues>
 VAL166  LYS551  ARG553  GLY616  TRP617  ASP618  TYR619  PRO620  LYS621  CYS622 
 ASP623  PHE694  ASN695  SER759  ASP760  ASP761  ALA762  ILE779  LEU786  VAL792 
 PHE793  MET794  SER795  GLU796  ALA797  LYS798  CYS799  TRP800  GLU811  SER814 

> <Gold.Protein.RotatedAtoms>
  152.5226  134.3395  159.9211 H   0  0  0  0  0  0  0  0  0  0  0  0  # atno 6907 bound_to 6896
  151.3344  133.3981  159.2673 H   0  0  0  0  0  0  0  0  0  0  0  0  # atno 6908 bound_to 6896
  150.9854  134.9218  159.7926 H   0  0  0  0  0  0  0  0  0  0  0  0  # atno 6909 bound_to 6896
  146.2135  140.3121  142.8383 H   0  0  0  0  0  0  0  0  0  0  0  0  # atno 7974 bound_to 7965
  155.7642  140.3486  155.5213 H   0  0  0  0  0  0  0  0  0  0  0  0  # atno 8008 bound_to 7997
  155.8884  140.1014  157.1457 H   0  0  0  0  0  0  0  0  0  0  0  0  # atno 8009 bound_to 7997
  154.4031  140.1309  156.4272 H   0  0  0  0  0  0  0  0  0  0  0  0  # atno 8010 bound_to 7997
  140.2489  144.3501  150.6355 H   0  0  0  0  0  0  0  0  0  0  0  0  # atno 10167 bound_to 10162
  155.9994  130.4948  150.5477 H   0  0  0  0  0  0  0  0  0  0  0  0  # atno 10718 bound_to 10713
  153.9605  135.2960  155.3434 H   0  0  0  0  0  0  0  0  0  0  0  0  # atno 10763 bound_to 10752
  154.7377  135.5039  153.9073 H   0  0  0  0  0  0  0  0  0  0  0  0  # atno 10764 bound_to 10752
  153.0949  135.6718  153.9893 H   0  0  0  0  0  0  0  0  0  0  0  0  # atno 10765 bound_to 10752
  140.4166  134.1562  155.7670 H   0  0  0  0  0  0  0  0  0  0  0  0  # atno 11005 bound_to 11000
  144.8980  140.7608  143.5884 LP  0  0  0  0  0  0  0  0  0  0  0  0  # atno 17320 bound_to 7965
  145.3046  139.1839  143.4671 LP  0  0  0  0  0  0  0  0  0  0  0  0  # atno 17321 bound_to 7965
  140.6056  143.2167  151.6988 LP  0  0  0  0  0  0  0  0  0  0  0  0  # atno 17342 bound_to 10162
  139.5053  144.3724  152.0457 LP  0  0  0  0  0  0  0  0  0  0  0  0  # atno 17343 bound_to 10162
  157.3404  131.0716  151.1792 LP  0  0  0  0  0  0  0  0  0  0  0  0  # atno 17370 bound_to 10713
  157.2642  130.6673  149.5989 LP  0  0  0  0  0  0  0  0  0  0  0  0  # atno 17371 bound_to 10713
  141.1800  133.8433  157.1290 LP  0  0  0  0  0  0  0  0  0  0  0  0  # atno 17394 bound_to 11000
  140.0229  134.9937  157.0628 LP  0  0  0  0  0  0  0  0  0  0  0  0  # atno 17395 bound_to 11000

$$$$
