AV-unprocessed.smi:1912|AV-procd|sdf|7751|dock5
  -GOLD-   22720 9493D 1   1.00000     0.00000
 Structure written by MMmdl.
 44 46  0  0  0  0  0  0  0  0  2 V2000
  146.7118  142.1862  154.1488 C   0  0  0  0  0  0  0  0  0  0  0  0
  147.3549  142.0341  155.4060 O   0  0  0  0  0  0  0  0  0  0  0  0
  148.5200  141.2995  155.4532 C   0  0  0  0  0  0  0  0  0  0  0  0
  149.0987  140.6516  154.3371 C   0  0  0  0  0  0  0  0  0  0  0  0
  150.2852  139.9094  154.4798 C   0  0  0  0  0  0  0  0  0  0  0  0
  150.9226  139.7926  155.7399 C   0  0  0  0  0  0  0  0  0  0  0  0
  152.0720  139.0561  155.9430 O   0  0  0  0  0  0  0  0  0  0  0  0
  152.6794  138.4265  154.8245 C   0  0  0  0  0  0  0  0  0  0  0  0
  150.3507  140.4467  156.8581 C   0  0  0  0  0  0  0  0  0  0  0  0
  150.9976  140.3155  158.2365 C   0  0  1  0  0  0  0  0  0  0  0  0
  151.0398  138.9816  158.7060 O   0  0  0  0  0  0  0  0  0  0  0  0
  152.4123  140.9383  158.2900 C   0  0  0  0  0  0  0  0  0  0  0  0
  152.9471  141.0909  159.6568 N   0  0  0  0  0  0  0  0  0  0  0  0
  153.7140  140.2444  160.4052 C   0  0  0  0  0  0  0  0  0  0  0  0
  154.2135  138.8926  160.0157 C   0  0  0  0  0  0  0  0  0  0  0  0
  153.9589  140.8643  161.5933 N   0  3  0  0  0  0  0  0  0  0  0  0
  153.3399  142.1136  161.6123 C   0  0  0  0  0  0  0  0  0  0  0  0
  153.3128  143.0996  162.5938 C   0  0  0  0  0  0  0  0  0  0  0  0
  152.5840  144.2694  162.2958 C   0  0  0  0  0  0  0  0  0  0  0  0
  151.9138  144.4222  161.0650 C   0  0  0  0  0  0  0  0  0  0  0  0
  151.9450  143.4133  160.0803 C   0  0  0  0  0  0  0  0  0  0  0  0
  152.6765  142.2625  160.3772 C   0  0  0  0  0  0  0  0  0  0  0  0
  149.1596  141.1920  156.7022 C   0  0  0  0  0  0  0  0  0  0  0  0
  145.8116  142.7873  154.2759 H   0  0  0  0  0  0  0  0  0  0  0  0
  146.4093  141.2227  153.7364 H   0  0  0  0  0  0  0  0  0  0  0  0
  147.3531  142.7010  153.4321 H   0  0  0  0  0  0  0  0  0  0  0  0
  148.6486  140.7040  153.3574 H   0  0  0  0  0  0  0  0  0  0  0  0
  150.6837  139.4298  153.5990 H   0  0  0  0  0  0  0  0  0  0  0  0
  153.5726  137.8958  155.1532 H   0  0  0  0  0  0  0  0  0  0  0  0
  152.9876  139.1570  154.0752 H   0  0  0  0  0  0  0  0  0  0  0  0
  152.0124  137.6954  154.3658 H   0  0  0  0  0  0  0  0  0  0  0  0
  150.3706  140.8461  158.9535 H   0  0  0  0  0  0  0  0  0  0  0  0
  151.4465  138.4448  158.0427 H   0  0  0  0  0  0  0  0  0  0  0  0
  153.1162  140.3614  157.6900 H   0  0  0  0  0  0  0  0  0  0  0  0
  152.3917  141.9309  157.8395 H   0  0  0  0  0  0  0  0  0  0  0  0
  154.3952  138.2852  160.9026 H   0  0  0  0  0  0  0  0  0  0  0  0
  155.1481  138.9834  159.4624 H   0  0  0  0  0  0  0  0  0  0  0  0
  153.4856  138.3757  159.3911 H   0  0  0  0  0  0  0  0  0  0  0  0
  153.8244  142.9833  163.5378 H   0  0  0  0  0  0  0  0  0  0  0  0
  152.5376  145.0642  163.0259 H   0  0  0  0  0  0  0  0  0  0  0  0
  151.3652  145.3326  160.8709 H   0  0  0  0  0  0  0  0  0  0  0  0
  151.4311  143.5464  159.1405 H   0  0  0  0  0  0  0  0  0  0  0  0
  148.7103  141.6772  157.5564 H   0  0  0  0  0  0  0  0  0  0  0  0
  154.5128  140.4588  162.3366 H   0  0  0  0  0  0  0  0  0  0  0  0
  1  2  1  0  0  0  0
  1 24  1  0  0  0  0
  1 25  1  0  0  0  0
  1 26  1  0  0  0  0
  2  3  1  0  0  0  0
  3 23  1  0  0  0  0
  3  4  2  0  0  0  0
  4  5  1  0  0  0  0
  4 27  1  0  0  0  0
  5  6  2  0  0  0  0
  5 28  1  0  0  0  0
  6  7  1  0  0  0  0
  6  9  1  0  0  0  0
  7  8  1  0  0  0  0
  8 29  1  0  0  0  0
  8 30  1  0  0  0  0
  8 31  1  0  0  0  0
  9 10  1  0  0  0  0
  9 23  2  0  0  0  0
 10 11  1  0  0  0  0
 10 12  1  0  0  0  0
 10 32  1  0  0  0  0
 11 33  1  0  0  0  0
 12 13  1  0  0  0  0
 12 34  1  0  0  0  0
 12 35  1  0  0  0  0
 13 22  1  0  0  0  0
 13 14  1  0  0  0  0
 14 15  1  0  0  0  0
 14 16  2  0  0  0  0
 15 36  1  0  0  0  0
 15 37  1  0  0  0  0
 15 38  1  0  0  0  0
 16 17  1  0  0  0  0
 16 44  1  0  0  0  0
 17 22  2  0  0  0  0
 17 18  1  0  0  0  0
 18 19  2  0  0  0  0
 18 39  1  0  0  0  0
 19 20  1  0  0  0  0
 19 40  1  0  0  0  0
 20 21  2  0  0  0  0
 20 41  1  0  0  0  0
 21 22  1  0  0  0  0
 21 42  1  0  0  0  0
 23 43  1  0  0  0  0
M  CHG  1  16   1
M  END
> <s_m_source_file>
AV-unprocessed.smi

> <i_m_source_file_index>
1912

> <i_lp_mmshare_version>
43012

> <i_f3d_flags>
0

> <s_epik_input>
W0NIM11PYzFbY0hdW2NIXWMoT1tDSDNdKWMoW2NIXTEpW0NASF0oW09IXSlbQ0gyXW4oYyhuMilbQ0gzXSljKGMyMylbY0hdW2NIXVtjSF1bY0hdMw==

> <s_epik_cmdline>
J2VwaWtfcHl0aG9uJywgJy1waCcsICc3LjAnLCAnLXRuJywgJzgnLCAnLW1hJywgJzIwMCcsICctbWV0YWxfYmluZGluZycsICctaW1hZScsICc8aW5maWxlLm1hZT4nLCAnLW9tYWUnLCAnPG91dGZpbGUubWFlPic=

> <r_lp_tautomer_probability>
1

> <r_epik_Ionization_Penalty>
0.963869

> <r_epik_Ionization_Penalty_Charging>
0.963868

> <r_epik_Ionization_Penalty_Neutral>
1.34362e-06

> <r_epik_State_Penalty>
1.00924

> <r_epik_Charging_Adjusted_Penalty>
1.9731

> <i_epik_Tot_Q>
1

> <i_epik_Tot_abs_Q>
1

> <r_epik_Metal_State_Penalty>
4.98304

> <b_epik_Metal_Only>
0

> <s_lp_Force_Field>
OPLS_2005

> <r_lp_Energy>
21.1539

> <b_lp_Chiralities_Consistent>
1

> <s_lp_Variant>
AV-unprocessed.smi:1912-4

> <Gold.Version>
5.8.1

> <Gold.Id.Protein>
6NUR|6NUR_protein|mol2

> <Gold.PLP.Fitness>
49.1564

> <Gold.PLP.PLP>
-49.9464

> <Gold.PLP.part.hbond>
0.0000

> <Gold.PLP.part.metal>
0.0000

> <Gold.PLP.part.buried>
-4.5516

> <Gold.PLP.part.nonpolar>
-46.9339

> <Gold.PLP.part.repulsive>
0.6736

> <Gold.PLP.ligand.clash>
0.0000

> <Gold.PLP.ligand.torsion>
0.4436

> <Gold.PLP.Chemscore.Hbond>
0.0000

> <Gold.PLP.Chemscore.CHOScore>
0.0000

> <Gold.PLP.Chemscore.Metal>
0.0000

> <Gold.PLP.Chemscore.Internal.Correction>
0.0971

> <Gold.Rescore>
     Score         DG    S(hbond)    S(metal)    S(lipo)     H(rot)  DE(clash)    DE(int)     intcor
     14.05     -15.40       0.00        0.00     133.88       2.24       0.22       1.12       ----

> <Gold.Chemscore.Fitness>
14.0541

> <Gold.Chemscore.DG>
-15.3969

> <Gold.Chemscore.ZeroCoef>
-5.4800

> <Gold.Chemscore.Hbond>
0.0000

> <Gold.Chemscore.Metal>
0.0000

> <Gold.Chemscore.Lipo>
133.8775

> <Gold.Chemscore.Internal_Hbond>
0.0000

> <Gold.Chemscore.DEClash>
0.2232

> <Gold.Chemscore.DEInternal>
1.1197

> <Gold.Chemscore.Rot>
2.2448

> <Gold.Chemscore.Internal.Correction>
   9.000000E+99

> <Gold.Chemscore.Hbond.Weighted>
-0.0000

> <Gold.Chemscore.Metal.Weighted>
-0.0000

> <Gold.Chemscore.Lipo.Weighted>
-15.6637

> <Gold.Chemscore.Internal_Hbond.Weighted>
0.0000

> <Gold.Chemscore.DEClash.Weighted>
0.2232

> <Gold.Chemscore.DEInternal.Weighted>
1.1197

> <Gold.Chemscore.Rot.Weighted>
5.7467

> <Gold.Chemscore.Internal.Correction.Weighted>
   9.000000E+99

> <Gold.Protein.RotatedTorsions>
[ 6907 6896 6895 6894 ] final   -4.22 input  -60.11 | X-H torsion
[ 7974 7965 7964 7962 ] final   57.10 input  175.53 | X-H torsion
[ 8008 7997 7996 7995 ] final  138.53 input   59.86 | X-H torsion
[ 10167 10162 10161 10158 ] final   88.65 input  -65.29 | X-H torsion
[ 10718 10713 10712 10709 ] final   84.99 input   66.30 | X-H torsion
[ 10763 10752 10751 10750 ] final  148.30 input  -60.55 | X-H torsion
[ 11005 11000 10999 10996 ] final  -73.17 input  -57.11 | X-H torsion

> <Gold.Protein.ActiveResidues>
 VAL166  LYS551  ARG553  GLY616  TRP617  ASP618  TYR619  PRO620  LYS621  CYS622 
 ASP623  PHE694  ASN695  SER759  ASP760  ASP761  ALA762  ILE779  LEU786  VAL792 
 PHE793  MET794  SER795  GLU796  ALA797  LYS798  CYS799  TRP800  GLU811  SER814 

> <Gold.Protein.RotatedAtoms>
  151.5012  135.1062  159.9829 H   0  0  0  0  0  0  0  0  0  0  0  0  # atno 6907 bound_to 6896
  152.4701  133.8006  159.6961 H   0  0  0  0  0  0  0  0  0  0  0  0  # atno 6908 bound_to 6896
  150.8705  133.7449  159.2988 H   0  0  0  0  0  0  0  0  0  0  0  0  # atno 6909 bound_to 6896
  145.9326  139.3820  143.0412 H   0  0  0  0  0  0  0  0  0  0  0  0  # atno 7974 bound_to 7965
  156.2996  140.2391  156.4088 H   0  0  0  0  0  0  0  0  0  0  0  0  # atno 8008 bound_to 7997
  154.8460  140.0426  157.1593 H   0  0  0  0  0  0  0  0  0  0  0  0  # atno 8009 bound_to 7997
  154.9051  140.2982  155.5300 H   0  0  0  0  0  0  0  0  0  0  0  0  # atno 8010 bound_to 7997
  139.8651  144.6523  150.9013 H   0  0  0  0  0  0  0  0  0  0  0  0  # atno 10167 bound_to 10162
  157.6907  131.0156  150.2755 H   0  0  0  0  0  0  0  0  0  0  0  0  # atno 10718 bound_to 10713
  154.0525  135.2880  155.3338 H   0  0  0  0  0  0  0  0  0  0  0  0  # atno 10763 bound_to 10752
  154.6860  135.5245  153.8330 H   0  0  0  0  0  0  0  0  0  0  0  0  # atno 10764 bound_to 10752
  153.0555  135.6593  154.0720 H   0  0  0  0  0  0  0  0  0  0  0  0  # atno 10765 bound_to 10752
  141.1619  133.6870  156.7171 H   0  0  0  0  0  0  0  0  0  0  0  0  # atno 11005 bound_to 11000
  145.8405  140.9583  143.0801 LP  0  0  0  0  0  0  0  0  0  0  0  0  # atno 17320 bound_to 7965
  144.6767  140.0279  143.7483 LP  0  0  0  0  0  0  0  0  0  0  0  0  # atno 17321 bound_to 7965
  140.7769  143.3711  151.1648 LP  0  0  0  0  0  0  0  0  0  0  0  0  # atno 17342 bound_to 10162
  139.7336  143.9033  152.3028 LP  0  0  0  0  0  0  0  0  0  0  0  0  # atno 17343 bound_to 10162
  156.3310  130.3800  149.7491 LP  0  0  0  0  0  0  0  0  0  0  0  0  # atno 17370 bound_to 10713
  156.5030  130.8137  151.3140 LP  0  0  0  0  0  0  0  0  0  0  0  0  # atno 17371 bound_to 10713
  140.2844  134.8291  157.3961 LP  0  0  0  0  0  0  0  0  0  0  0  0  # atno 17394 bound_to 11000
  140.1404  134.4979  155.8036 LP  0  0  0  0  0  0  0  0  0  0  0  0  # atno 17395 bound_to 11000

$$$$
