AV-unprocessed.smi:2451|AV-procd|sdf|9684|dock5
  -GOLD-   2272013323D 1   1.00000     0.00000
 Structure written by MMmdl.
 37 38  0  0  0  0  0  0  0  0  2 V2000
  153.0545  143.5418  162.5219 C   0  0  0  0  0  0  0  0  0  0  0  0
  152.2979  143.4298  161.1853 C   0  0  1  0  0  0  0  0  0  0  0  0
  151.9011  144.8495  160.7074 C   0  0  0  0  0  0  0  0  0  0  0  0
  151.1545  144.7816  159.3614 C   0  0  0  0  0  0  0  0  0  0  0  0
  151.9507  144.0138  158.2780 C   0  0  0  0  0  0  0  0  0  0  0  0
  152.3770  142.5895  158.7071 C   0  0  2  0  0  0  0  0  0  0  0  0
  151.2018  141.7273  158.7729 N   0  5  0  0  0  0  0  0  0  0  0  0
  150.5176  141.1947  157.4036 S   0  0  0  0  0  0  0  0  0  0  0  0
  149.0491  141.2940  157.4294 O   0  0  0  0  0  0  0  0  0  0  0  0
  151.1988  141.6949  156.1980 O   0  0  0  0  0  0  0  0  0  0  0  0
  150.9138  139.3974  157.5074 C   0  0  0  0  0  0  0  0  0  0  0  0
  151.5234  138.9264  156.2173 C   0  0  0  0  0  0  0  0  0  0  0  0
  150.8834  138.2874  155.1190 C   0  0  0  0  0  0  0  0  0  0  0  0
  151.8985  138.0917  154.2279 C   0  0  0  0  0  0  0  0  0  0  0  0
  153.0658  138.5743  154.7234 O   0  0  0  0  0  0  0  0  0  0  0  0
  152.8156  139.1091  155.9923 N   0  0  0  0  0  0  0  0  0  0  0  0
  153.1054  142.6483  160.0904 C   0  0  2  0  0  0  0  0  0  0  0  0
  153.5913  141.2553  160.5649 C   0  0  0  0  0  0  0  0  0  0  0  0
  154.0345  143.9999  162.3858 H   0  0  0  0  0  0  0  0  0  0  0  0
  153.1977  142.5676  162.9885 H   0  0  0  0  0  0  0  0  0  0  0  0
  152.4999  144.1519  163.2353 H   0  0  0  0  0  0  0  0  0  0  0  0
  151.3760  142.8838  161.3971 H   0  0  0  0  0  0  0  0  0  0  0  0
  151.2745  145.3420  161.4517 H   0  0  0  0  0  0  0  0  0  0  0  0
  152.7951  145.4646  160.5949 H   0  0  0  0  0  0  0  0  0  0  0  0
  150.1767  144.3199  159.5115 H   0  0  0  0  0  0  0  0  0  0  0  0
  150.9509  145.7934  159.0102 H   0  0  0  0  0  0  0  0  0  0  0  0
  151.3728  143.9706  157.3538 H   0  0  0  0  0  0  0  0  0  0  0  0
  152.8472  144.5871  158.0390 H   0  0  0  0  0  0  0  0  0  0  0  0
  153.0913  142.2241  157.9679 H   0  0  0  0  0  0  0  0  0  0  0  0
  151.6028  139.2489  158.3385 H   0  0  0  0  0  0  0  0  0  0  0  0
  149.9948  138.8579  157.7372 H   0  0  0  0  0  0  0  0  0  0  0  0
  149.8454  138.0113  155.0087 H   0  0  0  0  0  0  0  0  0  0  0  0
  151.9477  137.6469  153.2450 H   0  0  0  0  0  0  0  0  0  0  0  0
  154.0134  143.2278  159.9165 H   0  0  0  0  0  0  0  0  0  0  0  0
  152.7630  140.6206  160.8846 H   0  0  0  0  0  0  0  0  0  0  0  0
  154.2761  141.3410  161.4075 H   0  0  0  0  0  0  0  0  0  0  0  0
  154.1410  140.7178  159.7892 H   0  0  0  0  0  0  0  0  0  0  0  0
  1  2  1  0  0  0  0
  1 19  1  0  0  0  0
  1 20  1  0  0  0  0
  1 21  1  0  0  0  0
  2 17  1  0  0  0  0
  2  3  1  0  0  0  0
  2 22  1  0  0  0  0
  3  4  1  0  0  0  0
  3 23  1  0  0  0  0
  3 24  1  0  0  0  0
  4  5  1  0  0  0  0
  4 25  1  0  0  0  0
  4 26  1  0  0  0  0
  5  6  1  0  0  0  0
  5 27  1  0  0  0  0
  5 28  1  0  0  0  0
  6  7  1  0  0  0  0
  6 17  1  0  0  0  0
  6 29  1  0  0  0  0
  7  8  1  0  0  0  0
  8  9  2  0  0  0  0
  8 10  2  0  0  0  0
  8 11  1  0  0  0  0
 11 12  1  0  0  0  0
 11 30  1  0  0  0  0
 11 31  1  0  0  0  0
 12 16  2  0  0  0  0
 12 13  1  0  0  0  0
 13 14  2  0  0  0  0
 13 32  1  0  0  0  0
 14 15  1  0  0  0  0
 14 33  1  0  0  0  0
 15 16  1  0  0  0  0
 17 18  1  0  0  0  0
 17 34  1  0  0  0  0
 18 35  1  0  0  0  0
 18 36  1  0  0  0  0
 18 37  1  0  0  0  0
M  CHG  1   7  -1
M  END
> <s_m_source_file>
AV-unprocessed.smi

> <i_m_source_file_index>
2451

> <i_lp_mmshare_version>
43012

> <i_f3d_flags>
0

> <s_epik_input>
W0NIM11bQ0BASF0xW0NIMl1bQ0gyXVtDSDJdW0NASF0oW0NASF0xW0NIM10pW05IXVMoPU8pKD1PKVtDSDJdYzJbY0hdW2NIXW9uMg==

> <s_epik_cmdline>
J2VwaWtfcHl0aG9uJywgJy1waCcsICc3LjAnLCAnLXRuJywgJzgnLCAnLW1hJywgJzIwMCcsICctbWV0YWxfYmluZGluZycsICctaW1hZScsICc8aW5maWxlLm1hZT4nLCAnLW9tYWUnLCAnPG91dGZpbGUubWFlPic=

> <r_lp_tautomer_probability>
1

> <r_epik_Ionization_Penalty>
5.22693

> <r_epik_Ionization_Penalty_Charging>
5.22693

> <r_epik_Ionization_Penalty_Neutral>
2.67702e-10

> <r_epik_State_Penalty>
5.22685

> <r_epik_Charging_Adjusted_Penalty>
10.4538

> <i_epik_Tot_Q>
-1

> <i_epik_Tot_abs_Q>
1

> <r_epik_Metal_State_Penalty>
1.28716

> <b_epik_Metal_Only>
1

> <s_lp_Force_Field>
OPLS_2005

> <r_lp_Energy>
15.3657

> <b_lp_Chiralities_Consistent>
1

> <s_lp_Variant>
AV-unprocessed.smi:2451-16

> <Gold.Version>
5.8.1

> <Gold.Id.Protein>
6NUR|6NUR_protein|mol2

> <Gold.PLP.Fitness>
45.8057

> <Gold.PLP.PLP>
-41.1786

> <Gold.PLP.part.hbond>
-1.0000

> <Gold.PLP.part.metal>
0.0000

> <Gold.PLP.part.buried>
-6.2717

> <Gold.PLP.part.nonpolar>
-33.6415

> <Gold.PLP.part.repulsive>
0.1524

> <Gold.PLP.ligand.clash>
0.0000

> <Gold.PLP.ligand.torsion>
1.1775

> <Gold.PLP.Chemscore.Hbond>
1.0000

> <Gold.PLP.Chemscore.CHOScore>
0.9985

> <Gold.PLP.Chemscore.Metal>
0.0000

> <Gold.Chemscore.Hbonds>
donor molecule, donor type, donor heavy atom, donor atom, acceptor molecule, acceptor atom, score
      P1  H  7997  8010       L1    16  1.00
      L1  C    14    33       P1  7949  1.00

> <Gold.PLP.Chemscore.Internal.Correction>
0.9868

> <Gold.Rescore>
     Score         DG    S(hbond)    S(metal)    S(lipo)     H(rot)  DE(clash)    DE(int)     intcor
     16.17     -17.50       0.62        0.00     115.54       1.40       0.12       1.22       ----

> <Gold.Chemscore.Fitness>
16.1664

> <Gold.Chemscore.DG>
-17.5031

> <Gold.Chemscore.ZeroCoef>
-5.4800

> <Gold.Chemscore.Hbond>
0.6243

> <Gold.Chemscore.Metal>
0.0000

> <Gold.Chemscore.Lipo>
115.5418

> <Gold.Chemscore.Internal_Hbond>
0.0000

> <Gold.Chemscore.DEClash>
0.1211

> <Gold.Chemscore.DEInternal>
1.2156

> <Gold.Chemscore.Rot>
1.3986

> <Gold.Chemscore.Internal.Correction>
   9.000000E+99

> <Gold.Chemscore.Hbonds>
donor molecule, donor type, donor heavy atom, donor atom, acceptor molecule, acceptor atom, score
      P1  H  7997  8010       L1    16  0.40

> <Gold.Chemscore.Hbond.Weighted>
-2.0851

> <Gold.Chemscore.Metal.Weighted>
-0.0000

> <Gold.Chemscore.Lipo.Weighted>
-13.5184

> <Gold.Chemscore.Internal_Hbond.Weighted>
0.0000

> <Gold.Chemscore.DEClash.Weighted>
0.1211

> <Gold.Chemscore.DEInternal.Weighted>
1.2156

> <Gold.Chemscore.Rot.Weighted>
3.5804

> <Gold.Chemscore.Internal.Correction.Weighted>
   9.000000E+99

> <Gold.Protein.RotatedTorsions>
[ 6907 6896 6895 6894 ] final   28.33 input  -60.11 | X-H torsion
[ 7974 7965 7964 7962 ] final   17.56 input  175.53 | X-H torsion
[ 8008 7997 7996 7995 ] final   77.60 input   59.86 | X-H torsion
[ 10167 10162 10161 10158 ] final -108.64 input  -65.29 | X-H torsion
[ 10718 10713 10712 10709 ] final  -93.22 input   66.30 | X-H torsion
[ 10763 10752 10751 10750 ] final   28.36 input  -60.55 | X-H torsion
[ 11005 11000 10999 10996 ] final   83.79 input  -57.11 | X-H torsion

> <Gold.Protein.ActiveResidues>
 VAL166  LYS551  ARG553  GLY616  TRP617  ASP618  TYR619  PRO620  LYS621  CYS622 
 ASP623  PHE694  ASN695  SER759  ASP760  ASP761  ALA762  ILE779  LEU786  VAL792 
 PHE793  MET794  SER795  GLU796  ALA797  LYS798  CYS799  TRP800  GLU811  SER814 

> <Gold.Protein.RotatedAtoms>
  152.0153  134.9853  160.0569 H   0  0  0  0  0  0  0  0  0  0  0  0  # atno 6907 bound_to 6896
  152.1389  133.4447  159.4765 H   0  0  0  0  0  0  0  0  0  0  0  0  # atno 6908 bound_to 6896
  150.6863  134.2248  159.4454 H   0  0  0  0  0  0  0  0  0  0  0  0  # atno 6909 bound_to 6896
  146.2214  139.8584  142.8609 H   0  0  0  0  0  0  0  0  0  0  0  0  # atno 7974 bound_to 7965
  155.8439  140.3461  155.5649 H   0  0  0  0  0  0  0  0  0  0  0  0  # atno 8008 bound_to 7997
  155.8111  140.0899  157.1923 H   0  0  0  0  0  0  0  0  0  0  0  0  # atno 8009 bound_to 7997
  154.4005  140.1447  156.3375 H   0  0  0  0  0  0  0  0  0  0  0  0  # atno 8010 bound_to 7997
  140.1640  143.4097  152.1404 H   0  0  0  0  0  0  0  0  0  0  0  0  # atno 10167 bound_to 10162
  156.0011  130.5018  150.5744 H   0  0  0  0  0  0  0  0  0  0  0  0  # atno 10718 bound_to 10713
  153.0496  135.6515  154.0727 H   0  0  0  0  0  0  0  0  0  0  0  0  # atno 10763 bound_to 10752
  154.0418  135.2903  155.3355 H   0  0  0  0  0  0  0  0  0  0  0  0  # atno 10764 bound_to 10752
  154.6777  135.5332  153.8287 H   0  0  0  0  0  0  0  0  0  0  0  0  # atno 10765 bound_to 10752
  139.9020  134.8170  156.2358 H   0  0  0  0  0  0  0  0  0  0  0  0  # atno 11005 bound_to 11000
  145.2729  141.0114  143.3761 LP  0  0  0  0  0  0  0  0  0  0  0  0  # atno 17320 bound_to 7965
  144.9209  139.4413  143.6541 LP  0  0  0  0  0  0  0  0  0  0  0  0  # atno 17321 bound_to 7965
  139.5368  144.7217  151.4866 LP  0  0  0  0  0  0  0  0  0  0  0  0  # atno 17342 bound_to 10162
  140.6625  143.8468  150.6904 LP  0  0  0  0  0  0  0  0  0  0  0  0  # atno 17343 bound_to 10162
  157.3634  131.0753  151.1618 LP  0  0  0  0  0  0  0  0  0  0  0  0  # atno 17370 bound_to 10713
  157.2395  130.6562  149.5883 LP  0  0  0  0  0  0  0  0  0  0  0  0  # atno 17371 bound_to 10713
  141.0317  133.6985  156.1441 LP  0  0  0  0  0  0  0  0  0  0  0  0  # atno 17394 bound_to 11000
  140.7087  134.4485  157.5583 LP  0  0  0  0  0  0  0  0  0  0  0  0  # atno 17395 bound_to 11000

$$$$
