AV-unprocessed.smi:1005|AV-procd|sdf|4380|dock6
  -GOLD-   22720 2303D 1   1.00000     0.00000
 Structure written by MMmdl.
 58 60  0  0  0  0  0  0  0  0  4 V2000
  151.4333  145.2109  160.5965 C   0  0  0  0  0  0  0  0  0  0  0  0
  151.5208  144.0045  159.6771 C   0  0  0  0  0  0  0  0  0  0  0  0
  150.8326  144.0443  158.4436 C   0  0  0  0  0  0  0  0  0  0  0  0
  150.9292  142.9243  157.6264 C   0  0  0  0  0  0  0  0  0  0  0  0
  150.3759  142.6579  156.3724 N   0  3  0  0  0  0  0  0  0  0  0  0
  150.7493  141.4133  155.9657 C   0  0  0  0  0  0  0  0  0  0  0  0
  151.5404  140.8830  156.9379 N   0  0  0  0  0  0  0  0  0  0  0  0
  152.1827  139.5621  157.0010 C   0  0  0  0  0  0  0  0  0  0  0  0
  151.8585  138.6687  155.7867 C   0  0  2  0  0  0  0  0  0  0  0  0
  152.4178  139.2958  154.6506 O   0  0  0  0  0  0  0  0  0  0  0  0
  150.3446  138.4672  155.5560 C   0  0  0  0  0  0  0  0  0  0  0  0
  149.7443  137.4777  156.4914 N   0  3  2  0  0  0  0  0  0  0  0  0
  150.7185  136.4922  157.0193 C   0  0  0  0  0  0  0  0  0  0  0  0
  151.0189  135.3983  155.9807 C   0  0  0  0  0  0  0  0  0  0  0  0
  149.8030  134.7636  155.6042 O   0  0  0  0  0  0  0  0  0  0  0  0
  148.8854  135.6578  154.9826 C   0  0  1  0  0  0  0  0  0  0  0  0
  147.6374  134.8487  154.5802 C   0  0  0  0  0  0  0  0  0  0  0  0
  147.8544  134.0087  153.3737 N   0  3  0  0  0  0  0  0  0  0  0  0
  146.6106  133.4029  152.8434 C   0  0  0  0  0  0  0  0  0  0  0  0
  148.9031  132.9870  153.5900 C   0  0  0  0  0  0  0  0  0  0  0  0
  148.5323  136.7874  155.9786 C   0  0  0  0  0  0  0  0  0  0  0  0
  151.6753  141.7886  157.9980 C   0  0  0  0  0  0  0  0  0  0  0  0
  152.3586  141.7333  159.2111 C   0  0  0  0  0  0  0  0  0  0  0  0
  152.2751  142.8637  160.0550 C   0  0  0  0  0  0  0  0  0  0  0  0
  153.0111  142.8316  161.3837 C   0  0  0  0  0  0  0  0  0  0  0  0
  150.8283  146.0051  160.1580 H   0  0  0  0  0  0  0  0  0  0  0  0
  152.4255  145.6183  160.7915 H   0  0  0  0  0  0  0  0  0  0  0  0
  150.9790  144.9342  161.5483 H   0  0  0  0  0  0  0  0  0  0  0  0
  150.2528  144.9079  158.1517 H   0  0  0  0  0  0  0  0  0  0  0  0
  150.4624  140.9309  155.0419 H   0  0  0  0  0  0  0  0  0  0  0  0
  153.2584  139.6863  157.1268 H   0  0  0  0  0  0  0  0  0  0  0  0
  151.8264  139.0856  157.9156 H   0  0  0  0  0  0  0  0  0  0  0  0
  152.3587  137.7102  155.9224 H   0  0  0  0  0  0  0  0  0  0  0  0
  152.6905  138.6349  154.0328 H   0  0  0  0  0  0  0  0  0  0  0  0
  149.8124  139.4132  155.6408 H   0  0  0  0  0  0  0  0  0  0  0  0
  150.2003  138.1343  154.5269 H   0  0  0  0  0  0  0  0  0  0  0  0
  151.6355  136.9873  157.3410 H   0  0  0  0  0  0  0  0  0  0  0  0
  150.2917  136.0321  157.9117 H   0  0  0  0  0  0  0  0  0  0  0  0
  151.5224  135.8086  155.1041 H   0  0  0  0  0  0  0  0  0  0  0  0
  151.6870  134.6507  156.4087 H   0  0  0  0  0  0  0  0  0  0  0  0
  149.3446  136.0899  154.0942 H   0  0  0  0  0  0  0  0  0  0  0  0
  147.3607  134.2087  155.4198 H   0  0  0  0  0  0  0  0  0  0  0  0
  146.7882  135.5122  154.4098 H   0  0  0  0  0  0  0  0  0  0  0  0
  146.1472  132.7500  153.5841 H   0  0  0  0  0  0  0  0  0  0  0  0
  146.8237  132.8073  151.9550 H   0  0  0  0  0  0  0  0  0  0  0  0
  145.8845  134.1610  152.5529 H   0  0  0  0  0  0  0  0  0  0  0  0
  148.6087  132.2826  154.3690 H   0  0  0  0  0  0  0  0  0  0  0  0
  149.8439  133.4524  153.8861 H   0  0  0  0  0  0  0  0  0  0  0  0
  149.0900  132.4252  152.6739 H   0  0  0  0  0  0  0  0  0  0  0  0
  148.0065  136.3618  156.8348 H   0  0  0  0  0  0  0  0  0  0  0  0
  147.8426  137.4977  155.5242 H   0  0  0  0  0  0  0  0  0  0  0  0
  152.9307  140.8660  159.5051 H   0  0  0  0  0  0  0  0  0  0  0  0
  153.5496  141.8931  161.5202 H   0  0  0  0  0  0  0  0  0  0  0  0
  152.3100  142.9367  162.2119 H   0  0  0  0  0  0  0  0  0  0  0  0
  153.7377  143.6428  161.4396 H   0  0  0  0  0  0  0  0  0  0  0  0
  148.2134  134.6217  152.6550 H   0  0  0  0  0  0  0  0  0  0  0  0
  149.4522  138.0218  157.2911 H   0  0  0  0  0  0  0  0  0  0  0  0
  149.7756  143.2731  155.8375 H   0  0  0  0  0  0  0  0  0  0  0  0
  1  2  1  0  0  0  0
  1 26  1  0  0  0  0
  1 27  1  0  0  0  0
  1 28  1  0  0  0  0
  2 24  1  0  0  0  0
  2  3  2  0  0  0  0
  3  4  1  0  0  0  0
  3 29  1  0  0  0  0
  4 22  2  0  0  0  0
  4  5  1  0  0  0  0
  5  6  2  0  0  0  0
  5 58  1  0  0  0  0
  6  7  1  0  0  0  0
  6 30  1  0  0  0  0
  7  8  1  0  0  0  0
  7 22  1  0  0  0  0
  8  9  1  0  0  0  0
  8 31  1  0  0  0  0
  8 32  1  0  0  0  0
  9 10  1  0  0  0  0
  9 11  1  0  0  0  0
  9 33  1  0  0  0  0
 10 34  1  0  0  0  0
 11 12  1  0  0  0  0
 11 35  1  0  0  0  0
 11 36  1  0  0  0  0
 12 21  1  0  0  0  0
 12 13  1  0  0  0  0
 12 57  1  0  0  0  0
 13 14  1  0  0  0  0
 13 37  1  0  0  0  0
 13 38  1  0  0  0  0
 14 15  1  0  0  0  0
 14 39  1  0  0  0  0
 14 40  1  0  0  0  0
 15 16  1  0  0  0  0
 16 17  1  0  0  0  0
 16 21  1  0  0  0  0
 16 41  1  0  0  0  0
 17 18  1  0  0  0  0
 17 42  1  0  0  0  0
 17 43  1  0  0  0  0
 18 19  1  0  0  0  0
 18 20  1  0  0  0  0
 18 56  1  0  0  0  0
 19 44  1  0  0  0  0
 19 45  1  0  0  0  0
 19 46  1  0  0  0  0
 20 47  1  0  0  0  0
 20 48  1  0  0  0  0
 20 49  1  0  0  0  0
 21 50  1  0  0  0  0
 21 51  1  0  0  0  0
 22 23  1  0  0  0  0
 23 24  2  0  0  0  0
 23 52  1  0  0  0  0
 24 25  1  0  0  0  0
 25 53  1  0  0  0  0
 25 54  1  0  0  0  0
 25 55  1  0  0  0  0
M  CHG  1   5   1
M  CHG  1  12   1
M  CHG  1  18   1
M  END
> <s_m_source_file>
AV-unprocessed.smi

> <i_m_source_file_index>
1005

> <i_lp_mmshare_version>
43012

> <i_f3d_flags>
0

> <s_epik_input>
W0NIM11jKFtjSF0xKWMoW0NIM10pW2NIXWMoYzEyKW4oW2NIXW4yKVtDSDJdW0NASF0oW09IXSlbQ0gyXU4zW0NIMl1bQ0gyXU9bQ0BIXShbQ0gyXTMpW0NIMl1OKFtDSDNdKVtDSDNd

> <s_epik_cmdline>
J2VwaWtfcHl0aG9uJywgJy1waCcsICc3LjAnLCAnLXRuJywgJzgnLCAnLW1hJywgJzIwMCcsICctbWV0YWxfYmluZGluZycsICctaW1hZScsICc8aW5maWxlLm1hZT4nLCAnLW9tYWUnLCAnPG91dGZpbGUubWFlPic=

> <r_epik_Ionization_Penalty>
2.30802

> <r_epik_Ionization_Penalty_Charging>
2.30798

> <r_epik_Ionization_Penalty_Neutral>
3.4851e-05

> <r_epik_State_Penalty>
2.52618

> <r_epik_Charging_Adjusted_Penalty>
4.83416

> <i_epik_Tot_Q>
3

> <i_epik_Tot_abs_Q>
3

> <r_epik_Metal_State_Penalty>
6.53149

> <b_epik_Metal_Only>
0

> <s_lp_Force_Field>
OPLS_2005

> <r_lp_Energy>
52.3538

> <b_lp_Chiralities_Consistent>
1

> <s_lp_Variant>
AV-unprocessed.smi:1005-19

> <Gold.Version>
5.8.1

> <Gold.Id.Protein>
6NUR|6NUR_protein|mol2

> <Gold.PLP.Fitness>
57.1056

> <Gold.PLP.PLP>
-44.5006

> <Gold.PLP.part.hbond>
-3.0000

> <Gold.PLP.part.metal>
0.0000

> <Gold.PLP.part.buried>
-4.4554

> <Gold.PLP.part.nonpolar>
-36.0643

> <Gold.PLP.part.repulsive>
0.1744

> <Gold.PLP.ligand.clash>
0.0532

> <Gold.PLP.ligand.torsion>
0.6956

> <Gold.PLP.Chemscore.Hbond>
4.6373

> <Gold.PLP.Chemscore.CHOScore>
0.0000

> <Gold.PLP.Chemscore.Metal>
0.0000

> <Gold.Chemscore.Hbonds>
donor molecule, donor type, donor heavy atom, donor atom, acceptor molecule, acceptor atom, score
      L1  H     5    58       P1  8028  2.00
      L1  H    18    56       P1  7948  2.00
      P1  H  7989  7998       L1    10  0.63

> <Gold.PLP.Chemscore.Internal.Correction>
0.1377

> <Gold.Rescore>
     Score         DG    S(hbond)    S(metal)    S(lipo)     H(rot)  DE(clash)    DE(int)     intcor
     15.90     -20.16       1.98        0.00     125.00       2.56       0.16       4.11       ----

> <Gold.Chemscore.Fitness>
15.8962

> <Gold.Chemscore.DG>
-20.1605

> <Gold.Chemscore.ZeroCoef>
-5.4800

> <Gold.Chemscore.Hbond>
1.9762

> <Gold.Chemscore.Metal>
0.0000

> <Gold.Chemscore.Lipo>
124.9986

> <Gold.Chemscore.Internal_Hbond>
0.0000

> <Gold.Chemscore.DEClash>
0.1569

> <Gold.Chemscore.DEInternal>
4.1074

> <Gold.Chemscore.Rot>
2.5566

> <Gold.Chemscore.Internal.Correction>
   9.000000E+99

> <Gold.Chemscore.Hbonds>
donor molecule, donor type, donor heavy atom, donor atom, acceptor molecule, acceptor atom, score
      L1  H     5    58       P1  8028  0.96
      L1  H    18    56       P1  7948  0.45
      P1  H  7989  7998       L1    10  0.30

> <Gold.Chemscore.Hbond.Weighted>
-6.6006

> <Gold.Chemscore.Metal.Weighted>
-0.0000

> <Gold.Chemscore.Lipo.Weighted>
-14.6248

> <Gold.Chemscore.Internal_Hbond.Weighted>
0.0000

> <Gold.Chemscore.DEClash.Weighted>
0.1569

> <Gold.Chemscore.DEInternal.Weighted>
4.1074

> <Gold.Chemscore.Rot.Weighted>
6.5450

> <Gold.Chemscore.Internal.Correction.Weighted>
   9.000000E+99

> <Gold.Protein.RotatedTorsions>
[ 6907 6896 6895 6894 ] final   12.40 input  -60.11 | X-H torsion
[ 7974 7965 7964 7962 ] final  -51.99 input  175.53 | X-H torsion
[ 8008 7997 7996 7995 ] final  113.68 input   59.86 | X-H torsion
[ 10167 10162 10161 10158 ] final -132.13 input  -65.29 | X-H torsion
[ 10718 10713 10712 10709 ] final  -85.67 input   66.30 | X-H torsion
[ 10763 10752 10751 10750 ] final -167.04 input  -60.55 | X-H torsion
[ 11005 11000 10999 10996 ] final   57.30 input  -57.11 | X-H torsion

> <Gold.Protein.ActiveResidues>
 VAL166  LYS551  ARG553  GLY616  TRP617  ASP618  TYR619  PRO620  LYS621  CYS622 
 ASP623  PHE694  ASN695  SER759  ASP760  ASP761  ALA762  ILE779  LEU786  VAL792 
 PHE793  MET794  SER795  GLU796  ALA797  LYS798  CYS799  TRP800  GLU811  SER814 

> <Gold.Protein.RotatedAtoms>
  151.7697  135.0789  160.0357 H   0  0  0  0  0  0  0  0  0  0  0  0  # atno 6907 bound_to 6896
  152.3297  133.5940  159.5809 H   0  0  0  0  0  0  0  0  0  0  0  0  # atno 6908 bound_to 6896
  150.7416  133.9802  159.3616 H   0  0  0  0  0  0  0  0  0  0  0  0  # atno 6909 bound_to 6896
  145.9129  140.7899  142.9686 H   0  0  0  0  0  0  0  0  0  0  0  0  # atno 7974 bound_to 7965
  156.2273  140.2974  156.0100 H   0  0  0  0  0  0  0  0  0  0  0  0  # atno 8008 bound_to 7997
  155.2321  140.0419  157.2980 H   0  0  0  0  0  0  0  0  0  0  0  0  # atno 8009 bound_to 7997
  154.5937  140.2408  155.7894 H   0  0  0  0  0  0  0  0  0  0  0  0  # atno 8010 bound_to 7997
  139.9117  143.6486  152.2574 H   0  0  0  0  0  0  0  0  0  0  0  0  # atno 10167 bound_to 10162
  155.9995  130.4739  150.4598 H   0  0  0  0  0  0  0  0  0  0  0  0  # atno 10718 bound_to 10713
  154.6772  135.2949  154.9662 H   0  0  0  0  0  0  0  0  0  0  0  0  # atno 10763 bound_to 10752
  154.0669  135.6623  153.4823 H   0  0  0  0  0  0  0  0  0  0  0  0  # atno 10764 bound_to 10752
  153.0524  135.5165  154.7798 H   0  0  0  0  0  0  0  0  0  0  0  0  # atno 10765 bound_to 10752
  140.0463  134.5801  155.9318 H   0  0  0  0  0  0  0  0  0  0  0  0  # atno 11005 bound_to 11000
  144.6745  140.1854  143.7402 LP  0  0  0  0  0  0  0  0  0  0  0  0  # atno 17320 bound_to 7965
  145.8648  139.2241  143.1695 LP  0  0  0  0  0  0  0  0  0  0  0  0  # atno 17321 bound_to 7965
  139.6936  144.7644  151.1395 LP  0  0  0  0  0  0  0  0  0  0  0  0  # atno 17342 bound_to 10162
  140.7683  143.5554  150.9158 LP  0  0  0  0  0  0  0  0  0  0  0  0  # atno 17343 bound_to 10162
  157.2623  131.0569  151.2312 LP  0  0  0  0  0  0  0  0  0  0  0  0  # atno 17370 bound_to 10713
  157.3422  130.7039  149.6389 LP  0  0  0  0  0  0  0  0  0  0  0  0  # atno 17371 bound_to 10713
  141.1908  133.6570  156.5430 LP  0  0  0  0  0  0  0  0  0  0  0  0  # atno 17394 bound_to 11000
  140.3988  134.7375  157.4767 LP  0  0  0  0  0  0  0  0  0  0  0  0  # atno 17395 bound_to 11000

$$$$
