AV-unprocessed.smi:1716|AV-procd|sdf|6916|dock8
  -GOLD-   22720 8123D 1   1.00000     0.00000
 Structure written by MMmdl.
 40 41  0  0  0  0  0  0  0  0  1 V2000
  149.6156  140.6041  156.7771 C   0  0  0  0  0  0  0  0  0  0  0  0
  148.9401  140.9703  155.4535 C   0  0  0  0  0  0  0  0  0  0  0  0
  149.5160  141.7663  154.7115 O   0  0  0  0  0  0  0  0  0  0  0  0
  147.7456  140.4116  155.1421 N   0  0  0  0  0  0  0  0  0  0  0  0
  147.0639  140.6547  153.8652 C   0  0  0  0  0  0  0  0  0  0  0  0
  147.1048  139.3668  153.0230 C   0  0  0  0  0  0  0  0  0  0  0  0
  146.4936  138.1726  153.7917 C   0  0  0  0  0  0  0  0  0  0  0  0
  146.7102  136.9252  153.0645 N   0  0  0  0  0  0  0  0  0  0  0  0
  145.7787  135.9851  152.8463 C   0  0  0  0  0  0  0  0  0  0  0  0
  144.6161  136.0776  153.2419 O   0  0  0  0  0  0  0  0  0  0  0  0
  146.2851  134.9528  152.1488 N   0  0  0  0  0  0  0  0  0  0  0  0
  145.6287  133.7636  151.7220 C   0  0  0  0  0  0  0  0  0  0  0  0
  144.3320  133.7459  151.3224 N   0  0  0  0  0  0  0  0  0  0  0  0
  143.7718  132.5835  150.9307 C   0  0  0  0  0  0  0  0  0  0  0  0
  144.4691  131.3635  150.9122 C   0  0  0  0  0  0  0  0  0  0  0  0
  145.8132  131.3635  151.3226 C   0  0  0  0  0  0  0  0  0  0  0  0
  146.4078  132.5753  151.7342 C   0  0  0  0  0  0  0  0  0  0  0  0
  147.8617  132.5768  152.1781 C   0  0  0  0  0  0  0  0  0  0  0  0
  147.0881  138.0561  155.2115 C   0  0  0  0  0  0  0  0  0  0  0  0
  147.0409  139.4067  155.9483 C   0  0  0  0  0  0  0  0  0  0  0  0
  149.7960  139.5302  156.8360 H   0  0  0  0  0  0  0  0  0  0  0  0
  148.9985  140.9083  157.6229 H   0  0  0  0  0  0  0  0  0  0  0  0
  150.5782  141.1080  156.8691 H   0  0  0  0  0  0  0  0  0  0  0  0
  146.0298  140.9444  154.0568 H   0  0  0  0  0  0  0  0  0  0  0  0
  147.5026  141.4790  153.3014 H   0  0  0  0  0  0  0  0  0  0  0  0
  146.5729  139.5229  152.0839 H   0  0  0  0  0  0  0  0  0  0  0  0
  148.1401  139.1464  152.7587 H   0  0  0  0  0  0  0  0  0  0  0  0
  145.4205  138.3437  153.8971 H   0  0  0  0  0  0  0  0  0  0  0  0
  147.6389  136.7678  152.7015 H   0  0  0  0  0  0  0  0  0  0  0  0
  147.2584  135.0229  151.8918 H   0  0  0  0  0  0  0  0  0  0  0  0
  142.7374  132.6282  150.6237 H   0  0  0  0  0  0  0  0  0  0  0  0
  143.9852  130.4528  150.5919 H   0  0  0  0  0  0  0  0  0  0  0  0
  146.3777  130.4426  151.3201 H   0  0  0  0  0  0  0  0  0  0  0  0
  148.2949  131.5777  152.1232 H   0  0  0  0  0  0  0  0  0  0  0  0
  147.9463  132.9223  153.2086 H   0  0  0  0  0  0  0  0  0  0  0  0
  148.4547  133.2344  151.5419 H   0  0  0  0  0  0  0  0  0  0  0  0
  146.5459  137.3019  155.7830 H   0  0  0  0  0  0  0  0  0  0  0  0
  148.1237  137.7167  155.1549 H   0  0  0  0  0  0  0  0  0  0  0  0
  147.4415  139.2933  156.9543 H   0  0  0  0  0  0  0  0  0  0  0  0
  146.0047  139.7201  156.0832 H   0  0  0  0  0  0  0  0  0  0  0  0
  1  2  1  0  0  0  0
  1 21  1  0  0  0  0
  1 22  1  0  0  0  0
  1 23  1  0  0  0  0
  2  3  2  0  0  0  0
  2  4  1  0  0  0  0
  4 20  1  0  0  0  0
  4  5  1  0  0  0  0
  5  6  1  0  0  0  0
  5 24  1  0  0  0  0
  5 25  1  0  0  0  0
  6  7  1  0  0  0  0
  6 26  1  0  0  0  0
  6 27  1  0  0  0  0
  7  8  1  0  0  0  0
  7 19  1  0  0  0  0
  7 28  1  0  0  0  0
  8  9  1  0  0  0  0
  8 29  1  0  0  0  0
  9 10  2  0  0  0  0
  9 11  1  0  0  0  0
 11 12  1  0  0  0  0
 11 30  1  0  0  0  0
 12 17  1  0  0  0  0
 12 13  2  0  0  0  0
 13 14  1  0  0  0  0
 14 15  2  0  0  0  0
 14 31  1  0  0  0  0
 15 16  1  0  0  0  0
 15 32  1  0  0  0  0
 16 17  2  0  0  0  0
 16 33  1  0  0  0  0
 17 18  1  0  0  0  0
 18 34  1  0  0  0  0
 18 35  1  0  0  0  0
 18 36  1  0  0  0  0
 19 20  1  0  0  0  0
 19 37  1  0  0  0  0
 19 38  1  0  0  0  0
 20 39  1  0  0  0  0
 20 40  1  0  0  0  0
M  END
> <s_m_source_file>
AV-unprocessed.smi

> <i_m_source_file_index>
1716

> <i_lp_mmshare_version>
43012

> <i_f3d_flags>
0

> <s_epik_input>
W0NIM11DKD1PKU4xW0NIMl1bQ0gyXVtDSF0oW0NIMl1bQ0gyXTEpW05IXUMoPU8pW05IXWMybltjSF1bY0hdW2NIXWMyW0NIM10=

> <s_epik_cmdline>
J2VwaWtfcHl0aG9uJywgJy1waCcsICc3LjAnLCAnLXRuJywgJzgnLCAnLW1hJywgJzIwMCcsICctbWV0YWxfYmluZGluZycsICctaW1hZScsICc8aW5maWxlLm1hZT4nLCAnLW9tYWUnLCAnPG91dGZpbGUubWFlPic=

> <r_lp_tautomer_probability>
1

> <r_epik_Ionization_Penalty>
5.94044e-05

> <r_epik_Ionization_Penalty_Charging>
0

> <r_epik_Ionization_Penalty_Neutral>
5.94044e-05

> <r_epik_State_Penalty>
-0

> <r_epik_Charging_Adjusted_Penalty>
0

> <i_epik_Tot_Q>
0

> <i_epik_Tot_abs_Q>
0

> <r_epik_Metal_State_Penalty>
-0

> <b_epik_Metal_Only>
0

> <s_lp_Force_Field>
OPLS_2005

> <r_lp_Energy>
26.4914

> <b_lp_Chiralities_Consistent>
1

> <s_lp_Variant>
AV-unprocessed.smi:1716-1

> <Gold.Version>
5.8.1

> <Gold.Id.Protein>
6NUR|6NUR_protein|mol2

> <Gold.PLP.Fitness>
39.2479

> <Gold.PLP.PLP>
-30.2968

> <Gold.PLP.part.hbond>
-3.9648

> <Gold.PLP.part.metal>
0.0000

> <Gold.PLP.part.buried>
-0.5363

> <Gold.PLP.part.nonpolar>
-26.5033

> <Gold.PLP.part.repulsive>
1.0073

> <Gold.PLP.ligand.clash>
0.0000

> <Gold.PLP.ligand.torsion>
0.4635

> <Gold.PLP.Chemscore.Hbond>
2.2879

> <Gold.PLP.Chemscore.CHOScore>
1.0000

> <Gold.PLP.Chemscore.Metal>
0.0000

> <Gold.Chemscore.Hbonds>
donor molecule, donor type, donor heavy atom, donor atom, acceptor molecule, acceptor atom, score
      L1  H     8    29       P1  7948  1.00
      L1  H    11    30       P1  7948  0.92
      L1  C    14    31       P1 10186  0.56

> <Gold.PLP.Chemscore.Internal.Correction>
0.0146

> <Gold.Rescore>
     Score         DG    S(hbond)    S(metal)    S(lipo)     H(rot)  DE(clash)    DE(int)     intcor
     14.34     -18.56       2.13        0.00      72.81       1.00       2.62       1.59       ----

> <Gold.Chemscore.Fitness>
14.3443

> <Gold.Chemscore.DG>
-18.5569

> <Gold.Chemscore.ZeroCoef>
-5.4800

> <Gold.Chemscore.Hbond>
2.1313

> <Gold.Chemscore.Metal>
0.0000

> <Gold.Chemscore.Lipo>
72.8075

> <Gold.Chemscore.Internal_Hbond>
0.0000

> <Gold.Chemscore.DEClash>
2.6197

> <Gold.Chemscore.DEInternal>
1.5928

> <Gold.Chemscore.Rot>
1.0000

> <Gold.Chemscore.Internal.Correction>
   9.000000E+99

> <Gold.Chemscore.Hbonds>
donor molecule, donor type, donor heavy atom, donor atom, acceptor molecule, acceptor atom, score
      L1  H     8    29       P1  7948  1.00
      L1  H    11    30       P1  7948  0.79
      P1  H  8011  8017       L1     3  0.01

> <Gold.Chemscore.Hbond.Weighted>
-7.1184

> <Gold.Chemscore.Metal.Weighted>
-0.0000

> <Gold.Chemscore.Lipo.Weighted>
-8.5185

> <Gold.Chemscore.Internal_Hbond.Weighted>
0.0000

> <Gold.Chemscore.DEClash.Weighted>
2.6197

> <Gold.Chemscore.DEInternal.Weighted>
1.5928

> <Gold.Chemscore.Rot.Weighted>
2.5600

> <Gold.Chemscore.Internal.Correction.Weighted>
   9.000000E+99

> <Gold.Protein.RotatedTorsions>
[ 6907 6896 6895 6894 ] final  135.08 input  -60.11 | X-H torsion
[ 7974 7965 7964 7962 ] final -107.05 input  175.53 | X-H torsion
[ 8008 7997 7996 7995 ] final  -72.04 input   59.86 | X-H torsion
[ 10167 10162 10161 10158 ] final  -60.69 input  -65.29 | X-H torsion
[ 10718 10713 10712 10709 ] final -176.08 input   66.30 | X-H torsion
[ 10763 10752 10751 10750 ] final  171.07 input  -60.55 | X-H torsion
[ 11005 11000 10999 10996 ] final    5.74 input  -57.11 | X-H torsion

> <Gold.Protein.ActiveResidues>
 VAL166  LYS551  ARG553  GLY616  TRP617  ASP618  TYR619  PRO620  LYS621  CYS622 
 ASP623  PHE694  ASN695  SER759  ASP760  ASP761  ALA762  ILE779  LEU786  VAL792 
 PHE793  MET794  SER795  GLU796  ALA797  LYS798  CYS799  TRP800  GLU811  SER814 

> <Gold.Protein.RotatedAtoms>
  152.3044  133.5688  159.5638 H   0  0  0  0  0  0  0  0  0  0  0  0  # atno 6907 bound_to 6896
  150.7292  134.0245  159.3721 H   0  0  0  0  0  0  0  0  0  0  0  0  # atno 6908 bound_to 6896
  151.8142  135.0672  160.0468 H   0  0  0  0  0  0  0  0  0  0  0  0  # atno 6909 bound_to 6896
  145.2102  140.9093  143.3319 H   0  0  0  0  0  0  0  0  0  0  0  0  # atno 7974 bound_to 7965
  154.5135  140.0804  156.8035 H   0  0  0  0  0  0  0  0  0  0  0  0  # atno 8008 bound_to 7997
  155.3733  140.3424  155.4226 H   0  0  0  0  0  0  0  0  0  0  0  0  # atno 8009 bound_to 7997
  156.1600  140.1585  156.8615 H   0  0  0  0  0  0  0  0  0  0  0  0  # atno 8010 bound_to 7997
  140.6055  143.2372  151.5831 H   0  0  0  0  0  0  0  0  0  0  0  0  # atno 10167 bound_to 10162
  156.8093  130.9580  151.3116 H   0  0  0  0  0  0  0  0  0  0  0  0  # atno 10718 bound_to 10713
  154.4067  135.2755  155.2063 H   0  0  0  0  0  0  0  0  0  0  0  0  # atno 10763 bound_to 10752
  154.4066  135.6032  153.5931 H   0  0  0  0  0  0  0  0  0  0  0  0  # atno 10764 bound_to 10752
  152.9831  135.5939  154.4342 H   0  0  0  0  0  0  0  0  0  0  0  0  # atno 10765 bound_to 10752
  140.5674  134.0135  155.7995 H   0  0  0  0  0  0  0  0  0  0  0  0  # atno 11005 bound_to 11000
  144.9864  139.3733  143.6237 LP  0  0  0  0  0  0  0  0  0  0  0  0  # atno 17320 bound_to 7965
  146.3399  139.9027  142.8792 LP  0  0  0  0  0  0  0  0  0  0  0  0  # atno 17321 bound_to 7965
  139.5322  144.2884  152.1172 LP  0  0  0  0  0  0  0  0  0  0  0  0  # atno 17342 bound_to 10162
  140.2073  144.4598  150.6402 LP  0  0  0  0  0  0  0  0  0  0  0  0  # atno 17343 bound_to 10162
  157.6514  130.8887  149.9640 LP  0  0  0  0  0  0  0  0  0  0  0  0  # atno 17370 bound_to 10713
  156.1054  130.3653  150.0143 LP  0  0  0  0  0  0  0  0  0  0  0  0  # atno 17371 bound_to 10713
  141.1077  133.9666  157.2966 LP  0  0  0  0  0  0  0  0  0  0  0  0  # atno 17394 bound_to 11000
  139.9378  135.0194  156.8613 LP  0  0  0  0  0  0  0  0  0  0  0  0  # atno 17395 bound_to 11000

$$$$
