AV-unprocessed.smi:528|AV-procd|sdf|2837|dock7
  -GOLD-   2262023323D 1   1.00000     0.00000
 Structure written by MMmdl.
 45 47  0  0  0  0  0  0  0  0  1 V2000
  151.1896  141.8408  156.4797 C   0  0  0  0  0  0  0  0  0  0  0  0
  150.4408  142.3882  157.7044 C   0  0  2  0  0  0  0  0  0  0  0  0
  149.0035  142.3089  157.4465 N   0  0  0  0  0  0  0  0  0  0  0  0
  148.2288  141.2237  157.6018 C   0  0  0  0  0  0  0  0  0  0  0  0
  148.6611  140.1288  157.9649 O   0  0  0  0  0  0  0  0  0  0  0  0
  146.7369  141.4230  157.2995 C   0  0  0  0  0  0  0  0  0  0  0  0
  145.9054  141.4972  158.5120 N   0  0  0  0  0  0  0  0  0  0  0  0
  146.0519  142.6483  159.3108 C   0  0  0  0  0  0  0  0  0  0  0  0
  145.3756  142.8345  160.4602 C   0  0  0  0  0  0  0  0  0  0  0  0
  145.5266  144.1077  161.2777 C   0  0  0  0  0  0  0  0  0  0  0  0
  146.7955  144.3009  161.6380 F   0  0  0  0  0  0  0  0  0  0  0  0
  145.1350  145.1576  160.5568 F   0  0  0  0  0  0  0  0  0  0  0  0
  144.7798  144.0614  162.3817 F   0  0  0  0  0  0  0  0  0  0  0  0
  144.4381  141.7931  160.8326 C   0  0  0  0  0  0  0  0  0  0  0  0
  144.2828  140.6878  160.0777 C   0  0  0  0  0  0  0  0  0  0  0  0
  145.0497  140.4854  158.8462 C   0  0  0  0  0  0  0  0  0  0  0  0
  144.9299  139.4706  158.1595 O   0  0  0  0  0  0  0  0  0  0  0  0
  150.8329  143.8506  158.0320 C   0  0  1  0  0  0  0  0  0  0  0  0
  150.1515  144.4516  159.2843 C   0  0  0  0  0  0  0  0  0  0  0  0
  151.3304  145.0636  160.0627 C   0  0  1  0  0  0  0  0  0  0  0  0
  152.1461  143.9293  160.7092 C   0  0  0  0  0  0  0  0  0  0  0  0
  152.8601  143.2972  159.5007 C   0  0  0  0  0  0  0  0  0  0  0  0
  152.3304  144.1297  158.3144 C   0  0  2  0  0  0  0  0  0  0  0  0
  152.2568  145.5188  158.9413 C   0  0  0  0  0  0  0  0  0  0  0  0
  152.2651  141.8068  156.6544 H   0  0  0  0  0  0  0  0  0  0  0  0
  151.0140  142.4569  155.5972 H   0  0  0  0  0  0  0  0  0  0  0  0
  150.8682  140.8252  156.2462 H   0  0  0  0  0  0  0  0  0  0  0  0
  150.6887  141.7503  158.5529 H   0  0  0  0  0  0  0  0  0  0  0  0
  148.5566  143.1602  157.1378 H   0  0  0  0  0  0  0  0  0  0  0  0
  146.6135  142.3374  156.7163 H   0  0  0  0  0  0  0  0  0  0  0  0
  146.4044  140.6201  156.6396 H   0  0  0  0  0  0  0  0  0  0  0  0
  146.7606  143.3699  158.9304 H   0  0  0  0  0  0  0  0  0  0  0  0
  143.8532  141.8981  161.7345 H   0  0  0  0  0  0  0  0  0  0  0  0
  143.5771  139.9309  160.3874 H   0  0  0  0  0  0  0  0  0  0  0  0
  150.5489  144.4633  157.1739 H   0  0  0  0  0  0  0  0  0  0  0  0
  149.4295  145.2166  158.9963 H   0  0  0  0  0  0  0  0  0  0  0  0
  149.6234  143.7107  159.8848 H   0  0  0  0  0  0  0  0  0  0  0  0
  151.0335  145.8433  160.7646 H   0  0  0  0  0  0  0  0  0  0  0  0
  152.8728  144.3260  161.4192 H   0  0  0  0  0  0  0  0  0  0  0  0
  151.5149  143.2152  161.2396 H   0  0  0  0  0  0  0  0  0  0  0  0
  153.9397  143.4206  159.5963 H   0  0  0  0  0  0  0  0  0  0  0  0
  152.6672  142.2296  159.4052 H   0  0  0  0  0  0  0  0  0  0  0  0
  152.9603  144.0724  157.4262 H   0  0  0  0  0  0  0  0  0  0  0  0
  151.8090  146.2693  158.2873 H   0  0  0  0  0  0  0  0  0  0  0  0
  153.2205  145.8861  159.2985 H   0  0  0  0  0  0  0  0  0  0  0  0
  1  2  1  0  0  0  0
  1 25  1  0  0  0  0
  1 26  1  0  0  0  0
  1 27  1  0  0  0  0
  2  3  1  0  0  0  0
  2 18  1  0  0  0  0
  2 28  1  0  0  0  0
  3  4  1  0  0  0  0
  3 29  1  0  0  0  0
  4  5  2  0  0  0  0
  4  6  1  0  0  0  0
  6  7  1  0  0  0  0
  6 30  1  0  0  0  0
  6 31  1  0  0  0  0
  7 16  1  0  0  0  0
  7  8  1  0  0  0  0
  8  9  2  0  0  0  0
  8 32  1  0  0  0  0
  9 10  1  0  0  0  0
  9 14  1  0  0  0  0
 10 11  1  0  0  0  0
 10 12  1  0  0  0  0
 10 13  1  0  0  0  0
 14 15  2  0  0  0  0
 14 33  1  0  0  0  0
 15 16  1  0  0  0  0
 15 34  1  0  0  0  0
 16 17  2  0  0  0  0
 18 23  1  0  0  0  0
 18 19  1  0  0  0  0
 18 35  1  0  0  0  0
 19 20  1  0  0  0  0
 19 36  1  0  0  0  0
 19 37  1  0  0  0  0
 20 24  1  0  0  0  0
 20 21  1  0  0  0  0
 20 38  1  0  0  0  0
 21 22  1  0  0  0  0
 21 39  1  0  0  0  0
 21 40  1  0  0  0  0
 22 23  1  0  0  0  0
 22 41  1  0  0  0  0
 22 42  1  0  0  0  0
 23 24  1  0  0  0  0
 23 43  1  0  0  0  0
 24 44  1  0  0  0  0
 24 45  1  0  0  0  0
M  END
> <s_m_source_file>
AV-unprocessed.smi

> <i_m_source_file_index>
528

> <i_lp_mmshare_version>
43012

> <i_f3d_flags>
0

> <s_epik_input>
W0NIMl0xW0NIMl1bQ0BASF0oW0NIMl0yKVtDQEBIXShbQ0gyXVtDQEhdMTIpW0NASF0oW0NIM10pW05IXUMoPU8pW0NIMl1uM1tjSF1jKEMoRikoRilGKVtjSF1bY0hdYzM9Tw==

> <s_epik_cmdline>
J2VwaWtfcHl0aG9uJywgJy1waCcsICc3LjAnLCAnLXRuJywgJzgnLCAnLW1hJywgJzIwMCcsICctbWV0YWxfYmluZGluZycsICctaW1hZScsICc8aW5maWxlLm1hZT4nLCAnLW9tYWUnLCAnPG91dGZpbGUubWFlPic=

> <r_lp_tautomer_probability>
1

> <r_epik_Ionization_Penalty>
4.09479e-08

> <r_epik_Ionization_Penalty_Charging>
1.9321e-08

> <r_epik_Ionization_Penalty_Neutral>
2.16269e-08

> <r_epik_State_Penalty>
-0

> <r_epik_Charging_Adjusted_Penalty>
1.9321e-08

> <i_epik_Tot_Q>
0

> <i_epik_Tot_abs_Q>
0

> <r_epik_Metal_State_Penalty>
-0

> <b_epik_Metal_Only>
0

> <s_lp_Force_Field>
OPLS_2005

> <r_lp_Energy>
63.2054

> <b_lp_Chiralities_Consistent>
1

> <s_lp_Variant>
AV-unprocessed.smi:528-7

> <Gold.Version>
5.8.1

> <Gold.Id.Protein>
6NUR|6NUR_protein|mol2

> <Gold.PLP.Fitness>
47.6063

> <Gold.PLP.PLP>
-47.0233

> <Gold.PLP.part.hbond>
-1.0000

> <Gold.PLP.part.metal>
0.0000

> <Gold.PLP.part.buried>
-7.1973

> <Gold.PLP.part.nonpolar>
-38.4501

> <Gold.PLP.part.repulsive>
0.0519

> <Gold.PLP.ligand.clash>
0.0000

> <Gold.PLP.ligand.torsion>
0.6677

> <Gold.PLP.Chemscore.Hbond>
0.6243

> <Gold.PLP.Chemscore.CHOScore>
0.0000

> <Gold.PLP.Chemscore.Metal>
0.0000

> <Gold.Chemscore.Hbonds>
donor molecule, donor type, donor heavy atom, donor atom, acceptor molecule, acceptor atom, score
      L1  H     3    29       P1  8028  0.54

> <Gold.PLP.Chemscore.Internal.Correction>
0.0457

> <Gold.Rescore>
     Score         DG    S(hbond)    S(metal)    S(lipo)     H(rot)  DE(clash)    DE(int)     intcor
     15.33     -16.51       0.89        0.00     106.29       1.71       0.61       0.56       ----

> <Gold.Chemscore.Fitness>
15.3334

> <Gold.Chemscore.DG>
-16.5053

> <Gold.Chemscore.ZeroCoef>
-5.4800

> <Gold.Chemscore.Hbond>
0.8903

> <Gold.Chemscore.Metal>
0.0000

> <Gold.Chemscore.Lipo>
106.2886

> <Gold.Chemscore.Internal_Hbond>
0.0000

> <Gold.Chemscore.DEClash>
0.6103

> <Gold.Chemscore.DEInternal>
0.5616

> <Gold.Chemscore.Rot>
1.7125

> <Gold.Chemscore.Internal.Correction>
   9.000000E+99

> <Gold.Chemscore.Hbonds>
donor molecule, donor type, donor heavy atom, donor atom, acceptor molecule, acceptor atom, score
      L1  H     3    29       P1  8028  0.18

> <Gold.Chemscore.Hbond.Weighted>
-2.9735

> <Gold.Chemscore.Metal.Weighted>
-0.0000

> <Gold.Chemscore.Lipo.Weighted>
-12.4358

> <Gold.Chemscore.Internal_Hbond.Weighted>
0.0000

> <Gold.Chemscore.DEClash.Weighted>
0.6103

> <Gold.Chemscore.DEInternal.Weighted>
0.5616

> <Gold.Chemscore.Rot.Weighted>
4.3840

> <Gold.Chemscore.Internal.Correction.Weighted>
   9.000000E+99

> <Gold.Protein.RotatedTorsions>
[ 6907 6896 6895 6894 ] final  100.96 input  -60.11 | X-H torsion
[ 7974 7965 7964 7962 ] final  120.84 input  175.53 | X-H torsion
[ 8008 7997 7996 7995 ] final   70.43 input   59.86 | X-H torsion
[ 10167 10162 10161 10158 ] final   -1.56 input  -65.29 | X-H torsion
[ 10718 10713 10712 10709 ] final    0.04 input   66.30 | X-H torsion
[ 10763 10752 10751 10750 ] final  105.04 input  -60.55 | X-H torsion
[ 11005 11000 10999 10996 ] final  -66.41 input  -57.11 | X-H torsion

> <Gold.Protein.ActiveResidues>
 VAL166  LYS551  ARG553  GLY616  TRP617  ASP618  TYR619  PRO620  LYS621  CYS622 
 ASP623  PHE694  ASN695  SER759  ASP760  ASP761  ALA762  ILE779  LEU786  VAL792 
 PHE793  MET794  SER795  GLU796  ALA797  LYS798  CYS799  TRP800  GLU811  SER814 

> <Gold.Protein.RotatedAtoms>
  152.5360  134.0198  159.7976 H   0  0  0  0  0  0  0  0  0  0  0  0  # atno 6907 bound_to 6896
  151.0386  133.5719  159.2660 H   0  0  0  0  0  0  0  0  0  0  0  0  # atno 6908 bound_to 6896
  151.2697  135.0688  159.9183 H   0  0  0  0  0  0  0  0  0  0  0  0  # atno 6909 bound_to 6896
  145.1264  139.3355  143.4688 H   0  0  0  0  0  0  0  0  0  0  0  0  # atno 7974 bound_to 7965
  155.7386  140.3490  155.5093 H   0  0  0  0  0  0  0  0  0  0  0  0  # atno 8008 bound_to 7997
  155.9115  140.1051  157.1297 H   0  0  0  0  0  0  0  0  0  0  0  0  # atno 8009 bound_to 7997
  154.4056  140.1267  156.4550 H   0  0  0  0  0  0  0  0  0  0  0  0  # atno 8010 bound_to 7997
  140.6815  143.6761  150.8144 H   0  0  0  0  0  0  0  0  0  0  0  0  # atno 10167 bound_to 10162
  156.8275  130.5477  149.5690 H   0  0  0  0  0  0  0  0  0  0  0  0  # atno 10718 bound_to 10713
  153.3740  135.3923  155.1809 H   0  0  0  0  0  0  0  0  0  0  0  0  # atno 10763 bound_to 10752
  154.8698  135.3709  154.4942 H   0  0  0  0  0  0  0  0  0  0  0  0  # atno 10764 bound_to 10752
  153.5412  135.7084  153.5696 H   0  0  0  0  0  0  0  0  0  0  0  0  # atno 10765 bound_to 10752
  141.1481  133.6699  156.6135 H   0  0  0  0  0  0  0  0  0  0  0  0  # atno 11005 bound_to 11000
  146.3517  140.1245  142.8599 LP  0  0  0  0  0  0  0  0  0  0  0  0  # atno 17320 bound_to 7965
  145.0683  140.9137  143.4897 LP  0  0  0  0  0  0  0  0  0  0  0  0  # atno 17321 bound_to 7965
  140.0462  143.5296  152.2695 LP  0  0  0  0  0  0  0  0  0  0  0  0  # atno 17342 bound_to 10162
  139.6141  144.7615  151.2886 LP  0  0  0  0  0  0  0  0  0  0  0  0  # atno 17343 bound_to 10162
  156.0953  130.5927  150.9803 LP  0  0  0  0  0  0  0  0  0  0  0  0  # atno 17370 bound_to 10713
  157.6424  131.0908  150.8223 LP  0  0  0  0  0  0  0  0  0  0  0  0  # atno 17371 bound_to 10713
  140.3596  134.7699  157.4524 LP  0  0  0  0  0  0  0  0  0  0  0  0  # atno 17394 bound_to 11000
  140.0796  134.5750  155.8555 LP  0  0  0  0  0  0  0  0  0  0  0  0  # atno 17395 bound_to 11000

$$$$
