AV-unprocessed.smi:1564|AV-procd|sdf|6294|dock5
  -GOLD-   22720 6493D 1   1.00000     0.00000
 Structure written by MMmdl.
 43 44  0  0  0  0  0  0  0  0  2 V2000
  154.0180  141.3199  161.3753 C   0  0  0  0  0  0  0  0  0  0  0  0
  154.0870  140.7957  160.0539 O   0  0  0  0  0  0  0  0  0  0  0  0
  153.1219  141.1796  159.1455 C   0  0  0  0  0  0  0  0  0  0  0  0
  152.5264  142.4479  159.2909 C   0  0  0  0  0  0  0  0  0  0  0  0
  151.5407  142.8482  158.3688 C   0  0  0  0  0  0  0  0  0  0  0  0
  151.1859  141.9661  157.3201 C   0  0  0  0  0  0  0  0  0  0  0  0
  150.1963  142.2432  156.3379 N   0  0  0  0  0  0  0  0  0  0  0  0
  149.3533  141.3885  155.7331 C   0  0  0  0  0  0  0  0  0  0  0  0
  149.2767  140.1811  155.9580 O   0  0  0  0  0  0  0  0  0  0  0  0
  148.5702  142.0215  154.8484 N   0  0  0  0  0  0  0  0  0  0  0  0
  147.5419  141.3718  154.0426 C   0  0  1  0  0  0  0  0  0  0  0  0
  148.0730  140.3102  153.0781 C   0  0  0  0  0  0  0  0  0  0  0  0
  146.9291  139.2898  152.9588 C   0  0  0  0  0  0  0  0  0  0  0  0
  145.8881  139.6795  153.9443 N   0  3  1  0  0  0  0  0  0  0  0  0
  145.1323  138.5460  154.5478 C   0  0  0  0  0  0  0  0  0  0  0  0
  144.5517  137.6244  153.4588 C   0  0  0  0  0  0  0  0  0  0  0  0
  143.9967  139.0425  155.4625 C   0  0  0  0  0  0  0  0  0  0  0  0
  146.5576  140.5845  154.9010 C   0  0  0  0  0  0  0  0  0  0  0  0
  151.8322  140.7134  157.2711 C   0  0  0  0  0  0  0  0  0  0  0  0
  152.7781  140.3237  158.1515 N   0  0  0  0  0  0  0  0  0  0  0  0
  154.8477  140.9268  161.9627 H   0  0  0  0  0  0  0  0  0  0  0  0
  153.0925  141.0267  161.8730 H   0  0  0  0  0  0  0  0  0  0  0  0
  154.0976  142.4080  161.3778 H   0  0  0  0  0  0  0  0  0  0  0  0
  152.8170  143.1018  160.0999 H   0  0  0  0  0  0  0  0  0  0  0  0
  151.0723  143.8116  158.4952 H   0  0  0  0  0  0  0  0  0  0  0  0
  150.0838  143.2187  156.1039 H   0  0  0  0  0  0  0  0  0  0  0  0
  148.6925  143.0163  154.7270 H   0  0  0  0  0  0  0  0  0  0  0  0
  146.9861  142.1247  153.4796 H   0  0  0  0  0  0  0  0  0  0  0  0
  148.3541  140.7361  152.1142 H   0  0  0  0  0  0  0  0  0  0  0  0
  148.9561  139.8223  153.4938 H   0  0  0  0  0  0  0  0  0  0  0  0
  146.4998  139.2864  151.9564 H   0  0  0  0  0  0  0  0  0  0  0  0
  147.3107  138.2879  153.1613 H   0  0  0  0  0  0  0  0  0  0  0  0
  145.8235  137.9612  155.1566 H   0  0  0  0  0  0  0  0  0  0  0  0
  143.9728  136.8127  153.9006 H   0  0  0  0  0  0  0  0  0  0  0  0
  145.3319  137.1624  152.8538 H   0  0  0  0  0  0  0  0  0  0  0  0
  143.8897  138.1727  152.7876 H   0  0  0  0  0  0  0  0  0  0  0  0
  143.4129  138.2064  155.8488 H   0  0  0  0  0  0  0  0  0  0  0  0
  143.3128  139.7004  154.9251 H   0  0  0  0  0  0  0  0  0  0  0  0
  144.3771  139.5858  156.3275 H   0  0  0  0  0  0  0  0  0  0  0  0
  147.0859  139.9994  155.6564 H   0  0  0  0  0  0  0  0  0  0  0  0
  145.8485  141.2407  155.4065 H   0  0  0  0  0  0  0  0  0  0  0  0
  151.5869  140.0000  156.4980 H   0  0  0  0  0  0  0  0  0  0  0  0
  145.2228  140.2501  153.4419 H   0  0  0  0  0  0  0  0  0  0  0  0
  1  2  1  0  0  0  0
  1 21  1  0  0  0  0
  1 22  1  0  0  0  0
  1 23  1  0  0  0  0
  2  3  1  0  0  0  0
  3 20  1  0  0  0  0
  3  4  2  0  0  0  0
  4  5  1  0  0  0  0
  4 24  1  0  0  0  0
  5  6  2  0  0  0  0
  5 25  1  0  0  0  0
  6  7  1  0  0  0  0
  6 19  1  0  0  0  0
  7  8  1  0  0  0  0
  7 26  1  0  0  0  0
  8  9  2  0  0  0  0
  8 10  1  0  0  0  0
 10 11  1  0  0  0  0
 10 27  1  0  0  0  0
 11 18  1  0  0  0  0
 11 12  1  0  0  0  0
 11 28  1  0  0  0  0
 12 13  1  0  0  0  0
 12 29  1  0  0  0  0
 12 30  1  0  0  0  0
 13 14  1  0  0  0  0
 13 31  1  0  0  0  0
 13 32  1  0  0  0  0
 14 15  1  0  0  0  0
 14 18  1  0  0  0  0
 14 43  1  0  0  0  0
 15 16  1  0  0  0  0
 15 17  1  0  0  0  0
 15 33  1  0  0  0  0
 16 34  1  0  0  0  0
 16 35  1  0  0  0  0
 16 36  1  0  0  0  0
 17 37  1  0  0  0  0
 17 38  1  0  0  0  0
 17 39  1  0  0  0  0
 18 40  1  0  0  0  0
 18 41  1  0  0  0  0
 19 20  2  0  0  0  0
 19 42  1  0  0  0  0
M  CHG  1  14   1
M  END
> <s_m_source_file>
AV-unprocessed.smi

> <i_m_source_file_index>
1564

> <i_lp_mmshare_version>
43012

> <i_f3d_flags>
0

> <s_epik_input>
W0NIM11PYzFbY0hdW2NIXWMoW2NIXW4xKVtOSF1DKD1PKVtOSF1bQ0BASF0yW0NIMl1bQ0gyXU4oW0NIMl0yKVtDSF0oW0NIM10pW0NIM10=

> <s_epik_cmdline>
J2VwaWtfcHl0aG9uJywgJy1waCcsICc3LjAnLCAnLXRuJywgJzgnLCAnLW1hJywgJzIwMCcsICctbWV0YWxfYmluZGluZycsICctaW1hZScsICc8aW5maWxlLm1hZT4nLCAnLW9tYWUnLCAnPG91dGZpbGUubWFlPic=

> <r_lp_tautomer_probability>
1

> <r_epik_Ionization_Penalty>
0.000679474

> <r_epik_Ionization_Penalty_Charging>
0.000606352

> <r_epik_Ionization_Penalty_Neutral>
7.31222e-05

> <r_epik_State_Penalty>
0.000382168

> <r_epik_Charging_Adjusted_Penalty>
0.00098852

> <i_epik_Tot_Q>
1

> <i_epik_Tot_abs_Q>
1

> <r_epik_Metal_State_Penalty>
-0

> <b_epik_Metal_Only>
0

> <s_lp_Force_Field>
OPLS_2005

> <r_lp_Energy>
32.3031

> <b_lp_Chiralities_Consistent>
1

> <s_lp_Variant>
AV-unprocessed.smi:1564-2

> <Gold.Version>
5.8.1

> <Gold.Id.Protein>
6NUR|6NUR_protein|mol2

> <Gold.PLP.Fitness>
42.8129

> <Gold.PLP.PLP>
-29.4126

> <Gold.PLP.part.hbond>
-4.0000

> <Gold.PLP.part.metal>
0.0000

> <Gold.PLP.part.buried>
1.4092

> <Gold.PLP.part.nonpolar>
-25.4694

> <Gold.PLP.part.repulsive>
0.2860

> <Gold.PLP.ligand.clash>
0.0000

> <Gold.PLP.ligand.torsion>
0.6437

> <Gold.PLP.Chemscore.Hbond>
4.8882

> <Gold.PLP.Chemscore.CHOScore>
0.0000

> <Gold.PLP.Chemscore.Metal>
0.0000

> <Gold.Chemscore.Hbonds>
donor molecule, donor type, donor heavy atom, donor atom, acceptor molecule, acceptor atom, score
      L1  H     7    26       P1  8028  0.99
      L1  H    10    27       P1  8028  0.91
      L1  H    14    43       P1 10175  2.00
      P1  H  7997  8009       L1    20  0.69

> <Gold.PLP.Chemscore.Internal.Correction>
0.0233

> <Gold.Rescore>
     Score         DG    S(hbond)    S(metal)    S(lipo)     H(rot)  DE(clash)    DE(int)     intcor
     17.46     -22.32       3.43        0.00      77.72       1.44       1.86       3.01       ----

> <Gold.Chemscore.Fitness>
17.4579

> <Gold.Chemscore.DG>
-22.3223

> <Gold.Chemscore.ZeroCoef>
-5.4800

> <Gold.Chemscore.Hbond>
3.4271

> <Gold.Chemscore.Metal>
0.0000

> <Gold.Chemscore.Lipo>
77.7239

> <Gold.Chemscore.Internal_Hbond>
0.0000

> <Gold.Chemscore.DEClash>
1.8582

> <Gold.Chemscore.DEInternal>
3.0062

> <Gold.Chemscore.Rot>
1.4445

> <Gold.Chemscore.Internal.Correction>
   9.000000E+99

> <Gold.Chemscore.Hbonds>
donor molecule, donor type, donor heavy atom, donor atom, acceptor molecule, acceptor atom, score
      L1  H     7    26       P1  8028  0.92
      L1  H    10    27       P1  8028  0.89
      L1  H    14    43       P1 10175  0.97
      P1  H  7997  8009       L1    20  0.15

> <Gold.Chemscore.Hbond.Weighted>
-11.4464

> <Gold.Chemscore.Metal.Weighted>
-0.0000

> <Gold.Chemscore.Lipo.Weighted>
-9.0937

> <Gold.Chemscore.Internal_Hbond.Weighted>
0.0000

> <Gold.Chemscore.DEClash.Weighted>
1.8582

> <Gold.Chemscore.DEInternal.Weighted>
3.0062

> <Gold.Chemscore.Rot.Weighted>
3.6979

> <Gold.Chemscore.Internal.Correction.Weighted>
   9.000000E+99

> <Gold.Protein.RotatedTorsions>
[ 6907 6896 6895 6894 ] final -106.43 input  -60.11 | X-H torsion
[ 7974 7965 7964 7962 ] final -142.01 input  175.53 | X-H torsion
[ 8008 7997 7996 7995 ] final  165.09 input   59.86 | X-H torsion
[ 10167 10162 10161 10158 ] final  -20.21 input  -65.29 | X-H torsion
[ 10718 10713 10712 10709 ] final -178.00 input   66.30 | X-H torsion
[ 10763 10752 10751 10750 ] final  105.66 input  -60.55 | X-H torsion
[ 11005 11000 10999 10996 ] final   28.22 input  -57.11 | X-H torsion

> <Gold.Protein.ActiveResidues>
 VAL166  LYS551  ARG553  GLY616  TRP617  ASP618  TYR619  PRO620  LYS621  CYS622 
 ASP623  PHE694  ASN695  SER759  ASP760  ASP761  ALA762  ILE779  LEU786  VAL792 
 PHE793  MET794  SER795  GLU796  ALA797  LYS798  CYS799  TRP800  GLU811  SER814 

> <Gold.Protein.RotatedAtoms>
  150.7389  133.9977  159.3627 H   0  0  0  0  0  0  0  0  0  0  0  0  # atno 6907 bound_to 6896
  151.7929  135.0728  160.0399 H   0  0  0  0  0  0  0  0  0  0  0  0  # atno 6908 bound_to 6896
  152.3195  133.5802  159.5771 H   0  0  0  0  0  0  0  0  0  0  0  0  # atno 6909 bound_to 6896
  144.8476  140.6010  143.5411 H   0  0  0  0  0  0  0  0  0  0  0  0  # atno 7974 bound_to 7965
  156.1829  140.1679  156.8241 H   0  0  0  0  0  0  0  0  0  0  0  0  # atno 8008 bound_to 7997
  154.5380  140.0742  156.8494 H   0  0  0  0  0  0  0  0  0  0  0  0  # atno 8009 bound_to 7997
  155.3272  140.3377  155.4242 H   0  0  0  0  0  0  0  0  0  0  0  0  # atno 8010 bound_to 7997
  140.7274  143.4744  151.0202 H   0  0  0  0  0  0  0  0  0  0  0  0  # atno 10167 bound_to 10162
  156.8379  130.9676  151.3102 H   0  0  0  0  0  0  0  0  0  0  0  0  # atno 10718 bound_to 10713
  153.3824  135.3902  155.1866 H   0  0  0  0  0  0  0  0  0  0  0  0  # atno 10763 bound_to 10752
  154.8709  135.3728  154.4840 H   0  0  0  0  0  0  0  0  0  0  0  0  # atno 10764 bound_to 10752
  153.5318  135.7085  153.5740 H   0  0  0  0  0  0  0  0  0  0  0  0  # atno 10765 bound_to 10752
  140.3179  134.2576  155.7722 H   0  0  0  0  0  0  0  0  0  0  0  0  # atno 11005 bound_to 11000
  145.4565  139.1517  143.3889 LP  0  0  0  0  0  0  0  0  0  0  0  0  # atno 17320 bound_to 7965
  146.2757  140.4694  142.8796 LP  0  0  0  0  0  0  0  0  0  0  0  0  # atno 17321 bound_to 7965
  139.8439  143.7528  152.3180 LP  0  0  0  0  0  0  0  0  0  0  0  0  # atno 17342 bound_to 10162
  139.7686  144.7484  151.0258 LP  0  0  0  0  0  0  0  0  0  0  0  0  # atno 17343 bound_to 10162
  157.6372  130.8776  149.9380 LP  0  0  0  0  0  0  0  0  0  0  0  0  # atno 17370 bound_to 10713
  156.0897  130.3664  150.0418 LP  0  0  0  0  0  0  0  0  0  0  0  0  # atno 17371 bound_to 10713
  141.2093  133.7752  157.0003 LP  0  0  0  0  0  0  0  0  0  0  0  0  # atno 17394 bound_to 11000
  140.0967  134.9560  157.1861 LP  0  0  0  0  0  0  0  0  0  0  0  0  # atno 17395 bound_to 11000

$$$$
