AV-unprocessed.smi:66|AV-procd|sdf|621|dock3
  -GOLD-   2262016513D 1   1.00000     0.00000
 Structure written by MMmdl.
 28 30  0  0  0  0  0  0  0  0  2 V2000
  152.2049  137.5147  154.5440 O   0  0  0  0  0  0  0  0  0  0  0  0
  152.1755  138.7117  154.9044 C   0  0  0  0  0  0  0  0  0  0  0  0
  153.1151  139.5282  154.7770 O   0  5  0  0  0  0  0  0  0  0  0  0
  150.8701  139.2037  155.5516 C   0  0  2  0  0  0  0  0  0  0  0  0
  149.6884  139.1476  154.5669 C   0  0  0  0  0  0  0  0  0  0  0  0
  149.6194  140.5670  154.0040 C   0  0  1  0  0  0  0  0  0  0  0  0
  148.3382  140.8943  153.5085 O   0  0  0  0  0  0  0  0  0  0  0  0
  150.0184  141.4256  155.2044 C   0  0  0  0  0  0  0  0  0  0  0  0
  150.9629  140.6073  155.9562 N   0  0  0  0  0  0  0  0  0  0  0  0
  151.4178  141.0195  157.2288 C   0  0  0  0  0  0  0  0  0  0  0  0
  152.1968  140.1668  157.9380 N   0  0  0  0  0  0  0  0  0  0  0  0
  152.6360  140.5520  159.1428 C   0  0  0  0  0  0  0  0  0  0  0  0
  152.4178  141.7036  159.7945 N   0  0  0  0  0  0  0  0  0  0  0  0
  151.6437  142.5597  159.1148 C   0  0  0  0  0  0  0  0  0  0  0  0
  151.2515  143.8187  159.5491 N   0  0  0  0  0  0  0  0  0  0  0  0
  150.5036  144.2394  158.5310 C   0  0  0  0  0  0  0  0  0  0  0  0
  150.3788  143.3953  157.4950 N   0  0  0  0  0  0  0  0  0  0  0  0
  151.1132  142.2662  157.8215 C   0  0  0  0  0  0  0  0  0  0  0  0
  149.8308  143.5632  156.6613 H   0  0  0  0  0  0  0  0  0  0  0  0
  150.6391  138.5749  156.4118 H   0  0  0  0  0  0  0  0  0  0  0  0
  149.7978  138.3921  153.7874 H   0  0  0  0  0  0  0  0  0  0  0  0
  148.7755  138.9180  155.1186 H   0  0  0  0  0  0  0  0  0  0  0  0
  150.3542  140.6819  153.2058 H   0  0  0  0  0  0  0  0  0  0  0  0
  148.3179  140.6974  152.5845 H   0  0  0  0  0  0  0  0  0  0  0  0
  150.4614  142.3717  154.8912 H   0  0  0  0  0  0  0  0  0  0  0  0
  149.1517  141.6404  155.8321 H   0  0  0  0  0  0  0  0  0  0  0  0
  153.2543  139.8349  159.6621 H   0  0  0  0  0  0  0  0  0  0  0  0
  150.0205  145.2053  158.5393 H   0  0  0  0  0  0  0  0  0  0  0  0
  1  2  2  0  0  0  0
  2  3  1  0  0  0  0
  2  4  1  0  0  0  0
  4  9  1  0  0  0  0
  4  5  1  0  0  0  0
  4 20  1  0  0  0  0
  5  6  1  0  0  0  0
  5 21  1  0  0  0  0
  5 22  1  0  0  0  0
  6  7  1  0  0  0  0
  6  8  1  0  0  0  0
  6 23  1  0  0  0  0
  7 24  1  0  0  0  0
  8  9  1  0  0  0  0
  8 25  1  0  0  0  0
  8 26  1  0  0  0  0
  9 10  1  0  0  0  0
 10 18  1  0  0  0  0
 10 11  2  0  0  0  0
 11 12  1  0  0  0  0
 12 13  2  0  0  0  0
 12 27  1  0  0  0  0
 13 14  1  0  0  0  0
 14 18  2  0  0  0  0
 14 15  1  0  0  0  0
 15 16  2  0  0  0  0
 16 17  1  0  0  0  0
 16 28  1  0  0  0  0
 17 19  1  0  0  0  0
 17 18  1  0  0  0  0
M  CHG  1   3  -1
M  END
> <s_m_source_file>
AV-unprocessed.smi

> <i_m_source_file_index>
66

> <i_lp_mmshare_version>
43012

> <i_f3d_flags>
0

> <s_epik_input>
Tz1DKFtPSF0pW0NAQEhdMVtDSDJdW0NAQEhdKFtPSF0pW0NIMl1OMWMobltjSF1uMiljKGMyMylbbkhdW2NIXW4z

> <s_epik_cmdline>
J2VwaWtfcHl0aG9uJywgJy1waCcsICc3LjAnLCAnLXRuJywgJzgnLCAnLW1hJywgJzIwMCcsICctbWV0YWxfYmluZGluZycsICctaW1hZScsICc8aW5maWxlLm1hZT4nLCAnLW9tYWUnLCAnPG91dGZpbGUubWFlPic=

> <r_lp_tautomer_probability>
0.0419193

> <r_epik_Ionization_Penalty>
0.0157405

> <r_epik_Ionization_Penalty_Charging>
0.000248217

> <r_epik_Ionization_Penalty_Neutral>
0.0154923

> <r_epik_State_Penalty>
1.99742

> <r_epik_Charging_Adjusted_Penalty>
1.99767

> <i_epik_Tot_Q>
-1

> <i_epik_Tot_abs_Q>
1

> <r_epik_Metal_State_Penalty>
2.31035

> <b_epik_Metal_Only>
0

> <s_lp_Force_Field>
OPLS_2005

> <r_lp_Energy>
19.7315

> <b_lp_Chiralities_Consistent>
1

> <s_lp_Variant>
AV-unprocessed.smi:66-5

> <Gold.Version>
5.8.1

> <Gold.Id.Protein>
6NUR|6NUR_protein|mol2

> <Gold.PLP.Fitness>
49.8898

> <Gold.PLP.PLP>
-31.3798

> <Gold.PLP.part.hbond>
-5.0000

> <Gold.PLP.part.metal>
0.0000

> <Gold.PLP.part.buried>
-1.5550

> <Gold.PLP.part.nonpolar>
-24.7158

> <Gold.PLP.part.repulsive>
0.2010

> <Gold.PLP.ligand.clash>
0.0000

> <Gold.PLP.ligand.torsion>
0.1309

> <Gold.PLP.Chemscore.Hbond>
5.1955

> <Gold.PLP.Chemscore.CHOScore>
1.0000

> <Gold.PLP.Chemscore.Metal>
0.0000

> <Gold.Chemscore.Hbonds>
donor molecule, donor type, donor heavy atom, donor atom, acceptor molecule, acceptor atom, score
      L1  H     7    24       P1  7957  0.77
      L1  H    17    19       P1  8028  0.94
      P1  H  7989  7998       L1     3  0.04
      P1  H  7997  8008       L1     3  2.00
      P1  H 10752 10765       L1     1  1.54
      L1  C    16    28       P1  8029  0.89

> <Gold.PLP.Chemscore.Internal.Correction>
0.1852

> <Gold.Rescore>
     Score         DG    S(hbond)    S(metal)    S(lipo)     H(rot)  DE(clash)    DE(int)     intcor
     14.43     -16.54       3.40        0.00      36.37       1.78       1.17       0.94       ----

> <Gold.Chemscore.Fitness>
14.4331

> <Gold.Chemscore.DG>
-16.5390

> <Gold.Chemscore.ZeroCoef>
-5.4800

> <Gold.Chemscore.Hbond>
3.4045

> <Gold.Chemscore.Metal>
0.0000

> <Gold.Chemscore.Lipo>
36.3727

> <Gold.Chemscore.Internal_Hbond>
0.0000

> <Gold.Chemscore.DEClash>
1.1685

> <Gold.Chemscore.DEInternal>
0.9374

> <Gold.Chemscore.Rot>
1.7842

> <Gold.Chemscore.Internal.Correction>
   9.000000E+99

> <Gold.Chemscore.Hbonds>
donor molecule, donor type, donor heavy atom, donor atom, acceptor molecule, acceptor atom, score
      L1  H     7    24       P1  7957  0.73
      L1  H    17    19       P1  8028  0.91
      P1  H  7997  8008       L1     3  1.00
      P1  H 10752 10765       L1     1  0.73

> <Gold.Chemscore.Hbond.Weighted>
-11.3711

> <Gold.Chemscore.Metal.Weighted>
-0.0000

> <Gold.Chemscore.Lipo.Weighted>
-4.2556

> <Gold.Chemscore.Internal_Hbond.Weighted>
0.0000

> <Gold.Chemscore.DEClash.Weighted>
1.1685

> <Gold.Chemscore.DEInternal.Weighted>
0.9374

> <Gold.Chemscore.Rot.Weighted>
4.5676

> <Gold.Chemscore.Internal.Correction.Weighted>
   9.000000E+99

> <Gold.Protein.RotatedTorsions>
[ 6907 6896 6895 6894 ] final  106.40 input  -60.11 | X-H torsion
[ 7974 7965 7964 7962 ] final   95.61 input  175.53 | X-H torsion
[ 8008 7997 7996 7995 ] final   -8.85 input   59.86 | X-H torsion
[ 10167 10162 10161 10158 ] final -175.28 input  -65.29 | X-H torsion
[ 10718 10713 10712 10709 ] final   73.29 input   66.30 | X-H torsion
[ 10763 10752 10751 10750 ] final  160.00 input  -60.55 | X-H torsion
[ 11005 11000 10999 10996 ] final   21.42 input  -57.11 | X-H torsion

> <Gold.Protein.ActiveResidues>
 VAL166  LYS551  ARG553  GLY616  TRP617  ASP618  TYR619  PRO620  LYS621  CYS622 
 ASP623  PHE694  ASN695  SER759  ASP760  ASP761  ALA762  ILE779  LEU786  VAL792 
 PHE793  MET794  SER795  GLU796  ALA797  LYS798  CYS799  TRP800  GLU811  SER814 

> <Gold.Protein.RotatedAtoms>
  152.5195  133.9387  159.7615 H   0  0  0  0  0  0  0  0  0  0  0  0  # atno 6907 bound_to 6896
  150.9722  133.6324  159.2743 H   0  0  0  0  0  0  0  0  0  0  0  0  # atno 6908 bound_to 6896
  151.3531  135.0894  159.9462 H   0  0  0  0  0  0  0  0  0  0  0  0  # atno 6909 bound_to 6896
  145.4499  139.2294  143.3045 H   0  0  0  0  0  0  0  0  0  0  0  0  # atno 7974 bound_to 7965
  154.5702  140.2370  155.8203 H   0  0  0  0  0  0  0  0  0  0  0  0  # atno 8008 bound_to 7997
  156.2101  140.3028  155.9671 H   0  0  0  0  0  0  0  0  0  0  0  0  # atno 8009 bound_to 7997
  155.2726  140.0419  157.2999 H   0  0  0  0  0  0  0  0  0  0  0  0  # atno 8010 bound_to 7997
  139.5589  144.1919  152.1206 H   0  0  0  0  0  0  0  0  0  0  0  0  # atno 10167 bound_to 10162
  157.6541  130.9621  150.1049 H   0  0  0  0  0  0  0  0  0  0  0  0  # atno 10718 bound_to 10713
  154.2406  135.2775  155.2855 H   0  0  0  0  0  0  0  0  0  0  0  0  # atno 10763 bound_to 10752
  154.5548  135.5664  153.6957 H   0  0  0  0  0  0  0  0  0  0  0  0  # atno 10764 bound_to 10752
  153.0000  135.6283  154.2550 H   0  0  0  0  0  0  0  0  0  0  0  0  # atno 10765 bound_to 10752
  140.3918  134.1811  155.7662 H   0  0  0  0  0  0  0  0  0  0  0  0  # atno 11005 bound_to 11000
  146.2510  140.5257  142.8893 LP  0  0  0  0  0  0  0  0  0  0  0  0  # atno 17320 bound_to 7965
  144.8068  140.6314  143.6441 LP  0  0  0  0  0  0  0  0  0  0  0  0  # atno 17321 bound_to 7965
  140.1428  144.5186  150.6733 LP  0  0  0  0  0  0  0  0  0  0  0  0  # atno 17342 bound_to 10162
  140.6866  143.2353  151.5243 LP  0  0  0  0  0  0  0  0  0  0  0  0  # atno 17343 bound_to 10162
  156.1961  130.3657  149.8847 LP  0  0  0  0  0  0  0  0  0  0  0  0  # atno 17370 bound_to 10713
  156.6763  130.8840  151.3569 LP  0  0  0  0  0  0  0  0  0  0  0  0  # atno 17371 bound_to 10713
  141.1888  133.8252  157.0980 LP  0  0  0  0  0  0  0  0  0  0  0  0  # atno 17394 bound_to 11000
  140.0401  134.9858  157.0946 LP  0  0  0  0  0  0  0  0  0  0  0  0  # atno 17395 bound_to 11000

$$$$
