AV-unprocessed.smi:227|AV-procd|sdf|1731|dock10
  -GOLD-   2262020223D 1   1.00000     0.00000
 Structure written by MMmdl.
 54 58  0  0  0  0  0  0  0  0  1 V2000
  149.8817  133.5309  157.9967 O   0  0  0  0  0  0  0  0  0  0  0  0
  148.8391  134.4834  157.9336 C   0  0  0  0  0  0  0  0  0  0  0  0
  147.7610  134.2369  159.0220 C   0  0  2  0  0  0  0  0  0  0  0  0
  146.3248  134.5341  158.5132 C   0  0  0  0  0  0  0  0  0  0  0  0
  146.0881  134.1072  157.1463 N   0  0  0  0  0  0  0  0  0  0  0  0
  146.2554  132.8387  156.6430 C   0  0  0  0  0  0  0  0  0  0  0  0
  146.0008  132.7105  155.3700 N   0  0  0  0  0  0  0  0  0  0  0  0
  145.6342  133.9879  154.9607 C   0  0  0  0  0  0  0  0  0  0  0  0
  145.2658  134.5701  153.7126 C   0  0  0  0  0  0  0  0  0  0  0  0
  145.2266  133.8848  152.5376 N   0  0  0  0  0  0  0  0  0  0  0  0
  144.0405  133.9061  151.6949 C   0  0  2  0  0  0  0  0  0  0  0  0
  144.3731  132.8386  150.6383 C   0  0  0  0  0  0  0  0  0  0  0  0
  145.8916  133.0286  150.4874 C   0  0  0  0  0  0  0  0  0  0  0  0
  146.1488  134.1983  151.4549 C   0  0  1  0  0  0  0  0  0  0  0  0
  145.5948  135.4956  150.8121 C   0  0  2  0  0  0  0  0  0  0  0  0
  146.1610  136.7954  151.4174 C   0  0  0  0  0  0  0  0  0  0  0  0
  146.1858  137.8162  150.4426 O   0  0  0  0  0  0  0  0  0  0  0  0
  144.0812  135.3011  151.0363 C   0  0  0  0  0  0  0  0  0  0  0  0
  144.9327  135.8885  153.7164 N   0  0  0  0  0  0  0  0  0  0  0  0
  144.9903  136.6006  154.8448 C   0  0  0  0  0  0  0  0  0  0  0  0
  145.3469  136.1998  156.0656 N   0  0  0  0  0  0  0  0  0  0  0  0
  145.6600  134.8729  156.0764 C   0  0  0  0  0  0  0  0  0  0  0  0
  148.0555  135.0623  160.3025 C   0  0  2  0  0  0  0  0  0  0  0  0
  147.1099  134.8099  161.4663 C   0  0  0  0  0  0  0  0  0  0  0  0
  147.3275  136.0399  162.3410 C   0  0  0  0  0  0  0  0  0  0  0  0
  147.6546  137.0974  161.4477 O   0  0  0  0  0  0  0  0  0  0  0  0
  147.8834  136.5778  160.1425 C   0  0  0  0  0  0  0  0  0  0  0  0
  150.1238  133.2905  157.1151 H   0  0  0  0  0  0  0  0  0  0  0  0
  149.3129  135.4558  158.0538 H   0  0  0  0  0  0  0  0  0  0  0  0
  148.3936  134.4758  156.9383 H   0  0  0  0  0  0  0  0  0  0  0  0
  147.8064  133.1832  159.3026 H   0  0  0  0  0  0  0  0  0  0  0  0
  145.5836  134.0371  159.1389 H   0  0  0  0  0  0  0  0  0  0  0  0
  146.1170  135.6024  158.5832 H   0  0  0  0  0  0  0  0  0  0  0  0
  146.5857  132.0097  157.2518 H   0  0  0  0  0  0  0  0  0  0  0  0
  143.1037  133.6998  152.2138 H   0  0  0  0  0  0  0  0  0  0  0  0
  144.1463  131.8379  151.0078 H   0  0  0  0  0  0  0  0  0  0  0  0
  143.8307  132.9886  149.7040 H   0  0  0  0  0  0  0  0  0  0  0  0
  146.4221  132.1331  150.8139 H   0  0  0  0  0  0  0  0  0  0  0  0
  146.1949  133.2441  149.4624 H   0  0  0  0  0  0  0  0  0  0  0  0
  147.2000  134.2654  151.7287 H   0  0  0  0  0  0  0  0  0  0  0  0
  145.8232  135.4965  149.7448 H   0  0  0  0  0  0  0  0  0  0  0  0
  145.5713  137.1400  152.2661 H   0  0  0  0  0  0  0  0  0  0  0  0
  147.1778  136.6347  151.7766 H   0  0  0  0  0  0  0  0  0  0  0  0
  145.2967  138.0783  150.2590 H   0  0  0  0  0  0  0  0  0  0  0  0
  143.5086  135.3458  150.1092 H   0  0  0  0  0  0  0  0  0  0  0  0
  143.6785  136.0583  151.7105 H   0  0  0  0  0  0  0  0  0  0  0  0
  144.7175  137.6415  154.7550 H   0  0  0  0  0  0  0  0  0  0  0  0
  149.0756  134.8629  160.6356 H   0  0  0  0  0  0  0  0  0  0  0  0
  146.0764  134.7780  161.1181 H   0  0  0  0  0  0  0  0  0  0  0  0
  147.3171  133.8861  162.0063 H   0  0  0  0  0  0  0  0  0  0  0  0
  146.4516  136.2818  162.9432 H   0  0  0  0  0  0  0  0  0  0  0  0
  148.1703  135.8830  163.0150 H   0  0  0  0  0  0  0  0  0  0  0  0
  148.7513  137.0524  159.6841 H   0  0  0  0  0  0  0  0  0  0  0  0
  147.0110  136.8054  159.5281 H   0  0  0  0  0  0  0  0  0  0  0  0
  1  2  1  0  0  0  0
  1 28  1  0  0  0  0
  2  3  1  0  0  0  0
  2 29  1  0  0  0  0
  2 30  1  0  0  0  0
  3  4  1  0  0  0  0
  3 23  1  0  0  0  0
  3 31  1  0  0  0  0
  4  5  1  0  0  0  0
  4 32  1  0  0  0  0
  4 33  1  0  0  0  0
  5 22  1  0  0  0  0
  5  6  1  0  0  0  0
  6  7  2  0  0  0  0
  6 34  1  0  0  0  0
  7  8  1  0  0  0  0
  8 22  2  0  0  0  0
  8  9  1  0  0  0  0
  9 10  1  0  0  0  0
  9 19  2  0  0  0  0
 10 14  1  0  0  0  0
 10 11  1  0  0  0  0
 11 18  1  0  0  0  0
 11 12  1  0  0  0  0
 11 35  1  0  0  0  0
 12 13  1  0  0  0  0
 12 36  1  0  0  0  0
 12 37  1  0  0  0  0
 13 14  1  0  0  0  0
 13 38  1  0  0  0  0
 13 39  1  0  0  0  0
 14 15  1  0  0  0  0
 14 40  1  0  0  0  0
 15 16  1  0  0  0  0
 15 18  1  0  0  0  0
 15 41  1  0  0  0  0
 16 17  1  0  0  0  0
 16 42  1  0  0  0  0
 16 43  1  0  0  0  0
 17 44  1  0  0  0  0
 18 45  1  0  0  0  0
 18 46  1  0  0  0  0
 19 20  1  0  0  0  0
 20 21  2  0  0  0  0
 20 47  1  0  0  0  0
 21 22  1  0  0  0  0
 23 27  1  0  0  0  0
 23 24  1  0  0  0  0
 23 48  1  0  0  0  0
 24 25  1  0  0  0  0
 24 49  1  0  0  0  0
 24 50  1  0  0  0  0
 25 26  1  0  0  0  0
 25 51  1  0  0  0  0
 25 52  1  0  0  0  0
 26 27  1  0  0  0  0
 27 53  1  0  0  0  0
 27 54  1  0  0  0  0
M  END
> <s_m_source_file>
AV-unprocessed.smi

> <i_m_source_file_index>
227

> <i_lp_mmshare_version>
43012

> <i_f3d_flags>
0

> <s_epik_input>
W0NIMl0xT1tDSDJdW0NIMl1bQ0BIXTFbQ0BIXShbQ0gyXVtPSF0pW0NIMl1uKFtjSF1uMiljKGMyMyluW2NIXW5jM04oW0NASF00NSlbQ0BASF0oW0NIMl1bQ0gyXTQpW0NASF0oW0NIMl01KVtDSDJdW09IXQ==

> <s_epik_cmdline>
J2VwaWtfcHl0aG9uJywgJy1waCcsICc3LjAnLCAnLXRuJywgJzgnLCAnLW1hJywgJzIwMCcsICctbWV0YWxfYmluZGluZycsICctaW1hZScsICc8aW5maWxlLm1hZT4nLCAnLW9tYWUnLCAnPG91dGZpbGUubWFlPic=

> <r_lp_tautomer_probability>
1

> <r_epik_Ionization_Penalty>
0.0055791

> <r_epik_Ionization_Penalty_Charging>
0

> <r_epik_Ionization_Penalty_Neutral>
0.0055791

> <r_epik_State_Penalty>
0.00401299

> <r_epik_Charging_Adjusted_Penalty>
0.00401299

> <i_epik_Tot_Q>
0

> <i_epik_Tot_abs_Q>
0

> <r_epik_Metal_State_Penalty>
-0

> <b_epik_Metal_Only>
0

> <s_lp_Force_Field>
OPLS_2005

> <r_lp_Energy>
88.0051

> <b_lp_Chiralities_Consistent>
1

> <s_lp_Variant>
AV-unprocessed.smi:227-5

> <Gold.Version>
5.8.1

> <Gold.Id.Protein>
6NUR|6NUR_protein|mol2

> <Gold.PLP.Fitness>
47.3607

> <Gold.PLP.PLP>
-35.5606

> <Gold.PLP.part.hbond>
-4.9904

> <Gold.PLP.part.metal>
0.0000

> <Gold.PLP.part.buried>
-4.1048

> <Gold.PLP.part.nonpolar>
-26.1130

> <Gold.PLP.part.repulsive>
0.2430

> <Gold.PLP.ligand.clash>
0.0000

> <Gold.PLP.ligand.torsion>
1.1934

> <Gold.PLP.Chemscore.Hbond>
4.6640

> <Gold.PLP.Chemscore.CHOScore>
0.0000

> <Gold.PLP.Chemscore.Metal>
0.0000

> <Gold.Chemscore.Hbonds>
donor molecule, donor type, donor heavy atom, donor atom, acceptor molecule, acceptor atom, score
      L1  H    17    44       P1 10171  1.00
      P1  H  6896  6909       L1     1  1.00
      P1  H  6931  6943       L1    26  1.00
      P1  H  6934  6947       L1    26  0.76
      P1  H  7954  7966       L1    17  0.81

> <Gold.PLP.Chemscore.Internal.Correction>
0.1949

> <Gold.Rescore>
     Score         DG    S(hbond)    S(metal)    S(lipo)     H(rot)  DE(clash)    DE(int)     intcor
     12.85     -19.25       4.06        0.00      80.58       3.61       1.63       4.77       ----

> <Gold.Chemscore.Fitness>
12.8454

> <Gold.Chemscore.DG>
-19.2498

> <Gold.Chemscore.ZeroCoef>
-5.4800

> <Gold.Chemscore.Hbond>
4.0648

> <Gold.Chemscore.Metal>
0.0000

> <Gold.Chemscore.Lipo>
80.5767

> <Gold.Chemscore.Internal_Hbond>
0.0000

> <Gold.Chemscore.DEClash>
1.6314

> <Gold.Chemscore.DEInternal>
4.7731

> <Gold.Chemscore.Rot>
3.6071

> <Gold.Chemscore.Internal.Correction>
   9.000000E+99

> <Gold.Chemscore.Hbonds>
donor molecule, donor type, donor heavy atom, donor atom, acceptor molecule, acceptor atom, score
      L1  H    17    44       P1 10171  0.97
      P1  H  6896  6909       L1     1  0.92
      P1  H  6931  6943       L1    26  0.69
      P1  H  6934  6947       L1    26  0.16
      P1  H  7954  7966       L1    17  0.31

> <Gold.Chemscore.Hbond.Weighted>
-13.5766

> <Gold.Chemscore.Metal.Weighted>
-0.0000

> <Gold.Chemscore.Lipo.Weighted>
-9.4275

> <Gold.Chemscore.Internal_Hbond.Weighted>
0.0000

> <Gold.Chemscore.DEClash.Weighted>
1.6314

> <Gold.Chemscore.DEInternal.Weighted>
4.7731

> <Gold.Chemscore.Rot.Weighted>
9.2342

> <Gold.Chemscore.Internal.Correction.Weighted>
   9.000000E+99

> <Gold.Protein.RotatedTorsions>
[ 6907 6896 6895 6894 ] final  -17.64 input  -60.11 | X-H torsion
[ 7974 7965 7964 7962 ] final  148.55 input  175.53 | X-H torsion
[ 8008 7997 7996 7995 ] final -110.17 input   59.86 | X-H torsion
[ 10167 10162 10161 10158 ] final -125.67 input  -65.29 | X-H torsion
[ 10718 10713 10712 10709 ] final   55.24 input   66.30 | X-H torsion
[ 10763 10752 10751 10750 ] final  130.43 input  -60.55 | X-H torsion
[ 11005 11000 10999 10996 ] final   -4.94 input  -57.11 | X-H torsion

> <Gold.Protein.ActiveResidues>
 VAL166  LYS551  ARG553  GLY616  TRP617  ASP618  TYR619  PRO620  LYS621  CYS622 
 ASP623  PHE694  ASN695  SER759  ASP760  ASP761  ALA762  ILE779  LEU786  VAL792 
 PHE793  MET794  SER795  GLU796  ALA797  LYS798  CYS799  TRP800  GLU811  SER814 

> <Gold.Protein.RotatedAtoms>
  151.2903  135.0740  159.9201 H   0  0  0  0  0  0  0  0  0  0  0  0  # atno 6907 bound_to 6896
  152.5317  133.9938  159.7873 H   0  0  0  0  0  0  0  0  0  0  0  0  # atno 6908 bound_to 6896
  151.0207  133.5828  159.2702 H   0  0  0  0  0  0  0  0  0  0  0  0  # atno 6909 bound_to 6896
  144.8505  139.6168  143.5976 H   0  0  0  0  0  0  0  0  0  0  0  0  # atno 7974 bound_to 7965
  154.9704  140.0397  157.2232 H   0  0  0  0  0  0  0  0  0  0  0  0  # atno 8008 bound_to 7997
  154.7806  140.2818  155.6044 H   0  0  0  0  0  0  0  0  0  0  0  0  # atno 8009 bound_to 7997
  156.2935  140.2592  156.2630 H   0  0  0  0  0  0  0  0  0  0  0  0  # atno 8010 bound_to 7997
  139.9797  143.5756  152.2383 H   0  0  0  0  0  0  0  0  0  0  0  0  # atno 10167 bound_to 10162
  157.5327  130.8642  149.8711 H   0  0  0  0  0  0  0  0  0  0  0  0  # atno 10718 bound_to 10713
  153.7578  135.3200  155.3332 H   0  0  0  0  0  0  0  0  0  0  0  0  # atno 10763 bound_to 10752
  154.8241  135.4582  154.0867 H   0  0  0  0  0  0  0  0  0  0  0  0  # atno 10764 bound_to 10752
  153.2089  135.6933  153.8221 H   0  0  0  0  0  0  0  0  0  0  0  0  # atno 10765 bound_to 10752
  140.6858  133.9114  155.8585 H   0  0  0  0  0  0  0  0  0  0  0  0  # atno 11005 bound_to 11000
  146.2781  139.6804  142.9249 LP  0  0  0  0  0  0  0  0  0  0  0  0  # atno 17320 bound_to 7965
  145.4510  141.0428  143.2805 LP  0  0  0  0  0  0  0  0  0  0  0  0  # atno 17321 bound_to 7965
  139.6419  144.7655  151.2321 LP  0  0  0  0  0  0  0  0  0  0  0  0  # atno 17342 bound_to 10162
  140.7493  143.6303  150.8429 LP  0  0  0  0  0  0  0  0  0  0  0  0  # atno 17343 bound_to 10162
  156.0435  130.3733  150.1375 LP  0  0  0  0  0  0  0  0  0  0  0  0  # atno 17370 bound_to 10713
  156.9559  130.9789  151.3489 LP  0  0  0  0  0  0  0  0  0  0  0  0  # atno 17371 bound_to 10713
  141.0281  134.0794  157.4045 LP  0  0  0  0  0  0  0  0  0  0  0  0  # atno 17394 bound_to 11000
  139.8938  135.0132  156.6918 LP  0  0  0  0  0  0  0  0  0  0  0  0  # atno 17395 bound_to 11000

$$$$
