AV-unprocessed.smi:9|AV-procd|sdf|52|dock10
  -GOLD-   2262015173D 1   1.00000     0.00000
 Structure written by MMmdl.
 35 37  0  0  0  0  0  0  0  0  1 V2000
  152.7264  139.2957  157.7964 O   0  0  0  0  0  0  0  0  0  0  0  0
  152.0337  140.2699  157.5111 C   0  0  0  0  0  0  0  0  0  0  0  0
  152.0253  141.4212  158.2263 N   0  0  0  0  0  0  0  0  0  0  0  0
  151.2249  142.5433  157.8910 C   0  0  0  0  0  0  0  0  0  0  0  0
  151.4330  143.6808  158.8784 C   0  0  0  0  0  0  0  0  0  0  0  0
  152.2538  143.3183  159.8653 F   0  0  0  0  0  0  0  0  0  0  0  0
  151.9645  144.7386  158.2648 F   0  0  0  0  0  0  0  0  0  0  0  0
  150.2712  144.0473  159.4204 F   0  0  0  0  0  0  0  0  0  0  0  0
  150.4041  142.6258  156.8753 N   0  0  0  0  0  0  0  0  0  0  0  0
  150.3943  141.4597  156.1362 C   0  0  0  0  0  0  0  0  0  0  0  0
  151.1151  140.3132  156.3466 C   0  0  0  0  0  0  0  0  0  0  0  0
  150.8373  139.3569  155.3777 N   0  0  0  0  0  0  0  0  0  0  0  0
  149.9428  139.9798  154.6132 C   0  0  0  0  0  0  0  0  0  0  0  0
  149.6194  141.2279  155.0044 N   0  0  0  0  0  0  0  0  0  0  0  0
  148.6754  142.1321  154.3619 C   0  0  0  0  0  0  0  0  0  0  0  0
  147.1873  141.8344  154.6806 C   0  0  2  0  0  0  0  0  0  0  0  0
  146.8775  140.5738  154.1156 O   0  0  0  0  0  0  0  0  0  0  0  0
  146.2409  142.9034  154.0903 C   0  0  0  0  0  0  0  0  0  0  0  0
  144.8128  142.7560  154.6249 C   0  0  0  0  0  0  0  0  0  0  0  0
  144.8249  142.6996  156.1564 C   0  0  0  0  0  0  0  0  0  0  0  0
  145.6216  141.6000  156.5747 O   0  0  0  0  0  0  0  0  0  0  0  0
  146.9956  141.7105  156.2111 C   0  0  0  0  0  0  0  0  0  0  0  0
  152.6227  141.4778  159.0382 H   0  0  0  0  0  0  0  0  0  0  0  0
  149.5033  139.5117  153.7444 H   0  0  0  0  0  0  0  0  0  0  0  0
  148.9284  143.1542  154.6475 H   0  0  0  0  0  0  0  0  0  0  0  0
  148.8406  142.0734  153.2852 H   0  0  0  0  0  0  0  0  0  0  0  0
  146.0862  140.6624  153.6066 H   0  0  0  0  0  0  0  0  0  0  0  0
  146.6099  143.8946  154.3576 H   0  0  0  0  0  0  0  0  0  0  0  0
  146.2326  142.8623  153.0005 H   0  0  0  0  0  0  0  0  0  0  0  0
  144.1974  143.5886  154.2831 H   0  0  0  0  0  0  0  0  0  0  0  0
  144.3577  141.8479  154.2283 H   0  0  0  0  0  0  0  0  0  0  0  0
  145.2050  143.6290  156.5836 H   0  0  0  0  0  0  0  0  0  0  0  0
  143.8115  142.5642  156.5345 H   0  0  0  0  0  0  0  0  0  0  0  0
  147.5351  140.8456  156.5995 H   0  0  0  0  0  0  0  0  0  0  0  0
  147.4131  142.5840  156.7145 H   0  0  0  0  0  0  0  0  0  0  0  0
  1  2  2  0  0  0  0
  2 11  1  0  0  0  0
  2  3  1  0  0  0  0
  3 23  1  0  0  0  0
  3  4  1  0  0  0  0
  4  5  1  0  0  0  0
  4  9  2  0  0  0  0
  5  6  1  0  0  0  0
  5  7  1  0  0  0  0
  5  8  1  0  0  0  0
  9 10  1  0  0  0  0
 10 14  1  0  0  0  0
 10 11  2  0  0  0  0
 11 12  1  0  0  0  0
 12 13  2  0  0  0  0
 13 14  1  0  0  0  0
 13 24  1  0  0  0  0
 14 15  1  0  0  0  0
 15 16  1  0  0  0  0
 15 25  1  0  0  0  0
 15 26  1  0  0  0  0
 16 22  1  0  0  0  0
 16 17  1  0  0  0  0
 16 18  1  0  0  0  0
 17 27  1  0  0  0  0
 18 19  1  0  0  0  0
 18 28  1  0  0  0  0
 18 29  1  0  0  0  0
 19 20  1  0  0  0  0
 19 30  1  0  0  0  0
 19 31  1  0  0  0  0
 20 21  1  0  0  0  0
 20 32  1  0  0  0  0
 20 33  1  0  0  0  0
 21 22  1  0  0  0  0
 22 34  1  0  0  0  0
 22 35  1  0  0  0  0
M  END
> <s_m_source_file>
AV-unprocessed.smi

> <i_m_source_file_index>
9

> <i_lp_mmshare_version>
43012

> <i_f3d_flags>
0

> <s_epik_input>
RkMoRikoRiljKG4xKVtuSF1jKD1PKWMoYzEyKW5bY0hdbjJbQ0gyXVtDQEBdMyhbT0hdKVtDSDJdW0NIMl1bQ0gyXU9bQ0gyXTM=

> <s_epik_cmdline>
J2VwaWtfcHl0aG9uJywgJy1waCcsICc3LjAnLCAnLXRuJywgJzgnLCAnLW1hJywgJzIwMCcsICctbWV0YWxfYmluZGluZycsICctaW1hZScsICc8aW5maWxlLm1hZT4nLCAnLW9tYWUnLCAnPG91dGZpbGUubWFlPic=

> <r_lp_tautomer_probability>
0.85571

> <r_epik_Ionization_Penalty>
0.770127

> <r_epik_Ionization_Penalty_Charging>
0.770101

> <r_epik_Ionization_Penalty_Neutral>
2.64604e-05

> <r_epik_State_Penalty>
2.30539

> <r_epik_Charging_Adjusted_Penalty>
3.07549

> <i_epik_Tot_Q>
0

> <i_epik_Tot_abs_Q>
0

> <r_epik_Metal_State_Penalty>
2.4903

> <b_epik_Metal_Only>
0

> <s_lp_Force_Field>
OPLS_2005

> <r_lp_Energy>
27.1686

> <b_lp_Chiralities_Consistent>
1

> <s_lp_Variant>
AV-unprocessed.smi:9-4

> <Gold.Version>
5.8.1

> <Gold.Id.Protein>
6NUR|6NUR_protein|mol2

> <Gold.PLP.Fitness>
43.8875

> <Gold.PLP.PLP>
-39.1356

> <Gold.PLP.part.hbond>
-1.0000

> <Gold.PLP.part.metal>
0.0000

> <Gold.PLP.part.buried>
0.6188

> <Gold.PLP.part.nonpolar>
-39.3609

> <Gold.PLP.part.repulsive>
2.2336

> <Gold.PLP.ligand.clash>
0.0000

> <Gold.PLP.ligand.torsion>
0.3448

> <Gold.PLP.Chemscore.Hbond>
0.8500

> <Gold.PLP.Chemscore.CHOScore>
0.9620

> <Gold.PLP.Chemscore.Metal>
0.0000

> <Gold.Chemscore.Hbonds>
donor molecule, donor type, donor heavy atom, donor atom, acceptor molecule, acceptor atom, score
      P1  H  7997  8008       L1     1  0.59
      L1  C    13    24       P1  7957  0.73

> <Gold.PLP.Chemscore.Internal.Correction>
0.0054

> <Gold.Rescore>
     Score         DG    S(hbond)    S(metal)    S(lipo)     H(rot)  DE(clash)    DE(int)     intcor
      6.46      -8.37       1.02        0.00      42.30       2.14       1.62       0.29       ----

> <Gold.Chemscore.Fitness>
6.4591

> <Gold.Chemscore.DG>
-8.3715

> <Gold.Chemscore.ZeroCoef>
-5.4800

> <Gold.Chemscore.Hbond>
1.0222

> <Gold.Chemscore.Metal>
0.0000

> <Gold.Chemscore.Lipo>
42.2976

> <Gold.Chemscore.Internal_Hbond>
0.0000

> <Gold.Chemscore.DEClash>
1.6211

> <Gold.Chemscore.DEInternal>
0.2913

> <Gold.Chemscore.Rot>
2.1373

> <Gold.Chemscore.Internal.Correction>
   9.000000E+99

> <Gold.Chemscore.Hbonds>
donor molecule, donor type, donor heavy atom, donor atom, acceptor molecule, acceptor atom, score
      P1  H  7997  8008       L1     1  0.07

> <Gold.Chemscore.Hbond.Weighted>
-3.4141

> <Gold.Chemscore.Metal.Weighted>
-0.0000

> <Gold.Chemscore.Lipo.Weighted>
-4.9488

> <Gold.Chemscore.Internal_Hbond.Weighted>
0.0000

> <Gold.Chemscore.DEClash.Weighted>
1.6211

> <Gold.Chemscore.DEInternal.Weighted>
0.2913

> <Gold.Chemscore.Rot.Weighted>
5.4714

> <Gold.Chemscore.Internal.Correction.Weighted>
   9.000000E+99

> <Gold.Protein.RotatedTorsions>
[ 6907 6896 6895 6894 ] final  110.63 input  -60.11 | X-H torsion
[ 7974 7965 7964 7962 ] final -151.88 input  175.53 | X-H torsion
[ 8008 7997 7996 7995 ] final  -74.36 input   59.86 | X-H torsion
[ 10167 10162 10161 10158 ] final  131.91 input  -65.29 | X-H torsion
[ 10718 10713 10712 10709 ] final  125.49 input   66.30 | X-H torsion
[ 10763 10752 10751 10750 ] final  134.80 input  -60.55 | X-H torsion
[ 11005 11000 10999 10996 ] final  144.83 input  -57.11 | X-H torsion

> <Gold.Protein.ActiveResidues>
 VAL166  LYS551  ARG553  GLY616  TRP617  ASP618  TYR619  PRO620  LYS621  CYS622 
 ASP623  PHE694  ASN695  SER759  ASP760  ASP761  ALA762  ILE779  LEU786  VAL792 
 PHE793  MET794  SER795  GLU796  ALA797  LYS798  CYS799  TRP800  GLU811  SER814 

> <Gold.Protein.RotatedAtoms>
  152.5010  133.8772  159.7327 H   0  0  0  0  0  0  0  0  0  0  0  0  # atno 6907 bound_to 6896
  150.9244  133.6833  159.2831 H   0  0  0  0  0  0  0  0  0  0  0  0  # atno 6908 bound_to 6896
  151.4199  135.1001  159.9663 H   0  0  0  0  0  0  0  0  0  0  0  0  # atno 6909 bound_to 6896
  144.7825  140.4738  143.5829 H   0  0  0  0  0  0  0  0  0  0  0  0  # atno 7974 bound_to 7965
  154.5325  140.0763  156.8369 H   0  0  0  0  0  0  0  0  0  0  0  0  # atno 8008 bound_to 7997
  155.3346  140.3404  155.4221 H   0  0  0  0  0  0  0  0  0  0  0  0  # atno 8009 bound_to 7997
  156.1795  140.1647  156.8287 H   0  0  0  0  0  0  0  0  0  0  0  0  # atno 8010 bound_to 7997
  139.5363  144.6685  151.4775 H   0  0  0  0  0  0  0  0  0  0  0  0  # atno 10167 bound_to 10162
  157.5499  131.1094  150.8720 H   0  0  0  0  0  0  0  0  0  0  0  0  # atno 10718 bound_to 10713
  153.8295  135.3105  155.3417 H   0  0  0  0  0  0  0  0  0  0  0  0  # atno 10763 bound_to 10752
  154.7979  135.4744  154.0208 H   0  0  0  0  0  0  0  0  0  0  0  0  # atno 10764 bound_to 10752
  153.1643  135.6866  153.8788 H   0  0  0  0  0  0  0  0  0  0  0  0  # atno 10765 bound_to 10752
  140.0664  134.9176  157.1271 H   0  0  0  0  0  0  0  0  0  0  0  0  # atno 11005 bound_to 11000
  145.6011  139.1504  143.3128 LP  0  0  0  0  0  0  0  0  0  0  0  0  # atno 17320 bound_to 7965
  146.2041  140.6132  142.9089 LP  0  0  0  0  0  0  0  0  0  0  0  0  # atno 17321 bound_to 7965
  140.6571  143.8577  150.6847 LP  0  0  0  0  0  0  0  0  0  0  0  0  # atno 17342 bound_to 10162
  140.1960  143.3998  152.1828 LP  0  0  0  0  0  0  0  0  0  0  0  0  # atno 17343 bound_to 10162
  156.9248  130.5328  149.5279 LP  0  0  0  0  0  0  0  0  0  0  0  0  # atno 17370 bound_to 10713
  156.0567  130.5627  150.9107 LP  0  0  0  0  0  0  0  0  0  0  0  0  # atno 17371 bound_to 10713
  140.3693  134.2408  155.7179 LP  0  0  0  0  0  0  0  0  0  0  0  0  # atno 17394 bound_to 11000
  141.1994  133.8012  157.0537 LP  0  0  0  0  0  0  0  0  0  0  0  0  # atno 17395 bound_to 11000

$$$$
