AV-unprocessed.smi:912|AV-procd|sdf|4145|dock1
  -GOLD-   22720 2 53D 1   1.00000     0.00000
 Structure written by MMmdl.
 27 27  0  0  0  0  0  0  0  0  2 V2000
  151.3882  143.2158  157.3318 C   0  0  0  0  0  0  0  0  0  0  0  0
  150.4230  142.7906  156.3201 N   0  0  0  0  0  0  0  0  0  0  0  0
  149.7407  141.4944  156.4871 C   0  0  2  0  0  0  0  0  0  0  0  0
  149.2981  141.4359  157.9723 C   0  0  0  0  0  0  0  0  0  0  0  0
  150.6846  140.3121  156.1346 C   0  0  0  0  0  0  0  0  0  0  0  0
  151.0125  139.4682  157.1198 N   0  0  0  0  0  0  0  0  0  0  0  0
  151.1190  140.1612  154.9940 O   0  0  0  0  0  0  0  0  0  0  0  0
  148.4883  141.3833  155.5914 C   0  0  0  0  0  0  0  0  0  0  0  0
  148.5679  141.3607  154.1736 C   0  0  0  0  0  0  0  0  0  0  0  0
  147.3893  141.2644  153.4060 C   0  0  0  0  0  0  0  0  0  0  0  0
  146.1891  141.1931  154.0181 N   0  3  0  0  0  0  0  0  0  0  0  0
  146.0551  141.2109  155.3603 C   0  0  0  0  0  0  0  0  0  0  0  0
  147.1987  141.3077  156.1779 C   0  0  0  0  0  0  0  0  0  0  0  0
  151.6741  144.2494  157.1377 H   0  0  0  0  0  0  0  0  0  0  0  0
  152.3006  142.6203  157.3028 H   0  0  0  0  0  0  0  0  0  0  0  0
  150.9768  143.1748  158.3396 H   0  0  0  0  0  0  0  0  0  0  0  0
  150.8096  142.8750  155.3915 H   0  0  0  0  0  0  0  0  0  0  0  0
  148.7542  140.5193  158.2028 H   0  0  0  0  0  0  0  0  0  0  0  0
  148.6370  142.2681  158.2176 H   0  0  0  0  0  0  0  0  0  0  0  0
  150.1398  141.4765  158.6636 H   0  0  0  0  0  0  0  0  0  0  0  0
  151.6342  138.6942  156.9379 H   0  0  0  0  0  0  0  0  0  0  0  0
  150.6453  139.6185  158.0485 H   0  0  0  0  0  0  0  0  0  0  0  0
  149.5127  141.4191  153.6545 H   0  0  0  0  0  0  0  0  0  0  0  0
  147.3724  141.2433  152.3261 H   0  0  0  0  0  0  0  0  0  0  0  0
  145.0449  141.1474  155.7379 H   0  0  0  0  0  0  0  0  0  0  0  0
  147.0807  141.3193  157.2519 H   0  0  0  0  0  0  0  0  0  0  0  0
  145.3491  141.1237  153.4429 H   0  0  0  0  0  0  0  0  0  0  0  0
  1  2  1  0  0  0  0
  1 14  1  0  0  0  0
  1 15  1  0  0  0  0
  1 16  1  0  0  0  0
  2  3  1  0  0  0  0
  2 17  1  0  0  0  0
  3  4  1  0  0  0  0
  3  5  1  0  0  0  0
  3  8  1  0  0  0  0
  4 18  1  0  0  0  0
  4 19  1  0  0  0  0
  4 20  1  0  0  0  0
  5  6  1  0  0  0  0
  5  7  2  0  0  0  0
  6 21  1  0  0  0  0
  6 22  1  0  0  0  0
  8 13  1  0  0  0  0
  8  9  2  0  0  0  0
  9 10  1  0  0  0  0
  9 23  1  0  0  0  0
 10 11  2  0  0  0  0
 10 24  1  0  0  0  0
 11 12  1  0  0  0  0
 11 27  1  0  0  0  0
 12 13  2  0  0  0  0
 12 25  1  0  0  0  0
 13 26  1  0  0  0  0
M  CHG  1  11   1
M  END
> <s_m_source_file>
AV-unprocessed.smi

> <i_m_source_file_index>
912

> <i_lp_mmshare_version>
43012

> <i_f3d_flags>
0

> <s_epik_input>
W0NIM11bTkhdW0NAQF0oW0NIM10pKEMoPU8pW05IMl0pYzFbY0hdW2NIXW5bY0hdW2NIXTE=

> <s_epik_cmdline>
J2VwaWtfcHl0aG9uJywgJy1waCcsICc3LjAnLCAnLXRuJywgJzgnLCAnLW1hJywgJzIwMCcsICctbWV0YWxfYmluZGluZycsICctaW1hZScsICc8aW5maWxlLm1hZT4nLCAnLW9tYWUnLCAnPG91dGZpbGUubWFlPic=

> <r_epik_Ionization_Penalty>
0.562542

> <r_epik_Ionization_Penalty_Charging>
0.554844

> <r_epik_Ionization_Penalty_Neutral>
0.00769834

> <r_epik_State_Penalty>
1.39075

> <r_epik_Charging_Adjusted_Penalty>
1.94559

> <i_epik_Tot_Q>
1

> <i_epik_Tot_abs_Q>
1

> <r_epik_Metal_State_Penalty>
1.55563

> <b_epik_Metal_Only>
0

> <s_lp_Force_Field>
OPLS_2005

> <r_lp_Energy>
18.1992

> <b_lp_Chiralities_Consistent>
1

> <s_lp_Variant>
AV-unprocessed.smi:912-6

> <Gold.Version>
5.8.1

> <Gold.Id.Protein>
6NUR|6NUR_protein|mol2

> <Gold.PLP.Fitness>
29.7122

> <Gold.PLP.PLP>
-21.3300

> <Gold.PLP.part.hbond>
-2.9677

> <Gold.PLP.part.metal>
0.0000

> <Gold.PLP.part.buried>
-4.6126

> <Gold.PLP.part.nonpolar>
-14.1356

> <Gold.PLP.part.repulsive>
0.0941

> <Gold.PLP.ligand.clash>
0.1633

> <Gold.PLP.ligand.torsion>
0.2545

> <Gold.PLP.Chemscore.Hbond>
3.0000

> <Gold.PLP.Chemscore.CHOScore>
0.0000

> <Gold.PLP.Chemscore.Metal>
0.0000

> <Gold.Chemscore.Hbonds>
donor molecule, donor type, donor heavy atom, donor atom, acceptor molecule, acceptor atom, score
      L1  H    11    27       P1 10175  2.00
      P1  H  7989  7998       L1     7  1.00

> <Gold.PLP.Chemscore.Internal.Correction>
0.0545

> <Gold.Rescore>
     Score         DG    S(hbond)    S(metal)    S(lipo)     H(rot)  DE(clash)    DE(int)     intcor
     11.94     -12.36       1.87        0.00      45.39       1.82       0.03       0.38       ----

> <Gold.Chemscore.Fitness>
11.9431

> <Gold.Chemscore.DG>
-12.3572

> <Gold.Chemscore.ZeroCoef>
-5.4800

> <Gold.Chemscore.Hbond>
1.8659

> <Gold.Chemscore.Metal>
0.0000

> <Gold.Chemscore.Lipo>
45.3940

> <Gold.Chemscore.Internal_Hbond>
0.0000

> <Gold.Chemscore.DEClash>
0.0306

> <Gold.Chemscore.DEInternal>
0.3835

> <Gold.Chemscore.Rot>
1.8226

> <Gold.Chemscore.Internal.Correction>
   9.000000E+99

> <Gold.Chemscore.Hbonds>
donor molecule, donor type, donor heavy atom, donor atom, acceptor molecule, acceptor atom, score
      L1  H    11    27       P1 10175  0.42
      P1  H  7989  7998       L1     7  1.00

> <Gold.Chemscore.Hbond.Weighted>
-6.2320

> <Gold.Chemscore.Metal.Weighted>
-0.0000

> <Gold.Chemscore.Lipo.Weighted>
-5.3111

> <Gold.Chemscore.Internal_Hbond.Weighted>
0.0000

> <Gold.Chemscore.DEClash.Weighted>
0.0306

> <Gold.Chemscore.DEInternal.Weighted>
0.3835

> <Gold.Chemscore.Rot.Weighted>
4.6659

> <Gold.Chemscore.Internal.Correction.Weighted>
   9.000000E+99

> <Gold.Protein.RotatedTorsions>
[ 6907 6896 6895 6894 ] final  -93.09 input  -60.11 | X-H torsion
[ 7974 7965 7964 7962 ] final   76.10 input  175.53 | X-H torsion
[ 8008 7997 7996 7995 ] final  134.55 input   59.86 | X-H torsion
[ 10167 10162 10161 10158 ] final   98.02 input  -65.29 | X-H torsion
[ 10718 10713 10712 10709 ] final   23.67 input   66.30 | X-H torsion
[ 10763 10752 10751 10750 ] final -177.05 input  -60.55 | X-H torsion
[ 11005 11000 10999 10996 ] final   59.07 input  -57.11 | X-H torsion

> <Gold.Protein.ActiveResidues>
 VAL166  LYS551  ARG553  GLY616  TRP617  ASP618  TYR619  PRO620  LYS621  CYS622 
 ASP623  PHE694  ASN695  SER759  ASP760  ASP761  ALA762  ILE779  LEU786  VAL792 
 PHE793  MET794  SER795  GLU796  ALA797  LYS798  CYS799  TRP800  GLU811  SER814 

> <Gold.Protein.RotatedAtoms>
  150.6917  134.2020  159.4325 H   0  0  0  0  0  0  0  0  0  0  0  0  # atno 6907 bound_to 6896
  151.9986  134.9938  160.0573 H   0  0  0  0  0  0  0  0  0  0  0  0  # atno 6908 bound_to 6896
  152.1600  133.4540  159.4893 H   0  0  0  0  0  0  0  0  0  0  0  0  # atno 6909 bound_to 6896
  145.7072  139.2602  143.1671 H   0  0  0  0  0  0  0  0  0  0  0  0  # atno 7974 bound_to 7965
  156.2999  140.2493  156.3436 H   0  0  0  0  0  0  0  0  0  0  0  0  # atno 8008 bound_to 7997
  154.9032  140.0405  157.1924 H   0  0  0  0  0  0  0  0  0  0  0  0  # atno 8009 bound_to 7997
  154.8480  140.2901  155.5621 H   0  0  0  0  0  0  0  0  0  0  0  0  # atno 8010 bound_to 7997
  139.7747  144.6910  151.0106 H   0  0  0  0  0  0  0  0  0  0  0  0  # atno 10167 bound_to 10162
  157.1693  130.6752  149.6072 H   0  0  0  0  0  0  0  0  0  0  0  0  # atno 10718 bound_to 10713
  154.5649  135.2823  155.0883 H   0  0  0  0  0  0  0  0  0  0  0  0  # atno 10763 bound_to 10752
  154.2278  135.6379  153.5169 H   0  0  0  0  0  0  0  0  0  0  0  0  # atno 10764 bound_to 10752
  153.0040  135.5530  154.6254 H   0  0  0  0  0  0  0  0  0  0  0  0  # atno 10765 bound_to 10752
  140.0331  134.5983  155.9480 H   0  0  0  0  0  0  0  0  0  0  0  0  # atno 11005 bound_to 11000
  146.0745  140.7832  142.9672 LP  0  0  0  0  0  0  0  0  0  0  0  0  # atno 17320 bound_to 7965
  144.6952  140.3393  143.7202 LP  0  0  0  0  0  0  0  0  0  0  0  0  # atno 17321 bound_to 7965
  140.7816  143.4549  151.0360 LP  0  0  0  0  0  0  0  0  0  0  0  0  # atno 17342 bound_to 10162
  139.8231  143.7792  152.3177 LP  0  0  0  0  0  0  0  0  0  0  0  0  # atno 17343 bound_to 10162
  155.9741  130.4685  150.6361 LP  0  0  0  0  0  0  0  0  0  0  0  0  # atno 17370 bound_to 10713
  157.4059  131.0816  151.1266 LP  0  0  0  0  0  0  0  0  0  0  0  0  # atno 17371 bound_to 10713
  141.1842  133.6552  156.5148 LP  0  0  0  0  0  0  0  0  0  0  0  0  # atno 17394 bound_to 11000
  140.4192  134.7202  157.4880 LP  0  0  0  0  0  0  0  0  0  0  0  0  # atno 17395 bound_to 11000

$$$$
