AV-unprocessed.smi:1088|AV-procd|sdf|4729|dock8
  -GOLD-   22720 3263D 1   1.00000     0.00000
 Structure written by MMmdl.
 48 49  0  0  0  0  0  0  0  0  2 V2000
  152.0224  137.0696  154.8513 C   0  0  0  0  0  0  0  0  0  0  0  0
  151.3435  136.8079  153.6355 O   0  0  0  0  0  0  0  0  0  0  0  0
  150.6894  137.9555  153.1206 C   0  0  0  0  0  0  0  0  0  0  0  0
  149.7953  138.5560  154.2173 C   0  0  0  0  0  0  0  0  0  0  0  0
  148.8247  139.5497  153.6834 N   0  3  1  0  0  0  0  0  0  0  0  0
  147.6404  139.7691  154.5484 C   0  0  0  0  0  0  0  0  0  0  0  0
  147.1760  141.1949  154.2745 C   0  0  0  0  0  0  0  0  0  0  0  0
  148.4912  141.9207  154.0448 C   0  0  0  0  0  0  0  0  0  0  0  0
  149.3470  140.8940  153.2853 C   0  0  1  0  0  0  0  0  0  0  0  0
  150.8738  141.1156  153.4344 C   0  0  0  0  0  0  0  0  0  0  0  0
  151.4342  141.7850  152.2638 N   0  0  0  0  0  0  0  0  0  0  0  0
  151.9850  143.0085  152.2574 C   0  0  0  0  0  0  0  0  0  0  0  0
  152.1322  143.6891  153.2731 O   0  0  0  0  0  0  0  0  0  0  0  0
  152.4380  143.5416  150.8920 C   0  0  0  0  0  0  0  0  0  0  0  0
  153.8534  143.9340  150.8820 N   0  0  0  0  0  0  0  0  0  0  0  0
  154.1939  145.2714  150.7902 C   0  0  0  0  0  0  0  0  0  0  0  0
  155.4695  145.7141  150.7510 C   0  0  0  0  0  0  0  0  0  0  0  0
  156.5876  144.7807  150.8074 C   0  0  0  0  0  0  0  0  0  0  0  0
  157.7655  145.1358  150.7488 O   0  0  0  0  0  0  0  0  0  0  0  0
  156.2131  143.4209  150.9202 N   0  0  0  0  0  0  0  0  0  0  0  0
  157.2723  142.4334  150.9547 C   0  0  0  0  0  0  0  0  0  0  0  0
  154.8763  142.9621  150.9440 C   0  0  0  0  0  0  0  0  0  0  0  0
  154.5952  141.7623  151.0048 O   0  0  0  0  0  0  0  0  0  0  0  0
  152.5018  136.1579  155.2072 H   0  0  0  0  0  0  0  0  0  0  0  0
  151.3315  137.4094  155.6241 H   0  0  0  0  0  0  0  0  0  0  0  0
  152.7965  137.8262  154.7162 H   0  0  0  0  0  0  0  0  0  0  0  0
  151.4146  138.6831  152.7537 H   0  0  0  0  0  0  0  0  0  0  0  0
  150.0701  137.6680  152.2694 H   0  0  0  0  0  0  0  0  0  0  0  0
  149.2575  137.7571  154.7296 H   0  0  0  0  0  0  0  0  0  0  0  0
  150.4472  139.0285  154.9516 H   0  0  0  0  0  0  0  0  0  0  0  0
  146.8573  139.0359  154.3522 H   0  0  0  0  0  0  0  0  0  0  0  0
  147.9277  139.6823  155.5978 H   0  0  0  0  0  0  0  0  0  0  0  0
  146.5662  141.2274  153.3705 H   0  0  0  0  0  0  0  0  0  0  0  0
  146.5943  141.6180  155.0940 H   0  0  0  0  0  0  0  0  0  0  0  0
  148.3662  142.8561  153.4986 H   0  0  0  0  0  0  0  0  0  0  0  0
  148.9456  142.1538  155.0090 H   0  0  0  0  0  0  0  0  0  0  0  0
  149.1027  140.9885  152.2261 H   0  0  0  0  0  0  0  0  0  0  0  0
  151.1009  141.6781  154.3415 H   0  0  0  0  0  0  0  0  0  0  0  0
  151.3886  140.1591  153.5217 H   0  0  0  0  0  0  0  0  0  0  0  0
  151.3652  141.2956  151.3832 H   0  0  0  0  0  0  0  0  0  0  0  0
  152.2555  142.7668  150.1463 H   0  0  0  0  0  0  0  0  0  0  0  0
  151.8188  144.3903  150.5952 H   0  0  0  0  0  0  0  0  0  0  0  0
  153.4008  146.0032  150.7394 H   0  0  0  0  0  0  0  0  0  0  0  0
  155.6656  146.7732  150.6715 H   0  0  0  0  0  0  0  0  0  0  0  0
  156.9390  141.5517  151.5032 H   0  0  0  0  0  0  0  0  0  0  0  0
  158.1351  142.8471  151.4788 H   0  0  0  0  0  0  0  0  0  0  0  0
  157.5122  142.1915  149.9187 H   0  0  0  0  0  0  0  0  0  0  0  0
  148.4701  139.1484  152.8268 H   0  0  0  0  0  0  0  0  0  0  0  0
  1  2  1  0  0  0  0
  1 24  1  0  0  0  0
  1 25  1  0  0  0  0
  1 26  1  0  0  0  0
  2  3  1  0  0  0  0
  3  4  1  0  0  0  0
  3 27  1  0  0  0  0
  3 28  1  0  0  0  0
  4  5  1  0  0  0  0
  4 29  1  0  0  0  0
  4 30  1  0  0  0  0
  5  9  1  0  0  0  0
  5  6  1  0  0  0  0
  5 48  1  0  0  0  0
  6  7  1  0  0  0  0
  6 31  1  0  0  0  0
  6 32  1  0  0  0  0
  7  8  1  0  0  0  0
  7 33  1  0  0  0  0
  7 34  1  0  0  0  0
  8  9  1  0  0  0  0
  8 35  1  0  0  0  0
  8 36  1  0  0  0  0
  9 10  1  0  0  0  0
  9 37  1  0  0  0  0
 10 11  1  0  0  0  0
 10 38  1  0  0  0  0
 10 39  1  0  0  0  0
 11 12  1  0  0  0  0
 11 40  1  0  0  0  0
 12 13  2  0  0  0  0
 12 14  1  0  0  0  0
 14 15  1  0  0  0  0
 14 41  1  0  0  0  0
 14 42  1  0  0  0  0
 15 22  1  0  0  0  0
 15 16  1  0  0  0  0
 16 17  2  0  0  0  0
 16 43  1  0  0  0  0
 17 18  1  0  0  0  0
 17 44  1  0  0  0  0
 18 19  2  0  0  0  0
 18 20  1  0  0  0  0
 20 21  1  0  0  0  0
 20 22  1  0  0  0  0
 21 45  1  0  0  0  0
 21 46  1  0  0  0  0
 21 47  1  0  0  0  0
 22 23  2  0  0  0  0
M  CHG  1   5   1
M  END
> <s_m_source_file>
AV-unprocessed.smi

> <i_m_source_file_index>
1088

> <i_lp_mmshare_version>
43012

> <i_f3d_flags>
0

> <s_epik_input>
W0NIM11PW0NIMl1bQ0gyXU4xW0NIMl1bQ0gyXVtDSDJdW0NASF0xW0NIMl1bTkhdQyg9TylbQ0gyXW4yW2NIXVtjSF1jKD1PKW4oW0NIM10pYzI9Tw==

> <s_epik_cmdline>
J2VwaWtfcHl0aG9uJywgJy1waCcsICc3LjAnLCAnLXRuJywgJzgnLCAnLW1hJywgJzIwMCcsICctbWV0YWxfYmluZGluZycsICctaW1hZScsICc8aW5maWxlLm1hZT4nLCAnLW9tYWUnLCAnPG91dGZpbGUubWFlPic=

> <r_lp_tautomer_probability>
1

> <r_epik_Ionization_Penalty>
0.0127388

> <r_epik_Ionization_Penalty_Charging>
0.0127387

> <r_epik_Ionization_Penalty_Neutral>
8.26414e-08

> <r_epik_State_Penalty>
0.00987716

> <r_epik_Charging_Adjusted_Penalty>
0.0226159

> <i_epik_Tot_Q>
1

> <i_epik_Tot_abs_Q>
1

> <r_epik_Metal_State_Penalty>
0.00987836

> <b_epik_Metal_Only>
0

> <s_lp_Force_Field>
OPLS_2005

> <r_lp_Energy>
40.5069

> <b_lp_Chiralities_Consistent>
1

> <s_lp_Variant>
AV-unprocessed.smi:1088-2

> <Gold.Version>
5.8.1

> <Gold.Id.Protein>
6NUR|6NUR_protein|mol2

> <Gold.PLP.Fitness>
53.8265

> <Gold.PLP.PLP>
-51.3355

> <Gold.PLP.part.hbond>
-2.4549

> <Gold.PLP.part.metal>
0.0000

> <Gold.PLP.part.buried>
-4.1051

> <Gold.PLP.part.nonpolar>
-44.0611

> <Gold.PLP.part.repulsive>
0.5460

> <Gold.PLP.ligand.clash>
0.0000

> <Gold.PLP.ligand.torsion>
0.9539

> <Gold.PLP.Chemscore.Hbond>
1.4001

> <Gold.PLP.Chemscore.CHOScore>
0.0000

> <Gold.PLP.Chemscore.Metal>
0.0000

> <Gold.Chemscore.Hbonds>
donor molecule, donor type, donor heavy atom, donor atom, acceptor molecule, acceptor atom, score
      L1  H     5    48       P1  7957  0.09
      L1  H    11    40       P1  7957  0.08
      L1  C    16    43       P1  7992  0.48

> <Gold.PLP.Chemscore.Internal.Correction>
0.1984

> <Gold.Rescore>
     Score         DG    S(hbond)    S(metal)    S(lipo)     H(rot)  DE(clash)    DE(int)     intcor
     12.48     -14.80       1.46        0.00      94.14       2.57       1.52       0.80       ----

> <Gold.Chemscore.Fitness>
12.4849

> <Gold.Chemscore.DG>
-14.8031

> <Gold.Chemscore.ZeroCoef>
-5.4800

> <Gold.Chemscore.Hbond>
1.4628

> <Gold.Chemscore.Metal>
0.0000

> <Gold.Chemscore.Lipo>
94.1421

> <Gold.Chemscore.Internal_Hbond>
0.0000

> <Gold.Chemscore.DEClash>
1.5232

> <Gold.Chemscore.DEInternal>
0.7950

> <Gold.Chemscore.Rot>
2.5692

> <Gold.Chemscore.Internal.Correction>
   9.000000E+99

> <Gold.Chemscore.Hbonds>
donor molecule, donor type, donor heavy atom, donor atom, acceptor molecule, acceptor atom, score
      L1  H     5    48       P1  7957  0.10

> <Gold.Chemscore.Hbond.Weighted>
-4.8856

> <Gold.Chemscore.Metal.Weighted>
-0.0000

> <Gold.Chemscore.Lipo.Weighted>
-11.0146

> <Gold.Chemscore.Internal_Hbond.Weighted>
0.0000

> <Gold.Chemscore.DEClash.Weighted>
1.5232

> <Gold.Chemscore.DEInternal.Weighted>
0.7950

> <Gold.Chemscore.Rot.Weighted>
6.5772

> <Gold.Chemscore.Internal.Correction.Weighted>
   9.000000E+99

> <Gold.Protein.RotatedTorsions>
[ 6907 6896 6895 6894 ] final -118.39 input  -60.11 | X-H torsion
[ 7974 7965 7964 7962 ] final   53.99 input  175.53 | X-H torsion
[ 8008 7997 7996 7995 ] final  148.53 input   59.86 | X-H torsion
[ 10167 10162 10161 10158 ] final  167.76 input  -65.29 | X-H torsion
[ 10718 10713 10712 10709 ] final  172.63 input   66.30 | X-H torsion
[ 10763 10752 10751 10750 ] final  -83.95 input  -60.55 | X-H torsion
[ 11005 11000 10999 10996 ] final  -81.14 input  -57.11 | X-H torsion

> <Gold.Protein.ActiveResidues>
 VAL166  LYS551  ARG553  GLY616  TRP617  ASP618  TYR619  PRO620  LYS621  CYS622 
 ASP623  PHE694  ASN695  SER759  ASP760  ASP761  ALA762  ILE779  LEU786  VAL792 
 PHE793  MET794  SER795  GLU796  ALA797  LYS798  CYS799  TRP800  GLU811  SER814 

> <Gold.Protein.RotatedAtoms>
  150.8216  133.8243  159.3136 H   0  0  0  0  0  0  0  0  0  0  0  0  # atno 6907 bound_to 6896
  151.5999  135.1046  160.0067 H   0  0  0  0  0  0  0  0  0  0  0  0  # atno 6908 bound_to 6896
  152.4304  133.7227  159.6599 H   0  0  0  0  0  0  0  0  0  0  0  0  # atno 6909 bound_to 6896
  145.9655  139.4099  143.0222 H   0  0  0  0  0  0  0  0  0  0  0  0  # atno 7974 bound_to 7965
  156.2788  140.2126  156.5713 H   0  0  0  0  0  0  0  0  0  0  0  0  # atno 8008 bound_to 7997
  154.7133  140.0510  157.0594 H   0  0  0  0  0  0  0  0  0  0  0  0  # atno 8009 bound_to 7997
  155.0576  140.3163  155.4674 H   0  0  0  0  0  0  0  0  0  0  0  0  # atno 8010 bound_to 7997
  139.4952  144.3887  151.9542 H   0  0  0  0  0  0  0  0  0  0  0  0  # atno 10167 bound_to 10162
  156.9761  131.0105  151.2893 H   0  0  0  0  0  0  0  0  0  0  0  0  # atno 10718 bound_to 10713
  154.5938  135.5538  153.7305 H   0  0  0  0  0  0  0  0  0  0  0  0  # atno 10763 bound_to 10752
  153.0127  135.6349  154.1812 H   0  0  0  0  0  0  0  0  0  0  0  0  # atno 10764 bound_to 10752
  154.1752  135.2890  155.3049 H   0  0  0  0  0  0  0  0  0  0  0  0  # atno 10765 bound_to 10752
  141.1667  133.7183  156.8378 H   0  0  0  0  0  0  0  0  0  0  0  0  # atno 11005 bound_to 11000
  145.7980  140.9784  143.1014 LP  0  0  0  0  0  0  0  0  0  0  0  0  # atno 17320 bound_to 7965
  144.6824  139.9765  143.7483 LP  0  0  0  0  0  0  0  0  0  0  0  0  # atno 17321 bound_to 7965
  140.3324  144.3300  150.5984 LP  0  0  0  0  0  0  0  0  0  0  0  0  # atno 17342 bound_to 10162
  140.5634  143.2189  151.7726 LP  0  0  0  0  0  0  0  0  0  0  0  0  # atno 17343 bound_to 10162
  157.5559  130.8213  149.8203 LP  0  0  0  0  0  0  0  0  0  0  0  0  # atno 17370 bound_to 10713
  156.0263  130.3778  150.1814 LP  0  0  0  0  0  0  0  0  0  0  0  0  # atno 17371 bound_to 10713
  140.2004  134.8901  157.3163 LP  0  0  0  0  0  0  0  0  0  0  0  0  # atno 17394 bound_to 11000
  140.2193  134.4043  155.7573 LP  0  0  0  0  0  0  0  0  0  0  0  0  # atno 17395 bound_to 11000

$$$$
