AV-unprocessed.smi:803|AV-procd|sdf|3793|dock3
  -GOLD-   22720 1233D 1   1.00000     0.00000
 Structure written by MMmdl.
 37 38  0  0  0  0  0  0  0  0  1 V2000
  143.7783  132.8616  148.3688 C   0  0  0  0  0  0  0  0  0  0  0  0
  143.7752  132.4071  149.8336 C   0  0  0  0  0  0  0  0  0  0  0  0
  144.2044  133.4644  150.7282 N   0  0  0  0  0  0  0  0  0  0  0  0
  145.3647  134.2110  150.6727 C   0  0  0  0  0  0  0  0  0  0  0  0
  145.3022  135.0698  151.7334 C   0  0  0  0  0  0  0  0  0  0  0  0
  146.2286  136.0611  152.1443 N   0  0  0  0  0  0  0  0  0  0  0  0
  145.9758  137.1624  152.8701 C   0  0  0  0  0  0  0  0  0  0  0  0
  144.8664  137.4954  153.2881 O   0  0  0  0  0  0  0  0  0  0  0  0
  147.0941  137.8708  153.0826 N   0  0  0  0  0  0  0  0  0  0  0  0
  147.1698  139.1268  153.8227 C   0  0  0  0  0  0  0  0  0  0  0  0
  147.0805  140.3270  152.8578 C   0  0  0  0  0  0  0  0  0  0  0  0
  147.2412  141.6614  153.6038 C   0  0  0  0  0  0  0  0  0  0  0  0
  148.5489  141.6966  154.4104 C   0  0  0  0  0  0  0  0  0  0  0  0
  148.6360  140.5060  155.3778 C   0  0  0  0  0  0  0  0  0  0  0  0
  148.4791  139.1703  154.6332 C   0  0  0  0  0  0  0  0  0  0  0  0
  144.0756  134.7878  152.3886 C   0  0  0  0  0  0  0  0  0  0  0  0
  143.4191  133.8133  151.7776 N   0  0  0  0  0  0  0  0  0  0  0  0
  143.4697  132.0493  147.7107 H   0  0  0  0  0  0  0  0  0  0  0  0
  144.7735  133.1821  148.0588 H   0  0  0  0  0  0  0  0  0  0  0  0
  143.0930  133.6948  148.2107 H   0  0  0  0  0  0  0  0  0  0  0  0
  142.7769  132.0826  150.1298 H   0  0  0  0  0  0  0  0  0  0  0  0
  144.4382  131.5507  149.9616 H   0  0  0  0  0  0  0  0  0  0  0  0
  146.1050  134.0649  149.9000 H   0  0  0  0  0  0  0  0  0  0  0  0
  147.1839  135.9182  151.8509 H   0  0  0  0  0  0  0  0  0  0  0  0
  147.9591  137.5180  152.6999 H   0  0  0  0  0  0  0  0  0  0  0  0
  146.3372  139.1804  154.5270 H   0  0  0  0  0  0  0  0  0  0  0  0
  147.8554  140.2456  152.0939 H   0  0  0  0  0  0  0  0  0  0  0  0
  146.1255  140.3161  152.3306 H   0  0  0  0  0  0  0  0  0  0  0  0
  147.2204  142.4890  152.8940 H   0  0  0  0  0  0  0  0  0  0  0  0
  146.3938  141.8081  154.2747 H   0  0  0  0  0  0  0  0  0  0  0  0
  149.3995  141.6760  153.7281 H   0  0  0  0  0  0  0  0  0  0  0  0
  148.6192  142.6328  154.9650 H   0  0  0  0  0  0  0  0  0  0  0  0
  149.5887  140.5266  155.9073 H   0  0  0  0  0  0  0  0  0  0  0  0
  147.8585  140.5945  156.1379 H   0  0  0  0  0  0  0  0  0  0  0  0
  148.5031  138.3477  155.3487 H   0  0  0  0  0  0  0  0  0  0  0  0
  149.3321  139.0266  153.9682 H   0  0  0  0  0  0  0  0  0  0  0  0
  143.6491  135.2458  153.2686 H   0  0  0  0  0  0  0  0  0  0  0  0
  1  2  1  0  0  0  0
  1 18  1  0  0  0  0
  1 19  1  0  0  0  0
  1 20  1  0  0  0  0
  2  3  1  0  0  0  0
  2 21  1  0  0  0  0
  2 22  1  0  0  0  0
  3 17  1  0  0  0  0
  3  4  1  0  0  0  0
  4  5  2  0  0  0  0
  4 23  1  0  0  0  0
  5  6  1  0  0  0  0
  5 16  1  0  0  0  0
  6  7  1  0  0  0  0
  6 24  1  0  0  0  0
  7  8  2  0  0  0  0
  7  9  1  0  0  0  0
  9 10  1  0  0  0  0
  9 25  1  0  0  0  0
 10 15  1  0  0  0  0
 10 11  1  0  0  0  0
 10 26  1  0  0  0  0
 11 12  1  0  0  0  0
 11 27  1  0  0  0  0
 11 28  1  0  0  0  0
 12 13  1  0  0  0  0
 12 29  1  0  0  0  0
 12 30  1  0  0  0  0
 13 14  1  0  0  0  0
 13 31  1  0  0  0  0
 13 32  1  0  0  0  0
 14 15  1  0  0  0  0
 14 33  1  0  0  0  0
 14 34  1  0  0  0  0
 15 35  1  0  0  0  0
 15 36  1  0  0  0  0
 16 17  2  0  0  0  0
 16 37  1  0  0  0  0
M  END
> <s_m_source_file>
AV-unprocessed.smi

> <i_m_source_file_index>
803

> <i_lp_mmshare_version>
43012

> <i_f3d_flags>
0

> <s_epik_input>
W0NIM11bQ0gyXW4xW2NIXWMoW2NIXW4xKVtOSF1DKD1PKVtOSF1bQ0hdMltDSDJdW0NIMl1bQ0gyXVtDSDJdW0NIMl0y

> <s_epik_cmdline>
J2VwaWtfcHl0aG9uJywgJy1waCcsICc3LjAnLCAnLXRuJywgJzgnLCAnLW1hJywgJzIwMCcsICctbWV0YWxfYmluZGluZycsICctaW1hZScsICc8aW5maWxlLm1hZT4nLCAnLW9tYWUnLCAnPG91dGZpbGUubWFlPic=

> <r_lp_tautomer_probability>
1

> <r_epik_Ionization_Penalty>
0.000191435

> <r_epik_Ionization_Penalty_Charging>
0

> <r_epik_Ionization_Penalty_Neutral>
0.000191435

> <r_epik_State_Penalty>
-0

> <r_epik_Charging_Adjusted_Penalty>
0

> <i_epik_Tot_Q>
0

> <i_epik_Tot_abs_Q>
0

> <r_epik_Metal_State_Penalty>
-0

> <b_epik_Metal_Only>
0

> <s_lp_Force_Field>
OPLS_2005

> <r_lp_Energy>
12.5011

> <b_lp_Chiralities_Consistent>
1

> <s_lp_Variant>
AV-unprocessed.smi:803-1

> <Gold.Version>
5.8.1

> <Gold.Id.Protein>
6NUR|6NUR_protein|mol2

> <Gold.PLP.Fitness>
38.7732

> <Gold.PLP.PLP>
-31.1166

> <Gold.PLP.part.hbond>
-2.0000

> <Gold.PLP.part.metal>
0.0000

> <Gold.PLP.part.buried>
-2.3632

> <Gold.PLP.part.nonpolar>
-25.9470

> <Gold.PLP.part.repulsive>
0.4236

> <Gold.PLP.ligand.clash>
0.0000

> <Gold.PLP.ligand.torsion>
0.5073

> <Gold.PLP.Chemscore.Hbond>
2.0000

> <Gold.PLP.Chemscore.CHOScore>
0.8893

> <Gold.PLP.Chemscore.Metal>
0.0000

> <Gold.Chemscore.Hbonds>
donor molecule, donor type, donor heavy atom, donor atom, acceptor molecule, acceptor atom, score
      L1  H     6    24       P1  7948  1.00
      L1  H     9    25       P1  7948  1.00
      L1  C     4    23       P1  7921  0.90

> <Gold.PLP.Chemscore.Internal.Correction>
0.0034

> <Gold.Rescore>
     Score         DG    S(hbond)    S(metal)    S(lipo)     H(rot)  DE(clash)    DE(int)     intcor
     16.29     -18.00       1.97        0.00      76.21       1.17       0.05       1.66       ----

> <Gold.Chemscore.Fitness>
16.2862

> <Gold.Chemscore.DG>
-17.9960

> <Gold.Chemscore.ZeroCoef>
-5.4800

> <Gold.Chemscore.Hbond>
1.9719

> <Gold.Chemscore.Metal>
0.0000

> <Gold.Chemscore.Lipo>
76.2092

> <Gold.Chemscore.Internal_Hbond>
0.0000

> <Gold.Chemscore.DEClash>
0.0519

> <Gold.Chemscore.DEInternal>
1.6579

> <Gold.Chemscore.Rot>
1.1667

> <Gold.Chemscore.Internal.Correction>
   9.000000E+99

> <Gold.Chemscore.Hbonds>
donor molecule, donor type, donor heavy atom, donor atom, acceptor molecule, acceptor atom, score
      L1  H     6    24       P1  7948  0.99
      L1  H     9    25       P1  7948  0.97

> <Gold.Chemscore.Hbond.Weighted>
-6.5862

> <Gold.Chemscore.Metal.Weighted>
-0.0000

> <Gold.Chemscore.Lipo.Weighted>
-8.9165

> <Gold.Chemscore.Internal_Hbond.Weighted>
0.0000

> <Gold.Chemscore.DEClash.Weighted>
0.0519

> <Gold.Chemscore.DEInternal.Weighted>
1.6579

> <Gold.Chemscore.Rot.Weighted>
2.9867

> <Gold.Chemscore.Internal.Correction.Weighted>
   9.000000E+99

> <Gold.Protein.RotatedTorsions>
[ 6907 6896 6895 6894 ] final -151.90 input  -60.11 | X-H torsion
[ 7974 7965 7964 7962 ] final   22.09 input  175.53 | X-H torsion
[ 8008 7997 7996 7995 ] final  168.37 input   59.86 | X-H torsion
[ 10167 10162 10161 10158 ] final -114.47 input  -65.29 | X-H torsion
[ 10718 10713 10712 10709 ] final    8.99 input   66.30 | X-H torsion
[ 10763 10752 10751 10750 ] final -171.72 input  -60.55 | X-H torsion
[ 11005 11000 10999 10996 ] final  -66.02 input  -57.11 | X-H torsion

> <Gold.Protein.ActiveResidues>
 VAL166  LYS551  ARG553  GLY616  TRP617  ASP618  TYR619  PRO620  LYS621  CYS622 
 ASP623  PHE694  ASN695  SER759  ASP760  ASP761  ALA762  ILE779  LEU786  VAL792 
 PHE793  MET794  SER795  GLU796  ALA797  LYS798  CYS799  TRP800  GLU811  SER814 

> <Gold.Protein.RotatedAtoms>
  151.2199  133.4508  159.2600 H   0  0  0  0  0  0  0  0  0  0  0  0  # atno 6907 bound_to 6896
  151.0895  134.9907  159.8406 H   0  0  0  0  0  0  0  0  0  0  0  0  # atno 6908 bound_to 6896
  152.5433  134.2134  159.8812 H   0  0  0  0  0  0  0  0  0  0  0  0  # atno 6909 bound_to 6896
  146.2044  139.7935  142.8737 H   0  0  0  0  0  0  0  0  0  0  0  0  # atno 7974 bound_to 7965
  156.1553  140.1592  156.8703 H   0  0  0  0  0  0  0  0  0  0  0  0  # atno 8008 bound_to 7997
  154.5109  140.0801  156.8024 H   0  0  0  0  0  0  0  0  0  0  0  0  # atno 8009 bound_to 7997
  155.3815  140.3405  155.4249 H   0  0  0  0  0  0  0  0  0  0  0  0  # atno 8010 bound_to 7997
  140.1006  143.4616  152.1814 H   0  0  0  0  0  0  0  0  0  0  0  0  # atno 10167 bound_to 10162
  156.9597  130.5928  149.5661 H   0  0  0  0  0  0  0  0  0  0  0  0  # atno 10718 bound_to 10713
  154.6273  135.2882  155.0257 H   0  0  0  0  0  0  0  0  0  0  0  0  # atno 10763 bound_to 10752
  154.1431  135.6515  153.4950 H   0  0  0  0  0  0  0  0  0  0  0  0  # atno 10764 bound_to 10752
  153.0263  135.5337  154.7086 H   0  0  0  0  0  0  0  0  0  0  0  0  # atno 10765 bound_to 10752
  141.1471  133.6692  156.6075 H   0  0  0  0  0  0  0  0  0  0  0  0  # atno 11005 bound_to 11000
  145.3372  141.0280  143.3413 LP  0  0  0  0  0  0  0  0  0  0  0  0  # atno 17320 bound_to 7965
  144.8757  139.4975  143.6747 LP  0  0  0  0  0  0  0  0  0  0  0  0  # atno 17321 bound_to 7965
  139.5673  144.7443  151.3986 LP  0  0  0  0  0  0  0  0  0  0  0  0  # atno 17342 bound_to 10162
  140.6980  143.7702  150.7357 LP  0  0  0  0  0  0  0  0  0  0  0  0  # atno 17343 bound_to 10162
  156.0327  130.5417  150.8576 LP  0  0  0  0  0  0  0  0  0  0  0  0  # atno 17370 bound_to 10713
  157.5666  131.0946  150.9480 LP  0  0  0  0  0  0  0  0  0  0  0  0  # atno 17371 bound_to 10713
  140.3640  134.7663  157.4553 LP  0  0  0  0  0  0  0  0  0  0  0  0  # atno 17394 bound_to 11000
  140.0762  134.5793  155.8588 LP  0  0  0  0  0  0  0  0  0  0  0  0  # atno 17395 bound_to 11000

$$$$
