AV-unprocessed.smi:1828|AV-procd|sdf|7426|dock3
  -GOLD-   22720 9103D 1   1.00000     0.00000
 Structure written by MMmdl.
 40 42  0  0  0  0  0  0  0  0  2 V2000
  151.5838  136.6781  154.3541 O   0  0  0  0  0  0  0  0  0  0  0  0
  151.8840  138.0431  154.1635 C   0  0  0  0  0  0  0  0  0  0  0  0
  150.6636  138.9069  154.1885 C   0  0  0  0  0  0  0  0  0  0  0  0
  149.5468  138.7101  153.4319 N   0  3  0  0  0  0  0  0  0  0  0  0
  148.5951  139.6861  153.7259 C   0  0  0  0  0  0  0  0  0  0  0  0
  147.3160  139.8939  153.2194 C   0  0  0  0  0  0  0  0  0  0  0  0
  146.5982  140.9889  153.7435 C   0  0  0  0  0  0  0  0  0  0  0  0
  147.1552  141.8265  154.7316 C   0  0  0  0  0  0  0  0  0  0  0  0
  148.4535  141.6059  155.2368 C   0  0  0  0  0  0  0  0  0  0  0  0
  149.1572  140.5223  154.7116 C   0  0  0  0  0  0  0  0  0  0  0  0
  150.4339  140.0078  154.9653 N   0  0  0  0  0  0  0  0  0  0  0  0
  151.2771  140.6680  155.9766 C   0  0  0  0  0  0  0  0  0  0  0  0
  151.1134  140.0470  157.3786 C   0  0  2  0  0  0  0  0  0  0  0  0
  149.7351  140.0008  157.6837 O   0  0  0  0  0  0  0  0  0  0  0  0
  151.9198  140.7925  158.4332 C   0  0  0  0  0  0  0  0  0  0  0  0
  151.6358  142.1398  158.7453 C   0  0  0  0  0  0  0  0  0  0  0  0
  152.4150  142.8246  159.6967 C   0  0  0  0  0  0  0  0  0  0  0  0
  153.4848  142.1707  160.3374 C   0  0  0  0  0  0  0  0  0  0  0  0
  153.7807  140.8245  160.0303 C   0  0  0  0  0  0  0  0  0  0  0  0
  154.9426  140.0990  160.6913 C   0  0  0  0  0  0  0  0  0  0  0  0
  156.0884  140.4940  160.1370 F   0  0  0  0  0  0  0  0  0  0  0  0
  154.9673  140.4001  161.9898 F   0  0  0  0  0  0  0  0  0  0  0  0
  154.8435  138.7753  160.5646 F   0  0  0  0  0  0  0  0  0  0  0  0
  152.9905  140.1420  159.0820 C   0  0  0  0  0  0  0  0  0  0  0  0
  150.6634  136.5980  154.5539 H   0  0  0  0  0  0  0  0  0  0  0  0
  152.5639  138.3698  154.9509 H   0  0  0  0  0  0  0  0  0  0  0  0
  152.4147  138.1561  153.2195 H   0  0  0  0  0  0  0  0  0  0  0  0
  146.8867  139.2523  152.4637 H   0  0  0  0  0  0  0  0  0  0  0  0
  145.6002  141.1895  153.3813 H   0  0  0  0  0  0  0  0  0  0  0  0
  146.5748  142.6556  155.1103 H   0  0  0  0  0  0  0  0  0  0  0  0
  148.8699  142.2524  155.9953 H   0  0  0  0  0  0  0  0  0  0  0  0
  152.3149  140.6148  155.6479 H   0  0  0  0  0  0  0  0  0  0  0  0
  151.0245  141.7291  155.9900 H   0  0  0  0  0  0  0  0  0  0  0  0
  151.4547  139.0115  157.3526 H   0  0  0  0  0  0  0  0  0  0  0  0
  149.2463  140.1501  156.8886 H   0  0  0  0  0  0  0  0  0  0  0  0
  150.8264  142.6563  158.2502 H   0  0  0  0  0  0  0  0  0  0  0  0
  152.1953  143.8558  159.9314 H   0  0  0  0  0  0  0  0  0  0  0  0
  154.0756  142.7133  161.0604 H   0  0  0  0  0  0  0  0  0  0  0  0
  153.2222  139.1152  158.8390 H   0  0  0  0  0  0  0  0  0  0  0  0
  149.4484  137.9577  152.7622 H   0  0  0  0  0  0  0  0  0  0  0  0
  1  2  1  0  0  0  0
  1 25  1  0  0  0  0
  2  3  1  0  0  0  0
  2 26  1  0  0  0  0
  2 27  1  0  0  0  0
  3 11  1  0  0  0  0
  3  4  2  0  0  0  0
  4  5  1  0  0  0  0
  4 40  1  0  0  0  0
  5 10  2  0  0  0  0
  5  6  1  0  0  0  0
  6  7  2  0  0  0  0
  6 28  1  0  0  0  0
  7  8  1  0  0  0  0
  7 29  1  0  0  0  0
  8  9  2  0  0  0  0
  8 30  1  0  0  0  0
  9 10  1  0  0  0  0
  9 31  1  0  0  0  0
 10 11  1  0  0  0  0
 11 12  1  0  0  0  0
 12 13  1  0  0  0  0
 12 32  1  0  0  0  0
 12 33  1  0  0  0  0
 13 14  1  0  0  0  0
 13 15  1  0  0  0  0
 13 34  1  0  0  0  0
 14 35  1  0  0  0  0
 15 24  1  0  0  0  0
 15 16  2  0  0  0  0
 16 17  1  0  0  0  0
 16 36  1  0  0  0  0
 17 18  2  0  0  0  0
 17 37  1  0  0  0  0
 18 19  1  0  0  0  0
 18 38  1  0  0  0  0
 19 20  1  0  0  0  0
 19 24  2  0  0  0  0
 20 21  1  0  0  0  0
 20 22  1  0  0  0  0
 20 23  1  0  0  0  0
 24 39  1  0  0  0  0
M  CHG  1   4   1
M  END
> <s_m_source_file>
AV-unprocessed.smi

> <i_m_source_file_index>
1828

> <i_lp_mmshare_version>
43012

> <i_f3d_flags>
0

> <s_epik_input>
W2NIXTFbY0hdW2NIXVtjSF1jKGMxMiluKGMobjIpW0NIMl1bT0hdKVtDSDJdW0NASF0oW09IXSljM1tjSF1bY0hdW2NIXWMoQyhGKShGKUYpW2NIXTM=

> <s_epik_cmdline>
J2VwaWtfcHl0aG9uJywgJy1waCcsICc3LjAnLCAnLXRuJywgJzgnLCAnLW1hJywgJzIwMCcsICctbWV0YWxfYmluZGluZycsICctaW1hZScsICc8aW5maWxlLm1hZT4nLCAnLW9tYWUnLCAnPG91dGZpbGUubWFlPic=

> <r_epik_Ionization_Penalty>
1.35643

> <r_epik_Ionization_Penalty_Charging>
1.35557

> <r_epik_Ionization_Penalty_Neutral>
0.000856502

> <r_epik_State_Penalty>
1.43401

> <r_epik_Charging_Adjusted_Penalty>
2.78958

> <i_epik_Tot_Q>
1

> <i_epik_Tot_abs_Q>
1

> <r_epik_Metal_State_Penalty>
5.47166

> <b_epik_Metal_Only>
0

> <s_lp_Force_Field>
OPLS_2005

> <r_lp_Energy>
16.3516

> <b_lp_Chiralities_Consistent>
1

> <s_lp_Variant>
AV-unprocessed.smi:1828-3

> <Gold.Version>
5.8.1

> <Gold.Id.Protein>
6NUR|6NUR_protein|mol2

> <Gold.PLP.Fitness>
59.0107

> <Gold.PLP.PLP>
-52.6919

> <Gold.PLP.part.hbond>
-3.3759

> <Gold.PLP.part.metal>
0.0000

> <Gold.PLP.part.buried>
2.2346

> <Gold.PLP.part.nonpolar>
-51.7581

> <Gold.PLP.part.repulsive>
0.0843

> <Gold.PLP.ligand.clash>
0.4159

> <Gold.PLP.ligand.torsion>
1.1634

> <Gold.PLP.Chemscore.Hbond>
3.0000

> <Gold.PLP.Chemscore.CHOScore>
0.0000

> <Gold.PLP.Chemscore.Metal>
0.0000

> <Gold.Chemscore.Hbonds>
donor molecule, donor type, donor heavy atom, donor atom, acceptor molecule, acceptor atom, score
      L1  H     4    40       P1  7948  2.00
      P1  H 10752 10764       L1     1  1.00

> <Gold.PLP.Chemscore.Internal.Correction>
0.0615

> <Gold.Rescore>
     Score         DG    S(hbond)    S(metal)    S(lipo)     H(rot)  DE(clash)    DE(int)     intcor
     15.41     -17.52       1.78        0.00     117.24       2.98       0.18       1.94       ----

> <Gold.Chemscore.Fitness>
15.4057

> <Gold.Chemscore.DG>
-17.5219

> <Gold.Chemscore.ZeroCoef>
-5.4800

> <Gold.Chemscore.Hbond>
1.7842

> <Gold.Chemscore.Metal>
0.0000

> <Gold.Chemscore.Lipo>
117.2382

> <Gold.Chemscore.Internal_Hbond>
0.0000

> <Gold.Chemscore.DEClash>
0.1764

> <Gold.Chemscore.DEInternal>
1.9398

> <Gold.Chemscore.Rot>
2.9822

> <Gold.Chemscore.Internal.Correction>
   9.000000E+99

> <Gold.Chemscore.Hbonds>
donor molecule, donor type, donor heavy atom, donor atom, acceptor molecule, acceptor atom, score
      L1  H     4    40       P1  7948  0.81
      P1  H 10752 10764       L1     1  0.85

> <Gold.Chemscore.Hbond.Weighted>
-5.9593

> <Gold.Chemscore.Metal.Weighted>
-0.0000

> <Gold.Chemscore.Lipo.Weighted>
-13.7169

> <Gold.Chemscore.Internal_Hbond.Weighted>
0.0000

> <Gold.Chemscore.DEClash.Weighted>
0.1764

> <Gold.Chemscore.DEInternal.Weighted>
1.9398

> <Gold.Chemscore.Rot.Weighted>
7.6343

> <Gold.Chemscore.Internal.Correction.Weighted>
   9.000000E+99

> <Gold.Protein.RotatedTorsions>
[ 6907 6896 6895 6894 ] final   99.84 input  -60.11 | X-H torsion
[ 7974 7965 7964 7962 ] final  -12.46 input  175.53 | X-H torsion
[ 8008 7997 7996 7995 ] final   44.72 input   59.86 | X-H torsion
[ 10167 10162 10161 10158 ] final -176.87 input  -65.29 | X-H torsion
[ 10718 10713 10712 10709 ] final  111.87 input   66.30 | X-H torsion
[ 10763 10752 10751 10750 ] final  -81.14 input  -60.55 | X-H torsion
[ 11005 11000 10999 10996 ] final   85.32 input  -57.11 | X-H torsion

> <Gold.Protein.ActiveResidues>
 VAL166  LYS551  ARG553  GLY616  TRP617  ASP618  TYR619  PRO620  LYS621  CYS622 
 ASP623  PHE694  ASN695  SER759  ASP760  ASP761  ALA762  ILE779  LEU786  VAL792 
 PHE793  MET794  SER795  GLU796  ALA797  LYS798  CYS799  TRP800  GLU811  SER814 

> <Gold.Protein.RotatedAtoms>
  152.5384  134.0367  159.8048 H   0  0  0  0  0  0  0  0  0  0  0  0  # atno 6907 bound_to 6896
  151.0529  133.5601  159.2648 H   0  0  0  0  0  0  0  0  0  0  0  0  # atno 6908 bound_to 6896
  151.2528  135.0635  159.9122 H   0  0  0  0  0  0  0  0  0  0  0  0  # atno 6909 bound_to 6896
  146.2151  140.3061  142.8379 H   0  0  0  0  0  0  0  0  0  0  0  0  # atno 7974 bound_to 7965
  155.3239  140.3398  155.4240 H   0  0  0  0  0  0  0  0  0  0  0  0  # atno 8008 bound_to 7997
  156.1895  140.1692  156.8157 H   0  0  0  0  0  0  0  0  0  0  0  0  # atno 8009 bound_to 7997
  154.5425  140.0722  156.8518 H   0  0  0  0  0  0  0  0  0  0  0  0  # atno 8010 bound_to 7997
  139.5508  144.2114  152.1073 H   0  0  0  0  0  0  0  0  0  0  0  0  # atno 10167 bound_to 10162
  157.6422  131.0958  150.6813 H   0  0  0  0  0  0  0  0  0  0  0  0  # atno 10718 bound_to 10713
  154.5599  135.5637  153.6997 H   0  0  0  0  0  0  0  0  0  0  0  0  # atno 10763 bound_to 10752
  153.0014  135.6271  154.2260 H   0  0  0  0  0  0  0  0  0  0  0  0  # atno 10764 bound_to 10752
  154.2197  135.2870  155.2909 H   0  0  0  0  0  0  0  0  0  0  0  0  # atno 10765 bound_to 10752
  139.8975  134.8278  156.2566 H   0  0  0  0  0  0  0  0  0  0  0  0  # atno 11005 bound_to 11000
  144.9022  140.7656  143.5860 LP  0  0  0  0  0  0  0  0  0  0  0  0  # atno 17320 bound_to 7965
  145.2987  139.1858  143.4701 LP  0  0  0  0  0  0  0  0  0  0  0  0  # atno 17321 bound_to 7965
  140.1609  144.5027  150.6633 LP  0  0  0  0  0  0  0  0  0  0  0  0  # atno 17342 bound_to 10162
  140.6770  143.2309  151.5482 LP  0  0  0  0  0  0  0  0  0  0  0  0  # atno 17343 bound_to 10162
  156.7135  130.4659  149.5541 LP  0  0  0  0  0  0  0  0  0  0  0  0  # atno 17370 bound_to 10713
  156.1714  130.6439  151.0841 LP  0  0  0  0  0  0  0  0  0  0  0  0  # atno 17371 bound_to 10713
  141.0190  133.7052  156.1236 LP  0  0  0  0  0  0  0  0  0  0  0  0  # atno 17394 bound_to 11000
  140.7261  134.4305  157.5570 LP  0  0  0  0  0  0  0  0  0  0  0  0  # atno 17395 bound_to 11000

$$$$
