AV-unprocessed.smi:1986|AV-procd|sdf|8048|dock2
  -GOLD-   2272010243D 1   1.00000     0.00000
 Structure written by MMmdl.
 47 48  0  0  0  0  0  0  0  0  3 V2000
  149.5723  132.4566  154.2725 C   0  0  0  0  0  0  0  0  0  0  0  0
  149.3630  133.9530  154.5654 C   0  0  0  0  0  0  0  0  0  0  0  0
  147.8831  134.4388  154.6280 C   0  0  1  0  0  0  0  0  0  0  0  0
  147.0573  133.4779  155.5240 C   0  0  0  0  0  0  0  0  0  0  0  0
  147.8141  135.8460  155.2931 C   0  0  0  0  0  0  0  0  0  0  0  0
  148.4119  135.8310  156.6240 N   0  0  0  0  0  0  0  0  0  0  0  0
  147.7989  135.5396  157.7806 C   0  0  0  0  0  0  0  0  0  0  0  0
  146.6448  135.1192  157.8505 O   0  0  0  0  0  0  0  0  0  0  0  0
  148.5979  135.8112  159.0645 C   0  0  0  0  0  0  0  0  0  0  0  0
  147.9718  135.2430  160.2715 N   0  0  0  0  0  0  0  0  0  0  0  0
  147.9720  133.7830  160.3166 N   0  5  0  0  0  0  0  0  0  0  0  0
  147.3883  133.1533  161.3706 C   0  0  0  0  0  0  0  0  0  0  0  0
  147.3367  131.9302  161.4701 O   0  0  0  0  0  0  0  0  0  0  0  0
  146.8235  133.9722  162.4299 C   0  0  0  0  0  0  0  0  0  0  0  0
  146.8790  135.3175  162.3842 C   0  0  0  0  0  0  0  0  0  0  0  0
  147.4878  136.0346  161.2711 C   0  0  0  0  0  0  0  0  0  0  0  0
  147.5622  137.2624  161.2348 O   0  0  0  0  0  0  0  0  0  0  0  0
  147.2703  134.4965  153.2473 N   0  3  0  0  0  0  0  0  0  0  0  0
  147.2116  133.1997  152.5146 C   0  0  0  0  0  0  0  0  0  0  0  0
  146.7703  133.4196  151.0593 C   0  0  0  0  0  0  0  0  0  0  0  0
  145.5012  134.0566  151.0411 O   0  0  0  0  0  0  0  0  0  0  0  0
  145.5492  135.3357  151.6563 C   0  0  0  0  0  0  0  0  0  0  0  0
  145.9581  135.1940  153.1327 C   0  0  0  0  0  0  0  0  0  0  0  0
  150.6362  132.2189  154.2611 H   0  0  0  0  0  0  0  0  0  0  0  0
  149.1719  132.1710  153.3002 H   0  0  0  0  0  0  0  0  0  0  0  0
  149.1110  131.8238  155.0299 H   0  0  0  0  0  0  0  0  0  0  0  0
  149.8647  134.1681  155.5085 H   0  0  0  0  0  0  0  0  0  0  0  0
  149.9051  134.5138  153.8046 H   0  0  0  0  0  0  0  0  0  0  0  0
  147.3128  133.5881  156.5783 H   0  0  0  0  0  0  0  0  0  0  0  0
  147.2292  132.4310  155.2737 H   0  0  0  0  0  0  0  0  0  0  0  0
  145.9870  133.6696  155.4403 H   0  0  0  0  0  0  0  0  0  0  0  0
  148.3006  136.5922  154.6639 H   0  0  0  0  0  0  0  0  0  0  0  0
  146.7835  136.1864  155.3895 H   0  0  0  0  0  0  0  0  0  0  0  0
  149.3710  136.1415  156.6936 H   0  0  0  0  0  0  0  0  0  0  0  0
  149.6109  135.4216  158.9484 H   0  0  0  0  0  0  0  0  0  0  0  0
  148.7113  136.8913  159.1719 H   0  0  0  0  0  0  0  0  0  0  0  0
  146.3559  133.4910  163.2763 H   0  0  0  0  0  0  0  0  0  0  0  0
  146.4513  135.8866  163.1962 H   0  0  0  0  0  0  0  0  0  0  0  0
  148.1800  132.7030  152.5023 H   0  0  0  0  0  0  0  0  0  0  0  0
  146.5076  132.5227  152.9990 H   0  0  0  0  0  0  0  0  0  0  0  0
  147.5032  134.0139  150.5140 H   0  0  0  0  0  0  0  0  0  0  0  0
  146.6909  132.4632  150.5427 H   0  0  0  0  0  0  0  0  0  0  0  0
  146.2429  135.9842  151.1203 H   0  0  0  0  0  0  0  0  0  0  0  0
  144.5644  135.7971  151.5825 H   0  0  0  0  0  0  0  0  0  0  0  0
  145.1883  134.6420  153.6719 H   0  0  0  0  0  0  0  0  0  0  0  0
  145.9957  136.1955  153.5570 H   0  0  0  0  0  0  0  0  0  0  0  0
  147.9113  135.0693  152.7158 H   0  0  0  0  0  0  0  0  0  0  0  0
  1  2  1  0  0  0  0
  1 24  1  0  0  0  0
  1 25  1  0  0  0  0
  1 26  1  0  0  0  0
  2  3  1  0  0  0  0
  2 27  1  0  0  0  0
  2 28  1  0  0  0  0
  3  4  1  0  0  0  0
  3  5  1  0  0  0  0
  3 18  1  0  0  0  0
  4 29  1  0  0  0  0
  4 30  1  0  0  0  0
  4 31  1  0  0  0  0
  5  6  1  0  0  0  0
  5 32  1  0  0  0  0
  5 33  1  0  0  0  0
  6  7  1  0  0  0  0
  6 34  1  0  0  0  0
  7  8  2  0  0  0  0
  7  9  1  0  0  0  0
  9 35  1  0  0  0  0
  9 36  1  0  0  0  0
  9 10  1  0  0  0  0
 10 11  1  0  0  0  0
 10 16  1  0  0  0  0
 11 12  1  0  0  0  0
 12 13  2  0  0  0  0
 12 14  1  0  0  0  0
 14 37  1  0  0  0  0
 14 15  2  0  0  0  0
 15 38  1  0  0  0  0
 15 16  1  0  0  0  0
 16 17  2  0  0  0  0
 18 23  1  0  0  0  0
 18 19  1  0  0  0  0
 18 47  1  0  0  0  0
 19 20  1  0  0  0  0
 19 39  1  0  0  0  0
 19 40  1  0  0  0  0
 20 21  1  0  0  0  0
 20 41  1  0  0  0  0
 20 42  1  0  0  0  0
 21 22  1  0  0  0  0
 22 23  1  0  0  0  0
 22 43  1  0  0  0  0
 22 44  1  0  0  0  0
 23 45  1  0  0  0  0
 23 46  1  0  0  0  0
M  CHG  1  11  -1
M  CHG  1  18   1
M  END
> <s_m_source_file>
AV-unprocessed.smi

> <i_m_source_file_index>
1986

> <i_lp_mmshare_version>
43012

> <i_f3d_flags>
0

> <s_epik_input>
W0NIMl0xW0NIMl1PW0NIMl1bQ0gyXU4xW0NAQF0oW0NIM10pKFtDSDJdW0NIM10pW0NIMl1bTkhdQyg9TylbQ0gyXW4yW25IXWMoPU8pW2NIXVtjSF1jMj1P

> <s_epik_cmdline>
J2VwaWtfcHl0aG9uJywgJy1waCcsICc3LjAnLCAnLXRuJywgJzgnLCAnLW1hJywgJzIwMCcsICctbWV0YWxfYmluZGluZycsICctaW1hZScsICc8aW5maWxlLm1hZT4nLCAnLW9tYWUnLCAnPG91dGZpbGUubWFlPic=

> <r_lp_tautomer_probability>
1

> <r_epik_Ionization_Penalty>
0.604767

> <r_epik_Ionization_Penalty_Charging>
0.604766

> <r_epik_Ionization_Penalty_Neutral>
8.70177e-08

> <r_epik_State_Penalty>
0.54579

> <r_epik_Charging_Adjusted_Penalty>
1.15056

> <i_epik_Tot_Q>
0

> <i_epik_Tot_abs_Q>
2

> <r_epik_Metal_State_Penalty>
0.54579

> <b_epik_Metal_Only>
0

> <s_lp_Force_Field>
OPLS_2005

> <r_lp_Energy>
39.3648

> <b_lp_Chiralities_Consistent>
1

> <s_lp_Variant>
AV-unprocessed.smi:1986-3

> <Gold.Version>
5.8.1

> <Gold.Id.Protein>
6NUR|6NUR_protein|mol2

> <Gold.PLP.Fitness>
45.5119

> <Gold.PLP.PLP>
-34.9760

> <Gold.PLP.part.hbond>
-3.0000

> <Gold.PLP.part.metal>
0.0000

> <Gold.PLP.part.buried>
-5.2288

> <Gold.PLP.part.nonpolar>
-27.0836

> <Gold.PLP.part.repulsive>
0.1473

> <Gold.PLP.ligand.clash>
0.0000

> <Gold.PLP.ligand.torsion>
0.6013

> <Gold.PLP.Chemscore.Hbond>
3.8400

> <Gold.PLP.Chemscore.CHOScore>
0.0000

> <Gold.PLP.Chemscore.Metal>
0.0000

> <Gold.Chemscore.Hbonds>
donor molecule, donor type, donor heavy atom, donor atom, acceptor molecule, acceptor atom, score
      L1  H    18    47       P1  7948  2.00
      P1  H  6931  6943       L1    17  0.88
      P1  H  6934  6947       L1    17  0.90

> <Gold.PLP.Chemscore.Internal.Correction>
0.2185

> <Gold.Rescore>
     Score         DG    S(hbond)    S(metal)    S(lipo)     H(rot)  DE(clash)    DE(int)     intcor
     13.89     -15.47       2.77        0.00      60.86       2.50       0.00       1.58       ----

> <Gold.Chemscore.Fitness>
13.8861

> <Gold.Chemscore.DG>
-15.4681

> <Gold.Chemscore.ZeroCoef>
-5.4800

> <Gold.Chemscore.Hbond>
2.7725

> <Gold.Chemscore.Metal>
0.0000

> <Gold.Chemscore.Lipo>
60.8642

> <Gold.Chemscore.Internal_Hbond>
0.0000

> <Gold.Chemscore.DEClash>
0.0030

> <Gold.Chemscore.DEInternal>
1.5790

> <Gold.Chemscore.Rot>
2.4973

> <Gold.Chemscore.Internal.Correction>
   9.000000E+99

> <Gold.Chemscore.Hbonds>
donor molecule, donor type, donor heavy atom, donor atom, acceptor molecule, acceptor atom, score
      L1  H    18    47       P1  7948  0.97
      P1  H  6931  6943       L1    17  0.86
      P1  H  6934  6947       L1    17  0.88

> <Gold.Chemscore.Hbond.Weighted>
-9.2600

> <Gold.Chemscore.Metal.Weighted>
-0.0000

> <Gold.Chemscore.Lipo.Weighted>
-7.1211

> <Gold.Chemscore.Internal_Hbond.Weighted>
0.0000

> <Gold.Chemscore.DEClash.Weighted>
0.0030

> <Gold.Chemscore.DEInternal.Weighted>
1.5790

> <Gold.Chemscore.Rot.Weighted>
6.3930

> <Gold.Chemscore.Internal.Correction.Weighted>
   9.000000E+99

> <Gold.Protein.RotatedTorsions>
[ 6907 6896 6895 6894 ] final    7.31 input  -60.11 | X-H torsion
[ 7974 7965 7964 7962 ] final  110.89 input  175.53 | X-H torsion
[ 8008 7997 7996 7995 ] final -133.18 input   59.86 | X-H torsion
[ 10167 10162 10161 10158 ] final  -49.25 input  -65.29 | X-H torsion
[ 10718 10713 10712 10709 ] final   83.12 input   66.30 | X-H torsion
[ 10763 10752 10751 10750 ] final  138.06 input  -60.55 | X-H torsion
[ 11005 11000 10999 10996 ] final  -88.35 input  -57.11 | X-H torsion

> <Gold.Protein.ActiveResidues>
 VAL166  LYS551  ARG553  GLY616  TRP617  ASP618  TYR619  PRO620  LYS621  CYS622 
 ASP623  PHE694  ASN695  SER759  ASP760  ASP761  ALA762  ILE779  LEU786  VAL792 
 PHE793  MET794  SER795  GLU796  ALA797  LYS798  CYS799  TRP800  GLU811  SER814 

> <Gold.Protein.RotatedAtoms>
  151.6878  135.0951  160.0227 H   0  0  0  0  0  0  0  0  0  0  0  0  # atno 6907 bound_to 6896
  152.3797  133.6525  159.6160 H   0  0  0  0  0  0  0  0  0  0  0  0  # atno 6908 bound_to 6896
  150.7737  133.9051  159.3394 H   0  0  0  0  0  0  0  0  0  0  0  0  # atno 6909 bound_to 6896
  145.2491  139.2747  143.4077 H   0  0  0  0  0  0  0  0  0  0  0  0  # atno 7974 bound_to 7965
  155.3412  140.0472  157.3045 H   0  0  0  0  0  0  0  0  0  0  0  0  # atno 8008 bound_to 7997
  154.5276  140.2246  155.8826 H   0  0  0  0  0  0  0  0  0  0  0  0  # atno 8009 bound_to 7997
  156.1756  140.3086  155.9058 H   0  0  0  0  0  0  0  0  0  0  0  0  # atno 8010 bound_to 7997
  140.6693  143.2705  151.4189 H   0  0  0  0  0  0  0  0  0  0  0  0  # atno 10167 bound_to 10162
  157.6872  131.0077  150.2475 H   0  0  0  0  0  0  0  0  0  0  0  0  # atno 10718 bound_to 10713
  153.8833  135.3041  155.3446 H   0  0  0  0  0  0  0  0  0  0  0  0  # atno 10763 bound_to 10752
  154.7751  135.4865  153.9730 H   0  0  0  0  0  0  0  0  0  0  0  0  # atno 10764 bound_to 10752
  153.1339  135.6810  153.9232 H   0  0  0  0  0  0  0  0  0  0  0  0  # atno 10765 bound_to 10752
  141.1603  133.7565  156.9438 H   0  0  0  0  0  0  0  0  0  0  0  0  # atno 11005 bound_to 11000
  146.3307  140.2877  142.8613 LP  0  0  0  0  0  0  0  0  0  0  0  0  # atno 17320 bound_to 7965
  144.9519  140.8187  143.5567 LP  0  0  0  0  0  0  0  0  0  0  0  0  # atno 17321 bound_to 7965
  139.5955  144.1407  152.2139 LP  0  0  0  0  0  0  0  0  0  0  0  0  # atno 17342 bound_to 10162
  140.0774  144.5729  150.7147 LP  0  0  0  0  0  0  0  0  0  0  0  0  # atno 17343 bound_to 10162
  156.3078  130.3767  149.7690 LP  0  0  0  0  0  0  0  0  0  0  0  0  # atno 17370 bound_to 10713
  156.5299  130.8253  151.3233 LP  0  0  0  0  0  0  0  0  0  0  0  0  # atno 17371 bound_to 10713
  140.1303  134.9360  157.2328 LP  0  0  0  0  0  0  0  0  0  0  0  0  # atno 17394 bound_to 11000
  140.2961  134.3185  155.7302 LP  0  0  0  0  0  0  0  0  0  0  0  0  # atno 17395 bound_to 11000

$$$$
