AV-unprocessed.smi:2445|AV-procd|sdf|9635|dock8
  -GOLD-   2272013273D 1   1.00000     0.00000
 Structure written by MMmdl.
 40 41  0  0  0  0  0  0  0  0  1 V2000
  154.2428  141.9940  163.6648 C   0  0  0  0  0  0  0  0  0  0  0  0
  153.5108  142.6750  162.5587 C   0  0  0  0  0  0  0  0  0  0  0  0
  152.7490  143.8149  162.6314 C   0  0  0  0  0  0  0  0  0  0  0  0
  152.1929  144.2008  161.4099 N   0  0  0  0  0  0  0  0  0  0  0  0
  152.5231  143.3735  160.4141 C   0  0  0  0  0  0  0  0  0  0  0  0
  152.0518  143.5391  159.0010 C   0  0  2  0  0  0  0  0  0  0  0  0
  152.7178  144.7345  158.3050 C   0  0  0  0  0  0  0  0  0  0  0  0
  150.5123  143.5473  158.8686 C   0  0  0  0  0  0  0  0  0  0  0  0
  150.0533  143.2267  157.5198 N   0  0  0  0  0  0  0  0  0  0  0  0
  150.1210  142.0164  156.9498 C   0  0  0  0  0  0  0  0  0  0  0  0
  150.6135  141.0267  157.4910 O   0  0  0  0  0  0  0  0  0  0  0  0
  149.5752  142.0176  155.7263 N   0  0  0  0  0  0  0  0  0  0  0  0
  149.4624  140.8595  154.8390 C   0  0  1  0  0  0  0  0  0  0  0  0
  150.8192  140.1740  154.6778 C   0  0  0  0  0  0  0  0  0  0  0  0
  150.5552  138.7197  155.0599 C   0  0  0  0  0  0  0  0  0  0  0  0
  149.4615  138.8036  155.9570 O   0  0  0  0  0  0  0  0  0  0  0  0
  148.5550  139.7511  155.4138 C   0  0  1  0  0  0  0  0  0  0  0  0
  147.5154  140.1680  156.4669 C   0  0  0  0  0  0  0  0  0  0  0  0
  153.5524  142.0434  160.9339 S   0  0  0  0  0  0  0  0  0  0  0  0
  154.0767  142.5001  164.6161 H   0  0  0  0  0  0  0  0  0  0  0  0
  155.3153  141.9864  163.4702 H   0  0  0  0  0  0  0  0  0  0  0  0
  153.9106  140.9612  163.7702 H   0  0  0  0  0  0  0  0  0  0  0  0
  152.5494  144.4130  163.5081 H   0  0  0  0  0  0  0  0  0  0  0  0
  152.4019  142.6551  158.4662 H   0  0  0  0  0  0  0  0  0  0  0  0
  153.8045  144.6456  158.3267 H   0  0  0  0  0  0  0  0  0  0  0  0
  152.4500  145.6743  158.7892 H   0  0  0  0  0  0  0  0  0  0  0  0
  152.4128  144.8003  157.2604 H   0  0  0  0  0  0  0  0  0  0  0  0
  150.0867  142.7981  159.5370 H   0  0  0  0  0  0  0  0  0  0  0  0
  150.1044  144.5085  159.1850 H   0  0  0  0  0  0  0  0  0  0  0  0
  149.6298  143.9776  156.9943 H   0  0  0  0  0  0  0  0  0  0  0  0
  149.1999  142.8875  155.3776 H   0  0  0  0  0  0  0  0  0  0  0  0
  149.0781  141.1562  153.8616 H   0  0  0  0  0  0  0  0  0  0  0  0
  151.2148  140.2636  153.6658 H   0  0  0  0  0  0  0  0  0  0  0  0
  151.5591  140.6000  155.3574 H   0  0  0  0  0  0  0  0  0  0  0  0
  150.2645  138.1349  154.1858 H   0  0  0  0  0  0  0  0  0  0  0  0
  151.4193  138.2410  155.5209 H   0  0  0  0  0  0  0  0  0  0  0  0
  148.0345  139.2664  154.5854 H   0  0  0  0  0  0  0  0  0  0  0  0
  146.8383  140.9246  156.0699 H   0  0  0  0  0  0  0  0  0  0  0  0
  147.9875  140.5712  157.3633 H   0  0  0  0  0  0  0  0  0  0  0  0
  146.9133  139.3124  156.7724 H   0  0  0  0  0  0  0  0  0  0  0  0
  1  2  1  0  0  0  0
  1 20  1  0  0  0  0
  1 21  1  0  0  0  0
  1 22  1  0  0  0  0
  2 19  1  0  0  0  0
  2  3  2  0  0  0  0
  3  4  1  0  0  0  0
  3 23  1  0  0  0  0
  4  5  2  0  0  0  0
  5  6  1  0  0  0  0
  5 19  1  0  0  0  0
  6  7  1  0  0  0  0
  6  8  1  0  0  0  0
  6 24  1  0  0  0  0
  7 25  1  0  0  0  0
  7 26  1  0  0  0  0
  7 27  1  0  0  0  0
  8  9  1  0  0  0  0
  8 28  1  0  0  0  0
  8 29  1  0  0  0  0
  9 10  1  0  0  0  0
  9 30  1  0  0  0  0
 10 11  2  0  0  0  0
 10 12  1  0  0  0  0
 12 13  1  0  0  0  0
 12 31  1  0  0  0  0
 13 17  1  0  0  0  0
 13 14  1  0  0  0  0
 13 32  1  0  0  0  0
 14 15  1  0  0  0  0
 14 33  1  0  0  0  0
 14 34  1  0  0  0  0
 15 16  1  0  0  0  0
 15 35  1  0  0  0  0
 15 36  1  0  0  0  0
 16 17  1  0  0  0  0
 17 18  1  0  0  0  0
 17 37  1  0  0  0  0
 18 38  1  0  0  0  0
 18 39  1  0  0  0  0
 18 40  1  0  0  0  0
M  END
> <s_m_source_file>
AV-unprocessed.smi

> <i_m_source_file_index>
2445

> <i_lp_mmshare_version>
43012

> <i_f3d_flags>
0

> <s_epik_input>
W0NIM11jMVtjSF1uYyhzMSlbQ0BIXShbQ0gzXSlbQ0gyXVtOSF1DKD1PKVtOSF1bQ0BASF0yW0NIMl1bQ0gyXU9bQ0BIXTJbQ0gzXQ==

> <s_epik_cmdline>
J2VwaWtfcHl0aG9uJywgJy1waCcsICc3LjAnLCAnLXRuJywgJzgnLCAnLW1hJywgJzIwMCcsICctbWV0YWxfYmluZGluZycsICctaW1hZScsICc8aW5maWxlLm1hZT4nLCAnLW9tYWUnLCAnPG91dGZpbGUubWFlPic=

> <r_epik_Ionization_Penalty>
0.000649483

> <r_epik_Ionization_Penalty_Charging>
0

> <r_epik_Ionization_Penalty_Neutral>
0.000649483

> <r_epik_State_Penalty>
0.000379895

> <r_epik_Charging_Adjusted_Penalty>
0.000379895

> <i_epik_Tot_Q>
0

> <i_epik_Tot_abs_Q>
0

> <r_epik_Metal_State_Penalty>
-0

> <b_epik_Metal_Only>
0

> <s_lp_Force_Field>
OPLS_2005

> <r_lp_Energy>
6.16207

> <b_lp_Chiralities_Consistent>
1

> <s_lp_Variant>
AV-unprocessed.smi:2445-3

> <Gold.Version>
5.8.1

> <Gold.Id.Protein>
6NUR|6NUR_protein|mol2

> <Gold.PLP.Fitness>
43.5312

> <Gold.PLP.PLP>
-38.1195

> <Gold.PLP.part.hbond>
-2.0000

> <Gold.PLP.part.metal>
0.0000

> <Gold.PLP.part.buried>
-0.9051

> <Gold.PLP.part.nonpolar>
-34.9303

> <Gold.PLP.part.repulsive>
0.3349

> <Gold.PLP.ligand.clash>
0.0000

> <Gold.PLP.ligand.torsion>
0.3436

> <Gold.PLP.Chemscore.Hbond>
1.9920

> <Gold.PLP.Chemscore.CHOScore>
0.0000

> <Gold.PLP.Chemscore.Metal>
0.0000

> <Gold.Chemscore.Hbonds>
donor molecule, donor type, donor heavy atom, donor atom, acceptor molecule, acceptor atom, score
      L1  H     9    30       P1  8028  1.00
      L1  H    12    31       P1  8028  0.98

> <Gold.PLP.Chemscore.Internal.Correction>
0.1228

> <Gold.Rescore>
     Score         DG    S(hbond)    S(metal)    S(lipo)     H(rot)  DE(clash)    DE(int)     intcor
     17.32     -21.60       1.82        0.00     119.40       1.53       1.82       2.47       ----

> <Gold.Chemscore.Fitness>
17.3177

> <Gold.Chemscore.DG>
-21.6028

> <Gold.Chemscore.ZeroCoef>
-5.4800

> <Gold.Chemscore.Hbond>
1.8194

> <Gold.Chemscore.Metal>
0.0000

> <Gold.Chemscore.Lipo>
119.3957

> <Gold.Chemscore.Internal_Hbond>
0.0000

> <Gold.Chemscore.DEClash>
1.8164

> <Gold.Chemscore.DEInternal>
2.4687

> <Gold.Chemscore.Rot>
1.5325

> <Gold.Chemscore.Internal.Correction>
   9.000000E+99

> <Gold.Chemscore.Hbonds>
donor molecule, donor type, donor heavy atom, donor atom, acceptor molecule, acceptor atom, score
      L1  H     9    30       P1  8028  0.78
      L1  H    12    31       P1  8028  0.93

> <Gold.Chemscore.Hbond.Weighted>
-6.0769

> <Gold.Chemscore.Metal.Weighted>
-0.0000

> <Gold.Chemscore.Lipo.Weighted>
-13.9693

> <Gold.Chemscore.Internal_Hbond.Weighted>
0.0000

> <Gold.Chemscore.DEClash.Weighted>
1.8164

> <Gold.Chemscore.DEInternal.Weighted>
2.4687

> <Gold.Chemscore.Rot.Weighted>
3.9233

> <Gold.Chemscore.Internal.Correction.Weighted>
   9.000000E+99

> <Gold.Protein.RotatedTorsions>
[ 6907 6896 6895 6894 ] final  127.97 input  -60.11 | X-H torsion
[ 7974 7965 7964 7962 ] final -159.44 input  175.53 | X-H torsion
[ 8008 7997 7996 7995 ] final  -96.17 input   59.86 | X-H torsion
[ 10167 10162 10161 10158 ] final   97.48 input  -65.29 | X-H torsion
[ 10718 10713 10712 10709 ] final   93.54 input   66.30 | X-H torsion
[ 10763 10752 10751 10750 ] final   24.63 input  -60.55 | X-H torsion
[ 11005 11000 10999 10996 ] final -103.32 input  -57.11 | X-H torsion

> <Gold.Protein.ActiveResidues>
 VAL166  LYS551  ARG553  GLY616  TRP617  ASP618  TYR619  PRO620  LYS621  CYS622 
 ASP623  PHE694  ASN695  SER759  ASP760  ASP761  ALA762  ILE779  LEU786  VAL792 
 PHE793  MET794  SER795  GLU796  ALA797  LYS798  CYS799  TRP800  GLU811  SER814 

> <Gold.Protein.RotatedAtoms>
  152.3764  133.6486  159.6126 H   0  0  0  0  0  0  0  0  0  0  0  0  # atno 6907 bound_to 6896
  150.7707  133.9187  159.3400 H   0  0  0  0  0  0  0  0  0  0  0  0  # atno 6908 bound_to 6896
  151.7001  135.0933  160.0300 H   0  0  0  0  0  0  0  0  0  0  0  0  # atno 6909 bound_to 6896
  144.7465  140.3684  143.6081 H   0  0  0  0  0  0  0  0  0  0  0  0  # atno 7974 bound_to 7965
  154.7710  140.0473  157.1051 H   0  0  0  0  0  0  0  0  0  0  0  0  # atno 8008 bound_to 7997
  154.9820  140.3102  155.4923 H   0  0  0  0  0  0  0  0  0  0  0  0  # atno 8009 bound_to 7997
  156.2921  140.2234  156.4920 H   0  0  0  0  0  0  0  0  0  0  0  0  # atno 8010 bound_to 7997
  139.7796  144.6893  151.0040 H   0  0  0  0  0  0  0  0  0  0  0  0  # atno 10167 bound_to 10162
  157.6954  131.0482  150.4050 H   0  0  0  0  0  0  0  0  0  0  0  0  # atno 10718 bound_to 10713
  153.0750  135.6601  154.0166 H   0  0  0  0  0  0  0  0  0  0  0  0  # atno 10763 bound_to 10752
  153.9802  135.2956  155.3422 H   0  0  0  0  0  0  0  0  0  0  0  0  # atno 10764 bound_to 10752
  154.7135  135.5195  153.8773 H   0  0  0  0  0  0  0  0  0  0  0  0  # atno 10765 bound_to 10752
  141.1151  133.8630  157.1471 H   0  0  0  0  0  0  0  0  0  0  0  0  # atno 11005 bound_to 11000
  145.7103  139.1683  143.2542 LP  0  0  0  0  0  0  0  0  0  0  0  0  # atno 17320 bound_to 7965
  146.1351  140.7133  142.9393 LP  0  0  0  0  0  0  0  0  0  0  0  0  # atno 17321 bound_to 7965
  140.7818  143.4497  151.0431 LP  0  0  0  0  0  0  0  0  0  0  0  0  # atno 17342 bound_to 10162
  139.8178  143.7862  152.3175 LP  0  0  0  0  0  0  0  0  0  0  0  0  # atno 17343 bound_to 10162
  156.4440  130.3997  149.6679 LP  0  0  0  0  0  0  0  0  0  0  0  0  # atno 17370 bound_to 10713
  156.3852  130.7599  151.2596 LP  0  0  0  0  0  0  0  0  0  0  0  0  # atno 17371 bound_to 10713
  140.0068  135.0005  157.0309 LP  0  0  0  0  0  0  0  0  0  0  0  0  # atno 17394 bound_to 11000
  140.4669  134.1427  155.7198 LP  0  0  0  0  0  0  0  0  0  0  0  0  # atno 17395 bound_to 11000

$$$$
