AV-unprocessed.smi:1056|AV-procd|sdf|4648|dock4
  -GOLD-   22720 3153D 1   1.00000     0.00000
 Structure written by MMmdl.
 45 47  0  0  0  0  0  0  0  0  4 V2000
  152.8821  142.6273  161.5577 C   0  0  0  0  0  0  0  0  0  0  0  0
  152.3714  142.2202  160.1860 C   0  0  0  0  0  0  0  0  0  0  0  0
  152.6369  140.9097  159.7289 C   0  0  0  0  0  0  0  0  0  0  0  0
  152.1574  140.5674  158.4701 C   0  0  0  0  0  0  0  0  0  0  0  0
  152.2542  139.3759  157.7484 N   0  3  0  0  0  0  0  0  0  0  0  0
  151.6235  139.5178  156.5498 C   0  0  0  0  0  0  0  0  0  0  0  0
  151.1243  140.7827  156.4948 N   0  0  0  0  0  0  0  0  0  0  0  0
  150.3552  141.4426  155.4288 C   0  0  0  0  0  0  0  0  0  0  0  0
  149.0585  140.6916  155.0640 C   0  0  2  0  0  0  0  0  0  0  0  0
  149.3328  139.7425  154.0508 O   0  0  0  0  0  0  0  0  0  0  0  0
  147.9704  141.6617  154.5594 C   0  0  0  0  0  0  0  0  0  0  0  0
  147.0996  142.1688  155.6497 N   0  3  1  0  0  0  0  0  0  0  0  0
  145.7897  142.6880  155.1758 C   0  0  0  0  0  0  0  0  0  0  0  0
  145.0874  143.4695  156.3027 C   0  0  0  0  0  0  0  0  0  0  0  0
  145.1217  142.7022  157.5537 N   0  5  0  0  0  0  0  0  0  0  0  0
  146.0069  141.7078  157.8757 C   0  0  0  0  0  0  0  0  0  0  0  0
  146.1045  141.1687  158.9759 O   0  0  0  0  0  0  0  0  0  0  0  0
  146.9333  141.1771  156.7484 C   0  0  0  0  0  0  0  0  0  0  0  0
  151.4338  141.4752  157.6724 C   0  0  0  0  0  0  0  0  0  0  0  0
  151.1640  142.7705  158.1086 C   0  0  0  0  0  0  0  0  0  0  0  0
  151.6444  143.1388  159.3856 C   0  0  0  0  0  0  0  0  0  0  0  0
  151.3656  144.5458  159.8864 C   0  0  0  0  0  0  0  0  0  0  0  0
  153.4477  141.8224  162.0281 H   0  0  0  0  0  0  0  0  0  0  0  0
  152.0500  142.8787  162.2157 H   0  0  0  0  0  0  0  0  0  0  0  0
  153.5386  143.4944  161.4819 H   0  0  0  0  0  0  0  0  0  0  0  0
  153.1898  140.2050  160.3329 H   0  0  0  0  0  0  0  0  0  0  0  0
  151.5337  138.7614  155.7834 H   0  0  0  0  0  0  0  0  0  0  0  0
  150.1124  142.4439  155.7868 H   0  0  0  0  0  0  0  0  0  0  0  0
  150.9944  141.5801  154.5561 H   0  0  0  0  0  0  0  0  0  0  0  0
  148.7143  140.1537  155.9470 H   0  0  0  0  0  0  0  0  0  0  0  0
  148.5207  139.3488  153.7704 H   0  0  0  0  0  0  0  0  0  0  0  0
  148.4213  142.5115  154.0447 H   0  0  0  0  0  0  0  0  0  0  0  0
  147.3646  141.1440  153.8137 H   0  0  0  0  0  0  0  0  0  0  0  0
  145.9144  143.3443  154.3155 H   0  0  0  0  0  0  0  0  0  0  0  0
  145.1673  141.8548  154.8450 H   0  0  0  0  0  0  0  0  0  0  0  0
  145.5922  144.4280  156.4246 H   0  0  0  0  0  0  0  0  0  0  0  0
  144.0687  143.7064  155.9968 H   0  0  0  0  0  0  0  0  0  0  0  0
  146.5109  140.2518  156.3537 H   0  0  0  0  0  0  0  0  0  0  0  0
  147.9082  140.9355  157.1738 H   0  0  0  0  0  0  0  0  0  0  0  0
  150.6159  143.4732  157.4987 H   0  0  0  0  0  0  0  0  0  0  0  0
  150.7807  145.1177  159.1656 H   0  0  0  0  0  0  0  0  0  0  0  0
  152.2988  145.0824  160.0588 H   0  0  0  0  0  0  0  0  0  0  0  0
  150.8045  144.5157  160.8206 H   0  0  0  0  0  0  0  0  0  0  0  0
  147.5790  142.9532  156.0668 H   0  0  0  0  0  0  0  0  0  0  0  0
  152.7144  138.5266  158.0507 H   0  0  0  0  0  0  0  0  0  0  0  0
  1  2  1  0  0  0  0
  1 23  1  0  0  0  0
  1 24  1  0  0  0  0
  1 25  1  0  0  0  0
  2 21  1  0  0  0  0
  2  3  2  0  0  0  0
  3  4  1  0  0  0  0
  3 26  1  0  0  0  0
  4 19  2  0  0  0  0
  4  5  1  0  0  0  0
  5  6  2  0  0  0  0
  5 45  1  0  0  0  0
  6  7  1  0  0  0  0
  6 27  1  0  0  0  0
  7  8  1  0  0  0  0
  7 19  1  0  0  0  0
  8  9  1  0  0  0  0
  8 28  1  0  0  0  0
  8 29  1  0  0  0  0
  9 10  1  0  0  0  0
  9 11  1  0  0  0  0
  9 30  1  0  0  0  0
 10 31  1  0  0  0  0
 11 12  1  0  0  0  0
 11 32  1  0  0  0  0
 11 33  1  0  0  0  0
 12 18  1  0  0  0  0
 12 13  1  0  0  0  0
 12 44  1  0  0  0  0
 13 14  1  0  0  0  0
 13 34  1  0  0  0  0
 13 35  1  0  0  0  0
 14 15  1  0  0  0  0
 14 36  1  0  0  0  0
 14 37  1  0  0  0  0
 15 16  1  0  0  0  0
 16 17  2  0  0  0  0
 16 18  1  0  0  0  0
 18 38  1  0  0  0  0
 18 39  1  0  0  0  0
 19 20  1  0  0  0  0
 20 21  2  0  0  0  0
 20 40  1  0  0  0  0
 21 22  1  0  0  0  0
 22 41  1  0  0  0  0
 22 42  1  0  0  0  0
 22 43  1  0  0  0  0
M  CHG  1   5   1
M  CHG  1  12   1
M  CHG  1  15  -1
M  END
> <s_m_source_file>
AV-unprocessed.smi

> <i_m_source_file_index>
1056

> <i_lp_mmshare_version>
43012

> <i_f3d_flags>
0

> <s_epik_input>
W0NIM11jKFtjSF0xKWMoW0NIM10pW2NIXWMoYzEyKW4oW2NIXW4yKVtDSDJdW0NASF0oW09IXSlbQ0gyXU4zW0NIMl1bQ0gyXVtOSF1DKD1PKVtDSDJdMw==

> <s_epik_cmdline>
J2VwaWtfcHl0aG9uJywgJy1waCcsICc3LjAnLCAnLXRuJywgJzgnLCAnLW1hJywgJzIwMCcsICctbWV0YWxfYmluZGluZycsICctaW1hZScsICc8aW5maWxlLm1hZT4nLCAnLW9tYWUnLCAnPG91dGZpbGUubWFlPic=

> <r_epik_Ionization_Penalty>
6.22415

> <r_epik_Ionization_Penalty_Charging>
6.22415

> <r_epik_Ionization_Penalty_Neutral>
4.02797e-07

> <r_epik_State_Penalty>
6.37716

> <r_epik_Charging_Adjusted_Penalty>
12.6013

> <i_epik_Tot_Q>
1

> <i_epik_Tot_abs_Q>
3

> <r_epik_Metal_State_Penalty>
2.53509

> <b_epik_Metal_Only>
1

> <s_lp_Force_Field>
OPLS_2005

> <r_lp_Energy>
27.8537

> <b_lp_Chiralities_Consistent>
1

> <s_lp_Variant>
AV-unprocessed.smi:1056-19

> <Gold.Version>
5.8.1

> <Gold.Id.Protein>
6NUR|6NUR_protein|mol2

> <Gold.PLP.Fitness>
49.1331

> <Gold.PLP.PLP>
-42.7295

> <Gold.PLP.part.hbond>
-3.0000

> <Gold.PLP.part.metal>
0.0000

> <Gold.PLP.part.buried>
-5.8062

> <Gold.PLP.part.nonpolar>
-33.6803

> <Gold.PLP.part.repulsive>
0.2374

> <Gold.PLP.ligand.clash>
0.0000

> <Gold.PLP.ligand.torsion>
1.0407

> <Gold.PLP.Chemscore.Hbond>
2.8160

> <Gold.PLP.Chemscore.CHOScore>
0.0000

> <Gold.PLP.Chemscore.Metal>
0.0000

> <Gold.Chemscore.Hbonds>
donor molecule, donor type, donor heavy atom, donor atom, acceptor molecule, acceptor atom, score
      L1  H    12    44       P1  8028  0.89
      P1  H  6934  6946       L1    17  0.62

> <Gold.PLP.Chemscore.Internal.Correction>
0.0370

> <Gold.Rescore>
     Score         DG    S(hbond)    S(metal)    S(lipo)     H(rot)  DE(clash)    DE(int)     intcor
     15.97     -17.26       1.56        0.00     108.07       2.37       0.19       1.10       ----

> <Gold.Chemscore.Fitness>
15.9739

> <Gold.Chemscore.DG>
-17.2618

> <Gold.Chemscore.ZeroCoef>
-5.4800

> <Gold.Chemscore.Hbond>
1.5601

> <Gold.Chemscore.Metal>
0.0000

> <Gold.Chemscore.Lipo>
108.0739

> <Gold.Chemscore.Internal_Hbond>
0.0000

> <Gold.Chemscore.DEClash>
0.1887

> <Gold.Chemscore.DEInternal>
1.0993

> <Gold.Chemscore.Rot>
2.3724

> <Gold.Chemscore.Internal.Correction>
   9.000000E+99

> <Gold.Chemscore.Hbonds>
donor molecule, donor type, donor heavy atom, donor atom, acceptor molecule, acceptor atom, score
      L1  H    12    44       P1  8028  0.09
      P1  H  6934  6946       L1    17  0.64

> <Gold.Chemscore.Hbond.Weighted>
-5.2106

> <Gold.Chemscore.Metal.Weighted>
-0.0000

> <Gold.Chemscore.Lipo.Weighted>
-12.6446

> <Gold.Chemscore.Internal_Hbond.Weighted>
0.0000

> <Gold.Chemscore.DEClash.Weighted>
0.1887

> <Gold.Chemscore.DEInternal.Weighted>
1.0993

> <Gold.Chemscore.Rot.Weighted>
6.0734

> <Gold.Chemscore.Internal.Correction.Weighted>
   9.000000E+99

> <Gold.Protein.RotatedTorsions>
[ 6907 6896 6895 6894 ] final -115.22 input  -60.11 | X-H torsion
[ 7974 7965 7964 7962 ] final   91.06 input  175.53 | X-H torsion
[ 8008 7997 7996 7995 ] final  -77.07 input   59.86 | X-H torsion
[ 10167 10162 10161 10158 ] final   68.04 input  -65.29 | X-H torsion
[ 10718 10713 10712 10709 ] final   81.12 input   66.30 | X-H torsion
[ 10763 10752 10751 10750 ] final   52.86 input  -60.55 | X-H torsion
[ 11005 11000 10999 10996 ] final  -26.80 input  -57.11 | X-H torsion

> <Gold.Protein.ActiveResidues>
 VAL166  LYS551  ARG553  GLY616  TRP617  ASP618  TYR619  PRO620  LYS621  CYS622 
 ASP623  PHE694  ASN695  SER759  ASP760  ASP761  ALA762  ILE779  LEU786  VAL792 
 PHE793  MET794  SER795  GLU796  ALA797  LYS798  CYS799  TRP800  GLU811  SER814 

> <Gold.Protein.RotatedAtoms>
  150.7961  133.8690  159.3253 H   0  0  0  0  0  0  0  0  0  0  0  0  # atno 6907 bound_to 6896
  151.6515  135.0999  160.0171 H   0  0  0  0  0  0  0  0  0  0  0  0  # atno 6908 bound_to 6896
  152.4043  133.6825  159.6378 H   0  0  0  0  0  0  0  0  0  0  0  0  # atno 6909 bound_to 6896
  145.5107  139.2277  143.2726 H   0  0  0  0  0  0  0  0  0  0  0  0  # atno 7974 bound_to 7965
  154.5563  140.0716  156.8748 H   0  0  0  0  0  0  0  0  0  0  0  0  # atno 8008 bound_to 7997
  155.2897  140.3377  155.4235 H   0  0  0  0  0  0  0  0  0  0  0  0  # atno 8009 bound_to 7997
  156.2004  140.1719  156.7896 H   0  0  0  0  0  0  0  0  0  0  0  0  # atno 8010 bound_to 7997
  140.0830  144.5054  150.7149 H   0  0  0  0  0  0  0  0  0  0  0  0  # atno 10167 bound_to 10162
  157.6824  130.9990  150.2180 H   0  0  0  0  0  0  0  0  0  0  0  0  # atno 10718 bound_to 10713
  152.9791  135.5798  154.4648 H   0  0  0  0  0  0  0  0  0  0  0  0  # atno 10763 bound_to 10752
  154.4219  135.2772  155.1972 H   0  0  0  0  0  0  0  0  0  0  0  0  # atno 10764 bound_to 10752
  154.3717  135.6166  153.5797 H   0  0  0  0  0  0  0  0  0  0  0  0  # atno 10765 bound_to 10752
  140.9062  133.7491  156.0609 H   0  0  0  0  0  0  0  0  0  0  0  0  # atno 11005 bound_to 11000
  146.2168  140.5914  142.9035 LP  0  0  0  0  0  0  0  0  0  0  0  0  # atno 17320 bound_to 7965
  144.7729  140.5676  143.6658 LP  0  0  0  0  0  0  0  0  0  0  0  0  # atno 17321 bound_to 7965
  140.7068  143.2474  151.4703 LP  0  0  0  0  0  0  0  0  0  0  0  0  # atno 17342 bound_to 10162
  139.5768  144.1800  152.1914 LP  0  0  0  0  0  0  0  0  0  0  0  0  # atno 17343 bound_to 10162
  156.2837  130.3736  149.7909 LP  0  0  0  0  0  0  0  0  0  0  0  0  # atno 17370 bound_to 10713
  156.5590  130.8375  151.3323 LP  0  0  0  0  0  0  0  0  0  0  0  0  # atno 17371 bound_to 10713
  140.8168  134.3336  157.5394 LP  0  0  0  0  0  0  0  0  0  0  0  0  # atno 17394 bound_to 11000
  139.8750  134.9286  156.3454 LP  0  0  0  0  0  0  0  0  0  0  0  0  # atno 17395 bound_to 11000

$$$$
