AV-unprocessed.smi:1185|AV-procd|sdf|4974|dock2
  -GOLD-   22720 3563D 1   1.00000     0.00000
 Structure written by MMmdl.
 38 40  0  0  0  0  0  0  0  0  1 V2000
  153.1372  139.4168  158.1891 O   0  0  0  0  0  0  0  0  0  0  0  0
  152.9519  140.5066  158.7319 C   0  0  0  0  0  0  0  0  0  0  0  0
  153.6011  140.9100  159.9885 C   0  0  0  0  0  0  0  0  0  0  0  0
  154.5569  139.9204  160.6496 C   0  0  0  0  0  0  0  0  0  0  0  0
  154.9153  140.3209  161.8704 F   0  0  0  0  0  0  0  0  0  0  0  0
  153.9827  138.7224  160.7649 F   0  0  0  0  0  0  0  0  0  0  0  0
  155.6672  139.7826  159.9240 F   0  0  0  0  0  0  0  0  0  0  0  0
  153.3543  142.1327  160.5188 C   0  0  0  0  0  0  0  0  0  0  0  0
  152.4444  143.0465  159.8581 C   0  0  0  0  0  0  0  0  0  0  0  0
  152.1391  144.4198  160.3817 C   0  0  0  0  0  0  0  0  0  0  0  0
  150.7392  144.9887  160.3483 C   0  0  0  0  0  0  0  0  0  0  0  0
  151.8117  145.5708  159.4578 C   0  0  0  0  0  0  0  0  0  0  0  0
  151.8659  142.6855  158.7631 N   0  0  0  0  0  0  0  0  0  0  0  0
  152.1250  141.4523  158.1972 N   0  0  0  0  0  0  0  0  0  0  0  0
  151.4620  141.2344  156.9044 C   0  0  0  0  0  0  0  0  0  0  0  0
  149.9199  141.2333  157.0225 C   0  0  1  0  0  0  0  0  0  0  0  0
  149.4950  142.5524  157.3006 O   0  0  0  0  0  0  0  0  0  0  0  0
  149.2344  140.6513  155.7894 C   0  0  0  0  0  0  0  0  0  0  0  0
  148.3773  141.4588  155.0087 C   0  0  0  0  0  0  0  0  0  0  0  0
  147.7643  140.9386  153.8529 C   0  0  0  0  0  0  0  0  0  0  0  0
  148.0058  139.6069  153.4668 C   0  0  0  0  0  0  0  0  0  0  0  0
  148.8628  138.7976  154.2363 C   0  0  0  0  0  0  0  0  0  0  0  0
  149.4766  139.3155  155.3934 C   0  0  0  0  0  0  0  0  0  0  0  0
  150.3087  138.5245  156.1125 F   0  0  0  0  0  0  0  0  0  0  0  0
  153.8246  142.4496  161.4376 H   0  0  0  0  0  0  0  0  0  0  0  0
  152.7461  144.6444  161.2568 H   0  0  0  0  0  0  0  0  0  0  0  0
  149.9594  144.3978  159.8716 H   0  0  0  0  0  0  0  0  0  0  0  0
  150.4177  145.5810  161.2024 H   0  0  0  0  0  0  0  0  0  0  0  0
  152.2041  146.5514  159.7192 H   0  0  0  0  0  0  0  0  0  0  0  0
  151.7338  145.3693  158.3910 H   0  0  0  0  0  0  0  0  0  0  0  0
  151.7840  141.9904  156.1857 H   0  0  0  0  0  0  0  0  0  0  0  0
  151.7937  140.2826  156.4845 H   0  0  0  0  0  0  0  0  0  0  0  0
  149.6363  140.6398  157.8918 H   0  0  0  0  0  0  0  0  0  0  0  0
  148.7124  142.5088  157.8286 H   0  0  0  0  0  0  0  0  0  0  0  0
  148.1934  142.4853  155.2900 H   0  0  0  0  0  0  0  0  0  0  0  0
  147.1117  141.5630  153.2607 H   0  0  0  0  0  0  0  0  0  0  0  0
  147.5384  139.2081  152.5786 H   0  0  0  0  0  0  0  0  0  0  0  0
  149.0535  137.7777  153.9366 H   0  0  0  0  0  0  0  0  0  0  0  0
  1  2  2  0  0  0  0
  2 14  1  0  0  0  0
  2  3  1  0  0  0  0
  3  4  1  0  0  0  0
  3  8  2  0  0  0  0
  4  5  1  0  0  0  0
  4  6  1  0  0  0  0
  4  7  1  0  0  0  0
  8  9  1  0  0  0  0
  8 25  1  0  0  0  0
  9 10  1  0  0  0  0
  9 13  2  0  0  0  0
 10 12  1  0  0  0  0
 10 11  1  0  0  0  0
 10 26  1  0  0  0  0
 11 12  1  0  0  0  0
 11 27  1  0  0  0  0
 11 28  1  0  0  0  0
 12 29  1  0  0  0  0
 12 30  1  0  0  0  0
 13 14  1  0  0  0  0
 14 15  1  0  0  0  0
 15 16  1  0  0  0  0
 15 31  1  0  0  0  0
 15 32  1  0  0  0  0
 16 17  1  0  0  0  0
 16 18  1  0  0  0  0
 16 33  1  0  0  0  0
 17 34  1  0  0  0  0
 18 23  1  0  0  0  0
 18 19  2  0  0  0  0
 19 20  1  0  0  0  0
 19 35  1  0  0  0  0
 20 21  2  0  0  0  0
 20 36  1  0  0  0  0
 21 22  1  0  0  0  0
 21 37  1  0  0  0  0
 22 23  2  0  0  0  0
 22 38  1  0  0  0  0
 23 24  1  0  0  0  0
M  END
> <s_m_source_file>
AV-unprocessed.smi

> <i_m_source_file_index>
1185

> <i_lp_mmshare_version>
43012

> <i_f3d_flags>
0

> <s_epik_input>
Tz1jMWMoQyhGKShGKUYpW2NIXWMoW0NIXTJbQ0gyXVtDSDJdMilubjFbQ0gyXVtDQEhdKFtPSF0pYzNbY0hdW2NIXVtjSF1bY0hdYzNG

> <s_epik_cmdline>
J2VwaWtfcHl0aG9uJywgJy1waCcsICc3LjAnLCAnLXRuJywgJzgnLCAnLW1hJywgJzIwMCcsICctbWV0YWxfYmluZGluZycsICctaW1hZScsICc8aW5maWxlLm1hZT4nLCAnLW9tYWUnLCAnPG91dGZpbGUubWFlPic=

> <r_lp_tautomer_probability>
1

> <r_epik_Ionization_Penalty>
7.26807e-08

> <r_epik_Ionization_Penalty_Charging>
9.677e-10

> <r_epik_Ionization_Penalty_Neutral>
7.1713e-08

> <r_epik_State_Penalty>
-0

> <r_epik_Charging_Adjusted_Penalty>
9.677e-10

> <i_epik_Tot_Q>
0

> <i_epik_Tot_abs_Q>
0

> <r_epik_Metal_State_Penalty>
-0

> <b_epik_Metal_Only>
0

> <s_lp_Force_Field>
OPLS_2005

> <r_lp_Energy>
30.0942

> <b_lp_Chiralities_Consistent>
1

> <s_lp_Variant>
AV-unprocessed.smi:1185-2

> <Gold.Version>
5.8.1

> <Gold.Id.Protein>
6NUR|6NUR_protein|mol2

> <Gold.PLP.Fitness>
48.9581

> <Gold.PLP.PLP>
-47.7208

> <Gold.PLP.part.hbond>
-2.0000

> <Gold.PLP.part.metal>
0.0000

> <Gold.PLP.part.buried>
-1.1840

> <Gold.PLP.part.nonpolar>
-43.4918

> <Gold.PLP.part.repulsive>
0.0115

> <Gold.PLP.ligand.clash>
0.1111

> <Gold.PLP.ligand.torsion>
1.0246

> <Gold.PLP.Chemscore.Hbond>
0.9000

> <Gold.PLP.Chemscore.CHOScore>
0.0000

> <Gold.PLP.Chemscore.Metal>
0.0000

> <Gold.Chemscore.Hbonds>
donor molecule, donor type, donor heavy atom, donor atom, acceptor molecule, acceptor atom, score
      P1  H  7997  8008       L1     1  0.80

> <Gold.PLP.Chemscore.Internal.Correction>
0.6976

> <Gold.Rescore>
     Score         DG    S(hbond)    S(metal)    S(lipo)     H(rot)  DE(clash)    DE(int)     intcor
     12.61     -15.70       0.75        0.00     114.05       2.20       0.31       2.78       ----

> <Gold.Chemscore.Fitness>
12.6085

> <Gold.Chemscore.DG>
-15.6960

> <Gold.Chemscore.ZeroCoef>
-5.4800

> <Gold.Chemscore.Hbond>
0.7500

> <Gold.Chemscore.Metal>
0.0000

> <Gold.Chemscore.Lipo>
114.0496

> <Gold.Chemscore.Internal_Hbond>
0.0000

> <Gold.Chemscore.DEClash>
0.3086

> <Gold.Chemscore.DEInternal>
2.7789

> <Gold.Chemscore.Rot>
2.2003

> <Gold.Chemscore.Internal.Correction>
   9.000000E+99

> <Gold.Chemscore.Hbonds>
donor molecule, donor type, donor heavy atom, donor atom, acceptor molecule, acceptor atom, score
      P1  H  7997  8008       L1     1  0.12

> <Gold.Chemscore.Hbond.Weighted>
-2.5050

> <Gold.Chemscore.Metal.Weighted>
-0.0000

> <Gold.Chemscore.Lipo.Weighted>
-13.3438

> <Gold.Chemscore.Internal_Hbond.Weighted>
0.0000

> <Gold.Chemscore.DEClash.Weighted>
0.3086

> <Gold.Chemscore.DEInternal.Weighted>
2.7789

> <Gold.Chemscore.Rot.Weighted>
5.6328

> <Gold.Chemscore.Internal.Correction.Weighted>
   9.000000E+99

> <Gold.Protein.RotatedTorsions>
[ 6907 6896 6895 6894 ] final  125.22 input  -60.11 | X-H torsion
[ 7974 7965 7964 7962 ] final  -98.26 input  175.53 | X-H torsion
[ 8008 7997 7996 7995 ] final  -75.56 input   59.86 | X-H torsion
[ 10167 10162 10161 10158 ] final   45.85 input  -65.29 | X-H torsion
[ 10718 10713 10712 10709 ] final -102.50 input   66.30 | X-H torsion
[ 10763 10752 10751 10750 ] final  -33.71 input  -60.55 | X-H torsion
[ 11005 11000 10999 10996 ] final -132.14 input  -57.11 | X-H torsion

> <Gold.Protein.ActiveResidues>
 VAL166  LYS551  ARG553  GLY616  TRP617  ASP618  TYR619  PRO620  LYS621  CYS622 
 ASP623  PHE694  ASN695  SER759  ASP760  ASP761  ALA762  ILE779  LEU786  VAL792 
 PHE793  MET794  SER795  GLU796  ALA797  LYS798  CYS799  TRP800  GLU811  SER814 

> <Gold.Protein.RotatedAtoms>
  152.4011  133.6819  159.6316 H   0  0  0  0  0  0  0  0  0  0  0  0  # atno 6907 bound_to 6896
  150.7902  133.8790  159.3289 H   0  0  0  0  0  0  0  0  0  0  0  0  # atno 6908 bound_to 6896
  151.6555  135.0998  160.0220 H   0  0  0  0  0  0  0  0  0  0  0  0  # atno 6909 bound_to 6896
  145.3230  140.9425  143.2705 H   0  0  0  0  0  0  0  0  0  0  0  0  # atno 7974 bound_to 7965
  154.5427  140.0742  156.8537 H   0  0  0  0  0  0  0  0  0  0  0  0  # atno 8008 bound_to 7997
  155.3148  140.3392  155.4224 H   0  0  0  0  0  0  0  0  0  0  0  0  # atno 8009 bound_to 7997
  156.1890  140.1679  156.8116 H   0  0  0  0  0  0  0  0  0  0  0  0  # atno 8010 bound_to 7997
  140.3199  144.2718  150.6184 H   0  0  0  0  0  0  0  0  0  0  0  0  # atno 10167 bound_to 10162
  156.0231  130.5423  150.7117 H   0  0  0  0  0  0  0  0  0  0  0  0  # atno 10718 bound_to 10713
  153.8347  135.6863  153.4810 H   0  0  0  0  0  0  0  0  0  0  0  0  # atno 10763 bound_to 10752
  153.1489  135.4626  154.9606 H   0  0  0  0  0  0  0  0  0  0  0  0  # atno 10764 bound_to 10752
  154.7871  135.3288  154.7807 H   0  0  0  0  0  0  0  0  0  0  0  0  # atno 10765 bound_to 10752
  140.9197  134.1461  157.4324 H   0  0  0  0  0  0  0  0  0  0  0  0  # atno 11005 bound_to 11000
  144.8924  139.4756  143.6671 LP  0  0  0  0  0  0  0  0  0  0  0  0  # atno 17320 bound_to 7965
  146.3075  139.7630  142.9045 LP  0  0  0  0  0  0  0  0  0  0  0  0  # atno 17321 bound_to 7965
  140.5493  143.2209  151.7955 LP  0  0  0  0  0  0  0  0  0  0  0  0  # atno 17342 bound_to 10162
  139.4876  144.4498  151.9667 LP  0  0  0  0  0  0  0  0  0  0  0  0  # atno 17343 bound_to 10162
  157.4754  131.0897  151.0596 LP  0  0  0  0  0  0  0  0  0  0  0  0  # atno 17370 bound_to 10713
  157.1045  130.5995  149.5467 LP  0  0  0  0  0  0  0  0  0  0  0  0  # atno 17371 bound_to 10713
  139.8773  134.9967  156.5806 LP  0  0  0  0  0  0  0  0  0  0  0  0  # atno 17394 bound_to 11000
  140.8004  133.8510  155.8722 LP  0  0  0  0  0  0  0  0  0  0  0  0  # atno 17395 bound_to 11000

$$$$
