AV-unprocessed.smi:885|AV-procd|sdf|4047|dock1
  -GOLD-   22720 1533D 1   1.00000     0.00000
 Structure written by MMmdl.
 39 41  0  0  0  0  0  0  0  0  1 V2000
  151.6725  144.4815  160.8993 C   0  0  0  0  0  0  0  0  0  0  0  0
  152.4618  143.5304  161.8164 C   0  0  0  0  0  0  0  0  0  0  0  0
  153.1075  142.3048  161.1453 C   0  0  0  0  0  0  0  0  0  0  0  0
  152.2585  141.6215  160.0598 C   0  0  0  0  0  0  0  0  0  0  0  0
  152.4347  142.2480  158.6590 C   0  0  0  0  0  0  0  0  0  0  0  0
  151.9667  141.3136  157.5837 C   0  0  0  0  0  0  0  0  0  0  0  0
  152.4295  140.0715  157.4911 N   0  0  0  0  0  0  0  0  0  0  0  0
  151.7440  139.5505  156.3848 O   0  0  0  0  0  0  0  0  0  0  0  0
  150.9572  140.5545  155.9288 C   0  0  0  0  0  0  0  0  0  0  0  0
  150.0546  140.2851  154.7671 C   0  0  1  0  0  0  0  0  0  0  0  0
  150.0613  138.8004  154.3548 C   0  0  0  0  0  0  0  0  0  0  0  0
  149.1030  138.5699  153.2748 N   0  0  0  0  0  0  0  0  0  0  0  0
  147.7663  139.0314  153.6468 C   0  0  0  0  0  0  0  0  0  0  0  0
  147.8118  140.5067  154.0838 C   0  0  0  0  0  0  0  0  0  0  0  0
  148.7351  140.6592  155.1566 O   0  0  0  0  0  0  0  0  0  0  0  0
  151.0397  141.6698  156.6521 N   0  0  0  0  0  0  0  0  0  0  0  0
  151.8149  143.6490  158.4816 C   0  0  0  0  0  0  0  0  0  0  0  0
  152.2763  144.7030  159.5033 C   0  0  0  0  0  0  0  0  0  0  0  0
  151.5894  145.4432  161.4065 H   0  0  0  0  0  0  0  0  0  0  0  0
  150.6473  144.1234  160.7975 H   0  0  0  0  0  0  0  0  0  0  0  0
  153.2490  144.0930  162.3193 H   0  0  0  0  0  0  0  0  0  0  0  0
  151.7937  143.1931  162.6097 H   0  0  0  0  0  0  0  0  0  0  0  0
  154.0766  142.5829  160.7298 H   0  0  0  0  0  0  0  0  0  0  0  0
  153.3321  141.5778  161.9267 H   0  0  0  0  0  0  0  0  0  0  0  0
  152.5928  140.5842  160.0033 H   0  0  0  0  0  0  0  0  0  0  0  0
  151.2073  141.5785  160.3477 H   0  0  0  0  0  0  0  0  0  0  0  0
  153.5085  142.3667  158.5042 H   0  0  0  0  0  0  0  0  0  0  0  0
  150.3793  140.9107  153.9335 H   0  0  0  0  0  0  0  0  0  0  0  0
  151.0608  138.5020  154.0376 H   0  0  0  0  0  0  0  0  0  0  0  0
  149.8058  138.1786  155.2139 H   0  0  0  0  0  0  0  0  0  0  0  0
  149.0716  137.5799  153.0529 H   0  0  0  0  0  0  0  0  0  0  0  0
  147.0808  138.9091  152.8080 H   0  0  0  0  0  0  0  0  0  0  0  0
  147.3763  138.4205  154.4617 H   0  0  0  0  0  0  0  0  0  0  0  0
  148.0908  141.1531  153.2501 H   0  0  0  0  0  0  0  0  0  0  0  0
  146.8259  140.8284  154.4193 H   0  0  0  0  0  0  0  0  0  0  0  0
  152.0681  144.0098  157.4837 H   0  0  0  0  0  0  0  0  0  0  0  0
  150.7265  143.5808  158.5019 H   0  0  0  0  0  0  0  0  0  0  0  0
  151.9413  145.6768  159.1442 H   0  0  0  0  0  0  0  0  0  0  0  0
  153.3643  144.7623  159.5487 H   0  0  0  0  0  0  0  0  0  0  0  0
  1 18  1  0  0  0  0
  1  2  1  0  0  0  0
  1 19  1  0  0  0  0
  1 20  1  0  0  0  0
  2  3  1  0  0  0  0
  2 21  1  0  0  0  0
  2 22  1  0  0  0  0
  3  4  1  0  0  0  0
  3 23  1  0  0  0  0
  3 24  1  0  0  0  0
  4  5  1  0  0  0  0
  4 25  1  0  0  0  0
  4 26  1  0  0  0  0
  5  6  1  0  0  0  0
  5 17  1  0  0  0  0
  5 27  1  0  0  0  0
  6 16  1  0  0  0  0
  6  7  2  0  0  0  0
  7  8  1  0  0  0  0
  8  9  1  0  0  0  0
  9 10  1  0  0  0  0
  9 16  2  0  0  0  0
 10 15  1  0  0  0  0
 10 11  1  0  0  0  0
 10 28  1  0  0  0  0
 11 12  1  0  0  0  0
 11 29  1  0  0  0  0
 11 30  1  0  0  0  0
 12 13  1  0  0  0  0
 12 31  1  0  0  0  0
 13 14  1  0  0  0  0
 13 32  1  0  0  0  0
 13 33  1  0  0  0  0
 14 15  1  0  0  0  0
 14 34  1  0  0  0  0
 14 35  1  0  0  0  0
 17 18  1  0  0  0  0
 17 36  1  0  0  0  0
 17 37  1  0  0  0  0
 18 38  1  0  0  0  0
 18 39  1  0  0  0  0
M  END
> <s_m_source_file>
AV-unprocessed.smi

> <i_m_source_file_index>
885

> <i_lp_mmshare_version>
43012

> <i_f3d_flags>
0

> <s_epik_input>
W0NIMl0xW0NIMl1bQ0gyXVtDSDJdW0NIMl1bQ0gyXVtDSF0xYzJub2MobjIpW0NAQEhdM1tDSDJdW05IXVtDSDJdW0NIMl1PMw==

> <s_epik_cmdline>
J2VwaWtfcHl0aG9uJywgJy1waCcsICc3LjAnLCAnLXRuJywgJzgnLCAnLW1hJywgJzIwMCcsICctbWV0YWxfYmluZGluZycsICctaW1hZScsICc8aW5maWxlLm1hZT4nLCAnLW9tYWUnLCAnPG91dGZpbGUubWFlPic=

> <r_lp_tautomer_probability>
1

> <r_epik_Ionization_Penalty>
0.861744

> <r_epik_Ionization_Penalty_Charging>
0

> <r_epik_Ionization_Penalty_Neutral>
0.861744

> <r_epik_State_Penalty>
0.898282

> <r_epik_Charging_Adjusted_Penalty>
0.898282

> <i_epik_Tot_Q>
0

> <i_epik_Tot_abs_Q>
0

> <r_epik_Metal_State_Penalty>
0.898282

> <b_epik_Metal_Only>
0

> <s_lp_Force_Field>
OPLS_2005

> <r_lp_Energy>
21.0678

> <b_lp_Chiralities_Consistent>
1

> <s_lp_Variant>
AV-unprocessed.smi:885-4

> <Gold.Version>
5.8.1

> <Gold.Id.Protein>
6NUR|6NUR_protein|mol2

> <Gold.PLP.Fitness>
46.6561

> <Gold.PLP.PLP>
-40.9244

> <Gold.PLP.part.hbond>
-3.0000

> <Gold.PLP.part.metal>
0.0000

> <Gold.PLP.part.buried>
-4.5998

> <Gold.PLP.part.nonpolar>
-33.6602

> <Gold.PLP.part.repulsive>
0.1491

> <Gold.PLP.ligand.clash>
0.0000

> <Gold.PLP.ligand.torsion>
0.1922

> <Gold.PLP.Chemscore.Hbond>
2.0000

> <Gold.PLP.Chemscore.CHOScore>
0.0000

> <Gold.PLP.Chemscore.Metal>
0.0000

> <Gold.Chemscore.Hbonds>
donor molecule, donor type, donor heavy atom, donor atom, acceptor molecule, acceptor atom, score
      L1  H    12    31       P1  7948  1.00
      P1  H  7997  8009       L1     7  0.76

> <Gold.PLP.Chemscore.Internal.Correction>
0.1161

> <Gold.Rescore>
     Score         DG    S(hbond)    S(metal)    S(lipo)     H(rot)  DE(clash)    DE(int)     intcor
     19.63     -19.91       1.49        0.00     107.18       1.21       0.16       0.12       ----

> <Gold.Chemscore.Fitness>
19.6347

> <Gold.Chemscore.DG>
-19.9137

> <Gold.Chemscore.ZeroCoef>
-5.4800

> <Gold.Chemscore.Hbond>
1.4934

> <Gold.Chemscore.Metal>
0.0000

> <Gold.Chemscore.Lipo>
107.1822

> <Gold.Chemscore.Internal_Hbond>
0.0000

> <Gold.Chemscore.DEClash>
0.1565

> <Gold.Chemscore.DEInternal>
0.1225

> <Gold.Chemscore.Rot>
1.2088

> <Gold.Chemscore.Internal.Correction>
   9.000000E+99

> <Gold.Chemscore.Hbonds>
donor molecule, donor type, donor heavy atom, donor atom, acceptor molecule, acceptor atom, score
      L1  H    12    31       P1  7948  0.94
      P1  H  7997  8009       L1     7  0.12

> <Gold.Chemscore.Hbond.Weighted>
-4.9880

> <Gold.Chemscore.Metal.Weighted>
-0.0000

> <Gold.Chemscore.Lipo.Weighted>
-12.5403

> <Gold.Chemscore.Internal_Hbond.Weighted>
0.0000

> <Gold.Chemscore.DEClash.Weighted>
0.1565

> <Gold.Chemscore.DEInternal.Weighted>
0.1225

> <Gold.Chemscore.Rot.Weighted>
3.0946

> <Gold.Chemscore.Internal.Correction.Weighted>
   9.000000E+99

> <Gold.Protein.RotatedTorsions>
[ 6907 6896 6895 6894 ] final  -12.06 input  -60.11 | X-H torsion
[ 7974 7965 7964 7962 ] final  -44.42 input  175.53 | X-H torsion
[ 8008 7997 7996 7995 ] final  177.60 input   59.86 | X-H torsion
[ 10167 10162 10161 10158 ] final -146.33 input  -65.29 | X-H torsion
[ 10718 10713 10712 10709 ] final  166.38 input   66.30 | X-H torsion
[ 10763 10752 10751 10750 ] final  120.47 input  -60.55 | X-H torsion
[ 11005 11000 10999 10996 ] final -102.51 input  -57.11 | X-H torsion

> <Gold.Protein.ActiveResidues>
 VAL166  LYS551  ARG553  GLY616  TRP617  ASP618  TYR619  PRO620  LYS621  CYS622 
 ASP623  PHE694  ASN695  SER759  ASP760  ASP761  ALA762  ILE779  LEU786  VAL792 
 PHE793  MET794  SER795  GLU796  ALA797  LYS798  CYS799  TRP800  GLU811  SER814 

> <Gold.Protein.RotatedAtoms>
  151.3764  135.0932  159.9481 H   0  0  0  0  0  0  0  0  0  0  0  0  # atno 6907 bound_to 6896
  152.5121  133.9115  159.7500 H   0  0  0  0  0  0  0  0  0  0  0  0  # atno 6908 bound_to 6896
  150.9539  133.6464  159.2796 H   0  0  0  0  0  0  0  0  0  0  0  0  # atno 6909 bound_to 6896
  145.9922  140.7168  142.9311 H   0  0  0  0  0  0  0  0  0  0  0  0  # atno 7974 bound_to 7965
  156.0639  140.1354  156.9909 H   0  0  0  0  0  0  0  0  0  0  0  0  # atno 8008 bound_to 7997
  154.4496  140.0986  156.6628 H   0  0  0  0  0  0  0  0  0  0  0  0  # atno 8009 bound_to 7997
  155.5335  140.3459  155.4433 H   0  0  0  0  0  0  0  0  0  0  0  0  # atno 8010 bound_to 7997
  139.7723  143.8219  152.2626 H   0  0  0  0  0  0  0  0  0  0  0  0  # atno 10167 bound_to 10162
  157.0667  131.0355  151.2627 H   0  0  0  0  0  0  0  0  0  0  0  0  # atno 10718 bound_to 10713
  153.5990  135.3451  155.2938 H   0  0  0  0  0  0  0  0  0  0  0  0  # atno 10763 bound_to 10752
  154.8639  135.4223  154.2433 H   0  0  0  0  0  0  0  0  0  0  0  0  # atno 10764 bound_to 10752
  153.3257  135.7041  153.7062 H   0  0  0  0  0  0  0  0  0  0  0  0  # atno 10765 bound_to 10752
  141.1186  133.8564  157.1369 H   0  0  0  0  0  0  0  0  0  0  0  0  # atno 11005 bound_to 11000
  144.6892  140.3089  143.7251 LP  0  0  0  0  0  0  0  0  0  0  0  0  # atno 17320 bound_to 7965
  145.7613  139.1825  143.2265 LP  0  0  0  0  0  0  0  0  0  0  0  0  # atno 17321 bound_to 7965
  139.8257  144.7276  150.9514 LP  0  0  0  0  0  0  0  0  0  0  0  0  # atno 17342 bound_to 10162
  140.7814  143.4116  151.0983 LP  0  0  0  0  0  0  0  0  0  0  0  0  # atno 17343 bound_to 10162
  157.4911  130.7823  149.7509 LP  0  0  0  0  0  0  0  0  0  0  0  0  # atno 17370 bound_to 10713
  155.9962  130.3907  150.2787 LP  0  0  0  0  0  0  0  0  0  0  0  0  # atno 17371 bound_to 10713
  140.0126  134.9981  157.0426 LP  0  0  0  0  0  0  0  0  0  0  0  0  # atno 17394 bound_to 11000
  140.4574  134.1519  155.7187 LP  0  0  0  0  0  0  0  0  0  0  0  0  # atno 17395 bound_to 11000

$$$$
