AV-unprocessed.smi:833|AV-procd|sdf|3880|dock9
  -GOLD-   22720 1333D 1   1.00000     0.00000
 Structure written by MMmdl.
 39 40  0  0  0  0  0  0  0  0  1 V2000
  152.0591  145.8434  160.3689 C   0  0  0  0  0  0  0  0  0  0  0  0
  151.2779  145.4365  159.1129 C   0  0  2  0  0  0  0  0  0  0  0  0
  149.9031  145.4843  159.4359 O   0  0  0  0  0  0  0  0  0  0  0  0
  151.6328  144.0090  158.6526 C   0  0  0  0  0  0  0  0  0  0  0  0
  150.7138  143.5219  157.6288 N   0  0  0  0  0  0  0  0  0  0  0  0
  150.7953  142.3281  157.0246 C   0  0  0  0  0  0  0  0  0  0  0  0
  151.6743  141.5020  157.2694 O   0  0  0  0  0  0  0  0  0  0  0  0
  149.8145  142.1766  156.1189 N   0  0  0  0  0  0  0  0  0  0  0  0
  149.5677  141.0758  155.2489 C   0  0  0  0  0  0  0  0  0  0  0  0
  150.4984  140.0189  155.0931 C   0  0  0  0  0  0  0  0  0  0  0  0
  150.2084  138.9688  154.2049 C   0  0  0  0  0  0  0  0  0  0  0  0
  148.9927  139.0087  153.5028 C   0  0  0  0  0  0  0  0  0  0  0  0
  148.0876  139.9957  153.6542 N   0  0  0  0  0  0  0  0  0  0  0  0
  148.3465  141.0079  154.5185 C   0  0  0  0  0  0  0  0  0  0  0  0
  147.3503  142.0015  154.6552 N   0  0  0  0  0  0  0  0  0  0  0  0
  146.3320  142.1754  153.6246 C   0  0  0  0  0  0  0  0  0  0  0  0
  145.2427  143.0155  154.2845 C   0  0  0  0  0  0  0  0  0  0  0  0
  145.2609  142.4990  155.7198 C   0  0  0  0  0  0  0  0  0  0  0  0
  146.7381  142.1759  155.9690 C   0  0  0  0  0  0  0  0  0  0  0  0
  153.1323  145.8469  160.1762 H   0  0  0  0  0  0  0  0  0  0  0  0
  151.8721  145.1567  161.1952 H   0  0  0  0  0  0  0  0  0  0  0  0
  151.7821  146.8457  160.6973 H   0  0  0  0  0  0  0  0  0  0  0  0
  151.4820  146.1605  158.3230 H   0  0  0  0  0  0  0  0  0  0  0  0
  149.4112  145.5768  158.6345 H   0  0  0  0  0  0  0  0  0  0  0  0
  152.6465  143.9885  158.2482 H   0  0  0  0  0  0  0  0  0  0  0  0
  151.6326  143.3176  159.4960 H   0  0  0  0  0  0  0  0  0  0  0  0
  149.9623  144.1406  157.3616 H   0  0  0  0  0  0  0  0  0  0  0  0
  149.2266  142.9829  155.9664 H   0  0  0  0  0  0  0  0  0  0  0  0
  151.4256  139.9894  155.6440 H   0  0  0  0  0  0  0  0  0  0  0  0
  150.9027  138.1536  154.0646 H   0  0  0  0  0  0  0  0  0  0  0  0
  148.7355  138.2237  152.8073 H   0  0  0  0  0  0  0  0  0  0  0  0
  146.7413  142.6640  152.7398 H   0  0  0  0  0  0  0  0  0  0  0  0
  145.9139  141.2142  153.3236 H   0  0  0  0  0  0  0  0  0  0  0  0
  145.5195  144.0705  154.2642 H   0  0  0  0  0  0  0  0  0  0  0  0
  144.2707  142.9078  153.8024 H   0  0  0  0  0  0  0  0  0  0  0  0
  144.8567  143.2145  156.4360 H   0  0  0  0  0  0  0  0  0  0  0  0
  144.6693  141.5850  155.7865 H   0  0  0  0  0  0  0  0  0  0  0  0
  146.8518  141.2911  156.5972 H   0  0  0  0  0  0  0  0  0  0  0  0
  147.2207  143.0138  156.4725 H   0  0  0  0  0  0  0  0  0  0  0  0
  1  2  1  0  0  0  0
  1 20  1  0  0  0  0
  1 21  1  0  0  0  0
  1 22  1  0  0  0  0
  2  3  1  0  0  0  0
  2  4  1  0  0  0  0
  2 23  1  0  0  0  0
  3 24  1  0  0  0  0
  4  5  1  0  0  0  0
  4 25  1  0  0  0  0
  4 26  1  0  0  0  0
  5  6  1  0  0  0  0
  5 27  1  0  0  0  0
  6  7  2  0  0  0  0
  6  8  1  0  0  0  0
  8  9  1  0  0  0  0
  8 28  1  0  0  0  0
  9 14  1  0  0  0  0
  9 10  2  0  0  0  0
 10 11  1  0  0  0  0
 10 29  1  0  0  0  0
 11 12  2  0  0  0  0
 11 30  1  0  0  0  0
 12 13  1  0  0  0  0
 12 31  1  0  0  0  0
 13 14  2  0  0  0  0
 14 15  1  0  0  0  0
 15 19  1  0  0  0  0
 15 16  1  0  0  0  0
 16 17  1  0  0  0  0
 16 32  1  0  0  0  0
 16 33  1  0  0  0  0
 17 18  1  0  0  0  0
 17 34  1  0  0  0  0
 17 35  1  0  0  0  0
 18 19  1  0  0  0  0
 18 36  1  0  0  0  0
 18 37  1  0  0  0  0
 19 38  1  0  0  0  0
 19 39  1  0  0  0  0
M  END
> <s_m_source_file>
AV-unprocessed.smi

> <i_m_source_file_index>
833

> <i_lp_mmshare_version>
43012

> <i_f3d_flags>
0

> <s_epik_input>
W0NIM11bQ0BIXShbT0hdKVtDSDJdW05IXUMoPU8pW05IXWMxW2NIXVtjSF1bY0hdbmMxTjJbQ0gyXVtDSDJdW0NIMl1bQ0gyXTI=

> <s_epik_cmdline>
J2VwaWtfcHl0aG9uJywgJy1waCcsICc3LjAnLCAnLXRuJywgJzgnLCAnLW1hJywgJzIwMCcsICctbWV0YWxfYmluZGluZycsICctaW1hZScsICc8aW5maWxlLm1hZT4nLCAnLW9tYWUnLCAnPG91dGZpbGUubWFlPic=

> <r_lp_tautomer_probability>
1

> <r_epik_Ionization_Penalty>
0.0986749

> <r_epik_Ionization_Penalty_Charging>
0

> <r_epik_Ionization_Penalty_Neutral>
0.0986749

> <r_epik_State_Penalty>
0.0881977

> <r_epik_Charging_Adjusted_Penalty>
0.0881977

> <i_epik_Tot_Q>
0

> <i_epik_Tot_abs_Q>
0

> <r_epik_Metal_State_Penalty>
0.0755487

> <b_epik_Metal_Only>
0

> <s_lp_Force_Field>
OPLS_2005

> <r_lp_Energy>
31.5613

> <b_lp_Chiralities_Consistent>
1

> <s_lp_Variant>
AV-unprocessed.smi:833-1

> <Gold.Version>
5.8.1

> <Gold.Id.Protein>
6NUR|6NUR_protein|mol2

> <Gold.PLP.Fitness>
45.1598

> <Gold.PLP.PLP>
-34.3564

> <Gold.PLP.part.hbond>
-4.0000

> <Gold.PLP.part.metal>
0.0000

> <Gold.PLP.part.buried>
-0.2963

> <Gold.PLP.part.nonpolar>
-31.7470

> <Gold.PLP.part.repulsive>
1.7253

> <Gold.PLP.ligand.clash>
0.0000

> <Gold.PLP.ligand.torsion>
0.3655

> <Gold.PLP.Chemscore.Hbond>
2.7293

> <Gold.PLP.Chemscore.CHOScore>
1.0124

> <Gold.PLP.Chemscore.Metal>
0.0000

> <Gold.Chemscore.Hbonds>
donor molecule, donor type, donor heavy atom, donor atom, acceptor molecule, acceptor atom, score
      L1  H     3    24       P1  8029  0.93
      L1  H     5    27       P1  8028  0.76
      L1  H     8    28       P1  8028  1.00
      L1  C    12    31       P1  7948  1.00
      L1  C    12    31       P1  7957  0.01

> <Gold.PLP.Chemscore.Internal.Correction>
0.3093

> <Gold.Rescore>
     Score         DG    S(hbond)    S(metal)    S(lipo)     H(rot)  DE(clash)    DE(int)     intcor
     11.72     -16.85       2.03        0.00      83.52       2.03       3.35       1.78       ----

> <Gold.Chemscore.Fitness>
11.7154

> <Gold.Chemscore.DG>
-16.8487

> <Gold.Chemscore.ZeroCoef>
-5.4800

> <Gold.Chemscore.Hbond>
2.0347

> <Gold.Chemscore.Metal>
0.0000

> <Gold.Chemscore.Lipo>
83.5159

> <Gold.Chemscore.Internal_Hbond>
0.0000

> <Gold.Chemscore.DEClash>
3.3530

> <Gold.Chemscore.DEInternal>
1.7804

> <Gold.Chemscore.Rot>
2.0306

> <Gold.Chemscore.Internal.Correction>
   9.000000E+99

> <Gold.Chemscore.Hbonds>
donor molecule, donor type, donor heavy atom, donor atom, acceptor molecule, acceptor atom, score
      L1  H     3    24       P1  8029  0.85
      L1  H     5    27       P1  8028  0.43
      L1  H     8    28       P1  8028  0.99

> <Gold.Chemscore.Hbond.Weighted>
-6.7958

> <Gold.Chemscore.Metal.Weighted>
-0.0000

> <Gold.Chemscore.Lipo.Weighted>
-9.7714

> <Gold.Chemscore.Internal_Hbond.Weighted>
0.0000

> <Gold.Chemscore.DEClash.Weighted>
3.3530

> <Gold.Chemscore.DEInternal.Weighted>
1.7804

> <Gold.Chemscore.Rot.Weighted>
5.1984

> <Gold.Chemscore.Internal.Correction.Weighted>
   9.000000E+99

> <Gold.Protein.RotatedTorsions>
[ 6907 6896 6895 6894 ] final  117.32 input  -60.11 | X-H torsion
[ 7974 7965 7964 7962 ] final   58.67 input  175.53 | X-H torsion
[ 8008 7997 7996 7995 ] final  -54.11 input   59.86 | X-H torsion
[ 10167 10162 10161 10158 ] final  -88.45 input  -65.29 | X-H torsion
[ 10718 10713 10712 10709 ] final -103.62 input   66.30 | X-H torsion
[ 10763 10752 10751 10750 ] final -124.11 input  -60.55 | X-H torsion
[ 11005 11000 10999 10996 ] final  119.55 input  -57.11 | X-H torsion

> <Gold.Protein.ActiveResidues>
 VAL166  LYS551  ARG553  GLY616  TRP617  ASP618  TYR619  PRO620  LYS621  CYS622 
 ASP623  PHE694  ASN695  SER759  ASP760  ASP761  ALA762  ILE779  LEU786  VAL792 
 PHE793  MET794  SER795  GLU796  ALA797  LYS798  CYS799  TRP800  GLU811  SER814 

> <Gold.Protein.RotatedAtoms>
  152.4620  133.7841  159.6866 H   0  0  0  0  0  0  0  0  0  0  0  0  # atno 6907 bound_to 6896
  150.8567  133.7694  159.3012 H   0  0  0  0  0  0  0  0  0  0  0  0  # atno 6908 bound_to 6896
  151.5272  135.1071  159.9945 H   0  0  0  0  0  0  0  0  0  0  0  0  # atno 6909 bound_to 6896
  145.9156  139.3688  143.0509 H   0  0  0  0  0  0  0  0  0  0  0  0  # atno 7974 bound_to 7965
  154.4153  140.1184  156.5263 H   0  0  0  0  0  0  0  0  0  0  0  0  # atno 8008 bound_to 7997
  155.6651  140.3496  155.4778 H   0  0  0  0  0  0  0  0  0  0  0  0  # atno 8009 bound_to 7997
  155.9680  140.1136  157.0827 H   0  0  0  0  0  0  0  0  0  0  0  0  # atno 8010 bound_to 7997
  140.3746  143.2778  151.9459 H   0  0  0  0  0  0  0  0  0  0  0  0  # atno 10167 bound_to 10162
  156.0272  130.5476  150.7279 H   0  0  0  0  0  0  0  0  0  0  0  0  # atno 10718 bound_to 10713
  154.8718  135.4075  154.3053 H   0  0  0  0  0  0  0  0  0  0  0  0  # atno 10763 bound_to 10752
  153.3905  135.7015  153.6503 H   0  0  0  0  0  0  0  0  0  0  0  0  # atno 10764 bound_to 10752
  153.5288  135.3672  155.2637 H   0  0  0  0  0  0  0  0  0  0  0  0  # atno 10765 bound_to 10752
  139.9151  134.9629  156.7673 H   0  0  0  0  0  0  0  0  0  0  0  0  # atno 11005 bound_to 11000
  145.8615  140.9472  143.0697 LP  0  0  0  0  0  0  0  0  0  0  0  0  # atno 17320 bound_to 7965
  144.6747  140.0537  143.7478 LP  0  0  0  0  0  0  0  0  0  0  0  0  # atno 17321 bound_to 7965
  139.4800  144.5875  151.7828 LP  0  0  0  0  0  0  0  0  0  0  0  0  # atno 17342 bound_to 10162
  140.4999  144.1184  150.5968 LP  0  0  0  0  0  0  0  0  0  0  0  0  # atno 17343 bound_to 10162
  157.4879  131.0908  151.0461 LP  0  0  0  0  0  0  0  0  0  0  0  0  # atno 17370 bound_to 10713
  157.0876  130.5929  149.5433 LP  0  0  0  0  0  0  0  0  0  0  0  0  # atno 17371 bound_to 10713
  140.6649  133.9611  155.7825 LP  0  0  0  0  0  0  0  0  0  0  0  0  # atno 17394 bound_to 11000
  141.0617  134.0336  157.3649 LP  0  0  0  0  0  0  0  0  0  0  0  0  # atno 17395 bound_to 11000

$$$$
