AV-unprocessed.smi:1264|AV-procd|sdf|5313|dock4
  -GOLD-   22720 4433D 1   1.00000     0.00000
 Structure written by MMmdl.
 43 43  0  0  0  0  0  0  0  0  1 V2000
  145.4931  136.0441  150.9224 C   0  0  0  0  0  0  0  0  0  0  0  0
  145.9282  136.8081  152.0813 N   0  0  0  0  0  0  0  0  0  0  0  0
  146.5044  138.0166  152.0139 C   0  0  0  0  0  0  0  0  0  0  0  0
  146.7140  138.6023  150.9499 O   0  0  0  0  0  0  0  0  0  0  0  0
  146.8803  138.6677  153.3561 C   0  0  2  0  0  0  0  0  0  0  0  0
  147.0568  140.1852  153.1104 C   0  0  0  0  0  0  0  0  0  0  0  0
  147.5054  141.0054  154.3418 C   0  0  0  0  0  0  0  0  0  0  0  0
  146.9262  142.4302  154.3450 C   0  0  0  0  0  0  0  0  0  0  0  0
  149.0388  141.0511  154.4282 C   0  0  0  0  0  0  0  0  0  0  0  0
  148.1486  138.1165  153.8310 N   0  0  0  0  0  0  0  0  0  0  0  0
  148.5853  138.1551  155.0993 C   0  0  0  0  0  0  0  0  0  0  0  0
  147.9729  138.7081  156.0128 O   0  0  0  0  0  0  0  0  0  0  0  0
  149.9080  137.4457  155.3842 C   0  0  0  0  0  0  0  0  0  0  0  0
  150.7439  138.2996  156.3024 C   0  0  0  0  0  0  0  0  0  0  0  0
  151.9659  138.9755  156.0155 C   0  0  0  0  0  0  0  0  0  0  0  0
  152.7439  139.0165  154.7315 C   0  0  0  0  0  0  0  0  0  0  0  0
  152.4252  139.6316  157.0677 N   0  0  0  0  0  0  0  0  0  0  0  0
  151.5061  139.4011  158.0956 O   0  0  0  0  0  0  0  0  0  0  0  0
  150.5183  138.6036  157.6167 C   0  0  0  0  0  0  0  0  0  0  0  0
  149.4354  138.2329  158.5723 C   0  0  0  0  0  0  0  0  0  0  0  0
  145.0917  135.0821  151.2408 H   0  0  0  0  0  0  0  0  0  0  0  0
  146.3263  135.8580  150.2437 H   0  0  0  0  0  0  0  0  0  0  0  0
  144.7125  136.5769  150.3781 H   0  0  0  0  0  0  0  0  0  0  0  0
  145.7869  136.3923  152.9907 H   0  0  0  0  0  0  0  0  0  0  0  0
  146.0867  138.4876  154.0831 H   0  0  0  0  0  0  0  0  0  0  0  0
  147.7844  140.3342  152.3102 H   0  0  0  0  0  0  0  0  0  0  0  0
  146.1197  140.6034  152.7385 H   0  0  0  0  0  0  0  0  0  0  0  0
  147.1539  140.5026  155.2433 H   0  0  0  0  0  0  0  0  0  0  0  0
  147.2027  142.9733  153.4408 H   0  0  0  0  0  0  0  0  0  0  0  0
  147.2934  142.9997  155.1992 H   0  0  0  0  0  0  0  0  0  0  0  0
  145.8384  142.4224  154.4125 H   0  0  0  0  0  0  0  0  0  0  0  0
  149.4704  141.5485  153.5590 H   0  0  0  0  0  0  0  0  0  0  0  0
  149.4608  140.0472  154.4811 H   0  0  0  0  0  0  0  0  0  0  0  0
  149.3675  141.5905  155.3172 H   0  0  0  0  0  0  0  0  0  0  0  0
  148.7152  137.6329  153.1496 H   0  0  0  0  0  0  0  0  0  0  0  0
  149.7175  136.4624  155.8160 H   0  0  0  0  0  0  0  0  0  0  0  0
  150.4166  137.2634  154.4369 H   0  0  0  0  0  0  0  0  0  0  0  0
  152.1640  138.6186  153.8991 H   0  0  0  0  0  0  0  0  0  0  0  0
  153.6570  138.4261  154.8097 H   0  0  0  0  0  0  0  0  0  0  0  0
  153.0286  140.0375  154.4755 H   0  0  0  0  0  0  0  0  0  0  0  0
  149.0617  137.2297  158.3660 H   0  0  0  0  0  0  0  0  0  0  0  0
  148.5995  138.9283  158.4950 H   0  0  0  0  0  0  0  0  0  0  0  0
  149.7980  138.2506  159.6003 H   0  0  0  0  0  0  0  0  0  0  0  0
  1  2  1  0  0  0  0
  1 21  1  0  0  0  0
  1 22  1  0  0  0  0
  1 23  1  0  0  0  0
  2  3  1  0  0  0  0
  2 24  1  0  0  0  0
  3  4  2  0  0  0  0
  3  5  1  0  0  0  0
  5  6  1  0  0  0  0
  5 10  1  0  0  0  0
  5 25  1  0  0  0  0
  6  7  1  0  0  0  0
  6 26  1  0  0  0  0
  6 27  1  0  0  0  0
  7  8  1  0  0  0  0
  7  9  1  0  0  0  0
  7 28  1  0  0  0  0
  8 29  1  0  0  0  0
  8 30  1  0  0  0  0
  8 31  1  0  0  0  0
  9 32  1  0  0  0  0
  9 33  1  0  0  0  0
  9 34  1  0  0  0  0
 10 11  1  0  0  0  0
 10 35  1  0  0  0  0
 11 12  2  0  0  0  0
 11 13  1  0  0  0  0
 13 14  1  0  0  0  0
 13 36  1  0  0  0  0
 13 37  1  0  0  0  0
 14 19  2  0  0  0  0
 14 15  1  0  0  0  0
 15 16  1  0  0  0  0
 15 17  2  0  0  0  0
 16 38  1  0  0  0  0
 16 39  1  0  0  0  0
 16 40  1  0  0  0  0
 17 18  1  0  0  0  0
 18 19  1  0  0  0  0
 19 20  1  0  0  0  0
 20 41  1  0  0  0  0
 20 42  1  0  0  0  0
 20 43  1  0  0  0  0
M  END
> <s_m_source_file>
AV-unprocessed.smi

> <i_m_source_file_index>
1264

> <i_lp_mmshare_version>
43012

> <i_f3d_flags>
0

> <s_epik_input>
W0NIM11bTkhdQyg9TylbQ0BIXShbQ0gyXVtDSF0oW0NIM10pW0NIM10pW05IXUMoPU8pW0NIMl1jMWMoW0NIM10pbm9jMVtDSDNd

> <s_epik_cmdline>
J2VwaWtfcHl0aG9uJywgJy1waCcsICc3LjAnLCAnLXRuJywgJzgnLCAnLW1hJywgJzIwMCcsICctbWV0YWxfYmluZGluZycsICctaW1hZScsICc8aW5maWxlLm1hZT4nLCAnLW9tYWUnLCAnPG91dGZpbGUubWFlPic=

> <r_lp_tautomer_probability>
1

> <r_epik_Ionization_Penalty>
6.00781e-08

> <r_epik_Ionization_Penalty_Charging>
0

> <r_epik_Ionization_Penalty_Neutral>
6.00781e-08

> <r_epik_State_Penalty>
-0

> <r_epik_Charging_Adjusted_Penalty>
0

> <i_epik_Tot_Q>
0

> <i_epik_Tot_abs_Q>
0

> <r_epik_Metal_State_Penalty>
-0

> <b_epik_Metal_Only>
0

> <s_lp_Force_Field>
OPLS_2005

> <r_lp_Energy>
-0.565017

> <b_lp_Chiralities_Consistent>
1

> <s_lp_Variant>
AV-unprocessed.smi:1264-1

> <Gold.Version>
5.8.1

> <Gold.Id.Protein>
6NUR|6NUR_protein|mol2

> <Gold.PLP.Fitness>
37.4817

> <Gold.PLP.PLP>
-31.4982

> <Gold.PLP.part.hbond>
-4.0000

> <Gold.PLP.part.metal>
0.0000

> <Gold.PLP.part.buried>
-2.1765

> <Gold.PLP.part.nonpolar>
-26.8748

> <Gold.PLP.part.repulsive>
0.5278

> <Gold.PLP.ligand.clash>
0.0000

> <Gold.PLP.ligand.torsion>
1.5389

> <Gold.PLP.Chemscore.Hbond>
2.9920

> <Gold.PLP.Chemscore.CHOScore>
0.0000

> <Gold.PLP.Chemscore.Metal>
0.0000

> <Gold.Chemscore.Hbonds>
donor molecule, donor type, donor heavy atom, donor atom, acceptor molecule, acceptor atom, score
      L1  H    10    35       P1  7948  1.00
      P1  H  7954  7966       L1     4  0.98
      P1  H  7997  8010       L1    17  0.96

> <Gold.PLP.Chemscore.Internal.Correction>
0.0853

> <Gold.Rescore>
     Score         DG    S(hbond)    S(metal)    S(lipo)     H(rot)  DE(clash)    DE(int)     intcor
     12.96     -18.42       2.96        0.00      71.84       2.09       0.33       5.13       ----

> <Gold.Chemscore.Fitness>
12.9618

> <Gold.Chemscore.DG>
-18.4243

> <Gold.Chemscore.ZeroCoef>
-5.4800

> <Gold.Chemscore.Hbond>
2.9633

> <Gold.Chemscore.Metal>
0.0000

> <Gold.Chemscore.Lipo>
71.8391

> <Gold.Chemscore.Internal_Hbond>
0.0000

> <Gold.Chemscore.DEClash>
0.3304

> <Gold.Chemscore.DEInternal>
5.1320

> <Gold.Chemscore.Rot>
2.0931

> <Gold.Chemscore.Internal.Correction>
   9.000000E+99

> <Gold.Chemscore.Hbonds>
donor molecule, donor type, donor heavy atom, donor atom, acceptor molecule, acceptor atom, score
      L1  H    10    35       P1  7948  0.96
      P1  H  7954  7966       L1     4  0.83
      P1  H  7997  8010       L1    17  0.40

> <Gold.Chemscore.Hbond.Weighted>
-9.8975

> <Gold.Chemscore.Metal.Weighted>
-0.0000

> <Gold.Chemscore.Lipo.Weighted>
-8.4052

> <Gold.Chemscore.Internal_Hbond.Weighted>
0.0000

> <Gold.Chemscore.DEClash.Weighted>
0.3304

> <Gold.Chemscore.DEInternal.Weighted>
5.1320

> <Gold.Chemscore.Rot.Weighted>
5.3584

> <Gold.Chemscore.Internal.Correction.Weighted>
   9.000000E+99

> <Gold.Protein.RotatedTorsions>
[ 6907 6896 6895 6894 ] final   29.23 input  -60.11 | X-H torsion
[ 7974 7965 7964 7962 ] final  -39.36 input  175.53 | X-H torsion
[ 8008 7997 7996 7995 ] final   65.66 input   59.86 | X-H torsion
[ 10167 10162 10161 10158 ] final   21.84 input  -65.29 | X-H torsion
[ 10718 10713 10712 10709 ] final  -46.01 input   66.30 | X-H torsion
[ 10763 10752 10751 10750 ] final  162.21 input  -60.55 | X-H torsion
[ 11005 11000 10999 10996 ] final   58.63 input  -57.11 | X-H torsion

> <Gold.Protein.ActiveResidues>
 VAL166  LYS551  ARG553  GLY616  TRP617  ASP618  TYR619  PRO620  LYS621  CYS622 
 ASP623  PHE694  ASN695  SER759  ASP760  ASP761  ALA762  ILE779  LEU786  VAL792 
 PHE793  MET794  SER795  GLU796  ALA797  LYS798  CYS799  TRP800  GLU811  SER814 

> <Gold.Protein.RotatedAtoms>
  152.0284  134.9782  160.0571 H   0  0  0  0  0  0  0  0  0  0  0  0  # atno 6907 bound_to 6896
  152.1268  133.4380  159.4710 H   0  0  0  0  0  0  0  0  0  0  0  0  # atno 6908 bound_to 6896
  150.6853  134.2387  159.4507 H   0  0  0  0  0  0  0  0  0  0  0  0  # atno 6909 bound_to 6896
  146.0404  140.6616  142.9090 H   0  0  0  0  0  0  0  0  0  0  0  0  # atno 7974 bound_to 7965
  155.6651  140.3497  155.4797 H   0  0  0  0  0  0  0  0  0  0  0  0  # atno 8008 bound_to 7997
  155.9735  140.1160  157.0814 H   0  0  0  0  0  0  0  0  0  0  0  0  # atno 8009 bound_to 7997
  154.4172  140.1152  156.5325 H   0  0  0  0  0  0  0  0  0  0  0  0  # atno 8010 bound_to 7997
  140.5395  143.9701  150.6511 H   0  0  0  0  0  0  0  0  0  0  0  0  # atno 10167 bound_to 10162
  156.2225  130.4167  149.8974 H   0  0  0  0  0  0  0  0  0  0  0  0  # atno 10718 bound_to 10713
  154.2748  135.2765  155.2723 H   0  0  0  0  0  0  0  0  0  0  0  0  # atno 10763 bound_to 10752
  154.5270  135.5740  153.6731 H   0  0  0  0  0  0  0  0  0  0  0  0  # atno 10764 bound_to 10752
  152.9939  135.6218  154.2904 H   0  0  0  0  0  0  0  0  0  0  0  0  # atno 10765 bound_to 10752
  140.0363  134.5938  155.9440 H   0  0  0  0  0  0  0  0  0  0  0  0  # atno 11005 bound_to 11000
  144.7071  140.3897  143.7109 LP  0  0  0  0  0  0  0  0  0  0  0  0  # atno 17320 bound_to 7965
  145.6894  139.1636  143.2655 LP  0  0  0  0  0  0  0  0  0  0  0  0  # atno 17321 bound_to 7965
  140.3098  143.3205  152.0890 LP  0  0  0  0  0  0  0  0  0  0  0  0  # atno 17342 bound_to 10162
  139.4983  144.6643  151.6392 LP  0  0  0  0  0  0  0  0  0  0  0  0  # atno 17343 bound_to 10162
  156.6616  130.8784  151.3548 LP  0  0  0  0  0  0  0  0  0  0  0  0  # atno 17370 bound_to 10713
  157.7094  130.9423  150.1040 LP  0  0  0  0  0  0  0  0  0  0  0  0  # atno 17371 bound_to 10713
  141.1859  133.6556  156.5217 LP  0  0  0  0  0  0  0  0  0  0  0  0  # atno 17394 bound_to 11000
  140.4142  134.7245  157.4853 LP  0  0  0  0  0  0  0  0  0  0  0  0  # atno 17395 bound_to 11000

$$$$
