AV-unprocessed.smi:99|AV-procd|sdf|886|dock1
  -GOLD-   2262017363D 1   1.00000     0.00000
 Structure written by MMmdl.
 52 55  0  0  0  0  0  0  0  0  2 V2000
  148.8803  136.0794  157.6324 O   0  0  0  0  0  0  0  0  0  0  0  0
  147.9338  136.7378  158.0684 C   0  0  0  0  0  0  0  0  0  0  0  0
  147.1657  137.5371  157.3035 O   0  0  0  0  0  0  0  0  0  0  0  0
  147.2932  137.5032  155.8924 C   0  0  0  0  0  0  0  0  0  0  0  0
  146.4002  138.5971  155.2739 C   0  0  1  0  0  0  0  0  0  0  0  0
  147.0761  139.8517  155.2510 O   0  0  0  0  0  0  0  0  0  0  0  0
  147.8481  139.9932  154.0903 C   0  0  1  0  0  0  0  0  0  0  0  0
  149.3151  139.7662  154.4304 N   0  0  0  0  0  0  0  0  0  0  0  0
  149.9560  138.5852  154.0849 C   0  0  0  0  0  0  0  0  0  0  0  0
  151.2451  138.3572  154.4078 C   0  0  0  0  0  0  0  0  0  0  0  0
  151.9818  139.3643  155.1632 C   0  0  0  0  0  0  0  0  0  0  0  0
  153.1696  139.1712  155.4140 O   0  0  0  0  0  0  0  0  0  0  0  0
  151.3092  140.4795  155.5674 N   0  5  0  0  0  0  0  0  0  0  0  0
  149.9980  140.7009  155.2599 C   0  0  0  0  0  0  0  0  0  0  0  0
  149.3704  141.6733  155.6790 O   0  0  0  0  0  0  0  0  0  0  0  0
  147.2984  138.9546  153.0813 C   0  0  2  0  0  0  0  0  0  0  0  0
  146.8875  139.5595  151.8729 O   0  0  0  0  0  0  0  0  0  0  0  0
  146.0812  138.3803  153.7926 C   0  0  1  0  0  0  0  0  0  0  0  0
  145.9154  137.0076  153.4563 O   0  0  0  0  0  0  0  0  0  0  0  0
  144.8442  136.5950  152.7468 C   0  0  0  0  0  0  0  0  0  0  0  0
  143.7724  137.2026  152.7110 O   0  0  0  0  0  0  0  0  0  0  0  0
  145.0920  135.3181  152.0177 C   0  0  0  0  0  0  0  0  0  0  0  0
  146.2067  134.5223  152.3714 C   0  0  0  0  0  0  0  0  0  0  0  0
  146.4648  133.3112  151.7005 C   0  0  0  0  0  0  0  0  0  0  0  0
  145.6123  132.8816  150.6668 C   0  0  0  0  0  0  0  0  0  0  0  0
  144.5012  133.6651  150.3045 C   0  0  0  0  0  0  0  0  0  0  0  0
  144.2410  134.8762  150.9745 C   0  0  0  0  0  0  0  0  0  0  0  0
  147.5223  136.7393  159.5013 C   0  0  0  0  0  0  0  0  0  0  0  0
  148.4376  136.2993  160.4855 C   0  0  0  0  0  0  0  0  0  0  0  0
  148.0790  136.2945  161.8474 C   0  0  0  0  0  0  0  0  0  0  0  0
  146.8010  136.7309  162.2419 C   0  0  0  0  0  0  0  0  0  0  0  0
  145.8817  137.1720  161.2726 C   0  0  0  0  0  0  0  0  0  0  0  0
  146.2383  137.1772  159.9101 C   0  0  0  0  0  0  0  0  0  0  0  0
  148.3331  137.6322  155.5908 H   0  0  0  0  0  0  0  0  0  0  0  0
  146.9789  136.5182  155.5459 H   0  0  0  0  0  0  0  0  0  0  0  0
  145.4801  138.6812  155.8530 H   0  0  0  0  0  0  0  0  0  0  0  0
  147.8082  141.0260  153.7401 H   0  0  0  0  0  0  0  0  0  0  0  0
  149.4284  137.8107  153.5507 H   0  0  0  0  0  0  0  0  0  0  0  0
  151.7232  137.4307  154.1250 H   0  0  0  0  0  0  0  0  0  0  0  0
  148.0369  138.1729  152.8967 H   0  0  0  0  0  0  0  0  0  0  0  0
  147.6529  139.9273  151.4559 H   0  0  0  0  0  0  0  0  0  0  0  0
  145.1988  138.9653  153.5262 H   0  0  0  0  0  0  0  0  0  0  0  0
  146.8759  134.8320  153.1614 H   0  0  0  0  0  0  0  0  0  0  0  0
  147.3184  132.7113  151.9797 H   0  0  0  0  0  0  0  0  0  0  0  0
  145.8105  131.9526  150.1530 H   0  0  0  0  0  0  0  0  0  0  0  0
  143.8460  133.3370  149.5110 H   0  0  0  0  0  0  0  0  0  0  0  0
  143.3794  135.4529  150.6707 H   0  0  0  0  0  0  0  0  0  0  0  0
  149.4252  135.9607  160.2065 H   0  0  0  0  0  0  0  0  0  0  0  0
  148.7860  135.9555  162.5899 H   0  0  0  0  0  0  0  0  0  0  0  0
  146.5264  136.7275  163.2865 H   0  0  0  0  0  0  0  0  0  0  0  0
  144.9005  137.5079  161.5741 H   0  0  0  0  0  0  0  0  0  0  0  0
  145.5095  137.5245  159.1925 H   0  0  0  0  0  0  0  0  0  0  0  0
  1  2  2  0  0  0  0
  2  3  1  0  0  0  0
  2 28  1  0  0  0  0
  3  4  1  0  0  0  0
  4  5  1  0  0  0  0
  4 34  1  0  0  0  0
  4 35  1  0  0  0  0
  5 18  1  0  0  0  0
  5  6  1  0  0  0  0
  5 36  1  0  0  0  0
  6  7  1  0  0  0  0
  7  8  1  0  0  0  0
  7 16  1  0  0  0  0
  7 37  1  0  0  0  0
  8 14  1  0  0  0  0
  8  9  1  0  0  0  0
  9 10  2  0  0  0  0
  9 38  1  0  0  0  0
 10 11  1  0  0  0  0
 10 39  1  0  0  0  0
 11 12  2  0  0  0  0
 11 13  1  0  0  0  0
 13 14  1  0  0  0  0
 14 15  2  0  0  0  0
 16 17  1  0  0  0  0
 16 18  1  0  0  0  0
 16 40  1  0  0  0  0
 17 41  1  0  0  0  0
 18 19  1  0  0  0  0
 18 42  1  0  0  0  0
 19 20  1  0  0  0  0
 20 21  2  0  0  0  0
 20 22  1  0  0  0  0
 22 27  1  0  0  0  0
 22 23  2  0  0  0  0
 23 24  1  0  0  0  0
 23 43  1  0  0  0  0
 24 25  2  0  0  0  0
 24 44  1  0  0  0  0
 25 26  1  0  0  0  0
 25 45  1  0  0  0  0
 26 27  2  0  0  0  0
 26 46  1  0  0  0  0
 27 47  1  0  0  0  0
 28 33  1  0  0  0  0
 28 29  2  0  0  0  0
 29 30  1  0  0  0  0
 29 48  1  0  0  0  0
 30 31  2  0  0  0  0
 30 49  1  0  0  0  0
 31 32  1  0  0  0  0
 31 50  1  0  0  0  0
 32 33  2  0  0  0  0
 32 51  1  0  0  0  0
 33 52  1  0  0  0  0
M  CHG  1  13  -1
M  END
> <s_m_source_file>
AV-unprocessed.smi

> <i_m_source_file_index>
99

> <i_lp_mmshare_version>
43012

> <i_f3d_flags>
0

> <s_epik_input>
W2NIXTFbY0hdW2NIXVtjSF1bY0hdYzFDKD1PKU9bQ0gyXVtDQEBIXTJPW0NAQEhdKG4zW2NIXVtjSF1jKD1PKVtuSF1jMz1PKVtDQEBIXShbT0hdKVtDQEhdMk9DKD1PKWM0W2NIXVtjSF1bY0hdW2NIXVtjSF00

> <s_epik_cmdline>
J2VwaWtfcHl0aG9uJywgJy1waCcsICc3LjAnLCAnLXRuJywgJzgnLCAnLW1hJywgJzIwMCcsICctbWV0YWxfYmluZGluZycsICctaW1hZScsICc8aW5maWxlLm1hZT4nLCAnLW9tYWUnLCAnPG91dGZpbGUubWFlPic=

> <r_lp_tautomer_probability>
1

> <r_epik_Ionization_Penalty>
2.89159

> <r_epik_Ionization_Penalty_Charging>
2.1077e-08

> <r_epik_Ionization_Penalty_Neutral>
2.89159

> <r_epik_State_Penalty>
2.88671

> <r_epik_Charging_Adjusted_Penalty>
2.88671

> <i_epik_Tot_Q>
-1

> <i_epik_Tot_abs_Q>
1

> <r_epik_Metal_State_Penalty>
0.0727308

> <b_epik_Metal_Only>
1

> <s_epik_Chemistry_Notes>
This compound has an ester and may undergo hydrolysis at high or low pH. This compound contains an acetal/aminal-like group ( X-CH(R)-Y where X, Y are N, S, or O) that may be acid/base labile, releasing an aldehyde.

> <s_lp_Force_Field>
OPLS_2005

> <r_lp_Energy>
40.5539

> <b_lp_Chiralities_Consistent>
1

> <s_lp_Variant>
AV-unprocessed.smi:99-22

> <Gold.Version>
5.8.1

> <Gold.Id.Protein>
6NUR|6NUR_protein|mol2

> <Gold.PLP.Fitness>
55.9999

> <Gold.PLP.PLP>
-49.7367

> <Gold.PLP.part.hbond>
-2.9646

> <Gold.PLP.part.metal>
0.0000

> <Gold.PLP.part.buried>
-7.0659

> <Gold.PLP.part.nonpolar>
-39.7839

> <Gold.PLP.part.repulsive>
1.1084

> <Gold.PLP.ligand.clash>
0.0000

> <Gold.PLP.ligand.torsion>
1.8456

> <Gold.PLP.Chemscore.Hbond>
2.0000

> <Gold.PLP.Chemscore.CHOScore>
1.0000

> <Gold.PLP.Chemscore.Metal>
0.0000

> <Gold.Chemscore.Hbonds>
donor molecule, donor type, donor heavy atom, donor atom, acceptor molecule, acceptor atom, score
      L1  H    17    41       P1  7957  1.00
      P1  H  7997  8010       L1    12  1.00
      L1  C     9    38       P1  7948  1.00

> <Gold.PLP.Chemscore.Internal.Correction>
0.9544

> <Gold.Rescore>
     Score         DG    S(hbond)    S(metal)    S(lipo)     H(rot)  DE(clash)    DE(int)     intcor
     12.08     -15.03       1.98        0.00      93.78       3.13       0.01       2.94       ----

> <Gold.Chemscore.Fitness>
12.0814

> <Gold.Chemscore.DG>
-15.0303

> <Gold.Chemscore.ZeroCoef>
-5.4800

> <Gold.Chemscore.Hbond>
1.9767

> <Gold.Chemscore.Metal>
0.0000

> <Gold.Chemscore.Lipo>
93.7827

> <Gold.Chemscore.Internal_Hbond>
0.0000

> <Gold.Chemscore.DEClash>
0.0060

> <Gold.Chemscore.DEInternal>
2.9429

> <Gold.Chemscore.Rot>
3.1346

> <Gold.Chemscore.Internal.Correction>
   9.000000E+99

> <Gold.Chemscore.Hbonds>
donor molecule, donor type, donor heavy atom, donor atom, acceptor molecule, acceptor atom, score
      L1  H    17    41       P1  7957  0.97
      P1  H  7997  8010       L1    12  0.99

> <Gold.Chemscore.Hbond.Weighted>
-6.6023

> <Gold.Chemscore.Metal.Weighted>
-0.0000

> <Gold.Chemscore.Lipo.Weighted>
-10.9726

> <Gold.Chemscore.Internal_Hbond.Weighted>
0.0000

> <Gold.Chemscore.DEClash.Weighted>
0.0060

> <Gold.Chemscore.DEInternal.Weighted>
2.9429

> <Gold.Chemscore.Rot.Weighted>
8.0246

> <Gold.Chemscore.Internal.Correction.Weighted>
   9.000000E+99

> <Gold.Protein.RotatedTorsions>
[ 6907 6896 6895 6894 ] final  -50.59 input  -60.11 | X-H torsion
[ 7974 7965 7964 7962 ] final   43.60 input  175.53 | X-H torsion
[ 8008 7997 7996 7995 ] final   85.83 input   59.86 | X-H torsion
[ 10167 10162 10161 10158 ] final   39.40 input  -65.29 | X-H torsion
[ 10718 10713 10712 10709 ] final -159.41 input   66.30 | X-H torsion
[ 10763 10752 10751 10750 ] final  106.47 input  -60.55 | X-H torsion
[ 11005 11000 10999 10996 ] final   -7.93 input  -57.11 | X-H torsion

> <Gold.Protein.ActiveResidues>
 VAL166  LYS551  ARG553  GLY616  TRP617  ASP618  TYR619  PRO620  LYS621  CYS622 
 ASP623  PHE694  ASN695  SER759  ASP760  ASP761  ALA762  ILE779  LEU786  VAL792 
 PHE793  MET794  SER795  GLU796  ALA797  LYS798  CYS799  TRP800  GLU811  SER814 

> <Gold.Protein.RotatedAtoms>
  150.8692  134.8062  159.7141 H   0  0  0  0  0  0  0  0  0  0  0  0  # atno 6907 bound_to 6896
  152.4703  134.4974  159.9724 H   0  0  0  0  0  0  0  0  0  0  0  0  # atno 6908 bound_to 6896
  151.5065  133.3455  159.2913 H   0  0  0  0  0  0  0  0  0  0  0  0  # atno 6909 bound_to 6896
  146.0641  139.5168  142.9639 H   0  0  0  0  0  0  0  0  0  0  0  0  # atno 7974 bound_to 7965
  155.9551  140.3398  155.6441 H   0  0  0  0  0  0  0  0  0  0  0  0  # atno 8008 bound_to 7997
  155.6870  140.0744  157.2481 H   0  0  0  0  0  0  0  0  0  0  0  0  # atno 8009 bound_to 7997
  154.4130  140.1664  156.2032 H   0  0  0  0  0  0  0  0  0  0  0  0  # atno 8010 bound_to 7997
  140.3843  144.1938  150.6130 H   0  0  0  0  0  0  0  0  0  0  0  0  # atno 10167 bound_to 10162
  156.5678  130.8675  151.2829 H   0  0  0  0  0  0  0  0  0  0  0  0  # atno 10718 bound_to 10713
  153.3934  135.3876  155.1938 H   0  0  0  0  0  0  0  0  0  0  0  0  # atno 10763 bound_to 10752
  154.8722  135.3754  154.4709 H   0  0  0  0  0  0  0  0  0  0  0  0  # atno 10764 bound_to 10752
  153.5198  135.7087  153.5799 H   0  0  0  0  0  0  0  0  0  0  0  0  # atno 10765 bound_to 10752
  140.7181  133.8852  155.8800 H   0  0  0  0  0  0  0  0  0  0  0  0  # atno 11005 bound_to 11000
  145.6509  141.0263  143.1761 LP  0  0  0  0  0  0  0  0  0  0  0  0  # atno 17320 bound_to 7965
  144.7192  139.8090  143.7388 LP  0  0  0  0  0  0  0  0  0  0  0  0  # atno 17321 bound_to 7965
  140.4905  143.2349  151.8825 LP  0  0  0  0  0  0  0  0  0  0  0  0  # atno 17342 bound_to 10162
  139.4793  144.5171  151.8853 LP  0  0  0  0  0  0  0  0  0  0  0  0  # atno 17343 bound_to 10162
  157.7355  130.9763  150.2084 LP  0  0  0  0  0  0  0  0  0  0  0  0  # atno 17370 bound_to 10713
  156.2742  130.3725  149.8001 LP  0  0  0  0  0  0  0  0  0  0  0  0  # atno 17371 bound_to 10713
  141.0027  134.1128  157.4301 LP  0  0  0  0  0  0  0  0  0  0  0  0  # atno 17394 bound_to 11000
  139.8855  135.0073  156.6437 LP  0  0  0  0  0  0  0  0  0  0  0  0  # atno 17395 bound_to 11000

$$$$
