AV-unprocessed.smi:445|AV-procd|sdf|2590|dock3
  -GOLD-   2262022583D 1   1.00000     0.00000
 Structure written by MMmdl.
 44 45  0  0  0  0  0  0  0  0  3 V2000
  148.4377  140.4116  153.9431 C   0  0  0  0  0  0  0  0  0  0  0  0
  149.8313  140.4570  154.5926 C   0  0  1  0  0  0  0  0  0  0  0  0
  149.7527  140.8826  156.0740 C   0  0  0  0  0  0  0  0  0  0  0  0
  151.1481  140.9790  156.7114 C   0  0  0  0  0  0  0  0  0  0  0  0
  151.9248  139.6629  156.5599 C   0  0  0  0  0  0  0  0  0  0  0  0
  152.0123  139.2388  155.0842 C   0  0  0  0  0  0  0  0  0  0  0  0
  150.6178  139.1322  154.4271 C   0  0  1  0  0  0  0  0  0  0  0  0
  149.8638  138.0010  154.9694 N   0  0  0  0  0  0  0  0  0  0  0  0
  150.3768  136.8083  155.3073 C   0  0  0  0  0  0  0  0  0  0  0  0
  151.5684  136.5254  155.1766 O   0  0  0  0  0  0  0  0  0  0  0  0
  149.3794  135.7873  155.8727 C   0  0  0  0  0  0  0  0  0  0  0  0
  149.8849  134.4029  155.8334 N   0  0  0  0  0  0  0  0  0  0  0  0
  149.2263  133.5317  154.9478 C   0  0  0  0  0  0  0  0  0  0  0  0
  149.5766  132.2406  154.8175 C   0  0  0  0  0  0  0  0  0  0  0  0
  148.8765  131.3628  153.9043 N   0  3  0  0  0  0  0  0  0  0  0  0
  148.0236  131.8415  153.1637 O   0  0  0  0  0  0  0  0  0  0  0  0
  149.1544  130.1672  153.8963 O   0  5  0  0  0  0  0  0  0  0  0  0
  150.6750  131.7531  155.6252 C   0  0  0  0  0  0  0  0  0  0  0  0
  151.3213  132.5734  156.4927 C   0  0  0  0  0  0  0  0  0  0  0  0
  152.4476  132.1165  157.3378 C   0  0  0  0  0  0  0  0  0  0  0  0
  152.8361  130.8563  157.1049 N   0  0  0  0  0  0  0  0  0  0  0  0
  153.0352  132.7666  158.2021 O   0  0  0  0  0  0  0  0  0  0  0  0
  150.9199  134.0000  156.6355 C   0  0  0  0  0  0  0  0  0  0  0  0
  151.4465  134.8053  157.4079 O   0  0  0  0  0  0  0  0  0  0  0  0
  147.7814  139.6970  154.4402 H   0  0  0  0  0  0  0  0  0  0  0  0
  148.5046  140.1286  152.8923 H   0  0  0  0  0  0  0  0  0  0  0  0
  147.9546  141.3877  153.9903 H   0  0  0  0  0  0  0  0  0  0  0  0
  150.3947  141.2296  154.0667 H   0  0  0  0  0  0  0  0  0  0  0  0
  149.2502  141.8468  156.1575 H   0  0  0  0  0  0  0  0  0  0  0  0
  149.1445  140.1717  156.6348 H   0  0  0  0  0  0  0  0  0  0  0  0
  151.7081  141.7883  156.2414 H   0  0  0  0  0  0  0  0  0  0  0  0
  151.0580  141.2381  157.7668 H   0  0  0  0  0  0  0  0  0  0  0  0
  152.9274  139.7741  156.9736 H   0  0  0  0  0  0  0  0  0  0  0  0
  151.4376  138.8794  157.1418 H   0  0  0  0  0  0  0  0  0  0  0  0
  152.6079  139.9721  154.5389 H   0  0  0  0  0  0  0  0  0  0  0  0
  152.5528  138.2955  154.9998 H   0  0  0  0  0  0  0  0  0  0  0  0
  150.7570  138.9580  153.3585 H   0  0  0  0  0  0  0  0  0  0  0  0
  148.8738  138.1440  155.1062 H   0  0  0  0  0  0  0  0  0  0  0  0
  149.1363  136.0598  156.9013 H   0  0  0  0  0  0  0  0  0  0  0  0
  148.4376  135.8846  155.3304 H   0  0  0  0  0  0  0  0  0  0  0  0
  148.4159  133.9856  154.3953 H   0  0  0  0  0  0  0  0  0  0  0  0
  150.9630  130.7184  155.5152 H   0  0  0  0  0  0  0  0  0  0  0  0
  153.5986  130.4553  157.6307 H   0  0  0  0  0  0  0  0  0  0  0  0
  152.3630  130.3105  156.3991 H   0  0  0  0  0  0  0  0  0  0  0  0
  1  2  1  0  0  0  0
  1 25  1  0  0  0  0
  1 26  1  0  0  0  0
  1 27  1  0  0  0  0
  2  7  1  0  0  0  0
  2  3  1  0  0  0  0
  2 28  1  0  0  0  0
  3  4  1  0  0  0  0
  3 29  1  0  0  0  0
  3 30  1  0  0  0  0
  4  5  1  0  0  0  0
  4 31  1  0  0  0  0
  4 32  1  0  0  0  0
  5  6  1  0  0  0  0
  5 33  1  0  0  0  0
  5 34  1  0  0  0  0
  6  7  1  0  0  0  0
  6 35  1  0  0  0  0
  6 36  1  0  0  0  0
  7  8  1  0  0  0  0
  7 37  1  0  0  0  0
  8  9  1  0  0  0  0
  8 38  1  0  0  0  0
  9 10  2  0  0  0  0
  9 11  1  0  0  0  0
 11 12  1  0  0  0  0
 11 39  1  0  0  0  0
 11 40  1  0  0  0  0
 12 23  1  0  0  0  0
 12 13  1  0  0  0  0
 13 14  2  0  0  0  0
 13 41  1  0  0  0  0
 14 15  1  0  0  0  0
 14 18  1  0  0  0  0
 15 16  2  0  0  0  0
 15 17  1  0  0  0  0
 18 19  2  0  0  0  0
 18 42  1  0  0  0  0
 19 20  1  0  0  0  0
 19 23  1  0  0  0  0
 20 21  1  0  0  0  0
 20 22  2  0  0  0  0
 21 43  1  0  0  0  0
 21 44  1  0  0  0  0
 23 24  2  0  0  0  0
M  CHG  1  15   1
M  CHG  1  17  -1
M  END
> <s_m_source_file>
AV-unprocessed.smi

> <i_m_source_file_index>
445

> <i_lp_mmshare_version>
43012

> <i_f3d_flags>
0

> <s_epik_input>
W0NIM11bQ0BASF0xW0NIMl1bQ0gyXVtDSDJdW0NIMl1bQ0BIXTFbTkhdQyg9TylbQ0gyXW4yW2NIXWMoW04rXSg9TylbTy1dKVtjSF1jKGMyPU8pQyg9TylbTkgyXQ==

> <s_epik_cmdline>
J2VwaWtfcHl0aG9uJywgJy1waCcsICc3LjAnLCAnLXRuJywgJzgnLCAnLW1hJywgJzIwMCcsICctbWV0YWxfYmluZGluZycsICctaW1hZScsICc8aW5maWxlLm1hZT4nLCAnLW9tYWUnLCAnPG91dGZpbGUubWFlPic=

> <r_lp_tautomer_probability>
1

> <r_epik_Ionization_Penalty>
2.81321e-06

> <r_epik_Ionization_Penalty_Charging>
2.43777e-12

> <r_epik_Ionization_Penalty_Neutral>
2.81321e-06

> <r_epik_State_Penalty>
-0

> <r_epik_Charging_Adjusted_Penalty>
2.43777e-12

> <i_epik_Tot_Q>
0

> <i_epik_Tot_abs_Q>
2

> <r_epik_Metal_State_Penalty>
-0

> <b_epik_Metal_Only>
0

> <s_lp_Force_Field>
OPLS_2005

> <r_lp_Energy>
28.4442

> <b_lp_Chiralities_Consistent>
1

> <s_lp_Variant>
AV-unprocessed.smi:445-2

> <Gold.Version>
5.8.1

> <Gold.Id.Protein>
6NUR|6NUR_protein|mol2

> <Gold.PLP.Fitness>
43.1758

> <Gold.PLP.PLP>
-38.3423

> <Gold.PLP.part.hbond>
-3.0000

> <Gold.PLP.part.metal>
0.0000

> <Gold.PLP.part.buried>
-2.5222

> <Gold.PLP.part.nonpolar>
-33.2208

> <Gold.PLP.part.repulsive>
0.3820

> <Gold.PLP.ligand.clash>
0.0000

> <Gold.PLP.ligand.torsion>
0.6229

> <Gold.PLP.Chemscore.Hbond>
2.0146

> <Gold.PLP.Chemscore.CHOScore>
0.0000

> <Gold.PLP.Chemscore.Metal>
0.0000

> <Gold.Chemscore.Hbonds>
donor molecule, donor type, donor heavy atom, donor atom, acceptor molecule, acceptor atom, score
      P1  H  6896  6907       L1    24  0.04
      P1  H  6896  6909       L1    22  1.00
      P1  H 10752 10763       L1    10  1.00

> <Gold.PLP.Chemscore.Internal.Correction>
0.0356

> <Gold.Rescore>
     Score         DG    S(hbond)    S(metal)    S(lipo)     H(rot)  DE(clash)    DE(int)     intcor
     12.72     -16.40       2.02        0.00      73.17       1.71       0.09       3.59       ----

> <Gold.Chemscore.Fitness>
12.7165

> <Gold.Chemscore.DG>
-16.3958

> <Gold.Chemscore.ZeroCoef>
-5.4800

> <Gold.Chemscore.Hbond>
2.0173

> <Gold.Chemscore.Metal>
0.0000

> <Gold.Chemscore.Lipo>
73.1740

> <Gold.Chemscore.Internal_Hbond>
0.0000

> <Gold.Chemscore.DEClash>
0.0927

> <Gold.Chemscore.DEInternal>
3.5867

> <Gold.Chemscore.Rot>
1.7123

> <Gold.Chemscore.Internal.Correction>
   9.000000E+99

> <Gold.Chemscore.Hbonds>
donor molecule, donor type, donor heavy atom, donor atom, acceptor molecule, acceptor atom, score
      P1  H  6896  6907       L1    24  0.02
      P1  H  6896  6909       L1    22  0.97
      P1  H 10752 10763       L1    10  1.00

> <Gold.Chemscore.Hbond.Weighted>
-6.7379

> <Gold.Chemscore.Metal.Weighted>
-0.0000

> <Gold.Chemscore.Lipo.Weighted>
-8.5614

> <Gold.Chemscore.Internal_Hbond.Weighted>
0.0000

> <Gold.Chemscore.DEClash.Weighted>
0.0927

> <Gold.Chemscore.DEInternal.Weighted>
3.5867

> <Gold.Chemscore.Rot.Weighted>
4.3835

> <Gold.Chemscore.Internal.Correction.Weighted>
   9.000000E+99

> <Gold.Protein.RotatedTorsions>
[ 6907 6896 6895 6894 ] final  -98.89 input  -60.11 | X-H torsion
[ 7974 7965 7964 7962 ] final  -77.67 input  175.53 | X-H torsion
[ 8008 7997 7996 7995 ] final   14.63 input   59.86 | X-H torsion
[ 10167 10162 10161 10158 ] final -141.54 input  -65.29 | X-H torsion
[ 10718 10713 10712 10709 ] final -172.17 input   66.30 | X-H torsion
[ 10763 10752 10751 10750 ] final   51.96 input  -60.55 | X-H torsion
[ 11005 11000 10999 10996 ] final   -2.23 input  -57.11 | X-H torsion

> <Gold.Protein.ActiveResidues>
 VAL166  LYS551  ARG553  GLY616  TRP617  ASP618  TYR619  PRO620  LYS621  CYS622 
 ASP623  PHE694  ASN695  SER759  ASP760  ASP761  ALA762  ILE779  LEU786  VAL792 
 PHE793  MET794  SER795  GLU796  ALA797  LYS798  CYS799  TRP800  GLU811  SER814 

> <Gold.Protein.RotatedAtoms>
  150.7061  134.1125  159.4005 H   0  0  0  0  0  0  0  0  0  0  0  0  # atno 6907 bound_to 6896
  151.9112  135.0336  160.0524 H   0  0  0  0  0  0  0  0  0  0  0  0  # atno 6908 bound_to 6896
  152.2334  133.5041  159.5265 H   0  0  0  0  0  0  0  0  0  0  0  0  # atno 6909 bound_to 6896
  145.5966  140.9418  143.1263 H   0  0  0  0  0  0  0  0  0  0  0  0  # atno 7974 bound_to 7965
  154.8512  140.2930  155.5597 H   0  0  0  0  0  0  0  0  0  0  0  0  # atno 8008 bound_to 7997
  156.3016  140.2495  156.3403 H   0  0  0  0  0  0  0  0  0  0  0  0  # atno 8009 bound_to 7997
  154.9019  140.0391  157.1887 H   0  0  0  0  0  0  0  0  0  0  0  0  # atno 8010 bound_to 7997
  139.8175  143.7619  152.2665 H   0  0  0  0  0  0  0  0  0  0  0  0  # atno 10167 bound_to 10162
  156.7517  130.9380  151.3115 H   0  0  0  0  0  0  0  0  0  0  0  0  # atno 10718 bound_to 10713
  152.9787  135.5828  154.4501 H   0  0  0  0  0  0  0  0  0  0  0  0  # atno 10763 bound_to 10752
  154.4091  135.2770  155.2050 H   0  0  0  0  0  0  0  0  0  0  0  0  # atno 10764 bound_to 10752
  154.3848  135.6138  153.5864 H   0  0  0  0  0  0  0  0  0  0  0  0  # atno 10765 bound_to 10752
  140.6560  133.9362  155.8408 H   0  0  0  0  0  0  0  0  0  0  0  0  # atno 11005 bound_to 11000
  144.7328  139.7675  143.7341 LP  0  0  0  0  0  0  0  0  0  0  0  0  # atno 17320 bound_to 7965
  146.1607  139.4720  142.9990 LP  0  0  0  0  0  0  0  0  0  0  0  0  # atno 17321 bound_to 7965
  139.7787  144.7452  151.0119 LP  0  0  0  0  0  0  0  0  0  0  0  0  # atno 17342 bound_to 10162
  140.7815  143.4565  151.0338 LP  0  0  0  0  0  0  0  0  0  0  0  0  # atno 17343 bound_to 10162
  157.6774  130.9107  150.0183 LP  0  0  0  0  0  0  0  0  0  0  0  0  # atno 17370 bound_to 10713
  156.1397  130.3642  149.9602 LP  0  0  0  0  0  0  0  0  0  0  0  0  # atno 17371 bound_to 10713
  141.0501  134.0497  157.3794 LP  0  0  0  0  0  0  0  0  0  0  0  0  # atno 17394 bound_to 11000
  139.9029  135.0170  156.7353 LP  0  0  0  0  0  0  0  0  0  0  0  0  # atno 17395 bound_to 11000

$$$$
