AV-unprocessed.smi:1538|AV-procd|sdf|6194|dock4
  -GOLD-   22720 6363D 1   1.00000     0.00000
 Structure written by MMmdl.
 36 37  0  0  0  0  0  0  0  0  1 V2000
  148.7448  136.8277  154.8423 C   0  0  0  0  0  0  0  0  0  0  0  0
  150.0356  137.5161  154.9003 N   0  0  0  0  0  0  0  0  0  0  0  0
  149.9617  138.9787  154.7967 C   0  0  0  0  0  0  0  0  0  0  0  0
  151.2907  139.6203  154.3765 C   0  0  0  0  0  0  0  0  0  0  0  0
  152.4660  139.0901  155.2103 C   0  0  1  0  0  0  0  0  0  0  0  0
  152.4505  139.6303  156.6502 C   0  0  0  0  0  0  0  0  0  0  0  0
  152.8404  138.9283  157.5839 O   0  0  0  0  0  0  0  0  0  0  0  0
  151.9792  140.8762  156.8166 N   0  0  0  0  0  0  0  0  0  0  0  0
  151.7780  141.5335  158.1050 C   0  0  0  0  0  0  0  0  0  0  0  0
  150.9476  142.8238  157.9660 C   0  0  0  0  0  0  0  0  0  0  0  0
  151.2794  143.8148  158.9736 N   0  0  0  0  0  0  0  0  0  0  0  0
  151.4203  143.6084  160.3395 C   0  0  0  0  0  0  0  0  0  0  0  0
  151.7203  144.8328  160.8928 C   0  0  0  0  0  0  0  0  0  0  0  0
  151.7770  145.7994  159.8915 N   0  0  0  0  0  0  0  0  0  0  0  0
  151.5095  145.1215  158.7830 C   0  0  0  0  0  0  0  0  0  0  0  0
  152.5337  137.5465  155.1589 C   0  0  0  0  0  0  0  0  0  0  0  0
  151.1792  136.8142  155.0923 C   0  0  0  0  0  0  0  0  0  0  0  0
  151.1859  135.5877  155.2035 O   0  0  0  0  0  0  0  0  0  0  0  0
  148.6065  136.1848  155.7131 H   0  0  0  0  0  0  0  0  0  0  0  0
  148.6837  136.2084  153.9465 H   0  0  0  0  0  0  0  0  0  0  0  0
  147.9065  137.5249  154.8225 H   0  0  0  0  0  0  0  0  0  0  0  0
  149.1930  139.2648  154.0774 H   0  0  0  0  0  0  0  0  0  0  0  0
  149.6403  139.3739  155.7610 H   0  0  0  0  0  0  0  0  0  0  0  0
  151.4759  139.4041  153.3234 H   0  0  0  0  0  0  0  0  0  0  0  0
  151.2201  140.7062  154.4537 H   0  0  0  0  0  0  0  0  0  0  0  0
  153.3826  139.4633  154.7500 H   0  0  0  0  0  0  0  0  0  0  0  0
  151.6908  141.3868  155.9946 H   0  0  0  0  0  0  0  0  0  0  0  0
  151.3191  140.8570  158.8279 H   0  0  0  0  0  0  0  0  0  0  0  0
  152.7611  141.7809  158.5058 H   0  0  0  0  0  0  0  0  0  0  0  0
  151.1172  143.2697  156.9855 H   0  0  0  0  0  0  0  0  0  0  0  0
  149.8818  142.5994  158.0274 H   0  0  0  0  0  0  0  0  0  0  0  0
  151.2899  142.6368  160.7927 H   0  0  0  0  0  0  0  0  0  0  0  0
  151.8987  145.0902  161.9264 H   0  0  0  0  0  0  0  0  0  0  0  0
  151.4687  145.5895  157.8103 H   0  0  0  0  0  0  0  0  0  0  0  0
  153.0904  137.2538  154.2679 H   0  0  0  0  0  0  0  0  0  0  0  0
  153.1056  137.1538  156.0012 H   0  0  0  0  0  0  0  0  0  0  0  0
  1  2  1  0  0  0  0
  1 19  1  0  0  0  0
  1 20  1  0  0  0  0
  1 21  1  0  0  0  0
  2 17  1  0  0  0  0
  2  3  1  0  0  0  0
  3  4  1  0  0  0  0
  3 22  1  0  0  0  0
  3 23  1  0  0  0  0
  4  5  1  0  0  0  0
  4 24  1  0  0  0  0
  4 25  1  0  0  0  0
  5  6  1  0  0  0  0
  5 16  1  0  0  0  0
  5 26  1  0  0  0  0
  6  7  2  0  0  0  0
  6  8  1  0  0  0  0
  8  9  1  0  0  0  0
  8 27  1  0  0  0  0
  9 10  1  0  0  0  0
  9 28  1  0  0  0  0
  9 29  1  0  0  0  0
 10 11  1  0  0  0  0
 10 30  1  0  0  0  0
 10 31  1  0  0  0  0
 11 15  1  0  0  0  0
 11 12  1  0  0  0  0
 12 13  2  0  0  0  0
 12 32  1  0  0  0  0
 13 14  1  0  0  0  0
 13 33  1  0  0  0  0
 14 15  2  0  0  0  0
 15 34  1  0  0  0  0
 16 17  1  0  0  0  0
 16 35  1  0  0  0  0
 16 36  1  0  0  0  0
 17 18  2  0  0  0  0
M  END
> <s_m_source_file>
AV-unprocessed.smi

> <i_m_source_file_index>
1538

> <i_lp_mmshare_version>
43012

> <i_f3d_flags>
0

> <s_epik_input>
W0NIM11OMVtDSDJdW0NIMl1bQ0BIXShbQ0gyXUMxPU8pQyg9TylbTkhdW0NIMl1bQ0gyXW4yW2NIXVtjSF1uW2NIXTI=

> <s_epik_cmdline>
J2VwaWtfcHl0aG9uJywgJy1waCcsICc3LjAnLCAnLXRuJywgJzgnLCAnLW1hJywgJzIwMCcsICctbWV0YWxfYmluZGluZycsICctaW1hZScsICc8aW5maWxlLm1hZT4nLCAnLW9tYWUnLCAnPG91dGZpbGUubWFlPic=

> <r_lp_tautomer_probability>
1

> <r_epik_Ionization_Penalty>
0.590576

> <r_epik_Ionization_Penalty_Charging>
0.590576

> <r_epik_Ionization_Penalty_Neutral>
2.97775e-08

> <r_epik_State_Penalty>
0.604111

> <r_epik_Charging_Adjusted_Penalty>
1.19469

> <i_epik_Tot_Q>
0

> <i_epik_Tot_abs_Q>
0

> <r_epik_Metal_State_Penalty>
0.298544

> <b_epik_Metal_Only>
0

> <s_lp_Force_Field>
OPLS_2005

> <r_lp_Energy>
13.4422

> <b_lp_Chiralities_Consistent>
1

> <s_lp_Variant>
AV-unprocessed.smi:1538-3

> <Gold.Version>
5.8.1

> <Gold.Id.Protein>
6NUR|6NUR_protein|mol2

> <Gold.PLP.Fitness>
41.0917

> <Gold.PLP.PLP>
-34.6250

> <Gold.PLP.part.hbond>
-3.2642

> <Gold.PLP.part.metal>
0.0000

> <Gold.PLP.part.buried>
-5.0127

> <Gold.PLP.part.nonpolar>
-27.5924

> <Gold.PLP.part.repulsive>
0.4455

> <Gold.PLP.ligand.clash>
0.0000

> <Gold.PLP.ligand.torsion>
1.0409

> <Gold.PLP.Chemscore.Hbond>
2.0000

> <Gold.PLP.Chemscore.CHOScore>
0.8346

> <Gold.PLP.Chemscore.Metal>
0.0000

> <Gold.Chemscore.Hbonds>
donor molecule, donor type, donor heavy atom, donor atom, acceptor molecule, acceptor atom, score
      P1  H 10752 10765       L1    18  0.55

> <Gold.PLP.Chemscore.Internal.Correction>
0.0448

> <Gold.Rescore>
     Score         DG    S(hbond)    S(metal)    S(lipo)     H(rot)  DE(clash)    DE(int)     intcor
     13.31     -13.96       1.80        0.00      64.45       1.98       0.05       0.61       ----

> <Gold.Chemscore.Fitness>
13.3061

> <Gold.Chemscore.DG>
-13.9611

> <Gold.Chemscore.ZeroCoef>
-5.4800

> <Gold.Chemscore.Hbond>
1.7979

> <Gold.Chemscore.Metal>
0.0000

> <Gold.Chemscore.Lipo>
64.4482

> <Gold.Chemscore.Internal_Hbond>
0.0000

> <Gold.Chemscore.DEClash>
0.0465

> <Gold.Chemscore.DEInternal>
0.6085

> <Gold.Chemscore.Rot>
1.9782

> <Gold.Chemscore.Internal.Correction>
   9.000000E+99

> <Gold.Chemscore.Hbonds>
donor molecule, donor type, donor heavy atom, donor atom, acceptor molecule, acceptor atom, score
      P1  H 10752 10765       L1    18  0.03

> <Gold.Chemscore.Hbond.Weighted>
-6.0050

> <Gold.Chemscore.Metal.Weighted>
-0.0000

> <Gold.Chemscore.Lipo.Weighted>
-7.5404

> <Gold.Chemscore.Internal_Hbond.Weighted>
0.0000

> <Gold.Chemscore.DEClash.Weighted>
0.0465

> <Gold.Chemscore.DEInternal.Weighted>
0.6085

> <Gold.Chemscore.Rot.Weighted>
5.0643

> <Gold.Chemscore.Internal.Correction.Weighted>
   9.000000E+99

> <Gold.Protein.RotatedTorsions>
[ 6907 6896 6895 6894 ] final   62.04 input  -60.11 | X-H torsion
[ 7974 7965 7964 7962 ] final   34.44 input  175.53 | X-H torsion
[ 8008 7997 7996 7995 ] final   51.47 input   59.86 | X-H torsion
[ 10167 10162 10161 10158 ] final -139.65 input  -65.29 | X-H torsion
[ 10718 10713 10712 10709 ] final   43.67 input   66.30 | X-H torsion
[ 10763 10752 10751 10750 ] final -171.38 input  -60.55 | X-H torsion
[ 11005 11000 10999 10996 ] final  -66.79 input  -57.11 | X-H torsion

> <Gold.Protein.ActiveResidues>
 VAL166  LYS551  ARG553  GLY616  TRP617  ASP618  TYR619  PRO620  LYS621  CYS622 
 ASP623  PHE694  ASN695  SER759  ASP760  ASP761  ALA762  ILE779  LEU786  VAL792 
 PHE793  MET794  SER795  GLU796  ALA797  LYS798  CYS799  TRP800  GLU811  SER814 

> <Gold.Protein.RotatedAtoms>
  152.4139  134.6076  160.0016 H   0  0  0  0  0  0  0  0  0  0  0  0  # atno 6907 bound_to 6896
  151.6246  133.3331  159.3103 H   0  0  0  0  0  0  0  0  0  0  0  0  # atno 6908 bound_to 6896
  150.8028  134.7173  159.6683 H   0  0  0  0  0  0  0  0  0  0  0  0  # atno 6909 bound_to 6896
  146.1352  139.6268  142.9200 H   0  0  0  0  0  0  0  0  0  0  0  0  # atno 7974 bound_to 7965
  155.4359  140.3452  155.4285 H   0  0  0  0  0  0  0  0  0  0  0  0  # atno 8008 bound_to 7997
  156.1308  140.1513  156.9098 H   0  0  0  0  0  0  0  0  0  0  0  0  # atno 8009 bound_to 7997
  154.4893  140.0846  156.7539 H   0  0  0  0  0  0  0  0  0  0  0  0  # atno 8010 bound_to 7997
  139.8359  143.7385  152.2665 H   0  0  0  0  0  0  0  0  0  0  0  0  # atno 10167 bound_to 10162
  157.4184  130.7955  149.7493 H   0  0  0  0  0  0  0  0  0  0  0  0  # atno 10718 bound_to 10713
  154.6311  135.2886  155.0215 H   0  0  0  0  0  0  0  0  0  0  0  0  # atno 10763 bound_to 10752
  154.1376  135.6523  153.4939 H   0  0  0  0  0  0  0  0  0  0  0  0  # atno 10764 bound_to 10752
  153.0280  135.5325  154.7139 H   0  0  0  0  0  0  0  0  0  0  0  0  # atno 10765 bound_to 10752
  141.1491  133.6706  156.6193 H   0  0  0  0  0  0  0  0  0  0  0  0  # atno 11005 bound_to 11000
  145.5171  141.0433  143.2456 LP  0  0  0  0  0  0  0  0  0  0  0  0  # atno 17320 bound_to 7965
  144.7732  139.6687  143.7186 LP  0  0  0  0  0  0  0  0  0  0  0  0  # atno 17321 bound_to 7965
  139.7607  144.7507  151.0368 LP  0  0  0  0  0  0  0  0  0  0  0  0  # atno 17342 bound_to 10162
  140.7802  143.4754  151.0090 LP  0  0  0  0  0  0  0  0  0  0  0  0  # atno 17343 bound_to 10162
  155.9872  130.3968  150.3173 LP  0  0  0  0  0  0  0  0  0  0  0  0  # atno 17370 bound_to 10713
  157.1319  131.0274  151.2965 LP  0  0  0  0  0  0  0  0  0  0  0  0  # atno 17371 bound_to 10713
  140.3553  134.7734  157.4496 LP  0  0  0  0  0  0  0  0  0  0  0  0  # atno 17394 bound_to 11000
  140.0828  134.5708  155.8523 LP  0  0  0  0  0  0  0  0  0  0  0  0  # atno 17395 bound_to 11000

$$$$
