AV-unprocessed.smi:960|AV-procd|sdf|4271|dock9
  -GOLD-   22720 2183D 1   1.00000     0.00000
 Structure written by MMmdl.
 46 47  0  0  0  0  0  0  0  0  2 V2000
  145.9977  132.1713  149.9017 C   0  0  0  0  0  0  0  0  0  0  0  0
  146.4352  132.3414  151.1605 C   0  0  0  0  0  0  0  0  0  0  0  0
  146.2070  131.2955  152.2369 C   0  0  0  0  0  0  0  0  0  0  0  0
  147.2146  133.5798  151.5754 C   0  0  0  0  0  0  0  0  0  0  0  0
  146.3424  134.7617  151.8047 N   0  3  2  0  0  0  0  0  0  0  0  0
  145.6774  134.6985  153.1320 C   0  0  0  0  0  0  0  0  0  0  0  0
  144.9007  135.9897  153.4340 C   0  0  0  0  0  0  0  0  0  0  0  0
  143.8653  136.2840  152.3337 C   0  0  1  0  0  0  0  0  0  0  0  0
  143.1953  137.5592  152.5719 N   0  0  0  0  0  0  0  0  0  0  0  0
  141.9449  137.6986  153.0351 C   0  0  0  0  0  0  0  0  0  0  0  0
  141.2112  136.7499  153.3103 O   0  0  0  0  0  0  0  0  0  0  0  0
  141.6006  138.9913  153.1365 N   0  0  0  0  0  0  0  0  0  0  0  0
  140.3635  139.5077  153.5974 C   0  0  0  0  0  0  0  0  0  0  0  0
  139.0642  138.9213  153.5598 C   0  0  0  0  0  0  0  0  0  0  0  0
  138.5944  137.5935  153.0342 C   0  0  0  0  0  0  0  0  0  0  0  0
  138.1881  139.7309  154.1363 N   0  0  0  0  0  0  0  0  0  0  0  0
  138.9076  140.8466  154.5908 O   0  0  0  0  0  0  0  0  0  0  0  0
  140.2182  140.6833  154.2729 C   0  0  0  0  0  0  0  0  0  0  0  0
  141.1575  141.7623  154.6940 C   0  0  0  0  0  0  0  0  0  0  0  0
  144.5691  136.3126  150.9684 C   0  0  0  0  0  0  0  0  0  0  0  0
  145.3638  135.0201  150.7146 C   0  0  0  0  0  0  0  0  0  0  0  0
  145.4547  131.2837  149.6109 H   0  0  0  0  0  0  0  0  0  0  0  0
  146.1762  132.9181  149.1417 H   0  0  0  0  0  0  0  0  0  0  0  0
  147.1615  130.8758  152.5549 H   0  0  0  0  0  0  0  0  0  0  0  0
  145.5864  130.4775  151.8695 H   0  0  0  0  0  0  0  0  0  0  0  0
  145.7194  131.7210  153.1125 H   0  0  0  0  0  0  0  0  0  0  0  0
  147.8165  133.3711  152.4614 H   0  0  0  0  0  0  0  0  0  0  0  0
  147.9167  133.8078  150.7719 H   0  0  0  0  0  0  0  0  0  0  0  0
  145.0039  133.8404  153.1617 H   0  0  0  0  0  0  0  0  0  0  0  0
  146.4242  134.5412  153.9113 H   0  0  0  0  0  0  0  0  0  0  0  0
  144.4081  135.8989  154.4029 H   0  0  0  0  0  0  0  0  0  0  0  0
  145.5999  136.8228  153.5200 H   0  0  0  0  0  0  0  0  0  0  0  0
  143.1187  135.4873  152.3203 H   0  0  0  0  0  0  0  0  0  0  0  0
  143.7200  138.3966  152.3653 H   0  0  0  0  0  0  0  0  0  0  0  0
  142.2501  139.6673  152.7622 H   0  0  0  0  0  0  0  0  0  0  0  0
  139.3539  136.8240  153.1726 H   0  0  0  0  0  0  0  0  0  0  0  0
  138.3631  137.6526  151.9708 H   0  0  0  0  0  0  0  0  0  0  0  0
  137.6941  137.2557  153.5485 H   0  0  0  0  0  0  0  0  0  0  0  0
  142.1945  141.4554  154.5579 H   0  0  0  0  0  0  0  0  0  0  0  0
  141.0149  142.0106  155.7456 H   0  0  0  0  0  0  0  0  0  0  0  0
  140.9930  142.6659  154.1073 H   0  0  0  0  0  0  0  0  0  0  0  0
  143.8366  136.4549  150.1730 H   0  0  0  0  0  0  0  0  0  0  0  0
  145.2474  137.1661  150.9193 H   0  0  0  0  0  0  0  0  0  0  0  0
  145.8809  135.1276  149.7626 H   0  0  0  0  0  0  0  0  0  0  0  0
  144.6861  134.1701  150.6201 H   0  0  0  0  0  0  0  0  0  0  0  0
  146.9573  135.5625  151.8346 H   0  0  0  0  0  0  0  0  0  0  0  0
  1  2  2  0  0  0  0
  1 22  1  0  0  0  0
  1 23  1  0  0  0  0
  2  3  1  0  0  0  0
  2  4  1  0  0  0  0
  3 24  1  0  0  0  0
  3 25  1  0  0  0  0
  3 26  1  0  0  0  0
  4  5  1  0  0  0  0
  4 27  1  0  0  0  0
  4 28  1  0  0  0  0
  5 21  1  0  0  0  0
  5  6  1  0  0  0  0
  5 46  1  0  0  0  0
  6  7  1  0  0  0  0
  6 29  1  0  0  0  0
  6 30  1  0  0  0  0
  7  8  1  0  0  0  0
  7 31  1  0  0  0  0
  7 32  1  0  0  0  0
  8  9  1  0  0  0  0
  8 20  1  0  0  0  0
  8 33  1  0  0  0  0
  9 10  1  0  0  0  0
  9 34  1  0  0  0  0
 10 11  2  0  0  0  0
 10 12  1  0  0  0  0
 12 13  1  0  0  0  0
 12 35  1  0  0  0  0
 13 18  2  0  0  0  0
 13 14  1  0  0  0  0
 14 15  1  0  0  0  0
 14 16  2  0  0  0  0
 15 36  1  0  0  0  0
 15 37  1  0  0  0  0
 15 38  1  0  0  0  0
 16 17  1  0  0  0  0
 17 18  1  0  0  0  0
 18 19  1  0  0  0  0
 19 39  1  0  0  0  0
 19 40  1  0  0  0  0
 19 41  1  0  0  0  0
 20 21  1  0  0  0  0
 20 42  1  0  0  0  0
 20 43  1  0  0  0  0
 21 44  1  0  0  0  0
 21 45  1  0  0  0  0
M  CHG  1   5   1
M  END
> <s_m_source_file>
AV-unprocessed.smi

> <i_m_source_file_index>
960

> <i_lp_mmshare_version>
43012

> <i_f3d_flags>
0

> <s_epik_input>
W0NIMl09QyhbQ0gzXSlbQ0gyXU4xW0NIMl1bQ0gyXVtDSF0oW0NIMl1bQ0gyXTEpW05IXUMoPU8pW05IXWMyYyhbQ0gzXSlub2MyW0NIM10=

> <s_epik_cmdline>
J2VwaWtfcHl0aG9uJywgJy1waCcsICc3LjAnLCAnLXRuJywgJzgnLCAnLW1hJywgJzIwMCcsICctbWV0YWxfYmluZGluZycsICctaW1hZScsICc8aW5maWxlLm1hZT4nLCAnLW9tYWUnLCAnPG91dGZpbGUubWFlPic=

> <r_epik_Ionization_Penalty>
0.01938

> <r_epik_Ionization_Penalty_Charging>
0.0193505

> <r_epik_Ionization_Penalty_Neutral>
2.94909e-05

> <r_epik_State_Penalty>
0.0154499

> <r_epik_Charging_Adjusted_Penalty>
0.0348004

> <i_epik_Tot_Q>
1

> <i_epik_Tot_abs_Q>
1

> <r_epik_Metal_State_Penalty>
0.0154499

> <b_epik_Metal_Only>
0

> <s_lp_Force_Field>
OPLS_2005

> <r_lp_Energy>
20.2595

> <b_lp_Chiralities_Consistent>
1

> <s_lp_Variant>
AV-unprocessed.smi:960-1

> <Gold.Version>
5.8.1

> <Gold.Id.Protein>
6NUR|6NUR_protein|mol2

> <Gold.PLP.Fitness>
39.7403

> <Gold.PLP.PLP>
-30.1401

> <Gold.PLP.part.hbond>
-4.4467

> <Gold.PLP.part.metal>
0.0000

> <Gold.PLP.part.buried>
2.2696

> <Gold.PLP.part.nonpolar>
-26.4175

> <Gold.PLP.part.repulsive>
0.3203

> <Gold.PLP.ligand.clash>
0.0000

> <Gold.PLP.ligand.torsion>
0.7418

> <Gold.PLP.Chemscore.Hbond>
3.5899

> <Gold.PLP.Chemscore.CHOScore>
0.0000

> <Gold.PLP.Chemscore.Metal>
0.0000

> <Gold.Chemscore.Hbonds>
donor molecule, donor type, donor heavy atom, donor atom, acceptor molecule, acceptor atom, score
      L1  H     5    46       P1  7948  1.63
      L1  H     9    34       P1 10175  0.84
      L1  H    12    35       P1 10175  1.00

> <Gold.PLP.Chemscore.Internal.Correction>
0.3141

> <Gold.Rescore>
     Score         DG    S(hbond)    S(metal)    S(lipo)     H(rot)  DE(clash)    DE(int)     intcor
     15.15     -19.83       2.56        0.00      79.12       1.35       1.78       2.89       ----

> <Gold.Chemscore.Fitness>
15.1523

> <Gold.Chemscore.DG>
-19.8257

> <Gold.Chemscore.ZeroCoef>
-5.4800

> <Gold.Chemscore.Hbond>
2.5569

> <Gold.Chemscore.Metal>
0.0000

> <Gold.Chemscore.Lipo>
79.1161

> <Gold.Chemscore.Internal_Hbond>
0.0000

> <Gold.Chemscore.DEClash>
1.7818

> <Gold.Chemscore.DEInternal>
2.8917

> <Gold.Chemscore.Rot>
1.3480

> <Gold.Chemscore.Internal.Correction>
   9.000000E+99

> <Gold.Chemscore.Hbonds>
donor molecule, donor type, donor heavy atom, donor atom, acceptor molecule, acceptor atom, score
      L1  H     5    46       P1  7948  0.77
      L1  H     9    34       P1 10175  0.78
      L1  H    12    35       P1 10175  0.63

> <Gold.Chemscore.Hbond.Weighted>
-8.5400

> <Gold.Chemscore.Metal.Weighted>
-0.0000

> <Gold.Chemscore.Lipo.Weighted>
-9.2566

> <Gold.Chemscore.Internal_Hbond.Weighted>
0.0000

> <Gold.Chemscore.DEClash.Weighted>
1.7818

> <Gold.Chemscore.DEInternal.Weighted>
2.8917

> <Gold.Chemscore.Rot.Weighted>
3.4509

> <Gold.Chemscore.Internal.Correction.Weighted>
   9.000000E+99

> <Gold.Protein.RotatedTorsions>
[ 6907 6896 6895 6894 ] final   97.37 input  -60.11 | X-H torsion
[ 7974 7965 7964 7962 ] final   75.82 input  175.53 | X-H torsion
[ 8008 7997 7996 7995 ] final -178.10 input   59.86 | X-H torsion
[ 10167 10162 10161 10158 ] final  -21.39 input  -65.29 | X-H torsion
[ 10718 10713 10712 10709 ] final   15.37 input   66.30 | X-H torsion
[ 10763 10752 10751 10750 ] final  -27.76 input  -60.55 | X-H torsion
[ 11005 11000 10999 10996 ] final  -51.45 input  -57.11 | X-H torsion

> <Gold.Protein.ActiveResidues>
 VAL166  LYS551  ARG553  GLY616  TRP617  ASP618  TYR619  PRO620  LYS621  CYS622 
 ASP623  PHE694  ASN695  SER759  ASP760  ASP761  ALA762  ILE779  LEU786  VAL792 
 PHE793  MET794  SER795  GLU796  ALA797  LYS798  CYS799  TRP800  GLU811  SER814 

> <Gold.Protein.RotatedAtoms>
  152.5424  134.0743  159.8207 H   0  0  0  0  0  0  0  0  0  0  0  0  # atno 6907 bound_to 6896
  151.0853  133.5350  159.2625 H   0  0  0  0  0  0  0  0  0  0  0  0  # atno 6908 bound_to 6896
  151.2162  135.0509  159.8985 H   0  0  0  0  0  0  0  0  0  0  0  0  # atno 6909 bound_to 6896
  145.7108  139.2614  143.1652 H   0  0  0  0  0  0  0  0  0  0  0  0  # atno 7974 bound_to 7965
  156.0148  140.1248  157.0418 H   0  0  0  0  0  0  0  0  0  0  0  0  # atno 8008 bound_to 7997
  154.4289  140.1080  156.5949 H   0  0  0  0  0  0  0  0  0  0  0  0  # atno 8009 bound_to 7997
  155.6029  140.3470  155.4601 H   0  0  0  0  0  0  0  0  0  0  0  0  # atno 8010 bound_to 7997
  140.7281  143.4632  151.0350 H   0  0  0  0  0  0  0  0  0  0  0  0  # atno 10167 bound_to 10162
  157.0525  130.6275  149.5770 H   0  0  0  0  0  0  0  0  0  0  0  0  # atno 10718 bound_to 10713
  153.7374  135.6935  153.4975 H   0  0  0  0  0  0  0  0  0  0  0  0  # atno 10763 bound_to 10752
  153.2093  135.4408  155.0359 H   0  0  0  0  0  0  0  0  0  0  0  0  # atno 10764 bound_to 10752
  154.8232  135.3433  154.6901 H   0  0  0  0  0  0  0  0  0  0  0  0  # atno 10765 bound_to 10752
  141.0872  133.6640  156.3879 H   0  0  0  0  0  0  0  0  0  0  0  0  # atno 11005 bound_to 11000
  146.0714  140.7864  142.9686 LP  0  0  0  0  0  0  0  0  0  0  0  0  # atno 17320 bound_to 7965
  144.6942  140.3348  143.7209 LP  0  0  0  0  0  0  0  0  0  0  0  0  # atno 17321 bound_to 7965
  139.8318  143.7680  152.3180 LP  0  0  0  0  0  0  0  0  0  0  0  0  # atno 17342 bound_to 10162
  139.7799  144.7448  151.0103 LP  0  0  0  0  0  0  0  0  0  0  0  0  # atno 17343 bound_to 10162
  156.0003  130.5081  150.7638 LP  0  0  0  0  0  0  0  0  0  0  0  0  # atno 17370 bound_to 10713
  157.5019  131.0919  151.0304 LP  0  0  0  0  0  0  0  0  0  0  0  0  # atno 17371 bound_to 10713
  140.5336  134.6188  157.5358 LP  0  0  0  0  0  0  0  0  0  0  0  0  # atno 17394 bound_to 11000
  139.9692  134.7322  156.0076 LP  0  0  0  0  0  0  0  0  0  0  0  0  # atno 17395 bound_to 11000

$$$$
