AV-unprocessed.smi:2226|AV-procd|sdf|9002|dock1
  -GOLD-   2272012213D 1   1.00000     0.00000
 Structure written by MMmdl.
 40 42  0  0  0  0  0  0  0  0  2 V2000
  146.0699  143.1434  153.5777 C   0  0  0  0  0  0  0  0  0  0  0  0
  146.0878  141.6993  153.9122 N   0  3  2  0  0  0  0  0  0  0  0  0
  145.7332  141.3793  155.3163 C   0  0  1  0  0  0  0  0  0  0  0  0
  145.3638  139.8800  155.4093 C   0  0  0  0  0  0  0  0  0  0  0  0
  146.4387  138.9344  154.8341 C   0  0  0  0  0  0  0  0  0  0  0  0
  147.0458  139.4627  153.5179 C   0  0  0  0  0  0  0  0  0  0  0  0
  147.3274  140.9838  153.5234 C   0  0  2  0  0  0  0  0  0  0  0  0
  148.5281  141.4198  154.4004 C   0  0  0  0  0  0  0  0  0  0  0  0
  148.2664  141.3648  155.9232 C   0  0  1  0  0  0  0  0  0  0  0  0
  149.2504  142.1976  156.6146 N   0  0  0  0  0  0  0  0  0  0  0  0
  149.8505  141.9058  157.7793 C   0  0  0  0  0  0  0  0  0  0  0  0
  149.6368  140.8756  158.4185 O   0  0  0  0  0  0  0  0  0  0  0  0
  150.7034  142.8778  158.1458 N   0  0  0  0  0  0  0  0  0  0  0  0
  151.5127  142.9224  159.3097 C   0  0  0  0  0  0  0  0  0  0  0  0
  152.1656  143.9846  159.7840 N   0  0  0  0  0  0  0  0  0  0  0  0
  152.8033  143.5223  160.9263 C   0  0  0  0  0  0  0  0  0  0  0  0
  152.4969  142.1944  161.0790 C   0  0  0  0  0  0  0  0  0  0  0  0
  151.6759  141.7989  160.0570 O   0  0  0  0  0  0  0  0  0  0  0  0
  146.8424  141.8379  156.2961 C   0  0  0  0  0  0  0  0  0  0  0  0
  146.8256  143.7052  154.1259 H   0  0  0  0  0  0  0  0  0  0  0  0
  145.0952  143.5742  153.8085 H   0  0  0  0  0  0  0  0  0  0  0  0
  146.2485  143.2881  152.5119 H   0  0  0  0  0  0  0  0  0  0  0  0
  144.8288  141.9358  155.5667 H   0  0  0  0  0  0  0  0  0  0  0  0
  145.1377  139.6059  156.4403 H   0  0  0  0  0  0  0  0  0  0  0  0
  144.4398  139.7228  154.8508 H   0  0  0  0  0  0  0  0  0  0  0  0
  147.2199  138.7560  155.5683 H   0  0  0  0  0  0  0  0  0  0  0  0
  146.0005  137.9507  154.6615 H   0  0  0  0  0  0  0  0  0  0  0  0
  147.9526  138.9077  153.2752 H   0  0  0  0  0  0  0  0  0  0  0  0
  146.3429  139.2507  152.7110 H   0  0  0  0  0  0  0  0  0  0  0  0
  147.5614  141.2579  152.4938 H   0  0  0  0  0  0  0  0  0  0  0  0
  149.4057  140.8199  154.1558 H   0  0  0  0  0  0  0  0  0  0  0  0
  148.7937  142.4409  154.1235 H   0  0  0  0  0  0  0  0  0  0  0  0
  148.3828  140.3364  156.2536 H   0  0  0  0  0  0  0  0  0  0  0  0
  149.4950  143.0697  156.1684 H   0  0  0  0  0  0  0  0  0  0  0  0
  150.7845  143.6721  157.5284 H   0  0  0  0  0  0  0  0  0  0  0  0
  153.4194  144.1676  161.5354 H   0  0  0  0  0  0  0  0  0  0  0  0
  152.7623  141.4428  161.8077 H   0  0  0  0  0  0  0  0  0  0  0  0
  146.8297  142.9280  156.3322 H   0  0  0  0  0  0  0  0  0  0  0  0
  146.6010  141.5155  157.3098 H   0  0  0  0  0  0  0  0  0  0  0  0
  145.3530  141.2971  153.3475 H   0  0  0  0  0  0  0  0  0  0  0  0
  1  2  1  0  0  0  0
  1 20  1  0  0  0  0
  1 21  1  0  0  0  0
  1 22  1  0  0  0  0
  2  7  1  0  0  0  0
  2  3  1  0  0  0  0
  2 40  1  0  0  0  0
  3 19  1  0  0  0  0
  3  4  1  0  0  0  0
  3 23  1  0  0  0  0
  4  5  1  0  0  0  0
  4 24  1  0  0  0  0
  4 25  1  0  0  0  0
  5  6  1  0  0  0  0
  5 26  1  0  0  0  0
  5 27  1  0  0  0  0
  6  7  1  0  0  0  0
  6 28  1  0  0  0  0
  6 29  1  0  0  0  0
  7  8  1  0  0  0  0
  7 30  1  0  0  0  0
  8  9  1  0  0  0  0
  8 31  1  0  0  0  0
  8 32  1  0  0  0  0
  9 10  1  0  0  0  0
  9 19  1  0  0  0  0
  9 33  1  0  0  0  0
 10 11  1  0  0  0  0
 10 34  1  0  0  0  0
 11 12  2  0  0  0  0
 11 13  1  0  0  0  0
 13 14  1  0  0  0  0
 13 35  1  0  0  0  0
 14 18  1  0  0  0  0
 14 15  2  0  0  0  0
 15 16  1  0  0  0  0
 16 17  2  0  0  0  0
 16 36  1  0  0  0  0
 17 18  1  0  0  0  0
 17 37  1  0  0  0  0
 19 38  1  0  0  0  0
 19 39  1  0  0  0  0
M  CHG  1   2   1
M  END
> <s_m_source_file>
AV-unprocessed.smi

> <i_m_source_file_index>
2226

> <i_lp_mmshare_version>
43012

> <i_f3d_flags>
0

> <s_epik_input>
W0NIMl0xW0NIMl1bQ0gyXVtDQEhdKE4oW0NIM10pW0NIXTEyKVtDSDJdW0NASF0oW0NIMl0yKVtOSF1DKD1PKVtOSF1jM25bY0hdW2NIXW8z

> <s_epik_cmdline>
J2VwaWtfcHl0aG9uJywgJy1waCcsICc3LjAnLCAnLXRuJywgJzgnLCAnLW1hJywgJzIwMCcsICctbWV0YWxfYmluZGluZycsICctaW1hZScsICc8aW5maWxlLm1hZT4nLCAnLW9tYWUnLCAnPG91dGZpbGUubWFlPic=

> <r_lp_tautomer_probability>
0.785861

> <r_epik_Ionization_Penalty>
0.000929358

> <r_epik_Ionization_Penalty_Charging>
0.000890041

> <r_epik_Ionization_Penalty_Neutral>
3.93161e-05

> <r_epik_State_Penalty>
0.0312137

> <r_epik_Charging_Adjusted_Penalty>
0.0321037

> <i_epik_Tot_Q>
1

> <i_epik_Tot_abs_Q>
1

> <r_epik_Metal_State_Penalty>
0.0605703

> <b_epik_Metal_Only>
0

> <s_lp_Force_Field>
OPLS_2005

> <r_lp_Energy>
35.273

> <b_lp_Chiralities_Consistent>
1

> <s_lp_Variant>
AV-unprocessed.smi:2226-2

> <Gold.Version>
5.8.1

> <Gold.Id.Protein>
6NUR|6NUR_protein|mol2

> <Gold.PLP.Fitness>
38.9521

> <Gold.PLP.PLP>
-30.6619

> <Gold.PLP.part.hbond>
-2.2998

> <Gold.PLP.part.metal>
0.0000

> <Gold.PLP.part.buried>
-6.4863

> <Gold.PLP.part.nonpolar>
-22.0859

> <Gold.PLP.part.repulsive>
0.1312

> <Gold.PLP.ligand.clash>
0.0000

> <Gold.PLP.ligand.torsion>
0.3581

> <Gold.PLP.Chemscore.Hbond>
3.0000

> <Gold.PLP.Chemscore.CHOScore>
0.0000

> <Gold.PLP.Chemscore.Metal>
0.0000

> <Gold.Chemscore.Hbonds>
donor molecule, donor type, donor heavy atom, donor atom, acceptor molecule, acceptor atom, score
      L1  H     2    40       P1 10175  1.85
      L1  H    10    34       P1  8028  0.90

> <Gold.PLP.Chemscore.Internal.Correction>
0.0066

> <Gold.Rescore>
     Score         DG    S(hbond)    S(metal)    S(lipo)     H(rot)  DE(clash)    DE(int)     intcor
     15.02     -17.78       2.14        0.00      65.93       1.00       0.97       1.79       ----

> <Gold.Chemscore.Fitness>
15.0218

> <Gold.Chemscore.DG>
-17.7833

> <Gold.Chemscore.ZeroCoef>
-5.4800

> <Gold.Chemscore.Hbond>
2.1405

> <Gold.Chemscore.Metal>
0.0000

> <Gold.Chemscore.Lipo>
65.9323

> <Gold.Chemscore.Internal_Hbond>
0.0000

> <Gold.Chemscore.DEClash>
0.9700

> <Gold.Chemscore.DEInternal>
1.7915

> <Gold.Chemscore.Rot>
1.0000

> <Gold.Chemscore.Internal.Correction>
   9.000000E+99

> <Gold.Chemscore.Hbonds>
donor molecule, donor type, donor heavy atom, donor atom, acceptor molecule, acceptor atom, score
      L1  H     2    40       P1 10175  0.20
      L1  H    10    34       P1  8028  0.88

> <Gold.Chemscore.Hbond.Weighted>
-7.1492

> <Gold.Chemscore.Metal.Weighted>
-0.0000

> <Gold.Chemscore.Lipo.Weighted>
-7.7141

> <Gold.Chemscore.Internal_Hbond.Weighted>
0.0000

> <Gold.Chemscore.DEClash.Weighted>
0.9700

> <Gold.Chemscore.DEInternal.Weighted>
1.7915

> <Gold.Chemscore.Rot.Weighted>
2.5600

> <Gold.Chemscore.Internal.Correction.Weighted>
   9.000000E+99

> <Gold.Protein.RotatedTorsions>
[ 6907 6896 6895 6894 ] final -138.01 input  -60.11 | X-H torsion
[ 7974 7965 7964 7962 ] final   58.03 input  175.53 | X-H torsion
[ 8008 7997 7996 7995 ] final  -21.41 input   59.86 | X-H torsion
[ 10167 10162 10161 10158 ] final  106.14 input  -65.29 | X-H torsion
[ 10718 10713 10712 10709 ] final  118.11 input   66.30 | X-H torsion
[ 10763 10752 10751 10750 ] final   31.56 input  -60.55 | X-H torsion
[ 11005 11000 10999 10996 ] final  101.76 input  -57.11 | X-H torsion

> <Gold.Protein.ActiveResidues>
 VAL166  LYS551  ARG553  GLY616  TRP617  ASP618  TYR619  PRO620  LYS621  CYS622 
 ASP623  PHE694  ASN695  SER759  ASP760  ASP761  ALA762  ILE779  LEU786  VAL792 
 PHE793  MET794  SER795  GLU796  ALA797  LYS798  CYS799  TRP800  GLU811  SER814 

> <Gold.Protein.RotatedAtoms>
  151.0296  133.5802  159.2661 H   0  0  0  0  0  0  0  0  0  0  0  0  # atno 6907 bound_to 6896
  151.2888  135.0735  159.9206 H   0  0  0  0  0  0  0  0  0  0  0  0  # atno 6908 bound_to 6896
  152.5342  133.9998  159.7943 H   0  0  0  0  0  0  0  0  0  0  0  0  # atno 6909 bound_to 6896
  145.9226  139.3742  143.0469 H   0  0  0  0  0  0  0  0  0  0  0  0  # atno 7974 bound_to 7965
  154.4708  140.2035  156.0001 H   0  0  0  0  0  0  0  0  0  0  0  0  # atno 8008 bound_to 7997
  156.1007  140.3244  155.7908 H   0  0  0  0  0  0  0  0  0  0  0  0  # atno 8009 bound_to 7997
  155.4803  140.0538  157.2959 H   0  0  0  0  0  0  0  0  0  0  0  0  # atno 8010 bound_to 7997
  139.7034  144.7090  151.1147 H   0  0  0  0  0  0  0  0  0  0  0  0  # atno 10167 bound_to 10162
  157.6052  131.1044  150.7711 H   0  0  0  0  0  0  0  0  0  0  0  0  # atno 10718 bound_to 10713
  153.0309  135.6436  154.1218 H   0  0  0  0  0  0  0  0  0  0  0  0  # atno 10763 bound_to 10752
  154.0940  135.2864  155.3267 H   0  0  0  0  0  0  0  0  0  0  0  0  # atno 10764 bound_to 10752
  154.6445  135.5448  153.7891 H   0  0  0  0  0  0  0  0  0  0  0  0  # atno 10765 bound_to 10752
  139.8774  134.9196  156.4955 H   0  0  0  0  0  0  0  0  0  0  0  0  # atno 11005 bound_to 11000
  145.8530  140.9518  143.0739 LP  0  0  0  0  0  0  0  0  0  0  0  0  # atno 17320 bound_to 7965
  144.6755  140.0432  143.7480 LP  0  0  0  0  0  0  0  0  0  0  0  0  # atno 17321 bound_to 7965
  140.7715  143.5392  150.9332 LP  0  0  0  0  0  0  0  0  0  0  0  0  # atno 17342 bound_to 10162
  139.9075  143.6761  152.3121 LP  0  0  0  0  0  0  0  0  0  0  0  0  # atno 17343 bound_to 10162
  156.8100  130.4949  149.5357 LP  0  0  0  0  0  0  0  0  0  0  0  0  # atno 17370 bound_to 10713
  156.1136  130.6058  151.0085 LP  0  0  0  0  0  0  0  0  0  0  0  0  # atno 17371 bound_to 10713
  140.8627  133.8047  155.9282 LP  0  0  0  0  0  0  0  0  0  0  0  0  # atno 17394 bound_to 11000
  140.9033  134.2352  157.5029 LP  0  0  0  0  0  0  0  0  0  0  0  0  # atno 17395 bound_to 11000

$$$$
