AV-unprocessed.smi:3253|AV-procd|sdf|12450|dock8
  -GOLD-   2272018343D 1   1.00000     0.00000
 Structure written by MMmdl.
 36 37  0  0  0  0  0  0  0  0  1 V2000
  151.8156  141.1413  159.4585 C   0  0  0  0  0  0  0  0  0  0  0  0
  153.2364  141.7134  159.3621 C   0  0  1  0  0  0  0  0  0  0  0  0
  153.4034  142.9586  160.2592 C   0  0  0  0  0  0  0  0  0  0  0  0
  152.2834  143.8767  160.1581 N   0  0  0  0  0  0  0  0  0  0  0  0
  151.7668  144.4465  159.0014 C   0  0  0  0  0  0  0  0  0  0  0  0
  150.7076  145.2347  159.3907 C   0  0  0  0  0  0  0  0  0  0  0  0
  150.5603  145.1718  160.7742 N   0  0  0  0  0  0  0  0  0  0  0  0
  151.5290  144.3510  161.1589 C   0  0  0  0  0  0  0  0  0  0  0  0
  154.1941  140.6734  159.7361 N   0  0  0  0  0  0  0  0  0  0  0  0
  154.3826  139.5127  159.0881 C   0  0  0  0  0  0  0  0  0  0  0  0
  153.7245  139.1705  158.1051 O   0  0  0  0  0  0  0  0  0  0  0  0
  155.5028  138.6069  159.6210 C   0  0  2  0  0  0  0  0  0  0  0  0
  155.3439  137.1625  159.1038 C   0  0  0  0  0  0  0  0  0  0  0  0
  155.0084  136.3603  160.3497 C   0  0  0  0  0  0  0  0  0  0  0  0
  154.7128  135.1668  160.3165 O   0  0  0  0  0  0  0  0  0  0  0  0
  155.0736  137.1254  161.4428 N   0  0  0  0  0  0  0  0  0  0  0  0
  154.8005  136.6901  162.8057 C   0  0  0  0  0  0  0  0  0  0  0  0
  155.4883  138.4889  161.1610 C   0  0  0  0  0  0  0  0  0  0  0  0
  151.0736  141.8820  159.1591 H   0  0  0  0  0  0  0  0  0  0  0  0
  151.5804  140.8279  160.4764 H   0  0  0  0  0  0  0  0  0  0  0  0
  151.6960  140.2754  158.8065 H   0  0  0  0  0  0  0  0  0  0  0  0
  153.3935  142.0075  158.3226 H   0  0  0  0  0  0  0  0  0  0  0  0
  153.4948  142.6586  161.3039 H   0  0  0  0  0  0  0  0  0  0  0  0
  154.3203  143.4934  160.0072 H   0  0  0  0  0  0  0  0  0  0  0  0
  152.1783  144.2433  158.0239 H   0  0  0  0  0  0  0  0  0  0  0  0
  150.0457  145.8375  158.7867 H   0  0  0  0  0  0  0  0  0  0  0  0
  151.6896  144.0827  162.1929 H   0  0  0  0  0  0  0  0  0  0  0  0
  154.7812  140.8658  160.5347 H   0  0  0  0  0  0  0  0  0  0  0  0
  156.4660  139.0079  159.3005 H   0  0  0  0  0  0  0  0  0  0  0  0
  154.5587  137.0473  158.3544 H   0  0  0  0  0  0  0  0  0  0  0  0
  156.2755  136.7939  158.6734 H   0  0  0  0  0  0  0  0  0  0  0  0
  155.3720  135.7931  163.0467 H   0  0  0  0  0  0  0  0  0  0  0  0
  153.7403  136.4661  162.9269 H   0  0  0  0  0  0  0  0  0  0  0  0
  155.0686  137.4637  163.5257 H   0  0  0  0  0  0  0  0  0  0  0  0
  156.4852  138.6552  161.5712 H   0  0  0  0  0  0  0  0  0  0  0  0
  154.8128  139.2004  161.6398 H   0  0  0  0  0  0  0  0  0  0  0  0
  1  2  1  0  0  0  0
  1 19  1  0  0  0  0
  1 20  1  0  0  0  0
  1 21  1  0  0  0  0
  2  3  1  0  0  0  0
  2  9  1  0  0  0  0
  2 22  1  0  0  0  0
  3  4  1  0  0  0  0
  3 23  1  0  0  0  0
  3 24  1  0  0  0  0
  4  8  1  0  0  0  0
  4  5  1  0  0  0  0
  5  6  2  0  0  0  0
  5 25  1  0  0  0  0
  6  7  1  0  0  0  0
  6 26  1  0  0  0  0
  7  8  2  0  0  0  0
  8 27  1  0  0  0  0
  9 10  1  0  0  0  0
  9 28  1  0  0  0  0
 10 11  2  0  0  0  0
 10 12  1  0  0  0  0
 12 18  1  0  0  0  0
 12 13  1  0  0  0  0
 12 29  1  0  0  0  0
 13 14  1  0  0  0  0
 13 30  1  0  0  0  0
 13 31  1  0  0  0  0
 14 15  2  0  0  0  0
 14 16  1  0  0  0  0
 16 17  1  0  0  0  0
 16 18  1  0  0  0  0
 17 32  1  0  0  0  0
 17 33  1  0  0  0  0
 17 34  1  0  0  0  0
 18 35  1  0  0  0  0
 18 36  1  0  0  0  0
M  END
> <s_m_source_file>
AV-unprocessed.smi

> <i_m_source_file_index>
3253

> <i_lp_mmshare_version>
43012

> <i_f3d_flags>
0

> <s_epik_input>
W2NIXTFuW2NIXVtjSF1uMVtDSDJdW0NAQEhdKFtDSDNdKVtOSF1DKD1PKVtDQEBIXTJbQ0gyXUMoPU8pTihbQ0gzXSlbQ0gyXTI=

> <s_epik_cmdline>
J2VwaWtfcHl0aG9uJywgJy1waCcsICc3LjAnLCAnLXRuJywgJzgnLCAnLW1hJywgJzIwMCcsICctbWV0YWxfYmluZGluZycsICctaW1hZScsICc8aW5maWxlLm1hZT4nLCAnLW9tYWUnLCAnPG91dGZpbGUubWFlPic=

> <r_lp_tautomer_probability>
1

> <r_epik_Ionization_Penalty>
0.628884

> <r_epik_Ionization_Penalty_Charging>
0.628884

> <r_epik_Ionization_Penalty_Neutral>
2.35084e-08

> <r_epik_State_Penalty>
0.64556

> <r_epik_Charging_Adjusted_Penalty>
1.27444

> <i_epik_Tot_Q>
0

> <i_epik_Tot_abs_Q>
0

> <r_epik_Metal_State_Penalty>
0.308736

> <b_epik_Metal_Only>
0

> <s_lp_Force_Field>
OPLS_2005

> <r_lp_Energy>
12.6473

> <b_lp_Chiralities_Consistent>
1

> <s_lp_Variant>
AV-unprocessed.smi:3253-6

> <Gold.Version>
5.8.1

> <Gold.Id.Protein>
6NUR|6NUR_protein|mol2

> <Gold.PLP.Fitness>
43.4111

> <Gold.PLP.PLP>
-35.6089

> <Gold.PLP.part.hbond>
-2.2692

> <Gold.PLP.part.metal>
0.0000

> <Gold.PLP.part.buried>
-4.6320

> <Gold.PLP.part.nonpolar>
-29.7266

> <Gold.PLP.part.repulsive>
0.2833

> <Gold.PLP.ligand.clash>
0.0000

> <Gold.PLP.ligand.torsion>
0.6086

> <Gold.PLP.Chemscore.Hbond>
2.0000

> <Gold.PLP.Chemscore.CHOScore>
0.9996

> <Gold.PLP.Chemscore.Metal>
0.0000

> <Gold.Chemscore.Hbonds>
donor molecule, donor type, donor heavy atom, donor atom, acceptor molecule, acceptor atom, score
      P1  H  6896  6909       L1    15  0.32
      P1  H  7997  8008       L1    11  0.75
      L1  C     6    26       P1  8029  0.80

> <Gold.PLP.Chemscore.Internal.Correction>
0.0207

> <Gold.Rescore>
     Score         DG    S(hbond)    S(metal)    S(lipo)     H(rot)  DE(clash)    DE(int)     intcor
     14.81     -16.01       1.93        0.00      77.90       1.97       0.19       1.00       ----

> <Gold.Chemscore.Fitness>
14.8145

> <Gold.Chemscore.DG>
-16.0078

> <Gold.Chemscore.ZeroCoef>
-5.4800

> <Gold.Chemscore.Hbond>
1.9309

> <Gold.Chemscore.Metal>
0.0000

> <Gold.Chemscore.Lipo>
77.8964

> <Gold.Chemscore.Internal_Hbond>
0.0000

> <Gold.Chemscore.DEClash>
0.1937

> <Gold.Chemscore.DEInternal>
0.9996

> <Gold.Chemscore.Rot>
1.9669

> <Gold.Chemscore.Internal.Correction>
   9.000000E+99

> <Gold.Chemscore.Hbonds>
donor molecule, donor type, donor heavy atom, donor atom, acceptor molecule, acceptor atom, score
      P1  H  6896  6909       L1    15  0.32
      P1  H  7997  8008       L1    11  0.09

> <Gold.Chemscore.Hbond.Weighted>
-6.4491

> <Gold.Chemscore.Metal.Weighted>
-0.0000

> <Gold.Chemscore.Lipo.Weighted>
-9.1139

> <Gold.Chemscore.Internal_Hbond.Weighted>
0.0000

> <Gold.Chemscore.DEClash.Weighted>
0.1937

> <Gold.Chemscore.DEInternal.Weighted>
0.9996

> <Gold.Chemscore.Rot.Weighted>
5.0352

> <Gold.Chemscore.Internal.Correction.Weighted>
   9.000000E+99

> <Gold.Protein.RotatedTorsions>
[ 6907 6896 6895 6894 ] final -172.35 input  -60.11 | X-H torsion
[ 7974 7965 7964 7962 ] final   54.02 input  175.53 | X-H torsion
[ 8008 7997 7996 7995 ] final  -85.35 input   59.86 | X-H torsion
[ 10167 10162 10161 10158 ] final   56.99 input  -65.29 | X-H torsion
[ 10718 10713 10712 10709 ] final  140.21 input   66.30 | X-H torsion
[ 10763 10752 10751 10750 ] final  178.78 input  -60.55 | X-H torsion
[ 11005 11000 10999 10996 ] final    1.12 input  -57.11 | X-H torsion

> <Gold.Protein.ActiveResidues>
 VAL166  LYS551  ARG553  GLY616  TRP617  ASP618  TYR619  PRO620  LYS621  CYS622 
 ASP623  PHE694  ASN695  SER759  ASP760  ASP761  ALA762  ILE779  LEU786  VAL792 
 PHE793  MET794  SER795  GLU796  ALA797  LYS798  CYS799  TRP800  GLU811  SER814 

> <Gold.Protein.RotatedAtoms>
  151.5387  133.3436  159.2931 H   0  0  0  0  0  0  0  0  0  0  0  0  # atno 6907 bound_to 6896
  150.8549  134.7887  159.7049 H   0  0  0  0  0  0  0  0  0  0  0  0  # atno 6908 bound_to 6896
  152.4585  134.5245  159.9844 H   0  0  0  0  0  0  0  0  0  0  0  0  # atno 6909 bound_to 6896
  145.9651  139.4096  143.0224 H   0  0  0  0  0  0  0  0  0  0  0  0  # atno 7974 bound_to 7965
  154.6398  140.0592  156.9832 H   0  0  0  0  0  0  0  0  0  0  0  0  # atno 8008 bound_to 7997
  155.1534  140.3276  155.4408 H   0  0  0  0  0  0  0  0  0  0  0  0  # atno 8009 bound_to 7997
  156.2525  140.1943  156.6645 H   0  0  0  0  0  0  0  0  0  0  0  0  # atno 8010 bound_to 7997
  140.2028  144.3970  150.6521 H   0  0  0  0  0  0  0  0  0  0  0  0  # atno 10167 bound_to 10162
  157.4058  131.1022  151.0505 H   0  0  0  0  0  0  0  0  0  0  0  0  # atno 10718 bound_to 10713
  154.5121  135.2789  155.1334 H   0  0  0  0  0  0  0  0  0  0  0  0  # atno 10763 bound_to 10752
  154.2925  135.6264  153.5395 H   0  0  0  0  0  0  0  0  0  0  0  0  # atno 10764 bound_to 10752
  152.9920  135.5677  154.5589 H   0  0  0  0  0  0  0  0  0  0  0  0  # atno 10765 bound_to 10752
  140.6189  133.9679  155.8215 H   0  0  0  0  0  0  0  0  0  0  0  0  # atno 11005 bound_to 11000
  145.7985  140.9782  143.1011 LP  0  0  0  0  0  0  0  0  0  0  0  0  # atno 17320 bound_to 7965
  144.6824  139.9771  143.7483 LP  0  0  0  0  0  0  0  0  0  0  0  0  # atno 17321 bound_to 7965
  140.6378  143.2198  151.6356 LP  0  0  0  0  0  0  0  0  0  0  0  0  # atno 17342 bound_to 10162
  139.5210  144.3205  152.0914 LP  0  0  0  0  0  0  0  0  0  0  0  0  # atno 17343 bound_to 10162
  157.1487  130.6174  149.5576 LP  0  0  0  0  0  0  0  0  0  0  0  0  # atno 17370 bound_to 10713
  155.9836  130.4856  150.6942 LP  0  0  0  0  0  0  0  0  0  0  0  0  # atno 17371 bound_to 10713
  141.0756  134.0140  157.3463 LP  0  0  0  0  0  0  0  0  0  0  0  0  # atno 17394 bound_to 11000
  139.9161  135.0197  156.7887 LP  0  0  0  0  0  0  0  0  0  0  0  0  # atno 17395 bound_to 11000

$$$$
