AV-unprocessed.smi:658|AV-procd|sdf|3231|dock10
  -GOLD-   22720 0173D 1   1.00000     0.00000
 Structure written by MMmdl.
 38 38  0  0  0  0  0  0  0  0  2 V2000
  147.1913  133.3896  152.9226 C   0  0  0  0  0  0  0  0  0  0  0  0
  146.2282  134.5893  152.8602 C   0  0  1  0  0  0  0  0  0  0  0  0
  146.8795  135.7540  153.5019 N   0  3  0  0  0  0  0  0  0  0  0  0
  147.3874  135.5094  154.8676 C   0  0  0  0  0  0  0  0  0  0  0  0
  147.8682  136.8125  155.5166 C   0  0  0  0  0  0  0  0  0  0  0  0
  149.1568  136.6243  156.3274 C   0  0  0  0  0  0  0  0  0  0  0  0
  150.5195  136.0140  155.2503 S   0  0  0  0  0  0  0  0  0  0  0  0
  150.6115  137.2254  154.0330 N   0  0  0  0  0  0  0  0  0  0  0  0
  151.7734  136.0527  156.0176 O   0  0  0  0  0  0  0  0  0  0  0  0
  150.0814  134.7658  154.6082 O   0  0  0  0  0  0  0  0  0  0  0  0
  145.7858  134.9393  151.4140 C   0  0  2  0  0  0  0  0  0  0  0  0
  144.5960  135.9156  151.3625 C   0  0  0  0  0  0  0  0  0  0  0  0
  145.4742  133.7431  150.6412 N   0  0  0  0  0  0  0  0  0  0  0  0
  144.2500  133.3157  150.1660 C   0  0  0  0  0  0  0  0  0  0  0  0
  144.4553  132.1357  149.5108 C   0  0  0  0  0  0  0  0  0  0  0  0
  145.8544  131.9150  149.6430 C   0  0  0  0  0  0  0  0  0  0  0  0
  146.4599  132.8763  150.3214 N   0  0  0  0  0  0  0  0  0  0  0  0
  146.7234  132.4729  152.5627 H   0  0  0  0  0  0  0  0  0  0  0  0
  147.5140  133.2001  153.9469 H   0  0  0  0  0  0  0  0  0  0  0  0
  148.0834  133.5661  152.3207 H   0  0  0  0  0  0  0  0  0  0  0  0
  145.3430  134.3139  153.4364 H   0  0  0  0  0  0  0  0  0  0  0  0
  147.6625  136.0308  152.9271 H   0  0  0  0  0  0  0  0  0  0  0  0
  146.6022  135.0601  155.4765 H   0  0  0  0  0  0  0  0  0  0  0  0
  148.2074  134.7919  154.8193 H   0  0  0  0  0  0  0  0  0  0  0  0
  148.0338  137.5655  154.7449 H   0  0  0  0  0  0  0  0  0  0  0  0
  147.0865  137.2044  156.1685 H   0  0  0  0  0  0  0  0  0  0  0  0
  149.4753  137.5651  156.7770 H   0  0  0  0  0  0  0  0  0  0  0  0
  149.0088  135.9022  157.1308 H   0  0  0  0  0  0  0  0  0  0  0  0
  149.9001  137.1216  153.3098 H   0  0  0  0  0  0  0  0  0  0  0  0
  151.5575  137.3681  153.6802 H   0  0  0  0  0  0  0  0  0  0  0  0
  146.6261  135.4318  150.9204 H   0  0  0  0  0  0  0  0  0  0  0  0
  144.8519  136.8815  151.7977 H   0  0  0  0  0  0  0  0  0  0  0  0
  143.7327  135.5250  151.9021 H   0  0  0  0  0  0  0  0  0  0  0  0
  144.2875  136.1013  150.3330 H   0  0  0  0  0  0  0  0  0  0  0  0
  143.3441  133.8802  150.3309 H   0  0  0  0  0  0  0  0  0  0  0  0
  143.7182  131.5228  149.0135 H   0  0  0  0  0  0  0  0  0  0  0  0
  146.4434  131.0903  149.2697 H   0  0  0  0  0  0  0  0  0  0  0  0
  146.2181  136.5170  153.5274 H   0  0  0  0  0  0  0  0  0  0  0  0
  1  2  1  0  0  0  0
  1 18  1  0  0  0  0
  1 19  1  0  0  0  0
  1 20  1  0  0  0  0
  2  3  1  0  0  0  0
  2 11  1  0  0  0  0
  2 21  1  0  0  0  0
  3  4  1  0  0  0  0
  3 22  1  0  0  0  0
  3 38  1  0  0  0  0
  4  5  1  0  0  0  0
  4 23  1  0  0  0  0
  4 24  1  0  0  0  0
  5  6  1  0  0  0  0
  5 25  1  0  0  0  0
  5 26  1  0  0  0  0
  6  7  1  0  0  0  0
  6 27  1  0  0  0  0
  6 28  1  0  0  0  0
  7  8  1  0  0  0  0
  7  9  2  0  0  0  0
  7 10  2  0  0  0  0
  8 29  1  0  0  0  0
  8 30  1  0  0  0  0
 11 12  1  0  0  0  0
 11 13  1  0  0  0  0
 11 31  1  0  0  0  0
 12 32  1  0  0  0  0
 12 33  1  0  0  0  0
 12 34  1  0  0  0  0
 13 17  1  0  0  0  0
 13 14  1  0  0  0  0
 14 15  2  0  0  0  0
 14 35  1  0  0  0  0
 15 16  1  0  0  0  0
 15 36  1  0  0  0  0
 16 17  2  0  0  0  0
 16 37  1  0  0  0  0
M  CHG  1   3   1
M  END
> <s_m_source_file>
AV-unprocessed.smi

> <i_m_source_file_index>
658

> <i_lp_mmshare_version>
43012

> <i_f3d_flags>
0

> <s_epik_input>
bjFbY0hdW2NIXVtjSF1uMVtDQEBIXShbQ0gzXSlbQ0BIXShbQ0gzXSlbTkhdW0NIMl1bQ0gyXVtDSDJdUyg9TykoPU8pW05IMl0=

> <s_epik_cmdline>
J2VwaWtfcHl0aG9uJywgJy1waCcsICc3LjAnLCAnLXRuJywgJzgnLCAnLW1hJywgJzIwMCcsICctbWV0YWxfYmluZGluZycsICctaW1hZScsICc8aW5maWxlLm1hZT4nLCAnLW9tYWUnLCAnPG91dGZpbGUubWFlPic=

> <r_lp_tautomer_probability>
1

> <r_epik_Ionization_Penalty>
0.00535781

> <r_epik_Ionization_Penalty_Charging>
0.00511015

> <r_epik_Ionization_Penalty_Neutral>
0.000247661

> <r_epik_State_Penalty>
-0

> <r_epik_Charging_Adjusted_Penalty>
0.00511015

> <i_epik_Tot_Q>
1

> <i_epik_Tot_abs_Q>
1

> <r_epik_Metal_State_Penalty>
0.149106

> <b_epik_Metal_Only>
0

> <s_lp_Force_Field>
OPLS_2005

> <r_lp_Energy>
8.89673

> <b_lp_Chiralities_Consistent>
1

> <s_lp_Variant>
AV-unprocessed.smi:658-2

> <Gold.Version>
5.8.1

> <Gold.Id.Protein>
6NUR|6NUR_protein|mol2

> <Gold.PLP.Fitness>
41.9212

> <Gold.PLP.PLP>
-26.8893

> <Gold.PLP.part.hbond>
-4.0000

> <Gold.PLP.part.metal>
0.0000

> <Gold.PLP.part.buried>
-4.1519

> <Gold.PLP.part.nonpolar>
-19.7735

> <Gold.PLP.part.repulsive>
0.4046

> <Gold.PLP.ligand.clash>
0.0000

> <Gold.PLP.ligand.torsion>
0.7801

> <Gold.PLP.Chemscore.Hbond>
4.0000

> <Gold.PLP.Chemscore.CHOScore>
1.4437

> <Gold.PLP.Chemscore.Metal>
0.0000

> <Gold.Chemscore.Hbonds>
donor molecule, donor type, donor heavy atom, donor atom, acceptor molecule, acceptor atom, score
      L1  H     3    22       P1  7948  2.00
      L1  H     8    29       P1  7948  1.00
      P1  H 10752 10764       L1     9  1.00
      L1  C    14    35       P1 10186  1.00
      L1  C    16    37       P1 10747  0.42

> <Gold.PLP.Chemscore.Internal.Correction>
0.2610

> <Gold.Rescore>
     Score         DG    S(hbond)    S(metal)    S(lipo)     H(rot)  DE(clash)    DE(int)     intcor
      9.83     -13.42       2.82        0.00      56.03       3.13       0.12       3.47       ----

> <Gold.Chemscore.Fitness>
9.8342

> <Gold.Chemscore.DG>
-13.4241

> <Gold.Chemscore.ZeroCoef>
-5.4800

> <Gold.Chemscore.Hbond>
2.8157

> <Gold.Chemscore.Metal>
0.0000

> <Gold.Chemscore.Lipo>
56.0323

> <Gold.Chemscore.Internal_Hbond>
0.0000

> <Gold.Chemscore.DEClash>
0.1244

> <Gold.Chemscore.DEInternal>
3.4655

> <Gold.Chemscore.Rot>
3.1312

> <Gold.Chemscore.Internal.Correction>
   9.000000E+99

> <Gold.Chemscore.Hbonds>
donor molecule, donor type, donor heavy atom, donor atom, acceptor molecule, acceptor atom, score
      L1  H     3    22       P1  7948  1.00
      L1  H     8    29       P1  7948  0.34
      P1  H 10752 10764       L1     9  0.88

> <Gold.Chemscore.Hbond.Weighted>
-9.4043

> <Gold.Chemscore.Metal.Weighted>
-0.0000

> <Gold.Chemscore.Lipo.Weighted>
-6.5558

> <Gold.Chemscore.Internal_Hbond.Weighted>
0.0000

> <Gold.Chemscore.DEClash.Weighted>
0.1244

> <Gold.Chemscore.DEInternal.Weighted>
3.4655

> <Gold.Chemscore.Rot.Weighted>
8.0160

> <Gold.Chemscore.Internal.Correction.Weighted>
   9.000000E+99

> <Gold.Protein.RotatedTorsions>
[ 6907 6896 6895 6894 ] final  -97.75 input  -60.11 | X-H torsion
[ 7974 7965 7964 7962 ] final   78.91 input  175.53 | X-H torsion
[ 8008 7997 7996 7995 ] final -169.57 input   59.86 | X-H torsion
[ 10167 10162 10161 10158 ] final   46.81 input  -65.29 | X-H torsion
[ 10718 10713 10712 10709 ] final  -32.65 input   66.30 | X-H torsion
[ 10763 10752 10751 10750 ] final  -24.61 input  -60.55 | X-H torsion
[ 11005 11000 10999 10996 ] final   38.70 input  -57.11 | X-H torsion

> <Gold.Protein.ActiveResidues>
 VAL166  LYS551  ARG553  GLY616  TRP617  ASP618  TYR619  PRO620  LYS621  CYS622 
 ASP623  PHE694  ASN695  SER759  ASP760  ASP761  ALA762  ILE779  LEU786  VAL792 
 PHE793  MET794  SER795  GLU796  ALA797  LYS798  CYS799  TRP800  GLU811  SER814 

> <Gold.Protein.RotatedAtoms>
  150.7025  134.1300  159.4066 H   0  0  0  0  0  0  0  0  0  0  0  0  # atno 6907 bound_to 6896
  151.9286  135.0264  160.0537 H   0  0  0  0  0  0  0  0  0  0  0  0  # atno 6908 bound_to 6896
  152.2195  133.4937  159.5191 H   0  0  0  0  0  0  0  0  0  0  0  0  # atno 6909 bound_to 6896
  145.6710  139.2497  143.1868 H   0  0  0  0  0  0  0  0  0  0  0  0  # atno 7974 bound_to 7965
  155.9068  140.1050  157.1309 H   0  0  0  0  0  0  0  0  0  0  0  0  # atno 8008 bound_to 7997
  154.4034  140.1282  156.4570 H   0  0  0  0  0  0  0  0  0  0  0  0  # atno 8009 bound_to 7997
  155.7358  140.3467  155.5083 H   0  0  0  0  0  0  0  0  0  0  0  0  # atno 8010 bound_to 7997
  140.3101  144.2831  150.6201 H   0  0  0  0  0  0  0  0  0  0  0  0  # atno 10167 bound_to 10162
  156.3723  130.4341  149.7535 H   0  0  0  0  0  0  0  0  0  0  0  0  # atno 10718 bound_to 10713
  153.6866  135.6964  153.5102 H   0  0  0  0  0  0  0  0  0  0  0  0  # atno 10763 bound_to 10752
  153.2445  135.4295  155.0732 H   0  0  0  0  0  0  0  0  0  0  0  0  # atno 10764 bound_to 10752
  154.8385  135.3516  154.6408 H   0  0  0  0  0  0  0  0  0  0  0  0  # atno 10765 bound_to 10752
  140.2100  134.3766  155.8053 H   0  0  0  0  0  0  0  0  0  0  0  0  # atno 11005 bound_to 11000
  146.1045  140.7503  142.9533 LP  0  0  0  0  0  0  0  0  0  0  0  0  # atno 17320 bound_to 7965
  144.7057  140.3841  143.7120 LP  0  0  0  0  0  0  0  0  0  0  0  0  # atno 17321 bound_to 7965
  140.5576  143.2197  151.7821 LP  0  0  0  0  0  0  0  0  0  0  0  0  # atno 17342 bound_to 10162
  139.4896  144.4393  151.9783 LP  0  0  0  0  0  0  0  0  0  0  0  0  # atno 17343 bound_to 10162
  156.4658  130.7973  151.2992 LP  0  0  0  0  0  0  0  0  0  0  0  0  # atno 17370 bound_to 10713
  157.7485  131.0051  150.3102 LP  0  0  0  0  0  0  0  0  0  0  0  0  # atno 17371 bound_to 10713
  141.2226  133.7138  156.8402 LP  0  0  0  0  0  0  0  0  0  0  0  0  # atno 17394 bound_to 11000
  140.1961  134.8931  157.3116 LP  0  0  0  0  0  0  0  0  0  0  0  0  # atno 17395 bound_to 11000

$$$$
