AV-unprocessed.smi:657|AV-procd|sdf|3220|dock8
  -GOLD-   22720 0163D 1   1.00000     0.00000
 Structure written by MMmdl.
 47 48  0  0  0  0  0  0  0  0  2 V2000
  146.2862  136.2229  155.7785 C   0  0  0  0  0  0  0  0  0  0  0  0
  147.0410  136.4359  154.4509 C   0  0  0  0  0  0  0  0  0  0  0  0
  146.0962  136.9102  153.3329 C   0  0  0  0  0  0  0  0  0  0  0  0
  147.8523  135.2469  154.0193 N   0  3  2  0  0  0  0  0  0  0  0  0
  147.0097  134.0845  153.6066 C   0  0  0  0  0  0  0  0  0  0  0  0
  147.8438  132.9562  152.9878 C   0  0  0  0  0  0  0  0  0  0  0  0
  148.8995  132.4763  153.9831 C   0  0  0  0  0  0  0  0  0  0  0  0
  149.7749  133.6609  154.3942 C   0  0  0  0  0  0  0  0  0  0  0  0
  148.9484  134.8412  154.9642 C   0  0  1  0  0  0  0  0  0  0  0  0
  149.9445  135.9719  155.2724 C   0  0  0  0  0  0  0  0  0  0  0  0
  150.5215  136.0138  156.3596 O   0  0  0  0  0  0  0  0  0  0  0  0
  150.1013  136.9010  154.3181 N   0  0  0  0  0  0  0  0  0  0  0  0
  150.9097  138.1101  154.4445 C   0  0  0  0  0  0  0  0  0  0  0  0
  150.0527  139.3790  154.6313 C   0  0  0  0  0  0  0  0  0  0  0  0
  150.5092  140.2260  155.7914 C   0  0  0  0  0  0  0  0  0  0  0  0
  150.0767  141.5355  156.1472 C   0  0  0  0  0  0  0  0  0  0  0  0
  150.6515  141.9845  157.2509 N   0  0  0  0  0  0  0  0  0  0  0  0
  151.4737  140.9856  157.6321 N   0  0  0  0  0  0  0  0  0  0  0  0
  152.2727  141.1363  158.8294 C   0  0  0  0  0  0  0  0  0  0  0  0
  151.4146  139.9153  156.7665 C   0  0  0  0  0  0  0  0  0  0  0  0
  145.8037  137.1478  156.0958 H   0  0  0  0  0  0  0  0  0  0  0  0
  146.9569  135.9203  156.5824 H   0  0  0  0  0  0  0  0  0  0  0  0
  145.5020  135.4709  155.6900 H   0  0  0  0  0  0  0  0  0  0  0  0
  147.7074  137.2812  154.6113 H   0  0  0  0  0  0  0  0  0  0  0  0
  145.6420  137.8666  153.5939 H   0  0  0  0  0  0  0  0  0  0  0  0
  145.2811  136.2104  153.1514 H   0  0  0  0  0  0  0  0  0  0  0  0
  146.6352  137.0518  152.3956 H   0  0  0  0  0  0  0  0  0  0  0  0
  146.4714  133.6898  154.4691 H   0  0  0  0  0  0  0  0  0  0  0  0
  146.2593  134.3926  152.8804 H   0  0  0  0  0  0  0  0  0  0  0  0
  147.1962  132.1256  152.7055 H   0  0  0  0  0  0  0  0  0  0  0  0
  148.3220  133.3047  152.0715 H   0  0  0  0  0  0  0  0  0  0  0  0
  148.4202  132.0414  154.8611 H   0  0  0  0  0  0  0  0  0  0  0  0
  149.5116  131.6921  153.5366 H   0  0  0  0  0  0  0  0  0  0  0  0
  150.5075  133.3240  155.1294 H   0  0  0  0  0  0  0  0  0  0  0  0
  150.3473  133.9902  153.5246 H   0  0  0  0  0  0  0  0  0  0  0  0
  148.4855  134.5175  155.8977 H   0  0  0  0  0  0  0  0  0  0  0  0
  149.5819  136.7926  153.4588 H   0  0  0  0  0  0  0  0  0  0  0  0
  151.6317  138.0089  155.2561 H   0  0  0  0  0  0  0  0  0  0  0  0
  151.4902  138.2014  153.5261 H   0  0  0  0  0  0  0  0  0  0  0  0
  150.0824  139.9605  153.7091 H   0  0  0  0  0  0  0  0  0  0  0  0
  149.0092  139.0880  154.7539 H   0  0  0  0  0  0  0  0  0  0  0  0
  149.3549  142.1633  155.6458 H   0  0  0  0  0  0  0  0  0  0  0  0
  152.7862  140.2017  159.0559 H   0  0  0  0  0  0  0  0  0  0  0  0
  151.6327  141.4012  159.6715 H   0  0  0  0  0  0  0  0  0  0  0  0
  153.0137  141.9221  158.6805 H   0  0  0  0  0  0  0  0  0  0  0  0
  152.0046  139.0239  156.9207 H   0  0  0  0  0  0  0  0  0  0  0  0
  148.3347  135.5484  153.1846 H   0  0  0  0  0  0  0  0  0  0  0  0
  1  2  1  0  0  0  0
  1 21  1  0  0  0  0
  1 22  1  0  0  0  0
  1 23  1  0  0  0  0
  2  3  1  0  0  0  0
  2  4  1  0  0  0  0
  2 24  1  0  0  0  0
  3 25  1  0  0  0  0
  3 26  1  0  0  0  0
  3 27  1  0  0  0  0
  4  9  1  0  0  0  0
  4  5  1  0  0  0  0
  4 47  1  0  0  0  0
  5  6  1  0  0  0  0
  5 28  1  0  0  0  0
  5 29  1  0  0  0  0
  6  7  1  0  0  0  0
  6 30  1  0  0  0  0
  6 31  1  0  0  0  0
  7  8  1  0  0  0  0
  7 32  1  0  0  0  0
  7 33  1  0  0  0  0
  8  9  1  0  0  0  0
  8 34  1  0  0  0  0
  8 35  1  0  0  0  0
  9 10  1  0  0  0  0
  9 36  1  0  0  0  0
 10 11  2  0  0  0  0
 10 12  1  0  0  0  0
 12 13  1  0  0  0  0
 12 37  1  0  0  0  0
 13 14  1  0  0  0  0
 13 38  1  0  0  0  0
 13 39  1  0  0  0  0
 14 15  1  0  0  0  0
 14 40  1  0  0  0  0
 14 41  1  0  0  0  0
 15 20  2  0  0  0  0
 15 16  1  0  0  0  0
 16 17  2  0  0  0  0
 16 42  1  0  0  0  0
 17 18  1  0  0  0  0
 18 19  1  0  0  0  0
 18 20  1  0  0  0  0
 19 43  1  0  0  0  0
 19 44  1  0  0  0  0
 19 45  1  0  0  0  0
 20 46  1  0  0  0  0
M  CHG  1   4   1
M  END
> <s_m_source_file>
AV-unprocessed.smi

> <i_m_source_file_index>
657

> <i_lp_mmshare_version>
43012

> <i_f3d_flags>
0

> <s_epik_input>
W0NIM11bQ0hdKFtDSDNdKU4xW0NIMl1bQ0gyXVtDSDJdW0NIMl1bQ0BIXTFDKD1PKVtOSF1bQ0gyXVtDSDJdYzJbY0hdbm4oW0NIM10pW2NIXTI=

> <s_epik_cmdline>
J2VwaWtfcHl0aG9uJywgJy1waCcsICc3LjAnLCAnLXRuJywgJzgnLCAnLW1hJywgJzIwMCcsICctbWV0YWxfYmluZGluZycsICctaW1hZScsICc8aW5maWxlLm1hZT4nLCAnLW9tYWUnLCAnPG91dGZpbGUubWFlPic=

> <r_lp_tautomer_probability>
1

> <r_epik_Ionization_Penalty>
0.0244317

> <r_epik_Ionization_Penalty_Charging>
0.0240236

> <r_epik_Ionization_Penalty_Neutral>
0.00040815

> <r_epik_State_Penalty>
0.0194773

> <r_epik_Charging_Adjusted_Penalty>
0.0435009

> <i_epik_Tot_Q>
1

> <i_epik_Tot_abs_Q>
1

> <r_epik_Metal_State_Penalty>
0.0361957

> <b_epik_Metal_Only>
0

> <s_lp_Force_Field>
OPLS_2005

> <r_lp_Energy>
17.8505

> <b_lp_Chiralities_Consistent>
1

> <s_lp_Variant>
AV-unprocessed.smi:657-1

> <Gold.Version>
5.8.1

> <Gold.Id.Protein>
6NUR|6NUR_protein|mol2

> <Gold.PLP.Fitness>
42.2870

> <Gold.PLP.PLP>
-32.7497

> <Gold.PLP.part.hbond>
-2.7359

> <Gold.PLP.part.metal>
0.0000

> <Gold.PLP.part.buried>
-2.8058

> <Gold.PLP.part.nonpolar>
-27.1770

> <Gold.PLP.part.repulsive>
0.1564

> <Gold.PLP.ligand.clash>
0.0000

> <Gold.PLP.ligand.torsion>
1.3033

> <Gold.PLP.Chemscore.Hbond>
3.0000

> <Gold.PLP.Chemscore.CHOScore>
1.0000

> <Gold.PLP.Chemscore.Metal>
0.0000

> <Gold.Chemscore.Hbonds>
donor molecule, donor type, donor heavy atom, donor atom, acceptor molecule, acceptor atom, score
      L1  H     4    47       P1  7948  2.00
      L1  H    12    37       P1  7948  1.00
      L1  C    16    42       P1  8028  0.83

> <Gold.PLP.Chemscore.Internal.Correction>
0.1439

> <Gold.Rescore>
     Score         DG    S(hbond)    S(metal)    S(lipo)     H(rot)  DE(clash)    DE(int)     intcor
     14.89     -16.14       1.93        0.00      71.52       1.63       0.00       1.25       ----

> <Gold.Chemscore.Fitness>
14.8855

> <Gold.Chemscore.DG>
-16.1369

> <Gold.Chemscore.ZeroCoef>
-5.4800

> <Gold.Chemscore.Hbond>
1.9332

> <Gold.Chemscore.Metal>
0.0000

> <Gold.Chemscore.Lipo>
71.5157

> <Gold.Chemscore.Internal_Hbond>
0.0000

> <Gold.Chemscore.DEClash>
0.0021

> <Gold.Chemscore.DEInternal>
1.2493

> <Gold.Chemscore.Rot>
1.6279

> <Gold.Chemscore.Internal.Correction>
   9.000000E+99

> <Gold.Chemscore.Hbonds>
donor molecule, donor type, donor heavy atom, donor atom, acceptor molecule, acceptor atom, score
      L1  H     4    47       P1  7948  0.98
      L1  H    12    37       P1  7948  0.70

> <Gold.Chemscore.Hbond.Weighted>
-6.4569

> <Gold.Chemscore.Metal.Weighted>
-0.0000

> <Gold.Chemscore.Lipo.Weighted>
-8.3673

> <Gold.Chemscore.Internal_Hbond.Weighted>
0.0000

> <Gold.Chemscore.DEClash.Weighted>
0.0021

> <Gold.Chemscore.DEInternal.Weighted>
1.2493

> <Gold.Chemscore.Rot.Weighted>
4.1673

> <Gold.Chemscore.Internal.Correction.Weighted>
   9.000000E+99

> <Gold.Protein.RotatedTorsions>
[ 6907 6896 6895 6894 ] final    8.19 input  -60.11 | X-H torsion
[ 7974 7965 7964 7962 ] final  -48.26 input  175.53 | X-H torsion
[ 8008 7997 7996 7995 ] final   64.67 input   59.86 | X-H torsion
[ 10167 10162 10161 10158 ] final -177.96 input  -65.29 | X-H torsion
[ 10718 10713 10712 10709 ] final  144.91 input   66.30 | X-H torsion
[ 10763 10752 10751 10750 ] final   28.89 input  -60.55 | X-H torsion
[ 11005 11000 10999 10996 ] final  168.37 input  -57.11 | X-H torsion

> <Gold.Protein.ActiveResidues>
 VAL166  LYS551  ARG553  GLY616  TRP617  ASP618  TYR619  PRO620  LYS621  CYS622 
 ASP623  PHE694  ASN695  SER759  ASP760  ASP761  ALA762  ILE779  LEU786  VAL792 
 PHE793  MET794  SER795  GLU796  ALA797  LYS798  CYS799  TRP800  GLU811  SER814 

> <Gold.Protein.RotatedAtoms>
  151.7021  135.0928  160.0252 H   0  0  0  0  0  0  0  0  0  0  0  0  # atno 6907 bound_to 6896
  152.3714  133.6420  159.6098 H   0  0  0  0  0  0  0  0  0  0  0  0  # atno 6908 bound_to 6896
  150.7676  133.9180  159.3431 H   0  0  0  0  0  0  0  0  0  0  0  0  # atno 6909 bound_to 6896
  145.9530  140.7553  142.9495 H   0  0  0  0  0  0  0  0  0  0  0  0  # atno 7974 bound_to 7965
  155.6496  140.3497  155.4743 H   0  0  0  0  0  0  0  0  0  0  0  0  # atno 8008 bound_to 7997
  155.9858  140.1184  157.0707 H   0  0  0  0  0  0  0  0  0  0  0  0  # atno 8009 bound_to 7997
  154.4204  140.1129  156.5484 H   0  0  0  0  0  0  0  0  0  0  0  0  # atno 8010 bound_to 7997
  139.5455  144.2247  152.0979 H   0  0  0  0  0  0  0  0  0  0  0  0  # atno 10167 bound_to 10162
  157.3516  131.0951  151.0995 H   0  0  0  0  0  0  0  0  0  0  0  0  # atno 10718 bound_to 10713
  153.0464  135.6502  154.0806 H   0  0  0  0  0  0  0  0  0  0  0  0  # atno 10763 bound_to 10752
  154.0503  135.2896  155.3343 H   0  0  0  0  0  0  0  0  0  0  0  0  # atno 10764 bound_to 10752
  154.6724  135.5351  153.8221 H   0  0  0  0  0  0  0  0  0  0  0  0  # atno 10765 bound_to 10752
  140.2866  134.7707  157.3803 H   0  0  0  0  0  0  0  0  0  0  0  0  # atno 11005 bound_to 11000
  144.6799  140.2466  143.7337 LP  0  0  0  0  0  0  0  0  0  0  0  0  # atno 17320 bound_to 7965
  145.8144  139.2017  143.1974 LP  0  0  0  0  0  0  0  0  0  0  0  0  # atno 17321 bound_to 7965
  140.1733  144.4914  150.6567 LP  0  0  0  0  0  0  0  0  0  0  0  0  # atno 17342 bound_to 10162
  140.6701  143.2282  151.5645 LP  0  0  0  0  0  0  0  0  0  0  0  0  # atno 17343 bound_to 10162
  157.2168  130.6463  149.5795 LP  0  0  0  0  0  0  0  0  0  0  0  0  # atno 17370 bound_to 10713
  155.9722  130.4642  150.6209 LP  0  0  0  0  0  0  0  0  0  0  0  0  # atno 17371 bound_to 10713
  140.1234  134.5189  155.8164 LP  0  0  0  0  0  0  0  0  0  0  0  0  # atno 17394 bound_to 11000
  141.2154  133.6764  156.6908 LP  0  0  0  0  0  0  0  0  0  0  0  0  # atno 17395 bound_to 11000

$$$$
