AV-unprocessed.smi:1464|AV-procd|sdf|5947|dock1
  -GOLD-   22720 6 33D 1   1.00000     0.00000
 Structure written by MMmdl.
 41 42  0  0  0  0  0  0  0  0  1 V2000
  152.5262  145.0821  158.6251 C   0  0  0  0  0  0  0  0  0  0  0  0
  151.4161  144.2651  159.3178 C   0  0  2  0  0  0  0  0  0  0  0  0
  151.5693  144.2847  160.8522 C   0  0  0  0  0  0  0  0  0  0  0  0
  152.7464  143.4198  161.3288 C   0  0  0  0  0  0  0  0  0  0  0  0
  152.6156  141.9781  160.8192 C   0  0  0  0  0  0  0  0  0  0  0  0
  152.4650  141.9183  159.2868 C   0  0  1  0  0  0  0  0  0  0  0  0
  152.2621  140.5240  158.8953 N   0  0  0  0  0  0  0  0  0  0  0  0
  153.2159  139.5855  158.7901 C   0  0  0  0  0  0  0  0  0  0  0  0
  154.4105  139.8046  158.9970 O   0  0  0  0  0  0  0  0  0  0  0  0
  152.7361  138.1928  158.3568 C   0  0  0  0  0  0  0  0  0  0  0  0
  152.1146  138.1767  157.0248 N   0  0  0  0  0  0  0  0  0  0  0  0
  151.7208  139.4253  156.5679 N   0  0  0  0  0  0  0  0  0  0  0  0
  151.1703  139.5424  155.4070 C   0  0  0  0  0  0  0  0  0  0  0  0
  150.7986  140.7975  154.9926 O   0  0  0  0  0  0  0  0  0  0  0  0
  150.9487  138.3889  154.5635 C   0  0  0  0  0  0  0  0  0  0  0  0
  151.3325  137.1761  155.0187 C   0  0  0  0  0  0  0  0  0  0  0  0
  151.9604  137.0074  156.3304 C   0  0  0  0  0  0  0  0  0  0  0  0
  152.3181  135.9153  156.7713 O   0  0  0  0  0  0  0  0  0  0  0  0
  151.2869  142.8059  158.8037 C   0  0  2  0  0  0  0  0  0  0  0  0
  151.0627  142.7408  157.2797 C   0  0  0  0  0  0  0  0  0  0  0  0
  149.8569  140.8170  155.0660 H   0  0  0  0  0  0  0  0  0  0  0  0
  153.5084  144.6251  158.7411 H   0  0  0  0  0  0  0  0  0  0  0  0
  152.5834  146.0886  159.0396 H   0  0  0  0  0  0  0  0  0  0  0  0
  152.3370  145.1907  157.5575 H   0  0  0  0  0  0  0  0  0  0  0  0
  150.4782  144.7739  159.0904 H   0  0  0  0  0  0  0  0  0  0  0  0
  151.6909  145.3085  161.2077 H   0  0  0  0  0  0  0  0  0  0  0  0
  150.6502  143.9153  161.3088 H   0  0  0  0  0  0  0  0  0  0  0  0
  153.6889  143.8477  160.9864 H   0  0  0  0  0  0  0  0  0  0  0  0
  152.7885  143.4230  162.4182 H   0  0  0  0  0  0  0  0  0  0  0  0
  153.4868  141.4005  161.1310 H   0  0  0  0  0  0  0  0  0  0  0  0
  151.7514  141.5097  161.2926 H   0  0  0  0  0  0  0  0  0  0  0  0
  153.3894  142.2951  158.8464 H   0  0  0  0  0  0  0  0  0  0  0  0
  151.3116  140.2481  158.6955 H   0  0  0  0  0  0  0  0  0  0  0  0
  153.5736  137.4929  158.3834 H   0  0  0  0  0  0  0  0  0  0  0  0
  152.0302  137.8323  159.1073 H   0  0  0  0  0  0  0  0  0  0  0  0
  150.4863  138.5044  153.5943 H   0  0  0  0  0  0  0  0  0  0  0  0
  151.1731  136.3060  154.3992 H   0  0  0  0  0  0  0  0  0  0  0  0
  150.3801  142.4026  159.2579 H   0  0  0  0  0  0  0  0  0  0  0  0
  151.9688  142.9963  156.7299 H   0  0  0  0  0  0  0  0  0  0  0  0
  150.2756  143.4275  156.9679 H   0  0  0  0  0  0  0  0  0  0  0  0
  150.7601  141.7426  156.9631 H   0  0  0  0  0  0  0  0  0  0  0  0
  1  2  1  0  0  0  0
  1 22  1  0  0  0  0
  1 23  1  0  0  0  0
  1 24  1  0  0  0  0
  2 19  1  0  0  0  0
  2  3  1  0  0  0  0
  2 25  1  0  0  0  0
  3  4  1  0  0  0  0
  3 26  1  0  0  0  0
  3 27  1  0  0  0  0
  4  5  1  0  0  0  0
  4 28  1  0  0  0  0
  4 29  1  0  0  0  0
  5  6  1  0  0  0  0
  5 30  1  0  0  0  0
  5 31  1  0  0  0  0
  6  7  1  0  0  0  0
  6 19  1  0  0  0  0
  6 32  1  0  0  0  0
  7  8  1  0  0  0  0
  7 33  1  0  0  0  0
  8  9  2  0  0  0  0
  8 10  1  0  0  0  0
 10 34  1  0  0  0  0
 10 35  1  0  0  0  0
 10 11  1  0  0  0  0
 11 12  1  0  0  0  0
 11 17  1  0  0  0  0
 12 13  2  0  0  0  0
 13 14  1  0  0  0  0
 13 15  1  0  0  0  0
 14 21  1  0  0  0  0
 15 36  1  0  0  0  0
 15 16  2  0  0  0  0
 16 37  1  0  0  0  0
 16 17  1  0  0  0  0
 17 18  2  0  0  0  0
 19 20  1  0  0  0  0
 19 38  1  0  0  0  0
 20 39  1  0  0  0  0
 20 40  1  0  0  0  0
 20 41  1  0  0  0  0
M  END
> <s_m_source_file>
AV-unprocessed.smi

> <i_m_source_file_index>
1464

> <i_lp_mmshare_version>
43012

> <i_f3d_flags>
0

> <s_epik_input>
W0NIM11bQ0BASF0xW0NIMl1bQ0gyXVtDSDJdW0NASF0oW0NASF0xW0NIM10pW05IXUMoPU8pW0NIMl1uMltuSF1jKD1PKVtjSF1bY0hdYzI9Tw==

> <s_epik_cmdline>
J2VwaWtfcHl0aG9uJywgJy1waCcsICc3LjAnLCAnLXRuJywgJzgnLCAnLW1hJywgJzIwMCcsICctbWV0YWxfYmluZGluZycsICctaW1hZScsICc8aW5maWxlLm1hZT4nLCAnLW9tYWUnLCAnPG91dGZpbGUubWFlPic=

> <r_lp_tautomer_probability>
0.9996

> <r_epik_Ionization_Penalty>
2.10335

> <r_epik_Ionization_Penalty_Charging>
3.98079e-08

> <r_epik_Ionization_Penalty_Neutral>
2.10335

> <r_epik_State_Penalty>
1.67957

> <r_epik_Charging_Adjusted_Penalty>
1.67957

> <i_epik_Tot_Q>
0

> <i_epik_Tot_abs_Q>
0

> <r_epik_Metal_State_Penalty>
1.67957

> <b_epik_Metal_Only>
0

> <s_lp_Force_Field>
OPLS_2005

> <r_lp_Energy>
25.8074

> <b_lp_Chiralities_Consistent>
1

> <s_lp_Variant>
AV-unprocessed.smi:1464-13

> <Gold.Version>
5.8.1

> <Gold.Id.Protein>
6NUR|6NUR_protein|mol2

> <Gold.PLP.Fitness>
46.6458

> <Gold.PLP.PLP>
-39.2692

> <Gold.PLP.part.hbond>
-3.0000

> <Gold.PLP.part.metal>
0.0000

> <Gold.PLP.part.buried>
-3.7288

> <Gold.PLP.part.nonpolar>
-31.8234

> <Gold.PLP.part.repulsive>
0.1252

> <Gold.PLP.ligand.clash>
0.0000

> <Gold.PLP.ligand.torsion>
0.5247

> <Gold.PLP.Chemscore.Hbond>
2.8056

> <Gold.PLP.Chemscore.CHOScore>
0.0000

> <Gold.PLP.Chemscore.Metal>
0.0000

> <Gold.Chemscore.Hbonds>
donor molecule, donor type, donor heavy atom, donor atom, acceptor molecule, acceptor atom, score
      P1  H  7989  7998       L1    14  0.85
      P1  H  7997  8009       L1     9  1.00
      P1  H 10752 10765       L1    18  0.90

> <Gold.PLP.Chemscore.Internal.Correction>
0.0092

> <Gold.Rescore>
     Score         DG    S(hbond)    S(metal)    S(lipo)     H(rot)  DE(clash)    DE(int)     intcor
     15.64     -17.83       1.81        0.00     102.63       2.22       0.15       2.04       ----

> <Gold.Chemscore.Fitness>
15.6407

> <Gold.Chemscore.DG>
-17.8311

> <Gold.Chemscore.ZeroCoef>
-5.4800

> <Gold.Chemscore.Hbond>
1.8062

> <Gold.Chemscore.Metal>
0.0000

> <Gold.Chemscore.Lipo>
102.6294

> <Gold.Chemscore.Internal_Hbond>
0.0000

> <Gold.Chemscore.DEClash>
0.1491

> <Gold.Chemscore.DEInternal>
2.0413

> <Gold.Chemscore.Rot>
2.2224

> <Gold.Chemscore.Internal.Correction>
   9.000000E+99

> <Gold.Chemscore.Hbonds>
donor molecule, donor type, donor heavy atom, donor atom, acceptor molecule, acceptor atom, score
      P1  H  7989  7998       L1    14  0.25
      P1  H  7997  8009       L1     9  0.30
      P1  H 10752 10765       L1    18  0.18

> <Gold.Chemscore.Hbond.Weighted>
-6.0328

> <Gold.Chemscore.Metal.Weighted>
-0.0000

> <Gold.Chemscore.Lipo.Weighted>
-12.0076

> <Gold.Chemscore.Internal_Hbond.Weighted>
0.0000

> <Gold.Chemscore.DEClash.Weighted>
0.1491

> <Gold.Chemscore.DEInternal.Weighted>
2.0413

> <Gold.Chemscore.Rot.Weighted>
5.6893

> <Gold.Chemscore.Internal.Correction.Weighted>
   9.000000E+99

> <Gold.Protein.RotatedTorsions>
[ 6907 6896 6895 6894 ] final -108.96 input  -60.11 | X-H torsion
[ 7974 7965 7964 7962 ] final  -13.27 input  175.53 | X-H torsion
[ 8008 7997 7996 7995 ] final  124.77 input   59.86 | X-H torsion
[ 10167 10162 10161 10158 ] final   83.76 input  -65.29 | X-H torsion
[ 10718 10713 10712 10709 ] final  -35.03 input   66.30 | X-H torsion
[ 10763 10752 10751 10750 ] final -124.29 input  -60.55 | X-H torsion
[ 11005 11000 10999 10996 ] final  101.77 input  -57.11 | X-H torsion

> <Gold.Protein.ActiveResidues>
 VAL166  LYS551  ARG553  GLY616  TRP617  ASP618  TYR619  PRO620  LYS621  CYS622 
 ASP623  PHE694  ASN695  SER759  ASP760  ASP761  ALA762  ILE779  LEU786  VAL792 
 PHE793  MET794  SER795  GLU796  ALA797  LYS798  CYS799  TRP800  GLU811  SER814 

> <Gold.Protein.RotatedAtoms>
  150.7533  133.9599  159.3512 H   0  0  0  0  0  0  0  0  0  0  0  0  # atno 6907 bound_to 6896
  151.7524  135.0827  160.0342 H   0  0  0  0  0  0  0  0  0  0  0  0  # atno 6908 bound_to 6896
  152.3457  133.6082  159.5944 H   0  0  0  0  0  0  0  0  0  0  0  0  # atno 6909 bound_to 6896
  146.2121  140.3178  142.8388 H   0  0  0  0  0  0  0  0  0  0  0  0  # atno 7974 bound_to 7965
  156.2812  140.2732  156.1842 H   0  0  0  0  0  0  0  0  0  0  0  0  # atno 8008 bound_to 7997
  155.0525  140.0386  157.2566 H   0  0  0  0  0  0  0  0  0  0  0  0  # atno 8009 bound_to 7997
  154.7183  140.2682  155.6570 H   0  0  0  0  0  0  0  0  0  0  0  0  # atno 8010 bound_to 7997
  139.9151  144.6248  150.8498 H   0  0  0  0  0  0  0  0  0  0  0  0  # atno 10167 bound_to 10162
  156.3435  130.4297  149.7766 H   0  0  0  0  0  0  0  0  0  0  0  0  # atno 10718 bound_to 10713
  154.8721  135.4069  154.3081 H   0  0  0  0  0  0  0  0  0  0  0  0  # atno 10763 bound_to 10752
  153.3930  135.7015  153.6487 H   0  0  0  0  0  0  0  0  0  0  0  0  # atno 10764 bound_to 10752
  153.5261  135.3677  155.2626 H   0  0  0  0  0  0  0  0  0  0  0  0  # atno 10765 bound_to 10752
  139.8774  134.9197  156.4957 H   0  0  0  0  0  0  0  0  0  0  0  0  # atno 11005 bound_to 11000
  144.8941  140.7561  143.5908 LP  0  0  0  0  0  0  0  0  0  0  0  0  # atno 17320 bound_to 7965
  145.3102  139.1821  143.4643 LP  0  0  0  0  0  0  0  0  0  0  0  0  # atno 17321 bound_to 7965
  140.7676  143.3337  151.2354 LP  0  0  0  0  0  0  0  0  0  0  0  0  # atno 17342 bound_to 10162
  139.6909  143.9693  152.2859 LP  0  0  0  0  0  0  0  0  0  0  0  0  # atno 17343 bound_to 10162
  156.4994  130.8122  151.3126 LP  0  0  0  0  0  0  0  0  0  0  0  0  # atno 17370 bound_to 10713
  157.7450  130.9949  150.2726 LP  0  0  0  0  0  0  0  0  0  0  0  0  # atno 17371 bound_to 10713
  140.8626  133.8048  155.9281 LP  0  0  0  0  0  0  0  0  0  0  0  0  # atno 17394 bound_to 11000
  140.9034  134.2350  157.5028 LP  0  0  0  0  0  0  0  0  0  0  0  0  # atno 17395 bound_to 11000

$$$$
