AV-unprocessed.smi:237|AV-procd|sdf|1817|dock9
  -GOLD-   2262020413D 1   1.00000     0.00000
 Structure written by MMmdl.
 53 56  0  0  0  0  0  0  0  0  1 V2000
  145.9953  130.3022  161.6675 C   0  0  0  0  0  0  0  0  0  0  0  0
  146.5622  131.4212  160.7905 C   0  0  0  0  0  0  0  0  0  0  0  0
  145.4896  132.2427  160.3540 O   0  0  0  0  0  0  0  0  0  0  0  0
  145.8892  133.4687  159.7527 C   0  0  0  0  0  0  0  0  0  0  0  0
  146.9341  134.2590  160.5851 C   0  0  2  0  0  0  0  0  0  0  0  0
  146.5241  134.2191  162.0742 C   0  0  0  0  0  0  0  0  0  0  0  0
  147.4772  135.0387  162.9549 C   0  0  0  0  0  0  0  0  0  0  0  0
  147.5615  136.4768  162.4316 C   0  0  0  0  0  0  0  0  0  0  0  0
  147.9780  136.4818  160.9547 C   0  0  0  0  0  0  0  0  0  0  0  0
  147.0784  135.6580  160.1472 N   0  0  0  0  0  0  0  0  0  0  0  0
  147.3303  135.8306  158.8304 C   0  0  0  0  0  0  0  0  0  0  0  0
  146.2940  135.6599  157.9736 N   0  0  0  0  0  0  0  0  0  0  0  0
  146.4892  135.7901  156.6578 C   0  0  0  0  0  0  0  0  0  0  0  0
  147.6165  136.0820  156.0051 N   0  0  0  0  0  0  0  0  0  0  0  0
  148.6566  136.2684  156.8680 C   0  0  0  0  0  0  0  0  0  0  0  0
  148.6018  136.1674  158.2857 C   0  0  0  0  0  0  0  0  0  0  0  0
  149.8563  136.4172  158.8282 N   0  0  0  0  0  0  0  0  0  0  0  0
  150.6122  136.6415  157.7886 C   0  0  0  0  0  0  0  0  0  0  0  0
  149.9713  136.5839  156.5708 N   0  0  0  0  0  0  0  0  0  0  0  0
  150.5634  136.7781  155.2550 C   0  0  0  0  0  0  0  0  0  0  0  0
  151.0500  138.2188  154.9663 C   0  0  0  0  0  0  0  0  0  0  0  0
  149.8596  139.0236  154.4272 C   0  0  0  0  0  0  0  0  0  0  0  0
  149.2495  138.3690  153.3332 O   0  0  0  0  0  0  0  0  0  0  0  0
  151.9147  138.9144  156.0331 C   0  0  0  0  0  0  0  0  0  0  0  0
  153.1311  138.6201  155.3142 O   0  0  0  0  0  0  0  0  0  0  0  0
  152.3424  138.3329  154.1406 C   0  0  0  0  0  0  0  0  0  0  0  0
  146.7883  129.6405  162.0162 H   0  0  0  0  0  0  0  0  0  0  0  0
  145.2745  129.6983  161.1164 H   0  0  0  0  0  0  0  0  0  0  0  0
  145.4898  130.7103  162.5428 H   0  0  0  0  0  0  0  0  0  0  0  0
  147.2795  132.0110  161.3629 H   0  0  0  0  0  0  0  0  0  0  0  0
  147.0942  130.9886  159.9437 H   0  0  0  0  0  0  0  0  0  0  0  0
  146.3024  133.2482  158.7677 H   0  0  0  0  0  0  0  0  0  0  0  0
  145.0005  134.0754  159.5708 H   0  0  0  0  0  0  0  0  0  0  0  0
  147.9067  133.7741  160.5105 H   0  0  0  0  0  0  0  0  0  0  0  0
  145.5101  134.6059  162.1864 H   0  0  0  0  0  0  0  0  0  0  0  0
  146.5013  133.1880  162.4283 H   0  0  0  0  0  0  0  0  0  0  0  0
  147.1335  135.0331  163.9895 H   0  0  0  0  0  0  0  0  0  0  0  0
  148.4687  134.5841  162.9502 H   0  0  0  0  0  0  0  0  0  0  0  0
  146.5934  136.9672  162.5423 H   0  0  0  0  0  0  0  0  0  0  0  0
  148.2729  137.0525  163.0239 H   0  0  0  0  0  0  0  0  0  0  0  0
  147.9794  137.5069  160.5803 H   0  0  0  0  0  0  0  0  0  0  0  0
  148.9987  136.1080  160.8620 H   0  0  0  0  0  0  0  0  0  0  0  0
  145.6180  135.6351  156.0387 H   0  0  0  0  0  0  0  0  0  0  0  0
  151.6670  136.8517  157.8856 H   0  0  0  0  0  0  0  0  0  0  0  0
  151.3912  136.0745  155.1586 H   0  0  0  0  0  0  0  0  0  0  0  0
  149.8240  136.4621  154.5186 H   0  0  0  0  0  0  0  0  0  0  0  0
  149.1004  139.1610  155.1978 H   0  0  0  0  0  0  0  0  0  0  0  0
  150.1697  140.0212  154.1146 H   0  0  0  0  0  0  0  0  0  0  0  0
  149.4047  138.8785  152.5525 H   0  0  0  0  0  0  0  0  0  0  0  0
  151.7424  139.9896  156.1051 H   0  0  0  0  0  0  0  0  0  0  0  0
  151.8829  138.4589  157.0217 H   0  0  0  0  0  0  0  0  0  0  0  0
  152.6436  137.4149  153.6378 H   0  0  0  0  0  0  0  0  0  0  0  0
  152.3491  139.1692  153.4395 H   0  0  0  0  0  0  0  0  0  0  0  0
  1  2  1  0  0  0  0
  1 27  1  0  0  0  0
  1 28  1  0  0  0  0
  1 29  1  0  0  0  0
  2  3  1  0  0  0  0
  2 30  1  0  0  0  0
  2 31  1  0  0  0  0
  3  4  1  0  0  0  0
  4  5  1  0  0  0  0
  4 32  1  0  0  0  0
  4 33  1  0  0  0  0
  5 10  1  0  0  0  0
  5  6  1  0  0  0  0
  5 34  1  0  0  0  0
  6  7  1  0  0  0  0
  6 35  1  0  0  0  0
  6 36  1  0  0  0  0
  7  8  1  0  0  0  0
  7 37  1  0  0  0  0
  7 38  1  0  0  0  0
  8  9  1  0  0  0  0
  8 39  1  0  0  0  0
  8 40  1  0  0  0  0
  9 10  1  0  0  0  0
  9 41  1  0  0  0  0
  9 42  1  0  0  0  0
 10 11  1  0  0  0  0
 11 16  1  0  0  0  0
 11 12  2  0  0  0  0
 12 13  1  0  0  0  0
 13 14  2  0  0  0  0
 13 43  1  0  0  0  0
 14 15  1  0  0  0  0
 15 19  1  0  0  0  0
 15 16  2  0  0  0  0
 16 17  1  0  0  0  0
 17 18  2  0  0  0  0
 18 19  1  0  0  0  0
 18 44  1  0  0  0  0
 19 20  1  0  0  0  0
 20 21  1  0  0  0  0
 20 45  1  0  0  0  0
 20 46  1  0  0  0  0
 21 26  1  0  0  0  0
 21 22  1  0  0  0  0
 21 24  1  0  0  0  0
 22 23  1  0  0  0  0
 22 47  1  0  0  0  0
 22 48  1  0  0  0  0
 23 49  1  0  0  0  0
 24 25  1  0  0  0  0
 24 50  1  0  0  0  0
 24 51  1  0  0  0  0
 25 26  1  0  0  0  0
 26 52  1  0  0  0  0
 26 53  1  0  0  0  0
M  END
> <s_m_source_file>
AV-unprocessed.smi

> <i_m_source_file_index>
237

> <i_lp_mmshare_version>
43012

> <i_f3d_flags>
0

> <s_epik_input>
W0NIM11bQ0gyXU9bQ0gyXVtDQEBIXTFbQ0gyXVtDSDJdW0NIMl1bQ0gyXU4xYyhuW2NIXW4yKWMoYzIzKW5bY0hdbjNbQ0gyXUM0KFtDSDJdW09IXSlbQ0gyXU9bQ0gyXTQ=

> <s_epik_cmdline>
J2VwaWtfcHl0aG9uJywgJy1waCcsICc3LjAnLCAnLXRuJywgJzgnLCAnLW1hJywgJzIwMCcsICctbWV0YWxfYmluZGluZycsICctaW1hZScsICc8aW5maWxlLm1hZT4nLCAnLW9tYWUnLCAnPG91dGZpbGUubWFlPic=

> <r_lp_tautomer_probability>
1

> <r_epik_Ionization_Penalty>
0.00358373

> <r_epik_Ionization_Penalty_Charging>
0

> <r_epik_Ionization_Penalty_Neutral>
0.00358373

> <r_epik_State_Penalty>
0.00240903

> <r_epik_Charging_Adjusted_Penalty>
0.00240903

> <i_epik_Tot_Q>
0

> <i_epik_Tot_abs_Q>
0

> <r_epik_Metal_State_Penalty>
-0

> <b_epik_Metal_Only>
0

> <s_lp_Force_Field>
OPLS_2005

> <r_lp_Energy>
38.4441

> <b_lp_Chiralities_Consistent>
1

> <s_lp_Variant>
AV-unprocessed.smi:237-1

> <Gold.Version>
5.8.1

> <Gold.Id.Protein>
6NUR|6NUR_protein|mol2

> <Gold.PLP.Fitness>
44.0797

> <Gold.PLP.PLP>
-37.1421

> <Gold.PLP.part.hbond>
-4.0000

> <Gold.PLP.part.metal>
0.0000

> <Gold.PLP.part.buried>
-5.6593

> <Gold.PLP.part.nonpolar>
-28.0794

> <Gold.PLP.part.repulsive>
0.0415

> <Gold.PLP.ligand.clash>
0.0000

> <Gold.PLP.ligand.torsion>
1.3583

> <Gold.PLP.Chemscore.Hbond>
3.0000

> <Gold.PLP.Chemscore.CHOScore>
0.0000

> <Gold.PLP.Chemscore.Metal>
0.0000

> <Gold.Chemscore.Hbonds>
donor molecule, donor type, donor heavy atom, donor atom, acceptor molecule, acceptor atom, score
      L1  H    23    49       P1  7957  1.00
      P1  H  6896  6907       L1    17  0.99
      P1  H  7997  8008       L1    25  0.73

> <Gold.PLP.Chemscore.Internal.Correction>
0.6541

> <Gold.Rescore>
     Score         DG    S(hbond)    S(metal)    S(lipo)     H(rot)  DE(clash)    DE(int)     intcor
     11.53     -15.64       2.47        0.00      83.36       3.06       0.01       4.10       ----

> <Gold.Chemscore.Fitness>
11.5275

> <Gold.Chemscore.DG>
-15.6381

> <Gold.Chemscore.ZeroCoef>
-5.4800

> <Gold.Chemscore.Hbond>
2.4682

> <Gold.Chemscore.Metal>
0.0000

> <Gold.Chemscore.Lipo>
83.3584

> <Gold.Chemscore.Internal_Hbond>
0.0000

> <Gold.Chemscore.DEClash>
0.0121

> <Gold.Chemscore.DEInternal>
4.0985

> <Gold.Chemscore.Rot>
3.0620

> <Gold.Chemscore.Internal.Correction>
   9.000000E+99

> <Gold.Chemscore.Hbonds>
donor molecule, donor type, donor heavy atom, donor atom, acceptor molecule, acceptor atom, score
      L1  H    23    49       P1  7957  0.91
      P1  H  6896  6907       L1    17  0.26
      P1  H  7997  8008       L1    25  0.15

> <Gold.Chemscore.Hbond.Weighted>
-8.2439

> <Gold.Chemscore.Metal.Weighted>
-0.0000

> <Gold.Chemscore.Lipo.Weighted>
-9.7529

> <Gold.Chemscore.Internal_Hbond.Weighted>
0.0000

> <Gold.Chemscore.DEClash.Weighted>
0.0121

> <Gold.Chemscore.DEInternal.Weighted>
4.0985

> <Gold.Chemscore.Rot.Weighted>
7.8388

> <Gold.Chemscore.Internal.Correction.Weighted>
   9.000000E+99

> <Gold.Protein.RotatedTorsions>
[ 6907 6896 6895 6894 ] final  -53.01 input  -60.11 | X-H torsion
[ 7974 7965 7964 7962 ] final  -83.21 input  175.53 | X-H torsion
[ 8008 7997 7996 7995 ] final  -33.83 input   59.86 | X-H torsion
[ 10167 10162 10161 10158 ] final    7.29 input  -65.29 | X-H torsion
[ 10718 10713 10712 10709 ] final  -24.92 input   66.30 | X-H torsion
[ 10763 10752 10751 10750 ] final  -80.65 input  -60.55 | X-H torsion
[ 11005 11000 10999 10996 ] final   53.57 input  -57.11 | X-H torsion

> <Gold.Protein.ActiveResidues>
 VAL166  LYS551  ARG553  GLY616  TRP617  ASP618  TYR619  PRO620  LYS621  CYS622 
 ASP623  PHE694  ASN695  SER759  ASP760  ASP761  ALA762  ILE779  LEU786  VAL792 
 PHE793  MET794  SER795  GLU796  ALA797  LYS798  CYS799  TRP800  GLU811  SER814 

> <Gold.Protein.RotatedAtoms>
  150.8465  134.7776  159.6974 H   0  0  0  0  0  0  0  0  0  0  0  0  # atno 6907 bound_to 6896
  152.4540  134.5328  159.9826 H   0  0  0  0  0  0  0  0  0  0  0  0  # atno 6908 bound_to 6896
  151.5457  133.3387  159.2979 H   0  0  0  0  0  0  0  0  0  0  0  0  # atno 6909 bound_to 6896
  145.5230  140.9529  143.1645 H   0  0  0  0  0  0  0  0  0  0  0  0  # atno 7974 bound_to 7965
  154.4137  140.1700  156.1951 H   0  0  0  0  0  0  0  0  0  0  0  0  # atno 8008 bound_to 7997
  155.9570  140.3396  155.6434 H   0  0  0  0  0  0  0  0  0  0  0  0  # atno 8009 bound_to 7997
  155.6797  140.0721  157.2480 H   0  0  0  0  0  0  0  0  0  0  0  0  # atno 8010 bound_to 7997
  140.6380  143.7841  150.7387 H   0  0  0  0  0  0  0  0  0  0  0  0  # atno 10167 bound_to 10162
  156.4712  130.4525  149.6868 H   0  0  0  0  0  0  0  0  0  0  0  0  # atno 10718 bound_to 10713
  154.5539  135.5653  153.6946 H   0  0  0  0  0  0  0  0  0  0  0  0  # atno 10763 bound_to 10752
  152.9997  135.6257  154.2337 H   0  0  0  0  0  0  0  0  0  0  0  0  # atno 10764 bound_to 10752
  154.2272  135.2867  155.2883 H   0  0  0  0  0  0  0  0  0  0  0  0  # atno 10765 bound_to 10752
  140.0756  134.5409  155.9000 H   0  0  0  0  0  0  0  0  0  0  0  0  # atno 11005 bound_to 11000
  144.7666  139.6831  143.7212 LP  0  0  0  0  0  0  0  0  0  0  0  0  # atno 17320 bound_to 7965
  146.2094  139.5439  142.9691 LP  0  0  0  0  0  0  0  0  0  0  0  0  # atno 17321 bound_to 7965
  140.1467  143.4394  152.2158 LP  0  0  0  0  0  0  0  0  0  0  0  0  # atno 17342 bound_to 10162
  139.5590  144.7392  151.4211 LP  0  0  0  0  0  0  0  0  0  0  0  0  # atno 17343 bound_to 10162
  156.3616  130.7484  151.2457 LP  0  0  0  0  0  0  0  0  0  0  0  0  # atno 17370 bound_to 10713
  157.7491  131.0348  150.4336 LP  0  0  0  0  0  0  0  0  0  0  0  0  # atno 17371 bound_to 10713
  141.2028  133.6627  156.6028 LP  0  0  0  0  0  0  0  0  0  0  0  0  # atno 17394 bound_to 11000
  140.3562  134.7726  157.4502 LP  0  0  0  0  0  0  0  0  0  0  0  0  # atno 17395 bound_to 11000

$$$$
