AV-unprocessed.smi:200|AV-procd|sdf|1579|dock6
  -GOLD-   2262019463D 1   1.00000     0.00000
 Structure written by MMmdl.
 56 59  0  0  0  0  0  0  0  0  1 V2000
  147.1549  142.2804  153.5723 C   0  0  0  0  0  0  0  0  0  0  0  0
  147.2605  141.6794  154.8506 O   0  0  0  0  0  0  0  0  0  0  0  0
  148.5999  141.3686  155.1963 C   0  0  0  0  0  0  0  0  0  0  0  0
  148.6186  140.7132  156.5885 C   0  0  0  0  0  0  0  0  0  0  0  0
  149.9663  140.3751  157.0608 N   0  0  0  0  0  0  0  0  0  0  0  0
  150.0799  139.2596  157.8197 C   0  0  0  0  0  0  0  0  0  0  0  0
  151.3182  138.9451  158.2743 N   0  0  0  0  0  0  0  0  0  0  0  0
  151.4986  137.8541  159.0241 C   0  0  0  0  0  0  0  0  0  0  0  0
  150.5925  136.9645  159.4348 N   0  0  0  0  0  0  0  0  0  0  0  0
  149.3430  137.2867  158.9937 C   0  0  0  0  0  0  0  0  0  0  0  0
  148.9992  138.4070  158.1851 C   0  0  0  0  0  0  0  0  0  0  0  0
  147.6318  138.4093  157.9383 N   0  0  0  0  0  0  0  0  0  0  0  0
  147.1937  137.3490  158.5591 C   0  0  0  0  0  0  0  0  0  0  0  0
  148.1521  136.6214  159.2279 N   0  0  0  0  0  0  0  0  0  0  0  0
  147.9340  135.4071  159.9995 C   0  0  0  0  0  0  0  0  0  0  0  0
  147.1987  135.6279  161.3384 C   0  0  0  0  0  0  0  0  0  0  0  0
  146.8684  134.2853  162.0151 C   0  0  0  0  0  0  0  0  0  0  0  0
  146.0037  133.5022  161.2170 O   0  0  0  0  0  0  0  0  0  0  0  0
  147.8150  136.6818  162.2688 C   0  0  0  0  0  0  0  0  0  0  0  0
  146.5500  137.3560  162.4353 O   0  0  0  0  0  0  0  0  0  0  0  0
  146.0292  136.6229  161.3069 C   0  0  0  0  0  0  0  0  0  0  0  0
  150.8883  141.4317  157.4910 C   0  0  1  0  0  0  0  0  0  0  0  0
  150.8901  142.6905  156.6199 C   0  0  0  0  0  0  0  0  0  0  0  0
  151.6214  143.7022  157.4994 C   0  0  0  0  0  0  0  0  0  0  0  0
  151.1230  143.4142  158.9249 C   0  0  2  0  0  0  0  0  0  0  0  0
  152.1536  143.7529  160.0103 C   0  0  0  0  0  0  0  0  0  0  0  0
  150.6798  141.9378  158.9290 C   0  0  0  0  0  0  0  0  0  0  0  0
  146.1085  142.4915  153.3523 H   0  0  0  0  0  0  0  0  0  0  0  0
  147.5369  141.6199  152.7927 H   0  0  0  0  0  0  0  0  0  0  0  0
  147.7036  143.2223  153.5342 H   0  0  0  0  0  0  0  0  0  0  0  0
  149.0046  140.6674  154.4652 H   0  0  0  0  0  0  0  0  0  0  0  0
  149.2287  142.2594  155.1611 H   0  0  0  0  0  0  0  0  0  0  0  0
  148.1376  141.3906  157.2914 H   0  0  0  0  0  0  0  0  0  0  0  0
  148.0004  139.8171  156.5727 H   0  0  0  0  0  0  0  0  0  0  0  0
  152.5141  137.6676  159.3408 H   0  0  0  0  0  0  0  0  0  0  0  0
  146.1494  137.0714  158.5546 H   0  0  0  0  0  0  0  0  0  0  0  0
  147.3798  134.7046  159.3758 H   0  0  0  0  0  0  0  0  0  0  0  0
  148.9056  134.9409  160.1673 H   0  0  0  0  0  0  0  0  0  0  0  0
  147.7785  133.7083  162.1832 H   0  0  0  0  0  0  0  0  0  0  0  0
  146.4194  134.4279  162.9982 H   0  0  0  0  0  0  0  0  0  0  0  0
  145.1332  133.5506  161.5819 H   0  0  0  0  0  0  0  0  0  0  0  0
  148.2035  136.2794  163.2050 H   0  0  0  0  0  0  0  0  0  0  0  0
  148.5542  137.3221  161.7844 H   0  0  0  0  0  0  0  0  0  0  0  0
  145.9930  137.2453  160.4118 H   0  0  0  0  0  0  0  0  0  0  0  0
  145.0561  136.1734  161.5073 H   0  0  0  0  0  0  0  0  0  0  0  0
  151.9044  141.0349  157.4397 H   0  0  0  0  0  0  0  0  0  0  0  0
  151.3833  142.5344  155.6602 H   0  0  0  0  0  0  0  0  0  0  0  0
  149.8819  143.0536  156.4248 H   0  0  0  0  0  0  0  0  0  0  0  0
  152.6963  143.5270  157.4316 H   0  0  0  0  0  0  0  0  0  0  0  0
  151.4363  144.7323  157.1932 H   0  0  0  0  0  0  0  0  0  0  0  0
  150.2354  144.0252  159.0957 H   0  0  0  0  0  0  0  0  0  0  0  0
  153.0625  143.1624  159.8922 H   0  0  0  0  0  0  0  0  0  0  0  0
  151.7532  143.5539  161.0048 H   0  0  0  0  0  0  0  0  0  0  0  0
  152.4317  144.8064  159.9695 H   0  0  0  0  0  0  0  0  0  0  0  0
  149.6341  141.8815  159.2314 H   0  0  0  0  0  0  0  0  0  0  0  0
  151.2472  141.3309  159.6358 H   0  0  0  0  0  0  0  0  0  0  0  0
  1  2  1  0  0  0  0
  1 28  1  0  0  0  0
  1 29  1  0  0  0  0
  1 30  1  0  0  0  0
  2  3  1  0  0  0  0
  3  4  1  0  0  0  0
  3 31  1  0  0  0  0
  3 32  1  0  0  0  0
  4  5  1  0  0  0  0
  4 33  1  0  0  0  0
  4 34  1  0  0  0  0
  5  6  1  0  0  0  0
  5 22  1  0  0  0  0
  6 11  1  0  0  0  0
  6  7  2  0  0  0  0
  7  8  1  0  0  0  0
  8  9  2  0  0  0  0
  8 35  1  0  0  0  0
  9 10  1  0  0  0  0
 10 14  1  0  0  0  0
 10 11  2  0  0  0  0
 11 12  1  0  0  0  0
 12 13  2  0  0  0  0
 13 14  1  0  0  0  0
 13 36  1  0  0  0  0
 14 15  1  0  0  0  0
 15 16  1  0  0  0  0
 15 37  1  0  0  0  0
 15 38  1  0  0  0  0
 16 21  1  0  0  0  0
 16 17  1  0  0  0  0
 16 19  1  0  0  0  0
 17 18  1  0  0  0  0
 17 39  1  0  0  0  0
 17 40  1  0  0  0  0
 18 41  1  0  0  0  0
 19 20  1  0  0  0  0
 19 42  1  0  0  0  0
 19 43  1  0  0  0  0
 20 21  1  0  0  0  0
 21 44  1  0  0  0  0
 21 45  1  0  0  0  0
 22 27  1  0  0  0  0
 22 23  1  0  0  0  0
 22 46  1  0  0  0  0
 23 24  1  0  0  0  0
 23 47  1  0  0  0  0
 23 48  1  0  0  0  0
 24 25  1  0  0  0  0
 24 49  1  0  0  0  0
 24 50  1  0  0  0  0
 25 26  1  0  0  0  0
 25 27  1  0  0  0  0
 25 51  1  0  0  0  0
 26 52  1  0  0  0  0
 26 53  1  0  0  0  0
 26 54  1  0  0  0  0
 27 55  1  0  0  0  0
 27 56  1  0  0  0  0
M  END
> <s_m_source_file>
AV-unprocessed.smi

> <i_m_source_file_index>
200

> <i_lp_mmshare_version>
43012

> <i_f3d_flags>
0

> <s_epik_input>
W0NIM11bQ0BASF0oW0NIMl0xKVtDSDJdW0NIMl1bQ0BIXTFOKFtDSDJdW0NIMl1PW0NIM10pYyhuW2NIXW4yKWMoYzIzKW5bY0hdbjNbQ0gyXUM0KFtDSDJdW09IXSlbQ0gyXU9bQ0gyXTQ=

> <s_epik_cmdline>
J2VwaWtfcHl0aG9uJywgJy1waCcsICc3LjAnLCAnLXRuJywgJzgnLCAnLW1hJywgJzIwMCcsICctbWV0YWxfYmluZGluZycsICctaW1hZScsICc8aW5maWxlLm1hZT4nLCAnLW9tYWUnLCAnPG91dGZpbGUubWFlPic=

> <r_lp_tautomer_probability>
1

> <r_epik_Ionization_Penalty>
0.00363087

> <r_epik_Ionization_Penalty_Charging>
0

> <r_epik_Ionization_Penalty_Neutral>
0.00363087

> <r_epik_State_Penalty>
0.0024341

> <r_epik_Charging_Adjusted_Penalty>
0.0024341

> <i_epik_Tot_Q>
0

> <i_epik_Tot_abs_Q>
0

> <r_epik_Metal_State_Penalty>
-0

> <b_epik_Metal_Only>
0

> <s_lp_Force_Field>
OPLS_2005

> <r_lp_Energy>
49.9898

> <b_lp_Chiralities_Consistent>
1

> <s_lp_Variant>
AV-unprocessed.smi:200-4

> <Gold.Version>
5.8.1

> <Gold.Id.Protein>
6NUR|6NUR_protein|mol2

> <Gold.PLP.Fitness>
45.9022

> <Gold.PLP.PLP>
-43.7848

> <Gold.PLP.part.hbond>
-3.4631

> <Gold.PLP.part.metal>
0.0000

> <Gold.PLP.part.buried>
-4.2836

> <Gold.PLP.part.nonpolar>
-36.1819

> <Gold.PLP.part.repulsive>
0.1253

> <Gold.PLP.ligand.clash>
0.0000

> <Gold.PLP.ligand.torsion>
1.1273

> <Gold.PLP.Chemscore.Hbond>
1.0000

> <Gold.PLP.Chemscore.CHOScore>
0.0000

> <Gold.PLP.Chemscore.Metal>
0.0000

> <Gold.Chemscore.Hbonds>
donor molecule, donor type, donor heavy atom, donor atom, acceptor molecule, acceptor atom, score
      P1  H  6896  6909       L1     9  1.00
      P1  H  6934  6947       L1    20  0.05

> <Gold.PLP.Chemscore.Internal.Correction>
1.3720

> <Gold.Rescore>
     Score         DG    S(hbond)    S(metal)    S(lipo)     H(rot)  DE(clash)    DE(int)     intcor
      9.70     -13.75       0.99        0.00     114.27       3.28       1.64       2.42       ----

> <Gold.Chemscore.Fitness>
9.6977

> <Gold.Chemscore.DG>
-13.7543

> <Gold.Chemscore.ZeroCoef>
-5.4800

> <Gold.Chemscore.Hbond>
0.9853

> <Gold.Chemscore.Metal>
0.0000

> <Gold.Chemscore.Lipo>
114.2745

> <Gold.Chemscore.Internal_Hbond>
0.0000

> <Gold.Chemscore.DEClash>
1.6407

> <Gold.Chemscore.DEInternal>
2.4158

> <Gold.Chemscore.Rot>
3.2761

> <Gold.Chemscore.Internal.Correction>
   9.000000E+99

> <Gold.Chemscore.Hbonds>
donor molecule, donor type, donor heavy atom, donor atom, acceptor molecule, acceptor atom, score
      P1  H  6896  6909       L1     9  0.93

> <Gold.Chemscore.Hbond.Weighted>
-3.2910

> <Gold.Chemscore.Metal.Weighted>
-0.0000

> <Gold.Chemscore.Lipo.Weighted>
-13.3701

> <Gold.Chemscore.Internal_Hbond.Weighted>
0.0000

> <Gold.Chemscore.DEClash.Weighted>
1.6407

> <Gold.Chemscore.DEInternal.Weighted>
2.4158

> <Gold.Chemscore.Rot.Weighted>
8.3868

> <Gold.Chemscore.Internal.Correction.Weighted>
   9.000000E+99

> <Gold.Protein.RotatedTorsions>
[ 6907 6896 6895 6894 ] final   90.17 input  -60.11 | X-H torsion
[ 7974 7965 7964 7962 ] final  -30.68 input  175.53 | X-H torsion
[ 8008 7997 7996 7995 ] final -149.63 input   59.86 | X-H torsion
[ 10167 10162 10161 10158 ] final   -9.49 input  -65.29 | X-H torsion
[ 10718 10713 10712 10709 ] final   -5.24 input   66.30 | X-H torsion
[ 10763 10752 10751 10750 ] final -159.88 input  -60.55 | X-H torsion
[ 11005 11000 10999 10996 ] final  166.82 input  -57.11 | X-H torsion

> <Gold.Protein.ActiveResidues>
 VAL166  LYS551  ARG553  GLY616  TRP617  ASP618  TYR619  PRO620  LYS621  CYS622 
 ASP623  PHE694  ASN695  SER759  ASP760  ASP761  ALA762  ILE779  LEU786  VAL792 
 PHE793  MET794  SER795  GLU796  ALA797  LYS798  CYS799  TRP800  GLU811  SER814 

> <Gold.Protein.RotatedAtoms>
  152.5442  134.1853  159.8651 H   0  0  0  0  0  0  0  0  0  0  0  0  # atno 6907 bound_to 6896
  151.1852  133.4693  159.2602 H   0  0  0  0  0  0  0  0  0  0  0  0  # atno 6908 bound_to 6896
  151.1138  135.0053  159.8562 H   0  0  0  0  0  0  0  0  0  0  0  0  # atno 6909 bound_to 6896
  146.1124  140.5572  142.8772 H   0  0  0  0  0  0  0  0  0  0  0  0  # atno 7974 bound_to 7965
  155.6106  140.0671  157.2707 H   0  0  0  0  0  0  0  0  0  0  0  0  # atno 8008 bound_to 7997
  154.4254  140.1802  156.1316 H   0  0  0  0  0  0  0  0  0  0  0  0  # atno 8009 bound_to 7997
  156.0087  140.3329  155.6922 H   0  0  0  0  0  0  0  0  0  0  0  0  # atno 8010 bound_to 7997
  140.7089  143.5852  150.8951 H   0  0  0  0  0  0  0  0  0  0  0  0  # atno 10167 bound_to 10162
  156.7494  130.5235  149.5807 H   0  0  0  0  0  0  0  0  0  0  0  0  # atno 10718 bound_to 10713
  154.7438  135.3075  154.8681 H   0  0  0  0  0  0  0  0  0  0  0  0  # atno 10763 bound_to 10752
  153.9488  135.6766  153.4748 H   0  0  0  0  0  0  0  0  0  0  0  0  # atno 10764 bound_to 10752
  153.1035  135.4900  154.8835 H   0  0  0  0  0  0  0  0  0  0  0  0  # atno 10765 bound_to 10752
  140.2703  134.7831  157.3670 H   0  0  0  0  0  0  0  0  0  0  0  0  # atno 11005 bound_to 11000
  144.7523  140.5222  143.6793 LP  0  0  0  0  0  0  0  0  0  0  0  0  # atno 17320 bound_to 7965
  145.5636  139.1480  143.3328 LP  0  0  0  0  0  0  0  0  0  0  0  0  # atno 17321 bound_to 7965
  139.9578  143.6199  152.3011 LP  0  0  0  0  0  0  0  0  0  0  0  0  # atno 17342 bound_to 10162
  139.6740  144.7659  151.1730 LP  0  0  0  0  0  0  0  0  0  0  0  0  # atno 17343 bound_to 10162
  156.1411  130.6245  151.0468 LP  0  0  0  0  0  0  0  0  0  0  0  0  # atno 17370 bound_to 10713
  157.6783  131.0844  150.7436 LP  0  0  0  0  0  0  0  0  0  0  0  0  # atno 17371 bound_to 10713
  140.1379  134.5010  155.8054 LP  0  0  0  0  0  0  0  0  0  0  0  0  # atno 17394 bound_to 11000
  141.2178  133.6814  156.7157 LP  0  0  0  0  0  0  0  0  0  0  0  0  # atno 17395 bound_to 11000

$$$$
