AV-unprocessed.smi:2680|AV-procd|sdf|10372|dock3
  -GOLD-   2272014403D 1   1.00000     0.00000
 Structure written by MMmdl.
 37 38  0  0  0  0  0  0  0  0  2 V2000
  152.8806  143.3048  163.6664 C   0  0  0  0  0  0  0  0  0  0  0  0
  152.7071  143.1213  162.1864 C   0  0  0  0  0  0  0  0  0  0  0  0
  153.0739  141.9970  161.3936 C   0  0  0  0  0  0  0  0  0  0  0  0
  152.7768  142.1504  160.1135 N   0  0  0  0  0  0  0  0  0  0  0  0
  152.2002  143.3694  160.0437 N   0  0  0  0  0  0  0  0  0  0  0  0
  151.7344  143.8759  158.7610 C   0  0  0  0  0  0  0  0  0  0  0  0
  150.6938  142.9503  158.1233 C   0  0  0  0  0  0  0  0  0  0  0  0
  149.5009  143.1460  158.3502 O   0  0  0  0  0  0  0  0  0  0  0  0
  151.1850  141.9646  157.3472 N   0  0  0  0  0  0  0  0  0  0  0  0
  150.5427  140.8404  156.6489 C   0  0  0  0  0  0  0  0  0  0  0  0
  151.7171  139.9096  156.2492 C   0  0  0  0  0  0  0  0  0  0  0  0
  151.8806  139.6642  155.0329 O   0  0  0  0  0  0  0  0  0  0  0  0
  152.4086  139.4108  157.1657 O   0  5  0  0  0  0  0  0  0  0  0  0
  149.4749  140.0685  157.4886 C   0  0  0  0  0  0  0  0  0  0  0  0
  148.7208  138.9990  156.6745 C   0  0  0  0  0  0  0  0  0  0  0  0
  148.0495  139.6160  155.4390 C   0  0  0  0  0  0  0  0  0  0  0  0
  149.0678  140.3703  154.5722 C   0  0  0  0  0  0  0  0  0  0  0  0
  149.8321  141.4266  155.3954 C   0  0  0  0  0  0  0  0  0  0  0  0
  152.1587  143.9829  161.2796 C   0  0  0  0  0  0  0  0  0  0  0  0
  153.4181  142.4711  164.1187 H   0  0  0  0  0  0  0  0  0  0  0  0
  151.9194  143.3808  164.1754 H   0  0  0  0  0  0  0  0  0  0  0  0
  153.4400  144.2114  163.8967 H   0  0  0  0  0  0  0  0  0  0  0  0
  153.5454  141.0782  161.7097 H   0  0  0  0  0  0  0  0  0  0  0  0
  151.3083  144.8675  158.9177 H   0  0  0  0  0  0  0  0  0  0  0  0
  152.5789  143.9901  158.0795 H   0  0  0  0  0  0  0  0  0  0  0  0
  152.1921  141.9533  157.2726 H   0  0  0  0  0  0  0  0  0  0  0  0
  149.9211  139.6048  158.3695 H   0  0  0  0  0  0  0  0  0  0  0  0
  148.7302  140.7716  157.8634 H   0  0  0  0  0  0  0  0  0  0  0  0
  149.4033  138.2062  156.3668 H   0  0  0  0  0  0  0  0  0  0  0  0
  147.9670  138.5237  157.3026 H   0  0  0  0  0  0  0  0  0  0  0  0
  147.5632  138.8375  154.8508 H   0  0  0  0  0  0  0  0  0  0  0  0
  147.2631  140.3017  155.7568 H   0  0  0  0  0  0  0  0  0  0  0  0
  149.7668  139.6614  154.1273 H   0  0  0  0  0  0  0  0  0  0  0  0
  148.5556  140.8534  153.7398 H   0  0  0  0  0  0  0  0  0  0  0  0
  149.1233  142.1914  155.7163 H   0  0  0  0  0  0  0  0  0  0  0  0
  150.5410  141.9475  154.7497 H   0  0  0  0  0  0  0  0  0  0  0  0
  151.7343  144.9676  161.4113 H   0  0  0  0  0  0  0  0  0  0  0  0
  1  2  1  0  0  0  0
  1 20  1  0  0  0  0
  1 21  1  0  0  0  0
  1 22  1  0  0  0  0
  2 19  2  0  0  0  0
  2  3  1  0  0  0  0
  3  4  2  0  0  0  0
  3 23  1  0  0  0  0
  4  5  1  0  0  0  0
  5  6  1  0  0  0  0
  5 19  1  0  0  0  0
  6  7  1  0  0  0  0
  6 24  1  0  0  0  0
  6 25  1  0  0  0  0
  7  8  2  0  0  0  0
  7  9  1  0  0  0  0
  9 10  1  0  0  0  0
  9 26  1  0  0  0  0
 10 18  1  0  0  0  0
 10 11  1  0  0  0  0
 10 14  1  0  0  0  0
 11 12  2  0  0  0  0
 11 13  1  0  0  0  0
 14 15  1  0  0  0  0
 14 27  1  0  0  0  0
 14 28  1  0  0  0  0
 15 16  1  0  0  0  0
 15 29  1  0  0  0  0
 15 30  1  0  0  0  0
 16 17  1  0  0  0  0
 16 31  1  0  0  0  0
 16 32  1  0  0  0  0
 17 18  1  0  0  0  0
 17 33  1  0  0  0  0
 17 34  1  0  0  0  0
 18 35  1  0  0  0  0
 18 36  1  0  0  0  0
 19 37  1  0  0  0  0
M  CHG  1  13  -1
M  END
> <s_m_source_file>
AV-unprocessed.smi

> <i_m_source_file_index>
2680

> <i_lp_mmshare_version>
43012

> <i_f3d_flags>
0

> <s_epik_input>
W0NIM11jMVtjSF1ubihbY0hdMSlbQ0gyXUMoPU8pW05IXUMyKEMoPU8pW09IXSlbQ0gyXVtDSDJdW0NIMl1bQ0gyXVtDSDJdMg==

> <s_epik_cmdline>
J2VwaWtfcHl0aG9uJywgJy1waCcsICc3LjAnLCAnLXRuJywgJzgnLCAnLW1hJywgJzIwMCcsICctbWV0YWxfYmluZGluZycsICctaW1hZScsICc8aW5maWxlLm1hZT4nLCAnLW9tYWUnLCAnPG91dGZpbGUubWFlPic=

> <r_lp_tautomer_probability>
1

> <r_epik_Ionization_Penalty>
0.000361632

> <r_epik_Ionization_Penalty_Charging>
0.000323848

> <r_epik_Ionization_Penalty_Neutral>
3.77838e-05

> <r_epik_State_Penalty>
0.000195685

> <r_epik_Charging_Adjusted_Penalty>
0.000519533

> <i_epik_Tot_Q>
-1

> <i_epik_Tot_abs_Q>
1

> <r_epik_Metal_State_Penalty>
-0

> <b_epik_Metal_Only>
0

> <s_lp_Force_Field>
OPLS_2005

> <r_lp_Energy>
4.37628

> <b_lp_Chiralities_Consistent>
1

> <s_lp_Variant>
AV-unprocessed.smi:2680-1

> <Gold.Version>
5.8.1

> <Gold.Id.Protein>
6NUR|6NUR_protein|mol2

> <Gold.PLP.Fitness>
48.8007

> <Gold.PLP.PLP>
-41.1695

> <Gold.PLP.part.hbond>
-2.0000

> <Gold.PLP.part.metal>
0.0000

> <Gold.PLP.part.buried>
-6.1773

> <Gold.PLP.part.nonpolar>
-32.1144

> <Gold.PLP.part.repulsive>
0.3005

> <Gold.PLP.ligand.clash>
0.0000

> <Gold.PLP.ligand.torsion>
0.6968

> <Gold.PLP.Chemscore.Hbond>
2.9920

> <Gold.PLP.Chemscore.CHOScore>
0.0000

> <Gold.PLP.Chemscore.Metal>
0.0000

> <Gold.Chemscore.Hbonds>
donor molecule, donor type, donor heavy atom, donor atom, acceptor molecule, acceptor atom, score
      P1  H  7989  7998       L1    12  0.98
      P1  H  7997  8008       L1    13  1.10

> <Gold.PLP.Chemscore.Internal.Correction>
0.0488

> <Gold.Rescore>
     Score         DG    S(hbond)    S(metal)    S(lipo)     H(rot)  DE(clash)    DE(int)     intcor
     14.79     -16.56       1.99        0.00      80.81       1.96       0.01       1.76       ----

> <Gold.Chemscore.Fitness>
14.7928

> <Gold.Chemscore.DG>
-16.5569

> <Gold.Chemscore.ZeroCoef>
-5.4800

> <Gold.Chemscore.Hbond>
1.9898

> <Gold.Chemscore.Metal>
0.0000

> <Gold.Chemscore.Lipo>
80.8054

> <Gold.Chemscore.Internal_Hbond>
0.0000

> <Gold.Chemscore.DEClash>
0.0082

> <Gold.Chemscore.DEInternal>
1.7558

> <Gold.Chemscore.Rot>
1.9622

> <Gold.Chemscore.Internal.Correction>
   9.000000E+99

> <Gold.Chemscore.Hbonds>
donor molecule, donor type, donor heavy atom, donor atom, acceptor molecule, acceptor atom, score
      P1  H  7989  7998       L1    12  0.92
      P1  H  7997  8008       L1    13  0.09

> <Gold.Chemscore.Hbond.Weighted>
-6.6460

> <Gold.Chemscore.Metal.Weighted>
-0.0000

> <Gold.Chemscore.Lipo.Weighted>
-9.4542

> <Gold.Chemscore.Internal_Hbond.Weighted>
0.0000

> <Gold.Chemscore.DEClash.Weighted>
0.0082

> <Gold.Chemscore.DEInternal.Weighted>
1.7558

> <Gold.Chemscore.Rot.Weighted>
5.0233

> <Gold.Chemscore.Internal.Correction.Weighted>
   9.000000E+99

> <Gold.Protein.RotatedTorsions>
[ 6907 6896 6895 6894 ] final  -17.16 input  -60.11 | X-H torsion
[ 7974 7965 7964 7962 ] final   87.87 input  175.53 | X-H torsion
[ 8008 7997 7996 7995 ] final  -48.84 input   59.86 | X-H torsion
[ 10167 10162 10161 10158 ] final -167.79 input  -65.29 | X-H torsion
[ 10718 10713 10712 10709 ] final   57.11 input   66.30 | X-H torsion
[ 10763 10752 10751 10750 ] final -107.12 input  -60.55 | X-H torsion
[ 11005 11000 10999 10996 ] final  -21.63 input  -57.11 | X-H torsion

> <Gold.Protein.ActiveResidues>
 VAL166  LYS551  ARG553  GLY616  TRP617  ASP618  TYR619  PRO620  LYS621  CYS622 
 ASP623  PHE694  ASN695  SER759  ASP760  ASP761  ALA762  ILE779  LEU786  VAL792 
 PHE793  MET794  SER795  GLU796  ALA797  LYS798  CYS799  TRP800  GLU811  SER814 

> <Gold.Protein.RotatedAtoms>
  151.2975  135.0759  159.9226 H   0  0  0  0  0  0  0  0  0  0  0  0  # atno 6907 bound_to 6896
  152.5304  133.9868  159.7842 H   0  0  0  0  0  0  0  0  0  0  0  0  # atno 6908 bound_to 6896
  151.0148  133.5880  159.2708 H   0  0  0  0  0  0  0  0  0  0  0  0  # atno 6909 bound_to 6896
  145.5532  139.2297  143.2501 H   0  0  0  0  0  0  0  0  0  0  0  0  # atno 7974 bound_to 7965
  154.4035  140.1311  156.4405 H   0  0  0  0  0  0  0  0  0  0  0  0  # atno 8008 bound_to 7997
  155.7463  140.3489  155.5108 H   0  0  0  0  0  0  0  0  0  0  0  0  # atno 8009 bound_to 7997
  155.8992  140.1016  157.1353 H   0  0  0  0  0  0  0  0  0  0  0  0  # atno 8010 bound_to 7997
  139.6027  144.0978  152.1759 H   0  0  0  0  0  0  0  0  0  0  0  0  # atno 10167 bound_to 10162
  157.5487  130.8750  149.8930 H   0  0  0  0  0  0  0  0  0  0  0  0  # atno 10718 bound_to 10713
  154.8055  135.4687  154.0382 H   0  0  0  0  0  0  0  0  0  0  0  0  # atno 10763 bound_to 10752
  153.1854  135.6847  153.8429 H   0  0  0  0  0  0  0  0  0  0  0  0  # atno 10764 bound_to 10752
  153.7965  135.3236  155.3362 H   0  0  0  0  0  0  0  0  0  0  0  0  # atno 10765 bound_to 10752
  140.8580  133.7809  156.0041 H   0  0  0  0  0  0  0  0  0  0  0  0  # atno 11005 bound_to 11000
  146.1902  140.6355  142.9149 LP  0  0  0  0  0  0  0  0  0  0  0  0  # atno 17320 bound_to 7965
  144.7519  140.5212  143.6796 LP  0  0  0  0  0  0  0  0  0  0  0  0  # atno 17321 bound_to 7965
  140.0578  144.5881  150.7286 LP  0  0  0  0  0  0  0  0  0  0  0  0  # atno 17342 bound_to 10162
  140.7261  143.2638  151.4114 LP  0  0  0  0  0  0  0  0  0  0  0  0  # atno 17343 bound_to 10162
  156.0558  130.3709  150.1095 LP  0  0  0  0  0  0  0  0  0  0  0  0  # atno 17370 bound_to 10713
  156.9270  130.9701  151.3539 LP  0  0  0  0  0  0  0  0  0  0  0  0  # atno 17371 bound_to 10713
  140.8716  134.2720  157.5188 LP  0  0  0  0  0  0  0  0  0  0  0  0  # atno 17394 bound_to 11000
  139.8706  134.9570  156.4254 LP  0  0  0  0  0  0  0  0  0  0  0  0  # atno 17395 bound_to 11000

$$$$
