AV-unprocessed.smi:228|AV-procd|sdf|1745|dock4
  -GOLD-   2262020253D 1   1.00000     0.00000
 Structure written by MMmdl.
 59 62  0  0  0  0  0  0  0  0  1 V2000
  147.0680  139.7957  155.9374 C   0  0  0  0  0  0  0  0  0  0  0  0
  147.3392  138.9250  154.7972 N   0  0  0  0  0  0  0  0  0  0  0  0
  148.7219  138.8061  154.3395 C   0  0  0  0  0  0  0  0  0  0  0  0
  149.5125  140.1253  154.4972 C   0  0  2  0  0  0  0  0  0  0  0  0
  149.2767  140.8921  153.3330 O   0  0  0  0  0  0  0  0  0  0  0  0
  151.0352  139.8877  154.6167 C   0  0  0  0  0  0  0  0  0  0  0  0
  151.4890  139.3367  155.8951 N   0  0  0  0  0  0  0  0  0  0  0  0
  151.7099  140.3655  156.9090 C   0  0  0  0  0  0  0  0  0  0  0  0
  152.2198  139.7692  158.2331 C   0  0  0  0  0  0  0  0  0  0  0  0
  153.4088  139.0222  157.9979 O   0  0  0  0  0  0  0  0  0  0  0  0
  153.2194  137.9761  157.0511 C   0  0  0  0  0  0  0  0  0  0  0  0
  152.7190  138.5700  155.7233 C   0  0  0  0  0  0  0  0  0  0  0  0
  146.4908  137.8926  154.5483 C   0  0  0  0  0  0  0  0  0  0  0  0
  146.0147  137.1615  155.5914 N   0  0  0  0  0  0  0  0  0  0  0  0
  145.1972  136.1272  155.3780 C   0  0  0  0  0  0  0  0  0  0  0  0
  144.7280  135.6612  154.2202 N   0  0  0  0  0  0  0  0  0  0  0  0
  145.1781  136.4021  153.1676 C   0  0  0  0  0  0  0  0  0  0  0  0
  146.0581  137.5201  153.2416 C   0  0  0  0  0  0  0  0  0  0  0  0
  146.2966  138.0113  151.9639 N   0  0  0  0  0  0  0  0  0  0  0  0
  145.6207  137.2163  151.1813 C   0  0  0  0  0  0  0  0  0  0  0  0
  144.8889  136.2408  151.8220 N   0  0  0  0  0  0  0  0  0  0  0  0
  144.0890  135.2119  151.2109 C   0  0  0  0  0  0  0  0  0  0  0  0
  143.8698  133.8564  151.8971 C   0  0  0  0  0  0  0  0  0  0  0  0
  144.9149  133.2051  150.9657 C   0  0  0  0  0  0  0  0  0  0  0  0
  146.3315  133.1336  151.5746 C   0  0  0  0  0  0  0  0  0  0  0  0
  147.3317  132.9544  150.5930 O   0  0  0  0  0  0  0  0  0  0  0  0
  144.5173  131.8145  150.4389 C   0  0  0  0  0  0  0  0  0  0  0  0
  143.2222  131.8106  149.8745 O   0  0  0  0  0  0  0  0  0  0  0  0
  144.6317  134.3995  150.0290 C   0  0  0  0  0  0  0  0  0  0  0  0
  146.0269  140.1210  155.9390 H   0  0  0  0  0  0  0  0  0  0  0  0
  147.6948  140.6869  155.9008 H   0  0  0  0  0  0  0  0  0  0  0  0
  147.2734  139.2779  156.8748 H   0  0  0  0  0  0  0  0  0  0  0  0
  149.1767  138.0256  154.9498 H   0  0  0  0  0  0  0  0  0  0  0  0
  148.7877  138.4207  153.3215 H   0  0  0  0  0  0  0  0  0  0  0  0
  149.1563  140.6800  155.3666 H   0  0  0  0  0  0  0  0  0  0  0  0
  149.0958  140.3005  152.6181 H   0  0  0  0  0  0  0  0  0  0  0  0
  151.3159  139.1682  153.8467 H   0  0  0  0  0  0  0  0  0  0  0  0
  151.5853  140.7987  154.3739 H   0  0  0  0  0  0  0  0  0  0  0  0
  152.4291  141.0990  156.5416 H   0  0  0  0  0  0  0  0  0  0  0  0
  150.7841  140.9049  157.1063 H   0  0  0  0  0  0  0  0  0  0  0  0
  152.4331  140.5628  158.9491 H   0  0  0  0  0  0  0  0  0  0  0  0
  151.4621  139.1264  158.6839 H   0  0  0  0  0  0  0  0  0  0  0  0
  154.1650  137.4551  156.9014 H   0  0  0  0  0  0  0  0  0  0  0  0
  152.5086  137.2462  157.4415 H   0  0  0  0  0  0  0  0  0  0  0  0
  152.5564  137.7629  155.0082 H   0  0  0  0  0  0  0  0  0  0  0  0
  153.4965  139.2085  155.3005 H   0  0  0  0  0  0  0  0  0  0  0  0
  144.8736  135.5959  156.2608 H   0  0  0  0  0  0  0  0  0  0  0  0
  145.6389  137.3316  150.1077 H   0  0  0  0  0  0  0  0  0  0  0  0
  143.1399  135.6873  150.9607 H   0  0  0  0  0  0  0  0  0  0  0  0
  144.1243  133.8124  152.9556 H   0  0  0  0  0  0  0  0  0  0  0  0
  142.8586  133.4793  151.7348 H   0  0  0  0  0  0  0  0  0  0  0  0
  146.5724  134.0469  152.1182 H   0  0  0  0  0  0  0  0  0  0  0  0
  146.4063  132.3236  152.3006 H   0  0  0  0  0  0  0  0  0  0  0  0
  147.7842  132.1437  150.7685 H   0  0  0  0  0  0  0  0  0  0  0  0
  145.2281  131.4548  149.6945 H   0  0  0  0  0  0  0  0  0  0  0  0
  144.5210  131.0797  151.2446 H   0  0  0  0  0  0  0  0  0  0  0  0
  142.8589  132.6798  149.9477 H   0  0  0  0  0  0  0  0  0  0  0  0
  143.8581  134.1821  149.2905 H   0  0  0  0  0  0  0  0  0  0  0  0
  145.5178  134.8100  149.5452 H   0  0  0  0  0  0  0  0  0  0  0  0
  1  2  1  0  0  0  0
  1 30  1  0  0  0  0
  1 31  1  0  0  0  0
  1 32  1  0  0  0  0
  2  3  1  0  0  0  0
  2 13  1  0  0  0  0
  3  4  1  0  0  0  0
  3 33  1  0  0  0  0
  3 34  1  0  0  0  0
  4  5  1  0  0  0  0
  4  6  1  0  0  0  0
  4 35  1  0  0  0  0
  5 36  1  0  0  0  0
  6  7  1  0  0  0  0
  6 37  1  0  0  0  0
  6 38  1  0  0  0  0
  7 12  1  0  0  0  0
  7  8  1  0  0  0  0
  8  9  1  0  0  0  0
  8 39  1  0  0  0  0
  8 40  1  0  0  0  0
  9 10  1  0  0  0  0
  9 41  1  0  0  0  0
  9 42  1  0  0  0  0
 10 11  1  0  0  0  0
 11 12  1  0  0  0  0
 11 43  1  0  0  0  0
 11 44  1  0  0  0  0
 12 45  1  0  0  0  0
 12 46  1  0  0  0  0
 13 18  1  0  0  0  0
 13 14  2  0  0  0  0
 14 15  1  0  0  0  0
 15 16  2  0  0  0  0
 15 47  1  0  0  0  0
 16 17  1  0  0  0  0
 17 21  1  0  0  0  0
 17 18  2  0  0  0  0
 18 19  1  0  0  0  0
 19 20  2  0  0  0  0
 20 21  1  0  0  0  0
 20 48  1  0  0  0  0
 21 22  1  0  0  0  0
 22 29  1  0  0  0  0
 22 23  1  0  0  0  0
 22 49  1  0  0  0  0
 23 24  1  0  0  0  0
 23 50  1  0  0  0  0
 23 51  1  0  0  0  0
 24 25  1  0  0  0  0
 24 27  1  0  0  0  0
 24 29  1  0  0  0  0
 25 26  1  0  0  0  0
 25 52  1  0  0  0  0
 25 53  1  0  0  0  0
 26 54  1  0  0  0  0
 27 28  1  0  0  0  0
 27 55  1  0  0  0  0
 27 56  1  0  0  0  0
 28 57  1  0  0  0  0
 29 58  1  0  0  0  0
 29 59  1  0  0  0  0
M  END
> <s_m_source_file>
AV-unprocessed.smi

> <i_m_source_file_index>
228

> <i_lp_mmshare_version>
43012

> <i_f3d_flags>
0

> <s_epik_input>
W0NIMl0xW0NIMl1PW0NIMl1bQ0gyXU4xW0NIMl1bQ0BASF0oW09IXSlbQ0gyXU4oW0NIM10pYyhuW2NIXW4yKWMoYzIzKW5bY0hdbjNbQ0hdKFtDSDJdNClbQ0gyXUM0KFtDSDJdW09IXSlbQ0gyXVtPSF0=

> <s_epik_cmdline>
J2VwaWtfcHl0aG9uJywgJy1waCcsICc3LjAnLCAnLXRuJywgJzgnLCAnLW1hJywgJzIwMCcsICctbWV0YWxfYmluZGluZycsICctaW1hZScsICc8aW5maWxlLm1hZT4nLCAnLW9tYWUnLCAnPG91dGZpbGUubWFlPic=

> <r_lp_tautomer_probability>
1

> <r_epik_Ionization_Penalty>
0.423559

> <r_epik_Ionization_Penalty_Charging>
0

> <r_epik_Ionization_Penalty_Neutral>
0.423559

> <r_epik_State_Penalty>
0.438466

> <r_epik_Charging_Adjusted_Penalty>
0.438466

> <i_epik_Tot_Q>
0

> <i_epik_Tot_abs_Q>
0

> <r_epik_Metal_State_Penalty>
0.436601

> <b_epik_Metal_Only>
0

> <s_lp_Force_Field>
OPLS_2005

> <r_lp_Energy>
66.0814

> <b_lp_Chiralities_Consistent>
1

> <s_lp_Variant>
AV-unprocessed.smi:228-3

> <Gold.Version>
5.8.1

> <Gold.Id.Protein>
6NUR|6NUR_protein|mol2

> <Gold.PLP.Fitness>
49.7682

> <Gold.PLP.PLP>
-38.0515

> <Gold.PLP.part.hbond>
-6.4367

> <Gold.PLP.part.metal>
0.0000

> <Gold.PLP.part.buried>
2.2785

> <Gold.PLP.part.nonpolar>
-33.6268

> <Gold.PLP.part.repulsive>
0.3527

> <Gold.PLP.ligand.clash>
0.0000

> <Gold.PLP.ligand.torsion>
2.5089

> <Gold.PLP.Chemscore.Hbond>
4.7120

> <Gold.PLP.Chemscore.CHOScore>
0.4221

> <Gold.PLP.Chemscore.Metal>
0.0000

> <Gold.Chemscore.Hbonds>
donor molecule, donor type, donor heavy atom, donor atom, acceptor molecule, acceptor atom, score
      L1  H     5    36       P1  7957  0.77
      L1  H    26    54       P1 10747  0.99
      P1  H  7997  8008       L1    10  1.00
      P1  H  8011  8017       L1     5  0.95
      P1  H 10785 10796       L1    28  1.00
      L1  C    20    48       P1 10171  0.43

> <Gold.PLP.Chemscore.Internal.Correction>
1.3322

> <Gold.Rescore>
     Score         DG    S(hbond)    S(metal)    S(lipo)     H(rot)  DE(clash)    DE(int)     intcor
     10.15     -16.49       3.65        0.00      91.99       4.66       3.67       2.67       ----

> <Gold.Chemscore.Fitness>
10.1504

> <Gold.Chemscore.DG>
-16.4897

> <Gold.Chemscore.ZeroCoef>
-5.4800

> <Gold.Chemscore.Hbond>
3.6456

> <Gold.Chemscore.Metal>
0.0000

> <Gold.Chemscore.Lipo>
91.9928

> <Gold.Chemscore.Internal_Hbond>
0.0000

> <Gold.Chemscore.DEClash>
3.6688

> <Gold.Chemscore.DEInternal>
2.6705

> <Gold.Chemscore.Rot>
4.6600

> <Gold.Chemscore.Internal.Correction>
   9.000000E+99

> <Gold.Chemscore.Hbonds>
donor molecule, donor type, donor heavy atom, donor atom, acceptor molecule, acceptor atom, score
      L1  H     5    36       P1  7957  0.73
      L1  H    26    54       P1 10747  0.94
      P1  H  7997  8008       L1    10  0.21
      P1  H  8011  8017       L1     5  0.21
      P1  H 10785 10796       L1    28  0.42

> <Gold.Chemscore.Hbond.Weighted>
-12.1762

> <Gold.Chemscore.Metal.Weighted>
-0.0000

> <Gold.Chemscore.Lipo.Weighted>
-10.7632

> <Gold.Chemscore.Internal_Hbond.Weighted>
0.0000

> <Gold.Chemscore.DEClash.Weighted>
3.6688

> <Gold.Chemscore.DEInternal.Weighted>
2.6705

> <Gold.Chemscore.Rot.Weighted>
11.9297

> <Gold.Chemscore.Internal.Correction.Weighted>
   9.000000E+99

> <Gold.Protein.RotatedTorsions>
[ 6907 6896 6895 6894 ] final -161.75 input  -60.11 | X-H torsion
[ 7974 7965 7964 7962 ] final -147.35 input  175.53 | X-H torsion
[ 8008 7997 7996 7995 ] final  -94.49 input   59.86 | X-H torsion
[ 10167 10162 10161 10158 ] final -136.64 input  -65.29 | X-H torsion
[ 10718 10713 10712 10709 ] final  140.77 input   66.30 | X-H torsion
[ 10763 10752 10751 10750 ] final -125.20 input  -60.55 | X-H torsion
[ 11005 11000 10999 10996 ] final   70.41 input  -57.11 | X-H torsion

> <Gold.Protein.ActiveResidues>
 VAL166  LYS551  ARG553  GLY616  TRP617  ASP618  TYR619  PRO620  LYS621  CYS622 
 ASP623  PHE694  ASN695  SER759  ASP760  ASP761  ALA762  ILE779  LEU786  VAL792 
 PHE793  MET794  SER795  GLU796  ALA797  LYS798  CYS799  TRP800  GLU811  SER814 

> <Gold.Protein.RotatedAtoms>
  151.3696  133.3860  159.2697 H   0  0  0  0  0  0  0  0  0  0  0  0  # atno 6907 bound_to 6896
  150.9662  134.9043  159.7771 H   0  0  0  0  0  0  0  0  0  0  0  0  # atno 6908 bound_to 6896
  152.5168  134.3656  159.9352 H   0  0  0  0  0  0  0  0  0  0  0  0  # atno 6909 bound_to 6896
  144.8099  140.5338  143.5649 H   0  0  0  0  0  0  0  0  0  0  0  0  # atno 7974 bound_to 7965
  154.7492  140.0489  157.0878 H   0  0  0  0  0  0  0  0  0  0  0  0  # atno 8008 bound_to 7997
  155.0079  140.3132  155.4822 H   0  0  0  0  0  0  0  0  0  0  0  0  # atno 8009 bound_to 7997
  156.2881  140.2189  156.5192 H   0  0  0  0  0  0  0  0  0  0  0  0  # atno 8010 bound_to 7997
  139.8657  143.7020  152.2645 H   0  0  0  0  0  0  0  0  0  0  0  0  # atno 10167 bound_to 10162
  157.3995  131.1015  151.0566 H   0  0  0  0  0  0  0  0  0  0  0  0  # atno 10718 bound_to 10713
  154.8733  135.4038  154.3229 H   0  0  0  0  0  0  0  0  0  0  0  0  # atno 10763 bound_to 10752
  153.4054  135.7019  153.6402 H   0  0  0  0  0  0  0  0  0  0  0  0  # atno 10764 bound_to 10752
  153.5127  135.3704  155.2565 H   0  0  0  0  0  0  0  0  0  0  0  0  # atno 10765 bound_to 10752
  139.9599  134.7079  156.0669 H   0  0  0  0  0  0  0  0  0  0  0  0  # atno 11005 bound_to 11000
  145.5349  139.1475  143.3479 LP  0  0  0  0  0  0  0  0  0  0  0  0  # atno 17320 bound_to 7965
  146.2396  140.5489  142.8940 LP  0  0  0  0  0  0  0  0  0  0  0  0  # atno 17321 bound_to 7965
  139.7331  144.7577  151.0770 LP  0  0  0  0  0  0  0  0  0  0  0  0  # atno 17342 bound_to 10162
  140.7768  143.5064  150.9707 LP  0  0  0  0  0  0  0  0  0  0  0  0  # atno 17343 bound_to 10162
  157.1570  130.6209  149.5599 LP  0  0  0  0  0  0  0  0  0  0  0  0  # atno 17370 bound_to 10713
  155.9819  130.4830  150.6855 LP  0  0  0  0  0  0  0  0  0  0  0  0  # atno 17371 bound_to 10713
  141.1275  133.6595  156.3376 LP  0  0  0  0  0  0  0  0  0  0  0  0  # atno 17394 bound_to 11000
  140.5523  134.6015  157.5411 LP  0  0  0  0  0  0  0  0  0  0  0  0  # atno 17395 bound_to 11000

$$$$
