AV-unprocessed.smi:1123|AV-procd|sdf|4830|dock8
  -GOLD-   22720 3393D 1   1.00000     0.00000
 Structure written by MMmdl.
 37 38  0  0  0  0  0  0  0  0  1 V2000
  148.3024  138.8994  153.9421 C   0  0  0  0  0  0  0  0  0  0  0  0
  149.6034  139.7075  154.1237 C   0  0  1  0  0  0  0  0  0  0  0  0
  149.4280  140.9244  155.0472 C   0  0  0  0  0  0  0  0  0  0  0  0
  148.6682  141.8439  154.7406 O   0  0  0  0  0  0  0  0  0  0  0  0
  150.1440  140.9158  156.1831 N   0  0  0  0  0  0  0  0  0  0  0  0
  150.1169  141.9606  157.1990 C   0  0  0  0  0  0  0  0  0  0  0  0
  150.9743  141.5784  158.4203 C   0  0  0  0  0  0  0  0  0  0  0  0
  151.0265  142.5875  159.4764 N   0  0  0  0  0  0  0  0  0  0  0  0
  151.1254  143.9482  158.9523 C   0  0  0  0  0  0  0  0  0  0  0  0
  151.2091  144.9932  160.0791 C   0  0  0  0  0  0  0  0  0  0  0  0
  152.3101  144.6944  160.9310 O   0  0  0  0  0  0  0  0  0  0  0  0
  152.2252  143.3920  161.4997 C   0  0  0  0  0  0  0  0  0  0  0  0
  152.1498  142.3444  160.3756 C   0  0  0  0  0  0  0  0  0  0  0  0
  150.7055  138.8731  154.5868 N   0  0  0  0  0  0  0  0  0  0  0  0
  150.7484  137.5591  154.8175 C   0  0  0  0  0  0  0  0  0  0  0  0
  151.9393  137.1168  155.1958 N   0  0  0  0  0  0  0  0  0  0  0  0
  152.6377  138.2903  155.1673 C   0  0  0  0  0  0  0  0  0  0  0  0
  151.9494  139.3708  154.7998 N   0  0  0  0  0  0  0  0  0  0  0  0
  147.5043  139.5248  153.5407 H   0  0  0  0  0  0  0  0  0  0  0  0
  147.9481  138.4752  154.8826 H   0  0  0  0  0  0  0  0  0  0  0  0
  148.4523  138.0749  153.2447 H   0  0  0  0  0  0  0  0  0  0  0  0
  149.8830  140.0897  153.1406 H   0  0  0  0  0  0  0  0  0  0  0  0
  150.7457  140.1245  156.3595 H   0  0  0  0  0  0  0  0  0  0  0  0
  150.4911  142.8719  156.7338 H   0  0  0  0  0  0  0  0  0  0  0  0
  149.0882  142.1631  157.5014 H   0  0  0  0  0  0  0  0  0  0  0  0
  150.5652  140.6589  158.8409 H   0  0  0  0  0  0  0  0  0  0  0  0
  151.9862  141.3325  158.0946 H   0  0  0  0  0  0  0  0  0  0  0  0
  152.0052  144.0359  158.3132 H   0  0  0  0  0  0  0  0  0  0  0  0
  150.2616  144.1791  158.3304 H   0  0  0  0  0  0  0  0  0  0  0  0
  151.3411  145.9914  159.6620 H   0  0  0  0  0  0  0  0  0  0  0  0
  150.2855  145.0083  160.6598 H   0  0  0  0  0  0  0  0  0  0  0  0
  153.1016  143.2172  162.1235 H   0  0  0  0  0  0  0  0  0  0  0  0
  151.3506  143.3266  162.1488 H   0  0  0  0  0  0  0  0  0  0  0  0
  152.0625  141.3509  160.8167 H   0  0  0  0  0  0  0  0  0  0  0  0
  153.0839  142.3538  159.8119 H   0  0  0  0  0  0  0  0  0  0  0  0
  149.8915  136.9118  154.7030 H   0  0  0  0  0  0  0  0  0  0  0  0
  153.6863  138.3492  155.4192 H   0  0  0  0  0  0  0  0  0  0  0  0
  1  2  1  0  0  0  0
  1 19  1  0  0  0  0
  1 20  1  0  0  0  0
  1 21  1  0  0  0  0
  2  3  1  0  0  0  0
  2 14  1  0  0  0  0
  2 22  1  0  0  0  0
  3  4  2  0  0  0  0
  3  5  1  0  0  0  0
  5  6  1  0  0  0  0
  5 23  1  0  0  0  0
  6  7  1  0  0  0  0
  6 24  1  0  0  0  0
  6 25  1  0  0  0  0
  7  8  1  0  0  0  0
  7 26  1  0  0  0  0
  7 27  1  0  0  0  0
  8 13  1  0  0  0  0
  8  9  1  0  0  0  0
  9 10  1  0  0  0  0
  9 28  1  0  0  0  0
  9 29  1  0  0  0  0
 10 11  1  0  0  0  0
 10 30  1  0  0  0  0
 10 31  1  0  0  0  0
 11 12  1  0  0  0  0
 12 13  1  0  0  0  0
 12 32  1  0  0  0  0
 12 33  1  0  0  0  0
 13 34  1  0  0  0  0
 13 35  1  0  0  0  0
 14 18  1  0  0  0  0
 14 15  1  0  0  0  0
 15 16  2  0  0  0  0
 15 36  1  0  0  0  0
 16 17  1  0  0  0  0
 17 18  2  0  0  0  0
 17 37  1  0  0  0  0
M  END
> <s_m_source_file>
AV-unprocessed.smi

> <i_m_source_file_index>
1123

> <i_lp_mmshare_version>
43012

> <i_f3d_flags>
0

> <s_epik_input>
bjFbY0hdbltjSF1uMVtDQEhdKFtDSDNdKUMoPU8pW05IXVtDSDJdW0NIMl1OMltDSDJdW0NIMl1PW0NIMl1bQ0gyXTI=

> <s_epik_cmdline>
J2VwaWtfcHl0aG9uJywgJy1waCcsICc3LjAnLCAnLXRuJywgJzgnLCAnLW1hJywgJzIwMCcsICctbWV0YWxfYmluZGluZycsICctaW1hZScsICc8aW5maWxlLm1hZT4nLCAnLW9tYWUnLCAnPG91dGZpbGUubWFlPic=

> <r_lp_tautomer_probability>
1

> <r_epik_Ionization_Penalty>
0.211373

> <r_epik_Ionization_Penalty_Charging>
0

> <r_epik_Ionization_Penalty_Neutral>
0.211373

> <r_epik_State_Penalty>
0.201459

> <r_epik_Charging_Adjusted_Penalty>
0.201459

> <i_epik_Tot_Q>
0

> <i_epik_Tot_abs_Q>
0

> <r_epik_Metal_State_Penalty>
0.201458

> <b_epik_Metal_Only>
0

> <s_lp_Force_Field>
OPLS_2005

> <r_lp_Energy>
26.9465

> <b_lp_Chiralities_Consistent>
1

> <s_lp_Variant>
AV-unprocessed.smi:1123-2

> <Gold.Version>
5.8.1

> <Gold.Id.Protein>
6NUR|6NUR_protein|mol2

> <Gold.PLP.Fitness>
40.6073

> <Gold.PLP.PLP>
-35.6144

> <Gold.PLP.part.hbond>
-2.7750

> <Gold.PLP.part.metal>
0.0000

> <Gold.PLP.part.buried>
-5.3372

> <Gold.PLP.part.nonpolar>
-29.4326

> <Gold.PLP.part.repulsive>
0.5086

> <Gold.PLP.ligand.clash>
0.0000

> <Gold.PLP.ligand.torsion>
0.3302

> <Gold.PLP.Chemscore.Hbond>
1.8400

> <Gold.PLP.Chemscore.CHOScore>
0.0000

> <Gold.PLP.Chemscore.Metal>
0.0000

> <Gold.Chemscore.Hbonds>
donor molecule, donor type, donor heavy atom, donor atom, acceptor molecule, acceptor atom, score
      P1  H  7989  7998       L1    18  0.58
      P1  H 10752 10763       L1    16  0.98

> <Gold.PLP.Chemscore.Internal.Correction>
0.1332

> <Gold.Rescore>
     Score         DG    S(hbond)    S(metal)    S(lipo)     H(rot)  DE(clash)    DE(int)     intcor
     10.36     -12.04       1.84        0.00      60.53       2.61       0.06       1.61       ----

> <Gold.Chemscore.Fitness>
10.3601

> <Gold.Chemscore.DG>
-12.0350

> <Gold.Chemscore.ZeroCoef>
-5.4800

> <Gold.Chemscore.Hbond>
1.8425

> <Gold.Chemscore.Metal>
0.0000

> <Gold.Chemscore.Lipo>
60.5302

> <Gold.Chemscore.Internal_Hbond>
0.0000

> <Gold.Chemscore.DEClash>
0.0609

> <Gold.Chemscore.DEInternal>
1.6140

> <Gold.Chemscore.Rot>
2.6097

> <Gold.Chemscore.Internal.Correction>
   9.000000E+99

> <Gold.Chemscore.Hbonds>
donor molecule, donor type, donor heavy atom, donor atom, acceptor molecule, acceptor atom, score
      P1  H  7989  7998       L1    18  0.04
      P1  H 10752 10763       L1    16  0.81

> <Gold.Chemscore.Hbond.Weighted>
-6.1539

> <Gold.Chemscore.Metal.Weighted>
-0.0000

> <Gold.Chemscore.Lipo.Weighted>
-7.0820

> <Gold.Chemscore.Internal_Hbond.Weighted>
0.0000

> <Gold.Chemscore.DEClash.Weighted>
0.0609

> <Gold.Chemscore.DEInternal.Weighted>
1.6140

> <Gold.Chemscore.Rot.Weighted>
6.6809

> <Gold.Chemscore.Internal.Correction.Weighted>
   9.000000E+99

> <Gold.Protein.RotatedTorsions>
[ 6907 6896 6895 6894 ] final  156.43 input  -60.11 | X-H torsion
[ 7974 7965 7964 7962 ] final  -61.20 input  175.53 | X-H torsion
[ 8008 7997 7996 7995 ] final -112.87 input   59.86 | X-H torsion
[ 10167 10162 10161 10158 ] final  -16.52 input  -65.29 | X-H torsion
[ 10718 10713 10712 10709 ] final -144.71 input   66.30 | X-H torsion
[ 10763 10752 10751 10750 ] final   60.96 input  -60.55 | X-H torsion
[ 11005 11000 10999 10996 ] final  -63.13 input  -57.11 | X-H torsion

> <Gold.Protein.ActiveResidues>
 VAL166  LYS551  ARG553  GLY616  TRP617  ASP618  TYR619  PRO620  LYS621  CYS622 
 ASP623  PHE694  ASN695  SER759  ASP760  ASP761  ALA762  ILE779  LEU786  VAL792 
 PHE793  MET794  SER795  GLU796  ALA797  LYS798  CYS799  TRP800  GLU811  SER814 

> <Gold.Protein.RotatedAtoms>
  152.0298  133.3932  159.4292 H   0  0  0  0  0  0  0  0  0  0  0  0  # atno 6907 bound_to 6896
  150.6883  134.3534  159.4928 H   0  0  0  0  0  0  0  0  0  0  0  0  # atno 6908 bound_to 6896
  152.1318  134.9128  160.0609 H   0  0  0  0  0  0  0  0  0  0  0  0  # atno 6909 bound_to 6896
  145.8063  140.8625  143.0205 H   0  0  0  0  0  0  0  0  0  0  0  0  # atno 7974 bound_to 7965
  155.0119  140.0393  157.2403 H   0  0  0  0  0  0  0  0  0  0  0  0  # atno 8008 bound_to 7997
  154.7452  140.2756  155.6316 H   0  0  0  0  0  0  0  0  0  0  0  0  # atno 8009 bound_to 7997
  156.2873  140.2657  156.2191 H   0  0  0  0  0  0  0  0  0  0  0  0  # atno 8010 bound_to 7997
  140.7235  143.5108  150.9752 H   0  0  0  0  0  0  0  0  0  0  0  0  # atno 10167 bound_to 10162
  156.3735  130.7800  151.1984 H   0  0  0  0  0  0  0  0  0  0  0  0  # atno 10718 bound_to 10713
  152.9936  135.5518  154.5957 H   0  0  0  0  0  0  0  0  0  0  0  0  # atno 10763 bound_to 10752
  154.5309  135.2813  155.1183 H   0  0  0  0  0  0  0  0  0  0  0  0  # atno 10764 bound_to 10752
  154.2498  135.6401  153.5289 H   0  0  0  0  0  0  0  0  0  0  0  0  # atno 10765 bound_to 10752
  141.1383  133.6648  156.5633 H   0  0  0  0  0  0  0  0  0  0  0  0  # atno 11005 bound_to 11000
  144.6762  140.0332  143.7482 LP  0  0  0  0  0  0  0  0  0  0  0  0  # atno 17320 bound_to 7965
  145.9824  139.2951  143.1034 LP  0  0  0  0  0  0  0  0  0  0  0  0  # atno 17321 bound_to 7965
  139.8821  143.7058  152.3155 LP  0  0  0  0  0  0  0  0  0  0  0  0  # atno 17342 bound_to 10162
  139.7344  144.7574  151.0750 LP  0  0  0  0  0  0  0  0  0  0  0  0  # atno 17343 bound_to 10162
  157.7486  131.0365  150.4413 LP  0  0  0  0  0  0  0  0  0  0  0  0  # atno 17370 bound_to 10713
  156.4644  130.4039  149.6556 LP  0  0  0  0  0  0  0  0  0  0  0  0  # atno 17371 bound_to 10713
  140.3971  134.7389  157.4757 LP  0  0  0  0  0  0  0  0  0  0  0  0  # atno 17394 bound_to 11000
  140.0523  134.6112  155.8846 LP  0  0  0  0  0  0  0  0  0  0  0  0  # atno 17395 bound_to 11000

$$$$
