AV-unprocessed.smi:311|AV-procd|sdf|2299|dock6
  -GOLD-   2262022203D 1   1.00000     0.00000
 Structure written by MMmdl.
 44 46  0  0  0  0  0  0  0  0  2 V2000
  151.8225  129.5828  156.9469 C   0  0  0  0  0  0  0  0  0  0  0  0
  151.1983  130.9331  156.7424 C   0  0  0  0  0  0  0  0  0  0  0  0
  151.3041  131.8524  157.6870 N   0  0  0  0  0  0  0  0  0  0  0  0
  150.6235  132.9755  157.2074 O   0  0  0  0  0  0  0  0  0  0  0  0
  150.1310  132.6854  155.9767 C   0  0  0  0  0  0  0  0  0  0  0  0
  149.3535  133.7627  155.2995 C   0  0  0  0  0  0  0  0  0  0  0  0
  150.4600  131.4060  155.6198 C   0  0  0  0  0  0  0  0  0  0  0  0
  150.1181  130.6580  154.3567 C   0  0  0  0  0  0  0  0  0  0  0  0
  148.5987  130.5911  154.2155 C   0  0  0  0  0  0  0  0  0  0  0  0
  147.9136  130.1446  155.1353 O   0  0  0  0  0  0  0  0  0  0  0  0
  148.0842  131.0763  153.0754 N   0  0  0  0  0  0  0  0  0  0  0  0
  146.6612  131.2427  152.8019 C   0  0  2  0  0  0  0  0  0  0  0  0
  146.0999  130.1809  151.8404 C   0  0  0  0  0  0  0  0  0  0  0  0
  145.0795  130.9289  150.9585 C   0  0  0  0  0  0  0  0  0  0  0  0
  145.0487  132.3105  151.4771 N   0  3  2  0  0  0  0  0  0  0  0  0
  144.6340  133.3753  150.5377 C   0  0  0  0  0  0  0  0  0  0  0  0
  144.5911  134.7243  151.2839 C   0  0  0  0  0  0  0  0  0  0  0  0
  145.9213  135.0225  152.0058 C   0  0  0  0  0  0  0  0  0  0  0  0
  146.3476  133.8409  152.8981 C   0  0  0  0  0  0  0  0  0  0  0  0
  146.3761  132.5509  152.0617 C   0  0  1  0  0  0  0  0  0  0  0  0
  151.1420  128.7882  156.6405 H   0  0  0  0  0  0  0  0  0  0  0  0
  152.0796  129.4105  157.9925 H   0  0  0  0  0  0  0  0  0  0  0  0
  152.7350  129.4837  156.3594 H   0  0  0  0  0  0  0  0  0  0  0  0
  149.4133  133.6645  154.2157 H   0  0  0  0  0  0  0  0  0  0  0  0
  149.7342  134.7478  155.5698 H   0  0  0  0  0  0  0  0  0  0  0  0
  148.3030  133.7149  155.5859 H   0  0  0  0  0  0  0  0  0  0  0  0
  150.5521  131.1383  153.4787 H   0  0  0  0  0  0  0  0  0  0  0  0
  150.5143  129.6422  154.3721 H   0  0  0  0  0  0  0  0  0  0  0  0
  148.7279  131.4139  152.3741 H   0  0  0  0  0  0  0  0  0  0  0  0
  146.0802  131.2112  153.7264 H   0  0  0  0  0  0  0  0  0  0  0  0
  146.8861  129.7582  151.2132 H   0  0  0  0  0  0  0  0  0  0  0  0
  145.6395  129.3574  152.3875 H   0  0  0  0  0  0  0  0  0  0  0  0
  145.4104  130.9233  149.9187 H   0  0  0  0  0  0  0  0  0  0  0  0
  144.0864  130.4807  151.0001 H   0  0  0  0  0  0  0  0  0  0  0  0
  145.3310  133.4242  149.6997 H   0  0  0  0  0  0  0  0  0  0  0  0
  143.6513  133.1400  150.1279 H   0  0  0  0  0  0  0  0  0  0  0  0
  144.3553  135.5295  150.5873 H   0  0  0  0  0  0  0  0  0  0  0  0
  143.7828  134.7055  152.0161 H   0  0  0  0  0  0  0  0  0  0  0  0
  146.6989  135.2167  151.2658 H   0  0  0  0  0  0  0  0  0  0  0  0
  145.8299  135.9302  152.6030 H   0  0  0  0  0  0  0  0  0  0  0  0
  147.3298  134.0374  153.3292 H   0  0  0  0  0  0  0  0  0  0  0  0
  145.6534  133.7336  153.7326 H   0  0  0  0  0  0  0  0  0  0  0  0
  147.0966  132.6644  151.2483 H   0  0  0  0  0  0  0  0  0  0  0  0
  144.3941  132.3150  152.2464 H   0  0  0  0  0  0  0  0  0  0  0  0
  1  2  1  0  0  0  0
  1 21  1  0  0  0  0
  1 22  1  0  0  0  0
  1 23  1  0  0  0  0
  2  7  1  0  0  0  0
  2  3  2  0  0  0  0
  3  4  1  0  0  0  0
  4  5  1  0  0  0  0
  5  6  1  0  0  0  0
  5  7  2  0  0  0  0
  6 24  1  0  0  0  0
  6 25  1  0  0  0  0
  6 26  1  0  0  0  0
  7  8  1  0  0  0  0
  8  9  1  0  0  0  0
  8 27  1  0  0  0  0
  8 28  1  0  0  0  0
  9 10  2  0  0  0  0
  9 11  1  0  0  0  0
 11 12  1  0  0  0  0
 11 29  1  0  0  0  0
 12 20  1  0  0  0  0
 12 13  1  0  0  0  0
 12 30  1  0  0  0  0
 13 14  1  0  0  0  0
 13 31  1  0  0  0  0
 13 32  1  0  0  0  0
 14 15  1  0  0  0  0
 14 33  1  0  0  0  0
 14 34  1  0  0  0  0
 15 20  1  0  0  0  0
 15 16  1  0  0  0  0
 15 44  1  0  0  0  0
 16 17  1  0  0  0  0
 16 35  1  0  0  0  0
 16 36  1  0  0  0  0
 17 18  1  0  0  0  0
 17 37  1  0  0  0  0
 17 38  1  0  0  0  0
 18 19  1  0  0  0  0
 18 39  1  0  0  0  0
 18 40  1  0  0  0  0
 19 20  1  0  0  0  0
 19 41  1  0  0  0  0
 19 42  1  0  0  0  0
 20 43  1  0  0  0  0
M  CHG  1  15   1
M  END
> <s_m_source_file>
AV-unprocessed.smi

> <i_m_source_file_index>
311

> <i_lp_mmshare_version>
43012

> <i_f3d_flags>
0

> <s_epik_input>
W0NIM11jMW5vYyhbQ0gzXSljMVtDSDJdQyg9TylbTkhdW0NASF0oW0NIMl1bQ0gyXTIpW0NAQEhdKE4yMylbQ0gyXVtDSDJdW0NIMl1bQ0gyXTM=

> <s_epik_cmdline>
J2VwaWtfcHl0aG9uJywgJy1waCcsICc3LjAnLCAnLXRuJywgJzgnLCAnLW1hJywgJzIwMCcsICctbWV0YWxfYmluZGluZycsICctaW1hZScsICc8aW5maWxlLm1hZT4nLCAnLW9tYWUnLCAnPG91dGZpbGUubWFlPic=

> <r_epik_Ionization_Penalty>
0.00173669

> <r_epik_Ionization_Penalty_Charging>
0.0017366

> <r_epik_Ionization_Penalty_Neutral>
9.2145e-08

> <r_epik_State_Penalty>
0.00117499

> <r_epik_Charging_Adjusted_Penalty>
0.00291159

> <i_epik_Tot_Q>
1

> <i_epik_Tot_abs_Q>
1

> <r_epik_Metal_State_Penalty>
-0

> <b_epik_Metal_Only>
0

> <s_lp_Force_Field>
OPLS_2005

> <r_lp_Energy>
27.517

> <b_lp_Chiralities_Consistent>
1

> <s_lp_Variant>
AV-unprocessed.smi:311-3

> <Gold.Version>
5.8.1

> <Gold.Id.Protein>
6NUR|6NUR_protein|mol2

> <Gold.PLP.Fitness>
37.9953

> <Gold.PLP.PLP>
-33.0860

> <Gold.PLP.part.hbond>
-2.0000

> <Gold.PLP.part.metal>
0.0000

> <Gold.PLP.part.buried>
-5.8828

> <Gold.PLP.part.nonpolar>
-25.3713

> <Gold.PLP.part.repulsive>
0.0416

> <Gold.PLP.ligand.clash>
0.0000

> <Gold.PLP.ligand.torsion>
0.2585

> <Gold.PLP.Chemscore.Hbond>
1.8037

> <Gold.PLP.Chemscore.CHOScore>
0.0000

> <Gold.PLP.Chemscore.Metal>
0.0000

> <Gold.Chemscore.Hbonds>
donor molecule, donor type, donor heavy atom, donor atom, acceptor molecule, acceptor atom, score
      L1  H    11    29       P1 10747  0.42

> <Gold.PLP.Chemscore.Internal.Correction>
0.0154

> <Gold.Rescore>
     Score         DG    S(hbond)    S(metal)    S(lipo)     H(rot)  DE(clash)    DE(int)     intcor
     15.13     -15.34       0.99        0.00      85.77       1.36       0.08       0.13       ----

> <Gold.Chemscore.Fitness>
15.1316

> <Gold.Chemscore.DG>
-15.3353

> <Gold.Chemscore.ZeroCoef>
-5.4800

> <Gold.Chemscore.Hbond>
0.9861

> <Gold.Chemscore.Metal>
0.0000

> <Gold.Chemscore.Lipo>
85.7680

> <Gold.Chemscore.Internal_Hbond>
0.0000

> <Gold.Chemscore.DEClash>
0.0782

> <Gold.Chemscore.DEInternal>
0.1255

> <Gold.Chemscore.Rot>
1.3567

> <Gold.Chemscore.Internal.Correction>
   9.000000E+99

> <Gold.Chemscore.Hbonds>
donor molecule, donor type, donor heavy atom, donor atom, acceptor molecule, acceptor atom, score
      L1  H    11    29       P1 10747  0.39

> <Gold.Chemscore.Hbond.Weighted>
-3.2936

> <Gold.Chemscore.Metal.Weighted>
-0.0000

> <Gold.Chemscore.Lipo.Weighted>
-10.0349

> <Gold.Chemscore.Internal_Hbond.Weighted>
0.0000

> <Gold.Chemscore.DEClash.Weighted>
0.0782

> <Gold.Chemscore.DEInternal.Weighted>
0.1255

> <Gold.Chemscore.Rot.Weighted>
3.4731

> <Gold.Chemscore.Internal.Correction.Weighted>
   9.000000E+99

> <Gold.Protein.RotatedTorsions>
[ 6907 6896 6895 6894 ] final -178.69 input  -60.11 | X-H torsion
[ 7974 7965 7964 7962 ] final  -77.71 input  175.53 | X-H torsion
[ 8008 7997 7996 7995 ] final  -14.30 input   59.86 | X-H torsion
[ 10167 10162 10161 10158 ] final   15.66 input  -65.29 | X-H torsion
[ 10718 10713 10712 10709 ] final -174.34 input   66.30 | X-H torsion
[ 10763 10752 10751 10750 ] final  -93.64 input  -60.55 | X-H torsion
[ 11005 11000 10999 10996 ] final -137.76 input  -57.11 | X-H torsion

> <Gold.Protein.ActiveResidues>
 VAL166  LYS551  ARG553  GLY616  TRP617  ASP618  TYR619  PRO620  LYS621  CYS622 
 ASP623  PHE694  ASN695  SER759  ASP760  ASP761  ALA762  ILE779  LEU786  VAL792 
 PHE793  MET794  SER795  GLU796  ALA797  LYS798  CYS799  TRP800  GLU811  SER814 

> <Gold.Protein.RotatedAtoms>
  151.6413  133.3326  159.3130 H   0  0  0  0  0  0  0  0  0  0  0  0  # atno 6907 bound_to 6896
  150.8006  134.7102  159.6609 H   0  0  0  0  0  0  0  0  0  0  0  0  # atno 6908 bound_to 6896
  152.4098  134.6148  160.0086 H   0  0  0  0  0  0  0  0  0  0  0  0  # atno 6909 bound_to 6896
  145.5961  140.9419  143.1266 H   0  0  0  0  0  0  0  0  0  0  0  0  # atno 7974 bound_to 7965
  154.5221  140.2226  155.8956 H   0  0  0  0  0  0  0  0  0  0  0  0  # atno 8008 bound_to 7997
  156.1673  140.3129  155.8877 H   0  0  0  0  0  0  0  0  0  0  0  0  # atno 8009 bound_to 7997
  155.3629  140.0462  157.3037 H   0  0  0  0  0  0  0  0  0  0  0  0  # atno 8010 bound_to 7997
  140.5852  143.8904  150.6824 H   0  0  0  0  0  0  0  0  0  0  0  0  # atno 10167 bound_to 10162
  156.7836  130.9492  151.3120 H   0  0  0  0  0  0  0  0  0  0  0  0  # atno 10718 bound_to 10713
  154.6979  135.5187  153.8484 H   0  0  0  0  0  0  0  0  0  0  0  0  # atno 10763 bound_to 10752
  153.0681  135.6592  154.0318 H   0  0  0  0  0  0  0  0  0  0  0  0  # atno 10764 bound_to 10752
  154.0182  135.2996  155.3364 H   0  0  0  0  0  0  0  0  0  0  0  0  # atno 10765 bound_to 10752
  140.8680  134.2086  157.4668 H   0  0  0  0  0  0  0  0  0  0  0  0  # atno 11005 bound_to 11000
  144.7330  139.7669  143.7340 LP  0  0  0  0  0  0  0  0  0  0  0  0  # atno 17320 bound_to 7965
  146.1611  139.4725  142.9988 LP  0  0  0  0  0  0  0  0  0  0  0  0  # atno 17321 bound_to 7965
  140.2413  143.3662  152.1484 LP  0  0  0  0  0  0  0  0  0  0  0  0  # atno 17342 bound_to 10162
  139.5193  144.7018  151.5471 LP  0  0  0  0  0  0  0  0  0  0  0  0  # atno 17343 bound_to 10162
  157.6634  130.8986  149.9880 LP  0  0  0  0  0  0  0  0  0  0  0  0  # atno 17370 bound_to 10713
  156.1203  130.3646  149.9899 LP  0  0  0  0  0  0  0  0  0  0  0  0  # atno 17371 bound_to 10713
  139.8710  134.9761  156.4908 LP  0  0  0  0  0  0  0  0  0  0  0  0  # atno 17394 bound_to 11000
  140.8606  133.8062  155.9261 LP  0  0  0  0  0  0  0  0  0  0  0  0  # atno 17395 bound_to 11000

$$$$
