AV-unprocessed.smi:3287|AV-procd|sdf|12604|dock9
  -GOLD-   2272018533D 1   1.00000     0.00000
 Structure written by MMmdl.
 43 44  0  0  0  0  0  0  0  0  2 V2000
  148.8115  138.0914  155.5736 C   0  0  0  0  0  0  0  0  0  0  0  0
  149.5459  138.9383  154.5147 C   0  0  2  0  0  0  0  0  0  0  0  0
  151.0001  139.2350  154.9353 C   0  0  0  0  0  0  0  0  0  0  0  0
  151.0870  140.2800  156.0614 C   0  0  0  0  0  0  0  0  0  0  0  0
  150.3658  141.5869  155.6723 C   0  0  2  0  0  0  0  0  0  0  0  0
  150.3958  142.5825  156.7669 N   0  3  0  0  0  0  0  0  0  0  0  0
  151.7413  143.0571  157.1567 C   0  0  0  0  0  0  0  0  0  0  0  0
  151.6635  144.1453  158.2414 C   0  0  1  0  0  0  0  0  0  0  0  0
  150.3711  144.7198  158.2220 O   0  0  0  0  0  0  0  0  0  0  0  0
  152.0095  143.5757  159.6083 C   0  0  0  0  0  0  0  0  0  0  0  0
  152.4845  142.2537  159.7512 C   0  0  0  0  0  0  0  0  0  0  0  0
  152.8023  141.7877  161.0426 C   0  0  0  0  0  0  0  0  0  0  0  0
  152.6781  142.5435  162.1544 N   0  0  0  0  0  0  0  0  0  0  0  0
  152.2246  143.8072  162.0123 C   0  0  0  0  0  0  0  0  0  0  0  0
  151.8790  144.3696  160.7669 C   0  0  0  0  0  0  0  0  0  0  0  0
  148.9071  141.2975  155.2720 C   0  0  0  0  0  0  0  0  0  0  0  0
  148.8210  140.2560  154.1381 C   0  0  2  0  0  0  0  0  0  0  0  0
  147.3724  140.0427  153.6686 C   0  0  0  0  0  0  0  0  0  0  0  0
  148.6596  138.6359  156.5048 H   0  0  0  0  0  0  0  0  0  0  0  0
  149.3786  137.1906  155.8099 H   0  0  0  0  0  0  0  0  0  0  0  0
  147.8349  137.7642  155.2172 H   0  0  0  0  0  0  0  0  0  0  0  0
  149.5955  138.3246  153.6140 H   0  0  0  0  0  0  0  0  0  0  0  0
  151.4995  138.3150  155.2418 H   0  0  0  0  0  0  0  0  0  0  0  0
  151.5541  139.6019  154.0701 H   0  0  0  0  0  0  0  0  0  0  0  0
  150.6571  139.8749  156.9780 H   0  0  0  0  0  0  0  0  0  0  0  0
  152.1382  140.4713  156.2762 H   0  0  0  0  0  0  0  0  0  0  0  0
  150.8690  142.0232  154.8079 H   0  0  0  0  0  0  0  0  0  0  0  0
  149.8713  143.3887  156.4589 H   0  0  0  0  0  0  0  0  0  0  0  0
  152.3467  142.2216  157.5089 H   0  0  0  0  0  0  0  0  0  0  0  0
  152.2373  143.4629  156.2737 H   0  0  0  0  0  0  0  0  0  0  0  0
  152.3756  144.9383  158.0077 H   0  0  0  0  0  0  0  0  0  0  0  0
  149.9469  144.4754  157.4130 H   0  0  0  0  0  0  0  0  0  0  0  0
  152.6073  141.6080  158.8938 H   0  0  0  0  0  0  0  0  0  0  0  0
  153.1691  140.7819  161.1850 H   0  0  0  0  0  0  0  0  0  0  0  0
  152.1366  144.3896  162.9175 H   0  0  0  0  0  0  0  0  0  0  0  0
  151.5241  145.3884  160.7092 H   0  0  0  0  0  0  0  0  0  0  0  0
  148.3429  140.9515  156.1391 H   0  0  0  0  0  0  0  0  0  0  0  0
  148.4295  142.2238  154.9501 H   0  0  0  0  0  0  0  0  0  0  0  0
  149.3567  140.6743  153.2840 H   0  0  0  0  0  0  0  0  0  0  0  0
  146.7288  139.7042  154.4807 H   0  0  0  0  0  0  0  0  0  0  0  0
  147.3224  139.3033  152.8689 H   0  0  0  0  0  0  0  0  0  0  0  0
  146.9482  140.9704  153.2837 H   0  0  0  0  0  0  0  0  0  0  0  0
  149.9367  142.1958  157.5794 H   0  0  0  0  0  0  0  0  0  0  0  0
  1  2  1  0  0  0  0
  1 19  1  0  0  0  0
  1 20  1  0  0  0  0
  1 21  1  0  0  0  0
  2 17  1  0  0  0  0
  2  3  1  0  0  0  0
  2 22  1  0  0  0  0
  3  4  1  0  0  0  0
  3 23  1  0  0  0  0
  3 24  1  0  0  0  0
  4  5  1  0  0  0  0
  4 25  1  0  0  0  0
  4 26  1  0  0  0  0
  5  6  1  0  0  0  0
  5 16  1  0  0  0  0
  5 27  1  0  0  0  0
  6  7  1  0  0  0  0
  6 28  1  0  0  0  0
  6 43  1  0  0  0  0
  7  8  1  0  0  0  0
  7 29  1  0  0  0  0
  7 30  1  0  0  0  0
  8  9  1  0  0  0  0
  8 10  1  0  0  0  0
  8 31  1  0  0  0  0
  9 32  1  0  0  0  0
 10 15  1  0  0  0  0
 10 11  2  0  0  0  0
 11 12  1  0  0  0  0
 11 33  1  0  0  0  0
 12 13  2  0  0  0  0
 12 34  1  0  0  0  0
 13 14  1  0  0  0  0
 14 15  2  0  0  0  0
 14 35  1  0  0  0  0
 15 36  1  0  0  0  0
 16 17  1  0  0  0  0
 16 37  1  0  0  0  0
 16 38  1  0  0  0  0
 17 18  1  0  0  0  0
 17 39  1  0  0  0  0
 18 40  1  0  0  0  0
 18 41  1  0  0  0  0
 18 42  1  0  0  0  0
M  CHG  1   6   1
M  END
> <s_m_source_file>
AV-unprocessed.smi

> <i_m_source_file_index>
3287

> <i_lp_mmshare_version>
43012

> <i_f3d_flags>
0

> <s_epik_input>
W0NIM11bQ0BASF0xW0NIMl1bQ0gyXVtDQEhdKFtDSDJdW0NASF0xW0NIM10pW05IXVtDSDJdW0NASF0oW09IXSljMltjSF1bY0hdbltjSF1bY0hdMg==

> <s_epik_cmdline>
J2VwaWtfcHl0aG9uJywgJy1waCcsICc3LjAnLCAnLXRuJywgJzgnLCAnLW1hJywgJzIwMCcsICctbWV0YWxfYmluZGluZycsICctaW1hZScsICc8aW5maWxlLm1hZT4nLCAnLW9tYWUnLCAnPG91dGZpbGUubWFlPic=

> <r_lp_tautomer_probability>
1

> <r_epik_Ionization_Penalty>
0.00537262

> <r_epik_Ionization_Penalty_Charging>
0.00321624

> <r_epik_Ionization_Penalty_Neutral>
0.00215638

> <r_epik_State_Penalty>
-0

> <r_epik_Charging_Adjusted_Penalty>
0.00321624

> <i_epik_Tot_Q>
1

> <i_epik_Tot_abs_Q>
1

> <r_epik_Metal_State_Penalty>
-0

> <b_epik_Metal_Only>
0

> <s_lp_Force_Field>
OPLS_2005

> <r_lp_Energy>
17.5476

> <b_lp_Chiralities_Consistent>
1

> <s_lp_Variant>
AV-unprocessed.smi:3287-15

> <Gold.Version>
5.8.1

> <Gold.Id.Protein>
6NUR|6NUR_protein|mol2

> <Gold.PLP.Fitness>
53.1145

> <Gold.PLP.PLP>
-45.5685

> <Gold.PLP.part.hbond>
-3.0000

> <Gold.PLP.part.metal>
0.0000

> <Gold.PLP.part.buried>
-3.2321

> <Gold.PLP.part.nonpolar>
-37.6819

> <Gold.PLP.part.repulsive>
0.1147

> <Gold.PLP.ligand.clash>
0.0000

> <Gold.PLP.ligand.torsion>
0.6983

> <Gold.PLP.Chemscore.Hbond>
2.9750

> <Gold.PLP.Chemscore.CHOScore>
0.0000

> <Gold.PLP.Chemscore.Metal>
0.0000

> <Gold.Chemscore.Hbonds>
donor molecule, donor type, donor heavy atom, donor atom, acceptor molecule, acceptor atom, score
      L1  H     6    28       P1  8028  2.00
      L1  H     9    32       P1  8028  1.00

> <Gold.PLP.Chemscore.Internal.Correction>
0.0176

> <Gold.Rescore>
     Score         DG    S(hbond)    S(metal)    S(lipo)     H(rot)  DE(clash)    DE(int)     intcor
     18.57     -21.10       1.47        0.00     133.27       1.90       1.89       0.64       ----

> <Gold.Chemscore.Fitness>
18.5675

> <Gold.Chemscore.DG>
-21.0995

> <Gold.Chemscore.ZeroCoef>
-5.4800

> <Gold.Chemscore.Hbond>
1.4669

> <Gold.Chemscore.Metal>
0.0000

> <Gold.Chemscore.Lipo>
133.2715

> <Gold.Chemscore.Internal_Hbond>
0.0000

> <Gold.Chemscore.DEClash>
1.8889

> <Gold.Chemscore.DEInternal>
0.6430

> <Gold.Chemscore.Rot>
1.9035

> <Gold.Chemscore.Internal.Correction>
   9.000000E+99

> <Gold.Chemscore.Hbonds>
donor molecule, donor type, donor heavy atom, donor atom, acceptor molecule, acceptor atom, score
      L1  H     6    28       P1  8028  1.00
      L1  H     9    32       P1  8028  0.24

> <Gold.Chemscore.Hbond.Weighted>
-4.8996

> <Gold.Chemscore.Metal.Weighted>
-0.0000

> <Gold.Chemscore.Lipo.Weighted>
-15.5928

> <Gold.Chemscore.Internal_Hbond.Weighted>
0.0000

> <Gold.Chemscore.DEClash.Weighted>
1.8889

> <Gold.Chemscore.DEInternal.Weighted>
0.6430

> <Gold.Chemscore.Rot.Weighted>
4.8729

> <Gold.Chemscore.Internal.Correction.Weighted>
   9.000000E+99

> <Gold.Protein.RotatedTorsions>
[ 6907 6896 6895 6894 ] final   80.90 input  -60.11 | X-H torsion
[ 7974 7965 7964 7962 ] final  112.72 input  175.53 | X-H torsion
[ 8008 7997 7996 7995 ] final   54.03 input   59.86 | X-H torsion
[ 10167 10162 10161 10158 ] final  -68.35 input  -65.29 | X-H torsion
[ 10718 10713 10712 10709 ] final   69.88 input   66.30 | X-H torsion
[ 10763 10752 10751 10750 ] final  -35.94 input  -60.55 | X-H torsion
[ 11005 11000 10999 10996 ] final  138.34 input  -57.11 | X-H torsion

> <Gold.Protein.ActiveResidues>
 VAL166  LYS551  ARG553  GLY616  TRP617  ASP618  TYR619  PRO620  LYS621  CYS622 
 ASP623  PHE694  ASN695  SER759  ASP760  ASP761  ALA762  ILE779  LEU786  VAL792 
 PHE793  MET794  SER795  GLU796  ALA797  LYS798  CYS799  TRP800  GLU811  SER814 

> <Gold.Protein.RotatedAtoms>
  152.5250  134.3287  159.9174 H   0  0  0  0  0  0  0  0  0  0  0  0  # atno 6907 bound_to 6896
  151.3236  133.4023  159.2664 H   0  0  0  0  0  0  0  0  0  0  0  0  # atno 6908 bound_to 6896
  150.9938  134.9284  159.7972 H   0  0  0  0  0  0  0  0  0  0  0  0  # atno 6909 bound_to 6896
  145.2260  139.2840  143.4193 H   0  0  0  0  0  0  0  0  0  0  0  0  # atno 7974 bound_to 7965
  155.4780  140.3467  155.4335 H   0  0  0  0  0  0  0  0  0  0  0  0  # atno 8008 bound_to 7997
  156.1057  140.1447  156.9435 H   0  0  0  0  0  0  0  0  0  0  0  0  # atno 8009 bound_to 7997
  154.4723  140.0897  156.7153 H   0  0  0  0  0  0  0  0  0  0  0  0  # atno 8010 bound_to 7997
  140.5514  143.2312  151.6904 H   0  0  0  0  0  0  0  0  0  0  0  0  # atno 10167 bound_to 10162
  157.6370  130.9448  150.0574 H   0  0  0  0  0  0  0  0  0  0  0  0  # atno 10718 bound_to 10713
  153.8716  135.6830  153.4774 H   0  0  0  0  0  0  0  0  0  0  0  0  # atno 10763 bound_to 10752
  153.1284  135.4709  154.9307 H   0  0  0  0  0  0  0  0  0  0  0  0  # atno 10764 bound_to 10752
  154.7711  135.3239  154.8137 H   0  0  0  0  0  0  0  0  0  0  0  0  # atno 10765 bound_to 10752
  140.0177  134.9411  157.0410 H   0  0  0  0  0  0  0  0  0  0  0  0  # atno 11005 bound_to 11000
  146.3364  140.2581  142.8601 LP  0  0  0  0  0  0  0  0  0  0  0  0  # atno 17320 bound_to 7965
  144.9721  140.8378  143.5449 LP  0  0  0  0  0  0  0  0  0  0  0  0  # atno 17321 bound_to 7965
  139.5029  144.3811  152.0375 LP  0  0  0  0  0  0  0  0  0  0  0  0  # atno 17342 bound_to 10162
  140.2929  144.3734  150.6083 LP  0  0  0  0  0  0  0  0  0  0  0  0  # atno 17343 bound_to 10162
  156.1617  130.3644  149.9290 LP  0  0  0  0  0  0  0  0  0  0  0  0  # atno 17370 bound_to 10713
  156.7286  130.9034  151.3624 LP  0  0  0  0  0  0  0  0  0  0  0  0  # atno 17371 bound_to 10713
  140.4442  134.1649  155.7176 LP  0  0  0  0  0  0  0  0  0  0  0  0  # atno 17394 bound_to 11000
  141.1753  133.8526  157.1440 LP  0  0  0  0  0  0  0  0  0  0  0  0  # atno 17395 bound_to 11000

$$$$
