AV-unprocessed.smi:1131|AV-procd|sdf|4851|dock10
  -GOLD-   22720 3423D 1   1.00000     0.00000
 Structure written by MMmdl.
 33 34  0  0  0  0  0  0  0  0  1 V2000
  151.3332  139.9601  156.4361 O   0  0  0  0  0  0  0  0  0  0  0  0
  150.7726  141.0518  156.5445 C   0  0  0  0  0  0  0  0  0  0  0  0
  150.0382  141.6879  155.3552 C   0  0  0  0  0  0  0  0  0  0  0  0
  149.0505  140.7939  154.7327 N   0  0  0  0  0  0  0  0  0  0  0  0
  147.7079  141.1438  154.7093 C   0  0  0  0  0  0  0  0  0  0  0  0
  146.7444  140.3678  154.1586 C   0  0  0  0  0  0  0  0  0  0  0  0
  147.0868  139.0887  153.5462 C   0  0  0  0  0  0  0  0  0  0  0  0
  146.2874  138.3183  153.0192 O   0  0  0  0  0  0  0  0  0  0  0  0
  148.4466  138.7701  153.5933 N   0  0  0  0  0  0  0  0  0  0  0  0
  149.4441  139.5640  154.1615 C   0  0  0  0  0  0  0  0  0  0  0  0
  150.6149  139.1855  154.1540 O   0  0  0  0  0  0  0  0  0  0  0  0
  150.7450  141.7492  157.6888 N   0  0  0  0  0  0  0  0  0  0  0  0
  151.3728  141.3230  158.9323 C   0  0  0  0  0  0  0  0  0  0  0  0
  152.1690  142.4745  159.5681 C   0  0  1  0  0  0  0  0  0  0  0  0
  151.3591  143.7337  159.7963 C   0  0  0  0  0  0  0  0  0  0  0  0
  152.2225  144.4783  160.8094 C   0  0  0  0  0  0  0  0  0  0  0  0
  152.8467  143.4699  161.5985 O   0  0  0  0  0  0  0  0  0  0  0  0
  152.6861  142.1955  160.9812 C   0  0  0  0  0  0  0  0  0  0  0  0
  148.7308  137.8918  153.1847 H   0  0  0  0  0  0  0  0  0  0  0  0
  149.5508  142.5993  155.7046 H   0  0  0  0  0  0  0  0  0  0  0  0
  150.7675  142.0194  154.6133 H   0  0  0  0  0  0  0  0  0  0  0  0
  147.4077  142.0818  155.1544 H   0  0  0  0  0  0  0  0  0  0  0  0
  145.7150  140.6953  154.1718 H   0  0  0  0  0  0  0  0  0  0  0  0
  150.2618  142.6358  157.6968 H   0  0  0  0  0  0  0  0  0  0  0  0
  150.6061  140.9788  159.6283 H   0  0  0  0  0  0  0  0  0  0  0  0
  152.0264  140.4728  158.7305 H   0  0  0  0  0  0  0  0  0  0  0  0
  153.0174  142.7242  158.9284 H   0  0  0  0  0  0  0  0  0  0  0  0
  151.1871  144.3054  158.8840 H   0  0  0  0  0  0  0  0  0  0  0  0
  150.3905  143.4915  160.2368 H   0  0  0  0  0  0  0  0  0  0  0  0
  152.9992  145.0489  160.2986 H   0  0  0  0  0  0  0  0  0  0  0  0
  151.6447  145.1681  161.4252 H   0  0  0  0  0  0  0  0  0  0  0  0
  151.9544  141.6270  161.5565 H   0  0  0  0  0  0  0  0  0  0  0  0
  153.6215  141.6357  160.9795 H   0  0  0  0  0  0  0  0  0  0  0  0
  1  2  2  0  0  0  0
  2  3  1  0  0  0  0
  2 12  1  0  0  0  0
  3  4  1  0  0  0  0
  3 20  1  0  0  0  0
  3 21  1  0  0  0  0
  4 10  1  0  0  0  0
  4  5  1  0  0  0  0
  5  6  2  0  0  0  0
  5 22  1  0  0  0  0
  6  7  1  0  0  0  0
  6 23  1  0  0  0  0
  7  8  2  0  0  0  0
  7  9  1  0  0  0  0
  9 19  1  0  0  0  0
  9 10  1  0  0  0  0
 10 11  2  0  0  0  0
 12 13  1  0  0  0  0
 12 24  1  0  0  0  0
 13 14  1  0  0  0  0
 13 25  1  0  0  0  0
 13 26  1  0  0  0  0
 14 18  1  0  0  0  0
 14 15  1  0  0  0  0
 14 27  1  0  0  0  0
 15 16  1  0  0  0  0
 15 28  1  0  0  0  0
 15 29  1  0  0  0  0
 16 17  1  0  0  0  0
 16 30  1  0  0  0  0
 16 31  1  0  0  0  0
 17 18  1  0  0  0  0
 18 32  1  0  0  0  0
 18 33  1  0  0  0  0
M  END
> <s_m_source_file>
AV-unprocessed.smi

> <i_m_source_file_index>
1131

> <i_lp_mmshare_version>
43012

> <i_f3d_flags>
0

> <s_epik_input>
W0NIMl0xT1tDSDJdW0NIMl1bQ0BIXTFbQ0gyXVtOSF1DKD1PKVtDSDJdbjJbY0hdW2NIXWMoPU8pW25IXWMyPU8=

> <s_epik_cmdline>
J2VwaWtfcHl0aG9uJywgJy1waCcsICc3LjAnLCAnLXRuJywgJzgnLCAnLW1hJywgJzIwMCcsICctbWV0YWxfYmluZGluZycsICctaW1hZScsICc8aW5maWxlLm1hZT4nLCAnLW9tYWUnLCAnPG91dGZpbGUubWFlPic=

> <r_lp_tautomer_probability>
0.999537

> <r_epik_Ionization_Penalty>
0.00329016

> <r_epik_Ionization_Penalty_Charging>
0.00329014

> <r_epik_Ionization_Penalty_Neutral>
1.87063e-08

> <r_epik_State_Penalty>
0.00232461

> <r_epik_Charging_Adjusted_Penalty>
0.00561475

> <i_epik_Tot_Q>
0

> <i_epik_Tot_abs_Q>
0

> <r_epik_Metal_State_Penalty>
0.365289

> <b_epik_Metal_Only>
0

> <s_lp_Force_Field>
OPLS_2005

> <r_lp_Energy>
18.0195

> <b_lp_Chiralities_Consistent>
1

> <s_lp_Variant>
AV-unprocessed.smi:1131-2

> <Gold.Version>
5.8.1

> <Gold.Id.Protein>
6NUR|6NUR_protein|mol2

> <Gold.PLP.Fitness>
37.4790

> <Gold.PLP.PLP>
-31.7775

> <Gold.PLP.part.hbond>
-3.0000

> <Gold.PLP.part.metal>
0.0000

> <Gold.PLP.part.buried>
-1.5690

> <Gold.PLP.part.nonpolar>
-26.9834

> <Gold.PLP.part.repulsive>
0.6546

> <Gold.PLP.ligand.clash>
0.0000

> <Gold.PLP.ligand.torsion>
0.1555

> <Gold.PLP.Chemscore.Hbond>
2.0000

> <Gold.PLP.Chemscore.CHOScore>
0.0000

> <Gold.PLP.Chemscore.Metal>
0.0000

> <Gold.Chemscore.Hbonds>
donor molecule, donor type, donor heavy atom, donor atom, acceptor molecule, acceptor atom, score
      L1  H     9    19       P1  7948  0.80
      P1  H  7989  7998       L1    11  0.91

> <Gold.PLP.Chemscore.Internal.Correction>
0.0124

> <Gold.Rescore>
     Score         DG    S(hbond)    S(metal)    S(lipo)     H(rot)  DE(clash)    DE(int)     intcor
     10.11     -13.95       1.94        0.00      62.89       2.09       0.60       3.23       ----

> <Gold.Chemscore.Fitness>
10.1148

> <Gold.Chemscore.DG>
-13.9474

> <Gold.Chemscore.ZeroCoef>
-5.4800

> <Gold.Chemscore.Hbond>
1.9354

> <Gold.Chemscore.Metal>
0.0000

> <Gold.Chemscore.Lipo>
62.8926

> <Gold.Chemscore.Internal_Hbond>
0.0000

> <Gold.Chemscore.DEClash>
0.6020

> <Gold.Chemscore.DEInternal>
3.2307

> <Gold.Chemscore.Rot>
2.0919

> <Gold.Chemscore.Internal.Correction>
   9.000000E+99

> <Gold.Chemscore.Hbonds>
donor molecule, donor type, donor heavy atom, donor atom, acceptor molecule, acceptor atom, score
      L1  H     9    19       P1  7948  0.78
      P1  H  7989  7998       L1    11  0.35

> <Gold.Chemscore.Hbond.Weighted>
-6.4642

> <Gold.Chemscore.Metal.Weighted>
-0.0000

> <Gold.Chemscore.Lipo.Weighted>
-7.3584

> <Gold.Chemscore.Internal_Hbond.Weighted>
0.0000

> <Gold.Chemscore.DEClash.Weighted>
0.6020

> <Gold.Chemscore.DEInternal.Weighted>
3.2307

> <Gold.Chemscore.Rot.Weighted>
5.3552

> <Gold.Chemscore.Internal.Correction.Weighted>
   9.000000E+99

> <Gold.Protein.RotatedTorsions>
[ 6907 6896 6895 6894 ] final   13.06 input  -60.11 | X-H torsion
[ 7974 7965 7964 7962 ] final    5.29 input  175.53 | X-H torsion
[ 8008 7997 7996 7995 ] final   67.37 input   59.86 | X-H torsion
[ 10167 10162 10161 10158 ] final   -8.07 input  -65.29 | X-H torsion
[ 10718 10713 10712 10709 ] final  -65.72 input   66.30 | X-H torsion
[ 10763 10752 10751 10750 ] final  130.51 input  -60.55 | X-H torsion
[ 11005 11000 10999 10996 ] final   36.14 input  -57.11 | X-H torsion

> <Gold.Protein.ActiveResidues>
 VAL166  LYS551  ARG553  GLY616  TRP617  ASP618  TYR619  PRO620  LYS621  CYS622 
 ASP623  PHE694  ASN695  SER759  ASP760  ASP761  ALA762  ILE779  LEU786  VAL792 
 PHE793  MET794  SER795  GLU796  ALA797  LYS798  CYS799  TRP800  GLU811  SER814 

> <Gold.Protein.RotatedAtoms>
  151.7802  135.0763  160.0372 H   0  0  0  0  0  0  0  0  0  0  0  0  # atno 6907 bound_to 6896
  152.3228  133.5868  159.5764 H   0  0  0  0  0  0  0  0  0  0  0  0  # atno 6908 bound_to 6896
  150.7379  133.9902  159.3646 H   0  0  0  0  0  0  0  0  0  0  0  0  # atno 6909 bound_to 6896
  146.2441  140.0406  142.8382 H   0  0  0  0  0  0  0  0  0  0  0  0  # atno 7974 bound_to 7965
  155.6918  140.3496  155.4897 H   0  0  0  0  0  0  0  0  0  0  0  0  # atno 8008 bound_to 7997
  155.9517  140.1120  157.0993 H   0  0  0  0  0  0  0  0  0  0  0  0  # atno 8009 bound_to 7997
  154.4123  140.1193  156.5048 H   0  0  0  0  0  0  0  0  0  0  0  0  # atno 8010 bound_to 7997
  140.7048  143.6010  150.8798 H   0  0  0  0  0  0  0  0  0  0  0  0  # atno 10167 bound_to 10162
  156.0653  130.4251  150.1605 H   0  0  0  0  0  0  0  0  0  0  0  0  # atno 10718 bound_to 10713
  153.7592  135.3198  155.3334 H   0  0  0  0  0  0  0  0  0  0  0  0  # atno 10763 bound_to 10752
  154.8236  135.4586  154.0854 H   0  0  0  0  0  0  0  0  0  0  0  0  # atno 10764 bound_to 10752
  153.2080  135.6932  153.8232 H   0  0  0  0  0  0  0  0  0  0  0  0  # atno 10765 bound_to 10752
  140.2356  134.3475  155.7946 H   0  0  0  0  0  0  0  0  0  0  0  0  # atno 11005 bound_to 11000
  145.1073  140.9383  143.4677 LP  0  0  0  0  0  0  0  0  0  0  0  0  # atno 17320 bound_to 7965
  145.0612  139.3104  143.5879 LP  0  0  0  0  0  0  0  0  0  0  0  0  # atno 17321 bound_to 7965
  139.9734  143.6031  152.2966 LP  0  0  0  0  0  0  0  0  0  0  0  0  # atno 17342 bound_to 10162
  139.6626  144.7662  151.1933 LP  0  0  0  0  0  0  0  0  0  0  0  0  # atno 17343 bound_to 10162
  156.9666  130.9821  151.3468 LP  0  0  0  0  0  0  0  0  0  0  0  0  # atno 17370 bound_to 10713
  157.5691  130.8298  149.8367 LP  0  0  0  0  0  0  0  0  0  0  0  0  # atno 17371 bound_to 10713
  141.2214  133.7270  156.8802 LP  0  0  0  0  0  0  0  0  0  0  0  0  # atno 17394 bound_to 11000
  140.1705  134.9103  157.2828 LP  0  0  0  0  0  0  0  0  0  0  0  0  # atno 17395 bound_to 11000

$$$$
