AV-unprocessed.smi:148|AV-procd|sdf|1229|dock3
  -GOLD-   2262018433D 1   1.00000     0.00000
 Structure written by MMmdl.
 63 67  0  0  0  0  0  0  0  0  1 V2000
  150.8154  140.3275  155.0676 O   0  0  0  0  0  0  0  0  0  0  0  0
  150.6412  141.4618  155.8912 C   0  0  0  0  0  0  0  0  0  0  0  0
  149.6935  141.1570  157.0777 C   0  0  1  0  0  0  0  0  0  0  0  0
  150.2689  141.6492  158.4316 C   0  0  0  0  0  0  0  0  0  0  0  0
  151.5608  141.0688  158.7542 N   0  0  0  0  0  0  0  0  0  0  0  0
  152.2158  140.0793  158.0557 C   0  0  0  0  0  0  0  0  0  0  0  0
  153.3664  139.7147  158.5537 N   0  0  0  0  0  0  0  0  0  0  0  0
  153.5124  140.5132  159.6806 C   0  0  0  0  0  0  0  0  0  0  0  0
  154.5094  140.6322  160.6833 C   0  0  0  0  0  0  0  0  0  0  0  0
  155.6191  139.8581  160.6871 N   0  0  0  0  0  0  0  0  0  0  0  0
  156.7248  140.5731  160.0472 C   0  0  0  0  0  0  0  0  0  0  0  0
  157.9503  139.6699  159.8581 C   0  0  0  0  0  0  0  0  0  0  0  0
  158.3714  139.0589  161.1981 C   0  0  0  0  0  0  0  0  0  0  0  0
  157.1910  138.2955  161.8100 C   0  0  0  0  0  0  0  0  0  0  0  0
  155.9389  139.2003  161.9694 C   0  0  2  0  0  0  0  0  0  0  0  0
  154.7186  138.4578  162.6175 C   0  0  2  0  0  0  0  0  0  0  0  0
  155.0629  137.8284  163.9876 C   0  0  0  0  0  0  0  0  0  0  0  0
  154.6540  136.3507  163.9235 C   0  0  0  0  0  0  0  0  0  0  0  0
  154.5800  136.0177  162.4360 C   0  0  0  0  0  0  0  0  0  0  0  0
  154.0564  137.3103  161.8142 C   0  0  2  0  0  0  0  0  0  0  0  0
  154.2326  137.3419  160.4126 O   0  0  0  0  0  0  0  0  0  0  0  0
  154.3189  141.5526  161.6659 N   0  0  0  0  0  0  0  0  0  0  0  0
  153.2131  142.3031  161.6707 C   0  0  0  0  0  0  0  0  0  0  0  0
  152.1934  142.2932  160.8088 N   0  0  0  0  0  0  0  0  0  0  0  0
  152.3880  141.3727  159.8209 C   0  0  0  0  0  0  0  0  0  0  0  0
  148.2497  141.6627  156.7963 C   0  0  1  0  0  0  0  0  0  0  0  0
  147.6707  141.3604  155.4256 C   0  0  0  0  0  0  0  0  0  0  0  0
  146.1975  141.6802  155.6505 C   0  0  0  0  0  0  0  0  0  0  0  0
  145.9256  141.2636  156.9846 O   0  0  0  0  0  0  0  0  0  0  0  0
  147.1416  141.1441  157.7205 C   0  0  0  0  0  0  0  0  0  0  0  0
  151.3736  139.7119  155.5175 H   0  0  0  0  0  0  0  0  0  0  0  0
  151.6322  141.7533  156.2379 H   0  0  0  0  0  0  0  0  0  0  0  0
  150.2604  142.2887  155.2913 H   0  0  0  0  0  0  0  0  0  0  0  0
  149.6306  140.0703  157.1535 H   0  0  0  0  0  0  0  0  0  0  0  0
  150.3742  142.7334  158.4390 H   0  0  0  0  0  0  0  0  0  0  0  0
  149.5966  141.3990  159.2513 H   0  0  0  0  0  0  0  0  0  0  0  0
  151.8093  139.6336  157.1595 H   0  0  0  0  0  0  0  0  0  0  0  0
  156.4051  140.9567  159.0770 H   0  0  0  0  0  0  0  0  0  0  0  0
  156.9994  141.4368  160.6550 H   0  0  0  0  0  0  0  0  0  0  0  0
  157.7182  138.8765  159.1463 H   0  0  0  0  0  0  0  0  0  0  0  0
  158.7740  140.2422  159.4309 H   0  0  0  0  0  0  0  0  0  0  0  0
  159.2205  138.3895  161.0568 H   0  0  0  0  0  0  0  0  0  0  0  0
  158.6994  139.8444  161.8798 H   0  0  0  0  0  0  0  0  0  0  0  0
  156.9698  137.4435  161.1688 H   0  0  0  0  0  0  0  0  0  0  0  0
  157.4994  137.8794  162.7678 H   0  0  0  0  0  0  0  0  0  0  0  0
  156.2183  140.0023  162.6546 H   0  0  0  0  0  0  0  0  0  0  0  0
  153.9380  139.1909  162.8199 H   0  0  0  0  0  0  0  0  0  0  0  0
  156.1248  137.9120  164.2149 H   0  0  0  0  0  0  0  0  0  0  0  0
  154.5393  138.3365  164.7981 H   0  0  0  0  0  0  0  0  0  0  0  0
  155.3456  135.7023  164.4621 H   0  0  0  0  0  0  0  0  0  0  0  0
  153.6676  136.2258  164.3724 H   0  0  0  0  0  0  0  0  0  0  0  0
  155.5764  135.7842  162.0597 H   0  0  0  0  0  0  0  0  0  0  0  0
  153.9366  135.1619  162.2296 H   0  0  0  0  0  0  0  0  0  0  0  0
  152.9810  137.3532  161.9942 H   0  0  0  0  0  0  0  0  0  0  0  0
  154.4710  136.4755  160.1188 H   0  0  0  0  0  0  0  0  0  0  0  0
  153.1320  143.0105  162.4828 H   0  0  0  0  0  0  0  0  0  0  0  0
  148.2549  142.7503  156.8849 H   0  0  0  0  0  0  0  0  0  0  0  0
  148.1176  141.9558  154.6290 H   0  0  0  0  0  0  0  0  0  0  0  0
  147.7684  140.3075  155.1649 H   0  0  0  0  0  0  0  0  0  0  0  0
  146.0253  142.7549  155.5772 H   0  0  0  0  0  0  0  0  0  0  0  0
  145.5440  141.1818  154.9344 H   0  0  0  0  0  0  0  0  0  0  0  0
  147.2775  140.0937  157.9743 H   0  0  0  0  0  0  0  0  0  0  0  0
  147.0897  141.7084  158.6520 H   0  0  0  0  0  0  0  0  0  0  0  0
  1  2  1  0  0  0  0
  1 31  1  0  0  0  0
  2  3  1  0  0  0  0
  2 32  1  0  0  0  0
  2 33  1  0  0  0  0
  3  4  1  0  0  0  0
  3 26  1  0  0  0  0
  3 34  1  0  0  0  0
  4  5  1  0  0  0  0
  4 35  1  0  0  0  0
  4 36  1  0  0  0  0
  5 25  1  0  0  0  0
  5  6  1  0  0  0  0
  6  7  2  0  0  0  0
  6 37  1  0  0  0  0
  7  8  1  0  0  0  0
  8 25  2  0  0  0  0
  8  9  1  0  0  0  0
  9 10  1  0  0  0  0
  9 22  2  0  0  0  0
 10 15  1  0  0  0  0
 10 11  1  0  0  0  0
 11 12  1  0  0  0  0
 11 38  1  0  0  0  0
 11 39  1  0  0  0  0
 12 13  1  0  0  0  0
 12 40  1  0  0  0  0
 12 41  1  0  0  0  0
 13 14  1  0  0  0  0
 13 42  1  0  0  0  0
 13 43  1  0  0  0  0
 14 15  1  0  0  0  0
 14 44  1  0  0  0  0
 14 45  1  0  0  0  0
 15 16  1  0  0  0  0
 15 46  1  0  0  0  0
 16 20  1  0  0  0  0
 16 17  1  0  0  0  0
 16 47  1  0  0  0  0
 17 18  1  0  0  0  0
 17 48  1  0  0  0  0
 17 49  1  0  0  0  0
 18 19  1  0  0  0  0
 18 50  1  0  0  0  0
 18 51  1  0  0  0  0
 19 20  1  0  0  0  0
 19 52  1  0  0  0  0
 19 53  1  0  0  0  0
 20 21  1  0  0  0  0
 20 54  1  0  0  0  0
 21 55  1  0  0  0  0
 22 23  1  0  0  0  0
 23 24  2  0  0  0  0
 23 56  1  0  0  0  0
 24 25  1  0  0  0  0
 26 30  1  0  0  0  0
 26 27  1  0  0  0  0
 26 57  1  0  0  0  0
 27 28  1  0  0  0  0
 27 58  1  0  0  0  0
 27 59  1  0  0  0  0
 28 29  1  0  0  0  0
 28 60  1  0  0  0  0
 28 61  1  0  0  0  0
 29 30  1  0  0  0  0
 30 62  1  0  0  0  0
 30 63  1  0  0  0  0
M  END
> <s_m_source_file>
AV-unprocessed.smi

> <i_m_source_file_index>
148

> <i_lp_mmshare_version>
43012

> <i_f3d_flags>
0

> <s_epik_input>
W0NIMl0xT1tDSDJdW0NIMl1bQ0BIXTFbQ0BIXShbQ0gyXVtPSF0pW0NIMl1uKFtjSF1uMiljKGMyMyluW2NIXW5jM040W0NIMl1bQ0gyXVtDSDJdW0NIMl1bQ0BIXTRbQ0BASF01W0NIMl1bQ0gyXVtDSDJdW0NASF01W09IXQ==

> <s_epik_cmdline>
J2VwaWtfcHl0aG9uJywgJy1waCcsICc3LjAnLCAnLXRuJywgJzgnLCAnLW1hJywgJzIwMCcsICctbWV0YWxfYmluZGluZycsICctaW1hZScsICc8aW5maWxlLm1hZT4nLCAnLW9tYWUnLCAnPG91dGZpbGUubWFlPic=

> <r_lp_tautomer_probability>
1

> <r_epik_Ionization_Penalty>
0.00556303

> <r_epik_Ionization_Penalty_Charging>
0

> <r_epik_Ionization_Penalty_Neutral>
0.00556303

> <r_epik_State_Penalty>
0.00401767

> <r_epik_Charging_Adjusted_Penalty>
0.00401767

> <i_epik_Tot_Q>
0

> <i_epik_Tot_abs_Q>
0

> <r_epik_Metal_State_Penalty>
-0

> <b_epik_Metal_Only>
0

> <s_lp_Force_Field>
OPLS_2005

> <r_lp_Energy>
73.9782

> <b_lp_Chiralities_Consistent>
1

> <s_lp_Variant>
AV-unprocessed.smi:148-28

> <Gold.Version>
5.8.1

> <Gold.Id.Protein>
6NUR|6NUR_protein|mol2

> <Gold.PLP.Fitness>
51.0106

> <Gold.PLP.PLP>
-46.9579

> <Gold.PLP.part.hbond>
-3.1692

> <Gold.PLP.part.metal>
0.0000

> <Gold.PLP.part.buried>
-7.0854

> <Gold.PLP.part.nonpolar>
-36.3915

> <Gold.PLP.part.repulsive>
0.0593

> <Gold.PLP.ligand.clash>
0.0000

> <Gold.PLP.ligand.torsion>
1.2496

> <Gold.PLP.Chemscore.Hbond>
2.0000

> <Gold.PLP.Chemscore.CHOScore>
0.0000

> <Gold.PLP.Chemscore.Metal>
0.0000

> <Gold.Chemscore.Hbonds>
donor molecule, donor type, donor heavy atom, donor atom, acceptor molecule, acceptor atom, score
      P1  H  7989  7998       L1     1  1.00
      P1  H  7997  8008       L1     7  1.00

> <Gold.PLP.Chemscore.Internal.Correction>
0.5518

> <Gold.Rescore>
     Score         DG    S(hbond)    S(metal)    S(lipo)     H(rot)  DE(clash)    DE(int)     intcor
      8.94     -10.46       0.88        0.00      90.00       3.32       0.11       1.42       ----

> <Gold.Chemscore.Fitness>
8.9408

> <Gold.Chemscore.DG>
-10.4643

> <Gold.Chemscore.ZeroCoef>
-5.4800

> <Gold.Chemscore.Hbond>
0.8845

> <Gold.Chemscore.Metal>
0.0000

> <Gold.Chemscore.Lipo>
89.9997

> <Gold.Chemscore.Internal_Hbond>
0.0000

> <Gold.Chemscore.DEClash>
0.1053

> <Gold.Chemscore.DEInternal>
1.4181

> <Gold.Chemscore.Rot>
3.3203

> <Gold.Chemscore.Internal.Correction>
   9.000000E+99

> <Gold.Chemscore.Hbonds>
donor molecule, donor type, donor heavy atom, donor atom, acceptor molecule, acceptor atom, score
      P1  H  7989  7998       L1     1  0.48
      P1  H  7997  8008       L1     7  0.54

> <Gold.Chemscore.Hbond.Weighted>
-2.9543

> <Gold.Chemscore.Metal.Weighted>
-0.0000

> <Gold.Chemscore.Lipo.Weighted>
-10.5300

> <Gold.Chemscore.Internal_Hbond.Weighted>
0.0000

> <Gold.Chemscore.DEClash.Weighted>
0.1053

> <Gold.Chemscore.DEInternal.Weighted>
1.4181

> <Gold.Chemscore.Rot.Weighted>
8.5000

> <Gold.Chemscore.Internal.Correction.Weighted>
   9.000000E+99

> <Gold.Protein.RotatedTorsions>
[ 6907 6896 6895 6894 ] final  107.32 input  -60.11 | X-H torsion
[ 7974 7965 7964 7962 ] final   11.99 input  175.53 | X-H torsion
[ 8008 7997 7996 7995 ] final  -98.45 input   59.86 | X-H torsion
[ 10167 10162 10161 10158 ] final   84.59 input  -65.29 | X-H torsion
[ 10718 10713 10712 10709 ] final  -75.86 input   66.30 | X-H torsion
[ 10763 10752 10751 10750 ] final  131.99 input  -60.55 | X-H torsion
[ 11005 11000 10999 10996 ] final -105.01 input  -57.11 | X-H torsion

> <Gold.Protein.ActiveResidues>
 VAL166  LYS551  ARG553  GLY616  TRP617  ASP618  TYR619  PRO620  LYS621  CYS622 
 ASP623  PHE694  ASN695  SER759  ASP760  ASP761  ALA762  ILE779  LEU786  VAL792 
 PHE793  MET794  SER795  GLU796  ALA797  LYS798  CYS799  TRP800  GLU811  SER814 

> <Gold.Protein.RotatedAtoms>
  152.5159  133.9251  159.7553 H   0  0  0  0  0  0  0  0  0  0  0  0  # atno 6907 bound_to 6896
  150.9614  133.6433  159.2760 H   0  0  0  0  0  0  0  0  0  0  0  0  # atno 6908 bound_to 6896
  151.3676  135.0921  159.9508 H   0  0  0  0  0  0  0  0  0  0  0  0  # atno 6909 bound_to 6896
  146.2360  139.9403  142.8484 H   0  0  0  0  0  0  0  0  0  0  0  0  # atno 7974 bound_to 7965
  154.8013  140.0455  157.1275 H   0  0  0  0  0  0  0  0  0  0  0  0  # atno 8008 bound_to 7997
  154.9475  140.3061  155.5071 H   0  0  0  0  0  0  0  0  0  0  0  0  # atno 8009 bound_to 7997
  156.2962  140.2294  156.4550 H   0  0  0  0  0  0  0  0  0  0  0  0  # atno 8010 bound_to 7997
  139.9064  144.6298  150.8583 H   0  0  0  0  0  0  0  0  0  0  0  0  # atno 10167 bound_to 10162
  156.0193  130.4451  150.3107 H   0  0  0  0  0  0  0  0  0  0  0  0  # atno 10718 bound_to 10713
  153.7834  135.3165  155.3369 H   0  0  0  0  0  0  0  0  0  0  0  0  # atno 10763 bound_to 10752
  154.8153  135.4640  154.0629 H   0  0  0  0  0  0  0  0  0  0  0  0  # atno 10764 bound_to 10752
  153.1924  135.6910  153.8421 H   0  0  0  0  0  0  0  0  0  0  0  0  # atno 10765 bound_to 10752
  141.1074  133.8771  157.1681 H   0  0  0  0  0  0  0  0  0  0  0  0  # atno 11005 bound_to 11000
  145.1959  140.9833  143.4184 LP  0  0  0  0  0  0  0  0  0  0  0  0  # atno 17320 bound_to 7965
  144.9816  139.3778  143.6259 LP  0  0  0  0  0  0  0  0  0  0  0  0  # atno 17321 bound_to 7965
  140.7695  143.3398  151.2232 LP  0  0  0  0  0  0  0  0  0  0  0  0  # atno 17342 bound_to 10162
  139.6980  143.9580  152.2892 LP  0  0  0  0  0  0  0  0  0  0  0  0  # atno 17343 bound_to 10162
  157.1209  131.0246  151.3010 LP  0  0  0  0  0  0  0  0  0  0  0  0  # atno 17370 bound_to 10713
  157.4629  130.7663  149.7252 LP  0  0  0  0  0  0  0  0  0  0  0  0  # atno 17371 bound_to 10713
  139.9950  135.0050  157.0062 LP  0  0  0  0  0  0  0  0  0  0  0  0  # atno 17394 bound_to 11000
  140.4867  134.1235  155.7225 LP  0  0  0  0  0  0  0  0  0  0  0  0  # atno 17395 bound_to 11000

$$$$
