AV-unprocessed.smi:438|AV-procd|sdf|2574|dock7
  -GOLD-   2262022553D 1   1.00000     0.00000
 Structure written by MMmdl.
 47 48  0  0  0  0  0  0  0  0  2 V2000
  152.6864  138.6722  154.4263 C   0  0  0  0  0  0  0  0  0  0  0  0
  151.3547  138.0239  154.7605 C   0  0  0  0  0  0  0  0  0  0  0  0
  151.3346  136.6194  154.7350 N   0  0  0  0  0  0  0  0  0  0  0  0
  150.2472  135.9996  154.9967 C   0  0  0  0  0  0  0  0  0  0  0  0
  150.2143  134.1988  154.9560 S   0  0  0  0  0  0  0  0  0  0  0  0
  148.4409  133.7984  154.9287 C   0  0  0  0  0  0  0  0  0  0  0  0
  147.9926  133.1631  153.6134 C   0  0  0  0  0  0  0  0  0  0  0  0
  148.5253  132.1296  153.2075 O   0  0  0  0  0  0  0  0  0  0  0  0
  147.0097  133.7947  152.9532 N   0  0  0  0  0  0  0  0  0  0  0  0
  146.4224  133.3590  151.6878 C   0  0  1  0  0  0  0  0  0  0  0  0
  146.0273  131.8710  151.7879 C   0  0  0  0  0  0  0  0  0  0  0  0
  145.3493  131.3766  150.5022 C   0  0  0  0  0  0  0  0  0  0  0  0
  144.1310  132.2431  150.1556 C   0  0  0  0  0  0  0  0  0  0  0  0
  144.5224  133.7238  150.0389 C   0  0  0  0  0  0  0  0  0  0  0  0
  145.2030  134.2422  151.3223 C   0  0  2  0  0  0  0  0  0  0  0  0
  145.5755  135.7283  151.1722 C   0  0  0  0  0  0  0  0  0  0  0  0
  149.0645  136.6261  155.3139 N   0  5  0  0  0  0  0  0  0  0  0  0
  149.0026  137.9874  155.3617 C   0  0  0  0  0  0  0  0  0  0  0  0
  147.9641  138.5862  155.6397 O   0  0  0  0  0  0  0  0  0  0  0  0
  150.2334  138.7394  155.0600 C   0  0  0  0  0  0  0  0  0  0  0  0
  150.1955  140.2648  155.1123 C   0  0  0  0  0  0  0  0  0  0  0  0
  148.9576  140.8358  154.4060 C   0  0  0  0  0  0  0  0  0  0  0  0
  149.3068  141.2917  153.1168 O   0  0  0  0  0  0  0  0  0  0  0  0
  152.5645  139.4164  153.6391 H   0  0  0  0  0  0  0  0  0  0  0  0
  153.4093  137.9332  154.0782 H   0  0  0  0  0  0  0  0  0  0  0  0
  153.1022  139.1609  155.3075 H   0  0  0  0  0  0  0  0  0  0  0  0
  147.8661  134.7110  155.0887 H   0  0  0  0  0  0  0  0  0  0  0  0
  148.2196  133.1251  155.7584 H   0  0  0  0  0  0  0  0  0  0  0  0
  146.6341  134.6382  153.3618 H   0  0  0  0  0  0  0  0  0  0  0  0
  147.1633  133.4668  150.8930 H   0  0  0  0  0  0  0  0  0  0  0  0
  146.9087  131.2612  151.9908 H   0  0  0  0  0  0  0  0  0  0  0  0
  145.3509  131.7244  152.6314 H   0  0  0  0  0  0  0  0  0  0  0  0
  146.0641  131.4011  149.6788 H   0  0  0  0  0  0  0  0  0  0  0  0
  145.0455  130.3360  150.6181 H   0  0  0  0  0  0  0  0  0  0  0  0
  143.6862  131.9014  149.2206 H   0  0  0  0  0  0  0  0  0  0  0  0
  143.3661  132.1252  150.9241 H   0  0  0  0  0  0  0  0  0  0  0  0
  145.1928  133.8547  149.1882 H   0  0  0  0  0  0  0  0  0  0  0  0
  143.6334  134.3171  149.8225 H   0  0  0  0  0  0  0  0  0  0  0  0
  144.4762  134.1677  152.1330 H   0  0  0  0  0  0  0  0  0  0  0  0
  146.3318  135.8691  150.3993 H   0  0  0  0  0  0  0  0  0  0  0  0
  145.9678  136.1424  152.1010 H   0  0  0  0  0  0  0  0  0  0  0  0
  144.7052  136.3240  150.8958 H   0  0  0  0  0  0  0  0  0  0  0  0
  151.0969  140.6780  154.6602 H   0  0  0  0  0  0  0  0  0  0  0  0
  150.2214  140.5944  156.1520 H   0  0  0  0  0  0  0  0  0  0  0  0
  148.1809  140.0756  154.3155 H   0  0  0  0  0  0  0  0  0  0  0  0
  148.5364  141.6670  154.9726 H   0  0  0  0  0  0  0  0  0  0  0  0
  149.4318  140.5401  152.5579 H   0  0  0  0  0  0  0  0  0  0  0  0
  1 24  1  0  0  0  0
  1 25  1  0  0  0  0
  1 26  1  0  0  0  0
  1  2  1  0  0  0  0
  2 20  2  0  0  0  0
  2  3  1  0  0  0  0
  3  4  2  0  0  0  0
  4  5  1  0  0  0  0
  4 17  1  0  0  0  0
  5  6  1  0  0  0  0
  6  7  1  0  0  0  0
  6 27  1  0  0  0  0
  6 28  1  0  0  0  0
  7  8  2  0  0  0  0
  7  9  1  0  0  0  0
  9 10  1  0  0  0  0
  9 29  1  0  0  0  0
 10 15  1  0  0  0  0
 10 11  1  0  0  0  0
 10 30  1  0  0  0  0
 11 12  1  0  0  0  0
 11 31  1  0  0  0  0
 11 32  1  0  0  0  0
 12 13  1  0  0  0  0
 12 33  1  0  0  0  0
 12 34  1  0  0  0  0
 13 14  1  0  0  0  0
 13 35  1  0  0  0  0
 13 36  1  0  0  0  0
 14 15  1  0  0  0  0
 14 37  1  0  0  0  0
 14 38  1  0  0  0  0
 15 16  1  0  0  0  0
 15 39  1  0  0  0  0
 16 40  1  0  0  0  0
 16 41  1  0  0  0  0
 16 42  1  0  0  0  0
 17 18  1  0  0  0  0
 18 19  2  0  0  0  0
 18 20  1  0  0  0  0
 20 21  1  0  0  0  0
 21 22  1  0  0  0  0
 21 43  1  0  0  0  0
 21 44  1  0  0  0  0
 22 23  1  0  0  0  0
 22 45  1  0  0  0  0
 22 46  1  0  0  0  0
 23 47  1  0  0  0  0
M  CHG  1  17  -1
M  END
> <s_m_source_file>
AV-unprocessed.smi

> <i_m_source_file_index>
438

> <i_lp_mmshare_version>
43012

> <i_f3d_flags>
0

> <s_epik_input>
W09IXVtDSDJdW0NIMl1jMWMoW09IXSluYyhuYzFbQ0gzXSlTW0NIMl1DKD1PKVtOSF1bQ0BASF0yW0NIMl1bQ0gyXVtDSDJdW0NIMl1bQ0BIXTJbQ0gzXQ==

> <s_epik_cmdline>
J2VwaWtfcHl0aG9uJywgJy1waCcsICc3LjAnLCAnLXRuJywgJzgnLCAnLW1hJywgJzIwMCcsICctbWV0YWxfYmluZGluZycsICctaW1hZScsICc8aW5maWxlLm1hZT4nLCAnLW9tYWUnLCAnPG91dGZpbGUubWFlPic=

> <r_lp_tautomer_probability>
1

> <r_epik_Ionization_Penalty>
3.69231

> <r_epik_Ionization_Penalty_Charging>
0.00434774

> <r_epik_Ionization_Penalty_Neutral>
3.68796

> <r_epik_State_Penalty>
2.13826

> <r_epik_Charging_Adjusted_Penalty>
2.14261

> <i_epik_Tot_Q>
-1

> <i_epik_Tot_abs_Q>
1

> <r_epik_Metal_State_Penalty>
0.260979

> <b_epik_Metal_Only>
0

> <s_lp_Force_Field>
OPLS_2005

> <r_lp_Energy>
18.4405

> <b_lp_Chiralities_Consistent>
1

> <s_lp_Variant>
AV-unprocessed.smi:438-12

> <Gold.Version>
5.8.1

> <Gold.Id.Protein>
6NUR|6NUR_protein|mol2

> <Gold.PLP.Fitness>
49.6209

> <Gold.PLP.PLP>
-43.0408

> <Gold.PLP.part.hbond>
-3.5456

> <Gold.PLP.part.metal>
0.0000

> <Gold.PLP.part.buried>
-6.6303

> <Gold.PLP.part.nonpolar>
-33.0660

> <Gold.PLP.part.repulsive>
0.4176

> <Gold.PLP.ligand.clash>
0.0000

> <Gold.PLP.ligand.torsion>
1.0959

> <Gold.PLP.Chemscore.Hbond>
2.9120

> <Gold.PLP.Chemscore.CHOScore>
0.0000

> <Gold.PLP.Chemscore.Metal>
0.0000

> <Gold.Chemscore.Hbonds>
donor molecule, donor type, donor heavy atom, donor atom, acceptor molecule, acceptor atom, score
      L1  H    23    47       P1  7957  0.82
      P1  H  8011  8017       L1    23  0.81
      P1  H 10752 10764       L1     3  1.00

> <Gold.PLP.Chemscore.Internal.Correction>
0.0360

> <Gold.Rescore>
     Score         DG    S(hbond)    S(metal)    S(lipo)     H(rot)  DE(clash)    DE(int)     intcor
     14.27     -17.89       2.38        0.00      99.25       2.79       0.00       3.61       ----

> <Gold.Chemscore.Fitness>
14.2687

> <Gold.Chemscore.DG>
-17.8852

> <Gold.Chemscore.ZeroCoef>
-5.4800

> <Gold.Chemscore.Hbond>
2.3779

> <Gold.Chemscore.Metal>
0.0000

> <Gold.Chemscore.Lipo>
99.2500

> <Gold.Chemscore.Internal_Hbond>
0.0000

> <Gold.Chemscore.DEClash>
0.0019

> <Gold.Chemscore.DEInternal>
3.6146

> <Gold.Chemscore.Rot>
2.7927

> <Gold.Chemscore.Internal.Correction>
   9.000000E+99

> <Gold.Chemscore.Hbonds>
donor molecule, donor type, donor heavy atom, donor atom, acceptor molecule, acceptor atom, score
      L1  H    23    47       P1  7957  0.78
      P1  H  8011  8017       L1    23  0.35
      P1  H 10752 10764       L1     3  0.95

> <Gold.Chemscore.Hbond.Weighted>
-7.9422

> <Gold.Chemscore.Metal.Weighted>
-0.0000

> <Gold.Chemscore.Lipo.Weighted>
-11.6123

> <Gold.Chemscore.Internal_Hbond.Weighted>
0.0000

> <Gold.Chemscore.DEClash.Weighted>
0.0019

> <Gold.Chemscore.DEInternal.Weighted>
3.6146

> <Gold.Chemscore.Rot.Weighted>
7.1492

> <Gold.Chemscore.Internal.Correction.Weighted>
   9.000000E+99

> <Gold.Protein.RotatedTorsions>
[ 6907 6896 6895 6894 ] final -165.10 input  -60.11 | X-H torsion
[ 7974 7965 7964 7962 ] final   95.58 input  175.53 | X-H torsion
[ 8008 7997 7996 7995 ] final   55.44 input   59.86 | X-H torsion
[ 10167 10162 10161 10158 ] final  -46.42 input  -65.29 | X-H torsion
[ 10718 10713 10712 10709 ] final -147.13 input   66.30 | X-H torsion
[ 10763 10752 10751 10750 ] final  -65.52 input  -60.55 | X-H torsion
[ 11005 11000 10999 10996 ] final  141.26 input  -57.11 | X-H torsion

> <Gold.Protein.ActiveResidues>
 VAL166  LYS551  ARG553  GLY616  TRP617  ASP618  TYR619  PRO620  LYS621  CYS622 
 ASP623  PHE694  ASN695  SER759  ASP760  ASP761  ALA762  ILE779  LEU786  VAL792 
 PHE793  MET794  SER795  GLU796  ALA797  LYS798  CYS799  TRP800  GLU811  SER814 

> <Gold.Protein.RotatedAtoms>
  151.4224  133.3694  159.2757 H   0  0  0  0  0  0  0  0  0  0  0  0  # atno 6907 bound_to 6896
  150.9284  134.8701  159.7546 H   0  0  0  0  0  0  0  0  0  0  0  0  # atno 6908 bound_to 6896
  152.5016  134.4166  159.9519 H   0  0  0  0  0  0  0  0  0  0  0  0  # atno 6909 bound_to 6896
  145.4502  139.2294  143.3044 H   0  0  0  0  0  0  0  0  0  0  0  0  # atno 7974 bound_to 7965
  155.5012  140.3474  155.4371 H   0  0  0  0  0  0  0  0  0  0  0  0  # atno 8008 bound_to 7997
  156.0912  140.1411  156.9617 H   0  0  0  0  0  0  0  0  0  0  0  0  # atno 8009 bound_to 7997
  154.4636  140.0925  156.6938 H   0  0  0  0  0  0  0  0  0  0  0  0  # atno 8010 bound_to 7997
  140.6818  143.2832  151.3780 H   0  0  0  0  0  0  0  0  0  0  0  0  # atno 10167 bound_to 10162
  156.4036  130.7946  151.2159 H   0  0  0  0  0  0  0  0  0  0  0  0  # atno 10718 bound_to 10713
  154.3462  135.6146  153.5620 H   0  0  0  0  0  0  0  0  0  0  0  0  # atno 10763 bound_to 10752
  152.9801  135.5781  154.4796 H   0  0  0  0  0  0  0  0  0  0  0  0  # atno 10764 bound_to 10752
  154.4509  135.2853  155.1759 H   0  0  0  0  0  0  0  0  0  0  0  0  # atno 10765 bound_to 10752
  140.0388  134.9315  157.0804 H   0  0  0  0  0  0  0  0  0  0  0  0  # atno 11005 bound_to 11000
  146.2508  140.5261  142.8894 LP  0  0  0  0  0  0  0  0  0  0  0  0  # atno 17320 bound_to 7965
  144.8066  140.6310  143.6443 LP  0  0  0  0  0  0  0  0  0  0  0  0  # atno 17321 bound_to 7965
  139.6146  144.1029  152.2333 LP  0  0  0  0  0  0  0  0  0  0  0  0  # atno 17342 bound_to 10162
  140.0454  144.5975  150.7378 LP  0  0  0  0  0  0  0  0  0  0  0  0  # atno 17343 bound_to 10162
  157.7505  131.0279  150.4026 LP  0  0  0  0  0  0  0  0  0  0  0  0  # atno 17370 bound_to 10713
  156.4310  130.3972  149.6760 LP  0  0  0  0  0  0  0  0  0  0  0  0  # atno 17371 bound_to 10713
  140.4103  134.1988  155.7163 LP  0  0  0  0  0  0  0  0  0  0  0  0  # atno 17394 bound_to 11000
  141.1872  133.8286  157.1041 LP  0  0  0  0  0  0  0  0  0  0  0  0  # atno 17395 bound_to 11000

$$$$
