AV-unprocessed.smi:37|AV-procd|sdf|334|dock9
  -GOLD-   2262016173D 1   1.00000     0.00000
 Structure written by MMmdl.
 43 44  0  0  0  0  0  0  0  0  2 V2000
  152.1542  132.2455  156.6874 C   0  0  0  0  0  0  0  0  0  0  0  0
  150.7440  131.7613  156.3186 C   0  0  0  0  0  0  0  0  0  0  0  0
  149.6674  132.1852  157.3201 C   0  0  0  0  0  0  0  0  0  0  0  0
  149.7973  132.0301  158.5359 O   0  0  0  0  0  0  0  0  0  0  0  0
  148.6041  132.7302  156.7109 O   0  0  0  0  0  0  0  0  0  0  0  0
  147.8376  133.7187  157.3817 C   0  0  0  0  0  0  0  0  0  0  0  0
  148.7228  134.9097  157.7736 C   0  0  1  0  0  0  0  0  0  0  0  0
  149.3028  135.5264  156.6248 O   0  0  0  0  0  0  0  0  0  0  0  0
  149.1043  136.9079  156.6879 C   0  0  2  0  0  0  0  0  0  0  0  0
  150.3127  137.6339  156.1431 N   0  0  0  0  0  0  0  0  0  0  0  0
  151.5994  137.2274  156.4562 C   0  0  0  0  0  0  0  0  0  0  0  0
  152.6750  137.8794  155.9696 C   0  0  0  0  0  0  0  0  0  0  0  0
  153.9116  137.4654  156.2952 F   0  0  0  0  0  0  0  0  0  0  0  0
  152.4861  139.0346  155.0939 C   0  0  0  0  0  0  0  0  0  0  0  0
  153.4711  139.6217  154.6489 O   0  0  0  0  0  0  0  0  0  0  0  0
  151.2073  139.4144  154.8062 N   0  5  0  0  0  0  0  0  0  0  0  0
  150.1154  138.7595  155.2990 C   0  0  0  0  0  0  0  0  0  0  0  0
  148.9574  139.0959  155.0505 O   0  0  0  0  0  0  0  0  0  0  0  0
  148.8172  137.2445  158.1558 C   0  0  2  0  0  0  0  0  0  0  0  0
  150.4954  137.3440  159.2421 Br  0  0  0  0  0  0  0  0  0  0  0  0
  148.0053  136.0220  158.5479 C   0  0  2  0  0  0  0  0  0  0  0  0
  148.0044  135.7760  159.9480 O   0  0  0  0  0  0  0  0  0  0  0  0
  147.3740  136.6209  160.7831 C   0  0  0  0  0  0  0  0  0  0  0  0
  146.6132  137.5305  160.4524 O   0  0  0  0  0  0  0  0  0  0  0  0
  147.7057  136.3553  162.2496 C   0  0  0  0  0  0  0  0  0  0  0  0
  147.1473  135.0110  162.7360 C   0  0  0  0  0  0  0  0  0  0  0  0
  152.8805  131.9062  155.9487 H   0  0  0  0  0  0  0  0  0  0  0  0
  152.4665  131.8589  157.6581 H   0  0  0  0  0  0  0  0  0  0  0  0
  152.2055  133.3344  156.7237 H   0  0  0  0  0  0  0  0  0  0  0  0
  150.4704  132.1453  155.3357 H   0  0  0  0  0  0  0  0  0  0  0  0
  150.7381  130.6737  156.2446 H   0  0  0  0  0  0  0  0  0  0  0  0
  147.0365  134.0656  156.7272 H   0  0  0  0  0  0  0  0  0  0  0  0
  147.3710  133.2865  158.2676 H   0  0  0  0  0  0  0  0  0  0  0  0
  149.5590  134.5417  158.3700 H   0  0  0  0  0  0  0  0  0  0  0  0
  148.2749  137.1577  156.0231 H   0  0  0  0  0  0  0  0  0  0  0  0
  151.7595  136.3817  157.1078 H   0  0  0  0  0  0  0  0  0  0  0  0
  148.2760  138.1858  158.2562 H   0  0  0  0  0  0  0  0  0  0  0  0
  146.9891  136.1299  158.1656 H   0  0  0  0  0  0  0  0  0  0  0  0
  148.7882  136.3797  162.3767 H   0  0  0  0  0  0  0  0  0  0  0  0
  147.2979  137.1653  162.8551 H   0  0  0  0  0  0  0  0  0  0  0  0
  147.3565  134.8700  163.7963 H   0  0  0  0  0  0  0  0  0  0  0  0
  147.5950  134.1740  162.1988 H   0  0  0  0  0  0  0  0  0  0  0  0
  146.0663  134.9580  162.6025 H   0  0  0  0  0  0  0  0  0  0  0  0
  1  2  1  0  0  0  0
  1 27  1  0  0  0  0
  1 28  1  0  0  0  0
  1 29  1  0  0  0  0
  2  3  1  0  0  0  0
  2 30  1  0  0  0  0
  2 31  1  0  0  0  0
  3  4  2  0  0  0  0
  3  5  1  0  0  0  0
  5  6  1  0  0  0  0
  6  7  1  0  0  0  0
  6 32  1  0  0  0  0
  6 33  1  0  0  0  0
  7 21  1  0  0  0  0
  7  8  1  0  0  0  0
  7 34  1  0  0  0  0
  8  9  1  0  0  0  0
  9 10  1  0  0  0  0
  9 19  1  0  0  0  0
  9 35  1  0  0  0  0
 10 17  1  0  0  0  0
 10 11  1  0  0  0  0
 11 12  2  0  0  0  0
 11 36  1  0  0  0  0
 12 13  1  0  0  0  0
 12 14  1  0  0  0  0
 14 15  2  0  0  0  0
 14 16  1  0  0  0  0
 16 17  1  0  0  0  0
 17 18  2  0  0  0  0
 19 20  1  0  0  0  0
 19 21  1  0  0  0  0
 19 37  1  0  0  0  0
 21 22  1  0  0  0  0
 21 38  1  0  0  0  0
 22 23  1  0  0  0  0
 23 24  2  0  0  0  0
 23 25  1  0  0  0  0
 25 26  1  0  0  0  0
 25 39  1  0  0  0  0
 25 40  1  0  0  0  0
 26 41  1  0  0  0  0
 26 42  1  0  0  0  0
 26 43  1  0  0  0  0
M  CHG  1  16  -1
M  END
> <s_m_source_file>
AV-unprocessed.smi

> <i_m_source_file_index>
37

> <i_lp_mmshare_version>
43012

> <i_f3d_flags>
0

> <s_epik_input>
W0NIM11bQ0gyXUMoPU8pT1tDSDJdW0NAQEhdMU9bQ0BASF0objJbY0hdYyhGKWMoPU8pW25IXWMyPU8pW0NAQEhdKEJyKVtDQEhdMU9DKD1PKVtDSDJdW0NIM10=

> <s_epik_cmdline>
J2VwaWtfcHl0aG9uJywgJy1waCcsICc3LjAnLCAnLXRuJywgJzgnLCAnLW1hJywgJzIwMCcsICctbWV0YWxfYmluZGluZycsICctaW1hZScsICc8aW5maWxlLm1hZT4nLCAnLW9tYWUnLCAnPG91dGZpbGUubWFlPic=

> <r_epik_Ionization_Penalty>
1.08158

> <r_epik_Ionization_Penalty_Charging>
9.05154e-09

> <r_epik_Ionization_Penalty_Neutral>
1.08158

> <r_epik_State_Penalty>
1.13706

> <r_epik_Charging_Adjusted_Penalty>
1.13706

> <i_epik_Tot_Q>
-1

> <i_epik_Tot_abs_Q>
1

> <r_epik_Metal_State_Penalty>
0.00343535

> <b_epik_Metal_Only>
0

> <s_epik_Chemistry_Notes>
This compound has an ester and may undergo hydrolysis at high or low pH. This compound contains an acetal/aminal-like group ( X-CH(R)-Y where X, Y are N, S, or O) that may be acid/base labile, releasing an aldehyde.

> <s_lp_Force_Field>
OPLS_2005

> <r_lp_Energy>
36.4441

> <b_lp_Chiralities_Consistent>
1

> <s_lp_Variant>
AV-unprocessed.smi:37-32

> <Gold.Version>
5.8.1

> <Gold.Id.Protein>
6NUR|6NUR_protein|mol2

> <Gold.PLP.Fitness>
38.8382

> <Gold.PLP.PLP>
-28.9213

> <Gold.PLP.part.hbond>
-5.0000

> <Gold.PLP.part.metal>
0.0000

> <Gold.PLP.part.buried>
-1.3873

> <Gold.PLP.part.nonpolar>
-23.1280

> <Gold.PLP.part.repulsive>
0.1945

> <Gold.PLP.ligand.clash>
0.0361

> <Gold.PLP.ligand.torsion>
1.1350

> <Gold.PLP.Chemscore.Hbond>
4.0000

> <Gold.PLP.Chemscore.CHOScore>
0.0000

> <Gold.PLP.Chemscore.Metal>
0.0000

> <Gold.Chemscore.Hbonds>
donor molecule, donor type, donor heavy atom, donor atom, acceptor molecule, acceptor atom, score
      P1  H  6896  6907       L1     4  0.98
      P1  H  6934  6947       L1    24  1.00
      P1  H  7989  7998       L1    16  0.90
      P1  H  7997  8010       L1    15  1.00

> <Gold.PLP.Chemscore.Internal.Correction>
0.2229

> <Gold.Rescore>
     Score         DG    S(hbond)    S(metal)    S(lipo)     H(rot)  DE(clash)    DE(int)     intcor
     11.98     -14.41       3.35        0.00      52.24       3.27       1.13       1.31       ----

> <Gold.Chemscore.Fitness>
11.9798

> <Gold.Chemscore.DG>
-14.4139

> <Gold.Chemscore.ZeroCoef>
-5.4800

> <Gold.Chemscore.Hbond>
3.3490

> <Gold.Chemscore.Metal>
0.0000

> <Gold.Chemscore.Lipo>
52.2366

> <Gold.Chemscore.Internal_Hbond>
0.0000

> <Gold.Chemscore.DEClash>
1.1273

> <Gold.Chemscore.DEInternal>
1.3067

> <Gold.Chemscore.Rot>
3.2669

> <Gold.Chemscore.Internal.Correction>
   9.000000E+99

> <Gold.Chemscore.Hbonds>
donor molecule, donor type, donor heavy atom, donor atom, acceptor molecule, acceptor atom, score
      P1  H  6896  6907       L1     4  0.59
      P1  H  6934  6947       L1    24  0.85
      P1  H  7989  7998       L1    16  0.17
      P1  H  7997  8010       L1    15  0.96

> <Gold.Chemscore.Hbond.Weighted>
-11.1856

> <Gold.Chemscore.Metal.Weighted>
-0.0000

> <Gold.Chemscore.Lipo.Weighted>
-6.1117

> <Gold.Chemscore.Internal_Hbond.Weighted>
0.0000

> <Gold.Chemscore.DEClash.Weighted>
1.1273

> <Gold.Chemscore.DEInternal.Weighted>
1.3067

> <Gold.Chemscore.Rot.Weighted>
8.3634

> <Gold.Chemscore.Internal.Correction.Weighted>
   9.000000E+99

> <Gold.Protein.RotatedTorsions>
[ 6907 6896 6895 6894 ] final -139.57 input  -60.11 | X-H torsion
[ 7974 7965 7964 7962 ] final -105.56 input  175.53 | X-H torsion
[ 8008 7997 7996 7995 ] final  135.41 input   59.86 | X-H torsion
[ 10167 10162 10161 10158 ] final  -59.84 input  -65.29 | X-H torsion
[ 10718 10713 10712 10709 ] final  -33.85 input   66.30 | X-H torsion
[ 10763 10752 10751 10750 ] final  -97.05 input  -60.55 | X-H torsion
[ 11005 11000 10999 10996 ] final   43.98 input  -57.11 | X-H torsion

> <Gold.Protein.ActiveResidues>
 VAL166  LYS551  ARG553  GLY616  TRP617  ASP618  TYR619  PRO620  LYS621  CYS622 
 ASP623  PHE694  ASN695  SER759  ASP760  ASP761  ALA762  ILE779  LEU786  VAL792 
 PHE793  MET794  SER795  GLU796  ALA797  LYS798  CYS799  TRP800  GLU811  SER814 

> <Gold.Protein.RotatedAtoms>
  151.0495  133.5636  159.2643 H   0  0  0  0  0  0  0  0  0  0  0  0  # atno 6907 bound_to 6896
  151.2652  135.0666  159.9123 H   0  0  0  0  0  0  0  0  0  0  0  0  # atno 6908 bound_to 6896
  152.5379  134.0234  159.8046 H   0  0  0  0  0  0  0  0  0  0  0  0  # atno 6909 bound_to 6896
  145.2289  140.9163  143.3216 H   0  0  0  0  0  0  0  0  0  0  0  0  # atno 7974 bound_to 7965
  156.3003  140.2471  156.3577 H   0  0  0  0  0  0  0  0  0  0  0  0  # atno 8008 bound_to 7997
  154.8906  140.0409  157.1856 H   0  0  0  0  0  0  0  0  0  0  0  0  # atno 8009 bound_to 7997
  154.8601  140.2919  155.5548 H   0  0  0  0  0  0  0  0  0  0  0  0  # atno 8010 bound_to 7997
  140.6109  143.2387  151.5710 H   0  0  0  0  0  0  0  0  0  0  0  0  # atno 10167 bound_to 10162
  156.3577  130.4318  149.7650 H   0  0  0  0  0  0  0  0  0  0  0  0  # atno 10718 bound_to 10713
  154.7294  135.5061  153.8939 H   0  0  0  0  0  0  0  0  0  0  0  0  # atno 10763 bound_to 10752
  153.0935  135.6666  153.9816 H   0  0  0  0  0  0  0  0  0  0  0  0  # atno 10764 bound_to 10752
  153.9621  135.3047  155.3412 H   0  0  0  0  0  0  0  0  0  0  0  0  # atno 10765 bound_to 10752
  140.1594  134.4360  155.8327 H   0  0  0  0  0  0  0  0  0  0  0  0  # atno 11005 bound_to 11000
  144.9695  139.3895  143.6316 LP  0  0  0  0  0  0  0  0  0  0  0  0  # atno 17320 bound_to 7965
  146.3358  139.8785  142.8828 LP  0  0  0  0  0  0  0  0  0  0  0  0  # atno 17321 bound_to 7965
  139.5361  144.2778  152.1253 LP  0  0  0  0  0  0  0  0  0  0  0  0  # atno 17342 bound_to 10162
  140.1977  144.4689  150.6447 LP  0  0  0  0  0  0  0  0  0  0  0  0  # atno 17343 bound_to 10162
  156.4826  130.8048  151.3062 LP  0  0  0  0  0  0  0  0  0  0  0  0  # atno 17370 bound_to 10713
  157.7469  131.0001  150.2913 LP  0  0  0  0  0  0  0  0  0  0  0  0  # atno 17371 bound_to 10713
  141.2208  133.6907  156.7567 LP  0  0  0  0  0  0  0  0  0  0  0  0  # atno 17394 bound_to 11000
  140.2508  134.8542  157.3665 LP  0  0  0  0  0  0  0  0  0  0  0  0  # atno 17395 bound_to 11000

$$$$
