AV-unprocessed.smi:2801|AV-procd|sdf|10802|dock2
  -GOLD-   2272015233D 1   1.00000     0.00000
 Structure written by MMmdl.
 31 31  0  0  0  0  0  0  0  0  2 V2000
  152.7608  143.0952  161.9860 C   0  0  0  0  0  0  0  0  0  0  0  0
  152.9678  141.8815  161.0775 C   0  0  0  0  0  0  0  0  0  0  0  0
  152.7954  142.2912  159.7260 O   0  0  0  0  0  0  0  0  0  0  0  0
  151.5982  143.0176  159.4554 C   0  0  1  0  0  0  0  0  0  0  0  0
  151.9793  144.4954  159.2451 C   0  0  0  0  0  0  0  0  0  0  0  0
  152.8160  144.7191  157.9792 C   0  0  0  0  0  0  0  0  0  0  0  0
  150.8986  142.4410  158.2132 C   0  0  0  0  0  0  0  0  0  0  0  0
  149.8052  142.8905  157.8700 O   0  0  0  0  0  0  0  0  0  0  0  0
  151.5765  141.4780  157.5622 N   0  0  0  0  0  0  0  0  0  0  0  0
  151.2226  140.7425  156.3954 C   0  0  0  0  0  0  0  0  0  0  0  0
  150.1595  141.0960  155.5291 C   0  0  0  0  0  0  0  0  0  0  0  0
  149.8941  140.2766  154.4143 C   0  0  0  0  0  0  0  0  0  0  0  0
  150.5945  139.1608  154.1245 N   0  0  0  0  0  0  0  0  0  0  0  0
  151.5997  138.8184  154.9570 C   0  0  0  0  0  0  0  0  0  0  0  0
  151.9519  139.5660  156.0999 C   0  0  0  0  0  0  0  0  0  0  0  0
  152.9834  139.1442  156.8934 O   0  5  0  0  0  0  0  0  0  0  0  0
  152.8861  142.8229  163.0340 H   0  0  0  0  0  0  0  0  0  0  0  0
  151.7597  143.5090  161.8644 H   0  0  0  0  0  0  0  0  0  0  0  0
  153.4794  143.8822  161.7563 H   0  0  0  0  0  0  0  0  0  0  0  0
  153.9642  141.4698  161.2415 H   0  0  0  0  0  0  0  0  0  0  0  0
  152.2443  141.1045  161.3284 H   0  0  0  0  0  0  0  0  0  0  0  0
  150.9283  142.9514  160.3155 H   0  0  0  0  0  0  0  0  0  0  0  0
  151.0792  145.1101  159.1950 H   0  0  0  0  0  0  0  0  0  0  0  0
  152.5477  144.8545  160.1044 H   0  0  0  0  0  0  0  0  0  0  0  0
  153.0775  145.7714  157.8680 H   0  0  0  0  0  0  0  0  0  0  0  0
  152.2697  144.4170  157.0853 H   0  0  0  0  0  0  0  0  0  0  0  0
  153.7439  144.1477  158.0146 H   0  0  0  0  0  0  0  0  0  0  0  0
  152.4970  141.2684  157.9212 H   0  0  0  0  0  0  0  0  0  0  0  0
  149.5379  141.9605  155.6965 H   0  0  0  0  0  0  0  0  0  0  0  0
  149.0890  140.5228  153.7381 H   0  0  0  0  0  0  0  0  0  0  0  0
  152.1380  137.9169  154.7028 H   0  0  0  0  0  0  0  0  0  0  0  0
  1  2  1  0  0  0  0
  1 17  1  0  0  0  0
  1 18  1  0  0  0  0
  1 19  1  0  0  0  0
  2  3  1  0  0  0  0
  2 20  1  0  0  0  0
  2 21  1  0  0  0  0
  3  4  1  0  0  0  0
  4  5  1  0  0  0  0
  4  7  1  0  0  0  0
  4 22  1  0  0  0  0
  5  6  1  0  0  0  0
  5 23  1  0  0  0  0
  5 24  1  0  0  0  0
  6 25  1  0  0  0  0
  6 26  1  0  0  0  0
  6 27  1  0  0  0  0
  7  8  2  0  0  0  0
  7  9  1  0  0  0  0
  9 28  1  0  0  0  0
  9 10  1  0  0  0  0
 10 11  2  0  0  0  0
 10 15  1  0  0  0  0
 11 12  1  0  0  0  0
 11 29  1  0  0  0  0
 12 13  2  0  0  0  0
 12 30  1  0  0  0  0
 13 14  1  0  0  0  0
 14 15  2  0  0  0  0
 14 31  1  0  0  0  0
 15 16  1  0  0  0  0
M  CHG  1  16  -1
M  END
> <s_m_source_file>
AV-unprocessed.smi

> <i_m_source_file_index>
2801

> <i_lp_mmshare_version>
43012

> <i_f3d_flags>
0

> <s_epik_input>
W0NIM11bQ0gyXU9bQ0BIXShbQ0gyXVtDSDNdKUMoPU8pW05IXWMxW2NIXVtjSF1uW2NIXWMxW09IXQ==

> <s_epik_cmdline>
J2VwaWtfcHl0aG9uJywgJy1waCcsICc3LjAnLCAnLXRuJywgJzgnLCAnLW1hJywgJzIwMCcsICctbWV0YWxfYmluZGluZycsICctaW1hZScsICc8aW5maWxlLm1hZT4nLCAnLW9tYWUnLCAnPG91dGZpbGUubWFlPic=

> <r_lp_tautomer_probability>
0.56342

> <r_epik_Ionization_Penalty>
4.38321

> <r_epik_Ionization_Penalty_Charging>
2.0641

> <r_epik_Ionization_Penalty_Neutral>
2.31912

> <r_epik_State_Penalty>
2.63873

> <r_epik_Charging_Adjusted_Penalty>
4.70283

> <i_epik_Tot_Q>
-1

> <i_epik_Tot_abs_Q>
1

> <r_epik_Metal_State_Penalty>
0.606608

> <b_epik_Metal_Only>
1

> <s_lp_Force_Field>
OPLS_2005

> <r_lp_Energy>
9.76409

> <b_lp_Chiralities_Consistent>
1

> <s_lp_Variant>
AV-unprocessed.smi:2801-6

> <Gold.Version>
5.8.1

> <Gold.Id.Protein>
6NUR|6NUR_protein|mol2

> <Gold.PLP.Fitness>
43.8273

> <Gold.PLP.PLP>
-38.0620

> <Gold.PLP.part.hbond>
-2.0000

> <Gold.PLP.part.metal>
0.0000

> <Gold.PLP.part.buried>
-1.7035

> <Gold.PLP.part.nonpolar>
-33.7188

> <Gold.PLP.part.repulsive>
0.7248

> <Gold.PLP.ligand.clash>
0.0000

> <Gold.PLP.ligand.torsion>
0.8152

> <Gold.PLP.Chemscore.Hbond>
2.0000

> <Gold.PLP.Chemscore.CHOScore>
0.4343

> <Gold.PLP.Chemscore.Metal>
0.0000

> <Gold.Chemscore.Hbonds>
donor molecule, donor type, donor heavy atom, donor atom, acceptor molecule, acceptor atom, score
      P1  H  7997  8009       L1    16  2.00
      L1  C    12    30       P1  7957  0.45

> <Gold.PLP.Chemscore.Internal.Correction>
0.0930

> <Gold.Rescore>
     Score         DG    S(hbond)    S(metal)    S(lipo)     H(rot)  DE(clash)    DE(int)     intcor
     13.53     -15.55       0.95        0.00      92.92       1.55       0.02       2.00       ----

> <Gold.Chemscore.Fitness>
13.5330

> <Gold.Chemscore.DG>
-15.5536

> <Gold.Chemscore.ZeroCoef>
-5.4800

> <Gold.Chemscore.Hbond>
0.9463

> <Gold.Chemscore.Metal>
0.0000

> <Gold.Chemscore.Lipo>
92.9169

> <Gold.Chemscore.Internal_Hbond>
0.0000

> <Gold.Chemscore.DEClash>
0.0174

> <Gold.Chemscore.DEInternal>
2.0032

> <Gold.Chemscore.Rot>
1.5462

> <Gold.Chemscore.Internal.Correction>
   9.000000E+99

> <Gold.Chemscore.Hbonds>
donor molecule, donor type, donor heavy atom, donor atom, acceptor molecule, acceptor atom, score
      P1  H  7997  8009       L1    16  0.94

> <Gold.Chemscore.Hbond.Weighted>
-3.1607

> <Gold.Chemscore.Metal.Weighted>
-0.0000

> <Gold.Chemscore.Lipo.Weighted>
-10.8713

> <Gold.Chemscore.Internal_Hbond.Weighted>
0.0000

> <Gold.Chemscore.DEClash.Weighted>
0.0174

> <Gold.Chemscore.DEInternal.Weighted>
2.0032

> <Gold.Chemscore.Rot.Weighted>
3.9583

> <Gold.Chemscore.Internal.Correction.Weighted>
   9.000000E+99

> <Gold.Protein.RotatedTorsions>
[ 6907 6896 6895 6894 ] final  -99.82 input  -60.11 | X-H torsion
[ 7974 7965 7964 7962 ] final   35.98 input  175.53 | X-H torsion
[ 8008 7997 7996 7995 ] final  163.83 input   59.86 | X-H torsion
[ 10167 10162 10161 10158 ] final   94.03 input  -65.29 | X-H torsion
[ 10718 10713 10712 10709 ] final   26.82 input   66.30 | X-H torsion
[ 10763 10752 10751 10750 ] final -123.83 input  -60.55 | X-H torsion
[ 11005 11000 10999 10996 ] final    9.67 input  -57.11 | X-H torsion

> <Gold.Protein.ActiveResidues>
 VAL166  LYS551  ARG553  GLY616  TRP617  ASP618  TYR619  PRO620  LYS621  CYS622 
 ASP623  PHE694  ASN695  SER759  ASP760  ASP761  ALA762  ILE779  LEU786  VAL792 
 PHE793  MET794  SER795  GLU796  ALA797  LYS798  CYS799  TRP800  GLU811  SER814 

> <Gold.Protein.RotatedAtoms>
  150.7093  134.0981  159.3955 H   0  0  0  0  0  0  0  0  0  0  0  0  # atno 6907 bound_to 6896
  151.8967  135.0392  160.0512 H   0  0  0  0  0  0  0  0  0  0  0  0  # atno 6908 bound_to 6896
  152.2447  133.5129  159.5327 H   0  0  0  0  0  0  0  0  0  0  0  0  # atno 6909 bound_to 6896
  146.1244  139.6075  142.9268 H   0  0  0  0  0  0  0  0  0  0  0  0  # atno 7974 bound_to 7965
  156.1927  140.1713  156.8060 H   0  0  0  0  0  0  0  0  0  0  0  0  # atno 8008 bound_to 7997
  154.5491  140.0721  156.8669 H   0  0  0  0  0  0  0  0  0  0  0  0  # atno 8009 bound_to 7997
  155.3064  140.3365  155.4248 H   0  0  0  0  0  0  0  0  0  0  0  0  # atno 8010 bound_to 7997
  139.8123  144.6768  150.9624 H   0  0  0  0  0  0  0  0  0  0  0  0  # atno 10167 bound_to 10162
  157.2119  130.6938  149.6232 H   0  0  0  0  0  0  0  0  0  0  0  0  # atno 10718 bound_to 10713
  154.8714  135.4084  154.3008 H   0  0  0  0  0  0  0  0  0  0  0  0  # atno 10763 bound_to 10752
  153.3868  135.7013  153.6530 H   0  0  0  0  0  0  0  0  0  0  0  0  # atno 10764 bound_to 10752
  153.5329  135.3664  155.2655 H   0  0  0  0  0  0  0  0  0  0  0  0  # atno 10765 bound_to 10752
  140.5231  134.0540  155.7850 H   0  0  0  0  0  0  0  0  0  0  0  0  # atno 11005 bound_to 11000
  145.5396  141.0421  143.2338 LP  0  0  0  0  0  0  0  0  0  0  0  0  # atno 17320 bound_to 7965
  144.7628  139.6915  143.7227 LP  0  0  0  0  0  0  0  0  0  0  0  0  # atno 17321 bound_to 7965
  140.7817  143.4173  151.0897 LP  0  0  0  0  0  0  0  0  0  0  0  0  # atno 17342 bound_to 10162
  139.7839  143.8316  152.3142 LP  0  0  0  0  0  0  0  0  0  0  0  0  # atno 17343 bound_to 10162
  155.9690  130.4548  150.5864 LP  0  0  0  0  0  0  0  0  0  0  0  0  # atno 17370 bound_to 10713
  157.3663  131.0758  151.1595 LP  0  0  0  0  0  0  0  0  0  0  0  0  # atno 17371 bound_to 10713
  141.1323  133.9281  157.2508 LP  0  0  0  0  0  0  0  0  0  0  0  0  # atno 17394 bound_to 11000
  139.9595  135.0157  156.9221 LP  0  0  0  0  0  0  0  0  0  0  0  0  # atno 17395 bound_to 11000

$$$$
