AV-unprocessed.smi:711|AV-procd|sdf|3465|dock3
  -GOLD-   22720 0453D 1   1.00000     0.00000
 Structure written by MMmdl.
 29 30  0  0  0  0  0  0  0  0  1 V2000
  154.7417  134.5544  161.0008 O   0  0  0  0  0  0  0  0  0  0  0  0
  154.6319  135.7707  160.8594 C   0  0  0  0  0  0  0  0  0  0  0  0
  154.9525  136.3605  159.6329 N   0  0  0  0  0  0  0  0  0  0  0  0
  154.8708  137.7220  159.3391 C   0  0  0  0  0  0  0  0  0  0  0  0
  155.1885  138.1256  158.2205 O   0  0  0  0  0  0  0  0  0  0  0  0
  154.4159  138.5700  160.3754 N   0  0  0  0  0  0  0  0  0  0  0  0
  154.3248  139.9863  160.1116 C   0  0  0  0  0  0  0  0  0  0  0  0
  153.9414  140.8173  161.3551 C   0  0  1  0  0  0  0  0  0  0  0  0
  155.0927  141.0298  162.1491 O   0  0  0  0  0  0  0  0  0  0  0  0
  153.3010  142.1364  160.9400 C   0  0  0  0  0  0  0  0  0  0  0  0
  153.0647  142.4187  159.5753 C   0  0  0  0  0  0  0  0  0  0  0  0
  152.4566  143.6300  159.1930 C   0  0  0  0  0  0  0  0  0  0  0  0
  152.0759  144.5664  160.1724 C   0  0  0  0  0  0  0  0  0  0  0  0
  151.4894  145.7304  159.8056 F   0  0  0  0  0  0  0  0  0  0  0  0
  152.3024  144.2897  161.5339 C   0  0  0  0  0  0  0  0  0  0  0  0
  152.9097  143.0783  161.9188 C   0  0  0  0  0  0  0  0  0  0  0  0
  153.1081  142.8242  163.2348 F   0  0  0  0  0  0  0  0  0  0  0  0
  154.0964  138.0296  161.6117 C   0  0  0  0  0  0  0  0  0  0  0  0
  154.1816  136.7062  161.8891 C   0  0  0  0  0  0  0  0  0  0  0  0
  153.7634  136.1096  163.4552 Cl  0  0  0  0  0  0  0  0  0  0  0  0
  155.2719  135.7486  158.8961 H   0  0  0  0  0  0  0  0  0  0  0  0
  155.2364  140.3275  159.6165 H   0  0  0  0  0  0  0  0  0  0  0  0
  153.5401  140.0641  159.3566 H   0  0  0  0  0  0  0  0  0  0  0  0
  153.2295  140.2595  161.9649 H   0  0  0  0  0  0  0  0  0  0  0  0
  155.8283  141.1851  161.5765 H   0  0  0  0  0  0  0  0  0  0  0  0
  153.3446  141.7044  158.8148 H   0  0  0  0  0  0  0  0  0  0  0  0
  152.2798  143.8391  158.1482 H   0  0  0  0  0  0  0  0  0  0  0  0
  152.0062  145.0061  162.2857 H   0  0  0  0  0  0  0  0  0  0  0  0
  153.7639  138.6954  162.3960 H   0  0  0  0  0  0  0  0  0  0  0  0
  1  2  2  0  0  0  0
  2 19  1  0  0  0  0
  2  3  1  0  0  0  0
  3 21  1  0  0  0  0
  3  4  1  0  0  0  0
  4  5  2  0  0  0  0
  4  6  1  0  0  0  0
  6  7  1  0  0  0  0
  6 18  1  0  0  0  0
  7  8  1  0  0  0  0
  7 22  1  0  0  0  0
  7 23  1  0  0  0  0
  8  9  1  0  0  0  0
  8 10  1  0  0  0  0
  8 24  1  0  0  0  0
  9 25  1  0  0  0  0
 10 16  1  0  0  0  0
 10 11  2  0  0  0  0
 11 12  1  0  0  0  0
 11 26  1  0  0  0  0
 12 13  2  0  0  0  0
 12 27  1  0  0  0  0
 13 14  1  0  0  0  0
 13 15  1  0  0  0  0
 15 16  2  0  0  0  0
 15 28  1  0  0  0  0
 16 17  1  0  0  0  0
 18 19  2  0  0  0  0
 18 29  1  0  0  0  0
 19 20  1  0  0  0  0
M  END
> <s_m_source_file>
AV-unprocessed.smi

> <i_m_source_file_index>
711

> <i_lp_mmshare_version>
43012

> <i_f3d_flags>
0

> <s_epik_input>
Tz1jMVtuSF1jKD1PKW4oW2NIXWMxQ2wpW0NIMl1bQ0BIXShbT0hdKWMyW2NIXVtjSF1jKEYpW2NIXWMyRg==

> <s_epik_cmdline>
J2VwaWtfcHl0aG9uJywgJy1waCcsICc3LjAnLCAnLXRuJywgJzgnLCAnLW1hJywgJzIwMCcsICctbWV0YWxfYmluZGluZycsICctaW1hZScsICc8aW5maWxlLm1hZT4nLCAnLW9tYWUnLCAnPG91dGZpbGUubWFlPic=

> <r_lp_tautomer_probability>
0.999537

> <r_epik_Ionization_Penalty>
0.0292058

> <r_epik_Ionization_Penalty_Charging>
0.0292057

> <r_epik_Ionization_Penalty_Neutral>
9.07348e-08

> <r_epik_State_Penalty>
0.0240115

> <r_epik_Charging_Adjusted_Penalty>
0.0532172

> <i_epik_Tot_Q>
0

> <i_epik_Tot_abs_Q>
0

> <r_epik_Metal_State_Penalty>
2.21956

> <b_epik_Metal_Only>
0

> <s_lp_Force_Field>
OPLS_2005

> <r_lp_Energy>
13.2316

> <b_lp_Chiralities_Consistent>
1

> <s_lp_Variant>
AV-unprocessed.smi:711-2

> <Gold.Version>
5.8.1

> <Gold.Id.Protein>
6NUR|6NUR_protein|mol2

> <Gold.PLP.Fitness>
50.6515

> <Gold.PLP.PLP>
-48.8346

> <Gold.PLP.part.hbond>
-2.0000

> <Gold.PLP.part.metal>
0.0000

> <Gold.PLP.part.buried>
-3.9347

> <Gold.PLP.part.nonpolar>
-42.5585

> <Gold.PLP.part.repulsive>
0.0443

> <Gold.PLP.ligand.clash>
0.0000

> <Gold.PLP.ligand.torsion>
0.2796

> <Gold.PLP.Chemscore.Hbond>
0.7865

> <Gold.PLP.Chemscore.CHOScore>
0.0000

> <Gold.PLP.Chemscore.Metal>
0.0000

> <Gold.Chemscore.Hbonds>
donor molecule, donor type, donor heavy atom, donor atom, acceptor molecule, acceptor atom, score
      P1  H  7997  8009       L1     5  0.82

> <Gold.PLP.Chemscore.Internal.Correction>
0.0166

> <Gold.Rescore>
     Score         DG    S(hbond)    S(metal)    S(lipo)     H(rot)  DE(clash)    DE(int)     intcor
     12.72     -15.45       0.91        0.00     111.02       2.37       1.29       1.44       ----

> <Gold.Chemscore.Fitness>
12.7175

> <Gold.Chemscore.DG>
-15.4501

> <Gold.Chemscore.ZeroCoef>
-5.4800

> <Gold.Chemscore.Hbond>
0.9088

> <Gold.Chemscore.Metal>
0.0000

> <Gold.Chemscore.Lipo>
111.0199

> <Gold.Chemscore.Internal_Hbond>
0.0000

> <Gold.Chemscore.DEClash>
1.2878

> <Gold.Chemscore.DEInternal>
1.4447

> <Gold.Chemscore.Rot>
2.3652

> <Gold.Chemscore.Internal.Correction>
   9.000000E+99

> <Gold.Chemscore.Hbonds>
donor molecule, donor type, donor heavy atom, donor atom, acceptor molecule, acceptor atom, score
      P1  H  7997  8009       L1     5  0.77

> <Gold.Chemscore.Hbond.Weighted>
-3.0355

> <Gold.Chemscore.Metal.Weighted>
-0.0000

> <Gold.Chemscore.Lipo.Weighted>
-12.9893

> <Gold.Chemscore.Internal_Hbond.Weighted>
0.0000

> <Gold.Chemscore.DEClash.Weighted>
1.2878

> <Gold.Chemscore.DEInternal.Weighted>
1.4447

> <Gold.Chemscore.Rot.Weighted>
6.0548

> <Gold.Chemscore.Internal.Correction.Weighted>
   9.000000E+99

> <Gold.Protein.RotatedTorsions>
[ 6907 6896 6895 6894 ] final  114.94 input  -60.11 | X-H torsion
[ 7974 7965 7964 7962 ] final   98.67 input  175.53 | X-H torsion
[ 8008 7997 7996 7995 ] final  116.16 input   59.86 | X-H torsion
[ 10167 10162 10161 10158 ] final -154.02 input  -65.29 | X-H torsion
[ 10718 10713 10712 10709 ] final -178.92 input   66.30 | X-H torsion
[ 10763 10752 10751 10750 ] final  149.24 input  -60.55 | X-H torsion
[ 11005 11000 10999 10996 ] final -106.46 input  -57.11 | X-H torsion

> <Gold.Protein.ActiveResidues>
 VAL166  LYS551  ARG553  GLY616  TRP617  ASP618  TYR619  PRO620  LYS621  CYS622 
 ASP623  PHE694  ASN695  SER759  ASP760  ASP761  ALA762  ILE779  LEU786  VAL792 
 PHE793  MET794  SER795  GLU796  ALA797  LYS798  CYS799  TRP800  GLU811  SER814 

> <Gold.Protein.RotatedAtoms>
  152.4772  133.8167  159.7031 H   0  0  0  0  0  0  0  0  0  0  0  0  # atno 6907 bound_to 6896
  150.8797  133.7379  159.2942 H   0  0  0  0  0  0  0  0  0  0  0  0  # atno 6908 bound_to 6896
  151.4887  135.1060  159.9850 H   0  0  0  0  0  0  0  0  0  0  0  0  # atno 6909 bound_to 6896
  145.4091  139.2336  143.3258 H   0  0  0  0  0  0  0  0  0  0  0  0  # atno 7974 bound_to 7965
  156.2423  140.2923  156.0480 H   0  0  0  0  0  0  0  0  0  0  0  0  # atno 8008 bound_to 7997
  155.1913  140.0407  157.2918 H   0  0  0  0  0  0  0  0  0  0  0  0  # atno 8009 bound_to 7997
  154.6192  140.2471  155.7577 H   0  0  0  0  0  0  0  0  0  0  0  0  # atno 8010 bound_to 7997
  139.7048  143.9204  152.2444 H   0  0  0  0  0  0  0  0  0  0  0  0  # atno 10167 bound_to 10162
  156.8514  130.9720  151.3092 H   0  0  0  0  0  0  0  0  0  0  0  0  # atno 10718 bound_to 10713
  154.0679  135.2869  155.3313 H   0  0  0  0  0  0  0  0  0  0  0  0  # atno 10763 bound_to 10752
  154.6766  135.5279  153.8210 H   0  0  0  0  0  0  0  0  0  0  0  0  # atno 10764 bound_to 10752
  153.0497  135.6571  154.0862 H   0  0  0  0  0  0  0  0  0  0  0  0  # atno 10765 bound_to 10752
  141.1003  133.8896  157.1859 H   0  0  0  0  0  0  0  0  0  0  0  0  # atno 11005 bound_to 11000
  146.2714  140.4799  142.8813 LP  0  0  0  0  0  0  0  0  0  0  0  0  # atno 17320 bound_to 7965
  144.8321  140.6724  143.6284 LP  0  0  0  0  0  0  0  0  0  0  0  0  # atno 17321 bound_to 7965
  139.9057  144.6886  150.8617 LP  0  0  0  0  0  0  0  0  0  0  0  0  # atno 17342 bound_to 10162
  140.7719  143.3481  151.2070 LP  0  0  0  0  0  0  0  0  0  0  0  0  # atno 17343 bound_to 10162
  157.6301  130.8722  149.9259 LP  0  0  0  0  0  0  0  0  0  0  0  0  # atno 17370 bound_to 10713
  156.0826  130.3671  150.0550 LP  0  0  0  0  0  0  0  0  0  0  0  0  # atno 17371 bound_to 10713
  139.9853  135.0084  156.9847 LP  0  0  0  0  0  0  0  0  0  0  0  0  # atno 17394 bound_to 11000
  140.5038  134.1071  155.7256 LP  0  0  0  0  0  0  0  0  0  0  0  0  # atno 17395 bound_to 11000

$$$$
