AV-unprocessed.smi:841|AV-procd|sdf|3916|dock3
  -GOLD-   22720 1383D 1   1.00000     0.00000
 Structure written by MMmdl.
 30 31  0  0  0  0  0  0  0  0  1 V2000
  154.7212  139.9454  159.3159 O   0  0  0  0  0  0  0  0  0  0  0  0
  153.7112  140.6293  159.4825 C   0  0  0  0  0  0  0  0  0  0  0  0
  153.6801  141.7001  160.5762 C   0  0  0  0  0  0  0  0  0  0  0  0
  152.8868  142.8494  160.1748 N   0  0  0  0  0  0  0  0  0  0  0  0
  153.0273  143.6405  159.0528 C   0  0  0  0  0  0  0  0  0  0  0  0
  152.0616  144.6043  159.1101 C   0  0  0  0  0  0  0  0  0  0  0  0
  151.3734  144.3209  160.3226 C   0  0  0  0  0  0  0  0  0  0  0  0
  151.8714  143.2730  160.9591 N   0  0  0  0  0  0  0  0  0  0  0  0
  152.5983  140.4980  158.7435 N   0  0  0  0  0  0  0  0  0  0  0  0
  152.4113  139.5473  157.6517 C   0  0  0  0  0  0  0  0  0  0  0  0
  151.1919  139.9049  156.7812 C   0  0  1  0  0  0  0  0  0  0  0  0
  150.9754  141.3881  156.5487 C   0  0  0  0  0  0  0  0  0  0  0  0
  150.0711  141.3901  155.3198 C   0  0  0  0  0  0  0  0  0  0  0  0
  150.4116  140.2201  154.5811 O   0  0  0  0  0  0  0  0  0  0  0  0
  151.2933  139.4004  155.3423 C   0  0  0  0  0  0  0  0  0  0  0  0
  153.2667  141.2687  161.4893 H   0  0  0  0  0  0  0  0  0  0  0  0
  154.6886  142.0434  160.8117 H   0  0  0  0  0  0  0  0  0  0  0  0
  153.7935  143.4522  158.3151 H   0  0  0  0  0  0  0  0  0  0  0  0
  151.8762  145.3926  158.3957 H   0  0  0  0  0  0  0  0  0  0  0  0
  150.5344  144.8435  160.7578 H   0  0  0  0  0  0  0  0  0  0  0  0
  151.8197  141.1062  158.9521 H   0  0  0  0  0  0  0  0  0  0  0  0
  153.3126  139.4731  157.0407 H   0  0  0  0  0  0  0  0  0  0  0  0
  152.2639  138.5621  158.0947 H   0  0  0  0  0  0  0  0  0  0  0  0
  150.2896  139.4864  157.2309 H   0  0  0  0  0  0  0  0  0  0  0  0
  150.5281  141.8983  157.4023 H   0  0  0  0  0  0  0  0  0  0  0  0
  151.9217  141.8783  156.3156 H   0  0  0  0  0  0  0  0  0  0  0  0
  149.0241  141.3193  155.6171 H   0  0  0  0  0  0  0  0  0  0  0  0
  150.1916  142.2910  154.7180 H   0  0  0  0  0  0  0  0  0  0  0  0
  152.3047  139.5327  154.9555 H   0  0  0  0  0  0  0  0  0  0  0  0
  151.0323  138.3459  155.2504 H   0  0  0  0  0  0  0  0  0  0  0  0
  1  2  2  0  0  0  0
  2  3  1  0  0  0  0
  2  9  1  0  0  0  0
  3  4  1  0  0  0  0
  3 16  1  0  0  0  0
  3 17  1  0  0  0  0
  4  8  1  0  0  0  0
  4  5  1  0  0  0  0
  5  6  2  0  0  0  0
  5 18  1  0  0  0  0
  6  7  1  0  0  0  0
  6 19  1  0  0  0  0
  7  8  2  0  0  0  0
  7 20  1  0  0  0  0
  9 10  1  0  0  0  0
  9 21  1  0  0  0  0
 10 11  1  0  0  0  0
 10 22  1  0  0  0  0
 10 23  1  0  0  0  0
 11 15  1  0  0  0  0
 11 12  1  0  0  0  0
 11 24  1  0  0  0  0
 12 13  1  0  0  0  0
 12 25  1  0  0  0  0
 12 26  1  0  0  0  0
 13 14  1  0  0  0  0
 13 27  1  0  0  0  0
 13 28  1  0  0  0  0
 14 15  1  0  0  0  0
 15 29  1  0  0  0  0
 15 30  1  0  0  0  0
M  END
> <s_m_source_file>
AV-unprocessed.smi

> <i_m_source_file_index>
841

> <i_lp_mmshare_version>
43012

> <i_f3d_flags>
0

> <s_epik_input>
bjFbY0hdW2NIXVtjSF1uMVtDSDJdQyg9TylbTkhdW0NIMl1bQ0BASF0yW0NIMl1bQ0gyXU9bQ0gyXTI=

> <s_epik_cmdline>
J2VwaWtfcHl0aG9uJywgJy1waCcsICc3LjAnLCAnLXRuJywgJzgnLCAnLW1hJywgJzIwMCcsICctbWV0YWxfYmluZGluZycsICctaW1hZScsICc8aW5maWxlLm1hZT4nLCAnLW9tYWUnLCAnPG91dGZpbGUubWFlPic=

> <r_lp_tautomer_probability>
1

> <r_epik_Ionization_Penalty>
1.49823e-05

> <r_epik_Ionization_Penalty_Charging>
0

> <r_epik_Ionization_Penalty_Neutral>
1.49823e-05

> <r_epik_State_Penalty>
-0

> <r_epik_Charging_Adjusted_Penalty>
0

> <i_epik_Tot_Q>
0

> <i_epik_Tot_abs_Q>
0

> <r_epik_Metal_State_Penalty>
-0

> <b_epik_Metal_Only>
0

> <s_lp_Force_Field>
OPLS_2005

> <r_lp_Energy>
18.8738

> <b_lp_Chiralities_Consistent>
1

> <s_lp_Variant>
AV-unprocessed.smi:841-2

> <Gold.Version>
5.8.1

> <Gold.Id.Protein>
6NUR|6NUR_protein|mol2

> <Gold.PLP.Fitness>
41.0406

> <Gold.PLP.PLP>
-36.8433

> <Gold.PLP.part.hbond>
-2.0000

> <Gold.PLP.part.metal>
0.0000

> <Gold.PLP.part.buried>
-3.8657

> <Gold.PLP.part.nonpolar>
-30.1706

> <Gold.PLP.part.repulsive>
0.2949

> <Gold.PLP.ligand.clash>
0.0000

> <Gold.PLP.ligand.torsion>
0.7443

> <Gold.PLP.Chemscore.Hbond>
1.8920

> <Gold.PLP.Chemscore.CHOScore>
0.0000

> <Gold.PLP.Chemscore.Metal>
0.0000

> <Gold.Chemscore.Hbonds>
donor molecule, donor type, donor heavy atom, donor atom, acceptor molecule, acceptor atom, score
      P1  H  7989  7998       L1    14  0.85
      P1  H  7997  8008       L1     1  0.95

> <Gold.PLP.Chemscore.Internal.Correction>
0.0100

> <Gold.Rescore>
     Score         DG    S(hbond)    S(metal)    S(lipo)     H(rot)  DE(clash)    DE(int)     intcor
     13.01     -13.61       0.84        0.00      82.24       1.68       0.02       0.59       ----

> <Gold.Chemscore.Fitness>
13.0089

> <Gold.Chemscore.DG>
-13.6142

> <Gold.Chemscore.ZeroCoef>
-5.4800

> <Gold.Chemscore.Hbond>
0.8398

> <Gold.Chemscore.Metal>
0.0000

> <Gold.Chemscore.Lipo>
82.2439

> <Gold.Chemscore.Internal_Hbond>
0.0000

> <Gold.Chemscore.DEClash>
0.0178

> <Gold.Chemscore.DEInternal>
0.5875

> <Gold.Chemscore.Rot>
1.6771

> <Gold.Chemscore.Internal.Correction>
   9.000000E+99

> <Gold.Chemscore.Hbonds>
donor molecule, donor type, donor heavy atom, donor atom, acceptor molecule, acceptor atom, score
      P1  H  7989  7998       L1    14  0.04
      P1  H  7997  8008       L1     1  0.63

> <Gold.Chemscore.Hbond.Weighted>
-2.8050

> <Gold.Chemscore.Metal.Weighted>
-0.0000

> <Gold.Chemscore.Lipo.Weighted>
-9.6225

> <Gold.Chemscore.Internal_Hbond.Weighted>
0.0000

> <Gold.Chemscore.DEClash.Weighted>
0.0178

> <Gold.Chemscore.DEInternal.Weighted>
0.5875

> <Gold.Chemscore.Rot.Weighted>
4.2934

> <Gold.Chemscore.Internal.Correction.Weighted>
   9.000000E+99

> <Gold.Protein.RotatedTorsions>
[ 6907 6896 6895 6894 ] final  -79.59 input  -60.11 | X-H torsion
[ 7974 7965 7964 7962 ] final  168.59 input  175.53 | X-H torsion
[ 8008 7997 7996 7995 ] final -133.62 input   59.86 | X-H torsion
[ 10167 10162 10161 10158 ] final  -96.87 input  -65.29 | X-H torsion
[ 10718 10713 10712 10709 ] final -142.33 input   66.30 | X-H torsion
[ 10763 10752 10751 10750 ] final  154.42 input  -60.55 | X-H torsion
[ 11005 11000 10999 10996 ] final  125.00 input  -57.11 | X-H torsion

> <Gold.Protein.ActiveResidues>
 VAL166  LYS551  ARG553  GLY616  TRP617  ASP618  TYR619  PRO620  LYS621  CYS622 
 ASP623  PHE694  ASN695  SER759  ASP760  ASP761  ALA762  ILE779  LEU786  VAL792 
 PHE793  MET794  SER795  GLU796  ALA797  LYS798  CYS799  TRP800  GLU811  SER814 

> <Gold.Protein.RotatedAtoms>
  150.6946  134.4098  159.5156 H   0  0  0  0  0  0  0  0  0  0  0  0  # atno 6907 bound_to 6896
  152.1858  134.8712  160.0531 H   0  0  0  0  0  0  0  0  0  0  0  0  # atno 6908 bound_to 6896
  151.9685  133.3683  159.4099 H   0  0  0  0  0  0  0  0  0  0  0  0  # atno 6909 bound_to 6896
  144.7383  139.8930  143.6404 H   0  0  0  0  0  0  0  0  0  0  0  0  # atno 7974 bound_to 7965
  155.3486  140.0476  157.3046 H   0  0  0  0  0  0  0  0  0  0  0  0  # atno 8008 bound_to 7997
  154.5239  140.2234  155.8889 H   0  0  0  0  0  0  0  0  0  0  0  0  # atno 8009 bound_to 7997
  156.1719  140.3094  155.8995 H   0  0  0  0  0  0  0  0  0  0  0  0  # atno 8010 bound_to 7997
  140.2893  143.3231  152.0362 H   0  0  0  0  0  0  0  0  0  0  0  0  # atno 10167 bound_to 10162
  156.3446  130.7656  151.1798 H   0  0  0  0  0  0  0  0  0  0  0  0  # atno 10718 bound_to 10713
  154.1520  135.2814  155.3133 H   0  0  0  0  0  0  0  0  0  0  0  0  # atno 10763 bound_to 10752
  154.6210  135.5467  153.7579 H   0  0  0  0  0  0  0  0  0  0  0  0  # atno 10764 bound_to 10752
  153.0218  135.6439  154.1664 H   0  0  0  0  0  0  0  0  0  0  0  0  # atno 10765 bound_to 10752
  139.9385  134.9637  156.8493 H   0  0  0  0  0  0  0  0  0  0  0  0  # atno 11005 bound_to 11000
  146.1128  139.4134  143.0277 LP  0  0  0  0  0  0  0  0  0  0  0  0  # atno 17320 bound_to 7965
  145.7419  141.0005  143.1296 LP  0  0  0  0  0  0  0  0  0  0  0  0  # atno 17321 bound_to 7965
  139.4942  144.6536  151.6621 LP  0  0  0  0  0  0  0  0  0  0  0  0  # atno 17342 bound_to 10162
  140.5746  144.0051  150.6234 LP  0  0  0  0  0  0  0  0  0  0  0  0  # atno 17343 bound_to 10162
  157.7452  131.0445  150.4795 LP  0  0  0  0  0  0  0  0  0  0  0  0  # atno 17370 bound_to 10713
  156.4980  130.4110  149.6369 LP  0  0  0  0  0  0  0  0  0  0  0  0  # atno 17371 bound_to 10713
  140.6012  134.0170  155.7538 LP  0  0  0  0  0  0  0  0  0  0  0  0  # atno 17394 bound_to 11000
  141.1010  133.9768  157.3079 LP  0  0  0  0  0  0  0  0  0  0  0  0  # atno 17395 bound_to 11000

$$$$
