AV-unprocessed.smi:3183|AV-procd|sdf|12154|dock10
  -GOLD-   2272017593D 1   1.00000     0.00000
 Structure written by MMmdl.
 43 44  0  0  0  0  0  0  0  0  2 V2000
  152.4468  143.2310  161.3970 C   0  0  0  0  0  0  0  0  0  0  0  0
  152.9555  143.5833  159.9844 C   0  0  1  0  0  0  0  0  0  0  0  0
  153.1215  142.3236  159.1086 C   0  0  0  0  0  0  0  0  0  0  0  0
  151.7707  141.7429  158.6564 C   0  0  0  0  0  0  0  0  0  0  0  0
  150.9282  142.7983  157.9198 C   0  0  1  0  0  0  0  0  0  0  0  0
  149.6162  142.2334  157.5374 N   0  3  0  0  0  0  0  0  0  0  0  0
  149.6882  140.9867  156.7492 C   0  0  0  0  0  0  0  0  0  0  0  0
  149.5853  141.2751  155.2445 C   0  0  0  0  0  0  0  0  0  0  0  0
  148.4965  140.5183  154.5449 C   0  0  0  0  0  0  0  0  0  0  0  0
  147.3485  140.9538  153.9402 C   0  0  0  0  0  0  0  0  0  0  0  0
  146.7321  139.7653  153.4618 C   0  0  0  0  0  0  0  0  0  0  0  0
  147.4343  138.6827  153.7440 N   0  0  0  0  0  0  0  0  0  0  0  0
  148.5164  139.1401  154.4080 N   0  0  0  0  0  0  0  0  0  0  0  0
  149.5020  138.1785  154.8650 C   0  0  0  0  0  0  0  0  0  0  0  0
  150.7386  144.0526  158.7923 C   0  0  0  0  0  0  0  0  0  0  0  0
  152.0927  144.6381  159.2438 C   0  0  1  0  0  0  0  0  0  0  0  0
  151.9159  145.9440  160.0360 C   0  0  0  0  0  0  0  0  0  0  0  0
  151.4231  142.8583  161.3861 H   0  0  0  0  0  0  0  0  0  0  0  0
  152.4773  144.0958  162.0596 H   0  0  0  0  0  0  0  0  0  0  0  0
  153.0703  142.4620  161.8535 H   0  0  0  0  0  0  0  0  0  0  0  0
  153.9511  144.0095  160.1167 H   0  0  0  0  0  0  0  0  0  0  0  0
  153.7105  142.5774  158.2260 H   0  0  0  0  0  0  0  0  0  0  0  0
  153.6940  141.5641  159.6422 H   0  0  0  0  0  0  0  0  0  0  0  0
  151.9444  140.8857  158.0049 H   0  0  0  0  0  0  0  0  0  0  0  0
  151.2234  141.3634  159.5201 H   0  0  0  0  0  0  0  0  0  0  0  0
  151.4699  143.0934  157.0191 H   0  0  0  0  0  0  0  0  0  0  0  0
  149.0918  142.0497  158.3808 H   0  0  0  0  0  0  0  0  0  0  0  0
  150.6299  140.4814  156.9694 H   0  0  0  0  0  0  0  0  0  0  0  0
  148.8794  140.3234  157.0596 H   0  0  0  0  0  0  0  0  0  0  0  0
  149.4241  142.3439  155.0970 H   0  0  0  0  0  0  0  0  0  0  0  0
  150.5395  141.0404  154.7708 H   0  0  0  0  0  0  0  0  0  0  0  0
  146.9960  141.9704  153.8497 H   0  0  0  0  0  0  0  0  0  0  0  0
  145.8027  139.6576  152.9220 H   0  0  0  0  0  0  0  0  0  0  0  0
  150.3205  138.6742  155.3857 H   0  0  0  0  0  0  0  0  0  0  0  0
  149.9085  137.6358  154.0111 H   0  0  0  0  0  0  0  0  0  0  0  0
  149.0331  137.4682  155.5464 H   0  0  0  0  0  0  0  0  0  0  0  0
  150.1859  144.8057  158.2285 H   0  0  0  0  0  0  0  0  0  0  0  0
  150.1255  143.8142  159.6624 H   0  0  0  0  0  0  0  0  0  0  0  0
  152.6383  144.9063  158.3375 H   0  0  0  0  0  0  0  0  0  0  0  0
  151.3005  145.7991  160.9240 H   0  0  0  0  0  0  0  0  0  0  0  0
  151.4314  146.7067  159.4259 H   0  0  0  0  0  0  0  0  0  0  0  0
  152.8787  146.3434  160.3557 H   0  0  0  0  0  0  0  0  0  0  0  0
  149.1185  142.9261  156.9962 H   0  0  0  0  0  0  0  0  0  0  0  0
  1  2  1  0  0  0  0
  1 18  1  0  0  0  0
  1 19  1  0  0  0  0
  1 20  1  0  0  0  0
  2 16  1  0  0  0  0
  2  3  1  0  0  0  0
  2 21  1  0  0  0  0
  3  4  1  0  0  0  0
  3 22  1  0  0  0  0
  3 23  1  0  0  0  0
  4  5  1  0  0  0  0
  4 24  1  0  0  0  0
  4 25  1  0  0  0  0
  5  6  1  0  0  0  0
  5 15  1  0  0  0  0
  5 26  1  0  0  0  0
  6  7  1  0  0  0  0
  6 27  1  0  0  0  0
  6 43  1  0  0  0  0
  7  8  1  0  0  0  0
  7 28  1  0  0  0  0
  7 29  1  0  0  0  0
  8  9  1  0  0  0  0
  8 30  1  0  0  0  0
  8 31  1  0  0  0  0
  9 13  1  0  0  0  0
  9 10  2  0  0  0  0
 10 11  1  0  0  0  0
 10 32  1  0  0  0  0
 11 12  2  0  0  0  0
 11 33  1  0  0  0  0
 12 13  1  0  0  0  0
 13 14  1  0  0  0  0
 14 34  1  0  0  0  0
 14 35  1  0  0  0  0
 14 36  1  0  0  0  0
 15 16  1  0  0  0  0
 15 37  1  0  0  0  0
 15 38  1  0  0  0  0
 16 17  1  0  0  0  0
 16 39  1  0  0  0  0
 17 40  1  0  0  0  0
 17 41  1  0  0  0  0
 17 42  1  0  0  0  0
M  CHG  1   6   1
M  END
> <s_m_source_file>
AV-unprocessed.smi

> <i_m_source_file_index>
3183

> <i_lp_mmshare_version>
43012

> <i_f3d_flags>
0

> <s_epik_input>
W0NIM11bQ0BASF0xW0NIMl1bQ0gyXVtDQEhdKFtDSDJdW0NASF0xW0NIM10pW05IXVtDSDJdW0NIMl1jMltjSF1bY0hdbm4yW0NIM10=

> <s_epik_cmdline>
J2VwaWtfcHl0aG9uJywgJy1waCcsICc3LjAnLCAnLXRuJywgJzgnLCAnLW1hJywgJzIwMCcsICctbWV0YWxfYmluZGluZycsICctaW1hZScsICc8aW5maWxlLm1hZT4nLCAnLW9tYWUnLCAnPG91dGZpbGUubWFlPic=

> <r_lp_tautomer_probability>
1

> <r_epik_Ionization_Penalty>
0.000327718

> <r_epik_Ionization_Penalty_Charging>
0.000294043

> <r_epik_Ionization_Penalty_Neutral>
3.36755e-05

> <r_epik_State_Penalty>
-0

> <r_epik_Charging_Adjusted_Penalty>
0.000294043

> <i_epik_Tot_Q>
1

> <i_epik_Tot_abs_Q>
1

> <r_epik_Metal_State_Penalty>
-0

> <b_epik_Metal_Only>
0

> <s_lp_Force_Field>
OPLS_2005

> <r_lp_Energy>
15.8905

> <b_lp_Chiralities_Consistent>
1

> <s_lp_Variant>
AV-unprocessed.smi:3183-2

> <Gold.Version>
5.8.1

> <Gold.Id.Protein>
6NUR|6NUR_protein|mol2

> <Gold.PLP.Fitness>
50.6948

> <Gold.PLP.PLP>
-43.0091

> <Gold.PLP.part.hbond>
-1.0000

> <Gold.PLP.part.metal>
0.0000

> <Gold.PLP.part.buried>
-2.1445

> <Gold.PLP.part.nonpolar>
-39.4262

> <Gold.PLP.part.repulsive>
0.4981

> <Gold.PLP.ligand.clash>
0.0000

> <Gold.PLP.ligand.torsion>
0.6621

> <Gold.PLP.Chemscore.Hbond>
2.0000

> <Gold.PLP.Chemscore.CHOScore>
1.0000

> <Gold.PLP.Chemscore.Metal>
0.0000

> <Gold.Chemscore.Hbonds>
donor molecule, donor type, donor heavy atom, donor atom, acceptor molecule, acceptor atom, score
      L1  H     6    43       P1  8028  0.94
      L1  C    11    33       P1 10175  1.00

> <Gold.PLP.Chemscore.Internal.Correction>
0.0098

> <Gold.Rescore>
     Score         DG    S(hbond)    S(metal)    S(lipo)     H(rot)  DE(clash)    DE(int)     intcor
     19.58     -20.85       1.00        0.00     133.01       1.38       0.38       0.89       ----

> <Gold.Chemscore.Fitness>
19.5794

> <Gold.Chemscore.DG>
-20.8465

> <Gold.Chemscore.ZeroCoef>
-5.4800

> <Gold.Chemscore.Hbond>
0.9966

> <Gold.Chemscore.Metal>
0.0000

> <Gold.Chemscore.Lipo>
133.0135

> <Gold.Chemscore.Internal_Hbond>
0.0000

> <Gold.Chemscore.DEClash>
0.3774

> <Gold.Chemscore.DEInternal>
0.8897

> <Gold.Chemscore.Rot>
1.3768

> <Gold.Chemscore.Internal.Correction>
   9.000000E+99

> <Gold.Chemscore.Hbonds>
donor molecule, donor type, donor heavy atom, donor atom, acceptor molecule, acceptor atom, score
      L1  H     6    43       P1  8028  0.45

> <Gold.Chemscore.Hbond.Weighted>
-3.3286

> <Gold.Chemscore.Metal.Weighted>
-0.0000

> <Gold.Chemscore.Lipo.Weighted>
-15.5626

> <Gold.Chemscore.Internal_Hbond.Weighted>
0.0000

> <Gold.Chemscore.DEClash.Weighted>
0.3774

> <Gold.Chemscore.DEInternal.Weighted>
0.8897

> <Gold.Chemscore.Rot.Weighted>
3.5247

> <Gold.Chemscore.Internal.Correction.Weighted>
   9.000000E+99

> <Gold.Protein.RotatedTorsions>
[ 6907 6896 6895 6894 ] final  -50.93 input  -60.11 | X-H torsion
[ 7974 7965 7964 7962 ] final -166.76 input  175.53 | X-H torsion
[ 8008 7997 7996 7995 ] final   86.58 input   59.86 | X-H torsion
[ 10167 10162 10161 10158 ] final  162.96 input  -65.29 | X-H torsion
[ 10718 10713 10712 10709 ] final  129.55 input   66.30 | X-H torsion
[ 10763 10752 10751 10750 ] final  -75.78 input  -60.55 | X-H torsion
[ 11005 11000 10999 10996 ] final  -94.61 input  -57.11 | X-H torsion

> <Gold.Protein.ActiveResidues>
 VAL166  LYS551  ARG553  GLY616  TRP617  ASP618  TYR619  PRO620  LYS621  CYS622 
 ASP623  PHE694  ASN695  SER759  ASP760  ASP761  ALA762  ILE779  LEU786  VAL792 
 PHE793  MET794  SER795  GLU796  ALA797  LYS798  CYS799  TRP800  GLU811  SER814 

> <Gold.Protein.RotatedAtoms>
  150.8659  134.8023  159.7118 H   0  0  0  0  0  0  0  0  0  0  0  0  # atno 6907 bound_to 6896
  152.4681  134.5024  159.9738 H   0  0  0  0  0  0  0  0  0  0  0  0  # atno 6908 bound_to 6896
  151.5120  133.3444  159.2922 H   0  0  0  0  0  0  0  0  0  0  0  0  # atno 6909 bound_to 6896
  144.7238  140.2618  143.6263 H   0  0  0  0  0  0  0  0  0  0  0  0  # atno 7974 bound_to 7965
  155.9646  140.3390  155.6521 H   0  0  0  0  0  0  0  0  0  0  0  0  # atno 8008 bound_to 7997
  155.6753  140.0731  157.2523 H   0  0  0  0  0  0  0  0  0  0  0  0  # atno 8009 bound_to 7997
  154.4151  140.1684  156.1911 H   0  0  0  0  0  0  0  0  0  0  0  0  # atno 8010 bound_to 7997
  139.4867  144.4385  151.8982 H   0  0  0  0  0  0  0  0  0  0  0  0  # atno 10167 bound_to 10162
  157.5144  131.1097  150.9246 H   0  0  0  0  0  0  0  0  0  0  0  0  # atno 10718 bound_to 10713
  154.4911  135.5819  153.6460 H   0  0  0  0  0  0  0  0  0  0  0  0  # atno 10763 bound_to 10752
  152.9862  135.6113  154.3123 H   0  0  0  0  0  0  0  0  0  0  0  0  # atno 10764 bound_to 10752
  154.3023  135.2846  155.2584 H   0  0  0  0  0  0  0  0  0  0  0  0  # atno 10765 bound_to 10752
  141.1465  133.7968  157.0322 H   0  0  0  0  0  0  0  0  0  0  0  0  # atno 11005 bound_to 11000
  145.8128  139.2010  143.1983 LP  0  0  0  0  0  0  0  0  0  0  0  0  # atno 17320 bound_to 7965
  146.0581  140.7999  142.9748 LP  0  0  0  0  0  0  0  0  0  0  0  0  # atno 17321 bound_to 7965
  140.3835  144.2705  150.5906 LP  0  0  0  0  0  0  0  0  0  0  0  0  # atno 17342 bound_to 10162
  140.5211  143.2265  151.8387 LP  0  0  0  0  0  0  0  0  0  0  0  0  # atno 17343 bound_to 10162
  156.9876  130.5551  149.5301 LP  0  0  0  0  0  0  0  0  0  0  0  0  # atno 17370 bound_to 10713
  156.0310  130.5402  150.8535 LP  0  0  0  0  0  0  0  0  0  0  0  0  # atno 17371 bound_to 10713
  140.0746  134.9683  157.1525 LP  0  0  0  0  0  0  0  0  0  0  0  0  # atno 17394 bound_to 11000
  140.3661  134.2441  155.7182 LP  0  0  0  0  0  0  0  0  0  0  0  0  # atno 17395 bound_to 11000

$$$$
