AV-unprocessed.smi:1947|AV-procd|sdf|7865|dock5
  -GOLD-   2272010 13D 1   1.00000     0.00000
 Structure written by MMmdl.
 39 40  0  0  0  0  0  0  0  0  1 V2000
  153.1750  143.2580  161.7088 C   0  0  0  0  0  0  0  0  0  0  0  0
  152.8313  143.7486  160.2918 C   0  0  2  0  0  0  0  0  0  0  0  0
  152.1150  145.1130  160.3454 C   0  0  0  0  0  0  0  0  0  0  0  0
  151.7502  145.6210  158.9420 C   0  0  0  0  0  0  0  0  0  0  0  0
  150.8961  144.5925  158.1871 C   0  0  0  0  0  0  0  0  0  0  0  0
  151.6056  143.2320  158.1174 C   0  0  0  0  0  0  0  0  0  0  0  0
  151.9780  142.7156  159.5224 C   0  0  1  0  0  0  0  0  0  0  0  0
  152.7459  141.5254  159.4030 O   0  0  0  0  0  0  0  0  0  0  0  0
  151.9788  140.3356  159.2909 C   0  0  0  0  0  0  0  0  0  0  0  0
  152.9234  139.1738  158.9481 C   0  0  0  0  0  0  0  0  0  0  0  0
  153.7048  138.7562  160.1077 N   0  0  0  0  0  0  0  0  0  0  0  0
  153.5816  137.5815  160.7409 C   0  0  0  0  0  0  0  0  0  0  0  0
  152.8165  136.6899  160.3738 O   0  0  0  0  0  0  0  0  0  0  0  0
  154.3882  137.5221  161.8125 N   0  0  0  0  0  0  0  0  0  0  0  0
  154.5105  136.4699  162.7540 C   0  0  0  0  0  0  0  0  0  0  0  0
  154.5879  135.2171  162.2899 N   0  0  0  0  0  0  0  0  0  0  0  0
  154.7086  134.2882  163.3166 N   0  0  0  0  0  0  0  0  0  0  0  0
  154.7172  134.8777  164.5160 C   0  0  0  0  0  0  0  0  0  0  0  0
  154.5784  136.6267  164.5118 S   0  0  0  0  0  0  0  0  0  0  0  0
  152.2741  143.0885  162.2993 H   0  0  0  0  0  0  0  0  0  0  0  0
  153.7877  143.9879  162.2387 H   0  0  0  0  0  0  0  0  0  0  0  0
  153.7341  142.3222  161.6818 H   0  0  0  0  0  0  0  0  0  0  0  0
  153.7693  143.8844  159.7510 H   0  0  0  0  0  0  0  0  0  0  0  0
  151.2085  145.0295  160.9470 H   0  0  0  0  0  0  0  0  0  0  0  0
  152.7485  145.8471  160.8448 H   0  0  0  0  0  0  0  0  0  0  0  0
  151.2134  146.5669  159.0164 H   0  0  0  0  0  0  0  0  0  0  0  0
  152.6612  145.8254  158.3779 H   0  0  0  0  0  0  0  0  0  0  0  0
  149.9329  144.4782  158.6863 H   0  0  0  0  0  0  0  0  0  0  0  0
  150.6829  144.9531  157.1804 H   0  0  0  0  0  0  0  0  0  0  0  0
  150.9629  142.5159  157.6057 H   0  0  0  0  0  0  0  0  0  0  0  0
  152.5080  143.3248  157.5115 H   0  0  0  0  0  0  0  0  0  0  0  0
  151.0687  142.5281  160.0970 H   0  0  0  0  0  0  0  0  0  0  0  0
  151.4544  140.1281  160.2248 H   0  0  0  0  0  0  0  0  0  0  0  0
  151.2239  140.4429  158.5119 H   0  0  0  0  0  0  0  0  0  0  0  0
  152.3573  138.3274  158.5561 H   0  0  0  0  0  0  0  0  0  0  0  0
  153.6140  139.4785  158.1616 H   0  0  0  0  0  0  0  0  0  0  0  0
  154.3586  139.4304  160.4779 H   0  0  0  0  0  0  0  0  0  0  0  0
  154.9678  138.3299  161.9866 H   0  0  0  0  0  0  0  0  0  0  0  0
  154.8062  134.2777  165.4096 H   0  0  0  0  0  0  0  0  0  0  0  0
  1  2  1  0  0  0  0
  1 20  1  0  0  0  0
  1 21  1  0  0  0  0
  1 22  1  0  0  0  0
  2  7  1  0  0  0  0
  2  3  1  0  0  0  0
  2 23  1  0  0  0  0
  3  4  1  0  0  0  0
  3 24  1  0  0  0  0
  3 25  1  0  0  0  0
  4  5  1  0  0  0  0
  4 26  1  0  0  0  0
  4 27  1  0  0  0  0
  5  6  1  0  0  0  0
  5 28  1  0  0  0  0
  5 29  1  0  0  0  0
  6  7  1  0  0  0  0
  6 30  1  0  0  0  0
  6 31  1  0  0  0  0
  7  8  1  0  0  0  0
  7 32  1  0  0  0  0
  8  9  1  0  0  0  0
  9 10  1  0  0  0  0
  9 33  1  0  0  0  0
  9 34  1  0  0  0  0
 10 11  1  0  0  0  0
 10 35  1  0  0  0  0
 10 36  1  0  0  0  0
 11 12  1  0  0  0  0
 11 37  1  0  0  0  0
 12 13  2  0  0  0  0
 12 14  1  0  0  0  0
 14 15  1  0  0  0  0
 14 38  1  0  0  0  0
 15 19  1  0  0  0  0
 15 16  2  0  0  0  0
 16 17  1  0  0  0  0
 17 18  2  0  0  0  0
 18 19  1  0  0  0  0
 18 39  1  0  0  0  0
M  END
> <s_m_source_file>
AV-unprocessed.smi

> <i_m_source_file_index>
1947

> <i_lp_mmshare_version>
43012

> <i_f3d_flags>
0

> <s_epik_input>
W0NIM11bQ0BASF0xW0NIMl1bQ0gyXVtDSDJdW0NIMl1bQ0BIXTFPW0NIMl1bQ0gyXVtOSF1DKD1PKVtOSF1jMm5uW2NIXXMy

> <s_epik_cmdline>
J2VwaWtfcHl0aG9uJywgJy1waCcsICc3LjAnLCAnLXRuJywgJzgnLCAnLW1hJywgJzIwMCcsICctbWV0YWxfYmluZGluZycsICctaW1hZScsICc8aW5maWxlLm1hZT4nLCAnLW9tYWUnLCAnPG91dGZpbGUubWFlPic=

> <r_lp_tautomer_probability>
1

> <r_epik_Ionization_Penalty>
0.00220897

> <r_epik_Ionization_Penalty_Charging>
0

> <r_epik_Ionization_Penalty_Neutral>
0.00220897

> <r_epik_State_Penalty>
-0

> <r_epik_Charging_Adjusted_Penalty>
0

> <i_epik_Tot_Q>
0

> <i_epik_Tot_abs_Q>
0

> <r_epik_Metal_State_Penalty>
0.345002

> <b_epik_Metal_Only>
0

> <s_lp_Force_Field>
OPLS_2005

> <r_lp_Energy>
7.38762

> <b_lp_Chiralities_Consistent>
1

> <s_lp_Variant>
AV-unprocessed.smi:1947-1

> <Gold.Version>
5.8.1

> <Gold.Id.Protein>
6NUR|6NUR_protein|mol2

> <Gold.PLP.Fitness>
45.1489

> <Gold.PLP.PLP>
-43.7117

> <Gold.PLP.part.hbond>
-1.0000

> <Gold.PLP.part.metal>
0.0000

> <Gold.PLP.part.buried>
-5.5722

> <Gold.PLP.part.nonpolar>
-36.9816

> <Gold.PLP.part.repulsive>
0.0497

> <Gold.PLP.ligand.clash>
0.0000

> <Gold.PLP.ligand.torsion>
0.7871

> <Gold.PLP.Chemscore.Hbond>
1.0000

> <Gold.PLP.Chemscore.CHOScore>
0.0000

> <Gold.PLP.Chemscore.Metal>
0.0000

> <Gold.Chemscore.Hbonds>
donor molecule, donor type, donor heavy atom, donor atom, acceptor molecule, acceptor atom, score
      P1  H  6896  6909       L1    13  1.00

> <Gold.PLP.Chemscore.Internal.Correction>
0.0114

> <Gold.Rescore>
     Score         DG    S(hbond)    S(metal)    S(lipo)     H(rot)  DE(clash)    DE(int)     intcor
     15.18     -16.89       1.00        0.00     111.44       1.94       0.09       1.62       ----

> <Gold.Chemscore.Fitness>
15.1790

> <Gold.Chemscore.DG>
-16.8905

> <Gold.Chemscore.ZeroCoef>
-5.4800

> <Gold.Chemscore.Hbond>
0.9982

> <Gold.Chemscore.Metal>
0.0000

> <Gold.Chemscore.Lipo>
111.4441

> <Gold.Chemscore.Internal_Hbond>
0.0000

> <Gold.Chemscore.DEClash>
0.0909

> <Gold.Chemscore.DEInternal>
1.6206

> <Gold.Chemscore.Rot>
1.9385

> <Gold.Chemscore.Internal.Correction>
   9.000000E+99

> <Gold.Chemscore.Hbonds>
donor molecule, donor type, donor heavy atom, donor atom, acceptor molecule, acceptor atom, score
      P1  H  6896  6909       L1    13  0.97

> <Gold.Chemscore.Hbond.Weighted>
-3.3340

> <Gold.Chemscore.Metal.Weighted>
-0.0000

> <Gold.Chemscore.Lipo.Weighted>
-13.0390

> <Gold.Chemscore.Internal_Hbond.Weighted>
0.0000

> <Gold.Chemscore.DEClash.Weighted>
0.0909

> <Gold.Chemscore.DEInternal.Weighted>
1.6206

> <Gold.Chemscore.Rot.Weighted>
4.9625

> <Gold.Chemscore.Internal.Correction.Weighted>
   9.000000E+99

> <Gold.Protein.RotatedTorsions>
[ 6907 6896 6895 6894 ] final  164.49 input  -60.11 | X-H torsion
[ 7974 7965 7964 7962 ] final  -98.46 input  175.53 | X-H torsion
[ 8008 7997 7996 7995 ] final  105.02 input   59.86 | X-H torsion
[ 10167 10162 10161 10158 ] final  105.19 input  -65.29 | X-H torsion
[ 10718 10713 10712 10709 ] final  178.33 input   66.30 | X-H torsion
[ 10763 10752 10751 10750 ] final -157.07 input  -60.55 | X-H torsion
[ 11005 11000 10999 10996 ] final   67.15 input  -57.11 | X-H torsion

> <Gold.Protein.ActiveResidues>
 VAL166  LYS551  ARG553  GLY616  TRP617  ASP618  TYR619  PRO620  LYS621  CYS622 
 ASP623  PHE694  ASN695  SER759  ASP760  ASP761  ALA762  ILE779  LEU786  VAL792 
 PHE793  MET794  SER795  GLU796  ALA797  LYS798  CYS799  TRP800  GLU811  SER814 

> <Gold.Protein.RotatedAtoms>
  151.9090  133.3556  159.3856 H   0  0  0  0  0  0  0  0  0  0  0  0  # atno 6907 bound_to 6896
  150.7062  134.4751  159.5453 H   0  0  0  0  0  0  0  0  0  0  0  0  # atno 6908 bound_to 6896
  152.2354  134.8281  160.0519 H   0  0  0  0  0  0  0  0  0  0  0  0  # atno 6909 bound_to 6896
  145.3204  140.9420  143.2719 H   0  0  0  0  0  0  0  0  0  0  0  0  # atno 7974 bound_to 7965
  156.1623  140.3138  155.8828 H   0  0  0  0  0  0  0  0  0  0  0  0  # atno 8008 bound_to 7997
  155.3757  140.0484  157.3062 H   0  0  0  0  0  0  0  0  0  0  0  0  # atno 8009 bound_to 7997
  154.5158  140.2181  155.9079 H   0  0  0  0  0  0  0  0  0  0  0  0  # atno 8010 bound_to 7997
  139.7113  144.7077  151.1022 H   0  0  0  0  0  0  0  0  0  0  0  0  # atno 10167 bound_to 10162
  156.8922  130.9851  151.3048 H   0  0  0  0  0  0  0  0  0  0  0  0  # atno 10718 bound_to 10713
  154.7664  135.3132  154.8277 H   0  0  0  0  0  0  0  0  0  0  0  0  # atno 10763 bound_to 10752
  153.9024  135.6814  153.4759 H   0  0  0  0  0  0  0  0  0  0  0  0  # atno 10764 bound_to 10752
  153.1271  135.4796  154.9222 H   0  0  0  0  0  0  0  0  0  0  0  0  # atno 10765 bound_to 10752
  139.9788  134.6777  156.0301 H   0  0  0  0  0  0  0  0  0  0  0  0  # atno 11005 bound_to 11000
  144.8944  139.4732  143.6662 LP  0  0  0  0  0  0  0  0  0  0  0  0  # atno 17320 bound_to 7965
  146.3084  139.7661  142.9038 LP  0  0  0  0  0  0  0  0  0  0  0  0  # atno 17321 bound_to 7965
  140.7734  143.5289  150.9447 LP  0  0  0  0  0  0  0  0  0  0  0  0  # atno 17342 bound_to 10162
  139.8973  143.6879  152.3136 LP  0  0  0  0  0  0  0  0  0  0  0  0  # atno 17343 bound_to 10162
  157.6077  130.8559  149.8901 LP  0  0  0  0  0  0  0  0  0  0  0  0  # atno 17370 bound_to 10713
  156.0623  130.3698  150.0954 LP  0  0  0  0  0  0  0  0  0  0  0  0  # atno 17371 bound_to 10713
  141.1463  133.6555  156.3877 LP  0  0  0  0  0  0  0  0  0  0  0  0  # atno 17394 bound_to 11000
  140.5138  134.6369  157.5294 LP  0  0  0  0  0  0  0  0  0  0  0  0  # atno 17395 bound_to 11000

$$$$
