AV-unprocessed.smi:224|AV-procd|sdf|1721|dock10
  -GOLD-   2262020203D 1   1.00000     0.00000
 Structure written by MMmdl.
 56 59  0  0  0  0  0  0  0  0  2 V2000
  145.1470  132.0315  149.4466 C   0  0  0  0  0  0  0  0  0  0  0  0
  144.3062  133.2082  149.9591 C   0  0  2  0  0  0  0  0  0  0  0  0
  144.0060  134.0377  148.8543 O   0  0  0  0  0  0  0  0  0  0  0  0
  145.0601  134.0287  151.0259 C   0  0  0  0  0  0  0  0  0  0  0  0
  145.2340  133.2823  152.3053 N   0  3  1  0  0  0  0  0  0  0  0  0
  146.3479  132.2966  152.2028 C   0  0  0  0  0  0  0  0  0  0  0  0
  146.5209  131.4764  153.4914 C   0  0  0  0  0  0  0  0  0  0  0  0
  146.6490  132.3482  154.6533 N   0  0  0  0  0  0  0  0  0  0  0  0
  147.8794  132.7828  155.0372 C   0  0  0  0  0  0  0  0  0  0  0  0
  148.8764  131.8835  155.2531 N   0  0  0  0  0  0  0  0  0  0  0  0
  150.0931  132.2944  155.6216 C   0  0  0  0  0  0  0  0  0  0  0  0
  150.5231  133.5388  155.8344 N   0  0  0  0  0  0  0  0  0  0  0  0
  149.5263  134.4478  155.6364 C   0  0  0  0  0  0  0  0  0  0  0  0
  148.1897  134.1591  155.2380 C   0  0  0  0  0  0  0  0  0  0  0  0
  147.4621  135.3398  155.1459 N   0  0  0  0  0  0  0  0  0  0  0  0
  148.3203  136.2714  155.4597 C   0  0  0  0  0  0  0  0  0  0  0  0
  149.5823  135.8235  155.7791 N   0  0  0  0  0  0  0  0  0  0  0  0
  150.7236  136.6397  156.1669 C   0  0  0  0  0  0  0  0  0  0  0  0
  151.2159  137.5924  155.0504 C   0  0  2  0  0  0  0  0  0  0  0  0
  151.6859  136.8173  153.9622 O   0  0  0  0  0  0  0  0  0  0  0  0
  152.3406  138.5162  155.5242 C   0  0  0  0  0  0  0  0  0  0  0  0
  151.6760  139.8860  155.5921 C   0  0  0  0  0  0  0  0  0  0  0  0
  150.7650  139.8420  154.5090 O   0  0  0  0  0  0  0  0  0  0  0  0
  150.1344  138.5701  154.5475 C   0  0  0  0  0  0  0  0  0  0  0  0
  145.5464  133.2907  154.7951 C   0  0  0  0  0  0  0  0  0  0  0  0
  145.3509  134.1484  153.5232 C   0  0  2  0  0  0  0  0  0  0  0  0
  144.1179  135.0499  153.7437 C   0  0  0  0  0  0  0  0  0  0  0  0
  145.4005  131.3489  150.2580 H   0  0  0  0  0  0  0  0  0  0  0  0
  146.0798  132.3731  148.9959 H   0  0  0  0  0  0  0  0  0  0  0  0
  144.6041  131.4583  148.6942 H   0  0  0  0  0  0  0  0  0  0  0  0
  143.3718  132.8116  150.3545 H   0  0  0  0  0  0  0  0  0  0  0  0
  144.8112  134.2891  148.4291 H   0  0  0  0  0  0  0  0  0  0  0  0
  146.0412  134.3248  150.6513 H   0  0  0  0  0  0  0  0  0  0  0  0
  144.5166  134.9599  151.1626 H   0  0  0  0  0  0  0  0  0  0  0  0
  146.1773  131.6104  151.3746 H   0  0  0  0  0  0  0  0  0  0  0  0
  147.2732  132.8280  151.9765 H   0  0  0  0  0  0  0  0  0  0  0  0
  145.6485  130.8391  153.6402 H   0  0  0  0  0  0  0  0  0  0  0  0
  147.3753  130.8032  153.4099 H   0  0  0  0  0  0  0  0  0  0  0  0
  150.8271  131.5155  155.7672 H   0  0  0  0  0  0  0  0  0  0  0  0
  148.0528  137.3183  155.4744 H   0  0  0  0  0  0  0  0  0  0  0  0
  150.4495  137.2144  157.0526 H   0  0  0  0  0  0  0  0  0  0  0  0
  151.5286  135.9720  156.4758 H   0  0  0  0  0  0  0  0  0  0  0  0
  150.9686  136.6798  153.3622 H   0  0  0  0  0  0  0  0  0  0  0  0
  152.7745  138.2193  156.4795 H   0  0  0  0  0  0  0  0  0  0  0  0
  153.1519  138.5527  154.7954 H   0  0  0  0  0  0  0  0  0  0  0  0
  151.1311  140.0125  156.5291 H   0  0  0  0  0  0  0  0  0  0  0  0
  152.3871  140.7061  155.4899 H   0  0  0  0  0  0  0  0  0  0  0  0
  149.7172  138.3010  153.5762 H   0  0  0  0  0  0  0  0  0  0  0  0
  149.3063  138.6383  155.2530 H   0  0  0  0  0  0  0  0  0  0  0  0
  144.6408  132.7169  154.9967 H   0  0  0  0  0  0  0  0  0  0  0  0
  145.6848  133.9421  155.6566 H   0  0  0  0  0  0  0  0  0  0  0  0
  146.2293  134.7846  153.4012 H   0  0  0  0  0  0  0  0  0  0  0  0
  144.1615  135.5301  154.7218 H   0  0  0  0  0  0  0  0  0  0  0  0
  143.1924  134.4745  153.7046 H   0  0  0  0  0  0  0  0  0  0  0  0
  144.0465  135.8593  153.0191 H   0  0  0  0  0  0  0  0  0  0  0  0
  144.3871  132.7491  152.4387 H   0  0  0  0  0  0  0  0  0  0  0  0
  1  2  1  0  0  0  0
  1 28  1  0  0  0  0
  1 29  1  0  0  0  0
  1 30  1  0  0  0  0
  2  3  1  0  0  0  0
  2  4  1  0  0  0  0
  2 31  1  0  0  0  0
  3 32  1  0  0  0  0
  4  5  1  0  0  0  0
  4 33  1  0  0  0  0
  4 34  1  0  0  0  0
  5 26  1  0  0  0  0
  5  6  1  0  0  0  0
  5 56  1  0  0  0  0
  6  7  1  0  0  0  0
  6 35  1  0  0  0  0
  6 36  1  0  0  0  0
  7  8  1  0  0  0  0
  7 37  1  0  0  0  0
  7 38  1  0  0  0  0
  8  9  1  0  0  0  0
  8 25  1  0  0  0  0
  9 14  1  0  0  0  0
  9 10  2  0  0  0  0
 10 11  1  0  0  0  0
 11 12  2  0  0  0  0
 11 39  1  0  0  0  0
 12 13  1  0  0  0  0
 13 17  1  0  0  0  0
 13 14  2  0  0  0  0
 14 15  1  0  0  0  0
 15 16  2  0  0  0  0
 16 17  1  0  0  0  0
 16 40  1  0  0  0  0
 17 18  1  0  0  0  0
 18 19  1  0  0  0  0
 18 41  1  0  0  0  0
 18 42  1  0  0  0  0
 19 24  1  0  0  0  0
 19 20  1  0  0  0  0
 19 21  1  0  0  0  0
 20 43  1  0  0  0  0
 21 22  1  0  0  0  0
 21 44  1  0  0  0  0
 21 45  1  0  0  0  0
 22 23  1  0  0  0  0
 22 46  1  0  0  0  0
 22 47  1  0  0  0  0
 23 24  1  0  0  0  0
 24 48  1  0  0  0  0
 24 49  1  0  0  0  0
 25 26  1  0  0  0  0
 25 50  1  0  0  0  0
 25 51  1  0  0  0  0
 26 27  1  0  0  0  0
 26 52  1  0  0  0  0
 27 53  1  0  0  0  0
 27 54  1  0  0  0  0
 27 55  1  0  0  0  0
M  CHG  1   5   1
M  END
> <s_m_source_file>
AV-unprocessed.smi

> <i_m_source_file_index>
224

> <i_lp_mmshare_version>
43012

> <i_f3d_flags>
0

> <s_epik_input>
W0NIM11bQ0BIXShbT0hdKVtDSDJdTjFbQ0gyXVtDSDJdTihbQ0gyXVtDQEhdMVtDSDNdKWMobltjSF1uMiljKGMyMyluW2NIXW4zW0NIMl1bQ0BAXTQoW09IXSlbQ0gyXVtDSDJdT1tDSDJdNA==

> <s_epik_cmdline>
J2VwaWtfcHl0aG9uJywgJy1waCcsICc3LjAnLCAnLXRuJywgJzgnLCAnLW1hJywgJzIwMCcsICctbWV0YWxfYmluZGluZycsICctaW1hZScsICc8aW5maWxlLm1hZT4nLCAnLW9tYWUnLCAnPG91dGZpbGUubWFlPic=

> <r_lp_tautomer_probability>
1

> <r_epik_Ionization_Penalty>
0.00516958

> <r_epik_Ionization_Penalty_Charging>
0.00509693

> <r_epik_Ionization_Penalty_Neutral>
7.26542e-05

> <r_epik_State_Penalty>
-0

> <r_epik_Charging_Adjusted_Penalty>
0.00509693

> <i_epik_Tot_Q>
1

> <i_epik_Tot_abs_Q>
1

> <r_epik_Metal_State_Penalty>
-0

> <b_epik_Metal_Only>
0

> <s_lp_Force_Field>
OPLS_2005

> <r_lp_Energy>
50.3432

> <b_lp_Chiralities_Consistent>
1

> <s_lp_Variant>
AV-unprocessed.smi:224-15

> <Gold.Version>
5.8.1

> <Gold.Id.Protein>
6NUR|6NUR_protein|mol2

> <Gold.PLP.Fitness>
50.6096

> <Gold.PLP.PLP>
-40.5301

> <Gold.PLP.part.hbond>
-4.4760

> <Gold.PLP.part.metal>
0.0000

> <Gold.PLP.part.buried>
-6.2692

> <Gold.PLP.part.nonpolar>
-29.6086

> <Gold.PLP.part.repulsive>
0.2354

> <Gold.PLP.ligand.clash>
0.0000

> <Gold.PLP.ligand.torsion>
0.5737

> <Gold.PLP.Chemscore.Hbond>
3.5600

> <Gold.PLP.Chemscore.CHOScore>
0.0000

> <Gold.PLP.Chemscore.Metal>
0.0000

> <Gold.Chemscore.Hbonds>
donor molecule, donor type, donor heavy atom, donor atom, acceptor molecule, acceptor atom, score
      L1  H     3    32       P1  7921  1.00
      L1  H    20    43       P1  7949  0.47
      P1  H  7989  7998       L1    23  0.85
      P1  H 10752 10763       L1    20  1.00

> <Gold.PLP.Chemscore.Internal.Correction>
0.5470

> <Gold.Rescore>
     Score         DG    S(hbond)    S(metal)    S(lipo)     H(rot)  DE(clash)    DE(int)     intcor
     13.00     -17.06       3.20        0.00      81.18       3.36       0.09       3.97       ----

> <Gold.Chemscore.Fitness>
12.9985

> <Gold.Chemscore.DG>
-17.0579

> <Gold.Chemscore.ZeroCoef>
-5.4800

> <Gold.Chemscore.Hbond>
3.1991

> <Gold.Chemscore.Metal>
0.0000

> <Gold.Chemscore.Lipo>
81.1752

> <Gold.Chemscore.Internal_Hbond>
0.0000

> <Gold.Chemscore.DEClash>
0.0917

> <Gold.Chemscore.DEInternal>
3.9677

> <Gold.Chemscore.Rot>
3.3611

> <Gold.Chemscore.Internal.Correction>
   9.000000E+99

> <Gold.Chemscore.Hbonds>
donor molecule, donor type, donor heavy atom, donor atom, acceptor molecule, acceptor atom, score
      L1  H     3    32       P1  7921  0.99
      L1  H    20    43       P1  7949  0.10
      P1  H  7989  7998       L1    23  0.15
      P1  H 10752 10763       L1    20  0.98

> <Gold.Chemscore.Hbond.Weighted>
-10.6849

> <Gold.Chemscore.Metal.Weighted>
-0.0000

> <Gold.Chemscore.Lipo.Weighted>
-9.4975

> <Gold.Chemscore.Internal_Hbond.Weighted>
0.0000

> <Gold.Chemscore.DEClash.Weighted>
0.0917

> <Gold.Chemscore.DEInternal.Weighted>
3.9677

> <Gold.Chemscore.Rot.Weighted>
8.6045

> <Gold.Chemscore.Internal.Correction.Weighted>
   9.000000E+99

> <Gold.Protein.RotatedTorsions>
[ 6907 6896 6895 6894 ] final  116.99 input  -60.11 | X-H torsion
[ 7974 7965 7964 7962 ] final  -75.68 input  175.53 | X-H torsion
[ 8008 7997 7996 7995 ] final  -36.33 input   59.86 | X-H torsion
[ 10167 10162 10161 10158 ] final   39.35 input  -65.29 | X-H torsion
[ 10718 10713 10712 10709 ] final   22.07 input   66.30 | X-H torsion
[ 10763 10752 10751 10750 ] final   26.49 input  -60.55 | X-H torsion
[ 11005 11000 10999 10996 ] final  167.91 input  -57.11 | X-H torsion

> <Gold.Protein.ActiveResidues>
 VAL166  LYS551  ARG553  GLY616  TRP617  ASP618  TYR619  PRO620  LYS621  CYS622 
 ASP623  PHE694  ASN695  SER759  ASP760  ASP761  ALA762  ILE779  LEU786  VAL792 
 PHE793  MET794  SER795  GLU796  ALA797  LYS798  CYS799  TRP800  GLU811  SER814 

> <Gold.Protein.RotatedAtoms>
  152.4642  133.7886  159.6889 H   0  0  0  0  0  0  0  0  0  0  0  0  # atno 6907 bound_to 6896
  150.8598  133.7650  159.3002 H   0  0  0  0  0  0  0  0  0  0  0  0  # atno 6908 bound_to 6896
  151.5219  135.1070  159.9932 H   0  0  0  0  0  0  0  0  0  0  0  0  # atno 6909 bound_to 6896
  145.6228  140.9358  143.1129 H   0  0  0  0  0  0  0  0  0  0  0  0  # atno 7974 bound_to 7965
  154.4075  140.1633  156.2356 H   0  0  0  0  0  0  0  0  0  0  0  0  # atno 8008 bound_to 7997
  155.9245  140.3419  155.6176 H   0  0  0  0  0  0  0  0  0  0  0  0  # atno 8009 bound_to 7997
  155.7182  140.0765  157.2333 H   0  0  0  0  0  0  0  0  0  0  0  0  # atno 8010 bound_to 7997
  140.3848  144.1931  150.6130 H   0  0  0  0  0  0  0  0  0  0  0  0  # atno 10167 bound_to 10162
  157.1472  130.6659  149.6000 H   0  0  0  0  0  0  0  0  0  0  0  0  # atno 10718 bound_to 10713
  153.0619  135.6559  154.0443 H   0  0  0  0  0  0  0  0  0  0  0  0  # atno 10763 bound_to 10752
  154.0109  135.2928  155.3394 H   0  0  0  0  0  0  0  0  0  0  0  0  # atno 10764 bound_to 10752
  154.6961  135.5263  153.8528 H   0  0  0  0  0  0  0  0  0  0  0  0  # atno 10765 bound_to 10752
  140.2818  134.7744  157.3764 H   0  0  0  0  0  0  0  0  0  0  0  0  # atno 11005 bound_to 11000
  144.7224  139.7986  143.7377 LP  0  0  0  0  0  0  0  0  0  0  0  0  # atno 17320 bound_to 7965
  146.1418  139.4476  143.0104 LP  0  0  0  0  0  0  0  0  0  0  0  0  # atno 17321 bound_to 7965
  140.4900  143.2350  151.8832 LP  0  0  0  0  0  0  0  0  0  0  0  0  # atno 17342 bound_to 10162
  139.4793  144.5176  151.8846 LP  0  0  0  0  0  0  0  0  0  0  0  0  # atno 17343 bound_to 10162
  155.9777  130.4757  150.6611 LP  0  0  0  0  0  0  0  0  0  0  0  0  # atno 17370 bound_to 10713
  157.4253  131.0842  151.1091 LP  0  0  0  0  0  0  0  0  0  0  0  0  # atno 17371 bound_to 10713
  140.1277  134.5137  155.8131 LP  0  0  0  0  0  0  0  0  0  0  0  0  # atno 17394 bound_to 11000
  141.2161  133.6778  156.6981 LP  0  0  0  0  0  0  0  0  0  0  0  0  # atno 17395 bound_to 11000

$$$$
