AV-unprocessed.smi:3085|AV-procd|sdf|11762|dock10
  -GOLD-   2272017143D 1   1.00000     0.00000
 Structure written by MMmdl.
 26 27  0  0  0  0  0  0  0  0  2 V2000
  154.2325  140.9484  161.3434 C   0  0  0  0  0  0  0  0  0  0  0  0
  153.1720  141.7081  160.5398 C   0  0  0  0  0  0  0  0  0  0  0  0
  152.8675  141.0352  159.2195 C   0  0  0  0  0  0  0  0  0  0  0  0
  152.0213  141.4813  158.2968 N   0  0  0  0  0  0  0  0  0  0  0  0
  152.0809  140.5989  157.2883 C   0  0  0  0  0  0  0  0  0  0  0  0
  151.3006  140.7079  155.9932 C   0  0  2  0  0  0  0  0  0  0  0  0
  150.4314  141.9819  155.9747 C   0  0  0  0  0  0  0  0  0  0  0  0
  149.6760  142.0741  154.7252 N   0  0  0  0  0  0  0  0  0  0  0  0
  148.8859  140.8671  154.4935 C   0  0  0  0  0  0  0  0  0  0  0  0
  149.7874  139.6218  154.5440 C   0  0  0  0  0  0  0  0  0  0  0  0
  150.4587  139.5732  155.7975 O   0  0  0  0  0  0  0  0  0  0  0  0
  152.9704  139.6308  157.5586 N   0  0  0  0  0  0  0  0  0  0  0  0
  153.4466  139.9144  158.7540 N   0  5  0  0  0  0  0  0  0  0  0  0
  154.4415  141.4527  162.2868 H   0  0  0  0  0  0  0  0  0  0  0  0
  155.1676  140.8778  160.7874 H   0  0  0  0  0  0  0  0  0  0  0  0
  153.9004  139.9353  161.5715 H   0  0  0  0  0  0  0  0  0  0  0  0
  152.2499  141.7857  161.1168 H   0  0  0  0  0  0  0  0  0  0  0  0
  153.5092  142.7270  160.3463 H   0  0  0  0  0  0  0  0  0  0  0  0
  152.0293  140.7486  155.1809 H   0  0  0  0  0  0  0  0  0  0  0  0
  149.7450  141.9697  156.8226 H   0  0  0  0  0  0  0  0  0  0  0  0
  151.0592  142.8652  156.0937 H   0  0  0  0  0  0  0  0  0  0  0  0
  149.0617  142.8812  154.7607 H   0  0  0  0  0  0  0  0  0  0  0  0
  148.1045  140.7843  155.2495 H   0  0  0  0  0  0  0  0  0  0  0  0
  148.3838  140.9280  153.5278 H   0  0  0  0  0  0  0  0  0  0  0  0
  149.1862  138.7196  154.4314 H   0  0  0  0  0  0  0  0  0  0  0  0
  150.5107  139.6265  153.7269 H   0  0  0  0  0  0  0  0  0  0  0  0
  1  2  1  0  0  0  0
  1 14  1  0  0  0  0
  1 15  1  0  0  0  0
  1 16  1  0  0  0  0
  2  3  1  0  0  0  0
  2 17  1  0  0  0  0
  2 18  1  0  0  0  0
  3 13  1  0  0  0  0
  3  4  2  0  0  0  0
  4  5  1  0  0  0  0
  5  6  1  0  0  0  0
  5 12  2  0  0  0  0
  6 11  1  0  0  0  0
  6  7  1  0  0  0  0
  6 19  1  0  0  0  0
  7  8  1  0  0  0  0
  7 20  1  0  0  0  0
  7 21  1  0  0  0  0
  8  9  1  0  0  0  0
  8 22  1  0  0  0  0
  9 10  1  0  0  0  0
  9 23  1  0  0  0  0
  9 24  1  0  0  0  0
 10 11  1  0  0  0  0
 10 25  1  0  0  0  0
 10 26  1  0  0  0  0
 12 13  1  0  0  0  0
M  CHG  1  13  -1
M  END
> <s_m_source_file>
AV-unprocessed.smi

> <i_m_source_file_index>
3085

> <i_lp_mmshare_version>
43012

> <i_f3d_flags>
0

> <s_epik_input>
W0NIM11bQ0gyXWMxbmMobltuSF0xKVtDQEBIXTJbQ0gyXVtOSF1bQ0gyXVtDSDJdTzI=

> <s_epik_cmdline>
J2VwaWtfcHl0aG9uJywgJy1waCcsICc3LjAnLCAnLXRuJywgJzgnLCAnLW1hJywgJzIwMCcsICctbWV0YWxfYmluZGluZycsICctaW1hZScsICc8aW5maWxlLm1hZT4nLCAnLW9tYWUnLCAnPG91dGZpbGUubWFlPic=

> <r_lp_tautomer_probability>
0.948284

> <r_epik_Ionization_Penalty>
17.858

> <r_epik_Ionization_Penalty_Charging>
16.2847

> <r_epik_Ionization_Penalty_Neutral>
1.5733

> <r_epik_State_Penalty>
7.01418

> <r_epik_Charging_Adjusted_Penalty>
23.2989

> <i_epik_Tot_Q>
-1

> <i_epik_Tot_abs_Q>
1

> <r_epik_Metal_State_Penalty>
3.17281

> <b_epik_Metal_Only>
1

> <s_lp_Force_Field>
OPLS_2005

> <r_lp_Energy>
10.8419

> <b_lp_Chiralities_Consistent>
1

> <s_lp_Variant>
AV-unprocessed.smi:3085-13

> <Gold.Version>
5.8.1

> <Gold.Id.Protein>
6NUR|6NUR_protein|mol2

> <Gold.PLP.Fitness>
30.6430

> <Gold.PLP.PLP>
-25.1204

> <Gold.PLP.part.hbond>
-4.9526

> <Gold.PLP.part.metal>
0.0000

> <Gold.PLP.part.buried>
0.0869

> <Gold.PLP.part.nonpolar>
-19.1096

> <Gold.PLP.part.repulsive>
0.0112

> <Gold.PLP.ligand.clash>
0.0000

> <Gold.PLP.ligand.torsion>
0.0117

> <Gold.PLP.Chemscore.Hbond>
1.8435

> <Gold.PLP.Chemscore.CHOScore>
0.0000

> <Gold.PLP.Chemscore.Metal>
0.0000

> <Gold.Chemscore.Hbonds>
donor molecule, donor type, donor heavy atom, donor atom, acceptor molecule, acceptor atom, score
      L1  H     8    22       P1  8028  0.83
      P1  H  7997  8010       L1    12  1.00

> <Gold.PLP.Chemscore.Internal.Correction>
0.0154

> <Gold.Rescore>
     Score         DG    S(hbond)    S(metal)    S(lipo)     H(rot)  DE(clash)    DE(int)     intcor
     11.64     -11.72       1.19        0.00      46.88       1.26       0.06       0.02       ----

> <Gold.Chemscore.Fitness>
11.6434

> <Gold.Chemscore.DG>
-11.7195

> <Gold.Chemscore.ZeroCoef>
-5.4800

> <Gold.Chemscore.Hbond>
1.1939

> <Gold.Chemscore.Metal>
0.0000

> <Gold.Chemscore.Lipo>
46.8823

> <Gold.Chemscore.Internal_Hbond>
0.0000

> <Gold.Chemscore.DEClash>
0.0604

> <Gold.Chemscore.DEInternal>
0.0157

> <Gold.Chemscore.Rot>
1.2630

> <Gold.Chemscore.Internal.Correction>
   9.000000E+99

> <Gold.Chemscore.Hbonds>
donor molecule, donor type, donor heavy atom, donor atom, acceptor molecule, acceptor atom, score
      L1  H     8    22       P1  8028  0.77
      P1  H  7997  8010       L1    12  0.08

> <Gold.Chemscore.Hbond.Weighted>
-3.9875

> <Gold.Chemscore.Metal.Weighted>
-0.0000

> <Gold.Chemscore.Lipo.Weighted>
-5.4852

> <Gold.Chemscore.Internal_Hbond.Weighted>
0.0000

> <Gold.Chemscore.DEClash.Weighted>
0.0604

> <Gold.Chemscore.DEInternal.Weighted>
0.0157

> <Gold.Chemscore.Rot.Weighted>
3.2333

> <Gold.Chemscore.Internal.Correction.Weighted>
   9.000000E+99

> <Gold.Protein.RotatedTorsions>
[ 6907 6896 6895 6894 ] final  -50.89 input  -60.11 | X-H torsion
[ 7974 7965 7964 7962 ] final   57.20 input  175.53 | X-H torsion
[ 8008 7997 7996 7995 ] final   66.30 input   59.86 | X-H torsion
[ 10167 10162 10161 10158 ] final   85.90 input  -65.29 | X-H torsion
[ 10718 10713 10712 10709 ] final  117.72 input   66.30 | X-H torsion
[ 10763 10752 10751 10750 ] final   -9.34 input  -60.55 | X-H torsion
[ 11005 11000 10999 10996 ] final   93.88 input  -57.11 | X-H torsion

> <Gold.Protein.ActiveResidues>
 VAL166  LYS551  ARG553  GLY616  TRP617  ASP618  TYR619  PRO620  LYS621  CYS622 
 ASP623  PHE694  ASN695  SER759  ASP760  ASP761  ALA762  ILE779  LEU786  VAL792 
 PHE793  MET794  SER795  GLU796  ALA797  LYS798  CYS799  TRP800  GLU811  SER814 

> <Gold.Protein.RotatedAtoms>
  150.8663  134.8027  159.7121 H   0  0  0  0  0  0  0  0  0  0  0  0  # atno 6907 bound_to 6896
  152.4683  134.5018  159.9737 H   0  0  0  0  0  0  0  0  0  0  0  0  # atno 6908 bound_to 6896
  151.5113  133.3446  159.2921 H   0  0  0  0  0  0  0  0  0  0  0  0  # atno 6909 bound_to 6896
  145.9316  139.3812  143.0418 H   0  0  0  0  0  0  0  0  0  0  0  0  # atno 7974 bound_to 7965
  155.6751  140.3497  155.4833 H   0  0  0  0  0  0  0  0  0  0  0  0  # atno 8008 bound_to 7997
  155.9654  140.1145  157.0881 H   0  0  0  0  0  0  0  0  0  0  0  0  # atno 8009 bound_to 7997
  154.4153  140.1167  156.5222 H   0  0  0  0  0  0  0  0  0  0  0  0  # atno 8010 bound_to 7997
  139.8930  144.6374  150.8718 H   0  0  0  0  0  0  0  0  0  0  0  0  # atno 10167 bound_to 10162
  157.6077  131.1040  150.7655 H   0  0  0  0  0  0  0  0  0  0  0  0  # atno 10718 bound_to 10713
  153.4534  135.7015  153.6094 H   0  0  0  0  0  0  0  0  0  0  0  0  # atno 10763 bound_to 10752
  153.4419  135.3778  155.2233 H   0  0  0  0  0  0  0  0  0  0  0  0  # atno 10764 bound_to 10752
  154.8728  135.3976  154.3950 H   0  0  0  0  0  0  0  0  0  0  0  0  # atno 10765 bound_to 10752
  139.8805  134.8815  156.3783 H   0  0  0  0  0  0  0  0  0  0  0  0  # atno 11005 bound_to 11000
  145.8418  140.9576  143.0795 LP  0  0  0  0  0  0  0  0  0  0  0  0  # atno 17320 bound_to 7965
  144.6765  140.0295  143.7483 LP  0  0  0  0  0  0  0  0  0  0  0  0  # atno 17321 bound_to 7965
  140.7723  143.3495  151.2042 LP  0  0  0  0  0  0  0  0  0  0  0  0  # atno 17342 bound_to 10162
  139.7093  143.9403  152.2940 LP  0  0  0  0  0  0  0  0  0  0  0  0  # atno 17343 bound_to 10162
  156.8040  130.4930  149.5365 LP  0  0  0  0  0  0  0  0  0  0  0  0  # atno 17370 bound_to 10713
  156.1169  130.6082  151.0135 LP  0  0  0  0  0  0  0  0  0  0  0  0  # atno 17371 bound_to 10713
  140.9416  133.7510  156.0154 LP  0  0  0  0  0  0  0  0  0  0  0  0  # atno 17394 bound_to 11000
  140.8212  134.3287  157.5381 LP  0  0  0  0  0  0  0  0  0  0  0  0  # atno 17395 bound_to 11000

$$$$
