AV-unprocessed.smi:1251|AV-procd|sdf|5257|dock1
  -GOLD-   22720 4363D 1   1.00000     0.00000
 Structure written by MMmdl.
 39 40  0  0  0  0  0  0  0  0  1 V2000
  151.4186  142.7999  158.0710 C   0  0  0  0  0  0  0  0  0  0  0  0
  150.4753  141.7717  157.4370 C   0  0  0  0  0  0  0  0  0  0  0  0
  150.7414  141.5731  155.9383 C   0  0  0  0  0  0  0  0  0  0  0  0
  149.6952  140.7400  155.2758 C   0  0  0  0  0  0  0  0  0  0  0  0
  148.3912  141.0383  155.3297 N   0  0  0  0  0  0  0  0  0  0  0  0
  147.6099  140.1049  154.6632 N   0  0  0  0  0  0  0  0  0  0  0  0
  148.3486  139.1177  154.1384 C   0  0  0  0  0  0  0  0  0  0  0  0
  147.8052  138.0288  153.4063 N   0  0  0  0  0  0  0  0  0  0  0  0
  146.5708  137.5022  153.4888 C   0  0  0  0  0  0  0  0  0  0  0  0
  145.6809  137.8912  154.2458 O   0  0  0  0  0  0  0  0  0  0  0  0
  146.4227  136.4806  152.6319 N   0  0  0  0  0  0  0  0  0  0  0  0
  145.2152  135.6728  152.4714 C   0  0  1  0  0  0  0  0  0  0  0  0
  144.0126  136.6166  152.3165 C   0  0  0  0  0  0  0  0  0  0  0  0
  145.3746  134.7224  151.2659 C   0  0  2  0  0  0  0  0  0  0  0  0
  144.1203  133.9127  150.9260 C   0  0  0  0  0  0  0  0  0  0  0  0
  144.7066  132.6910  150.2577 C   0  0  0  0  0  0  0  0  0  0  0  0
  145.9497  132.4526  151.1054 C   0  0  0  0  0  0  0  0  0  0  0  0
  146.3826  133.7437  151.5222 O   0  0  0  0  0  0  0  0  0  0  0  0
  150.0761  139.2500  154.4197 S   0  0  0  0  0  0  0  0  0  0  0  0
  151.2043  142.9203  159.1332 H   0  0  0  0  0  0  0  0  0  0  0  0
  151.3133  143.7762  157.5972 H   0  0  0  0  0  0  0  0  0  0  0  0
  152.4599  142.4907  157.9750 H   0  0  0  0  0  0  0  0  0  0  0  0
  150.5832  140.8187  157.9564 H   0  0  0  0  0  0  0  0  0  0  0  0
  149.4427  142.0895  157.5867 H   0  0  0  0  0  0  0  0  0  0  0  0
  150.7912  142.5399  155.4351 H   0  0  0  0  0  0  0  0  0  0  0  0
  151.7101  141.0950  155.7895 H   0  0  0  0  0  0  0  0  0  0  0  0
  148.4299  137.6018  152.7386 H   0  0  0  0  0  0  0  0  0  0  0  0
  147.2108  136.2313  152.0528 H   0  0  0  0  0  0  0  0  0  0  0  0
  145.0505  135.0745  153.3694 H   0  0  0  0  0  0  0  0  0  0  0  0
  143.0764  136.0615  152.2561 H   0  0  0  0  0  0  0  0  0  0  0  0
  144.0977  137.2250  151.4155 H   0  0  0  0  0  0  0  0  0  0  0  0
  143.9332  137.2922  153.1688 H   0  0  0  0  0  0  0  0  0  0  0  0
  145.6839  135.2839  150.3826 H   0  0  0  0  0  0  0  0  0  0  0  0
  143.5920  133.6193  151.8342 H   0  0  0  0  0  0  0  0  0  0  0  0
  143.4242  134.4550  150.2856 H   0  0  0  0  0  0  0  0  0  0  0  0
  144.0273  131.8381  150.2457 H   0  0  0  0  0  0  0  0  0  0  0  0
  144.9883  132.9226  149.2296 H   0  0  0  0  0  0  0  0  0  0  0  0
  145.6990  131.8693  151.9923 H   0  0  0  0  0  0  0  0  0  0  0  0
  146.7324  131.9238  150.5610 H   0  0  0  0  0  0  0  0  0  0  0  0
  1  2  1  0  0  0  0
  1 20  1  0  0  0  0
  1 21  1  0  0  0  0
  1 22  1  0  0  0  0
  2  3  1  0  0  0  0
  2 23  1  0  0  0  0
  2 24  1  0  0  0  0
  3  4  1  0  0  0  0
  3 25  1  0  0  0  0
  3 26  1  0  0  0  0
  4 19  1  0  0  0  0
  4  5  2  0  0  0  0
  5  6  1  0  0  0  0
  6  7  2  0  0  0  0
  7  8  1  0  0  0  0
  7 19  1  0  0  0  0
  8  9  1  0  0  0  0
  8 27  1  0  0  0  0
  9 10  2  0  0  0  0
  9 11  1  0  0  0  0
 11 12  1  0  0  0  0
 11 28  1  0  0  0  0
 12 13  1  0  0  0  0
 12 14  1  0  0  0  0
 12 29  1  0  0  0  0
 13 30  1  0  0  0  0
 13 31  1  0  0  0  0
 13 32  1  0  0  0  0
 14 18  1  0  0  0  0
 14 15  1  0  0  0  0
 14 33  1  0  0  0  0
 15 16  1  0  0  0  0
 15 34  1  0  0  0  0
 15 35  1  0  0  0  0
 16 17  1  0  0  0  0
 16 36  1  0  0  0  0
 16 37  1  0  0  0  0
 17 18  1  0  0  0  0
 17 38  1  0  0  0  0
 17 39  1  0  0  0  0
M  END
> <s_m_source_file>
AV-unprocessed.smi

> <i_m_source_file_index>
1251

> <i_lp_mmshare_version>
43012

> <i_f3d_flags>
0

> <s_epik_input>
W0NIM11bQ0gyXVtDSDJdYzFubmMoczEpW05IXUMoPU8pW05IXVtDQEhdKFtDSDNdKVtDQEBIXTJbQ0gyXVtDSDJdW0NIMl1PMg==

> <s_epik_cmdline>
J2VwaWtfcHl0aG9uJywgJy1waCcsICc3LjAnLCAnLXRuJywgJzgnLCAnLW1hJywgJzIwMCcsICctbWV0YWxfYmluZGluZycsICctaW1hZScsICc8aW5maWxlLm1hZT4nLCAnLW9tYWUnLCAnPG91dGZpbGUubWFlPic=

> <r_lp_tautomer_probability>
1

> <r_epik_Ionization_Penalty>
0.000503621

> <r_epik_Ionization_Penalty_Charging>
0

> <r_epik_Ionization_Penalty_Neutral>
0.000503621

> <r_epik_State_Penalty>
-0

> <r_epik_Charging_Adjusted_Penalty>
0

> <i_epik_Tot_Q>
0

> <i_epik_Tot_abs_Q>
0

> <r_epik_Metal_State_Penalty>
0.219912

> <b_epik_Metal_Only>
0

> <s_lp_Force_Field>
OPLS_2005

> <r_lp_Energy>
12.879

> <b_lp_Chiralities_Consistent>
1

> <s_lp_Variant>
AV-unprocessed.smi:1251-2

> <Gold.Version>
5.8.1

> <Gold.Id.Protein>
6NUR|6NUR_protein|mol2

> <Gold.PLP.Fitness>
35.5185

> <Gold.PLP.PLP>
-30.1173

> <Gold.PLP.part.hbond>
-2.0000

> <Gold.PLP.part.metal>
0.0000

> <Gold.PLP.part.buried>
-5.1441

> <Gold.PLP.part.nonpolar>
-23.6982

> <Gold.PLP.part.repulsive>
0.5136

> <Gold.PLP.ligand.clash>
0.0000

> <Gold.PLP.ligand.torsion>
0.3024

> <Gold.PLP.Chemscore.Hbond>
1.9920

> <Gold.PLP.Chemscore.CHOScore>
0.0000

> <Gold.PLP.Chemscore.Metal>
0.0000

> <Gold.Chemscore.Hbonds>
donor molecule, donor type, donor heavy atom, donor atom, acceptor molecule, acceptor atom, score
      L1  H     8    27       P1  7948  1.00
      L1  H    11    28       P1  7948  0.98

> <Gold.PLP.Chemscore.Internal.Correction>
0.0300

> <Gold.Rescore>
     Score         DG    S(hbond)    S(metal)    S(lipo)     H(rot)  DE(clash)    DE(int)     intcor
     13.69     -16.43       1.95        0.00      72.61       1.58       0.13       2.61       ----

> <Gold.Chemscore.Fitness>
13.6887

> <Gold.Chemscore.DG>
-16.4320

> <Gold.Chemscore.ZeroCoef>
-5.4800

> <Gold.Chemscore.Hbond>
1.9499

> <Gold.Chemscore.Metal>
0.0000

> <Gold.Chemscore.Lipo>
72.6067

> <Gold.Chemscore.Internal_Hbond>
0.0000

> <Gold.Chemscore.DEClash>
0.1338

> <Gold.Chemscore.DEInternal>
2.6095

> <Gold.Chemscore.Rot>
1.5843

> <Gold.Chemscore.Internal.Correction>
   9.000000E+99

> <Gold.Chemscore.Hbonds>
donor molecule, donor type, donor heavy atom, donor atom, acceptor molecule, acceptor atom, score
      L1  H     8    27       P1  7948  0.96
      L1  H    11    28       P1  7948  0.93

> <Gold.Chemscore.Hbond.Weighted>
-6.5128

> <Gold.Chemscore.Metal.Weighted>
-0.0000

> <Gold.Chemscore.Lipo.Weighted>
-8.4950

> <Gold.Chemscore.Internal_Hbond.Weighted>
0.0000

> <Gold.Chemscore.DEClash.Weighted>
0.1338

> <Gold.Chemscore.DEInternal.Weighted>
2.6095

> <Gold.Chemscore.Rot.Weighted>
4.0558

> <Gold.Chemscore.Internal.Correction.Weighted>
   9.000000E+99

> <Gold.Protein.RotatedTorsions>
[ 6907 6896 6895 6894 ] final  150.98 input  -60.11 | X-H torsion
[ 7974 7965 7964 7962 ] final   22.92 input  175.53 | X-H torsion
[ 8008 7997 7996 7995 ] final   98.05 input   59.86 | X-H torsion
[ 10167 10162 10161 10158 ] final  107.19 input  -65.29 | X-H torsion
[ 10718 10713 10712 10709 ] final -152.24 input   66.30 | X-H torsion
[ 10763 10752 10751 10750 ] final  -57.22 input  -60.55 | X-H torsion
[ 11005 11000 10999 10996 ] final -120.18 input  -57.11 | X-H torsion

> <Gold.Protein.ActiveResidues>
 VAL166  LYS551  ARG553  GLY616  TRP617  ASP618  TYR619  PRO620  LYS621  CYS622 
 ASP623  PHE694  ASN695  SER759  ASP760  ASP761  ALA762  ILE779  LEU786  VAL792 
 PHE793  MET794  SER795  GLU796  ALA797  LYS798  CYS799  TRP800  GLU811  SER814 

> <Gold.Protein.RotatedAtoms>
  152.1070  133.4280  159.4613 H   0  0  0  0  0  0  0  0  0  0  0  0  # atno 6907 bound_to 6896
  150.6866  134.2693  159.4590 H   0  0  0  0  0  0  0  0  0  0  0  0  # atno 6908 bound_to 6896
  152.0558  134.9625  160.0625 H   0  0  0  0  0  0  0  0  0  0  0  0  # atno 6909 bound_to 6896
  146.2008  139.7818  142.8763 H   0  0  0  0  0  0  0  0  0  0  0  0  # atno 7974 bound_to 7965
  156.0964  140.3249  155.7883 H   0  0  0  0  0  0  0  0  0  0  0  0  # atno 8008 bound_to 7997
  155.4910  140.0561  157.2971 H   0  0  0  0  0  0  0  0  0  0  0  0  # atno 8009 bound_to 7997
  154.4669  140.1993  156.0110 H   0  0  0  0  0  0  0  0  0  0  0  0  # atno 8010 bound_to 7997
  139.6947  144.7103  151.1288 H   0  0  0  0  0  0  0  0  0  0  0  0  # atno 10167 bound_to 10162
  156.4699  130.8253  151.2483 H   0  0  0  0  0  0  0  0  0  0  0  0  # atno 10718 bound_to 10713
  154.2190  135.6381  153.5139 H   0  0  0  0  0  0  0  0  0  0  0  0  # atno 10763 bound_to 10752
  152.9973  135.5492  154.6134 H   0  0  0  0  0  0  0  0  0  0  0  0  # atno 10764 bound_to 10752
  154.5590  135.2907  155.0911 H   0  0  0  0  0  0  0  0  0  0  0  0  # atno 10765 bound_to 10752
  141.0162  134.0191  157.3346 H   0  0  0  0  0  0  0  0  0  0  0  0  # atno 11005 bound_to 11000
  145.3492  141.0304  143.3348 LP  0  0  0  0  0  0  0  0  0  0  0  0  # atno 17320 bound_to 7965
  144.8678  139.5082  143.6782 LP  0  0  0  0  0  0  0  0  0  0  0  0  # atno 17321 bound_to 7965
  140.7693  143.5509  150.9206 LP  0  0  0  0  0  0  0  0  0  0  0  0  # atno 17342 bound_to 10162
  139.9188  143.6631  152.3101 LP  0  0  0  0  0  0  0  0  0  0  0  0  # atno 17343 bound_to 10162
  157.7492  131.0079  150.3210 LP  0  0  0  0  0  0  0  0  0  0  0  0  # atno 17370 bound_to 10713
  156.3629  130.3850  149.7237 LP  0  0  0  0  0  0  0  0  0  0  0  0  # atno 17371 bound_to 10713
  139.9118  135.0191  156.7724 LP  0  0  0  0  0  0  0  0  0  0  0  0  # atno 17394 bound_to 11000
  140.6650  133.9611  155.7825 LP  0  0  0  0  0  0  0  0  0  0  0  0  # atno 17395 bound_to 11000

$$$$
