AV-unprocessed.smi:1323|AV-procd|sdf|5465|dock2
  -GOLD-   22720 5 33D 1   1.00000     0.00000
 Structure written by MMmdl.
 45 46  0  0  0  0  0  0  0  0  1 V2000
  146.0660  135.4976  151.8652 C   0  0  0  0  0  0  0  0  0  0  0  0
  146.4231  134.0686  151.4246 C   0  0  2  0  0  0  0  0  0  0  0  0
  145.2361  133.4154  150.6879 C   0  0  0  0  0  0  0  0  0  0  0  0
  145.5609  131.9821  150.2413 C   0  0  0  0  0  0  0  0  0  0  0  0
  145.9924  131.1195  151.4351 C   0  0  0  0  0  0  0  0  0  0  0  0
  147.1831  131.7532  152.1696 C   0  0  0  0  0  0  0  0  0  0  0  0
  146.8735  133.1972  152.6193 C   0  0  1  0  0  0  0  0  0  0  0  0
  148.0519  133.7772  153.1645 O   0  0  0  0  0  0  0  0  0  0  0  0
  147.8434  134.5219  154.3556 C   0  0  0  0  0  0  0  0  0  0  0  0
  149.1923  134.7340  155.0508 C   0  0  0  0  0  0  0  0  0  0  0  0
  149.7884  135.9944  154.6305 N   0  0  0  0  0  0  0  0  0  0  0  0
  150.8422  136.5728  155.2225 C   0  0  0  0  0  0  0  0  0  0  0  0
  151.4178  136.0850  156.1965 O   0  0  0  0  0  0  0  0  0  0  0  0
  151.2942  137.9099  154.6171 C   0  0  0  0  0  0  0  0  0  0  0  0
  151.0073  139.0738  155.4723 N   0  0  0  0  0  0  0  0  0  0  0  0
  149.8975  139.8673  155.1196 C   0  0  0  0  0  0  0  0  0  0  0  0
  149.5446  140.9503  155.8297 C   0  0  0  0  0  0  0  0  0  0  0  0
  150.3383  141.2978  156.9844 C   0  0  0  0  0  0  0  0  0  0  0  0
  151.3992  140.5430  157.3334 C   0  0  0  0  0  0  0  0  0  0  0  0
  151.7860  139.3555  156.5624 C   0  0  0  0  0  0  0  0  0  0  0  0
  152.7503  138.6575  156.8772 O   0  0  0  0  0  0  0  0  0  0  0  0
  145.2443  135.4982  152.5820 H   0  0  0  0  0  0  0  0  0  0  0  0
  145.7638  136.1064  151.0126 H   0  0  0  0  0  0  0  0  0  0  0  0
  146.9162  135.9935  152.3336 H   0  0  0  0  0  0  0  0  0  0  0  0
  147.2551  134.1364  150.7220 H   0  0  0  0  0  0  0  0  0  0  0  0
  144.3605  133.4013  151.3386 H   0  0  0  0  0  0  0  0  0  0  0  0
  144.9627  134.0133  149.8176 H   0  0  0  0  0  0  0  0  0  0  0  0
  144.6920  131.5374  149.7553 H   0  0  0  0  0  0  0  0  0  0  0  0
  146.3570  132.0021  149.4960 H   0  0  0  0  0  0  0  0  0  0  0  0
  145.1560  131.0021  152.1252 H   0  0  0  0  0  0  0  0  0  0  0  0
  146.2557  130.1180  151.0940 H   0  0  0  0  0  0  0  0  0  0  0  0
  147.4484  131.1331  153.0256 H   0  0  0  0  0  0  0  0  0  0  0  0
  148.0530  131.7558  151.5115 H   0  0  0  0  0  0  0  0  0  0  0  0
  146.0736  133.1888  153.3628 H   0  0  0  0  0  0  0  0  0  0  0  0
  147.4026  135.4880  154.1055 H   0  0  0  0  0  0  0  0  0  0  0  0
  147.1518  134.0132  155.0280 H   0  0  0  0  0  0  0  0  0  0  0  0
  149.0659  134.7257  156.1344 H   0  0  0  0  0  0  0  0  0  0  0  0
  149.8682  133.9159  154.7978 H   0  0  0  0  0  0  0  0  0  0  0  0
  149.3652  136.4603  153.8408 H   0  0  0  0  0  0  0  0  0  0  0  0
  152.3620  137.8563  154.3959 H   0  0  0  0  0  0  0  0  0  0  0  0
  150.8094  138.0256  153.6465 H   0  0  0  0  0  0  0  0  0  0  0  0
  149.3535  139.5355  154.2472 H   0  0  0  0  0  0  0  0  0  0  0  0
  148.6875  141.5434  155.5468 H   0  0  0  0  0  0  0  0  0  0  0  0
  150.0789  142.1663  157.5719 H   0  0  0  0  0  0  0  0  0  0  0  0
  151.9805  140.8175  158.2013 H   0  0  0  0  0  0  0  0  0  0  0  0
  1  2  1  0  0  0  0
  1 22  1  0  0  0  0
  1 23  1  0  0  0  0
  1 24  1  0  0  0  0
  2  7  1  0  0  0  0
  2  3  1  0  0  0  0
  2 25  1  0  0  0  0
  3  4  1  0  0  0  0
  3 26  1  0  0  0  0
  3 27  1  0  0  0  0
  4  5  1  0  0  0  0
  4 28  1  0  0  0  0
  4 29  1  0  0  0  0
  5  6  1  0  0  0  0
  5 30  1  0  0  0  0
  5 31  1  0  0  0  0
  6  7  1  0  0  0  0
  6 32  1  0  0  0  0
  6 33  1  0  0  0  0
  7  8  1  0  0  0  0
  7 34  1  0  0  0  0
  8  9  1  0  0  0  0
  9 10  1  0  0  0  0
  9 35  1  0  0  0  0
  9 36  1  0  0  0  0
 10 11  1  0  0  0  0
 10 37  1  0  0  0  0
 10 38  1  0  0  0  0
 11 12  1  0  0  0  0
 11 39  1  0  0  0  0
 12 13  2  0  0  0  0
 12 14  1  0  0  0  0
 14 15  1  0  0  0  0
 14 40  1  0  0  0  0
 14 41  1  0  0  0  0
 15 20  1  0  0  0  0
 15 16  1  0  0  0  0
 16 17  2  0  0  0  0
 16 42  1  0  0  0  0
 17 18  1  0  0  0  0
 17 43  1  0  0  0  0
 18 19  2  0  0  0  0
 18 44  1  0  0  0  0
 19 20  1  0  0  0  0
 19 45  1  0  0  0  0
 20 21  2  0  0  0  0
M  END
> <s_m_source_file>
AV-unprocessed.smi

> <i_m_source_file_index>
1323

> <i_lp_mmshare_version>
43012

> <i_f3d_flags>
0

> <s_epik_input>
W0NIM11bQ0BASF0xW0NIMl1bQ0gyXVtDSDJdW0NIMl1bQ0BIXTFPW0NIMl1bQ0gyXVtOSF1DKD1PKVtDSDJdbjJbY0hdW2NIXVtjSF1bY0hdYzI9Tw==

> <s_epik_cmdline>
J2VwaWtfcHl0aG9uJywgJy1waCcsICc3LjAnLCAnLXRuJywgJzgnLCAnLW1hJywgJzIwMCcsICctbWV0YWxfYmluZGluZycsICctaW1hZScsICc8aW5maWxlLm1hZT4nLCAnLW9tYWUnLCAnPG91dGZpbGUubWFlPic=

> <r_lp_tautomer_probability>
1

> <r_epik_Ionization_Penalty>
4.02412e-07

> <r_epik_Ionization_Penalty_Charging>
3.74552e-07

> <r_epik_Ionization_Penalty_Neutral>
2.78599e-08

> <r_epik_State_Penalty>
-0

> <r_epik_Charging_Adjusted_Penalty>
3.74552e-07

> <i_epik_Tot_Q>
0

> <i_epik_Tot_abs_Q>
0

> <r_epik_Metal_State_Penalty>
-0

> <b_epik_Metal_Only>
0

> <s_lp_Force_Field>
OPLS_2005

> <r_lp_Energy>
21.1571

> <b_lp_Chiralities_Consistent>
1

> <s_lp_Variant>
AV-unprocessed.smi:1323-1

> <Gold.Version>
5.8.1

> <Gold.Id.Protein>
6NUR|6NUR_protein|mol2

> <Gold.PLP.Fitness>
49.2900

> <Gold.PLP.PLP>
-40.1409

> <Gold.PLP.part.hbond>
-3.3202

> <Gold.PLP.part.metal>
0.0000

> <Gold.PLP.part.buried>
-0.9178

> <Gold.PLP.part.nonpolar>
-35.2292

> <Gold.PLP.part.repulsive>
0.2552

> <Gold.PLP.ligand.clash>
0.0000

> <Gold.PLP.ligand.torsion>
1.2861

> <Gold.PLP.Chemscore.Hbond>
3.0000

> <Gold.PLP.Chemscore.CHOScore>
0.8860

> <Gold.PLP.Chemscore.Metal>
0.0000

> <Gold.Chemscore.Hbonds>
donor molecule, donor type, donor heavy atom, donor atom, acceptor molecule, acceptor atom, score
      L1  H    11    39       P1  7948  0.83
      P1  H  7997  8010       L1    21  0.57
      P1  H 10752 10765       L1    13  0.49

> <Gold.PLP.Chemscore.Internal.Correction>
0.0631

> <Gold.Rescore>
     Score         DG    S(hbond)    S(metal)    S(lipo)     H(rot)  DE(clash)    DE(int)     intcor
     18.01     -19.42       2.68        0.00      85.17       1.94       0.18       1.22       ----

> <Gold.Chemscore.Fitness>
18.0147

> <Gold.Chemscore.DG>
-19.4167

> <Gold.Chemscore.ZeroCoef>
-5.4800

> <Gold.Chemscore.Hbond>
2.6761

> <Gold.Chemscore.Metal>
0.0000

> <Gold.Chemscore.Lipo>
85.1670

> <Gold.Chemscore.Internal_Hbond>
0.0000

> <Gold.Chemscore.DEClash>
0.1805

> <Gold.Chemscore.DEInternal>
1.2215

> <Gold.Chemscore.Rot>
1.9398

> <Gold.Chemscore.Internal.Correction>
   9.000000E+99

> <Gold.Chemscore.Hbonds>
donor molecule, donor type, donor heavy atom, donor atom, acceptor molecule, acceptor atom, score
      L1  H    11    39       P1  7948  0.70
      P1  H  7997  8010       L1    21  0.13
      P1  H 10752 10765       L1    13  0.06

> <Gold.Chemscore.Hbond.Weighted>
-8.9381

> <Gold.Chemscore.Metal.Weighted>
-0.0000

> <Gold.Chemscore.Lipo.Weighted>
-9.9645

> <Gold.Chemscore.Internal_Hbond.Weighted>
0.0000

> <Gold.Chemscore.DEClash.Weighted>
0.1805

> <Gold.Chemscore.DEInternal.Weighted>
1.2215

> <Gold.Chemscore.Rot.Weighted>
4.9659

> <Gold.Chemscore.Internal.Correction.Weighted>
   9.000000E+99

> <Gold.Protein.RotatedTorsions>
[ 6907 6896 6895 6894 ] final  130.84 input  -60.11 | X-H torsion
[ 7974 7965 7964 7962 ] final   97.52 input  175.53 | X-H torsion
[ 8008 7997 7996 7995 ] final   72.11 input   59.86 | X-H torsion
[ 10167 10162 10161 10158 ] final  -18.74 input  -65.29 | X-H torsion
[ 10718 10713 10712 10709 ] final   36.97 input   66.30 | X-H torsion
[ 10763 10752 10751 10750 ] final -146.43 input  -60.55 | X-H torsion
[ 11005 11000 10999 10996 ] final  171.10 input  -57.11 | X-H torsion

> <Gold.Protein.ActiveResidues>
 VAL166  LYS551  ARG553  GLY616  TRP617  ASP618  TYR619  PRO620  LYS621  CYS622 
 ASP623  PHE694  ASN695  SER759  ASP760  ASP761  ALA762  ILE779  LEU786  VAL792 
 PHE793  MET794  SER795  GLU796  ALA797  LYS798  CYS799  TRP800  GLU811  SER814 

> <Gold.Protein.RotatedAtoms>
  152.3486  133.6152  159.5928 H   0  0  0  0  0  0  0  0  0  0  0  0  # atno 6907 bound_to 6896
  150.7523  133.9609  159.3524 H   0  0  0  0  0  0  0  0  0  0  0  0  # atno 6908 bound_to 6896
  151.7464  135.0843  160.0375 H   0  0  0  0  0  0  0  0  0  0  0  0  # atno 6909 bound_to 6896
  145.4245  139.2317  143.3178 H   0  0  0  0  0  0  0  0  0  0  0  0  # atno 7974 bound_to 7965
  155.7639  140.3486  155.5212 H   0  0  0  0  0  0  0  0  0  0  0  0  # atno 8008 bound_to 7997
  155.8887  140.1014  157.1455 H   0  0  0  0  0  0  0  0  0  0  0  0  # atno 8009 bound_to 7997
  154.4031  140.1308  156.4275 H   0  0  0  0  0  0  0  0  0  0  0  0  # atno 8010 bound_to 7997
  140.7262  143.4886  151.0021 H   0  0  0  0  0  0  0  0  0  0  0  0  # atno 10167 bound_to 10162
  157.3413  130.7549  149.6913 H   0  0  0  0  0  0  0  0  0  0  0  0  # atno 10718 bound_to 10713
  154.8336  135.3386  154.6661 H   0  0  0  0  0  0  0  0  0  0  0  0  # atno 10763 bound_to 10752
  153.7278  135.6954  153.5001 H   0  0  0  0  0  0  0  0  0  0  0  0  # atno 10764 bound_to 10752
  153.2334  135.4408  155.0572 H   0  0  0  0  0  0  0  0  0  0  0  0  # atno 10765 bound_to 10752
  140.3154  134.7481  157.4024 H   0  0  0  0  0  0  0  0  0  0  0  0  # atno 11005 bound_to 11000
  146.2639  140.4973  142.8842 LP  0  0  0  0  0  0  0  0  0  0  0  0  # atno 17320 bound_to 7965
  144.8223  140.6571  143.6344 LP  0  0  0  0  0  0  0  0  0  0  0  0  # atno 17321 bound_to 7965
  139.8589  143.7340  152.3174 LP  0  0  0  0  0  0  0  0  0  0  0  0  # atno 17342 bound_to 10162
  139.7548  144.7524  151.0451 LP  0  0  0  0  0  0  0  0  0  0  0  0  # atno 17343 bound_to 10162
  155.9708  130.4167  150.4243 LP  0  0  0  0  0  0  0  0  0  0  0  0  # atno 17370 bound_to 10713
  157.2291  131.0500  151.2502 LP  0  0  0  0  0  0  0  0  0  0  0  0  # atno 17371 bound_to 10713
  140.0988  134.5501  155.8373 LP  0  0  0  0  0  0  0  0  0  0  0  0  # atno 17394 bound_to 11000
  141.2099  133.6688  156.6469 LP  0  0  0  0  0  0  0  0  0  0  0  0  # atno 17395 bound_to 11000

$$$$
