AV-unprocessed.smi:107|AV-procd|sdf|1024|dock8
  -GOLD-   2262018 23D 1   1.00000     0.00000
 Structure written by MMmdl.
 30 31  0  0  0  0  0  0  0  0  2 V2000
  151.3479  142.2718  157.7476 C   0  0  0  0  0  0  0  0  0  0  0  0
  151.0842  141.2560  156.6499 C   0  0  0  0  0  0  0  0  0  0  0  0
  150.1136  141.4287  155.7255 C   0  0  0  0  0  0  0  0  0  0  0  0
  149.8755  140.5004  154.7265 N   0  0  0  0  0  0  0  0  0  0  0  0
  148.7756  140.7098  153.7063 C   0  0  1  0  0  0  0  0  0  0  0  0
  147.7717  139.5555  153.7619 C   0  0  0  0  0  0  0  0  0  0  0  0
  146.6919  140.1293  154.6553 C   0  0  2  0  0  0  0  0  0  0  0  0
  145.4489  139.5039  154.4099 O   0  0  0  0  0  0  0  0  0  0  0  0
  146.6982  141.6036  154.2437 C   0  0  1  0  0  0  0  0  0  0  0  0
  146.1397  142.5471  155.3203 C   0  0  0  0  0  0  0  0  0  0  0  0
  147.0000  142.5659  156.4391 O   0  0  0  0  0  0  0  0  0  0  0  0
  148.0778  141.8854  154.0074 O   0  0  0  0  0  0  0  0  0  0  0  0
  150.6542  139.3143  154.6739 C   0  0  0  0  0  0  0  0  0  0  0  0
  150.3977  138.4914  153.7946 O   0  0  0  0  0  0  0  0  0  0  0  0
  151.6404  139.1343  155.5981 N   0  5  0  0  0  0  0  0  0  0  0  0
  151.9042  140.0405  156.5826 C   0  0  0  0  0  0  0  0  0  0  0  0
  152.8006  139.8675  157.4078 O   0  0  0  0  0  0  0  0  0  0  0  0
  150.6609  143.1158  157.6808 H   0  0  0  0  0  0  0  0  0  0  0  0
  152.3651  142.6574  157.6723 H   0  0  0  0  0  0  0  0  0  0  0  0
  151.2248  141.8129  158.7291 H   0  0  0  0  0  0  0  0  0  0  0  0
  149.5076  142.3193  155.7793 H   0  0  0  0  0  0  0  0  0  0  0  0
  149.2722  140.8194  152.7411 H   0  0  0  0  0  0  0  0  0  0  0  0
  147.3956  139.3843  152.7521 H   0  0  0  0  0  0  0  0  0  0  0  0
  148.2152  138.6311  154.1341 H   0  0  0  0  0  0  0  0  0  0  0  0
  146.9707  140.0166  155.7041 H   0  0  0  0  0  0  0  0  0  0  0  0
  145.1406  139.7753  153.5586 H   0  0  0  0  0  0  0  0  0  0  0  0
  146.1558  141.7171  153.3026 H   0  0  0  0  0  0  0  0  0  0  0  0
  146.0842  143.5651  154.9340 H   0  0  0  0  0  0  0  0  0  0  0  0
  145.1323  142.2611  155.6222 H   0  0  0  0  0  0  0  0  0  0  0  0
  147.7528  143.0963  156.2258 H   0  0  0  0  0  0  0  0  0  0  0  0
  1  2  1  0  0  0  0
  1 18  1  0  0  0  0
  1 19  1  0  0  0  0
  1 20  1  0  0  0  0
  2 16  1  0  0  0  0
  2  3  2  0  0  0  0
  3  4  1  0  0  0  0
  3 21  1  0  0  0  0
  4  5  1  0  0  0  0
  4 13  1  0  0  0  0
  5 12  1  0  0  0  0
  5  6  1  0  0  0  0
  5 22  1  0  0  0  0
  6  7  1  0  0  0  0
  6 23  1  0  0  0  0
  6 24  1  0  0  0  0
  7  8  1  0  0  0  0
  7  9  1  0  0  0  0
  7 25  1  0  0  0  0
  8 26  1  0  0  0  0
  9 10  1  0  0  0  0
  9 12  1  0  0  0  0
  9 27  1  0  0  0  0
 10 11  1  0  0  0  0
 10 28  1  0  0  0  0
 10 29  1  0  0  0  0
 11 30  1  0  0  0  0
 13 14  2  0  0  0  0
 13 15  1  0  0  0  0
 15 16  1  0  0  0  0
 16 17  2  0  0  0  0
M  CHG  1  15  -1
M  END
> <s_m_source_file>
AV-unprocessed.smi

> <i_m_source_file_index>
107

> <i_lp_mmshare_version>
43012

> <i_f3d_flags>
0

> <s_epik_input>
Tz1jMVtuSF1jKD1PKW4oW2NIXWMxW0NIM10pW0NAQEhdMltDSDJdW0NAQEhdKFtPSF0pW0NASF0oTzIpW0NIMl1bT0hd

> <s_epik_cmdline>
J2VwaWtfcHl0aG9uJywgJy1waCcsICc3LjAnLCAnLXRuJywgJzgnLCAnLW1hJywgJzIwMCcsICctbWV0YWxfYmluZGluZycsICctaW1hZScsICc8aW5maWxlLm1hZT4nLCAnLW9tYWUnLCAnPG91dGZpbGUubWFlPic=

> <r_lp_tautomer_probability>
0.999537

> <r_epik_Ionization_Penalty>
3.66603

> <r_epik_Ionization_Penalty_Charging>
1.09773e-07

> <r_epik_Ionization_Penalty_Neutral>
3.66603

> <r_epik_State_Penalty>
3.66562

> <r_epik_Charging_Adjusted_Penalty>
3.66562

> <i_epik_Tot_Q>
-1

> <i_epik_Tot_abs_Q>
1

> <r_epik_Metal_State_Penalty>
0.234536

> <b_epik_Metal_Only>
1

> <s_epik_Chemistry_Notes>
This compound contains an acetal/aminal-like group ( X-CH(R)-Y where X, Y are N, S, or O) that may be acid/base labile, releasing an aldehyde.

> <s_lp_Force_Field>
OPLS_2005

> <r_lp_Energy>
34.1834

> <b_lp_Chiralities_Consistent>
1

> <s_lp_Variant>
AV-unprocessed.smi:107-12

> <Gold.Version>
5.8.1

> <Gold.Id.Protein>
6NUR|6NUR_protein|mol2

> <Gold.PLP.Fitness>
38.8884

> <Gold.PLP.PLP>
-27.0689

> <Gold.PLP.part.hbond>
-3.8782

> <Gold.PLP.part.metal>
0.0000

> <Gold.PLP.part.buried>
1.4828

> <Gold.PLP.part.nonpolar>
-24.4488

> <Gold.PLP.part.repulsive>
0.4371

> <Gold.PLP.ligand.clash>
0.0000

> <Gold.PLP.ligand.torsion>
0.0596

> <Gold.PLP.Chemscore.Hbond>
2.9760

> <Gold.PLP.Chemscore.CHOScore>
1.0000

> <Gold.PLP.Chemscore.Metal>
0.0000

> <Gold.Chemscore.Hbonds>
donor molecule, donor type, donor heavy atom, donor atom, acceptor molecule, acceptor atom, score
      L1  H     8    26       P1 10175  0.96
      L1  H    11    30       P1  8028  0.89
      P1  H  7997  8009       L1    17  1.00
      L1  C     3    21       P1  8028  1.00

> <Gold.PLP.Chemscore.Internal.Correction>
0.0107

> <Gold.Rescore>
     Score         DG    S(hbond)    S(metal)    S(lipo)     H(rot)  DE(clash)    DE(int)     intcor
      7.55     -10.20       2.03        0.00      41.15       2.69       1.32       1.34       ----

> <Gold.Chemscore.Fitness>
7.5466

> <Gold.Chemscore.DG>
-10.2039

> <Gold.Chemscore.ZeroCoef>
-5.4800

> <Gold.Chemscore.Hbond>
2.0323

> <Gold.Chemscore.Metal>
0.0000

> <Gold.Chemscore.Lipo>
41.1543

> <Gold.Chemscore.Internal_Hbond>
0.0000

> <Gold.Chemscore.DEClash>
1.3178

> <Gold.Chemscore.DEInternal>
1.3395

> <Gold.Chemscore.Rot>
2.6871

> <Gold.Chemscore.Internal.Correction>
   9.000000E+99

> <Gold.Chemscore.Hbonds>
donor molecule, donor type, donor heavy atom, donor atom, acceptor molecule, acceptor atom, score
      L1  H     8    26       P1 10175  0.91
      L1  H    11    30       P1  8028  0.16
      P1  H  7997  8009       L1    17  0.74

> <Gold.Chemscore.Hbond.Weighted>
-6.7879

> <Gold.Chemscore.Metal.Weighted>
-0.0000

> <Gold.Chemscore.Lipo.Weighted>
-4.8151

> <Gold.Chemscore.Internal_Hbond.Weighted>
0.0000

> <Gold.Chemscore.DEClash.Weighted>
1.3178

> <Gold.Chemscore.DEInternal.Weighted>
1.3395

> <Gold.Chemscore.Rot.Weighted>
6.8791

> <Gold.Chemscore.Internal.Correction.Weighted>
   9.000000E+99

> <Gold.Protein.RotatedTorsions>
[ 6907 6896 6895 6894 ] final   39.77 input  -60.11 | X-H torsion
[ 7974 7965 7964 7962 ] final   87.78 input  175.53 | X-H torsion
[ 8008 7997 7996 7995 ] final -178.50 input   59.86 | X-H torsion
[ 10167 10162 10161 10158 ] final  139.96 input  -65.29 | X-H torsion
[ 10718 10713 10712 10709 ] final  110.59 input   66.30 | X-H torsion
[ 10763 10752 10751 10750 ] final  162.90 input  -60.55 | X-H torsion
[ 11005 11000 10999 10996 ] final  -45.68 input  -57.11 | X-H torsion

> <Gold.Protein.ActiveResidues>
 VAL166  LYS551  ARG553  GLY616  TRP617  ASP618  TYR619  PRO620  LYS621  CYS622 
 ASP623  PHE694  ASN695  SER759  ASP760  ASP761  ALA762  ILE779  LEU786  VAL792 
 PHE793  MET794  SER795  GLU796  ALA797  LYS798  CYS799  TRP800  GLU811  SER814 

> <Gold.Protein.RotatedAtoms>
  152.1739  134.8811  160.0531 H   0  0  0  0  0  0  0  0  0  0  0  0  # atno 6907 bound_to 6896
  151.9760  133.3737  159.4097 H   0  0  0  0  0  0  0  0  0  0  0  0  # atno 6908 bound_to 6896
  150.6906  134.4012  159.5163 H   0  0  0  0  0  0  0  0  0  0  0  0  # atno 6909 bound_to 6896
  145.5545  139.2298  143.2494 H   0  0  0  0  0  0  0  0  0  0  0  0  # atno 7974 bound_to 7965
  156.0195  140.1258  157.0372 H   0  0  0  0  0  0  0  0  0  0  0  0  # atno 8008 bound_to 7997
  154.4306  140.1071  156.6014 H   0  0  0  0  0  0  0  0  0  0  0  0  # atno 8009 bound_to 7997
  155.5965  140.3470  155.4583 H   0  0  0  0  0  0  0  0  0  0  0  0  # atno 8010 bound_to 7997
  139.5063  144.6263  151.5929 H   0  0  0  0  0  0  0  0  0  0  0  0  # atno 10167 bound_to 10162
  157.6487  131.0935  150.6623 H   0  0  0  0  0  0  0  0  0  0  0  0  # atno 10718 bound_to 10713
  154.2855  135.2762  155.2678 H   0  0  0  0  0  0  0  0  0  0  0  0  # atno 10763 bound_to 10752
  154.5180  135.5764  153.6661 H   0  0  0  0  0  0  0  0  0  0  0  0  # atno 10764 bound_to 10752
  152.9922  135.6197  154.3016 H   0  0  0  0  0  0  0  0  0  0  0  0  # atno 10765 bound_to 10752
  141.0531  133.6735  156.3047 H   0  0  0  0  0  0  0  0  0  0  0  0  # atno 11005 bound_to 11000
  146.1894  140.6368  142.9152 LP  0  0  0  0  0  0  0  0  0  0  0  0  # atno 17320 bound_to 7965
  144.7513  140.5198  143.6800 LP  0  0  0  0  0  0  0  0  0  0  0  0  # atno 17321 bound_to 7965
  140.5981  143.9659  150.6368 LP  0  0  0  0  0  0  0  0  0  0  0  0  # atno 17342 bound_to 10162
  140.2862  143.3355  152.1105 LP  0  0  0  0  0  0  0  0  0  0  0  0  # atno 17343 bound_to 10162
  156.6937  130.4603  149.5592 LP  0  0  0  0  0  0  0  0  0  0  0  0  # atno 17370 bound_to 10713
  156.1843  130.6519  151.0988 LP  0  0  0  0  0  0  0  0  0  0  0  0  # atno 17371 bound_to 10713
  140.6017  134.5548  157.5518 LP  0  0  0  0  0  0  0  0  0  0  0  0  # atno 17394 bound_to 11000
  139.9367  134.7862  156.0785 LP  0  0  0  0  0  0  0  0  0  0  0  0  # atno 17395 bound_to 11000

$$$$
