AV-unprocessed.smi:1644|AV-procd|sdf|6592|dock2
  -GOLD-   22720 7293D 1   1.00000     0.00000
 Structure written by MMmdl.
 48 50  0  0  0  0  0  0  0  0  2 V2000
  147.6814  135.8401  163.1155 C   0  0  0  0  0  0  0  0  0  0  0  0
  146.5415  135.0890  162.4189 C   0  0  0  0  0  0  0  0  0  0  0  0
  146.8989  134.6915  160.9702 C   0  0  0  0  0  0  0  0  0  0  0  0
  147.0427  135.8547  159.9586 C   0  0  2  0  0  0  0  0  0  0  0  0
  146.9454  135.3930  158.5896 N   0  5  0  0  0  0  0  0  0  0  0  0
  148.0673  135.7685  157.9313 C   0  0  0  0  0  0  0  0  0  0  0  0
  148.3395  135.5392  156.7532 O   0  0  0  0  0  0  0  0  0  0  0  0
  148.9057  136.4416  158.7441 N   0  0  0  0  0  0  0  0  0  0  0  0
  150.2250  136.9525  158.3593 C   0  0  0  0  0  0  0  0  0  0  0  0
  150.3200  138.4796  158.5538 C   0  0  2  0  0  0  0  0  0  0  0  0
  149.1337  139.0744  158.0630 O   0  0  0  0  0  0  0  0  0  0  0  0
  151.5159  139.0789  157.7898 C   0  0  0  0  0  0  0  0  0  0  0  0
  151.3043  140.4700  157.4323 N   0  0  0  0  0  0  0  0  0  0  0  0
  150.8610  140.9516  156.2552 C   0  0  0  0  0  0  0  0  0  0  0  0
  150.7465  142.2721  156.1421 N   0  0  0  0  0  0  0  0  0  0  0  0
  151.1608  142.6956  157.3935 C   0  0  0  0  0  0  0  0  0  0  0  0
  151.2730  143.9969  157.9306 C   0  0  0  0  0  0  0  0  0  0  0  0
  151.7215  144.1978  159.2558 C   0  0  0  0  0  0  0  0  0  0  0  0
  151.8211  145.6138  159.7954 C   0  0  0  0  0  0  0  0  0  0  0  0
  152.0699  143.0860  160.0645 C   0  0  0  0  0  0  0  0  0  0  0  0
  152.5486  143.2761  161.4928 C   0  0  0  0  0  0  0  0  0  0  0  0
  151.9695  141.7798  159.5413 C   0  0  0  0  0  0  0  0  0  0  0  0
  151.5178  141.5930  158.2232 C   0  0  0  0  0  0  0  0  0  0  0  0
  148.3975  136.5324  159.9765 C   0  0  0  0  0  0  0  0  0  0  0  0
  148.9106  137.0480  160.9701 O   0  0  0  0  0  0  0  0  0  0  0  0
  147.4037  136.1065  164.1356 H   0  0  0  0  0  0  0  0  0  0  0  0
  147.9270  136.7610  162.5861 H   0  0  0  0  0  0  0  0  0  0  0  0
  148.5833  135.2293  163.1638 H   0  0  0  0  0  0  0  0  0  0  0  0
  146.2963  134.2036  163.0055 H   0  0  0  0  0  0  0  0  0  0  0  0
  145.6502  135.7171  162.4233 H   0  0  0  0  0  0  0  0  0  0  0  0
  147.8284  134.1204  160.9787 H   0  0  0  0  0  0  0  0  0  0  0  0
  146.1387  134.0028  160.5995 H   0  0  0  0  0  0  0  0  0  0  0  0
  146.2866  136.6094  160.1788 H   0  0  0  0  0  0  0  0  0  0  0  0
  150.9714  136.4549  158.9807 H   0  0  0  0  0  0  0  0  0  0  0  0
  150.4779  136.6706  157.3354 H   0  0  0  0  0  0  0  0  0  0  0  0
  150.4204  138.7201  159.6132 H   0  0  0  0  0  0  0  0  0  0  0  0
  148.7029  138.4540  157.4946 H   0  0  0  0  0  0  0  0  0  0  0  0
  152.4173  139.0251  158.4017 H   0  0  0  0  0  0  0  0  0  0  0  0
  151.7183  138.5062  156.8833 H   0  0  0  0  0  0  0  0  0  0  0  0
  150.6069  140.2952  155.4356 H   0  0  0  0  0  0  0  0  0  0  0  0
  151.0078  144.8433  157.3140 H   0  0  0  0  0  0  0  0  0  0  0  0
  152.8429  145.8342  160.1051 H   0  0  0  0  0  0  0  0  0  0  0  0
  151.1628  145.7413  160.6549 H   0  0  0  0  0  0  0  0  0  0  0  0
  151.5346  146.3485  159.0420 H   0  0  0  0  0  0  0  0  0  0  0  0
  152.7810  142.3209  161.9648 H   0  0  0  0  0  0  0  0  0  0  0  0
  151.7797  143.7659  162.0906 H   0  0  0  0  0  0  0  0  0  0  0  0
  153.4500  143.8887  161.5169 H   0  0  0  0  0  0  0  0  0  0  0  0
  152.2311  140.9232  160.1453 H   0  0  0  0  0  0  0  0  0  0  0  0
  1  2  1  0  0  0  0
  1 26  1  0  0  0  0
  1 27  1  0  0  0  0
  1 28  1  0  0  0  0
  2  3  1  0  0  0  0
  2 29  1  0  0  0  0
  2 30  1  0  0  0  0
  3  4  1  0  0  0  0
  3 31  1  0  0  0  0
  3 32  1  0  0  0  0
  4 24  1  0  0  0  0
  4  5  1  0  0  0  0
  4 33  1  0  0  0  0
  5  6  1  0  0  0  0
  6  7  2  0  0  0  0
  6  8  1  0  0  0  0
  8  9  1  0  0  0  0
  8 24  1  0  0  0  0
  9 10  1  0  0  0  0
  9 34  1  0  0  0  0
  9 35  1  0  0  0  0
 10 11  1  0  0  0  0
 10 12  1  0  0  0  0
 10 36  1  0  0  0  0
 11 37  1  0  0  0  0
 12 13  1  0  0  0  0
 12 38  1  0  0  0  0
 12 39  1  0  0  0  0
 13 23  1  0  0  0  0
 13 14  1  0  0  0  0
 14 15  2  0  0  0  0
 14 40  1  0  0  0  0
 15 16  1  0  0  0  0
 16 23  2  0  0  0  0
 16 17  1  0  0  0  0
 17 18  2  0  0  0  0
 17 41  1  0  0  0  0
 18 19  1  0  0  0  0
 18 20  1  0  0  0  0
 19 42  1  0  0  0  0
 19 43  1  0  0  0  0
 19 44  1  0  0  0  0
 20 21  1  0  0  0  0
 20 22  2  0  0  0  0
 21 45  1  0  0  0  0
 21 46  1  0  0  0  0
 21 47  1  0  0  0  0
 22 23  1  0  0  0  0
 22 48  1  0  0  0  0
 24 25  2  0  0  0  0
M  CHG  1   5  -1
M  END
> <s_m_source_file>
AV-unprocessed.smi

> <i_m_source_file_index>
1644

> <i_lp_mmshare_version>
43012

> <i_f3d_flags>
0

> <s_epik_input>
W0NIM11bQ0gyXVtDSDJdW0NAQEhdMVtOSF1DKD1PKU4oQzE9TylbQ0gyXVtDQEhdKFtPSF0pW0NIMl1uKFtjSF1uMiljKGMyMylbY0hdYyhbQ0gzXSljKFtjSF0zKVtDSDNd

> <s_epik_cmdline>
J2VwaWtfcHl0aG9uJywgJy1waCcsICc3LjAnLCAnLXRuJywgJzgnLCAnLW1hJywgJzIwMCcsICctbWV0YWxfYmluZGluZycsICctaW1hZScsICc8aW5maWxlLm1hZT4nLCAnLW9tYWUnLCAnPG91dGZpbGUubWFlPic=

> <r_lp_tautomer_probability>
1

> <r_epik_Ionization_Penalty>
5.95212

> <r_epik_Ionization_Penalty_Charging>
5.84419

> <r_epik_Ionization_Penalty_Neutral>
0.107924

> <r_epik_State_Penalty>
5.94088

> <r_epik_Charging_Adjusted_Penalty>
11.7851

> <i_epik_Tot_Q>
-1

> <i_epik_Tot_abs_Q>
1

> <r_epik_Metal_State_Penalty>
1.99095

> <b_epik_Metal_Only>
1

> <s_lp_Force_Field>
OPLS_2005

> <r_lp_Energy>
19.2974

> <b_lp_Chiralities_Consistent>
1

> <s_lp_Variant>
AV-unprocessed.smi:1644-9

> <Gold.Version>
5.8.1

> <Gold.Id.Protein>
6NUR|6NUR_protein|mol2

> <Gold.PLP.Fitness>
50.9843

> <Gold.PLP.PLP>
-50.0932

> <Gold.PLP.part.hbond>
-0.9483

> <Gold.PLP.part.metal>
0.0000

> <Gold.PLP.part.buried>
-6.8084

> <Gold.PLP.part.nonpolar>
-43.5467

> <Gold.PLP.part.repulsive>
0.2554

> <Gold.PLP.ligand.clash>
0.0000

> <Gold.PLP.ligand.torsion>
0.9912

> <Gold.PLP.Chemscore.Hbond>
0.9280

> <Gold.PLP.Chemscore.CHOScore>
0.0000

> <Gold.PLP.Chemscore.Metal>
0.0000

> <Gold.Chemscore.Hbonds>
donor molecule, donor type, donor heavy atom, donor atom, acceptor molecule, acceptor atom, score
      P1  H  6931  6943       L1    25  0.87

> <Gold.PLP.Chemscore.Internal.Correction>
0.0895

> <Gold.Rescore>
     Score         DG    S(hbond)    S(metal)    S(lipo)     H(rot)  DE(clash)    DE(int)     intcor
     13.87     -16.28       0.95        0.00     123.23       2.65       0.00       2.40       ----

> <Gold.Chemscore.Fitness>
13.8708

> <Gold.Chemscore.DG>
-16.2755

> <Gold.Chemscore.ZeroCoef>
-5.4800

> <Gold.Chemscore.Hbond>
0.9454

> <Gold.Chemscore.Metal>
0.0000

> <Gold.Chemscore.Lipo>
123.2322

> <Gold.Chemscore.Internal_Hbond>
0.0000

> <Gold.Chemscore.DEClash>
0.0047

> <Gold.Chemscore.DEInternal>
2.4000

> <Gold.Chemscore.Rot>
2.6486

> <Gold.Chemscore.Internal.Correction>
   9.000000E+99

> <Gold.Chemscore.Hbonds>
donor molecule, donor type, donor heavy atom, donor atom, acceptor molecule, acceptor atom, score
      P1  H  6931  6943       L1    25  0.82

> <Gold.Chemscore.Hbond.Weighted>
-3.1578

> <Gold.Chemscore.Metal.Weighted>
-0.0000

> <Gold.Chemscore.Lipo.Weighted>
-14.4182

> <Gold.Chemscore.Internal_Hbond.Weighted>
0.0000

> <Gold.Chemscore.DEClash.Weighted>
0.0047

> <Gold.Chemscore.DEInternal.Weighted>
2.4000

> <Gold.Chemscore.Rot.Weighted>
6.7804

> <Gold.Chemscore.Internal.Correction.Weighted>
   9.000000E+99

> <Gold.Protein.RotatedTorsions>
[ 6907 6896 6895 6894 ] final -145.72 input  -60.11 | X-H torsion
[ 7974 7965 7964 7962 ] final  -24.92 input  175.53 | X-H torsion
[ 8008 7997 7996 7995 ] final -142.43 input   59.86 | X-H torsion
[ 10167 10162 10161 10158 ] final  153.39 input  -65.29 | X-H torsion
[ 10718 10713 10712 10709 ] final  -29.26 input   66.30 | X-H torsion
[ 10763 10752 10751 10750 ] final   -4.58 input  -60.55 | X-H torsion
[ 11005 11000 10999 10996 ] final   69.48 input  -57.11 | X-H torsion

> <Gold.Protein.ActiveResidues>
 VAL166  LYS551  ARG553  GLY616  TRP617  ASP618  TYR619  PRO620  LYS621  CYS622 
 ASP623  PHE694  ASN695  SER759  ASP760  ASP761  ALA762  ILE779  LEU786  VAL792 
 PHE793  MET794  SER795  GLU796  ALA797  LYS798  CYS799  TRP800  GLU811  SER814 

> <Gold.Protein.RotatedAtoms>
  151.1316  133.5032  159.2598 H   0  0  0  0  0  0  0  0  0  0  0  0  # atno 6907 bound_to 6896
  151.1751  135.0335  159.8778 H   0  0  0  0  0  0  0  0  0  0  0  0  # atno 6908 bound_to 6896
  152.5460  134.1175  159.8438 H   0  0  0  0  0  0  0  0  0  0  0  0  # atno 6909 bound_to 6896
  146.1524  140.4816  142.8605 H   0  0  0  0  0  0  0  0  0  0  0  0  # atno 7974 bound_to 7965
  155.4941  140.0570  157.2949 H   0  0  0  0  0  0  0  0  0  0  0  0  # atno 8008 bound_to 7997
  154.4612  140.1997  156.0191 H   0  0  0  0  0  0  0  0  0  0  0  0  # atno 8009 bound_to 7997
  156.0893  140.3236  155.7799 H   0  0  0  0  0  0  0  0  0  0  0  0  # atno 8010 bound_to 7997
  139.4827  144.5277  151.7774 H   0  0  0  0  0  0  0  0  0  0  0  0  # atno 10167 bound_to 10162
  156.4147  130.4415  149.7227 H   0  0  0  0  0  0  0  0  0  0  0  0  # atno 10718 bound_to 10713
  153.3868  135.7000  153.6524 H   0  0  0  0  0  0  0  0  0  0  0  0  # atno 10763 bound_to 10752
  153.5113  135.3631  155.2588 H   0  0  0  0  0  0  0  0  0  0  0  0  # atno 10764 bound_to 10752
  154.8698  135.4135  154.3177 H   0  0  0  0  0  0  0  0  0  0  0  0  # atno 10765 bound_to 10752
  139.9651  134.6994  156.0562 H   0  0  0  0  0  0  0  0  0  0  0  0  # atno 11005 bound_to 11000
  144.7921  140.6051  143.6535 LP  0  0  0  0  0  0  0  0  0  0  0  0  # atno 17320 bound_to 7965
  145.4790  139.1497  143.3772 LP  0  0  0  0  0  0  0  0  0  0  0  0  # atno 17321 bound_to 7965
  140.4799  144.1464  150.5931 LP  0  0  0  0  0  0  0  0  0  0  0  0  # atno 17342 bound_to 10162
  140.4289  143.2577  151.9621 LP  0  0  0  0  0  0  0  0  0  0  0  0  # atno 17343 bound_to 10162
  156.4192  130.7760  151.2776 LP  0  0  0  0  0  0  0  0  0  0  0  0  # atno 17370 bound_to 10713
  157.7507  131.0188  150.3641 LP  0  0  0  0  0  0  0  0  0  0  0  0  # atno 17371 bound_to 10713
  141.1331  133.6581  156.3518 LP  0  0  0  0  0  0  0  0  0  0  0  0  # atno 17394 bound_to 11000
  140.5413  134.6117  157.5380 LP  0  0  0  0  0  0  0  0  0  0  0  0  # atno 17395 bound_to 11000

$$$$
