AV-unprocessed.smi:1518|AV-procd|sdf|6126|dock9
  -GOLD-   22720 6263D 1   1.00000     0.00000
 Structure written by MMmdl.
 46 48  0  0  0  0  0  0  0  0  2 V2000
  153.8141  142.4853  162.6077 C   0  0  0  0  0  0  0  0  0  0  0  0
  153.3101  143.8465  162.1306 C   0  0  0  0  0  0  0  0  0  0  0  0
  153.4456  144.8183  162.8734 O   0  0  0  0  0  0  0  0  0  0  0  0
  152.6774  143.9242  160.7822 C   0  0  0  0  0  0  0  0  0  0  0  0
  152.1757  145.1642  160.3263 C   0  0  0  0  0  0  0  0  0  0  0  0
  151.5721  145.2669  159.0603 C   0  0  0  0  0  0  0  0  0  0  0  0
  151.4656  144.1323  158.2366 C   0  0  0  0  0  0  0  0  0  0  0  0
  151.9596  142.8846  158.6647 C   0  0  0  0  0  0  0  0  0  0  0  0
  151.8161  141.8276  157.7917 O   0  0  0  0  0  0  0  0  0  0  0  0
  152.7299  140.7425  157.8847 C   0  0  0  0  0  0  0  0  0  0  0  0
  152.2125  139.5856  157.0182 C   0  0  2  0  0  0  0  0  0  0  0  0
  152.5097  139.8675  155.6652 O   0  0  0  0  0  0  0  0  0  0  0  0
  150.6981  139.3529  157.1931 C   0  0  0  0  0  0  0  0  0  0  0  0
  150.0458  138.8902  155.9579 N   0  0  0  0  0  0  0  0  0  0  0  0
  150.1712  137.7038  155.2960 C   0  0  0  0  0  0  0  0  0  0  0  0
  151.0305  136.5464  155.6854 C   0  0  0  0  0  0  0  0  0  0  0  0
  152.3988  136.8852  155.7270 O   0  0  0  0  0  0  0  0  0  0  0  0
  149.3520  137.7593  154.2084 N   0  3  0  0  0  0  0  0  0  0  0  0
  148.6986  138.9916  154.1713 C   0  0  0  0  0  0  0  0  0  0  0  0
  147.7783  139.5066  153.2634 C   0  0  0  0  0  0  0  0  0  0  0  0
  147.3001  140.8087  153.5165 C   0  0  0  0  0  0  0  0  0  0  0  0
  147.7377  141.5463  154.6358 C   0  0  0  0  0  0  0  0  0  0  0  0
  148.6708  141.0137  155.5495 C   0  0  0  0  0  0  0  0  0  0  0  0
  149.1387  139.7247  155.2929 C   0  0  0  0  0  0  0  0  0  0  0  0
  152.5645  142.7883  159.9441 C   0  0  0  0  0  0  0  0  0  0  0  0
  154.5709  142.0965  161.9262 H   0  0  0  0  0  0  0  0  0  0  0  0
  152.9919  141.7718  162.6646 H   0  0  0  0  0  0  0  0  0  0  0  0
  154.2599  142.5698  163.5990 H   0  0  0  0  0  0  0  0  0  0  0  0
  152.2475  146.0494  160.9422 H   0  0  0  0  0  0  0  0  0  0  0  0
  151.1901  146.2181  158.7202 H   0  0  0  0  0  0  0  0  0  0  0  0
  151.0009  144.2209  157.2655 H   0  0  0  0  0  0  0  0  0  0  0  0
  153.7252  141.0419  157.5517 H   0  0  0  0  0  0  0  0  0  0  0  0
  152.8016  140.4200  158.9251 H   0  0  0  0  0  0  0  0  0  0  0  0
  152.7544  138.6775  157.2845 H   0  0  0  0  0  0  0  0  0  0  0  0
  151.7457  139.6771  155.1432 H   0  0  0  0  0  0  0  0  0  0  0  0
  150.5245  138.5871  157.9499 H   0  0  0  0  0  0  0  0  0  0  0  0
  150.1971  140.2505  157.5555 H   0  0  0  0  0  0  0  0  0  0  0  0
  150.7247  136.1804  156.6658 H   0  0  0  0  0  0  0  0  0  0  0  0
  150.8868  135.7282  154.9799 H   0  0  0  0  0  0  0  0  0  0  0  0
  152.5977  137.2284  156.5850 H   0  0  0  0  0  0  0  0  0  0  0  0
  147.4423  138.9437  152.4049 H   0  0  0  0  0  0  0  0  0  0  0  0
  146.5845  141.2507  152.8384 H   0  0  0  0  0  0  0  0  0  0  0  0
  147.3503  142.5420  154.7968 H   0  0  0  0  0  0  0  0  0  0  0  0
  148.9996  141.5908  156.4004 H   0  0  0  0  0  0  0  0  0  0  0  0
  152.9438  141.8392  160.2870 H   0  0  0  0  0  0  0  0  0  0  0  0
  149.2466  137.0041  153.5433 H   0  0  0  0  0  0  0  0  0  0  0  0
  1  2  1  0  0  0  0
  1 26  1  0  0  0  0
  1 27  1  0  0  0  0
  1 28  1  0  0  0  0
  2  3  2  0  0  0  0
  2  4  1  0  0  0  0
  4 25  1  0  0  0  0
  4  5  2  0  0  0  0
  5  6  1  0  0  0  0
  5 29  1  0  0  0  0
  6  7  2  0  0  0  0
  6 30  1  0  0  0  0
  7  8  1  0  0  0  0
  7 31  1  0  0  0  0
  8  9  1  0  0  0  0
  8 25  2  0  0  0  0
  9 10  1  0  0  0  0
 10 11  1  0  0  0  0
 10 32  1  0  0  0  0
 10 33  1  0  0  0  0
 11 12  1  0  0  0  0
 11 13  1  0  0  0  0
 11 34  1  0  0  0  0
 12 35  1  0  0  0  0
 13 14  1  0  0  0  0
 13 36  1  0  0  0  0
 13 37  1  0  0  0  0
 14 24  1  0  0  0  0
 14 15  1  0  0  0  0
 15 16  1  0  0  0  0
 15 18  2  0  0  0  0
 16 17  1  0  0  0  0
 16 38  1  0  0  0  0
 16 39  1  0  0  0  0
 17 40  1  0  0  0  0
 18 19  1  0  0  0  0
 18 46  1  0  0  0  0
 19 24  2  0  0  0  0
 19 20  1  0  0  0  0
 20 21  2  0  0  0  0
 20 41  1  0  0  0  0
 21 22  1  0  0  0  0
 21 42  1  0  0  0  0
 22 23  2  0  0  0  0
 22 43  1  0  0  0  0
 23 24  1  0  0  0  0
 23 44  1  0  0  0  0
 25 45  1  0  0  0  0
M  CHG  1  18   1
M  END
> <s_m_source_file>
AV-unprocessed.smi

> <i_m_source_file_index>
1518

> <i_lp_mmshare_version>
43012

> <i_f3d_flags>
0

> <s_epik_input>
W0NIM11DKD1PKWMxW2NIXVtjSF1bY0hdYyhbY0hdMSlPW0NIMl1bQ0BIXShbT0hdKVtDSDJdbihjKG4yKVtDSDJdW09IXSljKGMyMylbY0hdW2NIXVtjSF1bY0hdMw==

> <s_epik_cmdline>
J2VwaWtfcHl0aG9uJywgJy1waCcsICc3LjAnLCAnLXRuJywgJzgnLCAnLW1hJywgJzIwMCcsICctbWV0YWxfYmluZGluZycsICctaW1hZScsICc8aW5maWxlLm1hZT4nLCAnLW9tYWUnLCAnPG91dGZpbGUubWFlPic=

> <r_lp_tautomer_probability>
0.99995

> <r_epik_Ionization_Penalty>
1.40416

> <r_epik_Ionization_Penalty_Charging>
1.4033

> <r_epik_Ionization_Penalty_Neutral>
0.000858184

> <r_epik_State_Penalty>
1.48564

> <r_epik_Charging_Adjusted_Penalty>
2.88894

> <i_epik_Tot_Q>
1

> <i_epik_Tot_abs_Q>
1

> <r_epik_Metal_State_Penalty>
5.52809

> <b_epik_Metal_Only>
0

> <s_lp_Force_Field>
OPLS_2005

> <r_lp_Energy>
23.9778

> <b_lp_Chiralities_Consistent>
1

> <s_lp_Variant>
AV-unprocessed.smi:1518-3

> <Gold.Version>
5.8.1

> <Gold.Id.Protein>
6NUR|6NUR_protein|mol2

> <Gold.PLP.Fitness>
54.6976

> <Gold.PLP.PLP>
-44.6853

> <Gold.PLP.part.hbond>
-3.0000

> <Gold.PLP.part.metal>
0.0000

> <Gold.PLP.part.buried>
-2.0064

> <Gold.PLP.part.nonpolar>
-39.9288

> <Gold.PLP.part.repulsive>
0.2247

> <Gold.PLP.ligand.clash>
0.0335

> <Gold.PLP.ligand.torsion>
1.0444

> <Gold.PLP.Chemscore.Hbond>
4.0000

> <Gold.PLP.Chemscore.CHOScore>
0.0000

> <Gold.PLP.Chemscore.Metal>
0.0000

> <Gold.Chemscore.Hbonds>
donor molecule, donor type, donor heavy atom, donor atom, acceptor molecule, acceptor atom, score
      L1  H    18    46       P1  7948  2.00
      P1  H  7997  8009       L1    12  0.60
      P1  H 10752 10765       L1    17  0.90

> <Gold.PLP.Chemscore.Internal.Correction>
0.1346

> <Gold.Rescore>
     Score         DG    S(hbond)    S(metal)    S(lipo)     H(rot)  DE(clash)    DE(int)     intcor
     16.50     -21.76       2.74        0.00     133.89       3.34       4.27       0.99       ----

> <Gold.Chemscore.Fitness>
16.4987

> <Gold.Chemscore.DG>
-21.7588

> <Gold.Chemscore.ZeroCoef>
-5.4800

> <Gold.Chemscore.Hbond>
2.7428

> <Gold.Chemscore.Metal>
0.0000

> <Gold.Chemscore.Lipo>
133.8886

> <Gold.Chemscore.Internal_Hbond>
0.0000

> <Gold.Chemscore.DEClash>
4.2705

> <Gold.Chemscore.DEInternal>
0.9895

> <Gold.Chemscore.Rot>
3.3387

> <Gold.Chemscore.Internal.Correction>
   9.000000E+99

> <Gold.Chemscore.Hbonds>
donor molecule, donor type, donor heavy atom, donor atom, acceptor molecule, acceptor atom, score
      L1  H    18    46       P1  7948  0.97
      P1  H  7997  8009       L1    12  0.04
      P1  H 10752 10765       L1    17  0.26

> <Gold.Chemscore.Hbond.Weighted>
-9.1609

> <Gold.Chemscore.Metal.Weighted>
-0.0000

> <Gold.Chemscore.Lipo.Weighted>
-15.6650

> <Gold.Chemscore.Internal_Hbond.Weighted>
0.0000

> <Gold.Chemscore.DEClash.Weighted>
4.2705

> <Gold.Chemscore.DEInternal.Weighted>
0.9895

> <Gold.Chemscore.Rot.Weighted>
8.5471

> <Gold.Chemscore.Internal.Correction.Weighted>
   9.000000E+99

> <Gold.Protein.RotatedTorsions>
[ 6907 6896 6895 6894 ] final   41.83 input  -60.11 | X-H torsion
[ 7974 7965 7964 7962 ] final  -85.65 input  175.53 | X-H torsion
[ 8008 7997 7996 7995 ] final -147.55 input   59.86 | X-H torsion
[ 10167 10162 10161 10158 ] final -165.76 input  -65.29 | X-H torsion
[ 10718 10713 10712 10709 ] final  114.34 input   66.30 | X-H torsion
[ 10763 10752 10751 10750 ] final -156.94 input  -60.55 | X-H torsion
[ 11005 11000 10999 10996 ] final  -18.58 input  -57.11 | X-H torsion

> <Gold.Protein.ActiveResidues>
 VAL166  LYS551  ARG553  GLY616  TRP617  ASP618  TYR619  PRO620  LYS621  CYS622 
 ASP623  PHE694  ASN695  SER759  ASP760  ASP761  ALA762  ILE779  LEU786  VAL792 
 PHE793  MET794  SER795  GLU796  ALA797  LYS798  CYS799  TRP800  GLU811  SER814 

> <Gold.Protein.RotatedAtoms>
  152.2002  134.8594  160.0508 H   0  0  0  0  0  0  0  0  0  0  0  0  # atno 6907 bound_to 6896
  151.9451  133.3644  159.3987 H   0  0  0  0  0  0  0  0  0  0  0  0  # atno 6908 bound_to 6896
  150.6953  134.4323  159.5298 H   0  0  0  0  0  0  0  0  0  0  0  0  # atno 6909 bound_to 6896
  145.4904  140.9553  143.1815 H   0  0  0  0  0  0  0  0  0  0  0  0  # atno 7974 bound_to 7965
  155.5774  140.0640  157.2791 H   0  0  0  0  0  0  0  0  0  0  0  0  # atno 8008 bound_to 7997
  154.4342  140.1858  156.0988 H   0  0  0  0  0  0  0  0  0  0  0  0  # atno 8009 bound_to 7997
  156.0331  140.3304  155.7164 H   0  0  0  0  0  0  0  0  0  0  0  0  # atno 8010 bound_to 7997
  139.6160  144.0719  152.1888 H   0  0  0  0  0  0  0  0  0  0  0  0  # atno 10167 bound_to 10162
  157.6286  131.0997  150.7172 H   0  0  0  0  0  0  0  0  0  0  0  0  # atno 10718 bound_to 10713
  154.7674  135.3135  154.8258 H   0  0  0  0  0  0  0  0  0  0  0  0  # atno 10763 bound_to 10752
  153.9003  135.6816  153.4760 H   0  0  0  0  0  0  0  0  0  0  0  0  # atno 10764 bound_to 10752
  153.1282  135.4792  154.9240 H   0  0  0  0  0  0  0  0  0  0  0  0  # atno 10765 bound_to 10752
  140.8282  133.8017  155.9730 H   0  0  0  0  0  0  0  0  0  0  0  0  # atno 11005 bound_to 11000
  144.7837  139.6472  143.7143 LP  0  0  0  0  0  0  0  0  0  0  0  0  # atno 17320 bound_to 7965
  146.2287  139.5772  142.9569 LP  0  0  0  0  0  0  0  0  0  0  0  0  # atno 17321 bound_to 7965
  140.0349  144.6052  150.7458 LP  0  0  0  0  0  0  0  0  0  0  0  0  # atno 17342 bound_to 10162
  140.7351  143.2737  151.3808 LP  0  0  0  0  0  0  0  0  0  0  0  0  # atno 17343 bound_to 10162
  156.7515  130.4770  149.5455 LP  0  0  0  0  0  0  0  0  0  0  0  0  # atno 17370 bound_to 10713
  156.1475  130.6287  151.0551 LP  0  0  0  0  0  0  0  0  0  0  0  0  # atno 17371 bound_to 10713
  140.9027  134.2359  157.5032 LP  0  0  0  0  0  0  0  0  0  0  0  0  # atno 17394 bound_to 11000
  139.8706  134.9714  156.4734 LP  0  0  0  0  0  0  0  0  0  0  0  0  # atno 17395 bound_to 11000

$$$$
