AV-unprocessed.smi:1800|AV-procd|sdf|7264|dock9
  -GOLD-   22720 8513D 1   1.00000     0.00000
 Structure written by MMmdl.
 36 37  0  0  0  0  0  0  0  0  1 V2000
  150.4387  141.8854  156.7279 C   0  0  0  0  0  0  0  0  0  0  0  0
  151.7789  141.3336  157.2390 C   0  0  1  0  0  0  0  0  0  0  0  0
  152.0342  141.6100  158.7343 C   0  0  0  0  0  0  0  0  0  0  0  0
  152.0557  143.0283  159.0431 N   0  0  0  0  0  0  0  0  0  0  0  0
  152.2281  144.0871  158.1768 C   0  0  0  0  0  0  0  0  0  0  0  0
  152.1717  145.2322  158.9183 C   0  0  0  0  0  0  0  0  0  0  0  0
  151.9609  144.7649  160.2457 C   0  0  0  0  0  0  0  0  0  0  0  0
  151.8934  143.4454  160.3177 N   0  0  0  0  0  0  0  0  0  0  0  0
  151.8301  139.8912  156.9923 N   0  0  0  0  0  0  0  0  0  0  0  0
  151.9327  139.3336  155.3628 S   0  0  0  0  0  0  0  0  0  0  0  0
  150.7862  139.9053  154.6402 O   0  0  0  0  0  0  0  0  0  0  0  0
  153.3018  139.5975  154.8936 O   0  0  0  0  0  0  0  0  0  0  0  0
  151.6856  137.5070  155.5625 C   0  0  0  0  0  0  0  0  0  0  0  0
  150.5242  136.9564  154.7250 C   0  0  0  0  0  0  0  0  0  0  0  0
  150.0810  135.7095  155.4847 C   0  0  0  0  0  0  0  0  0  0  0  0
  150.2123  136.1049  156.9558 C   0  0  0  0  0  0  0  0  0  0  0  0
  151.3664  137.1161  157.0171 C   0  0  0  0  0  0  0  0  0  0  0  0
  150.3951  142.9712  156.8148 H   0  0  0  0  0  0  0  0  0  0  0  0
  149.6001  141.4726  157.2898 H   0  0  0  0  0  0  0  0  0  0  0  0
  150.2891  141.6398  155.6761 H   0  0  0  0  0  0  0  0  0  0  0  0
  152.5714  141.8058  156.6562 H   0  0  0  0  0  0  0  0  0  0  0  0
  151.2717  141.1245  159.3458 H   0  0  0  0  0  0  0  0  0  0  0  0
  152.9913  141.1873  159.0419 H   0  0  0  0  0  0  0  0  0  0  0  0
  152.3728  143.9379  157.1169 H   0  0  0  0  0  0  0  0  0  0  0  0
  152.2664  146.2487  158.5662 H   0  0  0  0  0  0  0  0  0  0  0  0
  151.8555  145.3418  161.1527 H   0  0  0  0  0  0  0  0  0  0  0  0
  151.0901  139.4064  157.4995 H   0  0  0  0  0  0  0  0  0  0  0  0
  152.6117  137.0099  155.2715 H   0  0  0  0  0  0  0  0  0  0  0  0
  149.6917  137.6591  154.6960 H   0  0  0  0  0  0  0  0  0  0  0  0
  150.8161  136.7424  153.6964 H   0  0  0  0  0  0  0  0  0  0  0  0
  149.0701  135.3946  155.2235 H   0  0  0  0  0  0  0  0  0  0  0  0
  150.7569  134.8829  155.2617 H   0  0  0  0  0  0  0  0  0  0  0  0
  149.2904  136.5850  157.2867 H   0  0  0  0  0  0  0  0  0  0  0  0
  150.3811  135.2418  157.6006 H   0  0  0  0  0  0  0  0  0  0  0  0
  152.2456  136.6825  157.4948 H   0  0  0  0  0  0  0  0  0  0  0  0
  151.0669  137.9774  157.6147 H   0  0  0  0  0  0  0  0  0  0  0  0
  1  2  1  0  0  0  0
  1 18  1  0  0  0  0
  1 19  1  0  0  0  0
  1 20  1  0  0  0  0
  2  3  1  0  0  0  0
  2  9  1  0  0  0  0
  2 21  1  0  0  0  0
  3  4  1  0  0  0  0
  3 22  1  0  0  0  0
  3 23  1  0  0  0  0
  4  8  1  0  0  0  0
  4  5  1  0  0  0  0
  5  6  2  0  0  0  0
  5 24  1  0  0  0  0
  6  7  1  0  0  0  0
  6 25  1  0  0  0  0
  7  8  2  0  0  0  0
  7 26  1  0  0  0  0
  9 10  1  0  0  0  0
  9 27  1  0  0  0  0
 10 11  2  0  0  0  0
 10 12  2  0  0  0  0
 10 13  1  0  0  0  0
 13 17  1  0  0  0  0
 13 14  1  0  0  0  0
 13 28  1  0  0  0  0
 14 15  1  0  0  0  0
 14 29  1  0  0  0  0
 14 30  1  0  0  0  0
 15 16  1  0  0  0  0
 15 31  1  0  0  0  0
 15 32  1  0  0  0  0
 16 17  1  0  0  0  0
 16 33  1  0  0  0  0
 16 34  1  0  0  0  0
 17 35  1  0  0  0  0
 17 36  1  0  0  0  0
M  END
> <s_m_source_file>
AV-unprocessed.smi

> <i_m_source_file_index>
1800

> <i_lp_mmshare_version>
43012

> <i_f3d_flags>
0

> <s_epik_input>
bjFbY0hdW2NIXVtjSF1uMVtDSDJdW0NAQEhdKFtDSDNdKVtOSF1TKD1PKSg9TylbQ0hdMltDSDJdW0NIMl1bQ0gyXVtDSDJdMg==

> <s_epik_cmdline>
J2VwaWtfcHl0aG9uJywgJy1waCcsICc3LjAnLCAnLXRuJywgJzgnLCAnLW1hJywgJzIwMCcsICctbWV0YWxfYmluZGluZycsICctaW1hZScsICc8aW5maWxlLm1hZT4nLCAnLW9tYWUnLCAnPG91dGZpbGUubWFlPic=

> <r_lp_tautomer_probability>
1

> <r_epik_Ionization_Penalty>
1.44925e-05

> <r_epik_Ionization_Penalty_Charging>
0

> <r_epik_Ionization_Penalty_Neutral>
1.44925e-05

> <r_epik_State_Penalty>
-0

> <r_epik_Charging_Adjusted_Penalty>
0

> <i_epik_Tot_Q>
0

> <i_epik_Tot_abs_Q>
0

> <r_epik_Metal_State_Penalty>
0.00862991

> <b_epik_Metal_Only>
0

> <s_lp_Force_Field>
OPLS_2005

> <r_lp_Energy>
17.3369

> <b_lp_Chiralities_Consistent>
1

> <s_lp_Variant>
AV-unprocessed.smi:1800-2

> <Gold.Version>
5.8.1

> <Gold.Id.Protein>
6NUR|6NUR_protein|mol2

> <Gold.PLP.Fitness>
41.0063

> <Gold.PLP.PLP>
-35.9342

> <Gold.PLP.part.hbond>
-2.9107

> <Gold.PLP.part.metal>
0.0000

> <Gold.PLP.part.buried>
-5.6793

> <Gold.PLP.part.nonpolar>
-27.6466

> <Gold.PLP.part.repulsive>
0.1514

> <Gold.PLP.ligand.clash>
0.0000

> <Gold.PLP.ligand.torsion>
0.5888

> <Gold.PLP.Chemscore.Hbond>
2.0000

> <Gold.PLP.Chemscore.CHOScore>
0.0000

> <Gold.PLP.Chemscore.Metal>
0.0000

> <Gold.Chemscore.Hbonds>
donor molecule, donor type, donor heavy atom, donor atom, acceptor molecule, acceptor atom, score
      P1  H  7989  7998       L1    11  0.95
      P1  H  7997  8009       L1    12  1.00

> <Gold.PLP.Chemscore.Internal.Correction>
0.2496

> <Gold.Rescore>
     Score         DG    S(hbond)    S(metal)    S(lipo)     H(rot)  DE(clash)    DE(int)     intcor
     15.26     -17.09       1.93        0.00      82.66       1.76       0.06       1.78       ----

> <Gold.Chemscore.Fitness>
15.2582

> <Gold.Chemscore.DG>
-17.0919

> <Gold.Chemscore.ZeroCoef>
-5.4800

> <Gold.Chemscore.Hbond>
1.9290

> <Gold.Chemscore.Metal>
0.0000

> <Gold.Chemscore.Lipo>
82.6578

> <Gold.Chemscore.Internal_Hbond>
0.0000

> <Gold.Chemscore.DEClash>
0.0576

> <Gold.Chemscore.DEInternal>
1.7761

> <Gold.Chemscore.Rot>
1.7585

> <Gold.Chemscore.Internal.Correction>
   9.000000E+99

> <Gold.Chemscore.Hbonds>
donor molecule, donor type, donor heavy atom, donor atom, acceptor molecule, acceptor atom, score
      P1  H  7989  7998       L1    11  0.22
      P1  H  7997  8009       L1    12  0.98

> <Gold.Chemscore.Hbond.Weighted>
-6.4428

> <Gold.Chemscore.Metal.Weighted>
-0.0000

> <Gold.Chemscore.Lipo.Weighted>
-9.6710

> <Gold.Chemscore.Internal_Hbond.Weighted>
0.0000

> <Gold.Chemscore.DEClash.Weighted>
0.0576

> <Gold.Chemscore.DEInternal.Weighted>
1.7761

> <Gold.Chemscore.Rot.Weighted>
4.5019

> <Gold.Chemscore.Internal.Correction.Weighted>
   9.000000E+99

> <Gold.Protein.RotatedTorsions>
[ 6907 6896 6895 6894 ] final -165.36 input  -60.11 | X-H torsion
[ 7974 7965 7964 7962 ] final -153.52 input  175.53 | X-H torsion
[ 8008 7997 7996 7995 ] final -135.47 input   59.86 | X-H torsion
[ 10167 10162 10161 10158 ] final  140.23 input  -65.29 | X-H torsion
[ 10718 10713 10712 10709 ] final   -2.66 input   66.30 | X-H torsion
[ 10763 10752 10751 10750 ] final -131.25 input  -60.55 | X-H torsion
[ 11005 11000 10999 10996 ] final -128.81 input  -57.11 | X-H torsion

> <Gold.Protein.ActiveResidues>
 VAL166  LYS551  ARG553  GLY616  TRP617  ASP618  TYR619  PRO620  LYS621  CYS622 
 ASP623  PHE694  ASN695  SER759  ASP760  ASP761  ALA762  ILE779  LEU786  VAL792 
 PHE793  MET794  SER795  GLU796  ALA797  LYS798  CYS799  TRP800  GLU811  SER814 

> <Gold.Protein.RotatedAtoms>
  151.4264  133.3683  159.2762 H   0  0  0  0  0  0  0  0  0  0  0  0  # atno 6907 bound_to 6896
  150.9256  134.8674  159.7528 H   0  0  0  0  0  0  0  0  0  0  0  0  # atno 6908 bound_to 6896
  152.5003  134.4205  159.9531 H   0  0  0  0  0  0  0  0  0  0  0  0  # atno 6909 bound_to 6896
  144.7737  140.4515  143.5889 H   0  0  0  0  0  0  0  0  0  0  0  0  # atno 7974 bound_to 7965
  155.3792  140.0493  157.3044 H   0  0  0  0  0  0  0  0  0  0  0  0  # atno 8008 bound_to 7997
  154.5091  140.2185  155.9154 H   0  0  0  0  0  0  0  0  0  0  0  0  # atno 8009 bound_to 7997
  156.1561  140.3126  155.8734 H   0  0  0  0  0  0  0  0  0  0  0  0  # atno 8010 bound_to 7997
  139.5055  144.6247  151.5966 H   0  0  0  0  0  0  0  0  0  0  0  0  # atno 10167 bound_to 10162
  156.7875  130.5351  149.5741 H   0  0  0  0  0  0  0  0  0  0  0  0  # atno 10718 bound_to 10713
  154.8752  135.3836  154.4216 H   0  0  0  0  0  0  0  0  0  0  0  0  # atno 10763 bound_to 10752
  153.4919  135.7030  153.5884 H   0  0  0  0  0  0  0  0  0  0  0  0  # atno 10764 bound_to 10752
  153.4254  135.3891  155.2104 H   0  0  0  0  0  0  0  0  0  0  0  0  # atno 10765 bound_to 10752
  140.9485  134.1098  157.4084 H   0  0  0  0  0  0  0  0  0  0  0  0  # atno 11005 bound_to 11000
  145.6249  139.1529  143.3001 LP  0  0  0  0  0  0  0  0  0  0  0  0  # atno 17320 bound_to 7965
  146.1901  140.6357  142.9149 LP  0  0  0  0  0  0  0  0  0  0  0  0  # atno 17321 bound_to 7965
  140.5960  143.9695  150.6355 LP  0  0  0  0  0  0  0  0  0  0  0  0  # atno 17342 bound_to 10162
  140.2891  143.3336  152.1079 LP  0  0  0  0  0  0  0  0  0  0  0  0  # atno 17343 bound_to 10162
  156.1179  130.6089  151.0149 LP  0  0  0  0  0  0  0  0  0  0  0  0  # atno 17370 bound_to 10713
  157.6616  131.0879  150.7824 LP  0  0  0  0  0  0  0  0  0  0  0  0  # atno 17371 bound_to 10713
  139.8840  135.0058  156.6341 LP  0  0  0  0  0  0  0  0  0  0  0  0  # atno 17394 bound_to 11000
  140.7636  133.8797  155.8437 LP  0  0  0  0  0  0  0  0  0  0  0  0  # atno 17395 bound_to 11000

$$$$
