AV-unprocessed.smi:146|AV-procd|sdf|1199|dock6
  -GOLD-   2262018363D 1   1.00000     0.00000
 Structure written by MMmdl.
 55 59  0  0  0  0  0  0  0  0  1 V2000
  148.3699  129.2964  153.4365 C   0  0  0  0  0  0  0  0  0  0  0  0
  147.7878  130.6800  153.7646 C   0  0  0  0  0  0  0  0  0  0  0  0
  146.8351  130.5452  154.9703 C   0  0  0  0  0  0  0  0  0  0  0  0
  148.9358  131.6626  154.0662 C   0  0  0  0  0  0  0  0  0  0  0  0
  148.4435  133.0332  154.0915 N   0  0  0  0  0  0  0  0  0  0  0  0
  149.2507  133.9258  154.7196 C   0  0  0  0  0  0  0  0  0  0  0  0
  150.4926  133.5498  155.1276 N   0  0  0  0  0  0  0  0  0  0  0  0
  151.2865  134.4165  155.7630 C   0  0  0  0  0  0  0  0  0  0  0  0
  151.0436  135.6876  156.0872 N   0  0  0  0  0  0  0  0  0  0  0  0
  149.8054  136.0771  155.6688 C   0  0  0  0  0  0  0  0  0  0  0  0
  148.8545  135.2680  154.9845 C   0  0  0  0  0  0  0  0  0  0  0  0
  147.7102  136.0102  154.7177 N   0  0  0  0  0  0  0  0  0  0  0  0
  147.9628  137.1830  155.2306 C   0  0  0  0  0  0  0  0  0  0  0  0
  149.2042  137.3165  155.8119 N   0  0  0  0  0  0  0  0  0  0  0  0
  149.7468  138.5003  156.4646 C   0  0  0  0  0  0  0  0  0  0  0  0
  150.2983  139.5815  155.5037 C   0  0  0  0  0  0  0  0  0  0  0  0
  149.1062  140.2582  154.8131 C   0  0  0  0  0  0  0  0  0  0  0  0
  149.4932  140.8680  153.5983 O   0  0  0  0  0  0  0  0  0  0  0  0
  151.4008  140.5173  156.0304 C   0  0  0  0  0  0  0  0  0  0  0  0
  152.4350  139.7558  155.3718 O   0  0  0  0  0  0  0  0  0  0  0  0
  151.4231  139.1249  154.5595 C   0  0  0  0  0  0  0  0  0  0  0  0
  147.8290  133.4190  152.8274 C   0  0  0  0  0  0  0  0  0  0  0  0
  146.6818  132.4518  152.4518 C   0  0  2  0  0  0  0  0  0  0  0  0
  146.2633  132.6587  151.0009 C   0  0  0  0  0  0  0  0  0  0  0  0
  145.1998  133.7408  151.0992 C   0  0  0  0  0  0  0  0  0  0  0  0
  144.4712  133.3613  152.2525 O   0  0  0  0  0  0  0  0  0  0  0  0
  145.3605  132.7604  153.1900 C   0  0  0  0  0  0  0  0  0  0  0  0
  147.0983  131.0839  152.5715 O   0  0  0  0  0  0  0  0  0  0  0  0
  148.9410  128.8958  154.2749 H   0  0  0  0  0  0  0  0  0  0  0  0
  149.0372  129.3425  152.5751 H   0  0  0  0  0  0  0  0  0  0  0  0
  147.5807  128.5816  153.2014 H   0  0  0  0  0  0  0  0  0  0  0  0
  147.3472  130.0968  155.8222 H   0  0  0  0  0  0  0  0  0  0  0  0
  145.9809  129.9115  154.7302 H   0  0  0  0  0  0  0  0  0  0  0  0
  146.4551  131.5079  155.3090 H   0  0  0  0  0  0  0  0  0  0  0  0
  149.4240  131.3840  154.9993 H   0  0  0  0  0  0  0  0  0  0  0  0
  149.6991  131.5929  153.2898 H   0  0  0  0  0  0  0  0  0  0  0  0
  152.2544  134.0362  156.0549 H   0  0  0  0  0  0  0  0  0  0  0  0
  147.2421  137.9863  155.1977 H   0  0  0  0  0  0  0  0  0  0  0  0
  148.9597  138.9219  157.0908 H   0  0  0  0  0  0  0  0  0  0  0  0
  150.5202  138.1632  157.1552 H   0  0  0  0  0  0  0  0  0  0  0  0
  148.3239  139.5334  154.5861 H   0  0  0  0  0  0  0  0  0  0  0  0
  148.6529  141.0111  155.4588 H   0  0  0  0  0  0  0  0  0  0  0  0
  149.3617  140.2495  152.8959 H   0  0  0  0  0  0  0  0  0  0  0  0
  151.3390  141.5334  155.6368 H   0  0  0  0  0  0  0  0  0  0  0  0
  151.5108  140.5366  157.1136 H   0  0  0  0  0  0  0  0  0  0  0  0
  151.5459  138.0454  154.4862 H   0  0  0  0  0  0  0  0  0  0  0  0
  151.3750  139.5695  153.5640 H   0  0  0  0  0  0  0  0  0  0  0  0
  147.4545  134.4422  152.8801 H   0  0  0  0  0  0  0  0  0  0  0  0
  148.5998  133.4008  152.0553 H   0  0  0  0  0  0  0  0  0  0  0  0
  147.0872  132.9277  150.3393 H   0  0  0  0  0  0  0  0  0  0  0  0
  145.8080  131.7488  150.6066 H   0  0  0  0  0  0  0  0  0  0  0  0
  145.6501  134.7223  151.2540 H   0  0  0  0  0  0  0  0  0  0  0  0
  144.5611  133.7886  150.2171 H   0  0  0  0  0  0  0  0  0  0  0  0
  144.8794  131.8533  153.5543 H   0  0  0  0  0  0  0  0  0  0  0  0
  145.5131  133.4229  154.0426 H   0  0  0  0  0  0  0  0  0  0  0  0
  1  2  1  0  0  0  0
  1 29  1  0  0  0  0
  1 30  1  0  0  0  0
  1 31  1  0  0  0  0
  2 28  1  0  0  0  0
  2  3  1  0  0  0  0
  2  4  1  0  0  0  0
  3 32  1  0  0  0  0
  3 33  1  0  0  0  0
  3 34  1  0  0  0  0
  4  5  1  0  0  0  0
  4 35  1  0  0  0  0
  4 36  1  0  0  0  0
  5  6  1  0  0  0  0
  5 22  1  0  0  0  0
  6 11  1  0  0  0  0
  6  7  2  0  0  0  0
  7  8  1  0  0  0  0
  8  9  2  0  0  0  0
  8 37  1  0  0  0  0
  9 10  1  0  0  0  0
 10 14  1  0  0  0  0
 10 11  2  0  0  0  0
 11 12  1  0  0  0  0
 12 13  2  0  0  0  0
 13 14  1  0  0  0  0
 13 38  1  0  0  0  0
 14 15  1  0  0  0  0
 15 16  1  0  0  0  0
 15 39  1  0  0  0  0
 15 40  1  0  0  0  0
 16 21  1  0  0  0  0
 16 17  1  0  0  0  0
 16 19  1  0  0  0  0
 17 18  1  0  0  0  0
 17 41  1  0  0  0  0
 17 42  1  0  0  0  0
 18 43  1  0  0  0  0
 19 20  1  0  0  0  0
 19 44  1  0  0  0  0
 19 45  1  0  0  0  0
 20 21  1  0  0  0  0
 21 46  1  0  0  0  0
 21 47  1  0  0  0  0
 22 23  1  0  0  0  0
 22 48  1  0  0  0  0
 22 49  1  0  0  0  0
 23 27  1  0  0  0  0
 23 24  1  0  0  0  0
 23 28  1  0  0  0  0
 24 25  1  0  0  0  0
 24 50  1  0  0  0  0
 24 51  1  0  0  0  0
 25 26  1  0  0  0  0
 25 52  1  0  0  0  0
 25 53  1  0  0  0  0
 26 27  1  0  0  0  0
 27 54  1  0  0  0  0
 27 55  1  0  0  0  0
M  END
> <s_m_source_file>
AV-unprocessed.smi

> <i_m_source_file_index>
146

> <i_lp_mmshare_version>
43012

> <i_f3d_flags>
0

> <s_epik_input>
W0NIMl0xT1tDSDJdW0NIMl1bQ0BAXTEyW0NIMl1OKFtDSDJdQyhPMikoW0NIM10pW0NIM10pYyhuW2NIXW4zKWMoYzM0KW5bY0hdbjRbQ0gyXUM1KFtDSDJdW09IXSlbQ0gyXU9bQ0gyXTU=

> <s_epik_cmdline>
J2VwaWtfcHl0aG9uJywgJy1waCcsICc3LjAnLCAnLXRuJywgJzgnLCAnLW1hJywgJzIwMCcsICctbWV0YWxfYmluZGluZycsICctaW1hZScsICc8aW5maWxlLm1hZT4nLCAnLW9tYWUnLCAnPG91dGZpbGUubWFlPic=

> <r_lp_tautomer_probability>
1

> <r_epik_Ionization_Penalty>
0.00353822

> <r_epik_Ionization_Penalty_Charging>
0

> <r_epik_Ionization_Penalty_Neutral>
0.00353822

> <r_epik_State_Penalty>
0.0023805

> <r_epik_Charging_Adjusted_Penalty>
0.0023805

> <i_epik_Tot_Q>
0

> <i_epik_Tot_abs_Q>
0

> <r_epik_Metal_State_Penalty>
-0

> <b_epik_Metal_Only>
0

> <s_lp_Force_Field>
OPLS_2005

> <r_lp_Energy>
56.8345

> <b_lp_Chiralities_Consistent>
1

> <s_lp_Variant>
AV-unprocessed.smi:146-1

> <Gold.Version>
5.8.1

> <Gold.Id.Protein>
6NUR|6NUR_protein|mol2

> <Gold.PLP.Fitness>
43.2159

> <Gold.PLP.PLP>
-35.4883

> <Gold.PLP.part.hbond>
-3.5005

> <Gold.PLP.part.metal>
0.0000

> <Gold.PLP.part.buried>
-3.0707

> <Gold.PLP.part.nonpolar>
-28.9091

> <Gold.PLP.part.repulsive>
2.0642

> <Gold.PLP.ligand.clash>
0.0000

> <Gold.PLP.ligand.torsion>
0.9336

> <Gold.PLP.Chemscore.Hbond>
2.9972

> <Gold.PLP.Chemscore.CHOScore>
0.0000

> <Gold.PLP.Chemscore.Metal>
0.0000

> <Gold.Chemscore.Hbonds>
donor molecule, donor type, donor heavy atom, donor atom, acceptor molecule, acceptor atom, score
      L1  H    18    43       P1  7957  0.83
      P1  H  7989  7998       L1    18  0.23
      P1  H  7997  8010       L1    20  0.81
      P1  H  8011  8017       L1    18  0.65

> <Gold.PLP.Chemscore.Internal.Correction>
0.6031

> <Gold.Rescore>
     Score         DG    S(hbond)    S(metal)    S(lipo)     H(rot)  DE(clash)    DE(int)     intcor
     13.43     -14.80       2.00        0.00      75.88       2.44       0.33       1.03       ----

> <Gold.Chemscore.Fitness>
13.4345

> <Gold.Chemscore.DG>
-14.7956

> <Gold.Chemscore.ZeroCoef>
-5.4800

> <Gold.Chemscore.Hbond>
1.9992

> <Gold.Chemscore.Metal>
0.0000

> <Gold.Chemscore.Lipo>
75.8831

> <Gold.Chemscore.Internal_Hbond>
0.0000

> <Gold.Chemscore.DEClash>
0.3331

> <Gold.Chemscore.DEInternal>
1.0279

> <Gold.Chemscore.Rot>
2.4376

> <Gold.Chemscore.Internal.Correction>
   9.000000E+99

> <Gold.Chemscore.Hbonds>
donor molecule, donor type, donor heavy atom, donor atom, acceptor molecule, acceptor atom, score
      L1  H    18    43       P1  7957  0.83
      P1  H  7989  7998       L1    18  0.02
      P1  H  7997  8010       L1    20  0.71
      P1  H  8011  8017       L1    18  0.05

> <Gold.Chemscore.Hbond.Weighted>
-6.6774

> <Gold.Chemscore.Metal.Weighted>
-0.0000

> <Gold.Chemscore.Lipo.Weighted>
-8.8783

> <Gold.Chemscore.Internal_Hbond.Weighted>
0.0000

> <Gold.Chemscore.DEClash.Weighted>
0.3331

> <Gold.Chemscore.DEInternal.Weighted>
1.0279

> <Gold.Chemscore.Rot.Weighted>
6.2402

> <Gold.Chemscore.Internal.Correction.Weighted>
   9.000000E+99

> <Gold.Protein.RotatedTorsions>
[ 6907 6896 6895 6894 ] final  -69.32 input  -60.11 | X-H torsion
[ 7974 7965 7964 7962 ] final   -2.83 input  175.53 | X-H torsion
[ 8008 7997 7996 7995 ] final   92.66 input   59.86 | X-H torsion
[ 10167 10162 10161 10158 ] final  -52.60 input  -65.29 | X-H torsion
[ 10718 10713 10712 10709 ] final  -63.25 input   66.30 | X-H torsion
[ 10763 10752 10751 10750 ] final   46.23 input  -60.55 | X-H torsion
[ 11005 11000 10999 10996 ] final   72.84 input  -57.11 | X-H torsion

> <Gold.Protein.ActiveResidues>
 VAL166  LYS551  ARG553  GLY616  TRP617  ASP618  TYR619  PRO620  LYS621  CYS622 
 ASP623  PHE694  ASN695  SER759  ASP760  ASP761  ALA762  ILE779  LEU786  VAL792 
 PHE793  MET794  SER795  GLU796  ALA797  LYS798  CYS799  TRP800  GLU811  SER814 

> <Gold.Protein.RotatedAtoms>
  150.7311  134.5613  159.5843 H   0  0  0  0  0  0  0  0  0  0  0  0  # atno 6907 bound_to 6896
  152.3075  134.7534  160.0353 H   0  0  0  0  0  0  0  0  0  0  0  0  # atno 6908 bound_to 6896
  151.8093  133.3344  159.3587 H   0  0  0  0  0  0  0  0  0  0  0  0  # atno 6909 bound_to 6896
  146.2399  140.1630  142.8332 H   0  0  0  0  0  0  0  0  0  0  0  0  # atno 7974 bound_to 7965
  156.0379  140.3323  155.7211 H   0  0  0  0  0  0  0  0  0  0  0  0  # atno 8008 bound_to 7997
  155.5789  140.0635  157.2806 H   0  0  0  0  0  0  0  0  0  0  0  0  # atno 8009 bound_to 7997
  154.4380  140.1847  156.0944 H   0  0  0  0  0  0  0  0  0  0  0  0  # atno 8010 bound_to 7997
  140.6529  143.2578  151.4671 H   0  0  0  0  0  0  0  0  0  0  0  0  # atno 10167 bound_to 10162
  156.0803  130.4218  150.1250 H   0  0  0  0  0  0  0  0  0  0  0  0  # atno 10718 bound_to 10713
  152.9813  135.6014  154.3566 H   0  0  0  0  0  0  0  0  0  0  0  0  # atno 10763 bound_to 10752
  154.3251  135.2769  155.2502 H   0  0  0  0  0  0  0  0  0  0  0  0  # atno 10764 bound_to 10752
  154.4651  135.5956  153.6338 H   0  0  0  0  0  0  0  0  0  0  0  0  # atno 10765 bound_to 10752
  139.9470  134.7295  156.0954 H   0  0  0  0  0  0  0  0  0  0  0  0  # atno 11005 bound_to 11000
  145.0073  140.8684  143.5245 LP  0  0  0  0  0  0  0  0  0  0  0  0  # atno 17320 bound_to 7965
  145.1659  139.2432  143.5367 LP  0  0  0  0  0  0  0  0  0  0  0  0  # atno 17321 bound_to 7965
  139.5747  144.1847  152.1886 LP  0  0  0  0  0  0  0  0  0  0  0  0  # atno 17342 bound_to 10162
  140.1154  144.5420  150.6897 LP  0  0  0  0  0  0  0  0  0  0  0  0  # atno 17343 bound_to 10162
  156.9283  130.9705  151.3537 LP  0  0  0  0  0  0  0  0  0  0  0  0  # atno 17370 bound_to 10713
  157.5917  130.8448  149.8668 LP  0  0  0  0  0  0  0  0  0  0  0  0  # atno 17371 bound_to 10713
  141.1123  133.6639  156.3009 LP  0  0  0  0  0  0  0  0  0  0  0  0  # atno 17394 bound_to 11000
  140.5810  134.5746  157.5479 LP  0  0  0  0  0  0  0  0  0  0  0  0  # atno 17395 bound_to 11000

$$$$
