AV-unprocessed.smi:3303|AV-procd|sdf|12668|dock3
  -GOLD-   2272019 03D 1   1.00000     0.00000
 Structure written by MMmdl.
 45 46  0  0  0  0  0  0  0  0  3 V2000
  144.4975  135.7314  152.0957 C   0  0  0  0  0  0  0  0  0  0  0  0
  144.1416  134.2994  151.6575 C   0  0  1  0  0  0  0  0  0  0  0  0
  144.0954  134.2164  150.1164 C   0  0  0  0  0  0  0  0  0  0  0  0
  143.7600  132.8478  149.6496 N   0  3  1  0  0  0  0  0  0  0  0  0
  143.5065  132.7839  148.1919 C   0  0  0  0  0  0  0  0  0  0  0  0
  144.7007  131.8070  150.1525 C   0  0  1  0  0  0  0  0  0  0  0  0
  146.1039  131.8751  149.5116 C   0  0  0  0  0  0  0  0  0  0  0  0
  144.7581  131.8502  151.6925 C   0  0  0  0  0  0  0  0  0  0  0  0
  145.1195  133.2499  152.2365 C   0  0  2  0  0  0  0  0  0  0  0  0
  145.0783  133.2633  153.7180 N   0  3  0  0  0  0  0  0  0  0  0  0
  146.2085  132.5857  154.3865 C   0  0  0  0  0  0  0  0  0  0  0  0
  147.5474  133.0099  153.7679 C   0  0  0  0  0  0  0  0  0  0  0  0
  148.6778  132.0797  154.1640 C   0  0  0  0  0  0  0  0  0  0  0  0
  149.7594  132.5471  154.9405 C   0  0  0  0  0  0  0  0  0  0  0  0
  150.7875  131.6428  155.2706 C   0  0  0  0  0  0  0  0  0  0  0  0
  150.6950  130.3145  154.8127 C   0  0  0  0  0  0  0  0  0  0  0  0
  149.5744  129.9472  154.0416 C   0  0  0  0  0  0  0  0  0  0  0  0
  148.5836  130.8069  153.7184 N   0  0  0  0  0  0  0  0  0  0  0  0
  145.5009  136.0086  151.7705 H   0  0  0  0  0  0  0  0  0  0  0  0
  144.4557  135.8456  153.1792 H   0  0  0  0  0  0  0  0  0  0  0  0
  143.8012  136.4550  151.6708 H   0  0  0  0  0  0  0  0  0  0  0  0
  143.1404  134.0774  152.0313 H   0  0  0  0  0  0  0  0  0  0  0  0
  143.3402  134.9094  149.7424 H   0  0  0  0  0  0  0  0  0  0  0  0
  145.0450  134.5356  149.6849 H   0  0  0  0  0  0  0  0  0  0  0  0
  144.3784  133.0990  147.6178 H   0  0  0  0  0  0  0  0  0  0  0  0
  142.6767  133.4382  147.9232 H   0  0  0  0  0  0  0  0  0  0  0  0
  143.2397  131.7711  147.8880 H   0  0  0  0  0  0  0  0  0  0  0  0
  144.2757  130.8400  149.8790 H   0  0  0  0  0  0  0  0  0  0  0  0
  146.7509  131.0995  149.9221 H   0  0  0  0  0  0  0  0  0  0  0  0
  146.5971  132.8310  149.6849 H   0  0  0  0  0  0  0  0  0  0  0  0
  146.0651  131.7122  148.4348 H   0  0  0  0  0  0  0  0  0  0  0  0
  143.7863  131.5521  152.0898 H   0  0  0  0  0  0  0  0  0  0  0  0
  145.4676  131.1018  152.0459 H   0  0  0  0  0  0  0  0  0  0  0  0
  146.1307  133.5131  151.9223 H   0  0  0  0  0  0  0  0  0  0  0  0
  145.0951  134.2288  154.0148 H   0  0  0  0  0  0  0  0  0  0  0  0
  146.2042  132.8230  155.4503 H   0  0  0  0  0  0  0  0  0  0  0  0
  146.0870  131.5054  154.2956 H   0  0  0  0  0  0  0  0  0  0  0  0
  147.4666  133.0341  152.6802 H   0  0  0  0  0  0  0  0  0  0  0  0
  147.8004  134.0246  154.0798 H   0  0  0  0  0  0  0  0  0  0  0  0
  149.8043  133.5728  155.2767 H   0  0  0  0  0  0  0  0  0  0  0  0
  151.6317  131.9622  155.8638 H   0  0  0  0  0  0  0  0  0  0  0  0
  151.4646  129.5937  155.0466 H   0  0  0  0  0  0  0  0  0  0  0  0
  149.4715  128.9369  153.6734 H   0  0  0  0  0  0  0  0  0  0  0  0
  144.2109  132.8497  154.0296 H   0  0  0  0  0  0  0  0  0  0  0  0
  142.8715  132.6291  150.0776 H   0  0  0  0  0  0  0  0  0  0  0  0
  1  2  1  0  0  0  0
  1 19  1  0  0  0  0
  1 20  1  0  0  0  0
  1 21  1  0  0  0  0
  2  9  1  0  0  0  0
  2  3  1  0  0  0  0
  2 22  1  0  0  0  0
  3  4  1  0  0  0  0
  3 23  1  0  0  0  0
  3 24  1  0  0  0  0
  4  5  1  0  0  0  0
  4  6  1  0  0  0  0
  4 45  1  0  0  0  0
  5 25  1  0  0  0  0
  5 26  1  0  0  0  0
  5 27  1  0  0  0  0
  6  7  1  0  0  0  0
  6  8  1  0  0  0  0
  6 28  1  0  0  0  0
  7 29  1  0  0  0  0
  7 30  1  0  0  0  0
  7 31  1  0  0  0  0
  8  9  1  0  0  0  0
  8 32  1  0  0  0  0
  8 33  1  0  0  0  0
  9 10  1  0  0  0  0
  9 34  1  0  0  0  0
 10 11  1  0  0  0  0
 10 35  1  0  0  0  0
 10 44  1  0  0  0  0
 11 12  1  0  0  0  0
 11 36  1  0  0  0  0
 11 37  1  0  0  0  0
 12 13  1  0  0  0  0
 12 38  1  0  0  0  0
 12 39  1  0  0  0  0
 13 18  1  0  0  0  0
 13 14  2  0  0  0  0
 14 15  1  0  0  0  0
 14 40  1  0  0  0  0
 15 16  2  0  0  0  0
 15 41  1  0  0  0  0
 16 17  1  0  0  0  0
 16 42  1  0  0  0  0
 17 18  2  0  0  0  0
 17 43  1  0  0  0  0
M  CHG  1   4   1
M  CHG  1  10   1
M  END
> <s_m_source_file>
AV-unprocessed.smi

> <i_m_source_file_index>
3303

> <i_lp_mmshare_version>
43012

> <i_f3d_flags>
0

> <s_epik_input>
W0NIM11bQ0BASF0xW0NIMl1OKFtDSDNdKVtDQEBIXShbQ0gzXSlbQ0gyXVtDQEhdMVtOSF1bQ0gyXVtDSDJdYzJbY0hdW2NIXVtjSF1bY0hdbjI=

> <s_epik_cmdline>
J2VwaWtfcHl0aG9uJywgJy1waCcsICc3LjAnLCAnLXRuJywgJzgnLCAnLW1hJywgJzIwMCcsICctbWV0YWxfYmluZGluZycsICctaW1hZScsICc8aW5maWxlLm1hZT4nLCAnLW9tYWUnLCAnPG91dGZpbGUubWFlPic=

> <r_epik_Ionization_Penalty>
0.0769462

> <r_epik_Ionization_Penalty_Charging>
0.0759813

> <r_epik_Ionization_Penalty_Neutral>
0.000964829

> <r_epik_State_Penalty>
0.0654373

> <r_epik_Charging_Adjusted_Penalty>
0.141419

> <i_epik_Tot_Q>
2

> <i_epik_Tot_abs_Q>
2

> <r_epik_Metal_State_Penalty>
0.0656439

> <b_epik_Metal_Only>
0

> <s_lp_Force_Field>
OPLS_2005

> <r_lp_Energy>
28.3662

> <b_lp_Chiralities_Consistent>
1

> <s_lp_Variant>
AV-unprocessed.smi:3303-12

> <Gold.Version>
5.8.1

> <Gold.Id.Protein>
6NUR|6NUR_protein|mol2

> <Gold.PLP.Fitness>
39.7113

> <Gold.PLP.PLP>
-34.1499

> <Gold.PLP.part.hbond>
-1.5229

> <Gold.PLP.part.metal>
0.0000

> <Gold.PLP.part.buried>
-2.8292

> <Gold.PLP.part.nonpolar>
-30.9718

> <Gold.PLP.part.repulsive>
0.1815

> <Gold.PLP.ligand.clash>
0.0000

> <Gold.PLP.ligand.torsion>
0.2305

> <Gold.PLP.Chemscore.Hbond>
2.0000

> <Gold.PLP.Chemscore.CHOScore>
0.0000

> <Gold.PLP.Chemscore.Metal>
0.0000

> <Gold.Chemscore.Hbonds>
donor molecule, donor type, donor heavy atom, donor atom, acceptor molecule, acceptor atom, score
      L1  H    10    44       P1 10957  2.00

> <Gold.PLP.Chemscore.Internal.Correction>
0.0224

> <Gold.Rescore>
     Score         DG    S(hbond)    S(metal)    S(lipo)     H(rot)  DE(clash)    DE(int)     intcor
     16.15     -16.49       0.87        0.00      99.43       1.37       0.17       0.17       ----

> <Gold.Chemscore.Fitness>
16.1484

> <Gold.Chemscore.DG>
-16.4899

> <Gold.Chemscore.ZeroCoef>
-5.4800

> <Gold.Chemscore.Hbond>
0.8667

> <Gold.Chemscore.Metal>
0.0000

> <Gold.Chemscore.Lipo>
99.4317

> <Gold.Chemscore.Internal_Hbond>
0.0000

> <Gold.Chemscore.DEClash>
0.1693

> <Gold.Chemscore.DEInternal>
0.1723

> <Gold.Chemscore.Rot>
1.3744

> <Gold.Chemscore.Internal.Correction>
   9.000000E+99

> <Gold.Chemscore.Hbonds>
donor molecule, donor type, donor heavy atom, donor atom, acceptor molecule, acceptor atom, score
      L1  H    10    44       P1 10957  0.87

> <Gold.Chemscore.Hbond.Weighted>
-2.8949

> <Gold.Chemscore.Metal.Weighted>
-0.0000

> <Gold.Chemscore.Lipo.Weighted>
-11.6335

> <Gold.Chemscore.Internal_Hbond.Weighted>
0.0000

> <Gold.Chemscore.DEClash.Weighted>
0.1693

> <Gold.Chemscore.DEInternal.Weighted>
0.1723

> <Gold.Chemscore.Rot.Weighted>
3.5185

> <Gold.Chemscore.Internal.Correction.Weighted>
   9.000000E+99

> <Gold.Protein.RotatedTorsions>
[ 6907 6896 6895 6894 ] final   84.21 input  -60.11 | X-H torsion
[ 7974 7965 7964 7962 ] final   52.11 input  175.53 | X-H torsion
[ 8008 7997 7996 7995 ] final -110.77 input   59.86 | X-H torsion
[ 10167 10162 10161 10158 ] final  -18.69 input  -65.29 | X-H torsion
[ 10718 10713 10712 10709 ] final   -6.62 input   66.30 | X-H torsion
[ 10763 10752 10751 10750 ] final  157.58 input  -60.55 | X-H torsion
[ 11005 11000 10999 10996 ] final  108.51 input  -57.11 | X-H torsion

> <Gold.Protein.ActiveResidues>
 VAL166  LYS551  ARG553  GLY616  TRP617  ASP618  TYR619  PRO620  LYS621  CYS622 
 ASP623  PHE694  ASN695  SER759  ASP760  ASP761  ALA762  ILE779  LEU786  VAL792 
 PHE793  MET794  SER795  GLU796  ALA797  LYS798  CYS799  TRP800  GLU811  SER814 

> <Gold.Protein.RotatedAtoms>
  152.5347  134.2776  159.8994 H   0  0  0  0  0  0  0  0  0  0  0  0  # atno 6907 bound_to 6896
  151.2731  133.4239  159.2630 H   0  0  0  0  0  0  0  0  0  0  0  0  # atno 6908 bound_to 6896
  151.0350  134.9581  159.8188 H   0  0  0  0  0  0  0  0  0  0  0  0  # atno 6909 bound_to 6896
  145.9846  139.4277  143.0111 H   0  0  0  0  0  0  0  0  0  0  0  0  # atno 7974 bound_to 7965
  154.9796  140.0396  157.2271 H   0  0  0  0  0  0  0  0  0  0  0  0  # atno 8008 bound_to 7997
  154.7726  140.2804  155.6103 H   0  0  0  0  0  0  0  0  0  0  0  0  # atno 8009 bound_to 7997
  156.2923  140.2607  156.2533 H   0  0  0  0  0  0  0  0  0  0  0  0  # atno 8010 bound_to 7997
  140.7261  143.4892  151.0015 H   0  0  0  0  0  0  0  0  0  0  0  0  # atno 10167 bound_to 10162
  156.7292  130.5175  149.5849 H   0  0  0  0  0  0  0  0  0  0  0  0  # atno 10718 bound_to 10713
  154.2025  135.2789  155.2986 H   0  0  0  0  0  0  0  0  0  0  0  0  # atno 10763 bound_to 10752
  154.5843  135.5580  153.7219 H   0  0  0  0  0  0  0  0  0  0  0  0  # atno 10764 bound_to 10752
  153.0084  135.6352  154.2164 H   0  0  0  0  0  0  0  0  0  0  0  0  # atno 10765 bound_to 10752
  139.8845  134.9432  156.5984 H   0  0  0  0  0  0  0  0  0  0  0  0  # atno 11005 bound_to 11000
  145.7719  140.9893  143.1145 LP  0  0  0  0  0  0  0  0  0  0  0  0  # atno 17320 bound_to 7965
  144.6871  139.9457  143.7476 LP  0  0  0  0  0  0  0  0  0  0  0  0  # atno 17321 bound_to 7965
  139.8595  143.7333  152.3174 LP  0  0  0  0  0  0  0  0  0  0  0  0  # atno 17342 bound_to 10162
  139.7543  144.7525  151.0459 LP  0  0  0  0  0  0  0  0  0  0  0  0  # atno 17343 bound_to 10162
  156.1541  130.6330  151.0634 LP  0  0  0  0  0  0  0  0  0  0  0  0  # atno 17370 bound_to 10713
  157.6866  131.0823  150.7226 LP  0  0  0  0  0  0  0  0  0  0  0  0  # atno 17371 bound_to 10713
  140.7903  133.8588  155.8640 LP  0  0  0  0  0  0  0  0  0  0  0  0  # atno 17394 bound_to 11000
  140.9683  134.1564  157.4597 LP  0  0  0  0  0  0  0  0  0  0  0  0  # atno 17395 bound_to 11000

$$$$
