AV-unprocessed.smi:1254|AV-procd|sdf|5277|dock8
  -GOLD-   22720 4393D 1   1.00000     0.00000
 Structure written by MMmdl.
 45 46  0  0  0  0  0  0  0  0  3 V2000
  149.6896  140.2520  155.0314 C   0  0  0  0  0  0  0  0  0  0  0  0
  150.6140  139.1511  155.4241 C   0  0  0  0  0  0  0  0  0  0  0  0
  150.4087  137.8502  155.7869 C   0  0  0  0  0  0  0  0  0  0  0  0
  151.7251  137.3664  156.0196 C   0  0  0  0  0  0  0  0  0  0  0  0
  152.0517  136.1261  156.4149 N   0  5  0  0  0  0  0  0  0  0  0  0
  151.1132  135.3139  156.9524 C   0  0  0  0  0  0  0  0  0  0  0  0
  150.4426  135.5348  157.9634 O   0  0  0  0  0  0  0  0  0  0  0  0
  150.9395  134.1726  156.2747 N   0  0  0  0  0  0  0  0  0  0  0  0
  149.9912  133.1248  156.6268 C   0  0  0  0  0  0  0  0  0  0  0  0
  148.8373  133.0804  155.6166 C   0  0  2  0  0  0  0  0  0  0  0  0
  149.1461  133.9130  154.3549 C   0  0  0  0  0  0  0  0  0  0  0  0
  147.9972  133.9166  153.4163 N   0  3  1  0  0  0  0  0  0  0  0  0
  147.8636  132.6590  152.6319 C   0  0  0  0  0  0  0  0  0  0  0  0
  146.6883  132.6965  151.6313 C   0  0  0  0  0  0  0  0  0  0  0  0
  146.5740  134.0855  150.9856 C   0  0  0  0  0  0  0  0  0  0  0  0
  145.3576  132.3024  152.2943 C   0  0  0  0  0  0  0  0  0  0  0  0
  146.7589  134.3490  154.1134 C   0  0  0  0  0  0  0  0  0  0  0  0
  146.5248  133.5402  155.4040 C   0  0  0  0  0  0  0  0  0  0  0  0
  147.6742  133.6213  156.2366 O   0  0  0  0  0  0  0  0  0  0  0  0
  152.6462  138.2966  155.8318 N   0  0  0  0  0  0  0  0  0  0  0  0
  151.9423  139.4423  155.4422 O   0  0  0  0  0  0  0  0  0  0  0  0
  148.6987  140.0972  155.4586 H   0  0  0  0  0  0  0  0  0  0  0  0
  149.5876  140.3001  153.9470 H   0  0  0  0  0  0  0  0  0  0  0  0
  150.0610  141.2160  155.3803 H   0  0  0  0  0  0  0  0  0  0  0  0
  149.4687  137.3256  155.8685 H   0  0  0  0  0  0  0  0  0  0  0  0
  151.5098  134.0245  155.4550 H   0  0  0  0  0  0  0  0  0  0  0  0
  150.5049  132.1629  156.6643 H   0  0  0  0  0  0  0  0  0  0  0  0
  149.5994  133.3215  157.6262 H   0  0  0  0  0  0  0  0  0  0  0  0
  148.6553  132.0405  155.3385 H   0  0  0  0  0  0  0  0  0  0  0  0
  149.3554  134.9443  154.6427 H   0  0  0  0  0  0  0  0  0  0  0  0
  150.0450  133.5483  153.8561 H   0  0  0  0  0  0  0  0  0  0  0  0
  148.7812  132.4823  152.0687 H   0  0  0  0  0  0  0  0  0  0  0  0
  147.7612  131.8093  153.3070 H   0  0  0  0  0  0  0  0  0  0  0  0
  146.8815  131.9909  150.8240 H   0  0  0  0  0  0  0  0  0  0  0  0
  146.3729  134.8555  151.7313 H   0  0  0  0  0  0  0  0  0  0  0  0
  145.7668  134.1139  150.2530 H   0  0  0  0  0  0  0  0  0  0  0  0
  147.4945  134.3564  150.4674 H   0  0  0  0  0  0  0  0  0  0  0  0
  145.1082  132.9754  153.1153 H   0  0  0  0  0  0  0  0  0  0  0  0
  145.3940  131.2887  152.6936 H   0  0  0  0  0  0  0  0  0  0  0  0
  144.5372  132.3377  151.5770 H   0  0  0  0  0  0  0  0  0  0  0  0
  146.8676  135.4035  154.3700 H   0  0  0  0  0  0  0  0  0  0  0  0
  145.8910  134.2850  153.4584 H   0  0  0  0  0  0  0  0  0  0  0  0
  145.6709  133.9458  155.9470 H   0  0  0  0  0  0  0  0  0  0  0  0
  146.2900  132.4974  155.1877 H   0  0  0  0  0  0  0  0  0  0  0  0
  148.2074  134.6287  152.7313 H   0  0  0  0  0  0  0  0  0  0  0  0
  1  2  1  0  0  0  0
  1 22  1  0  0  0  0
  1 23  1  0  0  0  0
  1 24  1  0  0  0  0
  2 21  1  0  0  0  0
  2  3  2  0  0  0  0
  3  4  1  0  0  0  0
  3 25  1  0  0  0  0
  4  5  1  0  0  0  0
  4 20  2  0  0  0  0
  5  6  1  0  0  0  0
  6  7  2  0  0  0  0
  6  8  1  0  0  0  0
  8  9  1  0  0  0  0
  8 26  1  0  0  0  0
  9 10  1  0  0  0  0
  9 27  1  0  0  0  0
  9 28  1  0  0  0  0
 10 19  1  0  0  0  0
 10 11  1  0  0  0  0
 10 29  1  0  0  0  0
 11 12  1  0  0  0  0
 11 30  1  0  0  0  0
 11 31  1  0  0  0  0
 12 13  1  0  0  0  0
 12 17  1  0  0  0  0
 12 45  1  0  0  0  0
 13 14  1  0  0  0  0
 13 32  1  0  0  0  0
 13 33  1  0  0  0  0
 14 15  1  0  0  0  0
 14 16  1  0  0  0  0
 14 34  1  0  0  0  0
 15 35  1  0  0  0  0
 15 36  1  0  0  0  0
 15 37  1  0  0  0  0
 16 38  1  0  0  0  0
 16 39  1  0  0  0  0
 16 40  1  0  0  0  0
 17 18  1  0  0  0  0
 17 41  1  0  0  0  0
 17 42  1  0  0  0  0
 18 19  1  0  0  0  0
 18 43  1  0  0  0  0
 18 44  1  0  0  0  0
 20 21  1  0  0  0  0
M  CHG  1   5  -1
M  CHG  1  12   1
M  END
> <s_m_source_file>
AV-unprocessed.smi

> <i_m_source_file_index>
1254

> <i_lp_mmshare_version>
43012

> <i_f3d_flags>
0

> <s_epik_input>
W0NIM11jMVtjSF1jKG5vMSlbTkhdQyg9TylbTkhdW0NIMl1bQ0BASF0yW0NIMl1OKFtDSDJdW0NIMl1PMilbQ0gyXVtDSF0oW0NIM10pW0NIM10=

> <s_epik_cmdline>
J2VwaWtfcHl0aG9uJywgJy1waCcsICc3LjAnLCAnLXRuJywgJzgnLCAnLW1hJywgJzIwMCcsICctbWV0YWxfYmluZGluZycsICctaW1hZScsICc8aW5maWxlLm1hZT4nLCAnLW9tYWUnLCAnPG91dGZpbGUubWFlPic=

> <r_epik_Ionization_Penalty>
6.33139

> <r_epik_Ionization_Penalty_Charging>
6.33128

> <r_epik_Ionization_Penalty_Neutral>
0.000104968

> <r_epik_State_Penalty>
6.32522

> <r_epik_Charging_Adjusted_Penalty>
12.6565

> <i_epik_Tot_Q>
0

> <i_epik_Tot_abs_Q>
2

> <r_epik_Metal_State_Penalty>
2.26285

> <b_epik_Metal_Only>
1

> <s_lp_Force_Field>
OPLS_2005

> <r_lp_Energy>
8.92976

> <b_lp_Chiralities_Consistent>
1

> <s_lp_Variant>
AV-unprocessed.smi:1254-9

> <Gold.Version>
5.8.1

> <Gold.Id.Protein>
6NUR|6NUR_protein|mol2

> <Gold.PLP.Fitness>
37.0164

> <Gold.PLP.PLP>
-28.8487

> <Gold.PLP.part.hbond>
-3.6402

> <Gold.PLP.part.metal>
0.0000

> <Gold.PLP.part.buried>
-1.9512

> <Gold.PLP.part.nonpolar>
-22.3756

> <Gold.PLP.part.repulsive>
0.2419

> <Gold.PLP.ligand.clash>
3.9193

> <Gold.PLP.ligand.torsion>
1.5907

> <Gold.PLP.Chemscore.Hbond>
5.0273

> <Gold.PLP.Chemscore.CHOScore>
0.0000

> <Gold.PLP.Chemscore.Metal>
0.0000

> <Gold.Chemscore.Hbonds>
donor molecule, donor type, donor heavy atom, donor atom, acceptor molecule, acceptor atom, score
      L1  H    12    45       P1  7948  2.00
      P1  H  6896  6907       L1     7  0.56
      P1  H  7989  7998       L1    21  0.02
      P1  H 10752 10763       L1     5  2.00

> <Gold.PLP.Chemscore.Internal.Correction>
0.1866

> <Gold.Rescore>
     Score         DG    S(hbond)    S(metal)    S(lipo)     H(rot)  DE(clash)    DE(int)     intcor
     14.34     -15.94       2.46        0.00      56.32       1.69       0.01       1.59       ----

> <Gold.Chemscore.Fitness>
14.3444

> <Gold.Chemscore.DG>
-15.9431

> <Gold.Chemscore.ZeroCoef>
-5.4800

> <Gold.Chemscore.Hbond>
2.4570

> <Gold.Chemscore.Metal>
0.0000

> <Gold.Chemscore.Lipo>
56.3218

> <Gold.Chemscore.Internal_Hbond>
0.0000

> <Gold.Chemscore.DEClash>
0.0118

> <Gold.Chemscore.DEInternal>
1.5869

> <Gold.Chemscore.Rot>
1.6926

> <Gold.Chemscore.Internal.Correction>
   9.000000E+99

> <Gold.Chemscore.Hbonds>
donor molecule, donor type, donor heavy atom, donor atom, acceptor molecule, acceptor atom, score
      L1  H    12    45       P1  7948  0.50
      P1  H  6896  6907       L1     7  0.56
      P1  H 10752 10763       L1     5  0.33

> <Gold.Chemscore.Hbond.Weighted>
-8.2065

> <Gold.Chemscore.Metal.Weighted>
-0.0000

> <Gold.Chemscore.Lipo.Weighted>
-6.5897

> <Gold.Chemscore.Internal_Hbond.Weighted>
0.0000

> <Gold.Chemscore.DEClash.Weighted>
0.0118

> <Gold.Chemscore.DEInternal.Weighted>
1.5869

> <Gold.Chemscore.Rot.Weighted>
4.3330

> <Gold.Chemscore.Internal.Correction.Weighted>
   9.000000E+99

> <Gold.Protein.RotatedTorsions>
[ 6907 6896 6895 6894 ] final  -47.92 input  -60.11 | X-H torsion
[ 7974 7965 7964 7962 ] final  -37.70 input  175.53 | X-H torsion
[ 8008 7997 7996 7995 ] final   79.94 input   59.86 | X-H torsion
[ 10167 10162 10161 10158 ] final    0.56 input  -65.29 | X-H torsion
[ 10718 10713 10712 10709 ] final  -33.45 input   66.30 | X-H torsion
[ 10763 10752 10751 10750 ] final   80.69 input  -60.55 | X-H torsion
[ 11005 11000 10999 10996 ] final  -65.23 input  -57.11 | X-H torsion

> <Gold.Protein.ActiveResidues>
 VAL166  LYS551  ARG553  GLY616  TRP617  ASP618  TYR619  PRO620  LYS621  CYS622 
 ASP623  PHE694  ASN695  SER759  ASP760  ASP761  ALA762  ILE779  LEU786  VAL792 
 PHE793  MET794  SER795  GLU796  ALA797  LYS798  CYS799  TRP800  GLU811  SER814 

> <Gold.Protein.RotatedAtoms>
  150.8958  134.8366  159.7325 H   0  0  0  0  0  0  0  0  0  0  0  0  # atno 6907 bound_to 6896
  152.4864  134.4578  159.9605 H   0  0  0  0  0  0  0  0  0  0  0  0  # atno 6908 bound_to 6896
  151.4635  133.3547  159.2848 H   0  0  0  0  0  0  0  0  0  0  0  0  # atno 6909 bound_to 6896
  146.0552  140.6427  142.9023 H   0  0  0  0  0  0  0  0  0  0  0  0  # atno 7974 bound_to 7965
  155.8766  140.3446  155.5858 H   0  0  0  0  0  0  0  0  0  0  0  0  # atno 8008 bound_to 7997
  155.7767  140.0853  157.2099 H   0  0  0  0  0  0  0  0  0  0  0  0  # atno 8009 bound_to 7997
  154.4021  140.1508  156.2992 H   0  0  0  0  0  0  0  0  0  0  0  0  # atno 8010 bound_to 7997
  140.6723  143.7013  150.7949 H   0  0  0  0  0  0  0  0  0  0  0  0  # atno 10167 bound_to 10162
  156.3625  130.4326  149.7612 H   0  0  0  0  0  0  0  0  0  0  0  0  # atno 10718 bound_to 10713
  153.1054  135.4793  154.8942 H   0  0  0  0  0  0  0  0  0  0  0  0  # atno 10763 bound_to 10752
  154.7425  135.3085  154.8706 H   0  0  0  0  0  0  0  0  0  0  0  0  # atno 10764 bound_to 10752
  153.9310  135.6844  153.4799 H   0  0  0  0  0  0  0  0  0  0  0  0  # atno 10765 bound_to 10752
  141.1448  133.6678  156.5954 H   0  0  0  0  0  0  0  0  0  0  0  0  # atno 11005 bound_to 11000
  144.7144  140.4156  143.7056 LP  0  0  0  0  0  0  0  0  0  0  0  0  # atno 17320 bound_to 7965
  145.6657  139.1589  143.2783 LP  0  0  0  0  0  0  0  0  0  0  0  0  # atno 17321 bound_to 7965
  140.0701  143.5070  152.2584 LP  0  0  0  0  0  0  0  0  0  0  0  0  # atno 17342 bound_to 10162
  139.5998  144.7579  151.3200 LP  0  0  0  0  0  0  0  0  0  0  0  0  # atno 17343 bound_to 10162
  156.4771  130.8023  151.3039 LP  0  0  0  0  0  0  0  0  0  0  0  0  # atno 17370 bound_to 10713
  157.7475  131.0017  150.2975 LP  0  0  0  0  0  0  0  0  0  0  0  0  # atno 17371 bound_to 10713
  140.3730  134.7589  157.4611 LP  0  0  0  0  0  0  0  0  0  0  0  0  # atno 17394 bound_to 11000
  140.0696  134.5881  155.8657 LP  0  0  0  0  0  0  0  0  0  0  0  0  # atno 17395 bound_to 11000

$$$$
