AV-unprocessed.smi:1|AV-procd|sdf|11|dock9
  -GOLD-   2262015103D 1   1.00000     0.00000
 Structure written by MMmdl.
 57 62  0  0  0  0  0  0  0  0  1 V2000
  143.1841  135.1098  153.4470 O   0  0  0  0  0  0  0  0  0  0  0  0
  144.1684  135.3647  152.7476 C   0  0  0  0  0  0  0  0  0  0  0  0
  144.9414  136.5186  152.7191 N   0  0  0  0  0  0  0  0  0  0  0  0
  145.9870  136.6207  153.4827 C   0  0  0  0  0  0  0  0  0  0  0  0
  146.5668  135.7490  154.4143 N   0  0  0  0  0  0  0  0  0  0  0  0
  147.7096  136.0095  155.1864 C   0  0  0  0  0  0  0  0  0  0  0  0
  148.4031  137.1157  155.1446 N   0  0  0  0  0  0  0  0  0  0  0  0
  147.8705  138.0140  154.2311 C   0  0  0  0  0  0  0  0  0  0  0  0
  146.7671  137.8758  153.4173 C   0  0  0  0  0  0  0  0  0  0  0  0
  146.5813  139.0147  152.6401 N   0  0  0  0  0  0  0  0  0  0  0  0
  147.5864  139.7976  153.0253 C   0  0  0  0  0  0  0  0  0  0  0  0
  148.3936  139.2747  153.9686 N   0  0  0  0  0  0  0  0  0  0  0  0
  149.5942  139.8994  154.6019 C   0  0  2  0  0  0  0  0  0  0  0  0
  150.0561  139.0607  155.6128 O   0  0  0  0  0  0  0  0  0  0  0  0
  150.7584  139.8666  156.5453 C   0  0  2  0  0  0  0  0  0  0  0  0
  151.0220  139.1128  157.8553 C   0  0  0  0  0  0  0  0  0  0  0  0
  151.2271  140.0567  158.8932 O   0  0  0  0  0  0  0  0  0  0  0  0
  152.4481  140.5853  159.0966 C   0  0  0  0  0  0  0  0  0  0  0  0
  153.4885  140.0898  158.6591 O   0  0  0  0  0  0  0  0  0  0  0  0
  152.4080  141.8370  159.9068 C   0  0  0  0  0  0  0  0  0  0  0  0
  151.9438  143.0334  159.3121 C   0  0  0  0  0  0  0  0  0  0  0  0
  151.8938  144.2302  160.0529 C   0  0  0  0  0  0  0  0  0  0  0  0
  152.3090  144.2457  161.3972 C   0  0  0  0  0  0  0  0  0  0  0  0
  152.7743  143.0627  162.0001 C   0  0  0  0  0  0  0  0  0  0  0  0
  152.8238  141.8643  161.2613 C   0  0  0  0  0  0  0  0  0  0  0  0
  149.8683  141.1067  156.6648 C   0  0  2  0  0  0  0  0  0  0  0  0
  148.8159  140.8721  157.5855 O   0  0  0  0  0  0  0  0  0  0  0  0
  147.3676  141.3249  156.8914 S   0  0  0  0  0  0  0  0  0  0  0  0
  146.4588  140.1693  156.9255 O   0  0  0  0  0  0  0  0  0  0  0  0
  146.9932  142.6415  157.4295 O   0  0  0  0  0  0  0  0  0  0  0  0
  147.8919  141.5368  155.3202 O   0  0  0  0  0  0  0  0  0  0  0  0
  149.2829  141.2629  155.2507 C   0  0  2  0  0  0  0  0  0  0  0  0
  144.6454  134.3097  151.8037 C   0  0  0  0  0  0  0  0  0  0  0  0
  145.9796  134.3216  151.3445 C   0  0  0  0  0  0  0  0  0  0  0  0
  146.4281  133.3274  150.4529 C   0  0  0  0  0  0  0  0  0  0  0  0
  145.5443  132.3216  150.0160 C   0  0  0  0  0  0  0  0  0  0  0  0
  144.2108  132.3101  150.4693 C   0  0  0  0  0  0  0  0  0  0  0  0
  143.7612  133.3028  151.3617 C   0  0  0  0  0  0  0  0  0  0  0  0
  147.9910  135.1919  155.8515 H   0  0  0  0  0  0  0  0  0  0  0  0
  147.7416  140.7802  152.6044 H   0  0  0  0  0  0  0  0  0  0  0  0
  150.3361  139.9658  153.8047 H   0  0  0  0  0  0  0  0  0  0  0  0
  151.7107  140.1469  156.0905 H   0  0  0  0  0  0  0  0  0  0  0  0
  150.1873  138.4541  158.0984 H   0  0  0  0  0  0  0  0  0  0  0  0
  151.9106  138.4888  157.7513 H   0  0  0  0  0  0  0  0  0  0  0  0
  151.6196  143.0465  158.2814 H   0  0  0  0  0  0  0  0  0  0  0  0
  151.5359  145.1372  159.5883 H   0  0  0  0  0  0  0  0  0  0  0  0
  152.2711  145.1636  161.9650 H   0  0  0  0  0  0  0  0  0  0  0  0
  153.0939  143.0737  163.0316 H   0  0  0  0  0  0  0  0  0  0  0  0
  153.1867  140.9747  161.7552 H   0  0  0  0  0  0  0  0  0  0  0  0
  150.4278  141.9870  156.9829 H   0  0  0  0  0  0  0  0  0  0  0  0
  149.7928  142.0437  154.6861 H   0  0  0  0  0  0  0  0  0  0  0  0
  146.6631  135.0907  151.6744 H   0  0  0  0  0  0  0  0  0  0  0  0
  147.4501  133.3368  150.1041 H   0  0  0  0  0  0  0  0  0  0  0  0
  145.8888  131.5601  149.3319 H   0  0  0  0  0  0  0  0  0  0  0  0
  143.5326  131.5399  150.1324 H   0  0  0  0  0  0  0  0  0  0  0  0
  142.7365  133.2882  151.7047 H   0  0  0  0  0  0  0  0  0  0  0  0
  146.1186  134.8531  154.5429 H   0  0  0  0  0  0  0  0  0  0  0  0
  1  2  2  0  0  0  0
  2  3  1  0  0  0  0
  2 33  1  0  0  0  0
  3  4  2  0  0  0  0
  4  9  1  0  0  0  0
  4  5  1  0  0  0  0
  5  6  1  0  0  0  0
  5 57  1  0  0  0  0
  6  7  2  0  0  0  0
  6 39  1  0  0  0  0
  7  8  1  0  0  0  0
  8 12  1  0  0  0  0
  8  9  2  0  0  0  0
  9 10  1  0  0  0  0
 10 11  2  0  0  0  0
 11 12  1  0  0  0  0
 11 40  1  0  0  0  0
 12 13  1  0  0  0  0
 13 32  1  0  0  0  0
 13 14  1  0  0  0  0
 13 41  1  0  0  0  0
 14 15  1  0  0  0  0
 15 16  1  0  0  0  0
 15 26  1  0  0  0  0
 15 42  1  0  0  0  0
 16 17  1  0  0  0  0
 16 43  1  0  0  0  0
 16 44  1  0  0  0  0
 17 18  1  0  0  0  0
 18 19  2  0  0  0  0
 18 20  1  0  0  0  0
 20 25  1  0  0  0  0
 20 21  2  0  0  0  0
 21 22  1  0  0  0  0
 21 45  1  0  0  0  0
 22 23  2  0  0  0  0
 22 46  1  0  0  0  0
 23 24  1  0  0  0  0
 23 47  1  0  0  0  0
 24 25  2  0  0  0  0
 24 48  1  0  0  0  0
 25 49  1  0  0  0  0
 26 32  1  0  0  0  0
 26 27  1  0  0  0  0
 26 50  1  0  0  0  0
 27 28  1  0  0  0  0
 28 29  2  0  0  0  0
 28 30  2  0  0  0  0
 28 31  1  0  0  0  0
 31 32  1  0  0  0  0
 32 51  1  0  0  0  0
 33 38  1  0  0  0  0
 33 34  2  0  0  0  0
 34 35  1  0  0  0  0
 34 52  1  0  0  0  0
 35 36  2  0  0  0  0
 35 53  1  0  0  0  0
 36 37  1  0  0  0  0
 36 54  1  0  0  0  0
 37 38  2  0  0  0  0
 37 55  1  0  0  0  0
 38 56  1  0  0  0  0
M  END
> <s_m_source_file>
AV-unprocessed.smi

> <i_m_source_file_index>
1

> <i_lp_mmshare_version>
43012

> <i_f3d_flags>
0

> <s_epik_input>
W2NIXTFbY0hdW2NIXVtjSF1bY0hdYzFDKD1PKVtOSF1jKG5bY0hdbjIpYyhjMjMpbltjSF1uM1tDQEBIXShbQ0BIXShbQ0BIXTQ1KU9TKE81KSg9Tyk9TylPW0NASF00W0NIMl1PQyg9TyljNltjSF1bY0hdW2NIXVtjSF1bY0hdNg==

> <s_epik_cmdline>
J2VwaWtfcHl0aG9uJywgJy1waCcsICc3LjAnLCAnLXRuJywgJzgnLCAnLW1hJywgJzIwMCcsICctbWV0YWxfYmluZGluZycsICctaW1hZScsICc8aW5maWxlLm1hZT4nLCAnLW9tYWUnLCAnPG91dGZpbGUubWFlPic=

> <r_epik_Ionization_Penalty>
0.122545

> <r_epik_Ionization_Penalty_Charging>
0.122545

> <r_epik_Ionization_Penalty_Neutral>
7.8935e-16

> <r_epik_State_Penalty>
2.69178

> <r_epik_Charging_Adjusted_Penalty>
2.81433

> <i_epik_Tot_Q>
0

> <i_epik_Tot_abs_Q>
0

> <r_epik_Metal_State_Penalty>
3.02665

> <b_epik_Metal_Only>
0

> <s_epik_Chemistry_Notes>
This compound has an ester and may undergo hydrolysis at high or low pH. This compound contains an acetal/aminal-like group ( X-CH(R)-Y where X, Y are N, S, or O) that may be acid/base labile, releasing an aldehyde.

> <s_lp_Force_Field>
OPLS_2005

> <r_lp_Energy>
59.7171

> <b_lp_Chiralities_Consistent>
1

> <s_lp_Variant>
AV-unprocessed.smi:1-11

> <Gold.Version>
5.8.1

> <Gold.Id.Protein>
6NUR|6NUR_protein|mol2

> <Gold.PLP.Fitness>
53.2978

> <Gold.PLP.PLP>
-55.4243

> <Gold.PLP.part.hbond>
-1.0000

> <Gold.PLP.part.metal>
0.0000

> <Gold.PLP.part.buried>
-4.9874

> <Gold.PLP.part.nonpolar>
-49.6668

> <Gold.PLP.part.repulsive>
1.0227

> <Gold.PLP.ligand.clash>
0.0000

> <Gold.PLP.ligand.torsion>
2.9930

> <Gold.PLP.Chemscore.Hbond>
0.9440

> <Gold.PLP.Chemscore.CHOScore>
0.2837

> <Gold.PLP.Chemscore.Metal>
0.0000

> <Gold.Chemscore.Hbonds>
donor molecule, donor type, donor heavy atom, donor atom, acceptor molecule, acceptor atom, score
      P1  H  7997  8009       L1    19  1.00
      L1  C    11    40       P1  7957  0.29

> <Gold.PLP.Chemscore.Internal.Correction>
0.1765

> <Gold.Rescore>
     Score         DG    S(hbond)    S(metal)    S(lipo)     H(rot)  DE(clash)    DE(int)     intcor
     10.64     -18.66       0.89        0.00     133.90       2.13       0.87       7.16       ----

> <Gold.Chemscore.Fitness>
10.6371

> <Gold.Chemscore.DG>
-18.6614

> <Gold.Chemscore.ZeroCoef>
-5.4800

> <Gold.Chemscore.Hbond>
0.8913

> <Gold.Chemscore.Metal>
0.0000

> <Gold.Chemscore.Lipo>
133.8958

> <Gold.Chemscore.Internal_Hbond>
0.0000

> <Gold.Chemscore.DEClash>
0.8670

> <Gold.Chemscore.DEInternal>
7.1572

> <Gold.Chemscore.Rot>
2.1333

> <Gold.Chemscore.Internal.Correction>
   9.000000E+99

> <Gold.Chemscore.Hbonds>
donor molecule, donor type, donor heavy atom, donor atom, acceptor molecule, acceptor atom, score
      P1  H  7997  8009       L1    19  0.95

> <Gold.Chemscore.Hbond.Weighted>
-2.9769

> <Gold.Chemscore.Metal.Weighted>
-0.0000

> <Gold.Chemscore.Lipo.Weighted>
-15.6658

> <Gold.Chemscore.Internal_Hbond.Weighted>
0.0000

> <Gold.Chemscore.DEClash.Weighted>
0.8670

> <Gold.Chemscore.DEInternal.Weighted>
7.1572

> <Gold.Chemscore.Rot.Weighted>
5.4614

> <Gold.Chemscore.Internal.Correction.Weighted>
   9.000000E+99

> <Gold.Protein.RotatedTorsions>
[ 6907 6896 6895 6894 ] final  159.46 input  -60.11 | X-H torsion
[ 7974 7965 7964 7962 ] final  171.41 input  175.53 | X-H torsion
[ 8008 7997 7996 7995 ] final  144.60 input   59.86 | X-H torsion
[ 10167 10162 10161 10158 ] final -111.55 input  -65.29 | X-H torsion
[ 10718 10713 10712 10709 ] final  157.33 input   66.30 | X-H torsion
[ 10763 10752 10751 10750 ] final  154.39 input  -60.55 | X-H torsion
[ 11005 11000 10999 10996 ] final  -47.72 input  -57.11 | X-H torsion

> <Gold.Protein.ActiveResidues>
 VAL166  LYS551  ARG553  GLY616  TRP617  ASP618  TYR619  PRO620  LYS621  CYS622 
 ASP623  PHE694  ASN695  SER759  ASP760  ASP761  ALA762  ILE779  LEU786  VAL792 
 PHE793  MET794  SER795  GLU796  ALA797  LYS798  CYS799  TRP800  GLU811  SER814 

> <Gold.Protein.RotatedAtoms>
  151.9852  133.3771  159.4122 H   0  0  0  0  0  0  0  0  0  0  0  0  # atno 6907 bound_to 6896
  150.6929  134.3996  159.5122 H   0  0  0  0  0  0  0  0  0  0  0  0  # atno 6908 bound_to 6896
  152.1721  134.8825  160.0584 H   0  0  0  0  0  0  0  0  0  0  0  0  # atno 6909 bound_to 6896
  144.7295  139.9346  143.6426 H   0  0  0  0  0  0  0  0  0  0  0  0  # atno 7974 bound_to 7965
  156.2904  140.2231  156.5079 H   0  0  0  0  0  0  0  0  0  0  0  0  # atno 8008 bound_to 7997
  154.7633  140.0472  157.1013 H   0  0  0  0  0  0  0  0  0  0  0  0  # atno 8009 bound_to 7997
  154.9963  140.3096  155.4888 H   0  0  0  0  0  0  0  0  0  0  0  0  # atno 8010 bound_to 7997
  140.1323  143.4350  152.1619 H   0  0  0  0  0  0  0  0  0  0  0  0  # atno 10167 bound_to 10162
  157.1930  131.0659  151.2068 H   0  0  0  0  0  0  0  0  0  0  0  0  # atno 10718 bound_to 10713
  154.1516  135.2815  155.3134 H   0  0  0  0  0  0  0  0  0  0  0  0  # atno 10763 bound_to 10752
  154.6213  135.5466  153.7582 H   0  0  0  0  0  0  0  0  0  0  0  0  # atno 10764 bound_to 10752
  153.0219  135.6440  154.1660 H   0  0  0  0  0  0  0  0  0  0  0  0  # atno 10765 bound_to 10752
  141.0658  133.6694  156.3338 H   0  0  0  0  0  0  0  0  0  0  0  0  # atno 11005 bound_to 11000
  146.0831  139.3819  143.0452 LP  0  0  0  0  0  0  0  0  0  0  0  0  # atno 17320 bound_to 7965
  145.7813  140.9855  143.1097 LP  0  0  0  0  0  0  0  0  0  0  0  0  # atno 17321 bound_to 7965
  139.5513  144.7340  151.4426 LP  0  0  0  0  0  0  0  0  0  0  0  0  # atno 17342 bound_to 10162
  140.6809  143.8083  150.7121 LP  0  0  0  0  0  0  0  0  0  0  0  0  # atno 17343 bound_to 10162
  157.3842  130.7247  149.6651 LP  0  0  0  0  0  0  0  0  0  0  0  0  # atno 17370 bound_to 10713
  155.9709  130.4164  150.4229 LP  0  0  0  0  0  0  0  0  0  0  0  0  # atno 17371 bound_to 10713
  140.5776  134.5777  157.5472 LP  0  0  0  0  0  0  0  0  0  0  0  0  # atno 17394 bound_to 11000
  139.9475  134.7676  156.0527 LP  0  0  0  0  0  0  0  0  0  0  0  0  # atno 17395 bound_to 11000

$$$$
