AV-unprocessed.smi:2695|AV-procd|sdf|10408|dock3
  -GOLD-   2272014443D 1   1.00000     0.00000
 Structure written by MMmdl.
 41 42  0  0  0  0  0  0  0  0  2 V2000
  148.2050  139.9362  154.2281 C   0  0  0  0  0  0  0  0  0  0  0  0
  149.5032  139.2879  154.6941 C   0  0  0  0  0  0  0  0  0  0  0  0
  149.7452  137.9826  154.4420 C   0  0  0  0  0  0  0  0  0  0  0  0
  150.9302  137.3707  154.8292 C   0  0  0  0  0  0  0  0  0  0  0  0
  151.1575  136.1619  154.6017 O   0  5  0  0  0  0  0  0  0  0  0  0
  151.8484  138.1841  155.4798 C   0  0  0  0  0  0  0  0  0  0  0  0
  151.6481  139.5979  155.7731 C   0  0  0  0  0  0  0  0  0  0  0  0
  152.5045  140.2761  156.3437 O   0  0  0  0  0  0  0  0  0  0  0  0
  150.4461  140.1029  155.3758 N   0  0  0  0  0  0  0  0  0  0  0  0
  150.1395  141.5180  155.6858 C   0  0  0  0  0  0  0  0  0  0  0  0
  150.2173  141.8410  157.1852 C   0  0  0  0  0  0  0  0  0  0  0  0
  149.2694  141.5997  157.9334 O   0  0  0  0  0  0  0  0  0  0  0  0
  151.3737  142.3723  157.6095 N   0  0  0  0  0  0  0  0  0  0  0  0
  151.6926  142.7459  158.9881 C   0  0  1  0  0  0  0  0  0  0  0  0
  153.0007  142.0275  159.4075 C   0  0  0  0  0  0  0  0  0  0  0  0
  153.0454  140.5406  159.0288 C   0  0  0  0  0  0  0  0  0  0  0  0
  154.1417  139.9301  159.9064 C   0  0  0  0  0  0  0  0  0  0  0  0
  154.2791  140.8544  161.1239 C   0  0  0  0  0  0  0  0  0  0  0  0
  153.2761  141.9945  160.9157 C   0  0  0  0  0  0  0  0  0  0  0  0
  151.7585  144.2882  159.1061 C   0  0  0  0  0  0  0  0  0  0  0  0
  150.5929  144.8317  158.7543 F   0  0  0  0  0  0  0  0  0  0  0  0
  152.0093  144.6583  160.3612 F   0  0  0  0  0  0  0  0  0  0  0  0
  152.7131  144.7774  158.3137 F   0  0  0  0  0  0  0  0  0  0  0  0
  147.6821  139.2891  153.5232 H   0  0  0  0  0  0  0  0  0  0  0  0
  148.3831  140.8804  153.7139 H   0  0  0  0  0  0  0  0  0  0  0  0
  147.5376  140.1087  155.0727 H   0  0  0  0  0  0  0  0  0  0  0  0
  148.9969  137.4015  153.9218 H   0  0  0  0  0  0  0  0  0  0  0  0
  152.7857  137.7490  155.7968 H   0  0  0  0  0  0  0  0  0  0  0  0
  150.7799  142.2125  155.1454 H   0  0  0  0  0  0  0  0  0  0  0  0
  149.1407  141.7687  155.3228 H   0  0  0  0  0  0  0  0  0  0  0  0
  152.0929  142.5385  156.9206 H   0  0  0  0  0  0  0  0  0  0  0  0
  150.8959  142.3904  159.6443 H   0  0  0  0  0  0  0  0  0  0  0  0
  153.8456  142.5191  158.9221 H   0  0  0  0  0  0  0  0  0  0  0  0
  152.0895  140.0702  159.2647 H   0  0  0  0  0  0  0  0  0  0  0  0
  153.2354  140.3817  157.9666 H   0  0  0  0  0  0  0  0  0  0  0  0
  153.8978  138.9071  160.1944 H   0  0  0  0  0  0  0  0  0  0  0  0
  155.0851  139.8986  159.3598 H   0  0  0  0  0  0  0  0  0  0  0  0
  154.0907  140.3270  162.0595 H   0  0  0  0  0  0  0  0  0  0  0  0
  155.2943  141.2506  161.1723 H   0  0  0  0  0  0  0  0  0  0  0  0
  153.6606  142.9422  161.2934 H   0  0  0  0  0  0  0  0  0  0  0  0
  152.3556  141.7710  161.4570 H   0  0  0  0  0  0  0  0  0  0  0  0
  1  2  1  0  0  0  0
  1 24  1  0  0  0  0
  1 25  1  0  0  0  0
  1 26  1  0  0  0  0
  2  9  1  0  0  0  0
  2  3  2  0  0  0  0
  3  4  1  0  0  0  0
  3 27  1  0  0  0  0
  4  5  1  0  0  0  0
  4  6  2  0  0  0  0
  6  7  1  0  0  0  0
  6 28  1  0  0  0  0
  7  8  2  0  0  0  0
  7  9  1  0  0  0  0
  9 10  1  0  0  0  0
 10 11  1  0  0  0  0
 10 29  1  0  0  0  0
 10 30  1  0  0  0  0
 11 12  2  0  0  0  0
 11 13  1  0  0  0  0
 13 14  1  0  0  0  0
 13 31  1  0  0  0  0
 14 15  1  0  0  0  0
 14 20  1  0  0  0  0
 14 32  1  0  0  0  0
 15 19  1  0  0  0  0
 15 16  1  0  0  0  0
 15 33  1  0  0  0  0
 16 17  1  0  0  0  0
 16 34  1  0  0  0  0
 16 35  1  0  0  0  0
 17 18  1  0  0  0  0
 17 36  1  0  0  0  0
 17 37  1  0  0  0  0
 18 19  1  0  0  0  0
 18 38  1  0  0  0  0
 18 39  1  0  0  0  0
 19 40  1  0  0  0  0
 19 41  1  0  0  0  0
 20 21  1  0  0  0  0
 20 22  1  0  0  0  0
 20 23  1  0  0  0  0
M  CHG  1   5  -1
M  END
> <s_m_source_file>
AV-unprocessed.smi

> <i_m_source_file_index>
2695

> <i_lp_mmshare_version>
43012

> <i_f3d_flags>
0

> <s_epik_input>
W0NIM11jMVtjSF1jKFtPSF0pW2NIXWMoPU8pbjFbQ0gyXUMoPU8pW05IXVtDQEBIXShDKEYpKEYpRilbQ0hdMltDSDJdW0NIMl1bQ0gyXVtDSDJdMg==

> <s_epik_cmdline>
J2VwaWtfcHl0aG9uJywgJy1waCcsICc3LjAnLCAnLXRuJywgJzgnLCAnLW1hJywgJzIwMCcsICctbWV0YWxfYmluZGluZycsICctaW1hZScsICc8aW5maWxlLm1hZT4nLCAnLW9tYWUnLCAnPG91dGZpbGUubWFlPic=

> <r_lp_tautomer_probability>
1

> <r_epik_Ionization_Penalty>
0.176977

> <r_epik_Ionization_Penalty_Charging>
0.176977

> <r_epik_Ionization_Penalty_Neutral>
1.44272e-07

> <r_epik_State_Penalty>
0.160849

> <r_epik_Charging_Adjusted_Penalty>
0.337826

> <i_epik_Tot_Q>
-1

> <i_epik_Tot_abs_Q>
1

> <r_epik_Metal_State_Penalty>
0.16085

> <b_epik_Metal_Only>
0

> <s_lp_Force_Field>
OPLS_2005

> <r_lp_Energy>
41.7446

> <b_lp_Chiralities_Consistent>
1

> <s_lp_Variant>
AV-unprocessed.smi:2695-2

> <Gold.Version>
5.8.1

> <Gold.Id.Protein>
6NUR|6NUR_protein|mol2

> <Gold.PLP.Fitness>
60.1517

> <Gold.PLP.PLP>
-52.0229

> <Gold.PLP.part.hbond>
-2.0000

> <Gold.PLP.part.metal>
0.0000

> <Gold.PLP.part.buried>
-2.6356

> <Gold.PLP.part.nonpolar>
-48.0392

> <Gold.PLP.part.repulsive>
0.3106

> <Gold.PLP.ligand.clash>
0.0000

> <Gold.PLP.ligand.torsion>
0.5845

> <Gold.PLP.Chemscore.Hbond>
3.0000

> <Gold.PLP.Chemscore.CHOScore>
0.0000

> <Gold.PLP.Chemscore.Metal>
0.0000

> <Gold.Chemscore.Hbonds>
donor molecule, donor type, donor heavy atom, donor atom, acceptor molecule, acceptor atom, score
      P1  H  7997  8008       L1     8  1.00
      P1  H 10752 10763       L1     5  2.00

> <Gold.PLP.Chemscore.Internal.Correction>
0.2979

> <Gold.Rescore>
     Score         DG    S(hbond)    S(metal)    S(lipo)     H(rot)  DE(clash)    DE(int)     intcor
     16.65     -18.81       1.86        0.00      99.18       1.75       1.23       0.93       ----

> <Gold.Chemscore.Fitness>
16.6539

> <Gold.Chemscore.DG>
-18.8082

> <Gold.Chemscore.ZeroCoef>
-5.4800

> <Gold.Chemscore.Hbond>
1.8604

> <Gold.Chemscore.Metal>
0.0000

> <Gold.Chemscore.Lipo>
99.1834

> <Gold.Chemscore.Internal_Hbond>
0.0000

> <Gold.Chemscore.DEClash>
1.2287

> <Gold.Chemscore.DEInternal>
0.9256

> <Gold.Chemscore.Rot>
1.7539

> <Gold.Chemscore.Internal.Correction>
   9.000000E+99

> <Gold.Chemscore.Hbonds>
donor molecule, donor type, donor heavy atom, donor atom, acceptor molecule, acceptor atom, score
      P1  H  7997  8008       L1     8  0.97
      P1  H 10752 10763       L1     5  0.95

> <Gold.Chemscore.Hbond.Weighted>
-6.2136

> <Gold.Chemscore.Metal.Weighted>
-0.0000

> <Gold.Chemscore.Lipo.Weighted>
-11.6045

> <Gold.Chemscore.Internal_Hbond.Weighted>
0.0000

> <Gold.Chemscore.DEClash.Weighted>
1.2287

> <Gold.Chemscore.DEInternal.Weighted>
0.9256

> <Gold.Chemscore.Rot.Weighted>
4.4899

> <Gold.Chemscore.Internal.Correction.Weighted>
   9.000000E+99

> <Gold.Protein.RotatedTorsions>
[ 6907 6896 6895 6894 ] final  -51.48 input  -60.11 | X-H torsion
[ 7974 7965 7964 7962 ] final  -35.71 input  175.53 | X-H torsion
[ 8008 7997 7996 7995 ] final  -46.89 input   59.86 | X-H torsion
[ 10167 10162 10161 10158 ] final  -64.39 input  -65.29 | X-H torsion
[ 10718 10713 10712 10709 ] final  156.82 input   66.30 | X-H torsion
[ 10763 10752 10751 10750 ] final   66.09 input  -60.55 | X-H torsion
[ 11005 11000 10999 10996 ] final -146.18 input  -57.11 | X-H torsion

> <Gold.Protein.ActiveResidues>
 VAL166  LYS551  ARG553  GLY616  TRP617  ASP618  TYR619  PRO620  LYS621  CYS622 
 ASP623  PHE694  ASN695  SER759  ASP760  ASP761  ALA762  ILE779  LEU786  VAL792 
 PHE793  MET794  SER795  GLU796  ALA797  LYS798  CYS799  TRP800  GLU811  SER814 

> <Gold.Protein.RotatedAtoms>
  150.8608  134.7959  159.7080 H   0  0  0  0  0  0  0  0  0  0  0  0  # atno 6907 bound_to 6896
  152.4645  134.5103  159.9762 H   0  0  0  0  0  0  0  0  0  0  0  0  # atno 6908 bound_to 6896
  151.5208  133.3428  159.2936 H   0  0  0  0  0  0  0  0  0  0  0  0  # atno 6909 bound_to 6896
  146.0723  140.6192  142.8946 H   0  0  0  0  0  0  0  0  0  0  0  0  # atno 7974 bound_to 7965
  154.4011  140.1360  156.4086 H   0  0  0  0  0  0  0  0  0  0  0  0  # atno 8008 bound_to 7997
  155.7756  140.3483  155.5249 H   0  0  0  0  0  0  0  0  0  0  0  0  # atno 8009 bound_to 7997
  155.8724  140.0974  157.1531 H   0  0  0  0  0  0  0  0  0  0  0  0  # atno 8010 bound_to 7997
  140.5804  143.2326  151.6354 H   0  0  0  0  0  0  0  0  0  0  0  0  # atno 10167 bound_to 10162
  157.1998  131.0673  151.2031 H   0  0  0  0  0  0  0  0  0  0  0  0  # atno 10718 bound_to 10713
  153.0125  135.5333  154.6770 H   0  0  0  0  0  0  0  0  0  0  0  0  # atno 10763 bound_to 10752
  154.5940  135.2861  155.0608 H   0  0  0  0  0  0  0  0  0  0  0  0  # atno 10764 bound_to 10752
  154.1690  135.6535  153.5057 H   0  0  0  0  0  0  0  0  0  0  0  0  # atno 10765 bound_to 10752
  140.7846  134.3039  157.5034 H   0  0  0  0  0  0  0  0  0  0  0  0  # atno 11005 bound_to 11000
  144.7240  140.4464  143.6987 LP  0  0  0  0  0  0  0  0  0  0  0  0  # atno 17320 bound_to 7965
  145.6368  139.1544  143.2938 LP  0  0  0  0  0  0  0  0  0  0  0  0  # atno 17321 bound_to 7965
  139.5167  144.3340  152.0801 LP  0  0  0  0  0  0  0  0  0  0  0  0  # atno 17342 bound_to 10162
  140.2489  144.4190  150.6230 LP  0  0  0  0  0  0  0  0  0  0  0  0  # atno 17343 bound_to 10162
  157.3778  130.7215  149.6609 LP  0  0  0  0  0  0  0  0  0  0  0  0  # atno 17370 bound_to 10713
  155.9702  130.4181  150.4310 LP  0  0  0  0  0  0  0  0  0  0  0  0  # atno 17371 bound_to 10713
  139.8738  134.9338  156.3592 LP  0  0  0  0  0  0  0  0  0  0  0  0  # atno 17394 bound_to 11000
  140.9449  133.7489  156.0195 LP  0  0  0  0  0  0  0  0  0  0  0  0  # atno 17395 bound_to 11000

$$$$
