AV-unprocessed.smi:3354|AV-procd|sdf|12961|dock5
  -GOLD-   2272019403D 1   1.00000     0.00000
 Structure written by MMmdl.
 38 40  0  0  0  0  0  0  0  0  1 V2000
  153.1145  144.7140  157.9544 C   0  0  0  0  0  0  0  0  0  0  0  0
  151.6219  144.5829  158.1868 C   0  0  2  0  0  0  0  0  0  0  0  0
  151.0100  144.9796  159.5102 C   0  0  0  0  0  0  0  0  0  0  0  0
  151.0332  143.5214  159.0958 C   0  0  2  0  0  0  0  0  0  0  0  0
  151.8991  142.5884  159.7561 N   0  0  0  0  0  0  0  0  0  0  0  0
  152.3678  141.3723  159.1055 C   0  0  0  0  0  0  0  0  0  0  0  0
  153.5621  140.8887  159.9467 C   0  0  2  0  0  0  0  0  0  0  0  0
  153.4911  139.4496  160.1851 N   0  0  0  0  0  0  0  0  0  0  0  0
  154.0728  138.8160  161.2127 C   0  0  0  0  0  0  0  0  0  0  0  0
  154.7372  139.3913  162.0743 O   0  0  0  0  0  0  0  0  0  0  0  0
  153.8132  137.4978  161.1822 N   0  0  0  0  0  0  0  0  0  0  0  0
  154.2515  136.4914  162.0845 C   0  0  0  0  0  0  0  0  0  0  0  0
  154.3679  136.6735  163.4840 C   0  0  0  0  0  0  0  0  0  0  0  0
  154.8335  135.6033  164.2720 C   0  0  0  0  0  0  0  0  0  0  0  0
  155.1719  134.3947  163.6331 C   0  0  0  0  0  0  0  0  0  0  0  0
  155.0786  134.2115  162.2991 N   0  0  0  0  0  0  0  0  0  0  0  0
  154.6326  135.2424  161.5498 C   0  0  0  0  0  0  0  0  0  0  0  0
  153.5013  141.7052  161.2470 C   0  0  0  0  0  0  0  0  0  0  0  0
  152.5171  142.8144  160.9207 C   0  0  0  0  0  0  0  0  0  0  0  0
  152.3490  143.7897  161.6514 O   0  0  0  0  0  0  0  0  0  0  0  0
  153.6732  144.5641  158.8780 H   0  0  0  0  0  0  0  0  0  0  0  0
  153.3458  145.7080  157.5715 H   0  0  0  0  0  0  0  0  0  0  0  0
  153.4444  143.9749  157.2241 H   0  0  0  0  0  0  0  0  0  0  0  0
  151.0317  144.8119  157.3018 H   0  0  0  0  0  0  0  0  0  0  0  0
  151.6884  145.3211  160.2889 H   0  0  0  0  0  0  0  0  0  0  0  0
  150.0502  145.4915  159.4816 H   0  0  0  0  0  0  0  0  0  0  0  0
  150.0715  143.1160  158.7850 H   0  0  0  0  0  0  0  0  0  0  0  0
  151.5586  140.6405  159.0952 H   0  0  0  0  0  0  0  0  0  0  0  0
  152.6632  141.5640  158.0731 H   0  0  0  0  0  0  0  0  0  0  0  0
  154.4854  141.1284  159.4152 H   0  0  0  0  0  0  0  0  0  0  0  0
  152.9583  138.9024  159.5249 H   0  0  0  0  0  0  0  0  0  0  0  0
  153.1789  137.1858  160.4613 H   0  0  0  0  0  0  0  0  0  0  0  0
  154.1258  137.6089  163.9641 H   0  0  0  0  0  0  0  0  0  0  0  0
  154.9336  135.7085  165.3422 H   0  0  0  0  0  0  0  0  0  0  0  0
  155.5329  133.5550  164.2084 H   0  0  0  0  0  0  0  0  0  0  0  0
  154.5733  135.0605  160.4864 H   0  0  0  0  0  0  0  0  0  0  0  0
  153.1139  141.1236  162.0846 H   0  0  0  0  0  0  0  0  0  0  0  0
  154.4768  142.1061  161.5243 H   0  0  0  0  0  0  0  0  0  0  0  0
  1  2  1  0  0  0  0
  1 21  1  0  0  0  0
  1 22  1  0  0  0  0
  1 23  1  0  0  0  0
  2  4  1  0  0  0  0
  2  3  1  0  0  0  0
  2 24  1  0  0  0  0
  3  4  1  0  0  0  0
  3 25  1  0  0  0  0
  3 26  1  0  0  0  0
  4  5  1  0  0  0  0
  4 27  1  0  0  0  0
  5 19  1  0  0  0  0
  5  6  1  0  0  0  0
  6  7  1  0  0  0  0
  6 28  1  0  0  0  0
  6 29  1  0  0  0  0
  7  8  1  0  0  0  0
  7 18  1  0  0  0  0
  7 30  1  0  0  0  0
  8  9  1  0  0  0  0
  8 31  1  0  0  0  0
  9 10  2  0  0  0  0
  9 11  1  0  0  0  0
 11 12  1  0  0  0  0
 11 32  1  0  0  0  0
 12 17  1  0  0  0  0
 12 13  2  0  0  0  0
 13 14  1  0  0  0  0
 13 33  1  0  0  0  0
 14 15  2  0  0  0  0
 14 34  1  0  0  0  0
 15 16  1  0  0  0  0
 15 35  1  0  0  0  0
 16 17  2  0  0  0  0
 17 36  1  0  0  0  0
 18 19  1  0  0  0  0
 18 37  1  0  0  0  0
 18 38  1  0  0  0  0
 19 20  2  0  0  0  0
M  END
> <s_m_source_file>
AV-unprocessed.smi

> <i_m_source_file_index>
3354

> <i_lp_mmshare_version>
43012

> <i_f3d_flags>
0

> <s_epik_input>
W0NIM11bQ0BASF0xW0NIMl1bQ0BIXTFOMltDSDJdW0NASF0oW0NIMl1DMj1PKVtOSF1DKD1PKVtOSF1jM1tjSF1bY0hdW2NIXW5bY0hdMw==

> <s_epik_cmdline>
J2VwaWtfcHl0aG9uJywgJy1waCcsICc3LjAnLCAnLXRuJywgJzgnLCAnLW1hJywgJzIwMCcsICctbWV0YWxfYmluZGluZycsICctaW1hZScsICc8aW5maWxlLm1hZT4nLCAnLW9tYWUnLCAnPG91dGZpbGUubWFlPic=

> <r_epik_Ionization_Penalty>
0.00456191

> <r_epik_Ionization_Penalty_Charging>
0

> <r_epik_Ionization_Penalty_Neutral>
0.00456191

> <r_epik_State_Penalty>
0.00327094

> <r_epik_Charging_Adjusted_Penalty>
0.00327094

> <i_epik_Tot_Q>
0

> <i_epik_Tot_abs_Q>
0

> <r_epik_Metal_State_Penalty>
-0

> <b_epik_Metal_Only>
0

> <s_lp_Force_Field>
OPLS_2005

> <r_lp_Energy>
41.6225

> <b_lp_Chiralities_Consistent>
1

> <s_lp_Variant>
AV-unprocessed.smi:3354-7

> <Gold.Version>
5.8.1

> <Gold.Id.Protein>
6NUR|6NUR_protein|mol2

> <Gold.PLP.Fitness>
40.9864

> <Gold.PLP.PLP>
-43.2534

> <Gold.PLP.part.hbond>
0.0000

> <Gold.PLP.part.metal>
0.0000

> <Gold.PLP.part.buried>
-6.9037

> <Gold.PLP.part.nonpolar>
-36.6307

> <Gold.PLP.part.repulsive>
0.2709

> <Gold.PLP.ligand.clash>
0.0000

> <Gold.PLP.ligand.torsion>
1.2366

> <Gold.PLP.Chemscore.Hbond>
0.0000

> <Gold.PLP.Chemscore.CHOScore>
0.0000

> <Gold.PLP.Chemscore.Metal>
0.0000

> <Gold.PLP.Chemscore.Internal.Correction>
0.2062

> <Gold.Rescore>
     Score         DG    S(hbond)    S(metal)    S(lipo)     H(rot)  DE(clash)    DE(int)     intcor
     11.02     -15.83       0.00        0.00     115.53       1.24       0.01       4.80       ----

> <Gold.Chemscore.Fitness>
11.0236

> <Gold.Chemscore.DG>
-15.8323

> <Gold.Chemscore.ZeroCoef>
-5.4800

> <Gold.Chemscore.Hbond>
0.0000

> <Gold.Chemscore.Metal>
0.0000

> <Gold.Chemscore.Lipo>
115.5266

> <Gold.Chemscore.Internal_Hbond>
0.0000

> <Gold.Chemscore.DEClash>
0.0075

> <Gold.Chemscore.DEInternal>
4.8012

> <Gold.Chemscore.Rot>
1.2361

> <Gold.Chemscore.Internal.Correction>
   9.000000E+99

> <Gold.Chemscore.Hbond.Weighted>
-0.0000

> <Gold.Chemscore.Metal.Weighted>
-0.0000

> <Gold.Chemscore.Lipo.Weighted>
-13.5166

> <Gold.Chemscore.Internal_Hbond.Weighted>
0.0000

> <Gold.Chemscore.DEClash.Weighted>
0.0075

> <Gold.Chemscore.DEInternal.Weighted>
4.8012

> <Gold.Chemscore.Rot.Weighted>
3.1643

> <Gold.Chemscore.Internal.Correction.Weighted>
   9.000000E+99

> <Gold.Protein.RotatedTorsions>
[ 6907 6896 6895 6894 ] final  -56.67 input  -60.11 | X-H torsion
[ 7974 7965 7964 7962 ] final  -75.33 input  175.53 | X-H torsion
[ 8008 7997 7996 7995 ] final  115.95 input   59.86 | X-H torsion
[ 10167 10162 10161 10158 ] final   26.63 input  -65.29 | X-H torsion
[ 10718 10713 10712 10709 ] final -176.28 input   66.30 | X-H torsion
[ 10763 10752 10751 10750 ] final   32.68 input  -60.55 | X-H torsion
[ 11005 11000 10999 10996 ] final  -65.80 input  -57.11 | X-H torsion

> <Gold.Protein.ActiveResidues>
 VAL166  LYS551  ARG553  GLY616  TRP617  ASP618  TYR619  PRO620  LYS621  CYS622 
 ASP623  PHE694  ASN695  SER759  ASP760  ASP761  ALA762  ILE779  LEU786  VAL792 
 PHE793  MET794  SER795  GLU796  ALA797  LYS798  CYS799  TRP800  GLU811  SER814 

> <Gold.Protein.RotatedAtoms>
  150.8148  134.7324  159.6720 H   0  0  0  0  0  0  0  0  0  0  0  0  # atno 6907 bound_to 6896
  152.4267  134.5851  159.9968 H   0  0  0  0  0  0  0  0  0  0  0  0  # atno 6908 bound_to 6896
  151.6051  133.3315  159.3091 H   0  0  0  0  0  0  0  0  0  0  0  0  # atno 6909 bound_to 6896
  145.6274  140.9347  143.1105 H   0  0  0  0  0  0  0  0  0  0  0  0  # atno 7974 bound_to 7965
  156.2411  140.2928  156.0448 H   0  0  0  0  0  0  0  0  0  0  0  0  # atno 8008 bound_to 7997
  155.1947  140.0408  157.2924 H   0  0  0  0  0  0  0  0  0  0  0  0  # atno 8009 bound_to 7997
  154.6170  140.2466  155.7603 H   0  0  0  0  0  0  0  0  0  0  0  0  # atno 8010 bound_to 7997
  140.5007  144.0320  150.6332 H   0  0  0  0  0  0  0  0  0  0  0  0  # atno 10167 bound_to 10162
  156.8123  130.9590  151.3115 H   0  0  0  0  0  0  0  0  0  0  0  0  # atno 10718 bound_to 10713
  153.0250  135.6407  154.1392 H   0  0  0  0  0  0  0  0  0  0  0  0  # atno 10763 bound_to 10752
  154.1122  135.2852  155.3229 H   0  0  0  0  0  0  0  0  0  0  0  0  # atno 10764 bound_to 10752
  154.6323  135.5488  153.7757 H   0  0  0  0  0  0  0  0  0  0  0  0  # atno 10765 bound_to 10752
  141.1464  133.6688  156.6041 H   0  0  0  0  0  0  0  0  0  0  0  0  # atno 11005 bound_to 11000
  144.7207  139.8040  143.7383 LP  0  0  0  0  0  0  0  0  0  0  0  0  # atno 17320 bound_to 7965
  146.1384  139.4434  143.0124 LP  0  0  0  0  0  0  0  0  0  0  0  0  # atno 17321 bound_to 7965
  140.3615  143.2905  152.0379 LP  0  0  0  0  0  0  0  0  0  0  0  0  # atno 17342 bound_to 10162
  139.4871  144.6299  151.7090 LP  0  0  0  0  0  0  0  0  0  0  0  0  # atno 17343 bound_to 10162
  157.6499  130.8876  149.9613 LP  0  0  0  0  0  0  0  0  0  0  0  0  # atno 17370 bound_to 10713
  156.1037  130.3654  150.0172 LP  0  0  0  0  0  0  0  0  0  0  0  0  # atno 17371 bound_to 10713
  140.3665  134.7642  157.4570 LP  0  0  0  0  0  0  0  0  0  0  0  0  # atno 17394 bound_to 11000
  140.0744  134.5818  155.8607 LP  0  0  0  0  0  0  0  0  0  0  0  0  # atno 17395 bound_to 11000

$$$$
