AV-unprocessed.smi:3237|AV-procd|sdf|12366|dock5
  -GOLD-   2272018223D 1   1.00000     0.00000
 Structure written by MMmdl.
 37 39  0  0  0  0  0  0  0  0  2 V2000
  151.7686  141.2713  157.9429 C   0  0  0  0  0  0  0  0  0  0  0  0
  151.3516  140.5081  156.7328 C   0  0  0  0  0  0  0  0  0  0  0  0
  150.1427  140.0442  156.2964 C   0  0  0  0  0  0  0  0  0  0  0  0
  150.4728  139.4008  155.0682 C   0  0  0  0  0  0  0  0  0  0  0  0
  149.5671  138.7480  154.1932 N   0  0  0  0  0  0  0  0  0  0  0  0
  148.2755  139.0380  153.9645 C   0  0  0  0  0  0  0  0  0  0  0  0
  147.6435  139.9524  154.4934 O   0  0  0  0  0  0  0  0  0  0  0  0
  147.7345  138.1865  153.0814 N   0  0  0  0  0  0  0  0  0  0  0  0
  146.3431  138.2167  152.6425 C   0  0  1  0  0  0  0  0  0  0  0  0
  145.9454  137.0125  151.7893 C   0  0  0  0  0  0  0  0  0  0  0  0
  144.4416  136.8282  152.0588 C   0  0  0  0  0  0  0  0  0  0  0  0
  144.0894  137.7322  153.1793 N   0  3  1  0  0  0  0  0  0  0  0  0
  143.1002  137.1737  154.1249 C   0  0  0  0  0  0  0  0  0  0  0  0
  142.1790  136.1517  153.5028 C   0  0  0  0  0  0  0  0  0  0  0  0
  141.6744  137.5476  153.7975 C   0  0  0  0  0  0  0  0  0  0  0  0
  145.3573  138.1401  153.8081 C   0  0  0  0  0  0  0  0  0  0  0  0
  151.7591  139.4787  154.7820 N   0  0  0  0  0  0  0  0  0  0  0  0
  152.3319  140.1821  155.8479 O   0  0  0  0  0  0  0  0  0  0  0  0
  150.9062  141.5293  158.5578 H   0  0  0  0  0  0  0  0  0  0  0  0
  152.2720  142.1965  157.6618 H   0  0  0  0  0  0  0  0  0  0  0  0
  152.4547  140.6832  158.5525 H   0  0  0  0  0  0  0  0  0  0  0  0
  149.1881  140.1579  156.7875 H   0  0  0  0  0  0  0  0  0  0  0  0
  149.9421  137.9476  153.7057 H   0  0  0  0  0  0  0  0  0  0  0  0
  148.3236  137.4648  152.6915 H   0  0  0  0  0  0  0  0  0  0  0  0
  146.1566  139.1284  152.0707 H   0  0  0  0  0  0  0  0  0  0  0  0
  146.1650  137.1646  150.7317 H   0  0  0  0  0  0  0  0  0  0  0  0
  146.4839  136.1208  152.1141 H   0  0  0  0  0  0  0  0  0  0  0  0
  143.8433  137.0902  151.1855 H   0  0  0  0  0  0  0  0  0  0  0  0
  144.2290  135.7868  152.3060 H   0  0  0  0  0  0  0  0  0  0  0  0
  143.4211  137.0711  155.1602 H   0  0  0  0  0  0  0  0  0  0  0  0
  142.3359  135.8839  152.4596 H   0  0  0  0  0  0  0  0  0  0  0  0
  141.8191  135.3466  154.1401 H   0  0  0  0  0  0  0  0  0  0  0  0
  140.9810  137.6605  154.6285 H   0  0  0  0  0  0  0  0  0  0  0  0
  141.4960  138.2070  152.9501 H   0  0  0  0  0  0  0  0  0  0  0  0
  145.6741  137.3827  154.5281 H   0  0  0  0  0  0  0  0  0  0  0  0
  145.2529  139.0890  154.3355 H   0  0  0  0  0  0  0  0  0  0  0  0
  143.6911  138.5638  152.7665 H   0  0  0  0  0  0  0  0  0  0  0  0
  1  2  1  0  0  0  0
  1 19  1  0  0  0  0
  1 20  1  0  0  0  0
  1 21  1  0  0  0  0
  2 18  1  0  0  0  0
  2  3  2  0  0  0  0
  3  4  1  0  0  0  0
  3 22  1  0  0  0  0
  4  5  1  0  0  0  0
  4 17  2  0  0  0  0
  5  6  1  0  0  0  0
  5 23  1  0  0  0  0
  6  7  2  0  0  0  0
  6  8  1  0  0  0  0
  8  9  1  0  0  0  0
  8 24  1  0  0  0  0
  9 16  1  0  0  0  0
  9 10  1  0  0  0  0
  9 25  1  0  0  0  0
 10 11  1  0  0  0  0
 10 26  1  0  0  0  0
 10 27  1  0  0  0  0
 11 12  1  0  0  0  0
 11 28  1  0  0  0  0
 11 29  1  0  0  0  0
 12 13  1  0  0  0  0
 12 16  1  0  0  0  0
 12 37  1  0  0  0  0
 13 15  1  0  0  0  0
 13 14  1  0  0  0  0
 13 30  1  0  0  0  0
 14 15  1  0  0  0  0
 14 31  1  0  0  0  0
 14 32  1  0  0  0  0
 15 33  1  0  0  0  0
 15 34  1  0  0  0  0
 16 35  1  0  0  0  0
 16 36  1  0  0  0  0
 17 18  1  0  0  0  0
M  CHG  1  12   1
M  END
> <s_m_source_file>
AV-unprocessed.smi

> <i_m_source_file_index>
3237

> <i_lp_mmshare_version>
43012

> <i_f3d_flags>
0

> <s_epik_input>
W0NIM11jMVtjSF1jKG5vMSlbTkhdQyg9TylbTkhdW0NAQEhdMltDSDJdW0NIMl1OKFtDSDJdMilbQ0hdM1tDSDJdW0NIMl0z

> <s_epik_cmdline>
J2VwaWtfcHl0aG9uJywgJy1waCcsICc3LjAnLCAnLXRuJywgJzgnLCAnLW1hJywgJzIwMCcsICctbWV0YWxfYmluZGluZycsICctaW1hZScsICc8aW5maWxlLm1hZT4nLCAnLW9tYWUnLCAnPG91dGZpbGUubWFlPic=

> <r_epik_Ionization_Penalty>
0.000720579

> <r_epik_Ionization_Penalty_Charging>
0.000680516

> <r_epik_Ionization_Penalty_Neutral>
4.00628e-05

> <r_epik_State_Penalty>
0.000432256

> <r_epik_Charging_Adjusted_Penalty>
0.00111277

> <i_epik_Tot_Q>
1

> <i_epik_Tot_abs_Q>
1

> <r_epik_Metal_State_Penalty>
0.0255091

> <b_epik_Metal_Only>
0

> <s_lp_Force_Field>
OPLS_2005

> <r_lp_Energy>
35.1178

> <b_lp_Chiralities_Consistent>
1

> <s_lp_Variant>
AV-unprocessed.smi:3237-4

> <Gold.Version>
5.8.1

> <Gold.Id.Protein>
6NUR|6NUR_protein|mol2

> <Gold.PLP.Fitness>
36.4244

> <Gold.PLP.PLP>
-22.5627

> <Gold.PLP.part.hbond>
-5.1033

> <Gold.PLP.part.metal>
0.0000

> <Gold.PLP.part.buried>
0.4881

> <Gold.PLP.part.nonpolar>
-19.0686

> <Gold.PLP.part.repulsive>
0.2641

> <Gold.PLP.ligand.clash>
0.0000

> <Gold.PLP.ligand.torsion>
1.1256

> <Gold.PLP.Chemscore.Hbond>
4.9500

> <Gold.PLP.Chemscore.CHOScore>
0.0000

> <Gold.PLP.Chemscore.Metal>
0.0000

> <Gold.Chemscore.Hbonds>
donor molecule, donor type, donor heavy atom, donor atom, acceptor molecule, acceptor atom, score
      L1  H     8    24       P1  7948  1.00
      L1  H    12    37       P1 10175  2.00
      P1  H  7989  7998       L1    17  0.90
      P1  H  7997  8010       L1    18  0.96

> <Gold.PLP.Chemscore.Internal.Correction>
1.2630

> <Gold.Rescore>
     Score         DG    S(hbond)    S(metal)    S(lipo)     H(rot)  DE(clash)    DE(int)     intcor
     14.52     -17.55       3.02        0.00      44.48       1.26       0.07       2.95       ----

> <Gold.Chemscore.Fitness>
14.5213

> <Gold.Chemscore.DG>
-17.5467

> <Gold.Chemscore.ZeroCoef>
-5.4800

> <Gold.Chemscore.Hbond>
3.0197

> <Gold.Chemscore.Metal>
0.0000

> <Gold.Chemscore.Lipo>
44.4833

> <Gold.Chemscore.Internal_Hbond>
0.0000

> <Gold.Chemscore.DEClash>
0.0733

> <Gold.Chemscore.DEInternal>
2.9522

> <Gold.Chemscore.Rot>
1.2593

> <Gold.Chemscore.Internal.Correction>
   9.000000E+99

> <Gold.Chemscore.Hbonds>
donor molecule, donor type, donor heavy atom, donor atom, acceptor molecule, acceptor atom, score
      L1  H     8    24       P1  7948  0.99
      L1  H    12    37       P1 10175  0.97
      P1  H  7989  7998       L1    17  0.04
      P1  H  7997  8010       L1    18  0.89

> <Gold.Chemscore.Hbond.Weighted>
-10.0859

> <Gold.Chemscore.Metal.Weighted>
-0.0000

> <Gold.Chemscore.Lipo.Weighted>
-5.2045

> <Gold.Chemscore.Internal_Hbond.Weighted>
0.0000

> <Gold.Chemscore.DEClash.Weighted>
0.0733

> <Gold.Chemscore.DEInternal.Weighted>
2.9522

> <Gold.Chemscore.Rot.Weighted>
3.2237

> <Gold.Chemscore.Internal.Correction.Weighted>
   9.000000E+99

> <Gold.Protein.RotatedTorsions>
[ 6907 6896 6895 6894 ] final -177.63 input  -60.11 | X-H torsion
[ 7974 7965 7964 7962 ] final   49.90 input  175.53 | X-H torsion
[ 8008 7997 7996 7995 ] final   89.58 input   59.86 | X-H torsion
[ 10167 10162 10161 10158 ] final  115.51 input  -65.29 | X-H torsion
[ 10718 10713 10712 10709 ] final  135.88 input   66.30 | X-H torsion
[ 10763 10752 10751 10750 ] final   -9.40 input  -60.55 | X-H torsion
[ 11005 11000 10999 10996 ] final   84.23 input  -57.11 | X-H torsion

> <Gold.Protein.ActiveResidues>
 VAL166  LYS551  ARG553  GLY616  TRP617  ASP618  TYR619  PRO620  LYS621  CYS622 
 ASP623  PHE694  ASN695  SER759  ASP760  ASP761  ALA762  ILE779  LEU786  VAL792 
 PHE793  MET794  SER795  GLU796  ALA797  LYS798  CYS799  TRP800  GLU811  SER814 

> <Gold.Protein.RotatedAtoms>
  151.6241  133.3337  159.3094 H   0  0  0  0  0  0  0  0  0  0  0  0  # atno 6907 bound_to 6896
  150.8090  134.7237  159.6682 H   0  0  0  0  0  0  0  0  0  0  0  0  # atno 6908 bound_to 6896
  152.4187  134.6000  160.0049 H   0  0  0  0  0  0  0  0  0  0  0  0  # atno 6909 bound_to 6896
  146.0064  139.4494  142.9983 H   0  0  0  0  0  0  0  0  0  0  0  0  # atno 7974 bound_to 7965
  156.0017  140.3359  155.6852 H   0  0  0  0  0  0  0  0  0  0  0  0  # atno 8008 bound_to 7997
  155.6281  140.0682  157.2675 H   0  0  0  0  0  0  0  0  0  0  0  0  # atno 8009 bound_to 7997
  154.4251  140.1764  156.1431 H   0  0  0  0  0  0  0  0  0  0  0  0  # atno 8010 bound_to 7997
  139.6312  144.7115  151.2429 H   0  0  0  0  0  0  0  0  0  0  0  0  # atno 10167 bound_to 10162
  157.4524  131.1067  151.0017 H   0  0  0  0  0  0  0  0  0  0  0  0  # atno 10718 bound_to 10713
  153.4542  135.7015  153.6090 H   0  0  0  0  0  0  0  0  0  0  0  0  # atno 10763 bound_to 10752
  153.4412  135.3780  155.2229 H   0  0  0  0  0  0  0  0  0  0  0  0  # atno 10764 bound_to 10752
  154.8728  135.3974  154.3959 H   0  0  0  0  0  0  0  0  0  0  0  0  # atno 10765 bound_to 10752
  139.9006  134.8202  156.2417 H   0  0  0  0  0  0  0  0  0  0  0  0  # atno 11005 bound_to 11000
  145.7410  141.0008  143.1301 LP  0  0  0  0  0  0  0  0  0  0  0  0  # atno 17320 bound_to 7965
  144.6937  139.9099  143.7463 LP  0  0  0  0  0  0  0  0  0  0  0  0  # atno 17321 bound_to 7965
  140.7440  143.6477  150.8276 LP  0  0  0  0  0  0  0  0  0  0  0  0  # atno 17342 bound_to 10162
  140.0102  143.5650  152.2842 LP  0  0  0  0  0  0  0  0  0  0  0  0  # atno 17343 bound_to 10162
  157.0843  130.5916  149.5426 LP  0  0  0  0  0  0  0  0  0  0  0  0  # atno 17370 bound_to 10713
  155.9993  130.5068  150.7601 LP  0  0  0  0  0  0  0  0  0  0  0  0  # atno 17371 bound_to 10713
  141.0280  133.7004  156.1381 LP  0  0  0  0  0  0  0  0  0  0  0  0  # atno 17394 bound_to 11000
  140.7137  134.4433  157.5580 LP  0  0  0  0  0  0  0  0  0  0  0  0  # atno 17395 bound_to 11000

$$$$
