AV-unprocessed.smi:114|AV-procd|sdf|1114|dock4
  -GOLD-   2262018233D 1   1.00000     0.00000
 Structure written by MMmdl.
 32 34  0  0  0  0  0  0  0  0  1 V2000
  149.5259  129.6921  154.1693 N   0  0  0  0  0  0  0  0  0  0  0  0
  148.6459  130.6837  153.9717 C   0  0  0  0  0  0  0  0  0  0  0  0
  148.8288  131.8490  154.6351 N   0  0  0  0  0  0  0  0  0  0  0  0
  147.9722  132.8640  154.4674 C   0  0  0  0  0  0  0  0  0  0  0  0
  148.2302  133.9920  155.1697 F   0  0  0  0  0  0  0  0  0  0  0  0
  146.8901  132.8900  153.6824 N   0  0  0  0  0  0  0  0  0  0  0  0
  146.7024  131.7175  153.0103 C   0  0  0  0  0  0  0  0  0  0  0  0
  147.5338  130.5693  153.1021 C   0  0  0  0  0  0  0  0  0  0  0  0
  147.0416  129.5613  152.2842 N   0  0  0  0  0  0  0  0  0  0  0  0
  145.9767  130.0892  151.7419 C   0  0  0  0  0  0  0  0  0  0  0  0
  145.7012  131.3852  152.1199 N   0  0  0  0  0  0  0  0  0  0  0  0
  144.5614  132.2429  151.6742 C   0  0  1  0  0  0  0  0  0  0  0  0
  144.8981  133.5715  151.9286 O   0  0  0  0  0  0  0  0  0  0  0  0
  144.4914  134.3876  150.8368 C   0  0  1  0  0  0  0  0  0  0  0  0
  145.3382  135.6688  150.8050 C   0  0  0  0  0  0  0  0  0  0  0  0
  145.1291  136.3581  149.5908 O   0  0  0  0  0  0  0  0  0  0  0  0
  144.7235  133.4710  149.6342 C   0  0  2  0  0  0  0  0  0  0  0  0
  143.9937  133.8734  148.4897 O   0  0  0  0  0  0  0  0  0  0  0  0
  144.3171  132.0962  150.1627 C   0  0  2  0  0  0  0  0  0  0  0  0
  142.9575  131.8006  149.8985 O   0  0  0  0  0  0  0  0  0  0  0  0
  143.7169  131.9299  152.2901 H   0  0  0  0  0  0  0  0  0  0  0  0
  143.4269  134.6130  150.9293 H   0  0  0  0  0  0  0  0  0  0  0  0
  145.7836  133.4596  149.3808 H   0  0  0  0  0  0  0  0  0  0  0  0
  144.9347  131.3033  149.7381 H   0  0  0  0  0  0  0  0  0  0  0  0
  149.4100  128.8130  153.6856 H   0  0  0  0  0  0  0  0  0  0  0  0
  150.3011  129.8243  154.8028 H   0  0  0  0  0  0  0  0  0  0  0  0
  145.3597  129.5430  151.0431 H   0  0  0  0  0  0  0  0  0  0  0  0
  145.1135  136.3147  151.6546 H   0  0  0  0  0  0  0  0  0  0  0  0
  146.3982  135.4198  150.8601 H   0  0  0  0  0  0  0  0  0  0  0  0
  144.5754  137.1047  149.7611 H   0  0  0  0  0  0  0  0  0  0  0  0
  144.5977  134.2455  147.8653 H   0  0  0  0  0  0  0  0  0  0  0  0
  142.4376  132.1168  150.6217 H   0  0  0  0  0  0  0  0  0  0  0  0
  1  2  1  0  0  0  0
  1 25  1  0  0  0  0
  1 26  1  0  0  0  0
  2  8  1  0  0  0  0
  2  3  2  0  0  0  0
  3  4  1  0  0  0  0
  4  5  1  0  0  0  0
  4  6  2  0  0  0  0
  6  7  1  0  0  0  0
  7 11  1  0  0  0  0
  7  8  2  0  0  0  0
  8  9  1  0  0  0  0
  9 10  2  0  0  0  0
 10 11  1  0  0  0  0
 10 27  1  0  0  0  0
 11 12  1  0  0  0  0
 12 21  1  0  0  0  0
 12 19  1  0  0  0  0
 12 13  1  0  0  0  0
 13 14  1  0  0  0  0
 14 22  1  0  0  0  0
 14 15  1  0  0  0  0
 14 17  1  0  0  0  0
 15 16  1  0  0  0  0
 15 28  1  0  0  0  0
 15 29  1  0  0  0  0
 16 30  1  0  0  0  0
 17 23  1  0  0  0  0
 17 18  1  0  0  0  0
 17 19  1  0  0  0  0
 18 31  1  0  0  0  0
 19 24  1  0  0  0  0
 19 20  1  0  0  0  0
 20 32  1  0  0  0  0
M  END
> <s_m_source_file>
AV-unprocessed.smi

> <i_m_source_file_index>
114

> <i_lp_mmshare_version>
43012

> <i_f3d_flags>
0

> <s_epik_input>
RmMobjEpbmMoW05IMl0pYyhjMTIpbltjSF1uMltDQEBIXTNPW0NASF0oW0NIMl1bT0hdKVtDQEBIXShbT0hdKVtDQEBIXTNbT0hd

> <s_epik_cmdline>
J2VwaWtfcHl0aG9uJywgJy1waCcsICc3LjAnLCAnLXRuJywgJzgnLCAnLW1hJywgJzIwMCcsICctbWV0YWxfYmluZGluZycsICctaW1hZScsICc8aW5maWxlLm1hZT4nLCAnLW9tYWUnLCAnPG91dGZpbGUubWFlPic=

> <r_lp_tautomer_probability>
1

> <r_epik_Ionization_Penalty>
1.13199e-05

> <r_epik_Ionization_Penalty_Charging>
0

> <r_epik_Ionization_Penalty_Neutral>
1.13199e-05

> <r_epik_State_Penalty>
-0

> <r_epik_Charging_Adjusted_Penalty>
0

> <i_epik_Tot_Q>
0

> <i_epik_Tot_abs_Q>
0

> <r_epik_Metal_State_Penalty>
-0

> <b_epik_Metal_Only>
0

> <s_epik_Chemistry_Notes>
This compound contains an acetal/aminal-like group ( X-CH(R)-Y where X, Y are N, S, or O) that may be acid/base labile, releasing an aldehyde.

> <s_lp_Force_Field>
OPLS_2005

> <r_lp_Energy>
39.1669

> <b_lp_Chiralities_Consistent>
1

> <s_lp_Variant>
AV-unprocessed.smi:114-8

> <Gold.Version>
5.8.1

> <Gold.Id.Protein>
6NUR|6NUR_protein|mol2

> <Gold.PLP.Fitness>
40.2882

> <Gold.PLP.PLP>
-32.6018

> <Gold.PLP.part.hbond>
-5.4117

> <Gold.PLP.part.metal>
0.0000

> <Gold.PLP.part.buried>
-5.2633

> <Gold.PLP.part.nonpolar>
-22.7873

> <Gold.PLP.part.repulsive>
0.8277

> <Gold.PLP.ligand.clash>
0.0000

> <Gold.PLP.ligand.torsion>
0.5662

> <Gold.PLP.Chemscore.Hbond>
2.9353

> <Gold.PLP.Chemscore.CHOScore>
0.0000

> <Gold.PLP.Chemscore.Metal>
0.0000

> <Gold.Chemscore.Hbonds>
donor molecule, donor type, donor heavy atom, donor atom, acceptor molecule, acceptor atom, score
      L1  H    16    30       P1 10171  1.00
      L1  H    18    31       P1  7921  0.94
      P1  H 10785 10796       L1    20  0.99

> <Gold.PLP.Chemscore.Internal.Correction>
0.0130

> <Gold.Rescore>
     Score         DG    S(hbond)    S(metal)    S(lipo)     H(rot)  DE(clash)    DE(int)     intcor
      5.51      -7.96       2.55        0.00      36.48       4.03       0.29       2.16       ----

> <Gold.Chemscore.Fitness>
5.5106

> <Gold.Chemscore.DG>
-7.9619

> <Gold.Chemscore.ZeroCoef>
-5.4800

> <Gold.Chemscore.Hbond>
2.5523

> <Gold.Chemscore.Metal>
0.0000

> <Gold.Chemscore.Lipo>
36.4793

> <Gold.Chemscore.Internal_Hbond>
0.0000

> <Gold.Chemscore.DEClash>
0.2944

> <Gold.Chemscore.DEInternal>
2.1570

> <Gold.Chemscore.Rot>
4.0277

> <Gold.Chemscore.Internal.Correction>
   9.000000E+99

> <Gold.Chemscore.Hbonds>
donor molecule, donor type, donor heavy atom, donor atom, acceptor molecule, acceptor atom, score
      L1  H    16    30       P1 10171  0.99
      L1  H    18    31       P1  7921  0.90
      P1  H 10785 10796       L1    20  0.24

> <Gold.Chemscore.Hbond.Weighted>
-8.5248

> <Gold.Chemscore.Metal.Weighted>
-0.0000

> <Gold.Chemscore.Lipo.Weighted>
-4.2681

> <Gold.Chemscore.Internal_Hbond.Weighted>
0.0000

> <Gold.Chemscore.DEClash.Weighted>
0.2944

> <Gold.Chemscore.DEInternal.Weighted>
2.1570

> <Gold.Chemscore.Rot.Weighted>
10.3110

> <Gold.Chemscore.Internal.Correction.Weighted>
   9.000000E+99

> <Gold.Protein.RotatedTorsions>
[ 6907 6896 6895 6894 ] final  -14.09 input  -60.11 | X-H torsion
[ 7974 7965 7964 7962 ] final -105.29 input  175.53 | X-H torsion
[ 8008 7997 7996 7995 ] final  -17.07 input   59.86 | X-H torsion
[ 10167 10162 10161 10158 ] final   -2.05 input  -65.29 | X-H torsion
[ 10718 10713 10712 10709 ] final  136.88 input   66.30 | X-H torsion
[ 10763 10752 10751 10750 ] final  -46.34 input  -60.55 | X-H torsion
[ 11005 11000 10999 10996 ] final  -21.68 input  -57.11 | X-H torsion

> <Gold.Protein.ActiveResidues>
 VAL166  LYS551  ARG553  GLY616  TRP617  ASP618  TYR619  PRO620  LYS621  CYS622 
 ASP623  PHE694  ASN695  SER759  ASP760  ASP761  ALA762  ILE779  LEU786  VAL792 
 PHE793  MET794  SER795  GLU796  ALA797  LYS798  CYS799  TRP800  GLU811  SER814 

> <Gold.Protein.RotatedAtoms>
  151.3448  135.0871  159.9383 H   0  0  0  0  0  0  0  0  0  0  0  0  # atno 6907 bound_to 6896
  152.5202  133.9411  159.7637 H   0  0  0  0  0  0  0  0  0  0  0  0  # atno 6908 bound_to 6896
  150.9775  133.6227  159.2757 H   0  0  0  0  0  0  0  0  0  0  0  0  # atno 6909 bound_to 6896
  145.2323  140.9175  143.3197 H   0  0  0  0  0  0  0  0  0  0  0  0  # atno 7974 bound_to 7965
  154.5005  140.2152  155.9356 H   0  0  0  0  0  0  0  0  0  0  0  0  # atno 8008 bound_to 7997
  156.1427  140.3176  155.8489 H   0  0  0  0  0  0  0  0  0  0  0  0  # atno 8009 bound_to 7997
  155.4089  140.0489  157.3023 H   0  0  0  0  0  0  0  0  0  0  0  0  # atno 8010 bound_to 7997
  140.6835  143.6702  150.8191 H   0  0  0  0  0  0  0  0  0  0  0  0  # atno 10167 bound_to 10162
  157.4420  131.1058  151.0133 H   0  0  0  0  0  0  0  0  0  0  0  0  # atno 10718 bound_to 10713
  154.0434  135.6641  153.4792 H   0  0  0  0  0  0  0  0  0  0  0  0  # atno 10763 bound_to 10752
  153.0492  135.5095  154.7820 H   0  0  0  0  0  0  0  0  0  0  0  0  # atno 10764 bound_to 10752
  154.6803  135.3044  154.9588 H   0  0  0  0  0  0  0  0  0  0  0  0  # atno 10765 bound_to 10752
  140.8584  133.7806  156.0046 H   0  0  0  0  0  0  0  0  0  0  0  0  # atno 11005 bound_to 11000
  144.9665  139.3925  143.6330 LP  0  0  0  0  0  0  0  0  0  0  0  0  # atno 17320 bound_to 7965
  146.3350  139.8742  142.8835 LP  0  0  0  0  0  0  0  0  0  0  0  0  # atno 17321 bound_to 7965
  140.0406  143.5350  152.2719 LP  0  0  0  0  0  0  0  0  0  0  0  0  # atno 17342 bound_to 10162
  139.6176  144.7622  151.2812 LP  0  0  0  0  0  0  0  0  0  0  0  0  # atno 17343 bound_to 10162
  157.0992  130.5975  149.5456 LP  0  0  0  0  0  0  0  0  0  0  0  0  # atno 17370 bound_to 10713
  155.9952  130.5018  150.7451 LP  0  0  0  0  0  0  0  0  0  0  0  0  # atno 17371 bound_to 10713
  140.8711  134.2725  157.5190 LP  0  0  0  0  0  0  0  0  0  0  0  0  # atno 17394 bound_to 11000
  139.8706  134.9567  156.4247 LP  0  0  0  0  0  0  0  0  0  0  0  0  # atno 17395 bound_to 11000

$$$$
