AV-unprocessed.smi:271|AV-procd|sdf|2050|dock6
  -GOLD-   2262021283D 1   1.00000     0.00000
 Structure written by MMmdl.
 58 60  0  0  0  0  0  0  0  0  1 V2000
  152.9137  142.2004  160.2909 C   0  0  0  0  0  0  0  0  0  0  0  0
  152.5818  142.5152  158.8241 C   0  0  0  0  0  0  0  0  0  0  0  0
  152.2453  144.0070  158.6590 C   0  0  0  0  0  0  0  0  0  0  0  0
  151.4509  141.6013  158.3127 C   0  0  0  0  0  0  0  0  0  0  0  0
  151.8336  140.1068  158.2720 C   0  0  0  0  0  0  0  0  0  0  0  0
  151.1293  139.3486  157.2379 N   0  0  0  0  0  0  0  0  0  0  0  0
  151.2359  139.9029  155.8900 C   0  0  0  0  0  0  0  0  0  0  0  0
  151.6401  138.8622  154.8334 C   0  0  0  0  0  0  0  0  0  0  0  0
  153.0953  138.6617  154.7746 C   0  0  0  0  0  0  0  0  0  0  0  0
  154.2404  138.5038  154.7288 N   0  0  0  0  0  0  0  0  0  0  0  0
  149.8602  139.0210  157.5717 C   0  0  0  0  0  0  0  0  0  0  0  0
  148.8629  139.6442  156.8972 N   0  0  0  0  0  0  0  0  0  0  0  0
  147.5883  139.3573  157.1773 C   0  0  0  0  0  0  0  0  0  0  0  0
  147.1045  138.4956  158.0743 N   0  0  0  0  0  0  0  0  0  0  0  0
  148.1063  137.8660  158.7533 C   0  0  0  0  0  0  0  0  0  0  0  0
  149.5023  138.0723  158.5708 C   0  0  0  0  0  0  0  0  0  0  0  0
  150.2195  137.2672  159.4463 N   0  0  0  0  0  0  0  0  0  0  0  0
  149.2995  136.6197  160.1073 C   0  0  0  0  0  0  0  0  0  0  0  0
  148.0014  136.9034  159.7438 N   0  0  0  0  0  0  0  0  0  0  0  0
  146.7877  136.3277  160.3066 C   0  0  0  0  0  0  0  0  0  0  0  0
  146.7466  136.3087  161.8600 C   0  0  1  0  0  0  0  0  0  0  0  0
  145.5690  137.1399  162.4221 C   0  0  0  0  0  0  0  0  0  0  0  0
  145.6766  138.4922  162.0299 O   0  0  0  0  0  0  0  0  0  0  0  0
  146.7476  134.8678  162.4358 C   0  0  2  0  0  0  0  0  0  0  0  0
  147.7343  133.9144  161.7814 C   0  0  0  0  0  0  0  0  0  0  0  0
  147.1845  132.5438  162.1669 C   0  0  0  0  0  0  0  0  0  0  0  0
  145.7822  132.7171  162.3391 O   0  0  0  0  0  0  0  0  0  0  0  0
  145.4457  134.0928  162.2060 C   0  0  0  0  0  0  0  0  0  0  0  0
  152.0549  142.3793  160.9386 H   0  0  0  0  0  0  0  0  0  0  0  0
  153.7363  142.8195  160.6507 H   0  0  0  0  0  0  0  0  0  0  0  0
  153.2114  141.1586  160.4134 H   0  0  0  0  0  0  0  0  0  0  0  0
  153.4777  142.3064  158.2379 H   0  0  0  0  0  0  0  0  0  0  0  0
  151.3337  144.2697  159.1968 H   0  0  0  0  0  0  0  0  0  0  0  0
  152.1043  144.2756  157.6124 H   0  0  0  0  0  0  0  0  0  0  0  0
  153.0497  144.6342  159.0446 H   0  0  0  0  0  0  0  0  0  0  0  0
  150.5813  141.7134  158.9618 H   0  0  0  0  0  0  0  0  0  0  0  0
  151.1383  141.9444  157.3256 H   0  0  0  0  0  0  0  0  0  0  0  0
  152.9081  139.9908  158.1328 H   0  0  0  0  0  0  0  0  0  0  0  0
  151.6022  139.6584  159.2389 H   0  0  0  0  0  0  0  0  0  0  0  0
  150.2921  140.3719  155.6086 H   0  0  0  0  0  0  0  0  0  0  0  0
  151.9816  140.6986  155.9030 H   0  0  0  0  0  0  0  0  0  0  0  0
  151.1799  137.8984  155.0519 H   0  0  0  0  0  0  0  0  0  0  0  0
  151.3137  139.1621  153.8373 H   0  0  0  0  0  0  0  0  0  0  0  0
  146.8504  139.8933  156.5986 H   0  0  0  0  0  0  0  0  0  0  0  0
  149.5494  135.9077  160.8794 H   0  0  0  0  0  0  0  0  0  0  0  0
  145.9341  136.8751  159.9068 H   0  0  0  0  0  0  0  0  0  0  0  0
  146.6831  135.3133  159.9201 H   0  0  0  0  0  0  0  0  0  0  0  0
  147.6657  136.7864  162.2033 H   0  0  0  0  0  0  0  0  0  0  0  0
  144.6078  136.7388  162.1001 H   0  0  0  0  0  0  0  0  0  0  0  0
  145.5643  137.1280  163.5113 H   0  0  0  0  0  0  0  0  0  0  0  0
  145.3644  139.0366  162.7363 H   0  0  0  0  0  0  0  0  0  0  0  0
  146.9627  134.8934  163.5050 H   0  0  0  0  0  0  0  0  0  0  0  0
  147.7136  134.0311  160.6968 H   0  0  0  0  0  0  0  0  0  0  0  0
  148.7614  134.0542  162.1193 H   0  0  0  0  0  0  0  0  0  0  0  0
  147.4019  131.7861  161.4138 H   0  0  0  0  0  0  0  0  0  0  0  0
  147.6110  132.2123  163.1142 H   0  0  0  0  0  0  0  0  0  0  0  0
  144.6547  134.3671  162.9029 H   0  0  0  0  0  0  0  0  0  0  0  0
  145.0725  134.2587  161.1943 H   0  0  0  0  0  0  0  0  0  0  0  0
  1  2  1  0  0  0  0
  1 29  1  0  0  0  0
  1 30  1  0  0  0  0
  1 31  1  0  0  0  0
  2  3  1  0  0  0  0
  2  4  1  0  0  0  0
  2 32  1  0  0  0  0
  3 33  1  0  0  0  0
  3 34  1  0  0  0  0
  3 35  1  0  0  0  0
  4  5  1  0  0  0  0
  4 36  1  0  0  0  0
  4 37  1  0  0  0  0
  5  6  1  0  0  0  0
  5 38  1  0  0  0  0
  5 39  1  0  0  0  0
  6  7  1  0  0  0  0
  6 11  1  0  0  0  0
  7  8  1  0  0  0  0
  7 40  1  0  0  0  0
  7 41  1  0  0  0  0
  8  9  1  0  0  0  0
  8 42  1  0  0  0  0
  8 43  1  0  0  0  0
  9 10  3  0  0  0  0
 11 16  1  0  0  0  0
 11 12  2  0  0  0  0
 12 13  1  0  0  0  0
 13 14  2  0  0  0  0
 13 44  1  0  0  0  0
 14 15  1  0  0  0  0
 15 19  1  0  0  0  0
 15 16  2  0  0  0  0
 16 17  1  0  0  0  0
 17 18  2  0  0  0  0
 18 19  1  0  0  0  0
 18 45  1  0  0  0  0
 19 20  1  0  0  0  0
 20 21  1  0  0  0  0
 20 46  1  0  0  0  0
 20 47  1  0  0  0  0
 21 22  1  0  0  0  0
 21 24  1  0  0  0  0
 21 48  1  0  0  0  0
 22 23  1  0  0  0  0
 22 49  1  0  0  0  0
 22 50  1  0  0  0  0
 23 51  1  0  0  0  0
 24 28  1  0  0  0  0
 24 25  1  0  0  0  0
 24 52  1  0  0  0  0
 25 26  1  0  0  0  0
 25 53  1  0  0  0  0
 25 54  1  0  0  0  0
 26 27  1  0  0  0  0
 26 55  1  0  0  0  0
 26 56  1  0  0  0  0
 27 28  1  0  0  0  0
 28 57  1  0  0  0  0
 28 58  1  0  0  0  0
M  END
> <s_m_source_file>
AV-unprocessed.smi

> <i_m_source_file_index>
271

> <i_lp_mmshare_version>
43012

> <i_f3d_flags>
0

> <s_epik_input>
W0NIM11bQ0hdKFtDSDNdKVtDSDJdW0NIMl1OKFtDSDJdW0NIMl1DI04pYyhuW2NIXW4xKWMoYzEyKW5bY0hdbjJbQ0gyXVtDQEhdKFtDSDJdW09IXSlbQ0BASF0zW0NIMl1bQ0gyXU9bQ0gyXTM=

> <s_epik_cmdline>
J2VwaWtfcHl0aG9uJywgJy1waCcsICc3LjAnLCAnLXRuJywgJzgnLCAnLW1hJywgJzIwMCcsICctbWV0YWxfYmluZGluZycsICctaW1hZScsICc8aW5maWxlLm1hZT4nLCAnLW9tYWUnLCAnPG91dGZpbGUubWFlPic=

> <r_lp_tautomer_probability>
1

> <r_epik_Ionization_Penalty>
0.000825874

> <r_epik_Ionization_Penalty_Charging>
0

> <r_epik_Ionization_Penalty_Neutral>
0.000825874

> <r_epik_State_Penalty>
0.000396768

> <r_epik_Charging_Adjusted_Penalty>
0.000396768

> <i_epik_Tot_Q>
0

> <i_epik_Tot_abs_Q>
0

> <r_epik_Metal_State_Penalty>
-0

> <b_epik_Metal_Only>
0

> <s_lp_Force_Field>
OPLS_2005

> <r_lp_Energy>
35.3128

> <b_lp_Chiralities_Consistent>
1

> <s_lp_Variant>
AV-unprocessed.smi:271-2

> <Gold.Version>
5.8.1

> <Gold.Id.Protein>
6NUR|6NUR_protein|mol2

> <Gold.PLP.Fitness>
50.4703

> <Gold.PLP.PLP>
-51.1363

> <Gold.PLP.part.hbond>
-2.4098

> <Gold.PLP.part.metal>
0.0000

> <Gold.PLP.part.buried>
-6.5602

> <Gold.PLP.part.nonpolar>
-42.8470

> <Gold.PLP.part.repulsive>
0.0696

> <Gold.PLP.ligand.clash>
0.0000

> <Gold.PLP.ligand.torsion>
2.4251

> <Gold.PLP.Chemscore.Hbond>
1.1040

> <Gold.PLP.Chemscore.CHOScore>
0.0000

> <Gold.PLP.Chemscore.Metal>
0.0000

> <Gold.Chemscore.Hbonds>
donor molecule, donor type, donor heavy atom, donor atom, acceptor molecule, acceptor atom, score
      P1  H  6934  6947       L1    23  0.35
      P1  H  7997  8010       L1    10  0.66

> <Gold.PLP.Chemscore.Internal.Correction>
0.8722

> <Gold.Rescore>
     Score         DG    S(hbond)    S(metal)    S(lipo)     H(rot)  DE(clash)    DE(int)     intcor
     10.49     -13.38       1.24        0.00     114.49       3.77       0.20       2.69       ----

> <Gold.Chemscore.Fitness>
10.4912

> <Gold.Chemscore.DG>
-13.3824

> <Gold.Chemscore.ZeroCoef>
-5.4800

> <Gold.Chemscore.Hbond>
1.2436

> <Gold.Chemscore.Metal>
0.0000

> <Gold.Chemscore.Lipo>
114.4916

> <Gold.Chemscore.Internal_Hbond>
0.0000

> <Gold.Chemscore.DEClash>
0.1990

> <Gold.Chemscore.DEInternal>
2.6922

> <Gold.Chemscore.Rot>
3.7683

> <Gold.Chemscore.Internal.Correction>
   9.000000E+99

> <Gold.Chemscore.Hbonds>
donor molecule, donor type, donor heavy atom, donor atom, acceptor molecule, acceptor atom, score
      P1  H  6934  6947       L1    23  0.33
      P1  H  7997  8010       L1    10  0.16

> <Gold.Chemscore.Hbond.Weighted>
-4.1536

> <Gold.Chemscore.Metal.Weighted>
-0.0000

> <Gold.Chemscore.Lipo.Weighted>
-13.3955

> <Gold.Chemscore.Internal_Hbond.Weighted>
0.0000

> <Gold.Chemscore.DEClash.Weighted>
0.1990

> <Gold.Chemscore.DEInternal.Weighted>
2.6922

> <Gold.Chemscore.Rot.Weighted>
9.6468

> <Gold.Chemscore.Internal.Correction.Weighted>
   9.000000E+99

> <Gold.Protein.RotatedTorsions>
[ 6907 6896 6895 6894 ] final   94.77 input  -60.11 | X-H torsion
[ 7974 7965 7964 7962 ] final  156.36 input  175.53 | X-H torsion
[ 8008 7997 7996 7995 ] final  135.99 input   59.86 | X-H torsion
[ 10167 10162 10161 10158 ] final  104.24 input  -65.29 | X-H torsion
[ 10718 10713 10712 10709 ] final -113.42 input   66.30 | X-H torsion
[ 10763 10752 10751 10750 ] final   13.36 input  -60.55 | X-H torsion
[ 11005 11000 10999 10996 ] final   20.63 input  -57.11 | X-H torsion

> <Gold.Protein.ActiveResidues>
 VAL166  LYS551  ARG553  GLY616  TRP617  ASP618  TYR619  PRO620  LYS621  CYS622 
 ASP623  PHE694  ASN695  SER759  ASP760  ASP761  ALA762  ILE779  LEU786  VAL792 
 PHE793  MET794  SER795  GLU796  ALA797  LYS798  CYS799  TRP800  GLU811  SER814 

> <Gold.Protein.RotatedAtoms>
  152.5448  134.1142  159.8371 H   0  0  0  0  0  0  0  0  0  0  0  0  # atno 6907 bound_to 6896
  151.1205  133.5100  159.2609 H   0  0  0  0  0  0  0  0  0  0  0  0  # atno 6908 bound_to 6896
  151.1784  135.0359  159.8836 H   0  0  0  0  0  0  0  0  0  0  0  0  # atno 6909 bound_to 6896
  144.7967  139.7194  143.6199 H   0  0  0  0  0  0  0  0  0  0  0  0  # atno 7974 bound_to 7965
  156.3004  140.2456  156.3673 H   0  0  0  0  0  0  0  0  0  0  0  0  # atno 8008 bound_to 7997
  154.8822  140.0412  157.1808 H   0  0  0  0  0  0  0  0  0  0  0  0  # atno 8009 bound_to 7997
  154.8684  140.2931  155.5500 H   0  0  0  0  0  0  0  0  0  0  0  0  # atno 8010 bound_to 7997
  139.7194  144.7061  151.0897 H   0  0  0  0  0  0  0  0  0  0  0  0  # atno 10167 bound_to 10162
  156.0765  130.5972  150.8639 H   0  0  0  0  0  0  0  0  0  0  0  0  # atno 10718 bound_to 10713
  153.1729  135.6815  153.8582 H   0  0  0  0  0  0  0  0  0  0  0  0  # atno 10763 bound_to 10752
  153.7940  135.3165  155.3383 H   0  0  0  0  0  0  0  0  0  0  0  0  # atno 10764 bound_to 10752
  154.8010  135.4778  154.0368 H   0  0  0  0  0  0  0  0  0  0  0  0  # atno 10765 bound_to 10752
  140.4005  134.1723  155.7664 H   0  0  0  0  0  0  0  0  0  0  0  0  # atno 11005 bound_to 11000
  146.2238  139.5684  142.9601 LP  0  0  0  0  0  0  0  0  0  0  0  0  # atno 17320 bound_to 7965
  145.5654  141.0400  143.2203 LP  0  0  0  0  0  0  0  0  0  0  0  0  # atno 17321 bound_to 7965
  140.7750  143.5186  150.9564 LP  0  0  0  0  0  0  0  0  0  0  0  0  # atno 17342 bound_to 10162
  139.8873  143.6997  152.3150 LP  0  0  0  0  0  0  0  0  0  0  0  0  # atno 17343 bound_to 10162
  157.5863  131.0945  150.9191 LP  0  0  0  0  0  0  0  0  0  0  0  0  # atno 17370 bound_to 10713
  156.9376  130.5372  149.5279 LP  0  0  0  0  0  0  0  0  0  0  0  0  # atno 17371 bound_to 10713
  141.1858  133.8315  157.1091 LP  0  0  0  0  0  0  0  0  0  0  0  0  # atno 17394 bound_to 11000
  140.0339  134.9887  157.0834 LP  0  0  0  0  0  0  0  0  0  0  0  0  # atno 17395 bound_to 11000

$$$$
