AV-unprocessed.smi:2322|AV-procd|sdf|9286|dock7
  -GOLD-   2272012513D 1   1.00000     0.00000
 Structure written by MMmdl.
 38 40  0  0  0  0  0  0  0  0  1 V2000
  149.2820  139.4578  153.8322 C   0  0  0  0  0  0  0  0  0  0  0  0
  150.5657  139.0927  154.3997 N   0  0  0  0  0  0  0  0  0  0  0  0
  151.4122  140.0399  154.8671 N   0  0  0  0  0  0  0  0  0  0  0  0
  152.4490  139.3211  155.2956 C   0  0  0  0  0  0  0  0  0  0  0  0
  152.3419  137.9681  155.1443 N   0  0  0  0  0  0  0  0  0  0  0  0
  151.1393  137.8983  154.5791 C   0  0  0  0  0  0  0  0  0  0  0  0
  150.4506  136.7178  154.1697 N   0  0  0  0  0  0  0  0  0  0  0  0
  150.4671  135.4620  154.6640 C   0  0  0  0  0  0  0  0  0  0  0  0
  151.1637  135.1720  155.6352 O   0  0  0  0  0  0  0  0  0  0  0  0
  149.6880  134.5671  154.0347 N   0  0  0  0  0  0  0  0  0  0  0  0
  149.5597  133.1565  154.3847 C   0  0  1  0  0  0  0  0  0  0  0  0
  149.4652  132.9745  155.9085 C   0  0  0  0  0  0  0  0  0  0  0  0
  149.1639  131.5088  156.2599 C   0  0  0  0  0  0  0  0  0  0  0  0
  147.9740  131.0830  155.6040 O   0  0  0  0  0  0  0  0  0  0  0  0
  148.0725  131.1193  154.1832 C   0  0  1  0  0  0  0  0  0  0  0  0
  146.7943  130.5435  153.6069 C   0  0  0  0  0  0  0  0  0  0  0  0
  146.8219  129.2985  152.7512 C   0  0  0  0  0  0  0  0  0  0  0  0
  146.5071  130.6360  152.1262 C   0  0  0  0  0  0  0  0  0  0  0  0
  148.3029  132.5712  153.7252 C   0  0  0  0  0  0  0  0  0  0  0  0
  148.4839  139.1582  154.5115 H   0  0  0  0  0  0  0  0  0  0  0  0
  149.1447  138.9540  152.8751 H   0  0  0  0  0  0  0  0  0  0  0  0
  149.2269  140.5353  153.6724 H   0  0  0  0  0  0  0  0  0  0  0  0
  153.3169  139.7906  155.7346 H   0  0  0  0  0  0  0  0  0  0  0  0
  149.8476  136.8439  153.3698 H   0  0  0  0  0  0  0  0  0  0  0  0
  149.1456  134.8917  153.2465 H   0  0  0  0  0  0  0  0  0  0  0  0
  150.4284  132.6099  154.0121 H   0  0  0  0  0  0  0  0  0  0  0  0
  150.3921  133.2895  156.3888 H   0  0  0  0  0  0  0  0  0  0  0  0
  148.6737  133.6093  156.3095 H   0  0  0  0  0  0  0  0  0  0  0  0
  149.9971  130.8626  155.9791 H   0  0  0  0  0  0  0  0  0  0  0  0
  149.0293  131.4028  157.3365 H   0  0  0  0  0  0  0  0  0  0  0  0
  148.9094  130.4948  153.8646 H   0  0  0  0  0  0  0  0  0  0  0  0
  145.9312  130.6525  154.2612 H   0  0  0  0  0  0  0  0  0  0  0  0
  147.7910  128.8563  152.5291 H   0  0  0  0  0  0  0  0  0  0  0  0
  146.0030  128.5919  152.8682 H   0  0  0  0  0  0  0  0  0  0  0  0
  145.4782  130.8224  151.8260 H   0  0  0  0  0  0  0  0  0  0  0  0
  147.2674  131.0843  151.4895 H   0  0  0  0  0  0  0  0  0  0  0  0
  147.4330  133.1763  153.9856 H   0  0  0  0  0  0  0  0  0  0  0  0
  148.3972  132.6113  152.6393 H   0  0  0  0  0  0  0  0  0  0  0  0
  1  2  1  0  0  0  0
  1 20  1  0  0  0  0
  1 21  1  0  0  0  0
  1 22  1  0  0  0  0
  2  6  1  0  0  0  0
  2  3  1  0  0  0  0
  3  4  2  0  0  0  0
  4  5  1  0  0  0  0
  4 23  1  0  0  0  0
  5  6  2  0  0  0  0
  6  7  1  0  0  0  0
  7  8  1  0  0  0  0
  7 24  1  0  0  0  0
  8  9  2  0  0  0  0
  8 10  1  0  0  0  0
 10 11  1  0  0  0  0
 10 25  1  0  0  0  0
 11 19  1  0  0  0  0
 11 12  1  0  0  0  0
 11 26  1  0  0  0  0
 12 13  1  0  0  0  0
 12 27  1  0  0  0  0
 12 28  1  0  0  0  0
 13 14  1  0  0  0  0
 13 29  1  0  0  0  0
 13 30  1  0  0  0  0
 14 15  1  0  0  0  0
 15 16  1  0  0  0  0
 15 19  1  0  0  0  0
 15 31  1  0  0  0  0
 16 18  1  0  0  0  0
 16 17  1  0  0  0  0
 16 32  1  0  0  0  0
 17 18  1  0  0  0  0
 17 33  1  0  0  0  0
 17 34  1  0  0  0  0
 18 35  1  0  0  0  0
 18 36  1  0  0  0  0
 19 37  1  0  0  0  0
 19 38  1  0  0  0  0
M  END
> <s_m_source_file>
AV-unprocessed.smi

> <i_m_source_file_index>
2322

> <i_lp_mmshare_version>
43012

> <i_f3d_flags>
0

> <s_epik_input>
W0NIM11uMW5bY0hdbmMxW05IXUMoPU8pW05IXVtDQEBIXTJbQ0gyXVtDSDJdT1tDQEhdKFtDSDJdMilbQ0hdM1tDSDJdW0NIMl0z

> <s_epik_cmdline>
J2VwaWtfcHl0aG9uJywgJy1waCcsICc3LjAnLCAnLXRuJywgJzgnLCAnLW1hJywgJzIwMCcsICctbWV0YWxfYmluZGluZycsICctaW1hZScsICc8aW5maWxlLm1hZT4nLCAnLW9tYWUnLCAnPG91dGZpbGUubWFlPic=

> <r_lp_tautomer_probability>
1

> <r_epik_Ionization_Penalty>
2.16399e-05

> <r_epik_Ionization_Penalty_Charging>
0

> <r_epik_Ionization_Penalty_Neutral>
2.16399e-05

> <r_epik_State_Penalty>
-0

> <r_epik_Charging_Adjusted_Penalty>
0

> <i_epik_Tot_Q>
0

> <i_epik_Tot_abs_Q>
0

> <r_epik_Metal_State_Penalty>
-0

> <b_epik_Metal_Only>
0

> <s_lp_Force_Field>
OPLS_2005

> <r_lp_Energy>
20.3548

> <b_lp_Chiralities_Consistent>
1

> <s_lp_Variant>
AV-unprocessed.smi:2322-2

> <Gold.Version>
5.8.1

> <Gold.Id.Protein>
6NUR|6NUR_protein|mol2

> <Gold.PLP.Fitness>
41.7229

> <Gold.PLP.PLP>
-32.0391

> <Gold.PLP.part.hbond>
-5.4638

> <Gold.PLP.part.metal>
0.0000

> <Gold.PLP.part.buried>
-0.3708

> <Gold.PLP.part.nonpolar>
-25.8290

> <Gold.PLP.part.repulsive>
0.2498

> <Gold.PLP.ligand.clash>
0.0000

> <Gold.PLP.ligand.torsion>
1.2198

> <Gold.PLP.Chemscore.Hbond>
3.6832

> <Gold.PLP.Chemscore.CHOScore>
0.0000

> <Gold.PLP.Chemscore.Metal>
0.0000

> <Gold.Chemscore.Hbonds>
donor molecule, donor type, donor heavy atom, donor atom, acceptor molecule, acceptor atom, score
      L1  H     7    24       P1  7948  1.00
      L1  H    10    25       P1  7948  0.65
      P1  H  7989  7998       L1     3  0.95
      P1  H 10752 10764       L1     9  0.95

> <Gold.PLP.Chemscore.Internal.Correction>
1.0738

> <Gold.Rescore>
     Score         DG    S(hbond)    S(metal)    S(lipo)     H(rot)  DE(clash)    DE(int)     intcor
      9.73     -15.22       2.17        0.00      49.97       1.31       1.88       3.61       ----

> <Gold.Chemscore.Fitness>
9.7303

> <Gold.Chemscore.DG>
-15.2226

> <Gold.Chemscore.ZeroCoef>
-5.4800

> <Gold.Chemscore.Hbond>
2.1686

> <Gold.Chemscore.Metal>
0.0000

> <Gold.Chemscore.Lipo>
49.9657

> <Gold.Chemscore.Internal_Hbond>
0.0000

> <Gold.Chemscore.DEClash>
1.8816

> <Gold.Chemscore.DEInternal>
3.6107

> <Gold.Chemscore.Rot>
1.3072

> <Gold.Chemscore.Internal.Correction>
   9.000000E+99

> <Gold.Chemscore.Hbonds>
donor molecule, donor type, donor heavy atom, donor atom, acceptor molecule, acceptor atom, score
      L1  H     7    24       P1  7948  0.33
      L1  H    10    25       P1  7948  0.07
      P1  H  7989  7998       L1     3  0.20
      P1  H 10752 10764       L1     9  0.19

> <Gold.Chemscore.Hbond.Weighted>
-7.2430

> <Gold.Chemscore.Metal.Weighted>
-0.0000

> <Gold.Chemscore.Lipo.Weighted>
-5.8460

> <Gold.Chemscore.Internal_Hbond.Weighted>
0.0000

> <Gold.Chemscore.DEClash.Weighted>
1.8816

> <Gold.Chemscore.DEInternal.Weighted>
3.6107

> <Gold.Chemscore.Rot.Weighted>
3.3464

> <Gold.Chemscore.Internal.Correction.Weighted>
   9.000000E+99

> <Gold.Protein.RotatedTorsions>
[ 6907 6896 6895 6894 ] final   73.10 input  -60.11 | X-H torsion
[ 7974 7965 7964 7962 ] final  -58.46 input  175.53 | X-H torsion
[ 8008 7997 7996 7995 ] final   32.20 input   59.86 | X-H torsion
[ 10167 10162 10161 10158 ] final  -16.37 input  -65.29 | X-H torsion
[ 10718 10713 10712 10709 ] final -136.97 input   66.30 | X-H torsion
[ 10763 10752 10751 10750 ] final  -45.80 input  -60.55 | X-H torsion
[ 11005 11000 10999 10996 ] final  177.35 input  -57.11 | X-H torsion

> <Gold.Protein.ActiveResidues>
 VAL166  LYS551  ARG553  GLY616  TRP617  ASP618  TYR619  PRO620  LYS621  CYS622 
 ASP623  PHE694  ASN695  SER759  ASP760  ASP761  ALA762  ILE779  LEU786  VAL792 
 PHE793  MET794  SER795  GLU796  ALA797  LYS798  CYS799  TRP800  GLU811  SER814 

> <Gold.Protein.RotatedAtoms>
  152.4905  134.4471  159.9562 H   0  0  0  0  0  0  0  0  0  0  0  0  # atno 6907 bound_to 6896
  151.4460  133.3624  159.2796 H   0  0  0  0  0  0  0  0  0  0  0  0  # atno 6908 bound_to 6896
  150.9055  134.8493  159.7449 H   0  0  0  0  0  0  0  0  0  0  0  0  # atno 6909 bound_to 6896
  145.8390  140.8430  143.0044 H   0  0  0  0  0  0  0  0  0  0  0  0  # atno 7974 bound_to 7965
  155.1187  140.3246  155.4503 H   0  0  0  0  0  0  0  0  0  0  0  0  # atno 8008 bound_to 7997
  156.2669  140.2031  156.6258 H   0  0  0  0  0  0  0  0  0  0  0  0  # atno 8009 bound_to 7997
  154.6700  140.0537  157.0142 H   0  0  0  0  0  0  0  0  0  0  0  0  # atno 8010 bound_to 7997
  140.7233  143.5123  150.9735 H   0  0  0  0  0  0  0  0  0  0  0  0  # atno 10167 bound_to 10162
  156.2829  130.7331  151.1334 H   0  0  0  0  0  0  0  0  0  0  0  0  # atno 10718 bound_to 10713
  154.0346  135.6652  153.4784 H   0  0  0  0  0  0  0  0  0  0  0  0  # atno 10763 bound_to 10752
  153.0526  135.5075  154.7900 H   0  0  0  0  0  0  0  0  0  0  0  0  # atno 10764 bound_to 10752
  154.6857  135.3052  154.9516 H   0  0  0  0  0  0  0  0  0  0  0  0  # atno 10765 bound_to 10752
  140.3831  134.6929  157.4463 H   0  0  0  0  0  0  0  0  0  0  0  0  # atno 11005 bound_to 11000
  144.6734  140.0784  143.7470 LP  0  0  0  0  0  0  0  0  0  0  0  0  # atno 17320 bound_to 7965
  145.9486  139.2718  143.1225 LP  0  0  0  0  0  0  0  0  0  0  0  0  # atno 17321 bound_to 7965
  139.8837  143.7040  152.3154 LP  0  0  0  0  0  0  0  0  0  0  0  0  # atno 17342 bound_to 10162
  139.7331  144.7577  151.0770 LP  0  0  0  0  0  0  0  0  0  0  0  0  # atno 17343 bound_to 10162
  157.7320  131.0603  150.5651 LP  0  0  0  0  0  0  0  0  0  0  0  0  # atno 17370 bound_to 10713
  156.5759  130.4292  149.5999 LP  0  0  0  0  0  0  0  0  0  0  0  0  # atno 17371 bound_to 10713
  140.0463  134.6194  155.8917 LP  0  0  0  0  0  0  0  0  0  0  0  0  # atno 17394 bound_to 11000
  141.1917  133.6572  156.5467 LP  0  0  0  0  0  0  0  0  0  0  0  0  # atno 17395 bound_to 11000

$$$$
