AV-unprocessed.smi:2047|AV-procd|sdf|8320|dock3
  -GOLD-   2272010583D 1   1.00000     0.00000
 Structure written by MMmdl.
 42 44  0  0  0  0  0  0  0  0  3 V2000
  147.5492  131.5132  152.5754 O   0  0  0  0  0  0  0  0  0  0  0  0
  147.3411  132.6391  153.0421 C   0  0  0  0  0  0  0  0  0  0  0  0
  146.4336  133.4491  152.4713 N   0  0  0  0  0  0  0  0  0  0  0  0
  145.6093  133.1925  151.3410 C   0  0  0  0  0  0  0  0  0  0  0  0
  146.0077  132.3165  150.3008 C   0  0  0  0  0  0  0  0  0  0  0  0
  145.1362  132.0760  149.2199 C   0  0  0  0  0  0  0  0  0  0  0  0
  143.8779  132.7063  149.2021 C   0  0  0  0  0  0  0  0  0  0  0  0
  143.5225  133.5222  150.2170 N   0  3  0  0  0  0  0  0  0  0  0  0
  144.3239  133.7863  151.2787 C   0  0  0  0  0  0  0  0  0  0  0  0
  143.8618  134.6519  152.2848 N   0  0  0  0  0  0  0  0  0  0  0  0
  143.9302  136.0688  151.9698 C   0  0  0  0  0  0  0  0  0  0  0  0
  143.0440  136.7606  153.0090 C   0  0  0  0  0  0  0  0  0  0  0  0
  142.1064  135.6609  153.5236 C   0  0  0  0  0  0  0  0  0  0  0  0
  142.5055  134.4058  152.7432 C   0  0  0  0  0  0  0  0  0  0  0  0
  147.9480  133.2228  154.1098 N   0  5  0  0  0  0  0  0  0  0  0  0
  149.3522  133.0305  154.4845 C   0  0  1  0  0  0  0  0  0  0  0  0
  149.9131  134.2944  155.1660 C   0  0  0  0  0  0  0  0  0  0  0  0
  151.2452  133.9386  155.8409 C   0  0  0  0  0  0  0  0  0  0  0  0
  151.0778  132.1936  156.3814 S   0  0  0  0  0  0  0  0  0  0  0  0
  152.1749  131.4049  155.7986 O   0  0  0  0  0  0  0  0  0  0  0  0
  150.8063  132.1509  157.8268 O   0  0  0  0  0  0  0  0  0  0  0  0
  149.5200  131.8605  155.4680 C   0  0  0  0  0  0  0  0  0  0  0  0
  146.4037  134.3907  152.8344 H   0  0  0  0  0  0  0  0  0  0  0  0
  146.9644  131.8167  150.3256 H   0  0  0  0  0  0  0  0  0  0  0  0
  145.4289  131.4124  148.4195 H   0  0  0  0  0  0  0  0  0  0  0  0
  143.1476  132.5791  148.4163 H   0  0  0  0  0  0  0  0  0  0  0  0
  144.9576  136.4311  152.0130 H   0  0  0  0  0  0  0  0  0  0  0  0
  143.5475  136.2585  150.9659 H   0  0  0  0  0  0  0  0  0  0  0  0
  143.6513  137.1446  153.8297 H   0  0  0  0  0  0  0  0  0  0  0  0
  142.5007  137.6012  152.5766 H   0  0  0  0  0  0  0  0  0  0  0  0
  142.2653  135.5088  154.5919 H   0  0  0  0  0  0  0  0  0  0  0  0
  141.0548  135.9082  153.3761 H   0  0  0  0  0  0  0  0  0  0  0  0
  141.8349  134.2615  151.8948 H   0  0  0  0  0  0  0  0  0  0  0  0
  142.4581  133.5128  153.3671 H   0  0  0  0  0  0  0  0  0  0  0  0
  149.9784  132.8294  153.6138 H   0  0  0  0  0  0  0  0  0  0  0  0
  150.0324  135.1165  154.4597 H   0  0  0  0  0  0  0  0  0  0  0  0
  149.2151  134.6333  155.9335 H   0  0  0  0  0  0  0  0  0  0  0  0
  152.0760  133.9994  155.1361 H   0  0  0  0  0  0  0  0  0  0  0  0
  151.4695  134.5770  156.6953 H   0  0  0  0  0  0  0  0  0  0  0  0
  148.7082  131.8321  156.1957 H   0  0  0  0  0  0  0  0  0  0  0  0
  149.5757  130.8928  154.9696 H   0  0  0  0  0  0  0  0  0  0  0  0
  142.6036  133.9632  150.1832 H   0  0  0  0  0  0  0  0  0  0  0  0
  1  2  2  0  0  0  0
  2  3  1  0  0  0  0
  2 15  1  0  0  0  0
  3  4  1  0  0  0  0
  3 23  1  0  0  0  0
  4  9  1  0  0  0  0
  4  5  2  0  0  0  0
  5  6  1  0  0  0  0
  5 24  1  0  0  0  0
  6  7  2  0  0  0  0
  6 25  1  0  0  0  0
  7  8  1  0  0  0  0
  7 26  1  0  0  0  0
  8  9  2  0  0  0  0
  8 42  1  0  0  0  0
  9 10  1  0  0  0  0
 10 14  1  0  0  0  0
 10 11  1  0  0  0  0
 11 12  1  0  0  0  0
 11 27  1  0  0  0  0
 11 28  1  0  0  0  0
 12 13  1  0  0  0  0
 12 29  1  0  0  0  0
 12 30  1  0  0  0  0
 13 14  1  0  0  0  0
 13 31  1  0  0  0  0
 13 32  1  0  0  0  0
 14 33  1  0  0  0  0
 14 34  1  0  0  0  0
 15 16  1  0  0  0  0
 16 22  1  0  0  0  0
 16 17  1  0  0  0  0
 16 35  1  0  0  0  0
 17 18  1  0  0  0  0
 17 36  1  0  0  0  0
 17 37  1  0  0  0  0
 18 19  1  0  0  0  0
 18 38  1  0  0  0  0
 18 39  1  0  0  0  0
 19 20  2  0  0  0  0
 19 21  2  0  0  0  0
 19 22  1  0  0  0  0
 22 40  1  0  0  0  0
 22 41  1  0  0  0  0
M  CHG  1   8   1
M  CHG  1  15  -1
M  END
> <s_m_source_file>
AV-unprocessed.smi

> <i_m_source_file_index>
2047

> <i_lp_mmshare_version>
43012

> <i_f3d_flags>
0

> <s_epik_input>
Tz1TMSg9TylbQ0gyXVtDSDJdW0NASF0oW0NIMl0xKVtOSF1DKD1PKVtOSF1jMltjSF1bY0hdW2NIXW5jMk4zW0NIMl1bQ0gyXVtDSDJdW0NIMl0z

> <s_epik_cmdline>
J2VwaWtfcHl0aG9uJywgJy1waCcsICc3LjAnLCAnLXRuJywgJzgnLCAnLW1hJywgJzIwMCcsICctbWV0YWxfYmluZGluZycsICctaW1hZScsICc8aW5maWxlLm1hZT4nLCAnLW9tYWUnLCAnPG91dGZpbGUubWFlPic=

> <r_lp_tautomer_probability>
0.999994

> <r_epik_Ionization_Penalty>
8.27033

> <r_epik_Ionization_Penalty_Charging>
8.27033

> <r_epik_Ionization_Penalty_Neutral>
3.23223e-06

> <r_epik_State_Penalty>
7.90314

> <r_epik_Charging_Adjusted_Penalty>
16.1735

> <i_epik_Tot_Q>
0

> <i_epik_Tot_abs_Q>
2

> <r_epik_Metal_State_Penalty>
3.89381

> <b_epik_Metal_Only>
1

> <s_lp_Force_Field>
OPLS_2005

> <r_lp_Energy>
40.3449

> <b_lp_Chiralities_Consistent>
1

> <s_lp_Variant>
AV-unprocessed.smi:2047-6

> <Gold.Version>
5.8.1

> <Gold.Id.Protein>
6NUR|6NUR_protein|mol2

> <Gold.PLP.Fitness>
43.2255

> <Gold.PLP.PLP>
-36.6445

> <Gold.PLP.part.hbond>
-2.0000

> <Gold.PLP.part.metal>
0.0000

> <Gold.PLP.part.buried>
-7.4771

> <Gold.PLP.part.nonpolar>
-29.2801

> <Gold.PLP.part.repulsive>
1.7441

> <Gold.PLP.ligand.clash>
0.0000

> <Gold.PLP.ligand.torsion>
1.2362

> <Gold.PLP.Chemscore.Hbond>
3.0000

> <Gold.PLP.Chemscore.CHOScore>
0.0000

> <Gold.PLP.Chemscore.Metal>
0.0000

> <Gold.Chemscore.Hbonds>
donor molecule, donor type, donor heavy atom, donor atom, acceptor molecule, acceptor atom, score
      L1  H     8    42       P1 10186  2.00
      P1  H  6896  6909       L1    21  1.00

> <Gold.PLP.Chemscore.Internal.Correction>
0.0535

> <Gold.Rescore>
     Score         DG    S(hbond)    S(metal)    S(lipo)     H(rot)  DE(clash)    DE(int)     intcor
     15.83     -18.51       2.00        0.00      81.72       1.25       0.32       2.37       ----

> <Gold.Chemscore.Fitness>
15.8268

> <Gold.Chemscore.DG>
-18.5108

> <Gold.Chemscore.ZeroCoef>
-5.4800

> <Gold.Chemscore.Hbond>
1.9954

> <Gold.Chemscore.Metal>
0.0000

> <Gold.Chemscore.Lipo>
81.7173

> <Gold.Chemscore.Internal_Hbond>
0.0000

> <Gold.Chemscore.DEClash>
0.3160

> <Gold.Chemscore.DEInternal>
2.3680

> <Gold.Chemscore.Rot>
1.2480

> <Gold.Chemscore.Internal.Correction>
   9.000000E+99

> <Gold.Chemscore.Hbonds>
donor molecule, donor type, donor heavy atom, donor atom, acceptor molecule, acceptor atom, score
      L1  H     8    42       P1 10186  0.98
      P1  H  6896  6909       L1    21  0.99

> <Gold.Chemscore.Hbond.Weighted>
-6.6647

> <Gold.Chemscore.Metal.Weighted>
-0.0000

> <Gold.Chemscore.Lipo.Weighted>
-9.5609

> <Gold.Chemscore.Internal_Hbond.Weighted>
0.0000

> <Gold.Chemscore.DEClash.Weighted>
0.3160

> <Gold.Chemscore.DEInternal.Weighted>
2.3680

> <Gold.Chemscore.Rot.Weighted>
3.1948

> <Gold.Chemscore.Internal.Correction.Weighted>
   9.000000E+99

> <Gold.Protein.RotatedTorsions>
[ 6907 6896 6895 6894 ] final  -48.78 input  -60.11 | X-H torsion
[ 7974 7965 7964 7962 ] final -134.73 input  175.53 | X-H torsion
[ 8008 7997 7996 7995 ] final   29.43 input   59.86 | X-H torsion
[ 10167 10162 10161 10158 ] final   13.40 input  -65.29 | X-H torsion
[ 10718 10713 10712 10709 ] final   72.02 input   66.30 | X-H torsion
[ 10763 10752 10751 10750 ] final  126.46 input  -60.55 | X-H torsion
[ 11005 11000 10999 10996 ] final  142.72 input  -57.11 | X-H torsion

> <Gold.Protein.ActiveResidues>
 VAL166  LYS551  ARG553  GLY616  TRP617  ASP618  TYR619  PRO620  LYS621  CYS622 
 ASP623  PHE694  ASN695  SER759  ASP760  ASP761  ALA762  ILE779  LEU786  VAL792 
 PHE793  MET794  SER795  GLU796  ALA797  LYS798  CYS799  TRP800  GLU811  SER814 

> <Gold.Protein.RotatedAtoms>
  150.8871  134.8270  159.7266 H   0  0  0  0  0  0  0  0  0  0  0  0  # atno 6907 bound_to 6896
  152.4814  134.4706  159.9644 H   0  0  0  0  0  0  0  0  0  0  0  0  # atno 6908 bound_to 6896
  151.4774  133.3516  159.2868 H   0  0  0  0  0  0  0  0  0  0  0  0  # atno 6909 bound_to 6896
  144.9076  140.6854  143.5045 H   0  0  0  0  0  0  0  0  0  0  0  0  # atno 7974 bound_to 7965
  155.0743  140.3203  155.4621 H   0  0  0  0  0  0  0  0  0  0  0  0  # atno 8008 bound_to 7997
  156.2783  140.2106  156.5816 H   0  0  0  0  0  0  0  0  0  0  0  0  # atno 8009 bound_to 7997
  154.7029  140.0505  157.0463 H   0  0  0  0  0  0  0  0  0  0  0  0  # atno 8010 bound_to 7997
  140.6005  143.8614  150.6960 H   0  0  0  0  0  0  0  0  0  0  0  0  # atno 10167 bound_to 10162
  157.6481  130.9558  150.0871 H   0  0  0  0  0  0  0  0  0  0  0  0  # atno 10718 bound_to 10713
  153.6938  135.3294  155.3208 H   0  0  0  0  0  0  0  0  0  0  0  0  # atno 10763 bound_to 10752
  154.8432  135.4438  154.1481 H   0  0  0  0  0  0  0  0  0  0  0  0  # atno 10764 bound_to 10752
  153.2530  135.6983  153.7737 H   0  0  0  0  0  0  0  0  0  0  0  0  # atno 10765 bound_to 10752
  140.0499  134.9261  157.0997 H   0  0  0  0  0  0  0  0  0  0  0  0  # atno 11005 bound_to 11000
  145.3509  139.1706  143.4435 LP  0  0  0  0  0  0  0  0  0  0  0  0  # atno 17320 bound_to 7965
  146.3142  140.3560  142.8660 LP  0  0  0  0  0  0  0  0  0  0  0  0  # atno 17321 bound_to 7965
  140.2159  143.3847  152.1681 LP  0  0  0  0  0  0  0  0  0  0  0  0  # atno 17342 bound_to 10162
  139.5288  144.7134  151.5132 LP  0  0  0  0  0  0  0  0  0  0  0  0  # atno 17343 bound_to 10162
  156.1831  130.3651  149.9009 LP  0  0  0  0  0  0  0  0  0  0  0  0  # atno 17370 bound_to 10713
  156.6957  130.8913  151.3593 LP  0  0  0  0  0  0  0  0  0  0  0  0  # atno 17371 bound_to 10713
  140.3935  134.2159  155.7165 LP  0  0  0  0  0  0  0  0  0  0  0  0  # atno 17394 bound_to 11000
  141.1925  133.8172  157.0837 LP  0  0  0  0  0  0  0  0  0  0  0  0  # atno 17395 bound_to 11000

$$$$
