AV-unprocessed.smi:412|AV-procd|sdf|2510|dock1
  -GOLD-   2262022463D 1   1.00000     0.00000
 Structure written by MMmdl.
 36 38  0  0  0  0  0  0  0  0  1 V2000
  151.1624  137.6543  154.4539 C   0  0  0  0  0  0  0  0  0  0  0  0
  150.7576  138.9899  154.8757 N   0  0  0  0  0  0  0  0  0  0  0  0
  151.4485  139.8390  155.6726 C   0  0  0  0  0  0  0  0  0  0  0  0
  152.5494  139.6229  156.1787 O   0  0  0  0  0  0  0  0  0  0  0  0
  150.7159  140.9689  155.8145 N   0  0  0  0  0  0  0  0  0  0  0  0
  151.0855  142.1562  156.5822 C   0  0  0  0  0  0  0  0  0  0  0  0
  151.4848  141.8045  158.0291 C   0  0  2  0  0  0  0  0  0  0  0  0
  150.4928  140.9623  158.5824 O   0  0  0  0  0  0  0  0  0  0  0  0
  151.6699  143.0647  158.8607 C   0  0  0  0  0  0  0  0  0  0  0  0
  151.4877  144.3324  158.2674 C   0  0  0  0  0  0  0  0  0  0  0  0
  151.6466  145.5043  159.0327 C   0  0  0  0  0  0  0  0  0  0  0  0
  151.9861  145.4150  160.3964 C   0  0  0  0  0  0  0  0  0  0  0  0
  152.1638  144.1533  160.9954 C   0  0  0  0  0  0  0  0  0  0  0  0
  152.0048  142.9814  160.2306 C   0  0  0  0  0  0  0  0  0  0  0  0
  149.5274  140.8414  155.0811 C   0  0  0  0  0  0  0  0  0  0  0  0
  148.4523  141.7285  154.8976 C   0  0  0  0  0  0  0  0  0  0  0  0
  147.3844  141.2887  154.0804 C   0  0  0  0  0  0  0  0  0  0  0  0
  147.4110  140.0038  153.4779 C   0  0  0  0  0  0  0  0  0  0  0  0
  148.5067  139.1317  153.6782 C   0  0  0  0  0  0  0  0  0  0  0  0
  149.5539  139.5948  154.4930 C   0  0  0  0  0  0  0  0  0  0  0  0
  152.1590  137.3947  154.8132 H   0  0  0  0  0  0  0  0  0  0  0  0
  151.1710  137.5892  153.3657 H   0  0  0  0  0  0  0  0  0  0  0  0
  150.4618  136.9113  154.8360 H   0  0  0  0  0  0  0  0  0  0  0  0
  151.9349  142.6127  156.0720 H   0  0  0  0  0  0  0  0  0  0  0  0
  150.2932  142.9067  156.5635 H   0  0  0  0  0  0  0  0  0  0  0  0
  152.4254  141.2515  158.0313 H   0  0  0  0  0  0  0  0  0  0  0  0
  149.7984  141.5030  158.9263 H   0  0  0  0  0  0  0  0  0  0  0  0
  151.2225  144.4110  157.2231 H   0  0  0  0  0  0  0  0  0  0  0  0
  151.5063  146.4719  158.5739 H   0  0  0  0  0  0  0  0  0  0  0  0
  152.1079  146.3139  160.9830 H   0  0  0  0  0  0  0  0  0  0  0  0
  152.4205  144.0838  162.0423 H   0  0  0  0  0  0  0  0  0  0  0  0
  152.1375  142.0175  160.7003 H   0  0  0  0  0  0  0  0  0  0  0  0
  148.4389  142.7055  155.3581 H   0  0  0  0  0  0  0  0  0  0  0  0
  146.5388  141.9392  153.9126 H   0  0  0  0  0  0  0  0  0  0  0  0
  146.5849  139.6879  152.8578 H   0  0  0  0  0  0  0  0  0  0  0  0
  148.5356  138.1530  153.2224 H   0  0  0  0  0  0  0  0  0  0  0  0
  1  2  1  0  0  0  0
  1 21  1  0  0  0  0
  1 22  1  0  0  0  0
  1 23  1  0  0  0  0
  2 20  1  0  0  0  0
  2  3  1  0  0  0  0
  3  4  2  0  0  0  0
  3  5  1  0  0  0  0
  5  6  1  0  0  0  0
  5 15  1  0  0  0  0
  6  7  1  0  0  0  0
  6 24  1  0  0  0  0
  6 25  1  0  0  0  0
  7  8  1  0  0  0  0
  7  9  1  0  0  0  0
  7 26  1  0  0  0  0
  8 27  1  0  0  0  0
  9 14  1  0  0  0  0
  9 10  2  0  0  0  0
 10 11  1  0  0  0  0
 10 28  1  0  0  0  0
 11 12  2  0  0  0  0
 11 29  1  0  0  0  0
 12 13  1  0  0  0  0
 12 30  1  0  0  0  0
 13 14  2  0  0  0  0
 13 31  1  0  0  0  0
 14 32  1  0  0  0  0
 15 20  2  0  0  0  0
 15 16  1  0  0  0  0
 16 17  2  0  0  0  0
 16 33  1  0  0  0  0
 17 18  1  0  0  0  0
 17 34  1  0  0  0  0
 18 19  2  0  0  0  0
 18 35  1  0  0  0  0
 19 20  1  0  0  0  0
 19 36  1  0  0  0  0
M  END
> <s_m_source_file>
AV-unprocessed.smi

> <i_m_source_file_index>
412

> <i_lp_mmshare_version>
43012

> <i_f3d_flags>
0

> <s_epik_input>
W2NIXTFbY0hdW2NIXVtjSF1jKGMxMiluKFtDSDNdKWMoPU8pbjJbQ0gyXVtDQEhdKFtPSF0pYzNbY0hdW2NIXVtjSF1bY0hdW2NIXTM=

> <s_epik_cmdline>
J2VwaWtfcHl0aG9uJywgJy1waCcsICc3LjAnLCAnLXRuJywgJzgnLCAnLW1hJywgJzIwMCcsICctbWV0YWxfYmluZGluZycsICctaW1hZScsICc8aW5maWxlLm1hZT4nLCAnLW9tYWUnLCAnPG91dGZpbGUubWFlPic=

> <r_lp_tautomer_probability>
1

> <r_epik_Ionization_Penalty>
1.34619e-06

> <r_epik_Ionization_Penalty_Charging>
2.57375e-09

> <r_epik_Ionization_Penalty_Neutral>
1.34362e-06

> <r_epik_State_Penalty>
-0

> <r_epik_Charging_Adjusted_Penalty>
2.57375e-09

> <i_epik_Tot_Q>
0

> <i_epik_Tot_abs_Q>
0

> <r_epik_Metal_State_Penalty>
-0

> <b_epik_Metal_Only>
0

> <s_lp_Force_Field>
OPLS_2005

> <r_lp_Energy>
43.7895

> <b_lp_Chiralities_Consistent>
1

> <s_lp_Variant>
AV-unprocessed.smi:412-1

> <Gold.Version>
5.8.1

> <Gold.Id.Protein>
6NUR|6NUR_protein|mol2

> <Gold.PLP.Fitness>
53.3931

> <Gold.PLP.PLP>
-50.6199

> <Gold.PLP.part.hbond>
-1.0000

> <Gold.PLP.part.metal>
0.0000

> <Gold.PLP.part.buried>
-0.7165

> <Gold.PLP.part.nonpolar>
-48.8561

> <Gold.PLP.part.repulsive>
0.0000

> <Gold.PLP.ligand.clash>
0.0000

> <Gold.PLP.ligand.torsion>
0.1179

> <Gold.PLP.Chemscore.Hbond>
1.0000

> <Gold.PLP.Chemscore.CHOScore>
0.0000

> <Gold.PLP.Chemscore.Metal>
0.0000

> <Gold.Chemscore.Hbonds>
donor molecule, donor type, donor heavy atom, donor atom, acceptor molecule, acceptor atom, score
      P1  H  7997  8008       L1     4  1.00

> <Gold.PLP.Chemscore.Internal.Correction>
0.0092

> <Gold.Rescore>
     Score         DG    S(hbond)    S(metal)    S(lipo)     H(rot)  DE(clash)    DE(int)     intcor
     18.89     -19.93       1.00        0.00     133.36       1.76       0.98       0.06       ----

> <Gold.Chemscore.Fitness>
18.8921

> <Gold.Chemscore.DG>
-19.9290

> <Gold.Chemscore.ZeroCoef>
-5.4800

> <Gold.Chemscore.Hbond>
1.0000

> <Gold.Chemscore.Metal>
0.0000

> <Gold.Chemscore.Lipo>
133.3605

> <Gold.Chemscore.Internal_Hbond>
0.0000

> <Gold.Chemscore.DEClash>
0.9780

> <Gold.Chemscore.DEInternal>
0.0589

> <Gold.Chemscore.Rot>
1.7555

> <Gold.Chemscore.Internal.Correction>
   9.000000E+99

> <Gold.Chemscore.Hbonds>
donor molecule, donor type, donor heavy atom, donor atom, acceptor molecule, acceptor atom, score
      P1  H  7997  8008       L1     4  1.00

> <Gold.Chemscore.Hbond.Weighted>
-3.3400

> <Gold.Chemscore.Metal.Weighted>
-0.0000

> <Gold.Chemscore.Lipo.Weighted>
-15.6032

> <Gold.Chemscore.Internal_Hbond.Weighted>
0.0000

> <Gold.Chemscore.DEClash.Weighted>
0.9780

> <Gold.Chemscore.DEInternal.Weighted>
0.0589

> <Gold.Chemscore.Rot.Weighted>
4.4942

> <Gold.Chemscore.Internal.Correction.Weighted>
   9.000000E+99

> <Gold.Protein.RotatedTorsions>
[ 6907 6896 6895 6894 ] final -172.87 input  -60.11 | X-H torsion
[ 7974 7965 7964 7962 ] final  165.93 input  175.53 | X-H torsion
[ 8008 7997 7996 7995 ] final  -46.68 input   59.86 | X-H torsion
[ 10167 10162 10161 10158 ] final  -18.40 input  -65.29 | X-H torsion
[ 10718 10713 10712 10709 ] final   78.31 input   66.30 | X-H torsion
[ 10763 10752 10751 10750 ] final -121.00 input  -60.55 | X-H torsion
[ 11005 11000 10999 10996 ] final  -82.51 input  -57.11 | X-H torsion

> <Gold.Protein.ActiveResidues>
 VAL166  LYS551  ARG553  GLY616  TRP617  ASP618  TYR619  PRO620  LYS621  CYS622 
 ASP623  PHE694  ASN695  SER759  ASP760  ASP761  ALA762  ILE779  LEU786  VAL792 
 PHE793  MET794  SER795  GLU796  ALA797  LYS798  CYS799  TRP800  GLU811  SER814 

> <Gold.Protein.RotatedAtoms>
  151.5470  133.3423  159.2945 H   0  0  0  0  0  0  0  0  0  0  0  0  # atno 6907 bound_to 6896
  150.8501  134.7826  159.7013 H   0  0  0  0  0  0  0  0  0  0  0  0  # atno 6908 bound_to 6896
  152.4549  134.5320  159.9865 H   0  0  0  0  0  0  0  0  0  0  0  0  # atno 6909 bound_to 6896
  144.7483  139.8541  143.6375 H   0  0  0  0  0  0  0  0  0  0  0  0  # atno 7974 bound_to 7965
  154.4009  140.1365  156.4051 H   0  0  0  0  0  0  0  0  0  0  0  0  # atno 8008 bound_to 7997
  155.7787  140.3482  155.5265 H   0  0  0  0  0  0  0  0  0  0  0  0  # atno 8009 bound_to 7997
  155.8695  140.0969  157.1550 H   0  0  0  0  0  0  0  0  0  0  0  0  # atno 8010 bound_to 7997
  140.7258  143.4920  150.9980 H   0  0  0  0  0  0  0  0  0  0  0  0  # atno 10167 bound_to 10162
  157.6740  130.9862  150.1768 H   0  0  0  0  0  0  0  0  0  0  0  0  # atno 10718 bound_to 10713
  154.8658  135.4183  154.2549 H   0  0  0  0  0  0  0  0  0  0  0  0  # atno 10763 bound_to 10752
  153.3489  135.6997  153.6811 H   0  0  0  0  0  0  0  0  0  0  0  0  # atno 10764 bound_to 10752
  153.5759  135.3582  155.2829 H   0  0  0  0  0  0  0  0  0  0  0  0  # atno 10765 bound_to 10752
  141.1663  133.7248  156.8582 H   0  0  0  0  0  0  0  0  0  0  0  0  # atno 11005 bound_to 11000
  146.1395  139.4448  143.0118 LP  0  0  0  0  0  0  0  0  0  0  0  0  # atno 17320 bound_to 7965
  145.7040  141.0127  143.1489 LP  0  0  0  0  0  0  0  0  0  0  0  0  # atno 17321 bound_to 7965
  139.8625  143.7297  152.3172 LP  0  0  0  0  0  0  0  0  0  0  0  0  # atno 17342 bound_to 10162
  139.7517  144.7532  151.0497 LP  0  0  0  0  0  0  0  0  0  0  0  0  # atno 17343 bound_to 10162
  156.2509  130.3700  149.8233 LP  0  0  0  0  0  0  0  0  0  0  0  0  # atno 17370 bound_to 10713
  156.6006  130.8545  151.3431 LP  0  0  0  0  0  0  0  0  0  0  0  0  # atno 17371 bound_to 10713
  140.1867  134.8995  157.3013 LP  0  0  0  0  0  0  0  0  0  0  0  0  # atno 17394 bound_to 11000
  140.2335  134.3881  155.7511 LP  0  0  0  0  0  0  0  0  0  0  0  0  # atno 17395 bound_to 11000

$$$$
