AV-unprocessed.smi:1203|AV-procd|sdf|5033|dock9
  -GOLD-   22720 4 53D 1   1.00000     0.00000
 Structure written by MMmdl.
 39 40  0  0  0  0  0  0  0  0  1 V2000
  152.7498  137.8457  156.6779 C   0  0  0  0  0  0  0  0  0  0  0  0
  152.2449  138.5543  155.0582 S   0  0  0  0  0  0  0  0  0  0  0  0
  153.1955  139.6198  154.7061 O   0  0  0  0  0  0  0  0  0  0  0  0
  151.9868  137.4596  154.1102 O   0  0  0  0  0  0  0  0  0  0  0  0
  150.7296  139.3064  155.4245 N   0  0  0  0  0  0  0  0  0  0  0  0
  149.5131  138.7844  154.7824 C   0  0  0  0  0  0  0  0  0  0  0  0
  148.5570  139.9703  154.6683 C   0  0  0  0  0  0  0  0  0  0  0  0
  149.4996  141.1612  154.5662 C   0  0  0  0  0  0  0  0  0  0  0  0
  150.6731  140.7770  155.4845 C   0  0  1  0  0  0  0  0  0  0  0  0
  150.5408  141.3024  156.9233 C   0  0  0  0  0  0  0  0  0  0  0  0
  150.5705  140.5373  157.8881 O   0  0  0  0  0  0  0  0  0  0  0  0
  150.4003  142.6291  157.0510 N   0  0  0  0  0  0  0  0  0  0  0  0
  150.2642  143.3322  158.3204 C   0  0  0  0  0  0  0  0  0  0  0  0
  151.5755  144.0277  158.7225 C   0  0  0  0  0  0  0  0  0  0  0  0
  152.2183  143.4311  159.9628 C   0  0  0  0  0  0  0  0  0  0  0  0
  152.1703  144.1104  161.1975 C   0  0  0  0  0  0  0  0  0  0  0  0
  152.7901  143.5255  162.3184 C   0  0  0  0  0  0  0  0  0  0  0  0
  153.4316  142.2813  162.1567 C   0  0  0  0  0  0  0  0  0  0  0  0
  153.4801  141.6194  160.9807 N   0  0  0  0  0  0  0  0  0  0  0  0
  152.8831  142.1870  159.9108 C   0  0  0  0  0  0  0  0  0  0  0  0
  153.7236  137.3677  156.5749 H   0  0  0  0  0  0  0  0  0  0  0  0
  152.0177  137.1058  157.0001 H   0  0  0  0  0  0  0  0  0  0  0  0
  152.8135  138.6420  157.4193 H   0  0  0  0  0  0  0  0  0  0  0  0
  149.7575  138.4069  153.7889 H   0  0  0  0  0  0  0  0  0  0  0  0
  149.0902  137.9640  155.3626 H   0  0  0  0  0  0  0  0  0  0  0  0
  147.8830  139.8892  153.8154 H   0  0  0  0  0  0  0  0  0  0  0  0
  147.9505  140.0496  155.5713 H   0  0  0  0  0  0  0  0  0  0  0  0
  149.8575  141.2604  153.5405 H   0  0  0  0  0  0  0  0  0  0  0  0
  149.0144  142.1024  154.8280 H   0  0  0  0  0  0  0  0  0  0  0  0
  151.5895  141.1960  155.0654 H   0  0  0  0  0  0  0  0  0  0  0  0
  150.3873  143.1900  156.2109 H   0  0  0  0  0  0  0  0  0  0  0  0
  149.4666  144.0703  158.2247 H   0  0  0  0  0  0  0  0  0  0  0  0
  149.9614  142.6360  159.1041 H   0  0  0  0  0  0  0  0  0  0  0  0
  152.2876  143.9748  157.8983 H   0  0  0  0  0  0  0  0  0  0  0  0
  151.3874  145.0886  158.8931 H   0  0  0  0  0  0  0  0  0  0  0  0
  151.6714  145.0646  161.2838 H   0  0  0  0  0  0  0  0  0  0  0  0
  152.7754  144.0187  163.2790 H   0  0  0  0  0  0  0  0  0  0  0  0
  153.9180  141.8046  162.9948 H   0  0  0  0  0  0  0  0  0  0  0  0
  152.9433  141.6333  158.9853 H   0  0  0  0  0  0  0  0  0  0  0  0
  1  2  1  0  0  0  0
  1 21  1  0  0  0  0
  1 22  1  0  0  0  0
  1 23  1  0  0  0  0
  2  3  2  0  0  0  0
  2  4  2  0  0  0  0
  2  5  1  0  0  0  0
  5  9  1  0  0  0  0
  5  6  1  0  0  0  0
  6  7  1  0  0  0  0
  6 24  1  0  0  0  0
  6 25  1  0  0  0  0
  7  8  1  0  0  0  0
  7 26  1  0  0  0  0
  7 27  1  0  0  0  0
  8  9  1  0  0  0  0
  8 28  1  0  0  0  0
  8 29  1  0  0  0  0
  9 10  1  0  0  0  0
  9 30  1  0  0  0  0
 10 11  2  0  0  0  0
 10 12  1  0  0  0  0
 12 13  1  0  0  0  0
 12 31  1  0  0  0  0
 13 14  1  0  0  0  0
 13 32  1  0  0  0  0
 13 33  1  0  0  0  0
 14 15  1  0  0  0  0
 14 34  1  0  0  0  0
 14 35  1  0  0  0  0
 15 20  1  0  0  0  0
 15 16  2  0  0  0  0
 16 17  1  0  0  0  0
 16 36  1  0  0  0  0
 17 18  2  0  0  0  0
 17 37  1  0  0  0  0
 18 19  1  0  0  0  0
 18 38  1  0  0  0  0
 19 20  2  0  0  0  0
 20 39  1  0  0  0  0
M  END
> <s_m_source_file>
AV-unprocessed.smi

> <i_m_source_file_index>
1203

> <i_lp_mmshare_version>
43012

> <i_f3d_flags>
0

> <s_epik_input>
W0NIM11TKD1PKSg9TylOMVtDSDJdW0NIMl1bQ0gyXVtDQEhdMUMoPU8pW05IXVtDSDJdW0NIMl1jMltjSF1bY0hdW2NIXW5bY0hdMg==

> <s_epik_cmdline>
J2VwaWtfcHl0aG9uJywgJy1waCcsICc3LjAnLCAnLXRuJywgJzgnLCAnLW1hJywgJzIwMCcsICctbWV0YWxfYmluZGluZycsICctaW1hZScsICc8aW5maWxlLm1hZT4nLCAnLW9tYWUnLCAnPG91dGZpbGUubWFlPic=

> <r_epik_Ionization_Penalty>
0.0126915

> <r_epik_Ionization_Penalty_Charging>
0

> <r_epik_Ionization_Penalty_Neutral>
0.0126915

> <r_epik_State_Penalty>
0.0098379

> <r_epik_Charging_Adjusted_Penalty>
0.0098379

> <i_epik_Tot_Q>
0

> <i_epik_Tot_abs_Q>
0

> <r_epik_Metal_State_Penalty>
0.00962905

> <b_epik_Metal_Only>
0

> <s_lp_Force_Field>
OPLS_2005

> <r_lp_Energy>
6.50252

> <b_lp_Chiralities_Consistent>
1

> <s_lp_Variant>
AV-unprocessed.smi:1203-1

> <Gold.Version>
5.8.1

> <Gold.Id.Protein>
6NUR|6NUR_protein|mol2

> <Gold.PLP.Fitness>
51.6980

> <Gold.PLP.PLP>
-46.0324

> <Gold.PLP.part.hbond>
-4.0000

> <Gold.PLP.part.metal>
0.0000

> <Gold.PLP.part.buried>
-4.9734

> <Gold.PLP.part.nonpolar>
-36.2725

> <Gold.PLP.part.repulsive>
0.4330

> <Gold.PLP.ligand.clash>
0.0000

> <Gold.PLP.ligand.torsion>
0.9498

> <Gold.PLP.Chemscore.Hbond>
2.3479

> <Gold.PLP.Chemscore.CHOScore>
0.0000

> <Gold.PLP.Chemscore.Metal>
0.0000

> <Gold.Chemscore.Hbonds>
donor molecule, donor type, donor heavy atom, donor atom, acceptor molecule, acceptor atom, score
      L1  H    12    31       P1  8028  0.30
      P1  H  7989  7998       L1     3  0.08
      P1  H  7997  8009       L1     3  1.00
      P1  H 10752 10765       L1     4  0.94

> <Gold.PLP.Chemscore.Internal.Correction>
0.5215

> <Gold.Rescore>
     Score         DG    S(hbond)    S(metal)    S(lipo)     H(rot)  DE(clash)    DE(int)     intcor
     19.08     -20.78       2.25        0.00     108.22       1.90       0.77       0.93       ----

> <Gold.Chemscore.Fitness>
19.0811

> <Gold.Chemscore.DG>
-20.7801

> <Gold.Chemscore.ZeroCoef>
-5.4800

> <Gold.Chemscore.Hbond>
2.2454

> <Gold.Chemscore.Metal>
0.0000

> <Gold.Chemscore.Lipo>
108.2209

> <Gold.Chemscore.Internal_Hbond>
0.0000

> <Gold.Chemscore.DEClash>
0.7674

> <Gold.Chemscore.DEInternal>
0.9315

> <Gold.Chemscore.Rot>
1.8990

> <Gold.Chemscore.Internal.Correction>
   9.000000E+99

> <Gold.Chemscore.Hbonds>
donor molecule, donor type, donor heavy atom, donor atom, acceptor molecule, acceptor atom, score
      L1  H    12    31       P1  8028  0.30
      P1  H  7989  7998       L1     3  0.01
      P1  H  7997  8009       L1     3  0.99
      P1  H 10752 10765       L1     4  0.85

> <Gold.Chemscore.Hbond.Weighted>
-7.4995

> <Gold.Chemscore.Metal.Weighted>
-0.0000

> <Gold.Chemscore.Lipo.Weighted>
-12.6618

> <Gold.Chemscore.Internal_Hbond.Weighted>
0.0000

> <Gold.Chemscore.DEClash.Weighted>
0.7674

> <Gold.Chemscore.DEInternal.Weighted>
0.9315

> <Gold.Chemscore.Rot.Weighted>
4.8613

> <Gold.Chemscore.Internal.Correction.Weighted>
   9.000000E+99

> <Gold.Protein.RotatedTorsions>
[ 6907 6896 6895 6894 ] final   80.39 input  -60.11 | X-H torsion
[ 7974 7965 7964 7962 ] final  125.59 input  175.53 | X-H torsion
[ 8008 7997 7996 7995 ] final -113.95 input   59.86 | X-H torsion
[ 10167 10162 10161 10158 ] final  -34.18 input  -65.29 | X-H torsion
[ 10718 10713 10712 10709 ] final   40.41 input   66.30 | X-H torsion
[ 10763 10752 10751 10750 ] final  156.15 input  -60.55 | X-H torsion
[ 11005 11000 10999 10996 ] final  175.87 input  -57.11 | X-H torsion

> <Gold.Protein.ActiveResidues>
 VAL166  LYS551  ARG553  GLY616  TRP617  ASP618  TYR619  PRO620  LYS621  CYS622 
 ASP623  PHE694  ASN695  SER759  ASP760  ASP761  ALA762  ILE779  LEU786  VAL792 
 PHE793  MET794  SER795  GLU796  ALA797  LYS798  CYS799  TRP800  GLU811  SER814 

> <Gold.Protein.RotatedAtoms>
  152.5233  134.3366  159.9201 H   0  0  0  0  0  0  0  0  0  0  0  0  # atno 6907 bound_to 6896
  151.3315  133.3992  159.2670 H   0  0  0  0  0  0  0  0  0  0  0  0  # atno 6908 bound_to 6896
  150.9877  134.9236  159.7939 H   0  0  0  0  0  0  0  0  0  0  0  0  # atno 6909 bound_to 6896
  145.0713  139.3728  143.4956 H   0  0  0  0  0  0  0  0  0  0  0  0  # atno 7974 bound_to 7965
  155.0287  140.0393  157.2465 H   0  0  0  0  0  0  0  0  0  0  0  0  # atno 8008 bound_to 7997
  154.7315  140.2731  155.6428 H   0  0  0  0  0  0  0  0  0  0  0  0  # atno 8009 bound_to 7997
  156.2842  140.2683  156.2016 H   0  0  0  0  0  0  0  0  0  0  0  0  # atno 8010 bound_to 7997
  140.7190  143.3566  151.2047 H   0  0  0  0  0  0  0  0  0  0  0  0  # atno 10167 bound_to 10162
  157.3818  130.7758  149.7199 H   0  0  0  0  0  0  0  0  0  0  0  0  # atno 10718 bound_to 10713
  154.1797  135.2800  155.3056 H   0  0  0  0  0  0  0  0  0  0  0  0  # atno 10763 bound_to 10752
  154.6012  135.5529  153.7380 H   0  0  0  0  0  0  0  0  0  0  0  0  # atno 10764 bound_to 10752
  153.0141  135.6392  154.1936 H   0  0  0  0  0  0  0  0  0  0  0  0  # atno 10765 bound_to 10752
  140.3669  134.7064  157.4367 H   0  0  0  0  0  0  0  0  0  0  0  0  # atno 11005 bound_to 11000
  146.3529  140.0458  142.8639 LP  0  0  0  0  0  0  0  0  0  0  0  0  # atno 17320 bound_to 7965
  145.1289  140.9506  143.4556 LP  0  0  0  0  0  0  0  0  0  0  0  0  # atno 17321 bound_to 7965
  139.7109  143.9378  152.2947 LP  0  0  0  0  0  0  0  0  0  0  0  0  # atno 17342 bound_to 10162
  139.9103  144.6860  150.8569 LP  0  0  0  0  0  0  0  0  0  0  0  0  # atno 17343 bound_to 10162
  155.9777  130.4059  150.3692 LP  0  0  0  0  0  0  0  0  0  0  0  0  # atno 17370 bound_to 10713
  157.1797  131.0389  151.2754 LP  0  0  0  0  0  0  0  0  0  0  0  0  # atno 17371 bound_to 10713
  140.0582  134.6033  155.8779 LP  0  0  0  0  0  0  0  0  0  0  0  0  # atno 17394 bound_to 11000
  141.1967  133.6593  156.5704 LP  0  0  0  0  0  0  0  0  0  0  0  0  # atno 17395 bound_to 11000

$$$$
