AV-unprocessed.smi:3314|AV-procd|sdf|12745|dock1
  -GOLD-   2272019 83D 1   1.00000     0.00000
 Structure written by MMmdl.
 37 38  0  0  0  0  0  0  0  0  3 V2000
  151.7019  145.6473  159.9463 C   0  0  0  0  0  0  0  0  0  0  0  0
  151.9873  144.2101  159.5652 C   0  0  0  0  0  0  0  0  0  0  0  0
  152.7685  143.3831  160.3947 C   0  0  0  0  0  0  0  0  0  0  0  0
  152.9988  142.0569  159.9802 C   0  0  0  0  0  0  0  0  0  0  0  0
  153.8286  141.1162  160.8285 C   0  0  0  0  0  0  0  0  0  0  0  0
  152.5029  141.5451  158.8327 N   0  0  0  0  0  0  0  0  0  0  0  0
  151.7451  142.3289  158.0291 C   0  0  0  0  0  0  0  0  0  0  0  0
  151.2686  141.8107  156.8883 N   0  5  0  0  0  0  0  0  0  0  0  0
  151.5770  140.5374  156.5422 C   0  0  0  0  0  0  0  0  0  0  0  0
  152.5940  139.8945  156.8110 O   0  0  0  0  0  0  0  0  0  0  0  0
  150.4541  139.8908  155.6998 C   0  0  2  0  0  0  0  0  0  0  0  0
  149.7992  138.6510  156.3543 C   0  0  0  0  0  0  0  0  0  0  0  0
  150.7372  137.5033  156.3759 N   0  3  1  0  0  0  0  0  0  0  0  0
  150.1766  136.3192  157.0598 C   0  0  0  0  0  0  0  0  0  0  0  0
  151.2288  137.1989  155.0135 C   0  0  0  0  0  0  0  0  0  0  0  0
  151.8644  138.4488  154.3833 C   0  0  0  0  0  0  0  0  0  0  0  0
  150.9241  139.5224  154.3967 O   0  0  0  0  0  0  0  0  0  0  0  0
  151.4739  143.6751  158.3669 C   0  0  0  0  0  0  0  0  0  0  0  0
  152.0440  145.8645  160.9586 H   0  0  0  0  0  0  0  0  0  0  0  0
  150.6309  145.8456  159.8990 H   0  0  0  0  0  0  0  0  0  0  0  0
  152.2083  146.3262  159.2600 H   0  0  0  0  0  0  0  0  0  0  0  0
  153.1805  143.7537  161.3217 H   0  0  0  0  0  0  0  0  0  0  0  0
  154.5919  141.6655  161.3804 H   0  0  0  0  0  0  0  0  0  0  0  0
  154.3297  140.3698  160.2108 H   0  0  0  0  0  0  0  0  0  0  0  0
  153.1917  140.5977  161.5453 H   0  0  0  0  0  0  0  0  0  0  0  0
  149.6821  140.6496  155.5637 H   0  0  0  0  0  0  0  0  0  0  0  0
  149.4728  138.8836  157.3691 H   0  0  0  0  0  0  0  0  0  0  0  0
  148.9029  138.3735  155.7973 H   0  0  0  0  0  0  0  0  0  0  0  0
  149.2954  135.9456  156.5369 H   0  0  0  0  0  0  0  0  0  0  0  0
  149.8905  136.5666  158.0825 H   0  0  0  0  0  0  0  0  0  0  0  0
  150.9144  135.5175  157.1051 H   0  0  0  0  0  0  0  0  0  0  0  0
  151.9621  136.3929  155.0561 H   0  0  0  0  0  0  0  0  0  0  0  0
  150.4007  136.8486  154.3954 H   0  0  0  0  0  0  0  0  0  0  0  0
  152.7845  138.7216  154.9017 H   0  0  0  0  0  0  0  0  0  0  0  0
  152.1430  138.2435  153.3497 H   0  0  0  0  0  0  0  0  0  0  0  0
  150.8736  144.2912  157.7129 H   0  0  0  0  0  0  0  0  0  0  0  0
  151.5387  137.8005  156.9154 H   0  0  0  0  0  0  0  0  0  0  0  0
  1  2  1  0  0  0  0
  1 19  1  0  0  0  0
  1 20  1  0  0  0  0
  1 21  1  0  0  0  0
  2 18  2  0  0  0  0
  2  3  1  0  0  0  0
  3  4  2  0  0  0  0
  3 22  1  0  0  0  0
  4  5  1  0  0  0  0
  4  6  1  0  0  0  0
  5 23  1  0  0  0  0
  5 24  1  0  0  0  0
  5 25  1  0  0  0  0
  6  7  2  0  0  0  0
  7  8  1  0  0  0  0
  7 18  1  0  0  0  0
  8  9  1  0  0  0  0
  9 10  2  0  0  0  0
  9 11  1  0  0  0  0
 11 17  1  0  0  0  0
 11 12  1  0  0  0  0
 11 26  1  0  0  0  0
 12 13  1  0  0  0  0
 12 27  1  0  0  0  0
 12 28  1  0  0  0  0
 13 14  1  0  0  0  0
 13 15  1  0  0  0  0
 13 37  1  0  0  0  0
 14 29  1  0  0  0  0
 14 30  1  0  0  0  0
 14 31  1  0  0  0  0
 15 16  1  0  0  0  0
 15 32  1  0  0  0  0
 15 33  1  0  0  0  0
 16 17  1  0  0  0  0
 16 34  1  0  0  0  0
 16 35  1  0  0  0  0
 18 36  1  0  0  0  0
M  CHG  1   8  -1
M  CHG  1  13   1
M  END
> <s_m_source_file>
AV-unprocessed.smi

> <i_m_source_file_index>
3314

> <i_lp_mmshare_version>
43012

> <i_f3d_flags>
0

> <s_epik_input>
W0NIM11jMVtjSF1jKFtDSDNdKW5jKFtjSF0xKVtOSF1DKD1PKVtDQEBIXTJbQ0gyXU4oW0NIM10pW0NIMl1bQ0gyXU8y

> <s_epik_cmdline>
J2VwaWtfcHl0aG9uJywgJy1waCcsICc3LjAnLCAnLXRuJywgJzgnLCAnLW1hJywgJzIwMCcsICctbWV0YWxfYmluZGluZycsICctaW1hZScsICc8aW5maWxlLm1hZT4nLCAnLW9tYWUnLCAnPG91dGZpbGUubWFlPic=

> <r_epik_Ionization_Penalty>
13.8964

> <r_epik_Ionization_Penalty_Charging>
7.88995

> <r_epik_Ionization_Penalty_Neutral>
6.00641

> <r_epik_State_Penalty>
8.39989

> <r_epik_Charging_Adjusted_Penalty>
16.2898

> <i_epik_Tot_Q>
0

> <i_epik_Tot_abs_Q>
2

> <r_epik_Metal_State_Penalty>
4.31145

> <b_epik_Metal_Only>
1

> <s_lp_Force_Field>
OPLS_2005

> <r_lp_Energy>
7.08272

> <b_lp_Chiralities_Consistent>
1

> <s_lp_Variant>
AV-unprocessed.smi:3314-15

> <Gold.Version>
5.8.1

> <Gold.Id.Protein>
6NUR|6NUR_protein|mol2

> <Gold.PLP.Fitness>
43.4640

> <Gold.PLP.PLP>
-37.7804

> <Gold.PLP.part.hbond>
-2.0000

> <Gold.PLP.part.metal>
0.0000

> <Gold.PLP.part.buried>
-4.2299

> <Gold.PLP.part.nonpolar>
-30.6584

> <Gold.PLP.part.repulsive>
0.2137

> <Gold.PLP.ligand.clash>
0.0000

> <Gold.PLP.ligand.torsion>
0.1912

> <Gold.PLP.Chemscore.Hbond>
2.0000

> <Gold.PLP.Chemscore.CHOScore>
0.0000

> <Gold.PLP.Chemscore.Metal>
0.0000

> <Gold.Chemscore.Hbonds>
donor molecule, donor type, donor heavy atom, donor atom, acceptor molecule, acceptor atom, score
      P1  H  7989  7998       L1    17  1.00
      P1  H  7997  8009       L1    10  1.00

> <Gold.PLP.Chemscore.Internal.Correction>
0.0660

> <Gold.Rescore>
     Score         DG    S(hbond)    S(metal)    S(lipo)     H(rot)  DE(clash)    DE(int)     intcor
     16.56     -19.65       1.64        0.00      96.09       1.00       0.02       3.08       ----

> <Gold.Chemscore.Fitness>
16.5580

> <Gold.Chemscore.DG>
-19.6517

> <Gold.Chemscore.ZeroCoef>
-5.4800

> <Gold.Chemscore.Hbond>
1.6433

> <Gold.Chemscore.Metal>
0.0000

> <Gold.Chemscore.Lipo>
96.0949

> <Gold.Chemscore.Internal_Hbond>
0.0000

> <Gold.Chemscore.DEClash>
0.0153

> <Gold.Chemscore.DEInternal>
3.0784

> <Gold.Chemscore.Rot>
1.0000

> <Gold.Chemscore.Internal.Correction>
   9.000000E+99

> <Gold.Chemscore.Hbonds>
donor molecule, donor type, donor heavy atom, donor atom, acceptor molecule, acceptor atom, score
      P1  H  7989  7998       L1    17  0.53
      P1  H  7997  8009       L1    10  0.99

> <Gold.Chemscore.Hbond.Weighted>
-5.4886

> <Gold.Chemscore.Metal.Weighted>
-0.0000

> <Gold.Chemscore.Lipo.Weighted>
-11.2431

> <Gold.Chemscore.Internal_Hbond.Weighted>
0.0000

> <Gold.Chemscore.DEClash.Weighted>
0.0153

> <Gold.Chemscore.DEInternal.Weighted>
3.0784

> <Gold.Chemscore.Rot.Weighted>
2.5600

> <Gold.Chemscore.Internal.Correction.Weighted>
   9.000000E+99

> <Gold.Protein.RotatedTorsions>
[ 6907 6896 6895 6894 ] final  -96.52 input  -60.11 | X-H torsion
[ 7974 7965 7964 7962 ] final   91.39 input  175.53 | X-H torsion
[ 8008 7997 7996 7995 ] final -163.11 input   59.86 | X-H torsion
[ 10167 10162 10161 10158 ] final  136.25 input  -65.29 | X-H torsion
[ 10718 10713 10712 10709 ] final -103.50 input   66.30 | X-H torsion
[ 10763 10752 10751 10750 ] final  139.87 input  -60.55 | X-H torsion
[ 11005 11000 10999 10996 ] final -163.38 input  -57.11 | X-H torsion

> <Gold.Protein.ActiveResidues>
 VAL166  LYS551  ARG553  GLY616  TRP617  ASP618  TYR619  PRO620  LYS621  CYS622 
 ASP623  PHE694  ASN695  SER759  ASP760  ASP761  ALA762  ILE779  LEU786  VAL792 
 PHE793  MET794  SER795  GLU796  ALA797  LYS798  CYS799  TRP800  GLU811  SER814 

> <Gold.Protein.RotatedAtoms>
  150.6991  134.1491  159.4133 H   0  0  0  0  0  0  0  0  0  0  0  0  # atno 6907 bound_to 6896
  151.9474  135.0183  160.0549 H   0  0  0  0  0  0  0  0  0  0  0  0  # atno 6908 bound_to 6896
  152.2041  133.4827  159.5111 H   0  0  0  0  0  0  0  0  0  0  0  0  # atno 6909 bound_to 6896
  145.5063  139.2276  143.2749 H   0  0  0  0  0  0  0  0  0  0  0  0  # atno 7974 bound_to 7965
  155.8166  140.0913  157.1873 H   0  0  0  0  0  0  0  0  0  0  0  0  # atno 8008 bound_to 7997
  154.3979  140.1444  156.3509 H   0  0  0  0  0  0  0  0  0  0  0  0  # atno 8009 bound_to 7997
  155.8310  140.3442  155.5575 H   0  0  0  0  0  0  0  0  0  0  0  0  # atno 8010 bound_to 7997
  139.5187  144.6474  151.5399 H   0  0  0  0  0  0  0  0  0  0  0  0  # atno 10167 bound_to 10162
  156.0268  130.5470  150.7262 H   0  0  0  0  0  0  0  0  0  0  0  0  # atno 10718 bound_to 10713
  153.9132  135.3009  155.3448 H   0  0  0  0  0  0  0  0  0  0  0  0  # atno 10763 bound_to 10752
  154.7613  135.4933  153.9472 H   0  0  0  0  0  0  0  0  0  0  0  0  # atno 10764 bound_to 10752
  153.1181  135.6775  153.9484 H   0  0  0  0  0  0  0  0  0  0  0  0  # atno 10765 bound_to 10752
  140.5987  134.4970  157.5202 H   0  0  0  0  0  0  0  0  0  0  0  0  # atno 11005 bound_to 11000
  146.2194  140.5867  142.9024 LP  0  0  0  0  0  0  0  0  0  0  0  0  # atno 17320 bound_to 7965
  144.7752  140.5723  143.6643 LP  0  0  0  0  0  0  0  0  0  0  0  0  # atno 17321 bound_to 7965
  140.6265  143.9158  150.6569 LP  0  0  0  0  0  0  0  0  0  0  0  0  # atno 17342 bound_to 10162
  140.2449  143.3636  152.1455 LP  0  0  0  0  0  0  0  0  0  0  0  0  # atno 17343 bound_to 10162
  157.4866  131.0907  151.0475 LP  0  0  0  0  0  0  0  0  0  0  0  0  # atno 17370 bound_to 10713
  157.0894  130.5936  149.5436 LP  0  0  0  0  0  0  0  0  0  0  0  0  # atno 17371 bound_to 10713
  139.9242  134.8089  156.1119 LP  0  0  0  0  0  0  0  0  0  0  0  0  # atno 17394 bound_to 11000
  141.0887  133.6723  156.2492 LP  0  0  0  0  0  0  0  0  0  0  0  0  # atno 17395 bound_to 11000

$$$$
