AV-unprocessed.smi:1180|AV-procd|sdf|4965|dock6
  -GOLD-   22720 3553D 1   1.00000     0.00000
 Structure written by MMmdl.
 37 38  0  0  0  0  0  0  0  0  2 V2000
  150.3114  142.7614  157.4301 C   0  0  0  0  0  0  0  0  0  0  0  0
  150.3953  141.5519  156.5237 C   0  0  0  0  0  0  0  0  0  0  0  0
  149.4116  141.2768  155.7547 N   0  0  0  0  0  0  0  0  0  0  0  0
  149.4848  140.1550  154.9115 C   0  0  0  0  0  0  0  0  0  0  0  0
  148.2723  139.9068  154.0313 C   0  0  0  0  0  0  0  0  0  0  0  0
  150.5872  139.3521  154.8995 C   0  0  0  0  0  0  0  0  0  0  0  0
  150.7175  138.1217  154.0019 C   0  0  0  0  0  0  0  0  0  0  0  0
  150.8521  136.7843  154.7312 C   0  0  0  0  0  0  0  0  0  0  0  0
  151.5878  136.6895  155.7134 O   0  0  0  0  0  0  0  0  0  0  0  0
  150.1279  135.7637  154.2463 N   0  0  0  0  0  0  0  0  0  0  0  0
  150.1112  134.4048  154.7767 C   0  0  0  0  0  0  0  0  0  0  0  0
  149.5871  133.3901  153.7432 C   0  0  1  0  0  0  0  0  0  0  0  0
  149.6821  131.9489  154.2001 C   0  0  0  0  0  0  0  0  0  0  0  0
  148.7160  131.2500  153.2478 C   0  0  0  0  0  0  0  0  0  0  0  0
  147.7107  132.2109  152.9376 O   0  0  0  0  0  0  0  0  0  0  0  0
  148.0936  133.4932  153.4259 C   0  0  0  0  0  0  0  0  0  0  0  0
  151.6955  139.6988  155.8076 C   0  0  0  0  0  0  0  0  0  0  0  0
  152.7037  138.9946  155.8526 O   0  0  0  0  0  0  0  0  0  0  0  0
  151.5510  140.8066  156.5892 N   0  5  0  0  0  0  0  0  0  0  0  0
  149.4118  143.3443  157.2268 H   0  0  0  0  0  0  0  0  0  0  0  0
  151.1767  143.4082  157.2814 H   0  0  0  0  0  0  0  0  0  0  0  0
  150.2880  142.4485  158.4743 H   0  0  0  0  0  0  0  0  0  0  0  0
  147.8667  138.9106  154.2073 H   0  0  0  0  0  0  0  0  0  0  0  0
  148.5404  139.9930  152.9784 H   0  0  0  0  0  0  0  0  0  0  0  0
  147.4815  140.6293  154.2357 H   0  0  0  0  0  0  0  0  0  0  0  0
  149.8442  138.0712  153.3513 H   0  0  0  0  0  0  0  0  0  0  0  0
  151.5599  138.2295  153.3180 H   0  0  0  0  0  0  0  0  0  0  0  0
  149.5533  135.9422  153.4343 H   0  0  0  0  0  0  0  0  0  0  0  0
  151.1346  134.1479  155.0507 H   0  0  0  0  0  0  0  0  0  0  0  0
  149.5288  134.3546  155.6982 H   0  0  0  0  0  0  0  0  0  0  0  0
  150.1512  133.4941  152.8146 H   0  0  0  0  0  0  0  0  0  0  0  0
  150.6946  131.5473  154.1470 H   0  0  0  0  0  0  0  0  0  0  0  0
  149.3292  131.8512  155.2281 H   0  0  0  0  0  0  0  0  0  0  0  0
  149.2255  130.9728  152.3242 H   0  0  0  0  0  0  0  0  0  0  0  0
  148.2857  130.3469  153.6813 H   0  0  0  0  0  0  0  0  0  0  0  0
  147.5194  133.6988  154.3304 H   0  0  0  0  0  0  0  0  0  0  0  0
  147.8730  134.2767  152.7006 H   0  0  0  0  0  0  0  0  0  0  0  0
  1  2  1  0  0  0  0
  1 20  1  0  0  0  0
  1 21  1  0  0  0  0
  1 22  1  0  0  0  0
  2 19  1  0  0  0  0
  2  3  2  0  0  0  0
  3  4  1  0  0  0  0
  4  5  1  0  0  0  0
  4  6  2  0  0  0  0
  5 23  1  0  0  0  0
  5 24  1  0  0  0  0
  5 25  1  0  0  0  0
  6  7  1  0  0  0  0
  6 17  1  0  0  0  0
  7  8  1  0  0  0  0
  7 26  1  0  0  0  0
  7 27  1  0  0  0  0
  8  9  2  0  0  0  0
  8 10  1  0  0  0  0
 10 11  1  0  0  0  0
 10 28  1  0  0  0  0
 11 12  1  0  0  0  0
 11 29  1  0  0  0  0
 11 30  1  0  0  0  0
 12 16  1  0  0  0  0
 12 13  1  0  0  0  0
 12 31  1  0  0  0  0
 13 14  1  0  0  0  0
 13 32  1  0  0  0  0
 13 33  1  0  0  0  0
 14 15  1  0  0  0  0
 14 34  1  0  0  0  0
 14 35  1  0  0  0  0
 15 16  1  0  0  0  0
 16 36  1  0  0  0  0
 16 37  1  0  0  0  0
 17 18  2  0  0  0  0
 17 19  1  0  0  0  0
M  CHG  1  19  -1
M  END
> <s_m_source_file>
AV-unprocessed.smi

> <i_m_source_file_index>
1180

> <i_lp_mmshare_version>
43012

> <i_f3d_flags>
0

> <s_epik_input>
W0NIM11jMW5jKFtDSDNdKWMoYyg9TylbbkhdMSlbQ0gyXUMoPU8pW05IXVtDSDJdW0NAQEhdMltDSDJdW0NIMl1PW0NIMl0y

> <s_epik_cmdline>
J2VwaWtfcHl0aG9uJywgJy1waCcsICc3LjAnLCAnLXRuJywgJzgnLCAnLW1hJywgJzIwMCcsICctbWV0YWxfYmluZGluZycsICctaW1hZScsICc8aW5maWxlLm1hZT4nLCAnLW9tYWUnLCAnPG91dGZpbGUubWFlPic=

> <r_lp_tautomer_probability>
0.839158

> <r_epik_Ionization_Penalty>
6.60319

> <r_epik_Ionization_Penalty_Charging>
6.85407e-08

> <r_epik_Ionization_Penalty_Neutral>
6.60319

> <r_epik_State_Penalty>
4.42883

> <r_epik_Charging_Adjusted_Penalty>
4.42883

> <i_epik_Tot_Q>
-1

> <i_epik_Tot_abs_Q>
1

> <r_epik_Metal_State_Penalty>
0.797578

> <b_epik_Metal_Only>
1

> <s_lp_Force_Field>
OPLS_2005

> <r_lp_Energy>
23.195

> <b_lp_Chiralities_Consistent>
1

> <s_lp_Variant>
AV-unprocessed.smi:1180-6

> <Gold.Version>
5.8.1

> <Gold.Id.Protein>
6NUR|6NUR_protein|mol2

> <Gold.PLP.Fitness>
43.7206

> <Gold.PLP.PLP>
-35.6614

> <Gold.PLP.part.hbond>
-4.1301

> <Gold.PLP.part.metal>
0.0000

> <Gold.PLP.part.buried>
-1.1009

> <Gold.PLP.part.nonpolar>
-30.9627

> <Gold.PLP.part.repulsive>
0.2967

> <Gold.PLP.ligand.clash>
0.0000

> <Gold.PLP.ligand.torsion>
0.4023

> <Gold.PLP.Chemscore.Hbond>
2.9500

> <Gold.PLP.Chemscore.CHOScore>
0.0000

> <Gold.PLP.Chemscore.Metal>
0.0000

> <Gold.Chemscore.Hbonds>
donor molecule, donor type, donor heavy atom, donor atom, acceptor molecule, acceptor atom, score
      L1  H    10    28       P1  7948  1.00
      P1  H  7997  8009       L1    18  0.98
      P1  H 10752 10764       L1     9  0.82

> <Gold.PLP.Chemscore.Internal.Correction>
0.0137

> <Gold.Rescore>
     Score         DG    S(hbond)    S(metal)    S(lipo)     H(rot)  DE(clash)    DE(int)     intcor
     14.28     -16.03       2.42        0.00      59.48       1.76       0.06       1.69       ----

> <Gold.Chemscore.Fitness>
14.2789

> <Gold.Chemscore.DG>
-16.0274

> <Gold.Chemscore.ZeroCoef>
-5.4800

> <Gold.Chemscore.Hbond>
2.4215

> <Gold.Chemscore.Metal>
0.0000

> <Gold.Chemscore.Lipo>
59.4815

> <Gold.Chemscore.Internal_Hbond>
0.0000

> <Gold.Chemscore.DEClash>
0.0565

> <Gold.Chemscore.DEInternal>
1.6919

> <Gold.Chemscore.Rot>
1.7577

> <Gold.Chemscore.Internal.Correction>
   9.000000E+99

> <Gold.Chemscore.Hbonds>
donor molecule, donor type, donor heavy atom, donor atom, acceptor molecule, acceptor atom, score
      L1  H    10    28       P1  7948  0.26
      P1  H  7997  8009       L1    18  0.71
      P1  H 10752 10764       L1     9  0.39

> <Gold.Chemscore.Hbond.Weighted>
-8.0878

> <Gold.Chemscore.Metal.Weighted>
-0.0000

> <Gold.Chemscore.Lipo.Weighted>
-6.9593

> <Gold.Chemscore.Internal_Hbond.Weighted>
0.0000

> <Gold.Chemscore.DEClash.Weighted>
0.0565

> <Gold.Chemscore.DEInternal.Weighted>
1.6919

> <Gold.Chemscore.Rot.Weighted>
4.4998

> <Gold.Chemscore.Internal.Correction.Weighted>
   9.000000E+99

> <Gold.Protein.RotatedTorsions>
[ 6907 6896 6895 6894 ] final -143.13 input  -60.11 | X-H torsion
[ 7974 7965 7964 7962 ] final  -24.41 input  175.53 | X-H torsion
[ 8008 7997 7996 7995 ] final -164.02 input   59.86 | X-H torsion
[ 10167 10162 10161 10158 ] final  133.07 input  -65.29 | X-H torsion
[ 10718 10713 10712 10709 ] final   -1.76 input   66.30 | X-H torsion
[ 10763 10752 10751 10750 ] final  -25.92 input  -60.55 | X-H torsion
[ 11005 11000 10999 10996 ] final   57.99 input  -57.11 | X-H torsion

> <Gold.Protein.ActiveResidues>
 VAL166  LYS551  ARG553  GLY616  TRP617  ASP618  TYR619  PRO620  LYS621  CYS622 
 ASP623  PHE694  ASN695  SER759  ASP760  ASP761  ALA762  ILE779  LEU786  VAL792 
 PHE793  MET794  SER795  GLU796  ALA797  LYS798  CYS799  TRP800  GLU811  SER814 

> <Gold.Protein.RotatedAtoms>
  151.0963  133.5277  159.2612 H   0  0  0  0  0  0  0  0  0  0  0  0  # atno 6907 bound_to 6896
  151.2125  135.0486  159.8927 H   0  0  0  0  0  0  0  0  0  0  0  0  # atno 6908 bound_to 6896
  152.5439  134.0777  159.8275 H   0  0  0  0  0  0  0  0  0  0  0  0  # atno 6909 bound_to 6896
  146.1556  140.4748  142.8593 H   0  0  0  0  0  0  0  0  0  0  0  0  # atno 7974 bound_to 7965
  155.8296  140.0932  157.1800 H   0  0  0  0  0  0  0  0  0  0  0  0  # atno 8008 bound_to 7997
  154.3979  140.1421  156.3658 H   0  0  0  0  0  0  0  0  0  0  0  0  # atno 8009 bound_to 7997
  155.8180  140.3447  155.5499 H   0  0  0  0  0  0  0  0  0  0  0  0  # atno 8010 bound_to 7997
  139.5312  144.6633  151.4943 H   0  0  0  0  0  0  0  0  0  0  0  0  # atno 10167 bound_to 10162
  156.8008  130.5392  149.5722 H   0  0  0  0  0  0  0  0  0  0  0  0  # atno 10718 bound_to 10713
  153.7075  135.6952  153.5046 H   0  0  0  0  0  0  0  0  0  0  0  0  # atno 10763 bound_to 10752
  153.2296  135.4342  155.0580 H   0  0  0  0  0  0  0  0  0  0  0  0  # atno 10764 bound_to 10752
  154.8325  135.3481  154.6613 H   0  0  0  0  0  0  0  0  0  0  0  0  # atno 10765 bound_to 10752
  140.0411  134.5872  155.9381 H   0  0  0  0  0  0  0  0  0  0  0  0  # atno 11005 bound_to 11000
  144.7959  140.6121  143.6510 LP  0  0  0  0  0  0  0  0  0  0  0  0  # atno 17320 bound_to 7965
  145.4717  139.1503  143.3810 LP  0  0  0  0  0  0  0  0  0  0  0  0  # atno 17321 bound_to 7965
  140.6492  143.8732  150.6768 LP  0  0  0  0  0  0  0  0  0  0  0  0  # atno 17342 bound_to 10162
  140.2091  143.3897  152.1732 LP  0  0  0  0  0  0  0  0  0  0  0  0  # atno 17343 bound_to 10162
  156.1102  130.6035  151.0035 LP  0  0  0  0  0  0  0  0  0  0  0  0  # atno 17370 bound_to 10713
  157.6554  131.0890  150.7958 LP  0  0  0  0  0  0  0  0  0  0  0  0  # atno 17371 bound_to 10713
  141.1883  133.6562  156.5319 LP  0  0  0  0  0  0  0  0  0  0  0  0  # atno 17394 bound_to 11000
  140.4068  134.7308  157.4812 LP  0  0  0  0  0  0  0  0  0  0  0  0  # atno 17395 bound_to 11000

$$$$
