AV-unprocessed.smi:2817|AV-procd|sdf|10847|dock1
  -GOLD-   2272015293D 1   1.00000     0.00000
 Structure written by MMmdl.
 42 44  0  0  0  0  0  0  0  0  1 V2000
  150.5569  140.5746  154.3593 O   0  0  0  0  0  0  0  0  0  0  0  0
  151.0350  140.5266  155.4929 C   0  0  0  0  0  0  0  0  0  0  0  0
  150.9898  141.6607  156.4161 C   0  0  0  0  0  0  0  0  0  0  0  0
  151.5317  141.5696  157.6542 C   0  0  0  0  0  0  0  0  0  0  0  0
  151.5215  142.7409  158.6269 C   0  0  0  0  0  0  0  0  0  0  0  0
  151.3431  144.1345  158.0022 C   0  0  0  0  0  0  0  0  0  0  0  0
  152.3568  144.6537  159.0280 C   0  0  0  0  0  0  0  0  0  0  0  0
  152.8961  143.2221  159.1214 C   0  0  0  0  0  0  0  0  0  0  0  0
  152.1565  140.3890  158.0726 N   0  0  0  0  0  0  0  0  0  0  0  0
  152.2091  139.3705  157.2746 C   0  0  0  0  0  0  0  0  0  0  0  0
  151.6528  139.4121  155.9820 N   0  0  0  0  0  0  0  0  0  0  0  0
  151.7829  138.1885  155.1745 C   0  0  0  0  0  0  0  0  0  0  0  0
  150.4521  137.4097  155.0738 C   0  0  1  0  0  0  0  0  0  0  0  0
  149.7077  137.8429  153.9528 O   0  0  0  0  0  0  0  0  0  0  0  0
  150.6506  135.8895  154.9465 C   0  0  0  0  0  0  0  0  0  0  0  0
  149.4277  135.2685  154.5677 O   0  0  0  0  0  0  0  0  0  0  0  0
  149.4108  133.9000  154.4066 C   0  0  0  0  0  0  0  0  0  0  0  0
  150.3139  133.1532  155.1911 C   0  0  0  0  0  0  0  0  0  0  0  0
  150.3662  131.7496  155.0917 C   0  0  0  0  0  0  0  0  0  0  0  0
  149.5107  131.0755  154.2010 C   0  0  0  0  0  0  0  0  0  0  0  0
  148.6041  131.8078  153.4123 C   0  0  0  0  0  0  0  0  0  0  0  0
  148.5516  133.2117  153.5124 C   0  0  0  0  0  0  0  0  0  0  0  0
  150.5167  142.5781  156.0973 H   0  0  0  0  0  0  0  0  0  0  0  0
  150.8285  142.5739  159.4535 H   0  0  0  0  0  0  0  0  0  0  0  0
  151.7153  144.2051  156.9784 H   0  0  0  0  0  0  0  0  0  0  0  0
  150.3410  144.5534  158.0975 H   0  0  0  0  0  0  0  0  0  0  0  0
  153.0659  145.3857  158.6405 H   0  0  0  0  0  0  0  0  0  0  0  0
  151.8884  144.9918  159.9538 H   0  0  0  0  0  0  0  0  0  0  0  0
  153.1592  142.8972  160.1283 H   0  0  0  0  0  0  0  0  0  0  0  0
  153.7057  143.0373  158.4127 H   0  0  0  0  0  0  0  0  0  0  0  0
  152.6868  138.4287  157.5499 H   0  0  0  0  0  0  0  0  0  0  0  0
  152.1794  138.3966  154.1784 H   0  0  0  0  0  0  0  0  0  0  0  0
  152.5385  137.5500  155.6364 H   0  0  0  0  0  0  0  0  0  0  0  0
  149.8401  137.5904  155.9584 H   0  0  0  0  0  0  0  0  0  0  0  0
  149.7011  137.1509  153.3095 H   0  0  0  0  0  0  0  0  0  0  0  0
  151.3969  135.6979  154.1737 H   0  0  0  0  0  0  0  0  0  0  0  0
  151.0304  135.4768  155.8828 H   0  0  0  0  0  0  0  0  0  0  0  0
  150.9745  133.6629  155.8772 H   0  0  0  0  0  0  0  0  0  0  0  0
  151.0633  131.1911  155.6987 H   0  0  0  0  0  0  0  0  0  0  0  0
  149.5499  129.9990  154.1228 H   0  0  0  0  0  0  0  0  0  0  0  0
  147.9463  131.2921  152.7283 H   0  0  0  0  0  0  0  0  0  0  0  0
  147.8427  133.7376  152.8912 H   0  0  0  0  0  0  0  0  0  0  0  0
  1  2  2  0  0  0  0
  2 11  1  0  0  0  0
  2  3  1  0  0  0  0
  3  4  2  0  0  0  0
  3 23  1  0  0  0  0
  4  5  1  0  0  0  0
  4  9  1  0  0  0  0
  5  8  1  0  0  0  0
  5  6  1  0  0  0  0
  5 24  1  0  0  0  0
  6  7  1  0  0  0  0
  6 25  1  0  0  0  0
  6 26  1  0  0  0  0
  7  8  1  0  0  0  0
  7 27  1  0  0  0  0
  7 28  1  0  0  0  0
  8 29  1  0  0  0  0
  8 30  1  0  0  0  0
  9 10  2  0  0  0  0
 10 11  1  0  0  0  0
 10 31  1  0  0  0  0
 11 12  1  0  0  0  0
 12 13  1  0  0  0  0
 12 32  1  0  0  0  0
 12 33  1  0  0  0  0
 13 14  1  0  0  0  0
 13 15  1  0  0  0  0
 13 34  1  0  0  0  0
 14 35  1  0  0  0  0
 15 16  1  0  0  0  0
 15 36  1  0  0  0  0
 15 37  1  0  0  0  0
 16 17  1  0  0  0  0
 17 22  1  0  0  0  0
 17 18  2  0  0  0  0
 18 19  1  0  0  0  0
 18 38  1  0  0  0  0
 19 20  2  0  0  0  0
 19 39  1  0  0  0  0
 20 21  1  0  0  0  0
 20 40  1  0  0  0  0
 21 22  2  0  0  0  0
 21 41  1  0  0  0  0
 22 42  1  0  0  0  0
M  END
> <s_m_source_file>
AV-unprocessed.smi

> <i_m_source_file_index>
2817

> <i_lp_mmshare_version>
43012

> <i_f3d_flags>
0

> <s_epik_input>
W0NIMl0xW0NIMl1bQ0gyXVtDSF0xYyhbY0hdYzI9TyluW2NIXW4yW0NIMl1bQ0BIXShbT0hdKVtDSDJdT2MzW2NIXVtjSF1bY0hdW2NIXVtjSF0z

> <s_epik_cmdline>
J2VwaWtfcHl0aG9uJywgJy1waCcsICc3LjAnLCAnLXRuJywgJzgnLCAnLW1hJywgJzIwMCcsICctbWV0YWxfYmluZGluZycsICctaW1hZScsICc8aW5maWxlLm1hZT4nLCAnLW9tYWUnLCAnPG91dGZpbGUubWFlPic=

> <r_lp_tautomer_probability>
1

> <r_epik_Ionization_Penalty>
2.12778e-05

> <r_epik_Ionization_Penalty_Charging>
7.42033e-08

> <r_epik_Ionization_Penalty_Neutral>
2.12036e-05

> <r_epik_State_Penalty>
-0

> <r_epik_Charging_Adjusted_Penalty>
7.42033e-08

> <i_epik_Tot_Q>
0

> <i_epik_Tot_abs_Q>
0

> <r_epik_Metal_State_Penalty>
-0

> <b_epik_Metal_Only>
0

> <s_lp_Force_Field>
OPLS_2005

> <r_lp_Energy>
33.1228

> <b_lp_Chiralities_Consistent>
1

> <s_lp_Variant>
AV-unprocessed.smi:2817-2

> <Gold.Version>
5.8.1

> <Gold.Id.Protein>
6NUR|6NUR_protein|mol2

> <Gold.PLP.Fitness>
51.6014

> <Gold.PLP.PLP>
-47.8291

> <Gold.PLP.part.hbond>
-1.8128

> <Gold.PLP.part.metal>
0.0000

> <Gold.PLP.part.buried>
-4.1820

> <Gold.PLP.part.nonpolar>
-42.0258

> <Gold.PLP.part.repulsive>
0.6358

> <Gold.PLP.ligand.clash>
0.0000

> <Gold.PLP.ligand.torsion>
1.3610

> <Gold.PLP.Chemscore.Hbond>
1.9760

> <Gold.PLP.Chemscore.CHOScore>
0.0000

> <Gold.PLP.Chemscore.Metal>
0.0000

> <Gold.Chemscore.Hbonds>
donor molecule, donor type, donor heavy atom, donor atom, acceptor molecule, acceptor atom, score
      L1  H    14    35       P1  7948  1.00
      P1  H  7989  7998       L1     1  0.66

> <Gold.PLP.Chemscore.Internal.Correction>
0.5663

> <Gold.Rescore>
     Score         DG    S(hbond)    S(metal)    S(lipo)     H(rot)  DE(clash)    DE(int)     intcor
     16.96     -18.40       1.85        0.00     110.63       2.42       0.18       1.26       ----

> <Gold.Chemscore.Fitness>
16.9649

> <Gold.Chemscore.DG>
-18.4029

> <Gold.Chemscore.ZeroCoef>
-5.4800

> <Gold.Chemscore.Hbond>
1.8519

> <Gold.Chemscore.Metal>
0.0000

> <Gold.Chemscore.Lipo>
110.6346

> <Gold.Chemscore.Internal_Hbond>
0.0000

> <Gold.Chemscore.DEClash>
0.1799

> <Gold.Chemscore.DEInternal>
1.2582

> <Gold.Chemscore.Rot>
2.4245

> <Gold.Chemscore.Internal.Correction>
   9.000000E+99

> <Gold.Chemscore.Hbonds>
donor molecule, donor type, donor heavy atom, donor atom, acceptor molecule, acceptor atom, score
      L1  H    14    35       P1  7948  0.64
      P1  H  7989  7998       L1     1  0.38

> <Gold.Chemscore.Hbond.Weighted>
-6.1853

> <Gold.Chemscore.Metal.Weighted>
-0.0000

> <Gold.Chemscore.Lipo.Weighted>
-12.9442

> <Gold.Chemscore.Internal_Hbond.Weighted>
0.0000

> <Gold.Chemscore.DEClash.Weighted>
0.1799

> <Gold.Chemscore.DEInternal.Weighted>
1.2582

> <Gold.Chemscore.Rot.Weighted>
6.2066

> <Gold.Chemscore.Internal.Correction.Weighted>
   9.000000E+99

> <Gold.Protein.RotatedTorsions>
[ 6907 6896 6895 6894 ] final   13.14 input  -60.11 | X-H torsion
[ 7974 7965 7964 7962 ] final -113.59 input  175.53 | X-H torsion
[ 8008 7997 7996 7995 ] final   63.14 input   59.86 | X-H torsion
[ 10167 10162 10161 10158 ] final   10.27 input  -65.29 | X-H torsion
[ 10718 10713 10712 10709 ] final -142.28 input   66.30 | X-H torsion
[ 10763 10752 10751 10750 ] final -160.45 input  -60.55 | X-H torsion
[ 11005 11000 10999 10996 ] final -132.15 input  -57.11 | X-H torsion

> <Gold.Protein.ActiveResidues>
 VAL166  LYS551  ARG553  GLY616  TRP617  ASP618  TYR619  PRO620  LYS621  CYS622 
 ASP623  PHE694  ASN695  SER759  ASP760  ASP761  ALA762  ILE779  LEU786  VAL792 
 PHE793  MET794  SER795  GLU796  ALA797  LYS798  CYS799  TRP800  GLU811  SER814 

> <Gold.Protein.RotatedAtoms>
  151.7815  135.0760  160.0374 H   0  0  0  0  0  0  0  0  0  0  0  0  # atno 6907 bound_to 6896
  152.3220  133.5859  159.5759 H   0  0  0  0  0  0  0  0  0  0  0  0  # atno 6908 bound_to 6896
  150.7374  133.9913  159.3650 H   0  0  0  0  0  0  0  0  0  0  0  0  # atno 6909 bound_to 6896
  145.1302  140.8720  143.3762 H   0  0  0  0  0  0  0  0  0  0  0  0  # atno 7974 bound_to 7965
  155.6255  140.3496  155.4666 H   0  0  0  0  0  0  0  0  0  0  0  0  # atno 8008 bound_to 7997
  156.0045  140.1220  157.0539 H   0  0  0  0  0  0  0  0  0  0  0  0  # atno 8009 bound_to 7997
  154.4260  140.1094  156.5729 H   0  0  0  0  0  0  0  0  0  0  0  0  # atno 8010 bound_to 7997
  140.6204  143.8216  150.7169 H   0  0  0  0  0  0  0  0  0  0  0  0  # atno 10167 bound_to 10162
  156.3440  130.7652  151.1794 H   0  0  0  0  0  0  0  0  0  0  0  0  # atno 10718 bound_to 10713
  154.7389  135.3064  154.8762 H   0  0  0  0  0  0  0  0  0  0  0  0  # atno 10763 bound_to 10752
  153.9582  135.6756  153.4749 H   0  0  0  0  0  0  0  0  0  0  0  0  # atno 10764 bound_to 10752
  153.0990  135.4921  154.8755 H   0  0  0  0  0  0  0  0  0  0  0  0  # atno 10765 bound_to 10752
  140.9195  134.1462  157.4325 H   0  0  0  0  0  0  0  0  0  0  0  0  # atno 11005 bound_to 11000
  145.0644  139.3080  143.5864 LP  0  0  0  0  0  0  0  0  0  0  0  0  # atno 17320 bound_to 7965
  146.3514  140.0097  142.8668 LP  0  0  0  0  0  0  0  0  0  0  0  0  # atno 17321 bound_to 7965
  140.1805  143.4119  152.1936 LP  0  0  0  0  0  0  0  0  0  0  0  0  # atno 17342 bound_to 10162
  139.5434  144.7277  151.4660 LP  0  0  0  0  0  0  0  0  0  0  0  0  # atno 17343 bound_to 10162
  157.7451  131.0446  150.4803 LP  0  0  0  0  0  0  0  0  0  0  0  0  # atno 17370 bound_to 10713
  156.4988  130.4112  149.6365 LP  0  0  0  0  0  0  0  0  0  0  0  0  # atno 17371 bound_to 10713
  139.8772  134.9966  156.5804 LP  0  0  0  0  0  0  0  0  0  0  0  0  # atno 17394 bound_to 11000
  140.8006  133.8508  155.8723 LP  0  0  0  0  0  0  0  0  0  0  0  0  # atno 17395 bound_to 11000

$$$$
