AV-unprocessed.smi:546|AV-procd|sdf|2883|dock2
  -GOLD-   2262023373D 1   1.00000     0.00000
 Structure written by MMmdl.
 52 54  0  0  0  0  0  0  0  0  1 V2000
  151.9248  138.1183  154.4569 C   0  0  0  0  0  0  0  0  0  0  0  0
  152.7704  138.4441  155.6898 C   0  0  0  0  0  0  0  0  0  0  0  0
  152.7921  137.3182  156.5508 O   0  0  0  0  0  0  0  0  0  0  0  0
  153.3768  137.6072  157.8108 C   0  0  0  0  0  0  0  0  0  0  0  0
  152.4129  138.4595  158.6474 C   0  0  0  0  0  0  0  0  0  0  0  0
  153.0873  139.0876  159.7824 N   0  0  0  0  0  0  0  0  0  0  0  0
  153.2164  140.4086  160.0949 C   0  0  0  0  0  0  0  0  0  0  0  0
  152.7292  141.4339  159.2801 N   0  0  0  0  0  0  0  0  0  0  0  0
  152.9380  142.8531  159.5647 C   0  0  0  0  0  0  0  0  0  0  0  0
  151.6225  143.6512  159.4776 C   0  0  1  0  0  0  0  0  0  0  0  0
  151.8380  145.1308  159.8212 C   0  0  0  0  0  0  0  0  0  0  0  0
  150.9898  143.4787  158.0864 C   0  0  0  0  0  0  0  0  0  0  0  0
  150.8567  141.9867  157.7386 C   0  0  1  0  0  0  0  0  0  0  0  0
  150.3010  141.7827  156.3233 C   0  0  0  0  0  0  0  0  0  0  0  0
  152.2219  141.2922  157.9151 C   0  0  0  0  0  0  0  0  0  0  0  0
  153.8168  140.6428  161.2660 N   0  0  0  0  0  0  0  0  0  0  0  0
  154.1261  139.3733  161.7251 C   0  0  0  0  0  0  0  0  0  0  0  0
  153.6976  138.4282  160.8514 C   0  0  0  0  0  0  0  0  0  0  0  0
  153.8697  136.9902  161.1019 C   0  0  0  0  0  0  0  0  0  0  0  0
  153.4844  136.1155  160.3293 O   0  0  0  0  0  0  0  0  0  0  0  0
  154.4941  136.7254  162.2751 N   0  0  0  0  0  0  0  0  0  0  0  0
  154.9496  137.6277  163.1967 C   0  0  0  0  0  0  0  0  0  0  0  0
  155.4950  137.2323  164.2269 O   0  0  0  0  0  0  0  0  0  0  0  0
  154.7719  138.9601  162.9254 N   0  0  0  0  0  0  0  0  0  0  0  0
  155.2356  139.9699  163.8790 C   0  0  0  0  0  0  0  0  0  0  0  0
  154.6379  135.7508  162.4956 H   0  0  0  0  0  0  0  0  0  0  0  0
  151.9162  138.9552  153.7585 H   0  0  0  0  0  0  0  0  0  0  0  0
  150.8923  137.9081  154.7363 H   0  0  0  0  0  0  0  0  0  0  0  0
  152.3165  137.2468  153.9316 H   0  0  0  0  0  0  0  0  0  0  0  0
  153.7863  138.7002  155.3856 H   0  0  0  0  0  0  0  0  0  0  0  0
  152.3518  139.3084  156.2076 H   0  0  0  0  0  0  0  0  0  0  0  0
  153.6081  136.6804  158.3376 H   0  0  0  0  0  0  0  0  0  0  0  0
  154.3162  138.1431  157.6694 H   0  0  0  0  0  0  0  0  0  0  0  0
  151.9565  139.2341  158.0321 H   0  0  0  0  0  0  0  0  0  0  0  0
  151.5871  137.8417  158.9806 H   0  0  0  0  0  0  0  0  0  0  0  0
  153.3605  142.9626  160.5644 H   0  0  0  0  0  0  0  0  0  0  0  0
  153.6770  143.2560  158.8708 H   0  0  0  0  0  0  0  0  0  0  0  0
  150.9333  143.2385  160.2141 H   0  0  0  0  0  0  0  0  0  0  0  0
  152.5262  145.6043  159.1202 H   0  0  0  0  0  0  0  0  0  0  0  0
  152.2527  145.2435  160.8233 H   0  0  0  0  0  0  0  0  0  0  0  0
  150.8976  145.6817  159.7895 H   0  0  0  0  0  0  0  0  0  0  0  0
  150.0118  143.9602  158.0558 H   0  0  0  0  0  0  0  0  0  0  0  0
  151.6080  143.9773  157.3382 H   0  0  0  0  0  0  0  0  0  0  0  0
  150.1483  141.5405  158.4378 H   0  0  0  0  0  0  0  0  0  0  0  0
  150.9665  142.2070  155.5708 H   0  0  0  0  0  0  0  0  0  0  0  0
  149.3260  142.2580  156.2126 H   0  0  0  0  0  0  0  0  0  0  0  0
  150.1785  140.7224  156.1005 H   0  0  0  0  0  0  0  0  0  0  0  0
  152.9478  141.7285  157.2274 H   0  0  0  0  0  0  0  0  0  0  0  0
  152.1641  140.2396  157.6405 H   0  0  0  0  0  0  0  0  0  0  0  0
  156.2893  139.8208  164.1194 H   0  0  0  0  0  0  0  0  0  0  0  0
  154.6627  139.9078  164.8052 H   0  0  0  0  0  0  0  0  0  0  0  0
  155.1342  140.9854  163.4966 H   0  0  0  0  0  0  0  0  0  0  0  0
  1  2  1  0  0  0  0
  1 27  1  0  0  0  0
  1 28  1  0  0  0  0
  1 29  1  0  0  0  0
  2  3  1  0  0  0  0
  2 30  1  0  0  0  0
  2 31  1  0  0  0  0
  3  4  1  0  0  0  0
  4  5  1  0  0  0  0
  4 32  1  0  0  0  0
  4 33  1  0  0  0  0
  5  6  1  0  0  0  0
  5 34  1  0  0  0  0
  5 35  1  0  0  0  0
  6 18  1  0  0  0  0
  6  7  1  0  0  0  0
  7  8  1  0  0  0  0
  7 16  2  0  0  0  0
  8 15  1  0  0  0  0
  8  9  1  0  0  0  0
  9 10  1  0  0  0  0
  9 36  1  0  0  0  0
  9 37  1  0  0  0  0
 10 11  1  0  0  0  0
 10 12  1  0  0  0  0
 10 38  1  0  0  0  0
 11 39  1  0  0  0  0
 11 40  1  0  0  0  0
 11 41  1  0  0  0  0
 12 13  1  0  0  0  0
 12 42  1  0  0  0  0
 12 43  1  0  0  0  0
 13 14  1  0  0  0  0
 13 15  1  0  0  0  0
 13 44  1  0  0  0  0
 14 45  1  0  0  0  0
 14 46  1  0  0  0  0
 14 47  1  0  0  0  0
 15 48  1  0  0  0  0
 15 49  1  0  0  0  0
 16 17  1  0  0  0  0
 17 24  1  0  0  0  0
 17 18  2  0  0  0  0
 18 19  1  0  0  0  0
 19 20  2  0  0  0  0
 19 21  1  0  0  0  0
 21 26  1  0  0  0  0
 21 22  1  0  0  0  0
 22 23  2  0  0  0  0
 22 24  1  0  0  0  0
 24 25  1  0  0  0  0
 25 50  1  0  0  0  0
 25 51  1  0  0  0  0
 25 52  1  0  0  0  0
M  END
> <s_m_source_file>
AV-unprocessed.smi

> <i_m_source_file_index>
546

> <i_lp_mmshare_version>
43012

> <i_f3d_flags>
0

> <s_epik_input>
W0NIM11uMWMoPU8pW25IXWMoPU8pYyhjMTIpbihbQ0gyXVtDSDJdT1tDSDJdW0NIM10pYyhuMilOM1tDSDJdW0NAQEhdKFtDSDNdKVtDSDJdW0NAQEhdKFtDSDNdKVtDSDJdMw==

> <s_epik_cmdline>
J2VwaWtfcHl0aG9uJywgJy1waCcsICc3LjAnLCAnLXRuJywgJzgnLCAnLW1hJywgJzIwMCcsICctbWV0YWxfYmluZGluZycsICctaW1hZScsICc8aW5maWxlLm1hZT4nLCAnLW9tYWUnLCAnPG91dGZpbGUubWFlPic=

> <r_lp_tautomer_probability>
1

> <r_epik_Ionization_Penalty>
0.000576472

> <r_epik_Ionization_Penalty_Charging>
0.000118943

> <r_epik_Ionization_Penalty_Neutral>
0.000457529

> <r_epik_State_Penalty>
-0

> <r_epik_Charging_Adjusted_Penalty>
0.000118943

> <i_epik_Tot_Q>
0

> <i_epik_Tot_abs_Q>
0

> <r_epik_Metal_State_Penalty>
0.0916165

> <b_epik_Metal_Only>
0

> <s_lp_Force_Field>
OPLS_2005

> <r_lp_Energy>
35.568

> <b_lp_Chiralities_Consistent>
1

> <s_lp_Variant>
AV-unprocessed.smi:546-1

> <Gold.Version>
5.8.1

> <Gold.Id.Protein>
6NUR|6NUR_protein|mol2

> <Gold.PLP.Fitness>
46.7687

> <Gold.PLP.PLP>
-44.8625

> <Gold.PLP.part.hbond>
-1.8457

> <Gold.PLP.part.metal>
0.0000

> <Gold.PLP.part.buried>
-7.0720

> <Gold.PLP.part.nonpolar>
-36.2393

> <Gold.PLP.part.repulsive>
0.0601

> <Gold.PLP.ligand.clash>
2.2398

> <Gold.PLP.ligand.torsion>
0.1574

> <Gold.PLP.Chemscore.Hbond>
1.3695

> <Gold.PLP.Chemscore.CHOScore>
0.0000

> <Gold.PLP.Chemscore.Metal>
0.0000

> <Gold.Chemscore.Hbonds>
donor molecule, donor type, donor heavy atom, donor atom, acceptor molecule, acceptor atom, score
      P1  H  6896  6908       L1    20  1.00
      P1  H 10752 10765       L1     3  0.15

> <Gold.PLP.Chemscore.Internal.Correction>
0.3525

> <Gold.Rescore>
     Score         DG    S(hbond)    S(metal)    S(lipo)     H(rot)  DE(clash)    DE(int)     intcor
     17.45     -18.88       1.63        0.00     101.92       1.55       0.02       1.41       ----

> <Gold.Chemscore.Fitness>
17.4510

> <Gold.Chemscore.DG>
-18.8758

> <Gold.Chemscore.ZeroCoef>
-5.4800

> <Gold.Chemscore.Hbond>
1.6257

> <Gold.Chemscore.Metal>
0.0000

> <Gold.Chemscore.Lipo>
101.9240

> <Gold.Chemscore.Internal_Hbond>
0.0000

> <Gold.Chemscore.DEClash>
0.0153

> <Gold.Chemscore.DEInternal>
1.4095

> <Gold.Chemscore.Rot>
1.5465

> <Gold.Chemscore.Internal.Correction>
   9.000000E+99

> <Gold.Chemscore.Hbonds>
donor molecule, donor type, donor heavy atom, donor atom, acceptor molecule, acceptor atom, score
      P1  H  6896  6908       L1    20  1.00
      P1  H 10752 10765       L1     3  0.09

> <Gold.Chemscore.Hbond.Weighted>
-5.4298

> <Gold.Chemscore.Metal.Weighted>
-0.0000

> <Gold.Chemscore.Lipo.Weighted>
-11.9251

> <Gold.Chemscore.Internal_Hbond.Weighted>
0.0000

> <Gold.Chemscore.DEClash.Weighted>
0.0153

> <Gold.Chemscore.DEInternal.Weighted>
1.4095

> <Gold.Chemscore.Rot.Weighted>
3.9591

> <Gold.Chemscore.Internal.Correction.Weighted>
   9.000000E+99

> <Gold.Protein.RotatedTorsions>
[ 6907 6896 6895 6894 ] final  -75.96 input  -60.11 | X-H torsion
[ 7974 7965 7964 7962 ] final -150.61 input  175.53 | X-H torsion
[ 8008 7997 7996 7995 ] final   -4.29 input   59.86 | X-H torsion
[ 10167 10162 10161 10158 ] final -127.76 input  -65.29 | X-H torsion
[ 10718 10713 10712 10709 ] final -161.59 input   66.30 | X-H torsion
[ 10763 10752 10751 10750 ] final -138.02 input  -60.55 | X-H torsion
[ 11005 11000 10999 10996 ] final  147.67 input  -57.11 | X-H torsion

> <Gold.Protein.ActiveResidues>
 VAL166  LYS551  ARG553  GLY616  TRP617  ASP618  TYR619  PRO620  LYS621  CYS622 
 ASP623  PHE694  ASN695  SER759  ASP760  ASP761  ALA762  ILE779  LEU786  VAL792 
 PHE793  MET794  SER795  GLU796  ALA797  LYS798  CYS799  TRP800  GLU811  SER814 

> <Gold.Protein.RotatedAtoms>
  150.7042  134.4643  159.5395 H   0  0  0  0  0  0  0  0  0  0  0  0  # atno 6907 bound_to 6896
  152.2312  134.8317  160.0482 H   0  0  0  0  0  0  0  0  0  0  0  0  # atno 6908 bound_to 6896
  151.9133  133.3531  159.3908 H   0  0  0  0  0  0  0  0  0  0  0  0  # atno 6909 bound_to 6896
  144.7897  140.4908  143.5781 H   0  0  0  0  0  0  0  0  0  0  0  0  # atno 7974 bound_to 7965
  154.6158  140.2487  155.7611 H   0  0  0  0  0  0  0  0  0  0  0  0  # atno 8008 bound_to 7997
  156.2398  140.2937  156.0362 H   0  0  0  0  0  0  0  0  0  0  0  0  # atno 8009 bound_to 7997
  155.1977  140.0393  157.2902 H   0  0  0  0  0  0  0  0  0  0  0  0  # atno 8010 bound_to 7997
  139.9574  143.5988  152.2456 H   0  0  0  0  0  0  0  0  0  0  0  0  # atno 10167 bound_to 10162
  156.5984  130.8800  151.2907 H   0  0  0  0  0  0  0  0  0  0  0  0  # atno 10718 bound_to 10713
  154.8647  135.3624  154.5317 H   0  0  0  0  0  0  0  0  0  0  0  0  # atno 10763 bound_to 10752
  153.5942  135.7014  153.5415 H   0  0  0  0  0  0  0  0  0  0  0  0  # atno 10764 bound_to 10752
  153.3346  135.4115  155.1485 H   0  0  0  0  0  0  0  0  0  0  0  0  # atno 10765 bound_to 10752
  140.0895  134.9049  157.1628 H   0  0  0  0  0  0  0  0  0  0  0  0  # atno 11005 bound_to 11000
  145.5826  139.1490  143.3227 LP  0  0  0  0  0  0  0  0  0  0  0  0  # atno 17320 bound_to 7965
  146.2144  140.5955  142.9045 LP  0  0  0  0  0  0  0  0  0  0  0  0  # atno 17321 bound_to 7965
  139.6580  144.7662  151.2017 LP  0  0  0  0  0  0  0  0  0  0  0  0  # atno 17342 bound_to 10162
  140.7564  143.6054  150.8658 LP  0  0  0  0  0  0  0  0  0  0  0  0  # atno 17343 bound_to 10162
  157.7286  130.9659  150.1749 LP  0  0  0  0  0  0  0  0  0  0  0  0  # atno 17370 bound_to 10713
  156.2490  130.3698  149.8253 LP  0  0  0  0  0  0  0  0  0  0  0  0  # atno 17371 bound_to 10713
  140.3373  134.2743  155.7218 LP  0  0  0  0  0  0  0  0  0  0  0  0  # atno 17394 bound_to 11000
  141.2073  133.7809  157.0125 LP  0  0  0  0  0  0  0  0  0  0  0  0  # atno 17395 bound_to 11000

$$$$
