AV-unprocessed.smi:1249|AV-procd|sdf|5253|dock2
  -GOLD-   22720 4363D 1   1.00000     0.00000
 Structure written by MMmdl.
 42 43  0  0  0  0  0  0  0  0  1 V2000
  145.0809  131.7648  150.8499 C   0  0  0  0  0  0  0  0  0  0  0  0
  143.9920  132.5816  151.2666 O   0  0  0  0  0  0  0  0  0  0  0  0
  144.2569  133.8808  151.6487 C   0  0  0  0  0  0  0  0  0  0  0  0
  143.1835  134.6944  152.0620 C   0  0  0  0  0  0  0  0  0  0  0  0
  143.4490  136.0206  152.4521 C   0  0  0  0  0  0  0  0  0  0  0  0
  144.7742  136.4984  152.4091 C   0  0  0  0  0  0  0  0  0  0  0  0
  145.0159  137.8350  152.8266 N   0  0  0  0  0  0  0  0  0  0  0  0
  146.0430  138.3105  153.5512 C   0  0  0  0  0  0  0  0  0  0  0  0
  147.0006  137.6478  153.9493 O   0  0  0  0  0  0  0  0  0  0  0  0
  145.9114  139.6260  153.7732 N   0  0  0  0  0  0  0  0  0  0  0  0
  146.8605  140.4517  154.5144 C   0  0  0  0  0  0  0  0  0  0  0  0
  148.1478  140.6309  153.6964 C   0  0  0  0  0  0  0  0  0  0  0  0
  149.1971  141.4464  154.4725 C   0  0  0  0  0  0  0  0  0  0  0  0
  149.4647  140.8657  155.8037 N   0  0  0  0  0  0  0  0  0  0  0  0
  150.8949  139.9093  156.0652 S   0  0  0  0  0  0  0  0  0  0  0  0
  151.8373  140.8472  157.3366 C   0  0  0  0  0  0  0  0  0  0  0  0
  150.4781  138.6282  156.6554 O   0  0  0  0  0  0  0  0  0  0  0  0
  151.6751  139.9178  154.8183 O   0  0  0  0  0  0  0  0  0  0  0  0
  148.2612  140.6320  156.6268 C   0  0  0  0  0  0  0  0  0  0  0  0
  147.2045  139.8095  155.8689 C   0  0  0  0  0  0  0  0  0  0  0  0
  145.7853  135.5992  151.9906 C   0  0  0  0  0  0  0  0  0  0  0  0
  145.5374  134.3257  151.6174 N   0  0  0  0  0  0  0  0  0  0  0  0
  144.7077  130.7780  150.5762 H   0  0  0  0  0  0  0  0  0  0  0  0
  145.8092  131.6325  151.6514 H   0  0  0  0  0  0  0  0  0  0  0  0
  145.5823  132.1827  149.9756 H   0  0  0  0  0  0  0  0  0  0  0  0
  142.1752  134.3075  152.0809 H   0  0  0  0  0  0  0  0  0  0  0  0
  142.6418  136.6615  152.7762 H   0  0  0  0  0  0  0  0  0  0  0  0
  144.3519  138.5188  152.4943 H   0  0  0  0  0  0  0  0  0  0  0  0
  145.0956  140.0914  153.4033 H   0  0  0  0  0  0  0  0  0  0  0  0
  146.4218  141.4369  154.6852 H   0  0  0  0  0  0  0  0  0  0  0  0
  148.5580  139.6573  153.4299 H   0  0  0  0  0  0  0  0  0  0  0  0
  147.9226  141.1338  152.7551 H   0  0  0  0  0  0  0  0  0  0  0  0
  150.1199  141.5221  153.8981 H   0  0  0  0  0  0  0  0  0  0  0  0
  148.8366  142.4665  154.6094 H   0  0  0  0  0  0  0  0  0  0  0  0
  152.7595  140.3120  157.5614 H   0  0  0  0  0  0  0  0  0  0  0  0
  151.2476  140.9335  158.2475 H   0  0  0  0  0  0  0  0  0  0  0  0
  152.0877  141.8363  156.9577 H   0  0  0  0  0  0  0  0  0  0  0  0
  148.5291  140.1377  157.5601 H   0  0  0  0  0  0  0  0  0  0  0  0
  147.8398  141.5995  156.9018 H   0  0  0  0  0  0  0  0  0  0  0  0
  146.3071  139.7246  156.4827 H   0  0  0  0  0  0  0  0  0  0  0  0
  147.5637  138.7925  155.7158 H   0  0  0  0  0  0  0  0  0  0  0  0
  146.8267  135.8791  151.9675 H   0  0  0  0  0  0  0  0  0  0  0  0
  1  2  1  0  0  0  0
  1 23  1  0  0  0  0
  1 24  1  0  0  0  0
  1 25  1  0  0  0  0
  2  3  1  0  0  0  0
  3 22  1  0  0  0  0
  3  4  2  0  0  0  0
  4  5  1  0  0  0  0
  4 26  1  0  0  0  0
  5  6  2  0  0  0  0
  5 27  1  0  0  0  0
  6  7  1  0  0  0  0
  6 21  1  0  0  0  0
  7  8  1  0  0  0  0
  7 28  1  0  0  0  0
  8  9  2  0  0  0  0
  8 10  1  0  0  0  0
 10 11  1  0  0  0  0
 10 29  1  0  0  0  0
 11 20  1  0  0  0  0
 11 12  1  0  0  0  0
 11 30  1  0  0  0  0
 12 13  1  0  0  0  0
 12 31  1  0  0  0  0
 12 32  1  0  0  0  0
 13 14  1  0  0  0  0
 13 33  1  0  0  0  0
 13 34  1  0  0  0  0
 14 15  1  0  0  0  0
 14 19  1  0  0  0  0
 15 16  1  0  0  0  0
 15 17  2  0  0  0  0
 15 18  2  0  0  0  0
 16 35  1  0  0  0  0
 16 36  1  0  0  0  0
 16 37  1  0  0  0  0
 19 20  1  0  0  0  0
 19 38  1  0  0  0  0
 19 39  1  0  0  0  0
 20 40  1  0  0  0  0
 20 41  1  0  0  0  0
 21 22  2  0  0  0  0
 21 42  1  0  0  0  0
M  END
> <s_m_source_file>
AV-unprocessed.smi

> <i_m_source_file_index>
1249

> <i_lp_mmshare_version>
43012

> <i_f3d_flags>
0

> <s_epik_input>
W0NIM11PYzFbY0hdW2NIXWMoW2NIXW4xKVtOSF1DKD1PKVtOSF1bQ0hdMltDSDJdW0NIMl1OKFMoPU8pKD1PKVtDSDNdKVtDSDJdW0NIMl0y

> <s_epik_cmdline>
J2VwaWtfcHl0aG9uJywgJy1waCcsICc3LjAnLCAnLXRuJywgJzgnLCAnLW1hJywgJzIwMCcsICctbWV0YWxfYmluZGluZycsICctaW1hZScsICc8aW5maWxlLm1hZT4nLCAnLW9tYWUnLCAnPG91dGZpbGUubWFlPic=

> <r_lp_tautomer_probability>
1

> <r_epik_Ionization_Penalty>
9.27424e-05

> <r_epik_Ionization_Penalty_Charging>
0

> <r_epik_Ionization_Penalty_Neutral>
9.27424e-05

> <r_epik_State_Penalty>
-0

> <r_epik_Charging_Adjusted_Penalty>
0

> <i_epik_Tot_Q>
0

> <i_epik_Tot_abs_Q>
0

> <r_epik_Metal_State_Penalty>
-0

> <b_epik_Metal_Only>
0

> <s_lp_Force_Field>
OPLS_2005

> <r_lp_Energy>
2.02988

> <b_lp_Chiralities_Consistent>
1

> <s_lp_Variant>
AV-unprocessed.smi:1249-1

> <Gold.Version>
5.8.1

> <Gold.Id.Protein>
6NUR|6NUR_protein|mol2

> <Gold.PLP.Fitness>
40.4438

> <Gold.PLP.PLP>
-29.2513

> <Gold.PLP.part.hbond>
-3.1122

> <Gold.PLP.part.metal>
0.0000

> <Gold.PLP.part.buried>
-3.0302

> <Gold.PLP.part.nonpolar>
-22.9705

> <Gold.PLP.part.repulsive>
0.5094

> <Gold.PLP.ligand.clash>
0.0000

> <Gold.PLP.ligand.torsion>
1.4345

> <Gold.PLP.Chemscore.Hbond>
3.0000

> <Gold.PLP.Chemscore.CHOScore>
1.0000

> <Gold.PLP.Chemscore.Metal>
0.0000

> <Gold.Chemscore.Hbonds>
donor molecule, donor type, donor heavy atom, donor atom, acceptor molecule, acceptor atom, score
      L1  H     7    28       P1 10175  0.98
      L1  H    10    29       P1 10175  1.00
      P1  H  7989  7998       L1    18  1.00
      L1  C    21    42       P1  7948  1.00

> <Gold.PLP.Chemscore.Internal.Correction>
2.0616

> <Gold.Rescore>
     Score         DG    S(hbond)    S(metal)    S(lipo)     H(rot)  DE(clash)    DE(int)     intcor
     15.04     -18.59       2.94        0.00      56.43       1.29       0.10       3.45       ----

> <Gold.Chemscore.Fitness>
15.0444

> <Gold.Chemscore.DG>
-18.5881

> <Gold.Chemscore.ZeroCoef>
-5.4800

> <Gold.Chemscore.Hbond>
2.9358

> <Gold.Chemscore.Metal>
0.0000

> <Gold.Chemscore.Lipo>
56.4306

> <Gold.Chemscore.Internal_Hbond>
0.0000

> <Gold.Chemscore.DEClash>
0.0959

> <Gold.Chemscore.DEInternal>
3.4478

> <Gold.Chemscore.Rot>
1.2890

> <Gold.Chemscore.Internal.Correction>
   9.000000E+99

> <Gold.Chemscore.Hbonds>
donor molecule, donor type, donor heavy atom, donor atom, acceptor molecule, acceptor atom, score
      L1  H     7    28       P1 10175  0.87
      L1  H    10    29       P1 10175  1.00
      P1  H  7989  7998       L1    18  0.97

> <Gold.Chemscore.Hbond.Weighted>
-9.8056

> <Gold.Chemscore.Metal.Weighted>
-0.0000

> <Gold.Chemscore.Lipo.Weighted>
-6.6024

> <Gold.Chemscore.Internal_Hbond.Weighted>
0.0000

> <Gold.Chemscore.DEClash.Weighted>
0.0959

> <Gold.Chemscore.DEInternal.Weighted>
3.4478

> <Gold.Chemscore.Rot.Weighted>
3.2999

> <Gold.Chemscore.Internal.Correction.Weighted>
   9.000000E+99

> <Gold.Protein.RotatedTorsions>
[ 6907 6896 6895 6894 ] final  -80.74 input  -60.11 | X-H torsion
[ 7974 7965 7964 7962 ] final  -90.61 input  175.53 | X-H torsion
[ 8008 7997 7996 7995 ] final   26.28 input   59.86 | X-H torsion
[ 10167 10162 10161 10158 ] final -131.78 input  -65.29 | X-H torsion
[ 10718 10713 10712 10709 ] final  162.87 input   66.30 | X-H torsion
[ 10763 10752 10751 10750 ] final  127.68 input  -60.55 | X-H torsion
[ 11005 11000 10999 10996 ] final  109.00 input  -57.11 | X-H torsion

> <Gold.Protein.ActiveResidues>
 VAL166  LYS551  ARG553  GLY616  TRP617  ASP618  TYR619  PRO620  LYS621  CYS622 
 ASP623  PHE694  ASN695  SER759  ASP760  ASP761  ALA762  ILE779  LEU786  VAL792 
 PHE793  MET794  SER795  GLU796  ALA797  LYS798  CYS799  TRP800  GLU811  SER814 

> <Gold.Protein.RotatedAtoms>
  150.6924  134.3923  159.5081 H   0  0  0  0  0  0  0  0  0  0  0  0  # atno 6907 bound_to 6896
  152.1710  134.8832  160.0543 H   0  0  0  0  0  0  0  0  0  0  0  0  # atno 6908 bound_to 6896
  151.9858  133.3738  159.4162 H   0  0  0  0  0  0  0  0  0  0  0  0  # atno 6909 bound_to 6896
  145.4241  140.9552  143.2164 H   0  0  0  0  0  0  0  0  0  0  0  0  # atno 7974 bound_to 7965
  155.0248  140.3152  155.4780 H   0  0  0  0  0  0  0  0  0  0  0  0  # atno 8008 bound_to 7997
  156.2885  140.2191  156.5309 H   0  0  0  0  0  0  0  0  0  0  0  0  # atno 8009 bound_to 7997
  154.7421  140.0473  157.0808 H   0  0  0  0  0  0  0  0  0  0  0  0  # atno 8010 bound_to 7997
  139.9154  143.6445  152.2566 H   0  0  0  0  0  0  0  0  0  0  0  0  # atno 10167 bound_to 10162
  157.1165  131.0481  151.2434 H   0  0  0  0  0  0  0  0  0  0  0  0  # atno 10718 bound_to 10713
  153.7134  135.3265  155.3251 H   0  0  0  0  0  0  0  0  0  0  0  0  # atno 10763 bound_to 10752
  154.8378  135.4482  154.1291 H   0  0  0  0  0  0  0  0  0  0  0  0  # atno 10764 bound_to 10752
  153.2391  135.6969  153.7882 H   0  0  0  0  0  0  0  0  0  0  0  0  # atno 10765 bound_to 10752
  139.8854  134.9446  156.6059 H   0  0  0  0  0  0  0  0  0  0  0  0  # atno 11005 bound_to 11000
  144.8226  139.5766  143.6980 LP  0  0  0  0  0  0  0  0  0  0  0  0  # atno 17320 bound_to 7965
  146.2641  139.6479  142.9341 LP  0  0  0  0  0  0  0  0  0  0  0  0  # atno 17321 bound_to 7965
  139.6907  144.7647  151.1444 LP  0  0  0  0  0  0  0  0  0  0  0  0  # atno 17342 bound_to 10162
  140.7675  143.5593  150.9117 LP  0  0  0  0  0  0  0  0  0  0  0  0  # atno 17343 bound_to 10162
  157.4514  130.7600  149.7154 LP  0  0  0  0  0  0  0  0  0  0  0  0  # atno 17370 bound_to 10713
  155.9838  130.3997  150.3344 LP  0  0  0  0  0  0  0  0  0  0  0  0  # atno 17371 bound_to 10713
  140.7848  133.8630  155.8597 LP  0  0  0  0  0  0  0  0  0  0  0  0  # atno 17394 bound_to 11000
  140.9728  134.1508  157.4561 LP  0  0  0  0  0  0  0  0  0  0  0  0  # atno 17395 bound_to 11000

$$$$
