AV-unprocessed.smi:3161|AV-procd|sdf|12061|dock9
  -GOLD-   2272017493D 1   1.00000     0.00000
 Structure written by MMmdl.
 40 41  0  0  0  0  0  0  0  0  1 V2000
  150.4144  136.3368  155.4891 C   0  0  0  0  0  0  0  0  0  0  0  0
  150.6438  137.8059  155.2808 C   0  0  0  0  0  0  0  0  0  0  0  0
  150.3695  138.5798  154.1175 C   0  0  0  0  0  0  0  0  0  0  0  0
  150.6904  139.8551  154.2602 N   0  0  0  0  0  0  0  0  0  0  0  0
  151.1851  139.9410  155.5138 N   0  0  0  0  0  0  0  0  0  0  0  0
  151.6533  141.2194  156.0269 C   0  0  0  0  0  0  0  0  0  0  0  0
  150.7559  141.8102  157.1376 C   0  0  2  0  0  0  0  0  0  0  0  0
  149.2704  141.4440  156.9450 C   0  0  0  0  0  0  0  0  0  0  0  0
  150.9584  143.2609  157.2217 N   0  0  0  0  0  0  0  0  0  0  0  0
  150.5924  143.8841  158.4931 C   0  0  0  0  0  0  0  0  0  0  0  0
  151.7091  143.7104  159.5334 C   0  0  1  0  0  0  0  0  0  0  0  0
  151.3547  144.3412  160.8966 C   0  0  0  0  0  0  0  0  0  0  0  0
  152.4587  144.0620  161.9225 C   0  0  0  0  0  0  0  0  0  0  0  0
  152.7390  142.5571  161.9830 C   0  0  0  0  0  0  0  0  0  0  0  0
  153.0114  142.0071  160.5740 C   0  0  0  0  0  0  0  0  0  0  0  0
  151.9178  142.3113  159.7131 O   0  0  0  0  0  0  0  0  0  0  0  0
  151.1618  138.7198  156.1539 C   0  0  0  0  0  0  0  0  0  0  0  0
  149.9631  135.8680  154.6143 H   0  0  0  0  0  0  0  0  0  0  0  0
  149.7497  136.1497  156.3327 H   0  0  0  0  0  0  0  0  0  0  0  0
  151.3468  135.8094  155.6907 H   0  0  0  0  0  0  0  0  0  0  0  0
  149.9482  138.2533  153.1782 H   0  0  0  0  0  0  0  0  0  0  0  0
  152.6690  141.0900  156.4043 H   0  0  0  0  0  0  0  0  0  0  0  0
  151.7292  141.9171  155.1917 H   0  0  0  0  0  0  0  0  0  0  0  0
  151.0836  141.3638  158.0773 H   0  0  0  0  0  0  0  0  0  0  0  0
  149.1559  140.3741  156.7695 H   0  0  0  0  0  0  0  0  0  0  0  0
  148.8317  141.9672  156.0947 H   0  0  0  0  0  0  0  0  0  0  0  0
  148.6767  141.6837  157.8267 H   0  0  0  0  0  0  0  0  0  0  0  0
  150.4530  143.7162  156.4683 H   0  0  0  0  0  0  0  0  0  0  0  0
  150.3852  144.9462  158.3650 H   0  0  0  0  0  0  0  0  0  0  0  0
  149.6758  143.4281  158.8690 H   0  0  0  0  0  0  0  0  0  0  0  0
  152.6293  144.1512  159.1442 H   0  0  0  0  0  0  0  0  0  0  0  0
  151.2097  145.4173  160.7949 H   0  0  0  0  0  0  0  0  0  0  0  0
  150.4100  143.9317  161.2572 H   0  0  0  0  0  0  0  0  0  0  0  0
  153.3671  144.5941  161.6377 H   0  0  0  0  0  0  0  0  0  0  0  0
  152.1702  144.4361  162.9050 H   0  0  0  0  0  0  0  0  0  0  0  0
  153.5872  142.3568  162.6383 H   0  0  0  0  0  0  0  0  0  0  0  0
  151.8806  142.0413  162.4149 H   0  0  0  0  0  0  0  0  0  0  0  0
  153.9350  142.4204  160.1660 H   0  0  0  0  0  0  0  0  0  0  0  0
  153.1385  140.9252  160.6129 H   0  0  0  0  0  0  0  0  0  0  0  0
  151.5168  138.6029  157.1674 H   0  0  0  0  0  0  0  0  0  0  0  0
  1  2  1  0  0  0  0
  1 18  1  0  0  0  0
  1 19  1  0  0  0  0
  1 20  1  0  0  0  0
  2 17  2  0  0  0  0
  2  3  1  0  0  0  0
  3  4  2  0  0  0  0
  3 21  1  0  0  0  0
  4  5  1  0  0  0  0
  5  6  1  0  0  0  0
  5 17  1  0  0  0  0
  6  7  1  0  0  0  0
  6 22  1  0  0  0  0
  6 23  1  0  0  0  0
  7  8  1  0  0  0  0
  7  9  1  0  0  0  0
  7 24  1  0  0  0  0
  8 25  1  0  0  0  0
  8 26  1  0  0  0  0
  8 27  1  0  0  0  0
  9 10  1  0  0  0  0
  9 28  1  0  0  0  0
 10 11  1  0  0  0  0
 10 29  1  0  0  0  0
 10 30  1  0  0  0  0
 11 16  1  0  0  0  0
 11 12  1  0  0  0  0
 11 31  1  0  0  0  0
 12 13  1  0  0  0  0
 12 32  1  0  0  0  0
 12 33  1  0  0  0  0
 13 14  1  0  0  0  0
 13 34  1  0  0  0  0
 13 35  1  0  0  0  0
 14 15  1  0  0  0  0
 14 36  1  0  0  0  0
 14 37  1  0  0  0  0
 15 16  1  0  0  0  0
 15 38  1  0  0  0  0
 15 39  1  0  0  0  0
 17 40  1  0  0  0  0
M  END
> <s_m_source_file>
AV-unprocessed.smi

> <i_m_source_file_index>
3161

> <i_lp_mmshare_version>
43012

> <i_f3d_flags>
0

> <s_epik_input>
W0NIM11jMVtjSF1ubihbY0hdMSlbQ0gyXVtDQEhdKFtDSDNdKVtOSF1bQ0gyXVtDQEBIXTJbQ0gyXVtDSDJdW0NIMl1bQ0gyXU8y

> <s_epik_cmdline>
J2VwaWtfcHl0aG9uJywgJy1waCcsICc3LjAnLCAnLXRuJywgJzgnLCAnLW1hJywgJzIwMCcsICctbWV0YWxfYmluZGluZycsICctaW1hZScsICc8aW5maWxlLm1hZT4nLCAnLW9tYWUnLCAnPG91dGZpbGUubWFlPic=

> <r_lp_tautomer_probability>
1

> <r_epik_Ionization_Penalty>
2.51986

> <r_epik_Ionization_Penalty_Charging>
0

> <r_epik_Ionization_Penalty_Neutral>
2.51986

> <r_epik_State_Penalty>
2.68614

> <r_epik_Charging_Adjusted_Penalty>
2.68614

> <i_epik_Tot_Q>
0

> <i_epik_Tot_abs_Q>
0

> <r_epik_Metal_State_Penalty>
2.68606

> <b_epik_Metal_Only>
0

> <s_lp_Force_Field>
OPLS_2005

> <r_lp_Energy>
14.508

> <b_lp_Chiralities_Consistent>
1

> <s_lp_Variant>
AV-unprocessed.smi:3161-7

> <Gold.Version>
5.8.1

> <Gold.Id.Protein>
6NUR|6NUR_protein|mol2

> <Gold.PLP.Fitness>
46.0084

> <Gold.PLP.PLP>
-36.1382

> <Gold.PLP.part.hbond>
-1.9779

> <Gold.PLP.part.metal>
0.0000

> <Gold.PLP.part.buried>
-3.6986

> <Gold.PLP.part.nonpolar>
-29.1810

> <Gold.PLP.part.repulsive>
0.1496

> <Gold.PLP.ligand.clash>
0.0000

> <Gold.PLP.ligand.torsion>
0.6408

> <Gold.PLP.Chemscore.Hbond>
1.9500

> <Gold.PLP.Chemscore.CHOScore>
1.7550

> <Gold.PLP.Chemscore.Metal>
0.0000

> <Gold.Chemscore.Hbonds>
donor molecule, donor type, donor heavy atom, donor atom, acceptor molecule, acceptor atom, score
      L1  H     9    28       P1  8028  1.00
      P1  H  7989  7998       L1     4  1.00
      L1  C     3    21       P1  7948  0.92
      L1  C     3    21       P1  7957  0.47

> <Gold.PLP.Chemscore.Internal.Correction>
0.0369

> <Gold.Rescore>
     Score         DG    S(hbond)    S(metal)    S(lipo)     H(rot)  DE(clash)    DE(int)     intcor
     16.49     -18.37       1.47        0.00     101.14       1.50       0.07       1.81       ----

> <Gold.Chemscore.Fitness>
16.4854

> <Gold.Chemscore.DG>
-18.3659

> <Gold.Chemscore.ZeroCoef>
-5.4800

> <Gold.Chemscore.Hbond>
1.4670

> <Gold.Chemscore.Metal>
0.0000

> <Gold.Chemscore.Lipo>
101.1436

> <Gold.Chemscore.Internal_Hbond>
0.0000

> <Gold.Chemscore.DEClash>
0.0670

> <Gold.Chemscore.DEInternal>
1.8136

> <Gold.Chemscore.Rot>
1.5030

> <Gold.Chemscore.Internal.Correction>
   9.000000E+99

> <Gold.Chemscore.Hbonds>
donor molecule, donor type, donor heavy atom, donor atom, acceptor molecule, acceptor atom, score
      L1  H     9    28       P1  8028  0.93
      P1  H  7989  7998       L1     4  0.34

> <Gold.Chemscore.Hbond.Weighted>
-4.8999

> <Gold.Chemscore.Metal.Weighted>
-0.0000

> <Gold.Chemscore.Lipo.Weighted>
-11.8338

> <Gold.Chemscore.Internal_Hbond.Weighted>
0.0000

> <Gold.Chemscore.DEClash.Weighted>
0.0670

> <Gold.Chemscore.DEInternal.Weighted>
1.8136

> <Gold.Chemscore.Rot.Weighted>
3.8477

> <Gold.Chemscore.Internal.Correction.Weighted>
   9.000000E+99

> <Gold.Protein.RotatedTorsions>
[ 6907 6896 6895 6894 ] final   -0.51 input  -60.11 | X-H torsion
[ 7974 7965 7964 7962 ] final  -31.23 input  175.53 | X-H torsion
[ 8008 7997 7996 7995 ] final  122.55 input   59.86 | X-H torsion
[ 10167 10162 10161 10158 ] final  149.45 input  -65.29 | X-H torsion
[ 10718 10713 10712 10709 ] final  -19.96 input   66.30 | X-H torsion
[ 10763 10752 10751 10750 ] final  -15.65 input  -60.55 | X-H torsion
[ 11005 11000 10999 10996 ] final -172.32 input  -57.11 | X-H torsion

> <Gold.Protein.ActiveResidues>
 VAL166  LYS551  ARG553  GLY616  TRP617  ASP618  TYR619  PRO620  LYS621  CYS622 
 ASP623  PHE694  ASN695  SER759  ASP760  ASP761  ALA762  ILE779  LEU786  VAL792 
 PHE793  MET794  SER795  GLU796  ALA797  LYS798  CYS799  TRP800  GLU811  SER814 

> <Gold.Protein.RotatedAtoms>
  151.5611  135.1065  159.9972 H   0  0  0  0  0  0  0  0  0  0  0  0  # atno 6907 bound_to 6896
  152.4446  133.7508  159.6703 H   0  0  0  0  0  0  0  0  0  0  0  0  # atno 6908 bound_to 6896
  150.8359  133.7946  159.3103 H   0  0  0  0  0  0  0  0  0  0  0  0  # atno 6909 bound_to 6896
  146.1083  140.5641  142.8789 H   0  0  0  0  0  0  0  0  0  0  0  0  # atno 7974 bound_to 7965
  156.2732  140.2783  156.1485 H   0  0  0  0  0  0  0  0  0  0  0  0  # atno 8008 bound_to 7997
  155.0878  140.0388  157.2677 H   0  0  0  0  0  0  0  0  0  0  0  0  # atno 8009 bound_to 7997
  154.6913  140.2629  155.6816 H   0  0  0  0  0  0  0  0  0  0  0  0  # atno 8010 bound_to 7997
  139.4861  144.5600  151.7248 H   0  0  0  0  0  0  0  0  0  0  0  0  # atno 10167 bound_to 10162
  156.5385  130.4672  149.6511 H   0  0  0  0  0  0  0  0  0  0  0  0  # atno 10718 bound_to 10713
  153.5465  135.7012  153.5611 H   0  0  0  0  0  0  0  0  0  0  0  0  # atno 10763 bound_to 10752
  153.3554  135.3984  155.1678 H   0  0  0  0  0  0  0  0  0  0  0  0  # atno 10764 bound_to 10752
  154.8667  135.3775  154.4973 H   0  0  0  0  0  0  0  0  0  0  0  0  # atno 10765 bound_to 10752
  140.4983  134.5918  157.4979 H   0  0  0  0  0  0  0  0  0  0  0  0  # atno 11005 bound_to 11000
  144.7490  140.5141  143.6815 LP  0  0  0  0  0  0  0  0  0  0  0  0  # atno 17320 bound_to 7965
  145.5716  139.1484  143.3285 LP  0  0  0  0  0  0  0  0  0  0  0  0  # atno 17321 bound_to 7965
  140.5169  144.0940  150.6011 LP  0  0  0  0  0  0  0  0  0  0  0  0  # atno 17342 bound_to 10162
  140.3884  143.2765  152.0089 LP  0  0  0  0  0  0  0  0  0  0  0  0  # atno 17343 bound_to 10162
  156.2994  130.7168  151.2036 LP  0  0  0  0  0  0  0  0  0  0  0  0  # atno 17370 bound_to 10713
  157.7409  131.0510  150.5131 LP  0  0  0  0  0  0  0  0  0  0  0  0  # atno 17371 bound_to 10713
  139.9728  134.7264  156.0008 LP  0  0  0  0  0  0  0  0  0  0  0  0  # atno 17394 bound_to 11000
  141.1449  133.6558  156.3837 LP  0  0  0  0  0  0  0  0  0  0  0  0  # atno 17395 bound_to 11000

$$$$
