AV-unprocessed.smi:686|AV-procd|sdf|3348|dock7
  -GOLD-   22720 0323D 1   1.00000     0.00000
 Structure written by MMmdl.
 40 41  0  0  0  0  0  0  0  0  3 V2000
  147.7159  132.4901  158.2532 C   0  0  0  0  0  0  0  0  0  0  0  0
  147.3211  133.6698  159.1663 C   0  0  1  0  0  0  0  0  0  0  0  0
  147.6555  133.4758  160.6552 C   0  0  0  0  0  0  0  0  0  0  0  0
  147.9542  134.8229  161.2064 N   0  3  2  0  0  0  0  0  0  0  0  0
  147.3673  135.1115  162.5453 C   0  0  0  0  0  0  0  0  0  0  0  0
  145.8269  135.1095  162.5072 C   0  0  0  0  0  0  0  0  0  0  0  0
  147.8657  136.4651  163.0855 C   0  0  0  0  0  0  0  0  0  0  0  0
  147.6474  135.8043  160.1389 C   0  0  0  0  0  0  0  0  0  0  0  0
  147.8815  135.0605  158.8198 C   0  0  1  0  0  0  0  0  0  0  0  0
  149.3141  134.9979  158.5313 N   0  5  0  0  0  0  0  0  0  0  0  0
  150.1447  136.3115  158.0489 S   0  0  0  0  0  0  0  0  0  0  0  0
  149.3004  137.4953  157.8135 O   0  0  0  0  0  0  0  0  0  0  0  0
  151.3369  136.5122  158.8864 O   0  0  0  0  0  0  0  0  0  0  0  0
  150.7858  135.7826  156.3956 C   0  0  0  0  0  0  0  0  0  0  0  0
  151.6973  136.8389  155.8372 C   0  0  0  0  0  0  0  0  0  0  0  0
  151.5591  137.5815  154.6316 C   0  0  0  0  0  0  0  0  0  0  0  0
  152.6580  138.3909  154.6272 C   0  0  0  0  0  0  0  0  0  0  0  0
  153.4088  138.1787  155.7370 O   0  0  0  0  0  0  0  0  0  0  0  0
  152.7859  137.1885  156.5051 N   0  0  0  0  0  0  0  0  0  0  0  0
  148.7859  132.2783  158.2869 H   0  0  0  0  0  0  0  0  0  0  0  0
  147.4434  132.6735  157.2125 H   0  0  0  0  0  0  0  0  0  0  0  0
  147.2013  131.5810  158.5648 H   0  0  0  0  0  0  0  0  0  0  0  0
  146.2352  133.7602  159.1014 H   0  0  0  0  0  0  0  0  0  0  0  0
  146.8177  132.9963  161.1637 H   0  0  0  0  0  0  0  0  0  0  0  0
  148.5320  132.8407  160.7955 H   0  0  0  0  0  0  0  0  0  0  0  0
  147.6883  134.3262  163.2315 H   0  0  0  0  0  0  0  0  0  0  0  0
  145.4121  135.3746  163.4802 H   0  0  0  0  0  0  0  0  0  0  0  0
  145.4246  134.1291  162.2517 H   0  0  0  0  0  0  0  0  0  0  0  0
  145.4472  135.8281  161.7800 H   0  0  0  0  0  0  0  0  0  0  0  0
  147.4229  136.6841  164.0575 H   0  0  0  0  0  0  0  0  0  0  0  0
  147.6008  137.2806  162.4116 H   0  0  0  0  0  0  0  0  0  0  0  0
  148.9472  136.4830  163.2190 H   0  0  0  0  0  0  0  0  0  0  0  0
  146.5981  136.0969  160.2059 H   0  0  0  0  0  0  0  0  0  0  0  0
  148.2487  136.7088  160.2357 H   0  0  0  0  0  0  0  0  0  0  0  0
  147.3149  135.5115  158.0048 H   0  0  0  0  0  0  0  0  0  0  0  0
  151.3163  134.8391  156.5212 H   0  0  0  0  0  0  0  0  0  0  0  0
  149.9418  135.6022  155.7300 H   0  0  0  0  0  0  0  0  0  0  0  0
  150.7808  137.5216  153.8855 H   0  0  0  0  0  0  0  0  0  0  0  0
  153.0271  139.1371  153.9394 H   0  0  0  0  0  0  0  0  0  0  0  0
  148.9587  134.8557  161.3094 H   0  0  0  0  0  0  0  0  0  0  0  0
  1  2  1  0  0  0  0
  1 20  1  0  0  0  0
  1 21  1  0  0  0  0
  1 22  1  0  0  0  0
  2  9  1  0  0  0  0
  2  3  1  0  0  0  0
  2 23  1  0  0  0  0
  3  4  1  0  0  0  0
  3 24  1  0  0  0  0
  3 25  1  0  0  0  0
  4  5  1  0  0  0  0
  4  8  1  0  0  0  0
  4 40  1  0  0  0  0
  5  6  1  0  0  0  0
  5  7  1  0  0  0  0
  5 26  1  0  0  0  0
  6 27  1  0  0  0  0
  6 28  1  0  0  0  0
  6 29  1  0  0  0  0
  7 30  1  0  0  0  0
  7 31  1  0  0  0  0
  7 32  1  0  0  0  0
  8  9  1  0  0  0  0
  8 33  1  0  0  0  0
  8 34  1  0  0  0  0
  9 10  1  0  0  0  0
  9 35  1  0  0  0  0
 10 11  1  0  0  0  0
 11 12  2  0  0  0  0
 11 13  2  0  0  0  0
 11 14  1  0  0  0  0
 14 15  1  0  0  0  0
 14 36  1  0  0  0  0
 14 37  1  0  0  0  0
 15 19  2  0  0  0  0
 15 16  1  0  0  0  0
 16 17  2  0  0  0  0
 16 38  1  0  0  0  0
 17 18  1  0  0  0  0
 17 39  1  0  0  0  0
 18 19  1  0  0  0  0
M  CHG  1   4   1
M  CHG  1  10  -1
M  END
> <s_m_source_file>
AV-unprocessed.smi

> <i_m_source_file_index>
686

> <i_lp_mmshare_version>
43012

> <i_f3d_flags>
0

> <s_epik_input>
W0NIM11bQ0BASF0xW0NIMl1OKFtDSF0oW0NIM10pW0NIM10pW0NIMl1bQ0BIXTFbTkhdUyg9TykoPU8pW0NIMl1jMltjSF1bY0hdb24y

> <s_epik_cmdline>
J2VwaWtfcHl0aG9uJywgJy1waCcsICc3LjAnLCAnLXRuJywgJzgnLCAnLW1hJywgJzIwMCcsICctbWV0YWxfYmluZGluZycsICctaW1hZScsICc8aW5maWxlLm1hZT4nLCAnLW9tYWUnLCAnPG91dGZpbGUubWFlPic=

> <r_epik_Ionization_Penalty>
3.62478

> <r_epik_Ionization_Penalty_Charging>
3.62478

> <r_epik_Ionization_Penalty_Neutral>
2.03645e-10

> <r_epik_State_Penalty>
3.6247

> <r_epik_Charging_Adjusted_Penalty>
7.24949

> <i_epik_Tot_Q>
0

> <i_epik_Tot_abs_Q>
2

> <r_epik_Metal_State_Penalty>
0.530836

> <b_epik_Metal_Only>
1

> <s_lp_Force_Field>
OPLS_2005

> <r_lp_Energy>
18.5921

> <b_lp_Chiralities_Consistent>
1

> <s_lp_Variant>
AV-unprocessed.smi:686-12

> <Gold.Version>
5.8.1

> <Gold.Id.Protein>
6NUR|6NUR_protein|mol2

> <Gold.PLP.Fitness>
39.1663

> <Gold.PLP.PLP>
-30.3512

> <Gold.PLP.part.hbond>
-3.0000

> <Gold.PLP.part.metal>
0.0000

> <Gold.PLP.part.buried>
-3.6072

> <Gold.PLP.part.nonpolar>
-23.2836

> <Gold.PLP.part.repulsive>
0.0842

> <Gold.PLP.ligand.clash>
0.0000

> <Gold.PLP.ligand.torsion>
0.6415

> <Gold.PLP.Chemscore.Hbond>
3.0000

> <Gold.PLP.Chemscore.CHOScore>
0.0000

> <Gold.PLP.Chemscore.Metal>
0.0000

> <Gold.Chemscore.Hbonds>
donor molecule, donor type, donor heavy atom, donor atom, acceptor molecule, acceptor atom, score
      P1  H  6896  6908       L1    10  1.00
      P1  H  6896  6909       L1    13  0.02
      P1  H  7997  8008       L1    18  0.42

> <Gold.PLP.Chemscore.Internal.Correction>
1.0980

> <Gold.Rescore>
     Score         DG    S(hbond)    S(metal)    S(lipo)     H(rot)  DE(clash)    DE(int)     intcor
     14.19     -16.17       1.91        0.00      72.27       1.61       0.04       1.94       ----

> <Gold.Chemscore.Fitness>
14.1897

> <Gold.Chemscore.DG>
-16.1734

> <Gold.Chemscore.ZeroCoef>
-5.4800

> <Gold.Chemscore.Hbond>
1.9078

> <Gold.Chemscore.Metal>
0.0000

> <Gold.Chemscore.Lipo>
72.2688

> <Gold.Chemscore.Internal_Hbond>
0.0000

> <Gold.Chemscore.DEClash>
0.0409

> <Gold.Chemscore.DEInternal>
1.9428

> <Gold.Chemscore.Rot>
1.6149

> <Gold.Chemscore.Internal.Correction>
   9.000000E+99

> <Gold.Chemscore.Hbonds>
donor molecule, donor type, donor heavy atom, donor atom, acceptor molecule, acceptor atom, score
      P1  H  6896  6908       L1    10  0.02
      P1  H  6896  6909       L1    13  0.05
      P1  H  7997  8008       L1    18  0.22

> <Gold.Chemscore.Hbond.Weighted>
-6.3720

> <Gold.Chemscore.Metal.Weighted>
-0.0000

> <Gold.Chemscore.Lipo.Weighted>
-8.4554

> <Gold.Chemscore.Internal_Hbond.Weighted>
0.0000

> <Gold.Chemscore.DEClash.Weighted>
0.0409

> <Gold.Chemscore.DEInternal.Weighted>
1.9428

> <Gold.Chemscore.Rot.Weighted>
4.1341

> <Gold.Chemscore.Internal.Correction.Weighted>
   9.000000E+99

> <Gold.Protein.RotatedTorsions>
[ 6907 6896 6895 6894 ] final  166.29 input  -60.11 | X-H torsion
[ 7974 7965 7964 7962 ] final  172.49 input  175.53 | X-H torsion
[ 8008 7997 7996 7995 ] final  -31.15 input   59.86 | X-H torsion
[ 10167 10162 10161 10158 ] final  148.64 input  -65.29 | X-H torsion
[ 10718 10713 10712 10709 ] final  -95.47 input   66.30 | X-H torsion
[ 10763 10752 10751 10750 ] final   60.63 input  -60.55 | X-H torsion
[ 11005 11000 10999 10996 ] final   68.92 input  -57.11 | X-H torsion

> <Gold.Protein.ActiveResidues>
 VAL166  LYS551  ARG553  GLY616  TRP617  ASP618  TYR619  PRO620  LYS621  CYS622 
 ASP623  PHE694  ASN695  SER759  ASP760  ASP761  ALA762  ILE779  LEU786  VAL792 
 PHE793  MET794  SER795  GLU796  ALA797  LYS798  CYS799  TRP800  GLU811  SER814 

> <Gold.Protein.RotatedAtoms>
  151.8812  133.3495  159.3766 H   0  0  0  0  0  0  0  0  0  0  0  0  # atno 6907 bound_to 6896
  150.7127  134.5017  159.5574 H   0  0  0  0  0  0  0  0  0  0  0  0  # atno 6908 bound_to 6896
  152.2569  134.8075  160.0488 H   0  0  0  0  0  0  0  0  0  0  0  0  # atno 6909 bound_to 6896
  144.7267  139.9506  143.6432 H   0  0  0  0  0  0  0  0  0  0  0  0  # atno 7974 bound_to 7965
  154.4224  140.1772  156.1521 H   0  0  0  0  0  0  0  0  0  0  0  0  # atno 8008 bound_to 7997
  155.9906  140.3369  155.6725 H   0  0  0  0  0  0  0  0  0  0  0  0  # atno 8009 bound_to 7997
  155.6377  140.0676  157.2619 H   0  0  0  0  0  0  0  0  0  0  0  0  # atno 8010 bound_to 7997
  139.4872  144.5664  151.7137 H   0  0  0  0  0  0  0  0  0  0  0  0  # atno 10167 bound_to 10162
  156.0044  130.5110  150.6081 H   0  0  0  0  0  0  0  0  0  0  0  0  # atno 10718 bound_to 10713
  152.9926  135.5529  154.5905 H   0  0  0  0  0  0  0  0  0  0  0  0  # atno 10763 bound_to 10752
  154.5267  135.2811  155.1218 H   0  0  0  0  0  0  0  0  0  0  0  0  # atno 10764 bound_to 10752
  154.2549  135.6392  153.5306 H   0  0  0  0  0  0  0  0  0  0  0  0  # atno 10765 bound_to 10752
  139.9683  134.6943  156.0499 H   0  0  0  0  0  0  0  0  0  0  0  0  # atno 11005 bound_to 11000
  146.0714  139.3703  143.0521 LP  0  0  0  0  0  0  0  0  0  0  0  0  # atno 17320 bound_to 7965
  145.7963  140.9791  143.1022 LP  0  0  0  0  0  0  0  0  0  0  0  0  # atno 17321 bound_to 7965
  140.5243  144.0831  150.6032 LP  0  0  0  0  0  0  0  0  0  0  0  0  # atno 17342 bound_to 10162
  140.3799  143.2808  152.0182 LP  0  0  0  0  0  0  0  0  0  0  0  0  # atno 17343 bound_to 10162
  157.3918  131.0797  151.1387 LP  0  0  0  0  0  0  0  0  0  0  0  0  # atno 17370 bound_to 10713
  157.2076  130.6423  149.5762 LP  0  0  0  0  0  0  0  0  0  0  0  0  # atno 17371 bound_to 10713
  141.1363  133.6574  156.3603 LP  0  0  0  0  0  0  0  0  0  0  0  0  # atno 17394 bound_to 11000
  140.5348  134.6178  157.5361 LP  0  0  0  0  0  0  0  0  0  0  0  0  # atno 17395 bound_to 11000

$$$$
