AV-unprocessed.smi:35|AV-procd|sdf|269|dock1
  -GOLD-   2262016 33D 1   1.00000     0.00000
 Structure written by MMmdl.
 28 29  0  0  0  0  0  0  0  0  2 V2000
  152.6357  140.9876  158.8398 O   0  0  0  0  0  0  0  0  0  0  0  0
  152.0086  140.9220  157.7841 C   0  0  0  0  0  0  0  0  0  0  0  0
  152.3266  140.0489  156.7858 N   0  5  0  0  0  0  0  0  0  0  0  0
  151.6142  139.9653  155.6240 C   0  0  0  0  0  0  0  0  0  0  0  0
  151.9333  139.2181  154.6995 O   0  0  0  0  0  0  0  0  0  0  0  0
  150.4578  140.7808  155.4595 N   0  0  0  0  0  0  0  0  0  0  0  0
  149.6713  140.7064  154.1590 C   0  0  2  0  0  0  0  0  0  0  0  0
  148.9735  141.9074  153.9659 O   0  0  0  0  0  0  0  0  0  0  0  0
  147.5765  141.7539  154.2165 C   0  0  2  0  0  0  0  0  0  0  0  0
  147.2475  142.0148  155.7052 C   0  0  0  0  0  0  0  0  0  0  0  0
  145.8666  141.8310  155.9341 O   0  0  0  0  0  0  0  0  0  0  0  0
  147.3420  140.3157  153.7422 C   0  0  2  0  0  0  0  0  0  0  0  0
  146.1813  139.7258  154.2943 O   0  0  0  0  0  0  0  0  0  0  0  0
  148.6063  139.5844  154.1730 C   0  0  1  0  0  0  0  0  0  0  0  0
  148.8992  138.5673  153.2363 O   0  0  0  0  0  0  0  0  0  0  0  0
  150.1567  141.7253  156.4301 C   0  0  0  0  0  0  0  0  0  0  0  0
  150.8748  141.8147  157.5673 C   0  0  0  0  0  0  0  0  0  0  0  0
  150.3106  143.1983  158.8686 Br  0  0  0  0  0  0  0  0  0  0  0  0
  150.4323  140.5944  153.3846 H   0  0  0  0  0  0  0  0  0  0  0  0
  147.0082  142.4470  153.5947 H   0  0  0  0  0  0  0  0  0  0  0  0
  147.7593  141.2938  156.3421 H   0  0  0  0  0  0  0  0  0  0  0  0
  147.5650  143.0014  156.0385 H   0  0  0  0  0  0  0  0  0  0  0  0
  145.7584  141.1548  156.5854 H   0  0  0  0  0  0  0  0  0  0  0  0
  147.2594  140.3187  152.6538 H   0  0  0  0  0  0  0  0  0  0  0  0
  145.4589  139.8903  153.7073 H   0  0  0  0  0  0  0  0  0  0  0  0
  148.4986  139.1776  155.1801 H   0  0  0  0  0  0  0  0  0  0  0  0
  149.2787  138.9761  152.4720 H   0  0  0  0  0  0  0  0  0  0  0  0
  149.3358  142.4118  156.2930 H   0  0  0  0  0  0  0  0  0  0  0  0
  1  2  2  0  0  0  0
  2 17  1  0  0  0  0
  2  3  1  0  0  0  0
  3  4  1  0  0  0  0
  4  5  2  0  0  0  0
  4  6  1  0  0  0  0
  6  7  1  0  0  0  0
  6 16  1  0  0  0  0
  7 14  1  0  0  0  0
  7  8  1  0  0  0  0
  7 19  1  0  0  0  0
  8  9  1  0  0  0  0
  9 10  1  0  0  0  0
  9 12  1  0  0  0  0
  9 20  1  0  0  0  0
 10 11  1  0  0  0  0
 10 21  1  0  0  0  0
 10 22  1  0  0  0  0
 11 23  1  0  0  0  0
 12 13  1  0  0  0  0
 12 14  1  0  0  0  0
 12 24  1  0  0  0  0
 13 25  1  0  0  0  0
 14 15  1  0  0  0  0
 14 26  1  0  0  0  0
 15 27  1  0  0  0  0
 16 17  2  0  0  0  0
 16 28  1  0  0  0  0
 17 18  1  0  0  0  0
M  CHG  1   3  -1
M  END
> <s_m_source_file>
AV-unprocessed.smi

> <i_m_source_file_index>
35

> <i_lp_mmshare_version>
43012

> <i_f3d_flags>
0

> <s_epik_input>
Tz1jMVtuSF1jKD1PKW4oW2NIXWMxQnIpW0NAQEhdMk9bQ0BASF0oW0NIMl1bT0hdKVtDQEBIXShbT0hdKVtDQEhdMltPSF0=

> <s_epik_cmdline>
J2VwaWtfcHl0aG9uJywgJy1waCcsICc3LjAnLCAnLXRuJywgJzgnLCAnLW1hJywgJzIwMCcsICctbWV0YWxfYmluZGluZycsICctaW1hZScsICc8aW5maWxlLm1hZT4nLCAnLW9tYWUnLCAnPG91dGZpbGUubWFlPic=

> <r_epik_Ionization_Penalty>
1.06112

> <r_epik_Ionization_Penalty_Charging>
2.1796e-09

> <r_epik_Ionization_Penalty_Neutral>
1.06112

> <r_epik_State_Penalty>
1.11484

> <r_epik_Charging_Adjusted_Penalty>
1.11484

> <i_epik_Tot_Q>
-1

> <i_epik_Tot_abs_Q>
1

> <r_epik_Metal_State_Penalty>
0.0032876

> <b_epik_Metal_Only>
0

> <s_epik_Chemistry_Notes>
This compound contains an acetal/aminal-like group ( X-CH(R)-Y where X, Y are N, S, or O) that may be acid/base labile, releasing an aldehyde.

> <s_lp_Force_Field>
OPLS_2005

> <r_lp_Energy>
39.1741

> <b_lp_Chiralities_Consistent>
1

> <s_lp_Variant>
AV-unprocessed.smi:35-23

> <Gold.Version>
5.8.1

> <Gold.Id.Protein>
6NUR|6NUR_protein|mol2

> <Gold.PLP.Fitness>
43.1366

> <Gold.PLP.PLP>
-28.6909

> <Gold.PLP.part.hbond>
-5.7740

> <Gold.PLP.part.metal>
0.0000

> <Gold.PLP.part.buried>
1.6562

> <Gold.PLP.part.nonpolar>
-23.6971

> <Gold.PLP.part.repulsive>
0.2716

> <Gold.PLP.ligand.clash>
0.0000

> <Gold.PLP.ligand.torsion>
0.6213

> <Gold.PLP.Chemscore.Hbond>
4.2090

> <Gold.PLP.Chemscore.CHOScore>
1.0000

> <Gold.PLP.Chemscore.Metal>
0.0000

> <Gold.Chemscore.Hbonds>
donor molecule, donor type, donor heavy atom, donor atom, acceptor molecule, acceptor atom, score
      L1  H    13    25       P1 10175  0.47
      L1  H    15    27       P1  7957  1.00
      P1  H  7989  7998       L1     5  0.28
      P1  H  7997  8010       L1     3  1.98
      P1  H  8011  8017       L1     8  0.43
      L1  C    16    28       P1  8028  1.00

> <Gold.PLP.Chemscore.Internal.Correction>
0.0613

> <Gold.Rescore>
     Score         DG    S(hbond)    S(metal)    S(lipo)     H(rot)  DE(clash)    DE(int)     intcor
      6.60      -8.78       2.25        0.00      43.47       3.63       0.62       1.57       ----

> <Gold.Chemscore.Fitness>
6.5990

> <Gold.Chemscore.DG>
-8.7844

> <Gold.Chemscore.ZeroCoef>
-5.4800

> <Gold.Chemscore.Hbond>
2.2460

> <Gold.Chemscore.Metal>
0.0000

> <Gold.Chemscore.Lipo>
43.4663

> <Gold.Chemscore.Internal_Hbond>
0.0000

> <Gold.Chemscore.DEClash>
0.6158

> <Gold.Chemscore.DEInternal>
1.5696

> <Gold.Chemscore.Rot>
3.6261

> <Gold.Chemscore.Internal.Correction>
   9.000000E+99

> <Gold.Chemscore.Hbonds>
donor molecule, donor type, donor heavy atom, donor atom, acceptor molecule, acceptor atom, score
      L1  H    13    25       P1 10175  0.48
      L1  H    15    27       P1  7957  0.96
      P1  H  7997  8010       L1     3  0.51
      P1  H  8011  8017       L1     8  0.09

> <Gold.Chemscore.Hbond.Weighted>
-7.5016

> <Gold.Chemscore.Metal.Weighted>
-0.0000

> <Gold.Chemscore.Lipo.Weighted>
-5.0856

> <Gold.Chemscore.Internal_Hbond.Weighted>
0.0000

> <Gold.Chemscore.DEClash.Weighted>
0.6158

> <Gold.Chemscore.DEInternal.Weighted>
1.5696

> <Gold.Chemscore.Rot.Weighted>
9.2828

> <Gold.Chemscore.Internal.Correction.Weighted>
   9.000000E+99

> <Gold.Protein.RotatedTorsions>
[ 6907 6896 6895 6894 ] final   20.57 input  -60.11 | X-H torsion
[ 7974 7965 7964 7962 ] final -128.95 input  175.53 | X-H torsion
[ 8008 7997 7996 7995 ] final   68.85 input   59.86 | X-H torsion
[ 10167 10162 10161 10158 ] final   24.65 input  -65.29 | X-H torsion
[ 10718 10713 10712 10709 ] final  113.53 input   66.30 | X-H torsion
[ 10763 10752 10751 10750 ] final   94.88 input  -60.55 | X-H torsion
[ 11005 11000 10999 10996 ] final  133.21 input  -57.11 | X-H torsion

> <Gold.Protein.ActiveResidues>
 VAL166  LYS551  ARG553  GLY616  TRP617  ASP618  TYR619  PRO620  LYS621  CYS622 
 ASP623  PHE694  ASN695  SER759  ASP760  ASP761  ALA762  ILE779  LEU786  VAL792 
 PHE793  MET794  SER795  GLU796  ALA797  LYS798  CYS799  TRP800  GLU811  SER814 

> <Gold.Protein.RotatedAtoms>
  151.8985  135.0388  160.0503 H   0  0  0  0  0  0  0  0  0  0  0  0  # atno 6907 bound_to 6896
  152.2378  133.5106  159.5261 H   0  0  0  0  0  0  0  0  0  0  0  0  # atno 6908 bound_to 6896
  150.7044  134.1047  159.4021 H   0  0  0  0  0  0  0  0  0  0  0  0  # atno 6909 bound_to 6896
  144.9620  140.7457  143.4723 H   0  0  0  0  0  0  0  0  0  0  0  0  # atno 7974 bound_to 7965
  155.7146  140.3494  155.4989 H   0  0  0  0  0  0  0  0  0  0  0  0  # atno 8008 bound_to 7997
  155.9325  140.1087  157.1143 H   0  0  0  0  0  0  0  0  0  0  0  0  # atno 8009 bound_to 7997
  154.4088  140.1228  156.4808 H   0  0  0  0  0  0  0  0  0  0  0  0  # atno 8010 bound_to 7997
  140.5171  144.0064  150.6399 H   0  0  0  0  0  0  0  0  0  0  0  0  # atno 10167 bound_to 10162
  157.6333  131.0985  150.7054 H   0  0  0  0  0  0  0  0  0  0  0  0  # atno 10718 bound_to 10713
  153.2467  135.4274  155.0755 H   0  0  0  0  0  0  0  0  0  0  0  0  # atno 10763 bound_to 10752
  154.8364  135.3416  154.6571 H   0  0  0  0  0  0  0  0  0  0  0  0  # atno 10764 bound_to 10752
  153.6993  135.7029  153.5124 H   0  0  0  0  0  0  0  0  0  0  0  0  # atno 10765 bound_to 10752
  139.9837  134.9539  156.9692 H   0  0  0  0  0  0  0  0  0  0  0  0  # atno 11005 bound_to 11000
  145.2686  139.1964  143.4854 LP  0  0  0  0  0  0  0  0  0  0  0  0  # atno 17320 bound_to 7965
  146.3356  140.2628  142.8602 LP  0  0  0  0  0  0  0  0  0  0  0  0  # atno 17321 bound_to 7965
  140.3403  143.3023  152.0595 LP  0  0  0  0  0  0  0  0  0  0  0  0  # atno 17342 bound_to 10162
  139.4912  144.6447  151.6803 LP  0  0  0  0  0  0  0  0  0  0  0  0  # atno 17343 bound_to 10162
  156.7390  130.4733  149.5482 LP  0  0  0  0  0  0  0  0  0  0  0  0  # atno 17370 bound_to 10713
  156.1552  130.6337  151.0648 LP  0  0  0  0  0  0  0  0  0  0  0  0  # atno 17371 bound_to 10713
  140.5045  134.1064  155.7257 LP  0  0  0  0  0  0  0  0  0  0  0  0  # atno 17394 bound_to 11000
  141.1506  133.8976  157.2108 LP  0  0  0  0  0  0  0  0  0  0  0  0  # atno 17395 bound_to 11000

$$$$
