AV-unprocessed.smi:3032|AV-procd|sdf|11568|dock6
  -GOLD-   2272016533D 1   1.00000     0.00000
 Structure written by MMmdl.
 37 38  0  0  0  0  0  0  0  0  1 V2000
  153.0806  142.8296  162.3568 C   0  0  0  0  0  0  0  0  0  0  0  0
  152.2719  143.1939  161.1035 C   0  0  1  0  0  0  0  0  0  0  0  0
  151.8630  144.6783  161.1118 C   0  0  0  0  0  0  0  0  0  0  0  0
  151.0500  145.0475  159.8619 C   0  0  0  0  0  0  0  0  0  0  0  0
  151.8197  144.7102  158.5720 C   0  0  0  0  0  0  0  0  0  0  0  0
  152.3154  143.2464  158.5116 C   0  0  2  0  0  0  0  0  0  0  0  0
  151.1988  142.2497  158.1466 C   0  0  0  0  0  0  0  0  0  0  0  0
  151.0417  141.2106  158.7873 O   0  0  0  0  0  0  0  0  0  0  0  0
  150.4254  142.5810  157.1004 N   0  0  0  0  0  0  0  0  0  0  0  0
  149.3315  141.7711  156.5767 C   0  0  0  0  0  0  0  0  0  0  0  0
  149.5914  141.3445  155.1228 C   0  0  0  0  0  0  0  0  0  0  0  0
  150.0661  139.9324  155.0170 C   0  0  0  0  0  0  0  0  0  0  0  0
  150.4172  139.1648  156.0559 N   0  0  0  0  0  0  0  0  0  0  0  0
  150.7721  137.9404  155.5111 N   0  0  0  0  0  0  0  0  0  0  0  0
  150.5958  138.0875  154.1971 C   0  0  0  0  0  0  0  0  0  0  0  0
  150.1577  139.2996  153.8374 N   0  0  0  0  0  0  0  0  0  0  0  0
  153.0543  142.8584  159.8148 C   0  0  0  0  0  0  0  0  0  0  0  0
  149.9501  139.6482  152.9130 H   0  0  0  0  0  0  0  0  0  0  0  0
  154.0095  143.3982  162.4096 H   0  0  0  0  0  0  0  0  0  0  0  0
  153.3375  141.7700  162.3634 H   0  0  0  0  0  0  0  0  0  0  0  0
  152.5121  143.0354  163.2641 H   0  0  0  0  0  0  0  0  0  0  0  0
  151.3629  142.5930  161.1275 H   0  0  0  0  0  0  0  0  0  0  0  0
  151.2776  144.8996  162.0049 H   0  0  0  0  0  0  0  0  0  0  0  0
  152.7538  145.3059  161.1636 H   0  0  0  0  0  0  0  0  0  0  0  0
  150.0921  144.5283  159.8793 H   0  0  0  0  0  0  0  0  0  0  0  0
  150.8142  146.1118  159.8789 H   0  0  0  0  0  0  0  0  0  0  0  0
  151.1970  144.9345  157.7048 H   0  0  0  0  0  0  0  0  0  0  0  0
  152.6819  145.3740  158.4960 H   0  0  0  0  0  0  0  0  0  0  0  0
  153.0490  143.1967  157.7050 H   0  0  0  0  0  0  0  0  0  0  0  0
  150.6149  143.4534  156.6286 H   0  0  0  0  0  0  0  0  0  0  0  0
  149.1733  140.8972  157.2110 H   0  0  0  0  0  0  0  0  0  0  0  0
  148.4178  142.3632  156.6311 H   0  0  0  0  0  0  0  0  0  0  0  0
  148.6820  141.4569  154.5309 H   0  0  0  0  0  0  0  0  0  0  0  0
  150.3401  141.9931  154.6662 H   0  0  0  0  0  0  0  0  0  0  0  0
  150.7884  137.2969  153.4867 H   0  0  0  0  0  0  0  0  0  0  0  0
  154.0129  143.3785  159.8371 H   0  0  0  0  0  0  0  0  0  0  0  0
  153.2977  141.7949  159.7995 H   0  0  0  0  0  0  0  0  0  0  0  0
  1  2  1  0  0  0  0
  1 19  1  0  0  0  0
  1 20  1  0  0  0  0
  1 21  1  0  0  0  0
  2 17  1  0  0  0  0
  2  3  1  0  0  0  0
  2 22  1  0  0  0  0
  3  4  1  0  0  0  0
  3 23  1  0  0  0  0
  3 24  1  0  0  0  0
  4  5  1  0  0  0  0
  4 25  1  0  0  0  0
  4 26  1  0  0  0  0
  5  6  1  0  0  0  0
  5 27  1  0  0  0  0
  5 28  1  0  0  0  0
  6  7  1  0  0  0  0
  6 17  1  0  0  0  0
  6 29  1  0  0  0  0
  7  8  2  0  0  0  0
  7  9  1  0  0  0  0
  9 10  1  0  0  0  0
  9 30  1  0  0  0  0
 10 11  1  0  0  0  0
 10 31  1  0  0  0  0
 10 32  1  0  0  0  0
 11 12  1  0  0  0  0
 11 33  1  0  0  0  0
 11 34  1  0  0  0  0
 12 16  1  0  0  0  0
 12 13  2  0  0  0  0
 13 14  1  0  0  0  0
 14 15  2  0  0  0  0
 15 16  1  0  0  0  0
 15 35  1  0  0  0  0
 16 18  1  0  0  0  0
 17 36  1  0  0  0  0
 17 37  1  0  0  0  0
M  END
> <s_m_source_file>
AV-unprocessed.smi

> <i_m_source_file_index>
3032

> <i_lp_mmshare_version>
43012

> <i_f3d_flags>
0

> <s_epik_input>
W0NIM11bQ0BASF0xW0NIMl1bQ0gyXVtDSDJdW0NASF0oW0NIMl0xKUMoPU8pW05IXVtDSDJdW0NIMl1jMm5uW2NIXVtuSF0y

> <s_epik_cmdline>
J2VwaWtfcHl0aG9uJywgJy1waCcsICc3LjAnLCAnLXRuJywgJzgnLCAnLW1hJywgJzIwMCcsICctbWV0YWxfYmluZGluZycsICctaW1hZScsICc8aW5maWxlLm1hZT4nLCAnLW9tYWUnLCAnPG91dGZpbGUubWFlPic=

> <r_lp_tautomer_probability>
0.0517155

> <r_epik_Ionization_Penalty>
0.00149837

> <r_epik_Ionization_Penalty_Charging>
0

> <r_epik_Ionization_Penalty_Neutral>
0.00149837

> <r_epik_State_Penalty>
2.1109

> <r_epik_Charging_Adjusted_Penalty>
2.1109

> <i_epik_Tot_Q>
0

> <i_epik_Tot_abs_Q>
0

> <r_epik_Metal_State_Penalty>
2.23635

> <b_epik_Metal_Only>
0

> <s_lp_Force_Field>
OPLS_2005

> <r_lp_Energy>
9.23597

> <b_lp_Chiralities_Consistent>
1

> <s_lp_Variant>
AV-unprocessed.smi:3032-12

> <Gold.Version>
5.8.1

> <Gold.Id.Protein>
6NUR|6NUR_protein|mol2

> <Gold.PLP.Fitness>
46.9355

> <Gold.PLP.PLP>
-41.2597

> <Gold.PLP.part.hbond>
-2.0000

> <Gold.PLP.part.metal>
0.0000

> <Gold.PLP.part.buried>
-4.0888

> <Gold.PLP.part.nonpolar>
-35.9697

> <Gold.PLP.part.repulsive>
0.7527

> <Gold.PLP.ligand.clash>
0.0000

> <Gold.PLP.ligand.torsion>
0.5634

> <Gold.PLP.Chemscore.Hbond>
1.1357

> <Gold.PLP.Chemscore.CHOScore>
1.1131

> <Gold.PLP.Chemscore.Metal>
0.0000

> <Gold.Chemscore.Hbonds>
donor molecule, donor type, donor heavy atom, donor atom, acceptor molecule, acceptor atom, score
      L1  H     9    30       P1  8028  0.10
      L1  H    16    18       P1  7957  1.00
      L1  C    15    35       P1  7948  0.27
      L1  C    15    35       P1  7949  0.83

> <Gold.PLP.Chemscore.Internal.Correction>
0.0561

> <Gold.Rescore>
     Score         DG    S(hbond)    S(metal)    S(lipo)     H(rot)  DE(clash)    DE(int)     intcor
     15.14     -15.75       1.49        0.00      94.48       2.25       0.03       0.58       ----

> <Gold.Chemscore.Fitness>
15.1426

> <Gold.Chemscore.DG>
-15.7525

> <Gold.Chemscore.ZeroCoef>
-5.4800

> <Gold.Chemscore.Hbond>
1.4906

> <Gold.Chemscore.Metal>
0.0000

> <Gold.Chemscore.Lipo>
94.4802

> <Gold.Chemscore.Internal_Hbond>
0.0000

> <Gold.Chemscore.DEClash>
0.0253

> <Gold.Chemscore.DEInternal>
0.5845

> <Gold.Chemscore.Rot>
2.2501

> <Gold.Chemscore.Internal.Correction>
   9.000000E+99

> <Gold.Chemscore.Hbonds>
donor molecule, donor type, donor heavy atom, donor atom, acceptor molecule, acceptor atom, score
      L1  H     9    30       P1  8028  0.10
      L1  H    16    18       P1  7957  1.00

> <Gold.Chemscore.Hbond.Weighted>
-4.9786

> <Gold.Chemscore.Metal.Weighted>
-0.0000

> <Gold.Chemscore.Lipo.Weighted>
-11.0542

> <Gold.Chemscore.Internal_Hbond.Weighted>
0.0000

> <Gold.Chemscore.DEClash.Weighted>
0.0253

> <Gold.Chemscore.DEInternal.Weighted>
0.5845

> <Gold.Chemscore.Rot.Weighted>
5.7603

> <Gold.Chemscore.Internal.Correction.Weighted>
   9.000000E+99

> <Gold.Protein.RotatedTorsions>
[ 6907 6896 6895 6894 ] final   68.18 input  -60.11 | X-H torsion
[ 7974 7965 7964 7962 ] final   50.16 input  175.53 | X-H torsion
[ 8008 7997 7996 7995 ] final   68.69 input   59.86 | X-H torsion
[ 10167 10162 10161 10158 ] final  145.79 input  -65.29 | X-H torsion
[ 10718 10713 10712 10709 ] final -127.78 input   66.30 | X-H torsion
[ 10763 10752 10751 10750 ] final  107.04 input  -60.55 | X-H torsion
[ 11005 11000 10999 10996 ] final -113.01 input  -57.11 | X-H torsion

> <Gold.Protein.ActiveResidues>
 VAL166  LYS551  ARG553  GLY616  TRP617  ASP618  TYR619  PRO620  LYS621  CYS622 
 ASP623  PHE694  ASN695  SER759  ASP760  ASP761  ALA762  ILE779  LEU786  VAL792 
 PHE793  MET794  SER795  GLU796  ALA797  LYS798  CYS799  TRP800  GLU811  SER814 

> <Gold.Protein.RotatedAtoms>
  152.4603  134.5199  159.9779 H   0  0  0  0  0  0  0  0  0  0  0  0  # atno 6907 bound_to 6896
  151.5250  133.3453  159.2916 H   0  0  0  0  0  0  0  0  0  0  0  0  # atno 6908 bound_to 6896
  150.8563  134.7932  159.7110 H   0  0  0  0  0  0  0  0  0  0  0  0  # atno 6909 bound_to 6896
  146.0038  139.4468  142.9998 H   0  0  0  0  0  0  0  0  0  0  0  0  # atno 7974 bound_to 7965
  155.7122  140.3494  155.4978 H   0  0  0  0  0  0  0  0  0  0  0  0  # atno 8008 bound_to 7997
  155.9346  140.1090  157.1127 H   0  0  0  0  0  0  0  0  0  0  0  0  # atno 8009 bound_to 7997
  154.4091  140.1224  156.4833 H   0  0  0  0  0  0  0  0  0  0  0  0  # atno 8010 bound_to 7997
  139.4919  144.5876  151.6747 H   0  0  0  0  0  0  0  0  0  0  0  0  # atno 10167 bound_to 10162
  156.1889  130.6782  151.0399 H   0  0  0  0  0  0  0  0  0  0  0  0  # atno 10718 bound_to 10713
  153.4013  135.3857  155.1989 H   0  0  0  0  0  0  0  0  0  0  0  0  # atno 10763 bound_to 10752
  154.8729  135.3772  154.4615 H   0  0  0  0  0  0  0  0  0  0  0  0  # atno 10764 bound_to 10752
  153.5113  135.7087  153.5841 H   0  0  0  0  0  0  0  0  0  0  0  0  # atno 10765 bound_to 10752
  141.0640  133.9489  157.2613 H   0  0  0  0  0  0  0  0  0  0  0  0  # atno 11005 bound_to 11000
  145.7446  140.9995  143.1282 LP  0  0  0  0  0  0  0  0  0  0  0  0  # atno 17320 bound_to 7965
  144.6928  139.9141  143.7465 LP  0  0  0  0  0  0  0  0  0  0  0  0  # atno 17321 bound_to 7965
  140.5495  144.0448  150.6121 LP  0  0  0  0  0  0  0  0  0  0  0  0  # atno 17342 bound_to 10162
  140.3497  143.2970  152.0500 LP  0  0  0  0  0  0  0  0  0  0  0  0  # atno 17343 bound_to 10162
  157.6916  131.0808  150.7090 LP  0  0  0  0  0  0  0  0  0  0  0  0  # atno 17370 bound_to 10713
  156.7147  130.4662  149.5538 LP  0  0  0  0  0  0  0  0  0  0  0  0  # atno 17371 bound_to 10713
  139.9459  135.0184  156.8850 LP  0  0  0  0  0  0  0  0  0  0  0  0  # atno 17394 bound_to 11000
  140.5811  134.0352  155.7464 LP  0  0  0  0  0  0  0  0  0  0  0  0  # atno 17395 bound_to 11000

$$$$
