AV-unprocessed.smi:1615|AV-procd|sdf|6481|dock10
  -GOLD-   22720 7143D 1   1.00000     0.00000
 Structure written by MMmdl.
 32 33  0  0  0  0  0  0  0  0  1 V2000
  151.7120  140.8358  157.2911 O   0  0  0  0  0  0  0  0  0  0  0  0
  150.9293  141.6418  156.7892 C   0  0  0  0  0  0  0  0  0  0  0  0
  149.9159  141.1713  155.7454 C   0  0  0  0  0  0  0  0  0  0  0  0
  150.0542  139.7485  155.4893 N   0  0  0  0  0  0  0  0  0  0  0  0
  149.5375  138.6946  156.2194 C   0  0  0  0  0  0  0  0  0  0  0  0
  149.9531  137.5693  155.5761 C   0  0  0  0  0  0  0  0  0  0  0  0
  149.5811  135.7712  156.0733 Br  0  0  0  0  0  0  0  0  0  0  0  0
  150.7186  138.0024  154.4640 C   0  0  0  0  0  0  0  0  0  0  0  0
  150.7743  139.3254  154.4180 N   0  0  0  0  0  0  0  0  0  0  0  0
  150.8954  142.9460  157.1056 N   0  0  0  0  0  0  0  0  0  0  0  0
  151.7365  143.6107  158.0966 C   0  0  0  0  0  0  0  0  0  0  0  0
  151.9202  142.6885  159.3168 C   0  0  0  0  0  0  0  0  0  0  0  0
  152.7222  143.3803  160.4307 C   0  0  0  0  0  0  0  0  0  0  0  0
  152.0742  144.7127  160.8386 C   0  0  0  0  0  0  0  0  0  0  0  0
  151.9031  145.6385  159.6241 C   0  0  0  0  0  0  0  0  0  0  0  0
  151.0991  144.9519  158.5078 C   0  0  0  0  0  0  0  0  0  0  0  0
  148.8999  141.3720  156.0884 H   0  0  0  0  0  0  0  0  0  0  0  0
  150.0548  141.7236  154.8146 H   0  0  0  0  0  0  0  0  0  0  0  0
  148.9389  138.8345  157.1075 H   0  0  0  0  0  0  0  0  0  0  0  0
  151.2225  137.4183  153.7082 H   0  0  0  0  0  0  0  0  0  0  0  0
  150.2187  143.5258  156.6308 H   0  0  0  0  0  0  0  0  0  0  0  0
  152.7236  143.8190  157.6797 H   0  0  0  0  0  0  0  0  0  0  0  0
  150.9456  142.3915  159.7067 H   0  0  0  0  0  0  0  0  0  0  0  0
  152.4255  141.7693  159.0169 H   0  0  0  0  0  0  0  0  0  0  0  0
  152.7984  142.7230  161.2971 H   0  0  0  0  0  0  0  0  0  0  0  0
  153.7422  143.5603  160.0885 H   0  0  0  0  0  0  0  0  0  0  0  0
  151.1017  144.5227  161.2946 H   0  0  0  0  0  0  0  0  0  0  0  0
  152.6815  145.2046  161.5990 H   0  0  0  0  0  0  0  0  0  0  0  0
  151.4066  146.5608  159.9263 H   0  0  0  0  0  0  0  0  0  0  0  0
  152.8841  145.9259  159.2434 H   0  0  0  0  0  0  0  0  0  0  0  0
  151.0318  145.6137  157.6434 H   0  0  0  0  0  0  0  0  0  0  0  0
  150.0768  144.7863  158.8508 H   0  0  0  0  0  0  0  0  0  0  0  0
  1  2  2  0  0  0  0
  2  3  1  0  0  0  0
  2 10  1  0  0  0  0
  3  4  1  0  0  0  0
  3 17  1  0  0  0  0
  3 18  1  0  0  0  0
  4  9  1  0  0  0  0
  4  5  1  0  0  0  0
  5  6  2  0  0  0  0
  5 19  1  0  0  0  0
  6  7  1  0  0  0  0
  6  8  1  0  0  0  0
  8  9  2  0  0  0  0
  8 20  1  0  0  0  0
 10 11  1  0  0  0  0
 10 21  1  0  0  0  0
 11 16  1  0  0  0  0
 11 12  1  0  0  0  0
 11 22  1  0  0  0  0
 12 13  1  0  0  0  0
 12 23  1  0  0  0  0
 12 24  1  0  0  0  0
 13 14  1  0  0  0  0
 13 25  1  0  0  0  0
 13 26  1  0  0  0  0
 14 15  1  0  0  0  0
 14 27  1  0  0  0  0
 14 28  1  0  0  0  0
 15 16  1  0  0  0  0
 15 29  1  0  0  0  0
 15 30  1  0  0  0  0
 16 31  1  0  0  0  0
 16 32  1  0  0  0  0
M  END
> <s_m_source_file>
AV-unprocessed.smi

> <i_m_source_file_index>
1615

> <i_lp_mmshare_version>
43012

> <i_f3d_flags>
0

> <s_epik_input>
bjFbY0hdYyhCcilbY0hdbjFbQ0gyXUMoPU8pW05IXVtDSF0yW0NIMl1bQ0gyXVtDSDJdW0NIMl1bQ0gyXTI=

> <s_epik_cmdline>
J2VwaWtfcHl0aG9uJywgJy1waCcsICc3LjAnLCAnLXRuJywgJzgnLCAnLW1hJywgJzIwMCcsICctbWV0YWxfYmluZGluZycsICctaW1hZScsICc8aW5maWxlLm1hZT4nLCAnLW9tYWUnLCAnPG91dGZpbGUubWFlPic=

> <r_lp_tautomer_probability>
1

> <r_epik_Ionization_Penalty>
2.45271e-07

> <r_epik_Ionization_Penalty_Charging>
0

> <r_epik_Ionization_Penalty_Neutral>
2.45271e-07

> <r_epik_State_Penalty>
-0

> <r_epik_Charging_Adjusted_Penalty>
0

> <i_epik_Tot_Q>
0

> <i_epik_Tot_abs_Q>
0

> <r_epik_Metal_State_Penalty>
-0

> <b_epik_Metal_Only>
0

> <s_lp_Force_Field>
OPLS_2005

> <r_lp_Energy>
11.9835

> <b_lp_Chiralities_Consistent>
1

> <s_lp_Variant>
AV-unprocessed.smi:1615-1

> <Gold.Version>
5.8.1

> <Gold.Id.Protein>
6NUR|6NUR_protein|mol2

> <Gold.PLP.Fitness>
44.8827

> <Gold.PLP.PLP>
-37.0777

> <Gold.PLP.part.hbond>
-2.0000

> <Gold.PLP.part.metal>
0.0000

> <Gold.PLP.part.buried>
-3.7908

> <Gold.PLP.part.nonpolar>
-30.7552

> <Gold.PLP.part.repulsive>
0.1908

> <Gold.PLP.ligand.clash>
0.0000

> <Gold.PLP.ligand.torsion>
0.5990

> <Gold.PLP.Chemscore.Hbond>
2.0000

> <Gold.PLP.Chemscore.CHOScore>
1.0000

> <Gold.PLP.Chemscore.Metal>
0.0000

> <Gold.Chemscore.Hbonds>
donor molecule, donor type, donor heavy atom, donor atom, acceptor molecule, acceptor atom, score
      L1  H    10    21       P1  8028  1.00
      P1  H  7989  7998       L1     9  1.00
      L1  C     8    20       P1  7949  0.73

> <Gold.PLP.Chemscore.Internal.Correction>
0.0030

> <Gold.Rescore>
     Score         DG    S(hbond)    S(metal)    S(lipo)     H(rot)  DE(clash)    DE(int)     intcor
     17.80     -19.77       1.92        0.00      98.00       1.40       0.25       1.72       ----

> <Gold.Chemscore.Fitness>
17.7964

> <Gold.Chemscore.DG>
-19.7699

> <Gold.Chemscore.ZeroCoef>
-5.4800

> <Gold.Chemscore.Hbond>
1.9157

> <Gold.Chemscore.Metal>
0.0000

> <Gold.Chemscore.Lipo>
98.0014

> <Gold.Chemscore.Internal_Hbond>
0.0000

> <Gold.Chemscore.DEClash>
0.2488

> <Gold.Chemscore.DEInternal>
1.7247

> <Gold.Chemscore.Rot>
1.3963

> <Gold.Chemscore.Internal.Correction>
   9.000000E+99

> <Gold.Chemscore.Hbonds>
donor molecule, donor type, donor heavy atom, donor atom, acceptor molecule, acceptor atom, score
      L1  H    10    21       P1  8028  0.93
      P1  H  7989  7998       L1     9  0.76

> <Gold.Chemscore.Hbond.Weighted>
-6.3983

> <Gold.Chemscore.Metal.Weighted>
-0.0000

> <Gold.Chemscore.Lipo.Weighted>
-11.4662

> <Gold.Chemscore.Internal_Hbond.Weighted>
0.0000

> <Gold.Chemscore.DEClash.Weighted>
0.2488

> <Gold.Chemscore.DEInternal.Weighted>
1.7247

> <Gold.Chemscore.Rot.Weighted>
3.5746

> <Gold.Chemscore.Internal.Correction.Weighted>
   9.000000E+99

> <Gold.Protein.RotatedTorsions>
[ 6907 6896 6895 6894 ] final  -85.59 input  -60.11 | X-H torsion
[ 7974 7965 7964 7962 ] final  113.61 input  175.53 | X-H torsion
[ 8008 7997 7996 7995 ] final  -91.78 input   59.86 | X-H torsion
[ 10167 10162 10161 10158 ] final  140.42 input  -65.29 | X-H torsion
[ 10718 10713 10712 10709 ] final  -91.45 input   66.30 | X-H torsion
[ 10763 10752 10751 10750 ] final   75.82 input  -60.55 | X-H torsion
[ 11005 11000 10999 10996 ] final   11.97 input  -57.11 | X-H torsion

> <Gold.Protein.ActiveResidues>
 VAL166  LYS551  ARG553  GLY616  TRP617  ASP618  TYR619  PRO620  LYS621  CYS622 
 ASP623  PHE694  ASN695  SER759  ASP760  ASP761  ALA762  ILE779  LEU786  VAL792 
 PHE793  MET794  SER795  GLU796  ALA797  LYS798  CYS799  TRP800  GLU811  SER814 

> <Gold.Protein.RotatedAtoms>
  150.6869  134.3181  159.4774 H   0  0  0  0  0  0  0  0  0  0  0  0  # atno 6907 bound_to 6896
  152.1060  134.9306  160.0577 H   0  0  0  0  0  0  0  0  0  0  0  0  # atno 6908 bound_to 6896
  152.0567  133.4008  159.4437 H   0  0  0  0  0  0  0  0  0  0  0  0  # atno 6909 bound_to 6896
  145.2147  139.2889  143.4250 H   0  0  0  0  0  0  0  0  0  0  0  0  # atno 7974 bound_to 7965
  154.7150  140.0516  157.0586 H   0  0  0  0  0  0  0  0  0  0  0  0  # atno 8008 bound_to 7997
  155.0504  140.3178  155.4675 H   0  0  0  0  0  0  0  0  0  0  0  0  # atno 8009 bound_to 7997
  156.2800  140.2117  156.5629 H   0  0  0  0  0  0  0  0  0  0  0  0  # atno 8010 bound_to 7997
  139.5049  144.6235  151.5994 H   0  0  0  0  0  0  0  0  0  0  0  0  # atno 10167 bound_to 10162
  155.9994  130.4948  150.5476 H   0  0  0  0  0  0  0  0  0  0  0  0  # atno 10718 bound_to 10713
  153.0682  135.4974  154.8246 H   0  0  0  0  0  0  0  0  0  0  0  0  # atno 10763 bound_to 10752
  154.6984  135.2997  154.9380 H   0  0  0  0  0  0  0  0  0  0  0  0  # atno 10764 bound_to 10752
  154.0112  135.6754  153.4818 H   0  0  0  0  0  0  0  0  0  0  0  0  # atno 10765 bound_to 10752
  140.4972  134.0782  155.7785 H   0  0  0  0  0  0  0  0  0  0  0  0  # atno 11005 bound_to 11000
  146.3389  140.2434  142.8596 LP  0  0  0  0  0  0  0  0  0  0  0  0  # atno 17320 bound_to 7965
  144.9822  140.8470  143.5390 LP  0  0  0  0  0  0  0  0  0  0  0  0  # atno 17321 bound_to 7965
  140.5945  143.9721  150.6345 LP  0  0  0  0  0  0  0  0  0  0  0  0  # atno 17342 bound_to 10162
  140.2912  143.3323  152.1060 LP  0  0  0  0  0  0  0  0  0  0  0  0  # atno 17343 bound_to 10162
  157.3403  131.0715  151.1793 LP  0  0  0  0  0  0  0  0  0  0  0  0  # atno 17370 bound_to 10713
  157.2643  130.6674  149.5989 LP  0  0  0  0  0  0  0  0  0  0  0  0  # atno 17371 bound_to 10713
  141.1454  133.9064  157.2228 LP  0  0  0  0  0  0  0  0  0  0  0  0  # atno 17394 bound_to 11000
  139.9734  135.0121  156.9571 LP  0  0  0  0  0  0  0  0  0  0  0  0  # atno 17395 bound_to 11000

$$$$
