AV-unprocessed.smi:3283|AV-procd|sdf|12571|dock8
  -GOLD-   2272018493D 1   1.00000     0.00000
 Structure written by MMmdl.
 44 45  0  0  0  0  0  0  0  0  2 V2000
  152.8950  140.6323  159.8757 C   0  0  0  0  0  0  0  0  0  0  0  0
  152.5332  142.0701  160.2114 C   0  0  0  0  0  0  0  0  0  0  0  0
  152.5281  142.4988  161.4893 C   0  0  0  0  0  0  0  0  0  0  0  0
  152.2436  143.9255  161.9242 C   0  0  0  0  0  0  0  0  0  0  0  0
  151.7724  144.8262  160.7706 C   0  0  0  0  0  0  0  0  0  0  0  0
  152.4998  144.4875  159.4575 C   0  0  2  0  0  0  0  0  0  0  0  0
  152.2157  145.5231  158.3558 C   0  0  0  0  0  0  0  0  0  0  0  0
  152.2350  143.0137  159.0379 C   0  0  2  0  0  0  0  0  0  0  0  0
  150.8146  142.7998  158.4505 C   0  0  0  0  0  0  0  0  0  0  0  0
  150.8045  142.7236  156.9766 N   0  3  0  0  0  0  0  0  0  0  0  0
  150.4521  141.3947  156.4411 C   0  0  0  0  0  0  0  0  0  0  0  0
  151.6787  140.7099  155.8209 C   0  0  0  0  0  0  0  0  0  0  0  0
  151.4272  139.3138  155.3366 C   0  0  0  0  0  0  0  0  0  0  0  0
  150.6516  138.8492  154.3091 C   0  0  0  0  0  0  0  0  0  0  0  0
  150.8263  137.4388  154.3485 C   0  0  0  0  0  0  0  0  0  0  0  0
  151.6396  137.0570  155.3166 N   0  0  0  0  0  0  0  0  0  0  0  0
  152.0102  138.2032  155.9246 N   0  0  0  0  0  0  0  0  0  0  0  0
  152.9203  138.1215  157.0519 C   0  0  0  0  0  0  0  0  0  0  0  0
  153.6405  140.6003  159.0807 H   0  0  0  0  0  0  0  0  0  0  0  0
  152.0230  140.0616  159.5610 H   0  0  0  0  0  0  0  0  0  0  0  0
  153.3165  140.1228  160.7431 H   0  0  0  0  0  0  0  0  0  0  0  0
  152.7717  141.8094  162.2846 H   0  0  0  0  0  0  0  0  0  0  0  0
  151.5039  143.9221  162.7252 H   0  0  0  0  0  0  0  0  0  0  0  0
  153.1646  144.3261  162.3488 H   0  0  0  0  0  0  0  0  0  0  0  0
  150.6962  144.7156  160.6357 H   0  0  0  0  0  0  0  0  0  0  0  0
  151.9344  145.8706  161.0402 H   0  0  0  0  0  0  0  0  0  0  0  0
  153.5692  144.5646  159.6626 H   0  0  0  0  0  0  0  0  0  0  0  0
  151.1479  145.6420  158.1724 H   0  0  0  0  0  0  0  0  0  0  0  0
  152.6933  145.2422  157.4169 H   0  0  0  0  0  0  0  0  0  0  0  0
  152.6027  146.5024  158.6387 H   0  0  0  0  0  0  0  0  0  0  0  0
  152.9560  142.7821  158.2524 H   0  0  0  0  0  0  0  0  0  0  0  0
  150.3704  141.8891  158.8535 H   0  0  0  0  0  0  0  0  0  0  0  0
  150.1584  143.6240  158.7278 H   0  0  0  0  0  0  0  0  0  0  0  0
  150.1418  143.3992  156.6235 H   0  0  0  0  0  0  0  0  0  0  0  0
  150.0492  140.7790  157.2465 H   0  0  0  0  0  0  0  0  0  0  0  0
  149.6659  141.5101  155.6937 H   0  0  0  0  0  0  0  0  0  0  0  0
  152.0418  141.3128  154.9874 H   0  0  0  0  0  0  0  0  0  0  0  0
  152.4829  140.6903  156.5575 H   0  0  0  0  0  0  0  0  0  0  0  0
  150.0475  139.4276  153.6257 H   0  0  0  0  0  0  0  0  0  0  0  0
  150.3902  136.6871  153.7072 H   0  0  0  0  0  0  0  0  0  0  0  0
  153.1400  139.1116  157.4500 H   0  0  0  0  0  0  0  0  0  0  0  0
  153.8549  137.6563  156.7365 H   0  0  0  0  0  0  0  0  0  0  0  0
  152.4725  137.5181  157.8421 H   0  0  0  0  0  0  0  0  0  0  0  0
  151.7254  142.9693  156.6421 H   0  0  0  0  0  0  0  0  0  0  0  0
  1  2  1  0  0  0  0
  1 19  1  0  0  0  0
  1 20  1  0  0  0  0
  1 21  1  0  0  0  0
  2  8  1  0  0  0  0
  2  3  2  0  0  0  0
  3  4  1  0  0  0  0
  3 22  1  0  0  0  0
  4  5  1  0  0  0  0
  4 23  1  0  0  0  0
  4 24  1  0  0  0  0
  5  6  1  0  0  0  0
  5 25  1  0  0  0  0
  5 26  1  0  0  0  0
  6  7  1  0  0  0  0
  6  8  1  0  0  0  0
  6 27  1  0  0  0  0
  7 28  1  0  0  0  0
  7 29  1  0  0  0  0
  7 30  1  0  0  0  0
  8  9  1  0  0  0  0
  8 31  1  0  0  0  0
  9 10  1  0  0  0  0
  9 32  1  0  0  0  0
  9 33  1  0  0  0  0
 10 11  1  0  0  0  0
 10 34  1  0  0  0  0
 10 44  1  0  0  0  0
 11 12  1  0  0  0  0
 11 35  1  0  0  0  0
 11 36  1  0  0  0  0
 12 13  1  0  0  0  0
 12 37  1  0  0  0  0
 12 38  1  0  0  0  0
 13 17  1  0  0  0  0
 13 14  2  0  0  0  0
 14 15  1  0  0  0  0
 14 39  1  0  0  0  0
 15 16  2  0  0  0  0
 15 40  1  0  0  0  0
 16 17  1  0  0  0  0
 17 18  1  0  0  0  0
 18 41  1  0  0  0  0
 18 42  1  0  0  0  0
 18 43  1  0  0  0  0
M  CHG  1  10   1
M  END
> <s_m_source_file>
AV-unprocessed.smi

> <i_m_source_file_index>
3283

> <i_lp_mmshare_version>
43012

> <i_f3d_flags>
0

> <s_epik_input>
W0NIM11DMT1bQ0hdW0NIMl1bQ0gyXVtDQEBIXShbQ0gzXSlbQ0BIXTFbQ0gyXVtOSF1bQ0gyXVtDSDJdYzJbY0hdW2NIXW5uMltDSDNd

> <s_epik_cmdline>
J2VwaWtfcHl0aG9uJywgJy1waCcsICc3LjAnLCAnLXRuJywgJzgnLCAnLW1hJywgJzIwMCcsICctbWV0YWxfYmluZGluZycsICctaW1hZScsICc8aW5maWxlLm1hZT4nLCAnLW9tYWUnLCAnPG91dGZpbGUubWFlPic=

> <r_lp_tautomer_probability>
1

> <r_epik_Ionization_Penalty>
0.000866911

> <r_epik_Ionization_Penalty_Charging>
0.000836385

> <r_epik_Ionization_Penalty_Neutral>
3.05258e-05

> <r_epik_State_Penalty>
-0

> <r_epik_Charging_Adjusted_Penalty>
0.000836385

> <i_epik_Tot_Q>
1

> <i_epik_Tot_abs_Q>
1

> <r_epik_Metal_State_Penalty>
-0

> <b_epik_Metal_Only>
0

> <s_lp_Force_Field>
OPLS_2005

> <r_lp_Energy>
12.7435

> <b_lp_Chiralities_Consistent>
1

> <s_lp_Variant>
AV-unprocessed.smi:3283-4

> <Gold.Version>
5.8.1

> <Gold.Id.Protein>
6NUR|6NUR_protein|mol2

> <Gold.PLP.Fitness>
53.0572

> <Gold.PLP.PLP>
-44.5868

> <Gold.PLP.part.hbond>
-1.9115

> <Gold.PLP.part.metal>
0.0000

> <Gold.PLP.part.buried>
-2.9590

> <Gold.PLP.part.nonpolar>
-38.8620

> <Gold.PLP.part.repulsive>
0.1044

> <Gold.PLP.ligand.clash>
0.0000

> <Gold.PLP.ligand.torsion>
1.3812

> <Gold.PLP.Chemscore.Hbond>
2.8200

> <Gold.PLP.Chemscore.CHOScore>
0.9136

> <Gold.PLP.Chemscore.Metal>
0.0000

> <Gold.Chemscore.Hbonds>
donor molecule, donor type, donor heavy atom, donor atom, acceptor molecule, acceptor atom, score
      L1  H    10    34       P1  8028  1.89
      P1  H 10752 10764       L1    16  0.88
      L1  C    15    40       P1  7948  0.59
      L1  C    15    40       P1  7949  0.32

> <Gold.PLP.Chemscore.Internal.Correction>
0.0318

> <Gold.Rescore>
     Score         DG    S(hbond)    S(metal)    S(lipo)     H(rot)  DE(clash)    DE(int)     intcor
     22.00     -23.78       1.60        0.00     143.26       1.48       0.45       1.33       ----

> <Gold.Chemscore.Fitness>
21.9968

> <Gold.Chemscore.DG>
-23.7780

> <Gold.Chemscore.ZeroCoef>
-5.4800

> <Gold.Chemscore.Hbond>
1.5979

> <Gold.Chemscore.Metal>
0.0000

> <Gold.Chemscore.Lipo>
143.2638

> <Gold.Chemscore.Internal_Hbond>
0.0000

> <Gold.Chemscore.DEClash>
0.4463

> <Gold.Chemscore.DEInternal>
1.3349

> <Gold.Chemscore.Rot>
1.4847

> <Gold.Chemscore.Internal.Correction>
   9.000000E+99

> <Gold.Chemscore.Hbonds>
donor molecule, donor type, donor heavy atom, donor atom, acceptor molecule, acceptor atom, score
      L1  H    10    34       P1  8028  0.90
      P1  H 10752 10764       L1    16  0.66

> <Gold.Chemscore.Hbond.Weighted>
-5.3370

> <Gold.Chemscore.Metal.Weighted>
-0.0000

> <Gold.Chemscore.Lipo.Weighted>
-16.7619

> <Gold.Chemscore.Internal_Hbond.Weighted>
0.0000

> <Gold.Chemscore.DEClash.Weighted>
0.4463

> <Gold.Chemscore.DEInternal.Weighted>
1.3349

> <Gold.Chemscore.Rot.Weighted>
3.8008

> <Gold.Chemscore.Internal.Correction.Weighted>
   9.000000E+99

> <Gold.Protein.RotatedTorsions>
[ 6907 6896 6895 6894 ] final -160.30 input  -60.11 | X-H torsion
[ 7974 7965 7964 7962 ] final  -69.36 input  175.53 | X-H torsion
[ 8008 7997 7996 7995 ] final  140.22 input   59.86 | X-H torsion
[ 10167 10162 10161 10158 ] final  -58.98 input  -65.29 | X-H torsion
[ 10718 10713 10712 10709 ] final -103.75 input   66.30 | X-H torsion
[ 10763 10752 10751 10750 ] final  -57.17 input  -60.55 | X-H torsion
[ 11005 11000 10999 10996 ] final  -73.39 input  -57.11 | X-H torsion

> <Gold.Protein.ActiveResidues>
 VAL166  LYS551  ARG553  GLY616  TRP617  ASP618  TYR619  PRO620  LYS621  CYS622 
 ASP623  PHE694  ASN695  SER759  ASP760  ASP761  ALA762  ILE779  LEU786  VAL792 
 PHE793  MET794  SER795  GLU796  ALA797  LYS798  CYS799  TRP800  GLU811  SER814 

> <Gold.Protein.RotatedAtoms>
  151.3470  133.3940  159.2676 H   0  0  0  0  0  0  0  0  0  0  0  0  # atno 6907 bound_to 6896
  150.9832  134.9183  159.7867 H   0  0  0  0  0  0  0  0  0  0  0  0  # atno 6908 bound_to 6896
  152.5223  134.3434  159.9277 H   0  0  0  0  0  0  0  0  0  0  0  0  # atno 6909 bound_to 6896
  145.7047  140.9102  143.0712 H   0  0  0  0  0  0  0  0  0  0  0  0  # atno 7974 bound_to 7965
  156.2981  140.2347  156.4365 H   0  0  0  0  0  0  0  0  0  0  0  0  # atno 8008 bound_to 7997
  154.8224  140.0437  157.1440 H   0  0  0  0  0  0  0  0  0  0  0  0  # atno 8009 bound_to 7997
  154.9300  140.3015  155.5176 H   0  0  0  0  0  0  0  0  0  0  0  0  # atno 8010 bound_to 7997
  140.6163  143.2404  151.5588 H   0  0  0  0  0  0  0  0  0  0  0  0  # atno 10167 bound_to 10162
  156.0277  130.5482  150.7298 H   0  0  0  0  0  0  0  0  0  0  0  0  # atno 10718 bound_to 10713
  154.2182  135.6382  153.5136 H   0  0  0  0  0  0  0  0  0  0  0  0  # atno 10763 bound_to 10752
  152.9975  135.5490  154.6142 H   0  0  0  0  0  0  0  0  0  0  0  0  # atno 10764 bound_to 10752
  154.5596  135.2908  155.0905 H   0  0  0  0  0  0  0  0  0  0  0  0  # atno 10765 bound_to 10752
  141.1622  133.6877  156.7205 H   0  0  0  0  0  0  0  0  0  0  0  0  # atno 11005 bound_to 11000
  144.6958  139.8994  143.7457 LP  0  0  0  0  0  0  0  0  0  0  0  0  # atno 17320 bound_to 7965
  146.0766  139.3754  143.0490 LP  0  0  0  0  0  0  0  0  0  0  0  0  # atno 17321 bound_to 7965
  139.5402  144.2670  152.1334 LP  0  0  0  0  0  0  0  0  0  0  0  0  # atno 17342 bound_to 10162
  140.1880  144.4780  150.6494 LP  0  0  0  0  0  0  0  0  0  0  0  0  # atno 17343 bound_to 10162
  157.4893  131.0909  151.0445 LP  0  0  0  0  0  0  0  0  0  0  0  0  # atno 17370 bound_to 10713
  157.0857  130.5921  149.5429 LP  0  0  0  0  0  0  0  0  0  0  0  0  # atno 17371 bound_to 10713
  140.2819  134.8309  157.3941 LP  0  0  0  0  0  0  0  0  0  0  0  0  # atno 17394 bound_to 11000
  140.1425  134.4953  155.8021 LP  0  0  0  0  0  0  0  0  0  0  0  0  # atno 17395 bound_to 11000

$$$$
