AV-unprocessed.smi:3116|AV-procd|sdf|11863|dock2
  -GOLD-   2272017243D 1   1.00000     0.00000
 Structure written by MMmdl.
 34 34  0  0  0  0  0  0  0  0  2 V2000
  146.0703  142.9061  157.0774 C   0  0  0  0  0  0  0  0  0  0  0  0
  147.1724  142.5112  158.0721 C   0  0  1  0  0  0  0  0  0  0  0  0
  148.5030  142.7700  157.4716 N   0  3  0  0  0  0  0  0  0  0  0  0
  149.1842  141.5960  156.8746 C   0  0  2  0  0  0  0  0  0  0  0  0
  149.1396  140.4338  157.8838 C   0  0  0  0  0  0  0  0  0  0  0  0
  150.6302  141.9637  156.4418 C   0  0  2  0  0  0  0  0  0  0  0  0
  151.4451  140.7498  155.9562 C   0  0  0  0  0  0  0  0  0  0  0  0
  151.3557  142.6576  157.4984 N   0  0  0  0  0  0  0  0  0  0  0  0
  151.6129  144.0084  157.6141 C   0  0  0  0  0  0  0  0  0  0  0  0
  152.3219  144.1922  158.7664 C   0  0  0  0  0  0  0  0  0  0  0  0
  152.4556  142.8782  159.2947 C   0  0  0  0  0  0  0  0  0  0  0  0
  151.8780  141.9624  158.5343 N   0  0  0  0  0  0  0  0  0  0  0  0
  146.9876  143.2749  159.3914 C   0  0  0  0  0  0  0  0  0  0  0  0
  146.9966  144.6088  159.3287 N   0  0  0  0  0  0  0  0  0  0  0  0
  146.8509  142.6714  160.4541 O   0  0  0  0  0  0  0  0  0  0  0  0
  145.0784  142.6952  157.4788 H   0  0  0  0  0  0  0  0  0  0  0  0
  146.1681  142.3493  156.1449 H   0  0  0  0  0  0  0  0  0  0  0  0
  146.1115  143.9689  156.8340 H   0  0  0  0  0  0  0  0  0  0  0  0
  147.0807  141.4420  158.2685 H   0  0  0  0  0  0  0  0  0  0  0  0
  148.3995  143.4656  156.7473 H   0  0  0  0  0  0  0  0  0  0  0  0
  148.6297  141.2692  155.9931 H   0  0  0  0  0  0  0  0  0  0  0  0
  149.5340  139.5106  157.4589 H   0  0  0  0  0  0  0  0  0  0  0  0
  148.1157  140.2260  158.1963 H   0  0  0  0  0  0  0  0  0  0  0  0
  149.7196  140.6628  158.7786 H   0  0  0  0  0  0  0  0  0  0  0  0
  150.5597  142.6620  155.6061 H   0  0  0  0  0  0  0  0  0  0  0  0
  151.0079  140.3060  155.0620 H   0  0  0  0  0  0  0  0  0  0  0  0
  151.5024  139.9735  156.7200 H   0  0  0  0  0  0  0  0  0  0  0  0
  152.4651  141.0405  155.7023 H   0  0  0  0  0  0  0  0  0  0  0  0
  151.2728  144.7202  156.8761 H   0  0  0  0  0  0  0  0  0  0  0  0
  152.6900  145.1236  159.1703 H   0  0  0  0  0  0  0  0  0  0  0  0
  152.9515  142.5648  160.2017 H   0  0  0  0  0  0  0  0  0  0  0  0
  146.8760  145.1589  160.1670 H   0  0  0  0  0  0  0  0  0  0  0  0
  147.1216  145.0665  158.4369 H   0  0  0  0  0  0  0  0  0  0  0  0
  149.0940  143.1505  158.1972 H   0  0  0  0  0  0  0  0  0  0  0  0
  1  2  1  0  0  0  0
  1 16  1  0  0  0  0
  1 17  1  0  0  0  0
  1 18  1  0  0  0  0
  2  3  1  0  0  0  0
  2 13  1  0  0  0  0
  2 19  1  0  0  0  0
  3  4  1  0  0  0  0
  3 20  1  0  0  0  0
  3 34  1  0  0  0  0
  4  5  1  0  0  0  0
  4  6  1  0  0  0  0
  4 21  1  0  0  0  0
  5 22  1  0  0  0  0
  5 23  1  0  0  0  0
  5 24  1  0  0  0  0
  6  7  1  0  0  0  0
  6  8  1  0  0  0  0
  6 25  1  0  0  0  0
  7 26  1  0  0  0  0
  7 27  1  0  0  0  0
  7 28  1  0  0  0  0
  8 12  1  0  0  0  0
  8  9  1  0  0  0  0
  9 10  2  0  0  0  0
  9 29  1  0  0  0  0
 10 11  1  0  0  0  0
 10 30  1  0  0  0  0
 11 12  2  0  0  0  0
 11 31  1  0  0  0  0
 13 14  1  0  0  0  0
 13 15  2  0  0  0  0
 14 32  1  0  0  0  0
 14 33  1  0  0  0  0
M  CHG  1   3   1
M  END
> <s_m_source_file>
AV-unprocessed.smi

> <i_m_source_file_index>
3116

> <i_lp_mmshare_version>
43012

> <i_f3d_flags>
0

> <s_epik_input>
W05IMl1DKD1PKVtDQEhdKFtDSDNdKVtOSF1bQ0BIXShbQ0gzXSlbQ0BIXShbQ0gzXSluMVtjSF1bY0hdW2NIXW4x

> <s_epik_cmdline>
J2VwaWtfcHl0aG9uJywgJy1waCcsICc3LjAnLCAnLXRuJywgJzgnLCAnLW1hJywgJzIwMCcsICctbWV0YWxfYmluZGluZycsICctaW1hZScsICc8aW5maWxlLm1hZT4nLCAnLW9tYWUnLCAnPG91dGZpbGUubWFlPic=

> <r_lp_tautomer_probability>
1

> <r_epik_Ionization_Penalty>
0.15658

> <r_epik_Ionization_Penalty_Charging>
0.156568

> <r_epik_Ionization_Penalty_Neutral>
1.19778e-05

> <r_epik_State_Penalty>
0.145866

> <r_epik_Charging_Adjusted_Penalty>
0.302434

> <i_epik_Tot_Q>
1

> <i_epik_Tot_abs_Q>
1

> <r_epik_Metal_State_Penalty>
0.146064

> <b_epik_Metal_Only>
0

> <s_lp_Force_Field>
OPLS_2005

> <r_lp_Energy>
10.4239

> <b_lp_Chiralities_Consistent>
1

> <s_lp_Variant>
AV-unprocessed.smi:3116-2

> <Gold.Version>
5.8.1

> <Gold.Id.Protein>
6NUR|6NUR_protein|mol2

> <Gold.PLP.Fitness>
45.0498

> <Gold.PLP.PLP>
-29.7659

> <Gold.PLP.part.hbond>
-4.2251

> <Gold.PLP.part.metal>
0.0000

> <Gold.PLP.part.buried>
-3.1545

> <Gold.PLP.part.nonpolar>
-23.8042

> <Gold.PLP.part.repulsive>
0.1224

> <Gold.PLP.ligand.clash>
0.0000

> <Gold.PLP.ligand.torsion>
1.0884

> <Gold.PLP.Chemscore.Hbond>
4.8240

> <Gold.PLP.Chemscore.CHOScore>
0.9480

> <Gold.PLP.Chemscore.Metal>
0.0000

> <Gold.Chemscore.Hbonds>
donor molecule, donor type, donor heavy atom, donor atom, acceptor molecule, acceptor atom, score
      L1  H     3    20       P1  8028  1.90
      L1  H    14    33       P1  8029  1.00
      P1  H  6933  6944       L1    15  0.80
      P1  H  6934  6946       L1    15  0.91
      L1  C     9    29       P1  8028  0.69

> <Gold.PLP.Chemscore.Internal.Correction>
0.1448

> <Gold.Rescore>
     Score         DG    S(hbond)    S(metal)    S(lipo)     H(rot)  DE(clash)    DE(int)     intcor
     15.67     -16.77       3.12        0.00      60.92       2.45       0.04       1.06       ----

> <Gold.Chemscore.Fitness>
15.6672

> <Gold.Chemscore.DG>
-16.7663

> <Gold.Chemscore.ZeroCoef>
-5.4800

> <Gold.Chemscore.Hbond>
3.1203

> <Gold.Chemscore.Metal>
0.0000

> <Gold.Chemscore.Lipo>
60.9196

> <Gold.Chemscore.Internal_Hbond>
0.0000

> <Gold.Chemscore.DEClash>
0.0351

> <Gold.Chemscore.DEInternal>
1.0640

> <Gold.Chemscore.Rot>
2.4465

> <Gold.Chemscore.Internal.Correction>
   9.000000E+99

> <Gold.Chemscore.Hbonds>
donor molecule, donor type, donor heavy atom, donor atom, acceptor molecule, acceptor atom, score
      L1  H     3    20       P1  8028  0.21
      L1  H    14    33       P1  8029  0.99
      P1  H  6933  6944       L1    15  0.73
      P1  H  6934  6946       L1    15  0.90

> <Gold.Chemscore.Hbond.Weighted>
-10.4218

> <Gold.Chemscore.Metal.Weighted>
-0.0000

> <Gold.Chemscore.Lipo.Weighted>
-7.1276

> <Gold.Chemscore.Internal_Hbond.Weighted>
0.0000

> <Gold.Chemscore.DEClash.Weighted>
0.0351

> <Gold.Chemscore.DEInternal.Weighted>
1.0640

> <Gold.Chemscore.Rot.Weighted>
6.2631

> <Gold.Chemscore.Internal.Correction.Weighted>
   9.000000E+99

> <Gold.Protein.RotatedTorsions>
[ 6907 6896 6895 6894 ] final -107.44 input  -60.11 | X-H torsion
[ 7974 7965 7964 7962 ] final  -35.29 input  175.53 | X-H torsion
[ 8008 7997 7996 7995 ] final   86.17 input   59.86 | X-H torsion
[ 10167 10162 10161 10158 ] final  130.83 input  -65.29 | X-H torsion
[ 10718 10713 10712 10709 ] final  126.03 input   66.30 | X-H torsion
[ 10763 10752 10751 10750 ] final -109.56 input  -60.55 | X-H torsion
[ 11005 11000 10999 10996 ] final -113.63 input  -57.11 | X-H torsion

> <Gold.Protein.ActiveResidues>
 VAL166  LYS551  ARG553  GLY616  TRP617  ASP618  TYR619  PRO620  LYS621  CYS622 
 ASP623  PHE694  ASN695  SER759  ASP760  ASP761  ALA762  ILE779  LEU786  VAL792 
 PHE793  MET794  SER795  GLU796  ALA797  LYS798  CYS799  TRP800  GLU811  SER814 

> <Gold.Protein.RotatedAtoms>
  150.7444  133.9826  159.3580 H   0  0  0  0  0  0  0  0  0  0  0  0  # atno 6907 bound_to 6896
  151.7768  135.0770  160.0377 H   0  0  0  0  0  0  0  0  0  0  0  0  # atno 6908 bound_to 6896
  152.3301  133.5912  159.5840 H   0  0  0  0  0  0  0  0  0  0  0  0  # atno 6909 bound_to 6896
  146.0759  140.6141  142.8931 H   0  0  0  0  0  0  0  0  0  0  0  0  # atno 7974 bound_to 7965
  155.9594  140.3394  155.6477 H   0  0  0  0  0  0  0  0  0  0  0  0  # atno 8008 bound_to 7997
  155.6818  140.0738  157.2500 H   0  0  0  0  0  0  0  0  0  0  0  0  # atno 8009 bound_to 7997
  154.4139  140.1673  156.1978 H   0  0  0  0  0  0  0  0  0  0  0  0  # atno 8010 bound_to 7997
  139.5411  144.6731  151.4620 H   0  0  0  0  0  0  0  0  0  0  0  0  # atno 10167 bound_to 10162
  157.5453  131.1096  150.8791 H   0  0  0  0  0  0  0  0  0  0  0  0  # atno 10718 bound_to 10713
  154.8200  135.4596  154.0750 H   0  0  0  0  0  0  0  0  0  0  0  0  # atno 10763 bound_to 10752
  153.2112  135.6882  153.8118 H   0  0  0  0  0  0  0  0  0  0  0  0  # atno 10764 bound_to 10752
  153.7568  135.3290  155.3307 H   0  0  0  0  0  0  0  0  0  0  0  0  # atno 10765 bound_to 10752
  141.0602  133.9548  157.2681 H   0  0  0  0  0  0  0  0  0  0  0  0  # atno 11005 bound_to 11000
  144.7261  140.4528  143.6972 LP  0  0  0  0  0  0  0  0  0  0  0  0  # atno 17320 bound_to 7965
  145.6308  139.1536  143.2970 LP  0  0  0  0  0  0  0  0  0  0  0  0  # atno 17321 bound_to 7965
  140.6642  143.8434  150.6922 LP  0  0  0  0  0  0  0  0  0  0  0  0  # atno 17342 bound_to 10162
  140.1838  143.4093  152.1913 LP  0  0  0  0  0  0  0  0  0  0  0  0  # atno 17343 bound_to 10162
  156.9332  130.5357  149.5279 LP  0  0  0  0  0  0  0  0  0  0  0  0  # atno 17370 bound_to 10713
  156.0531  130.5597  150.9032 LP  0  0  0  0  0  0  0  0  0  0  0  0  # atno 17371 bound_to 10713
  139.9426  135.0189  156.8754 LP  0  0  0  0  0  0  0  0  0  0  0  0  # atno 17394 bound_to 11000
  140.5884  134.0285  155.7490 LP  0  0  0  0  0  0  0  0  0  0  0  0  # atno 17395 bound_to 11000

$$$$
