AV-unprocessed.smi:1891|AV-procd|sdf|7667|dock3
  -GOLD-   22720 9403D 1   1.00000     0.00000
 Structure written by MMmdl.
 37 39  0  0  0  0  0  0  0  0  2 V2000
  151.4993  136.4642  154.1209 O   0  0  0  0  0  0  0  0  0  0  0  0
  151.7632  137.7328  154.6770 C   0  0  0  0  0  0  0  0  0  0  0  0
  150.6358  138.6906  154.4664 C   0  0  0  0  0  0  0  0  0  0  0  0
  149.5488  138.4644  153.6758 N   0  3  0  0  0  0  0  0  0  0  0  0
  148.7049  139.5751  153.6997 C   0  0  0  0  0  0  0  0  0  0  0  0
  147.4933  139.8142  153.0585 C   0  0  0  0  0  0  0  0  0  0  0  0
  146.8871  141.0649  153.2975 C   0  0  0  0  0  0  0  0  0  0  0  0
  147.4841  142.0207  154.1454 C   0  0  0  0  0  0  0  0  0  0  0  0
  148.7130  141.7669  154.7895 C   0  0  0  0  0  0  0  0  0  0  0  0
  149.3057  140.5276  154.5474 C   0  0  0  0  0  0  0  0  0  0  0  0
  150.4947  139.9419  154.9961 N   0  0  0  0  0  0  0  0  0  0  0  0
  151.3652  140.7106  155.9004 C   0  0  0  0  0  0  0  0  0  0  0  0
  151.3170  140.2034  157.3555 C   0  0  2  0  0  0  0  0  0  0  0  0
  150.0754  139.5703  157.6013 O   0  0  0  0  0  0  0  0  0  0  0  0
  151.6125  141.3305  158.3361 C   0  0  0  0  0  0  0  0  0  0  0  0
  150.8668  142.5309  158.3037 C   0  0  0  0  0  0  0  0  0  0  0  0
  151.1564  143.5732  159.2053 C   0  0  0  0  0  0  0  0  0  0  0  0
  152.1970  143.4263  160.1416 C   0  0  0  0  0  0  0  0  0  0  0  0
  152.4774  144.4295  161.0066 F   0  0  0  0  0  0  0  0  0  0  0  0
  152.9490  142.2367  160.1746 C   0  0  0  0  0  0  0  0  0  0  0  0
  152.6601  141.1922  159.2748 C   0  0  0  0  0  0  0  0  0  0  0  0
  153.3999  140.0576  159.3121 F   0  0  0  0  0  0  0  0  0  0  0  0
  151.1975  136.5816  153.2329 H   0  0  0  0  0  0  0  0  0  0  0  0
  151.9405  137.6187  155.7467 H   0  0  0  0  0  0  0  0  0  0  0  0
  152.6823  138.1275  154.2461 H   0  0  0  0  0  0  0  0  0  0  0  0
  147.0344  139.0841  152.4080 H   0  0  0  0  0  0  0  0  0  0  0  0
  145.9456  141.2966  152.8205 H   0  0  0  0  0  0  0  0  0  0  0  0
  146.9901  142.9683  154.3041 H   0  0  0  0  0  0  0  0  0  0  0  0
  149.1633  142.5064  155.4352 H   0  0  0  0  0  0  0  0  0  0  0  0
  152.3830  140.6721  155.5097 H   0  0  0  0  0  0  0  0  0  0  0  0
  151.0664  141.7573  155.8540 H   0  0  0  0  0  0  0  0  0  0  0  0
  152.0765  139.4327  157.4891 H   0  0  0  0  0  0  0  0  0  0  0  0
  149.9386  139.5308  158.5357 H   0  0  0  0  0  0  0  0  0  0  0  0
  150.0711  142.6625  157.5851 H   0  0  0  0  0  0  0  0  0  0  0  0
  150.5813  144.4872  159.1758 H   0  0  0  0  0  0  0  0  0  0  0  0
  153.7513  142.1261  160.8892 H   0  0  0  0  0  0  0  0  0  0  0  0
  149.4030  137.6112  153.1522 H   0  0  0  0  0  0  0  0  0  0  0  0
  1  2  1  0  0  0  0
  1 23  1  0  0  0  0
  2  3  1  0  0  0  0
  2 24  1  0  0  0  0
  2 25  1  0  0  0  0
  3 11  1  0  0  0  0
  3  4  2  0  0  0  0
  4  5  1  0  0  0  0
  4 37  1  0  0  0  0
  5 10  2  0  0  0  0
  5  6  1  0  0  0  0
  6  7  2  0  0  0  0
  6 26  1  0  0  0  0
  7  8  1  0  0  0  0
  7 27  1  0  0  0  0
  8  9  2  0  0  0  0
  8 28  1  0  0  0  0
  9 10  1  0  0  0  0
  9 29  1  0  0  0  0
 10 11  1  0  0  0  0
 11 12  1  0  0  0  0
 12 13  1  0  0  0  0
 12 30  1  0  0  0  0
 12 31  1  0  0  0  0
 13 14  1  0  0  0  0
 13 15  1  0  0  0  0
 13 32  1  0  0  0  0
 14 33  1  0  0  0  0
 15 21  1  0  0  0  0
 15 16  2  0  0  0  0
 16 17  1  0  0  0  0
 16 34  1  0  0  0  0
 17 18  2  0  0  0  0
 17 35  1  0  0  0  0
 18 19  1  0  0  0  0
 18 20  1  0  0  0  0
 20 21  2  0  0  0  0
 20 36  1  0  0  0  0
 21 22  1  0  0  0  0
M  CHG  1   4   1
M  END
> <s_m_source_file>
AV-unprocessed.smi

> <i_m_source_file_index>
1891

> <i_lp_mmshare_version>
43012

> <i_f3d_flags>
0

> <s_epik_input>
W2NIXTFbY0hdW2NIXVtjSF1jKGMxMiluKGMobjIpW0NIMl1bT0hdKVtDSDJdW0NASF0oW09IXSljM1tjSF1bY0hdYyhGKVtjSF1jM0Y=

> <s_epik_cmdline>
J2VwaWtfcHl0aG9uJywgJy1waCcsICc3LjAnLCAnLXRuJywgJzgnLCAnLW1hJywgJzIwMCcsICctbWV0YWxfYmluZGluZycsICctaW1hZScsICc8aW5maWxlLm1hZT4nLCAnLW9tYWUnLCAnPG91dGZpbGUubWFlPic=

> <r_epik_Ionization_Penalty>
1.35643

> <r_epik_Ionization_Penalty_Charging>
1.35557

> <r_epik_Ionization_Penalty_Neutral>
0.00085758

> <r_epik_State_Penalty>
1.43401

> <r_epik_Charging_Adjusted_Penalty>
2.78958

> <i_epik_Tot_Q>
1

> <i_epik_Tot_abs_Q>
1

> <r_epik_Metal_State_Penalty>
5.47166

> <b_epik_Metal_Only>
0

> <s_lp_Force_Field>
OPLS_2005

> <r_lp_Energy>
14.1828

> <b_lp_Chiralities_Consistent>
1

> <s_lp_Variant>
AV-unprocessed.smi:1891-3

> <Gold.Version>
5.8.1

> <Gold.Id.Protein>
6NUR|6NUR_protein|mol2

> <Gold.PLP.Fitness>
60.5979

> <Gold.PLP.PLP>
-50.0437

> <Gold.PLP.part.hbond>
-4.0000

> <Gold.PLP.part.metal>
0.0000

> <Gold.PLP.part.buried>
1.0635

> <Gold.PLP.part.nonpolar>
-46.6002

> <Gold.PLP.part.repulsive>
0.0643

> <Gold.PLP.ligand.clash>
0.0000

> <Gold.PLP.ligand.torsion>
0.7301

> <Gold.PLP.Chemscore.Hbond>
3.9920

> <Gold.PLP.Chemscore.CHOScore>
0.0000

> <Gold.PLP.Chemscore.Metal>
0.0000

> <Gold.Chemscore.Hbonds>
donor molecule, donor type, donor heavy atom, donor atom, acceptor molecule, acceptor atom, score
      L1  H     1    23       P1  7949  0.96
      L1  H     4    37       P1  7948  2.00
      P1  H 10752 10765       L1     1  1.00

> <Gold.PLP.Chemscore.Internal.Correction>
0.0385

> <Gold.Rescore>
     Score         DG    S(hbond)    S(metal)    S(lipo)     H(rot)  DE(clash)    DE(int)     intcor
     18.57     -19.61       2.49        0.00     114.31       2.95       0.50       0.54       ----

> <Gold.Chemscore.Fitness>
18.5697

> <Gold.Chemscore.DG>
-19.6132

> <Gold.Chemscore.ZeroCoef>
-5.4800

> <Gold.Chemscore.Hbond>
2.4864

> <Gold.Chemscore.Metal>
0.0000

> <Gold.Chemscore.Lipo>
114.3094

> <Gold.Chemscore.Internal_Hbond>
0.0000

> <Gold.Chemscore.DEClash>
0.5020

> <Gold.Chemscore.DEInternal>
0.5415

> <Gold.Chemscore.Rot>
2.9475

> <Gold.Chemscore.Internal.Correction>
   9.000000E+99

> <Gold.Chemscore.Hbonds>
donor molecule, donor type, donor heavy atom, donor atom, acceptor molecule, acceptor atom, score
      L1  H     1    23       P1  7949  0.51
      L1  H     4    37       P1  7948  0.94
      P1  H 10752 10765       L1     1  0.38

> <Gold.Chemscore.Hbond.Weighted>
-8.3046

> <Gold.Chemscore.Metal.Weighted>
-0.0000

> <Gold.Chemscore.Lipo.Weighted>
-13.3742

> <Gold.Chemscore.Internal_Hbond.Weighted>
0.0000

> <Gold.Chemscore.DEClash.Weighted>
0.5020

> <Gold.Chemscore.DEInternal.Weighted>
0.5415

> <Gold.Chemscore.Rot.Weighted>
7.5457

> <Gold.Chemscore.Internal.Correction.Weighted>
   9.000000E+99

> <Gold.Protein.RotatedTorsions>
[ 6907 6896 6895 6894 ] final  -42.07 input  -60.11 | X-H torsion
[ 7974 7965 7964 7962 ] final -156.28 input  175.53 | X-H torsion
[ 8008 7997 7996 7995 ] final  107.02 input   59.86 | X-H torsion
[ 10167 10162 10161 10158 ] final  106.33 input  -65.29 | X-H torsion
[ 10718 10713 10712 10709 ] final   -5.46 input   66.30 | X-H torsion
[ 10763 10752 10751 10750 ] final  167.53 input  -60.55 | X-H torsion
[ 11005 11000 10999 10996 ] final  -71.77 input  -57.11 | X-H torsion

> <Gold.Protein.ActiveResidues>
 VAL166  LYS551  ARG553  GLY616  TRP617  ASP618  TYR619  PRO620  LYS621  CYS622 
 ASP623  PHE694  ASN695  SER759  ASP760  ASP761  ALA762  ILE779  LEU786  VAL792 
 PHE793  MET794  SER795  GLU796  ALA797  LYS798  CYS799  TRP800  GLU811  SER814 

> <Gold.Protein.RotatedAtoms>
  150.9595  134.8985  159.7721 H   0  0  0  0  0  0  0  0  0  0  0  0  # atno 6907 bound_to 6896
  152.5150  134.3693  159.9322 H   0  0  0  0  0  0  0  0  0  0  0  0  # atno 6908 bound_to 6896
  151.3706  133.3816  159.2734 H   0  0  0  0  0  0  0  0  0  0  0  0  # atno 6909 bound_to 6896
  144.7600  140.4132  143.5983 H   0  0  0  0  0  0  0  0  0  0  0  0  # atno 7974 bound_to 7965
  156.1790  140.3102  155.9113 H   0  0  0  0  0  0  0  0  0  0  0  0  # atno 8008 bound_to 7997
  155.3424  140.0466  157.3062 H   0  0  0  0  0  0  0  0  0  0  0  0  # atno 8009 bound_to 7997
  154.5322  140.2234  155.8795 H   0  0  0  0  0  0  0  0  0  0  0  0  # atno 8010 bound_to 7997
  139.7018  144.7093  151.1172 H   0  0  0  0  0  0  0  0  0  0  0  0  # atno 10167 bound_to 10162
  156.7462  130.5225  149.5813 H   0  0  0  0  0  0  0  0  0  0  0  0  # atno 10718 bound_to 10713
  154.3553  135.2753  155.2350 H   0  0  0  0  0  0  0  0  0  0  0  0  # atno 10763 bound_to 10752
  154.4562  135.5918  153.6228 H   0  0  0  0  0  0  0  0  0  0  0  0  # atno 10764 bound_to 10752
  152.9847  135.6054  154.3767 H   0  0  0  0  0  0  0  0  0  0  0  0  # atno 10765 bound_to 10752
  141.1598  133.6827  156.6956 H   0  0  0  0  0  0  0  0  0  0  0  0  # atno 11005 bound_to 11000
  145.6649  139.1588  143.2787 LP  0  0  0  0  0  0  0  0  0  0  0  0  # atno 17320 bound_to 7965
  146.1654  140.6726  142.9258 LP  0  0  0  0  0  0  0  0  0  0  0  0  # atno 17321 bound_to 7965
  140.7711  143.5413  150.9309 LP  0  0  0  0  0  0  0  0  0  0  0  0  # atno 17342 bound_to 10162
  139.9095  143.6738  152.3117 LP  0  0  0  0  0  0  0  0  0  0  0  0  # atno 17343 bound_to 10162
  156.1431  130.6258  151.0495 LP  0  0  0  0  0  0  0  0  0  0  0  0  # atno 17370 bound_to 10713
  157.6797  131.0841  150.7403 LP  0  0  0  0  0  0  0  0  0  0  0  0  # atno 17371 bound_to 10713
  140.2997  134.8173  157.4087 LP  0  0  0  0  0  0  0  0  0  0  0  0  # atno 17394 bound_to 11000
  140.1273  134.5142  155.8134 LP  0  0  0  0  0  0  0  0  0  0  0  0  # atno 17395 bound_to 11000

$$$$
