AV-unprocessed.smi:3063|AV-procd|sdf|11686|dock2
  -GOLD-   2272017 93D 1   1.00000     0.00000
 Structure written by MMmdl.
 44 45  0  0  0  0  0  0  0  0  1 V2000
  151.5822  140.7370  158.4571 C   0  0  0  0  0  0  0  0  0  0  0  0
  152.0810  139.9003  157.2768 C   0  0  0  0  0  0  0  0  0  0  0  0
  152.9375  139.0432  157.4947 O   0  0  0  0  0  0  0  0  0  0  0  0
  151.5579  140.1128  156.0445 N   0  0  0  0  0  0  0  0  0  0  0  0
  151.9033  139.2515  154.9038 C   0  0  0  0  0  0  0  0  0  0  0  0
  150.9716  138.0233  154.8275 C   0  0  0  0  0  0  0  0  0  0  0  0
  149.4792  138.3903  154.6775 C   0  0  0  0  0  0  0  0  0  0  0  0
  148.9916  139.1727  155.8302 N   0  0  0  0  0  0  0  0  0  0  0  0
  148.5123  138.6444  156.9866 C   0  0  0  0  0  0  0  0  0  0  0  0
  148.0613  139.3278  157.9070 O   0  0  0  0  0  0  0  0  0  0  0  0
  148.5806  137.3038  157.0610 N   0  0  0  0  0  0  0  0  0  0  0  0
  148.1368  136.4850  158.1872 C   0  0  1  0  0  0  0  0  0  0  0  0
  148.3788  135.0030  157.8579 C   0  0  0  0  0  0  0  0  0  0  0  0
  148.7980  136.9321  159.5133 C   0  0  0  0  0  0  0  0  0  0  0  0
  148.0836  136.4941  160.7007 N   0  0  0  0  0  0  0  0  0  0  0  0
  147.8082  135.2076  161.1146 C   0  0  0  0  0  0  0  0  0  0  0  0
  147.1139  135.2973  162.2872 C   0  0  0  0  0  0  0  0  0  0  0  0
  147.0063  136.6986  162.5095 C   0  0  0  0  0  0  0  0  0  0  0  0
  147.5851  137.4100  161.5571 N   0  0  0  0  0  0  0  0  0  0  0  0
  149.1082  140.6299  155.6405 C   0  0  0  0  0  0  0  0  0  0  0  0
  150.5657  141.1558  155.7280 C   0  0  0  0  0  0  0  0  0  0  0  0
  150.4936  140.7281  158.5113 H   0  0  0  0  0  0  0  0  0  0  0  0
  151.9241  141.7685  158.3694 H   0  0  0  0  0  0  0  0  0  0  0  0
  151.9625  140.3363  159.3972 H   0  0  0  0  0  0  0  0  0  0  0  0
  151.8389  139.8118  153.9703 H   0  0  0  0  0  0  0  0  0  0  0  0
  152.9424  138.9239  154.9640 H   0  0  0  0  0  0  0  0  0  0  0  0
  151.2708  137.4082  153.9785 H   0  0  0  0  0  0  0  0  0  0  0  0
  151.1127  137.3986  155.7095 H   0  0  0  0  0  0  0  0  0  0  0  0
  149.3450  138.9580  153.7559 H   0  0  0  0  0  0  0  0  0  0  0  0
  148.8836  137.4883  154.5314 H   0  0  0  0  0  0  0  0  0  0  0  0
  148.9788  136.8123  156.2742 H   0  0  0  0  0  0  0  0  0  0  0  0
  147.0589  136.6197  158.2937 H   0  0  0  0  0  0  0  0  0  0  0  0
  148.0598  134.3625  158.6804 H   0  0  0  0  0  0  0  0  0  0  0  0
  149.4322  134.7981  157.6642 H   0  0  0  0  0  0  0  0  0  0  0  0
  147.8181  134.7033  156.9720 H   0  0  0  0  0  0  0  0  0  0  0  0
  149.8287  136.5792  159.5741 H   0  0  0  0  0  0  0  0  0  0  0  0
  148.8529  138.0210  159.5404 H   0  0  0  0  0  0  0  0  0  0  0  0
  148.1294  134.3455  160.5487 H   0  0  0  0  0  0  0  0  0  0  0  0
  146.7388  134.4859  162.8927 H   0  0  0  0  0  0  0  0  0  0  0  0
  146.5280  137.2177  163.3271 H   0  0  0  0  0  0  0  0  0  0  0  0
  148.6865  140.8966  154.6707 H   0  0  0  0  0  0  0  0  0  0  0  0
  148.4926  141.1793  156.3540 H   0  0  0  0  0  0  0  0  0  0  0  0
  150.6123  141.9891  156.4286 H   0  0  0  0  0  0  0  0  0  0  0  0
  150.8305  141.6119  154.7734 H   0  0  0  0  0  0  0  0  0  0  0  0
  1  2  1  0  0  0  0
  1 22  1  0  0  0  0
  1 23  1  0  0  0  0
  1 24  1  0  0  0  0
  2  3  2  0  0  0  0
  2  4  1  0  0  0  0
  4 21  1  0  0  0  0
  4  5  1  0  0  0  0
  5  6  1  0  0  0  0
  5 25  1  0  0  0  0
  5 26  1  0  0  0  0
  6  7  1  0  0  0  0
  6 27  1  0  0  0  0
  6 28  1  0  0  0  0
  7  8  1  0  0  0  0
  7 29  1  0  0  0  0
  7 30  1  0  0  0  0
  8  9  1  0  0  0  0
  8 20  1  0  0  0  0
  9 10  2  0  0  0  0
  9 11  1  0  0  0  0
 11 12  1  0  0  0  0
 11 31  1  0  0  0  0
 12 13  1  0  0  0  0
 12 14  1  0  0  0  0
 12 32  1  0  0  0  0
 13 33  1  0  0  0  0
 13 34  1  0  0  0  0
 13 35  1  0  0  0  0
 14 15  1  0  0  0  0
 14 36  1  0  0  0  0
 14 37  1  0  0  0  0
 15 19  1  0  0  0  0
 15 16  1  0  0  0  0
 16 17  2  0  0  0  0
 16 38  1  0  0  0  0
 17 18  1  0  0  0  0
 17 39  1  0  0  0  0
 18 19  2  0  0  0  0
 18 40  1  0  0  0  0
 20 21  1  0  0  0  0
 20 41  1  0  0  0  0
 20 42  1  0  0  0  0
 21 43  1  0  0  0  0
 21 44  1  0  0  0  0
M  END
> <s_m_source_file>
AV-unprocessed.smi

> <i_m_source_file_index>
3063

> <i_lp_mmshare_version>
43012

> <i_f3d_flags>
0

> <s_epik_input>
W0NIM11DKD1PKU4xW0NIMl1bQ0gyXVtDSDJdTihbQ0gyXVtDSDJdMSlDKD1PKVtOSF1bQ0BIXShbQ0gzXSlbQ0gyXW4yW2NIXVtjSF1bY0hdbjI=

> <s_epik_cmdline>
J2VwaWtfcHl0aG9uJywgJy1waCcsICc3LjAnLCAnLXRuJywgJzgnLCAnLW1hJywgJzIwMCcsICctbWV0YWxfYmluZGluZycsICctaW1hZScsICc8aW5maWxlLm1hZT4nLCAnLW9tYWUnLCAnPG91dGZpbGUubWFlPic=

> <r_lp_tautomer_probability>
1

> <r_epik_Ionization_Penalty>
6.19559e-05

> <r_epik_Ionization_Penalty_Charging>
0

> <r_epik_Ionization_Penalty_Neutral>
6.19559e-05

> <r_epik_State_Penalty>
-0

> <r_epik_Charging_Adjusted_Penalty>
0

> <i_epik_Tot_Q>
0

> <i_epik_Tot_abs_Q>
0

> <r_epik_Metal_State_Penalty>
-0

> <b_epik_Metal_Only>
0

> <s_lp_Force_Field>
OPLS_2005

> <r_lp_Energy>
38.4864

> <b_lp_Chiralities_Consistent>
1

> <s_lp_Variant>
AV-unprocessed.smi:3063-2

> <Gold.Version>
5.8.1

> <Gold.Id.Protein>
6NUR|6NUR_protein|mol2

> <Gold.PLP.Fitness>
44.9001

> <Gold.PLP.PLP>
-36.9832

> <Gold.PLP.part.hbond>
-3.4965

> <Gold.PLP.part.metal>
0.0000

> <Gold.PLP.part.buried>
-3.3121

> <Gold.PLP.part.nonpolar>
-29.4262

> <Gold.PLP.part.repulsive>
0.0000

> <Gold.PLP.ligand.clash>
0.0000

> <Gold.PLP.ligand.torsion>
0.1930

> <Gold.PLP.Chemscore.Hbond>
2.7520

> <Gold.PLP.Chemscore.CHOScore>
0.0000

> <Gold.PLP.Chemscore.Metal>
0.0000

> <Gold.Chemscore.Hbonds>
donor molecule, donor type, donor heavy atom, donor atom, acceptor molecule, acceptor atom, score
      P1  H  6931  6943       L1    19  0.82
      P1  H  6934  6947       L1    19  0.75
      P1  H  7997  8009       L1     3  0.98

> <Gold.PLP.Chemscore.Internal.Correction>
0.0469

> <Gold.Rescore>
     Score         DG    S(hbond)    S(metal)    S(lipo)     H(rot)  DE(clash)    DE(int)     intcor
     15.05     -15.47       1.64        0.00      69.95       1.44       0.00       0.41       ----

> <Gold.Chemscore.Fitness>
15.0543

> <Gold.Chemscore.DG>
-15.4672

> <Gold.Chemscore.ZeroCoef>
-5.4800

> <Gold.Chemscore.Hbond>
1.6411

> <Gold.Chemscore.Metal>
0.0000

> <Gold.Chemscore.Lipo>
69.9508

> <Gold.Chemscore.Internal_Hbond>
0.0000

> <Gold.Chemscore.DEClash>
0.0048

> <Gold.Chemscore.DEInternal>
0.4081

> <Gold.Chemscore.Rot>
1.4368

> <Gold.Chemscore.Internal.Correction>
   9.000000E+99

> <Gold.Chemscore.Hbonds>
donor molecule, donor type, donor heavy atom, donor atom, acceptor molecule, acceptor atom, score
      P1  H  6931  6943       L1    19  0.18
      P1  H  6934  6947       L1    19  0.73
      P1  H  7997  8009       L1     3  0.34

> <Gold.Chemscore.Hbond.Weighted>
-5.4811

> <Gold.Chemscore.Metal.Weighted>
-0.0000

> <Gold.Chemscore.Lipo.Weighted>
-8.1842

> <Gold.Chemscore.Internal_Hbond.Weighted>
0.0000

> <Gold.Chemscore.DEClash.Weighted>
0.0048

> <Gold.Chemscore.DEInternal.Weighted>
0.4081

> <Gold.Chemscore.Rot.Weighted>
3.6782

> <Gold.Chemscore.Internal.Correction.Weighted>
   9.000000E+99

> <Gold.Protein.RotatedTorsions>
[ 6907 6896 6895 6894 ] final  133.40 input  -60.11 | X-H torsion
[ 7974 7965 7964 7962 ] final  141.78 input  175.53 | X-H torsion
[ 8008 7997 7996 7995 ] final  146.76 input   59.86 | X-H torsion
[ 10167 10162 10161 10158 ] final   91.19 input  -65.29 | X-H torsion
[ 10718 10713 10712 10709 ] final   48.34 input   66.30 | X-H torsion
[ 10763 10752 10751 10750 ] final  171.17 input  -60.55 | X-H torsion
[ 11005 11000 10999 10996 ] final -107.65 input  -57.11 | X-H torsion

> <Gold.Protein.ActiveResidues>
 VAL166  LYS551  ARG553  GLY616  TRP617  ASP618  TYR619  PRO620  LYS621  CYS622 
 ASP623  PHE694  ASN695  SER759  ASP760  ASP761  ALA762  ILE779  LEU786  VAL792 
 PHE793  MET794  SER795  GLU796  ALA797  LYS798  CYS799  TRP800  GLU811  SER814 

> <Gold.Protein.RotatedAtoms>
  152.3224  133.5868  159.5752 H   0  0  0  0  0  0  0  0  0  0  0  0  # atno 6907 bound_to 6896
  150.7378  133.9992  159.3641 H   0  0  0  0  0  0  0  0  0  0  0  0  # atno 6908 bound_to 6896
  151.7875  135.0745  160.0433 H   0  0  0  0  0  0  0  0  0  0  0  0  # atno 6909 bound_to 6896
  144.9066  139.5350  143.5728 H   0  0  0  0  0  0  0  0  0  0  0  0  # atno 7974 bound_to 7965
  156.2846  140.2174  156.5428 H   0  0  0  0  0  0  0  0  0  0  0  0  # atno 8008 bound_to 7997
  154.7355  140.0492  157.0787 H   0  0  0  0  0  0  0  0  0  0  0  0  # atno 8009 bound_to 7997
  155.0297  140.3133  155.4766 H   0  0  0  0  0  0  0  0  0  0  0  0  # atno 8010 bound_to 7997
  139.8399  144.6646  150.9296 H   0  0  0  0  0  0  0  0  0  0  0  0  # atno 10167 bound_to 10162
  157.4677  130.8236  149.7954 H   0  0  0  0  0  0  0  0  0  0  0  0  # atno 10718 bound_to 10713
  154.4081  135.2756  155.2054 H   0  0  0  0  0  0  0  0  0  0  0  0  # atno 10763 bound_to 10752
  154.4051  135.6035  153.5923 H   0  0  0  0  0  0  0  0  0  0  0  0  # atno 10764 bound_to 10752
  152.9831  135.5936  154.4359 H   0  0  0  0  0  0  0  0  0  0  0  0  # atno 10765 bound_to 10752
  141.0943  133.8999  157.2001 H   0  0  0  0  0  0  0  0  0  0  0  0  # atno 11005 bound_to 11000
  146.3137  139.7839  142.9000 LP  0  0  0  0  0  0  0  0  0  0  0  0  # atno 17320 bound_to 7965
  145.3525  141.0310  143.3330 LP  0  0  0  0  0  0  0  0  0  0  0  0  # atno 17321 bound_to 7965
  140.7799  143.3922  151.1290 LP  0  0  0  0  0  0  0  0  0  0  0  0  # atno 17342 bound_to 10162
  139.7569  143.8694  152.3091 LP  0  0  0  0  0  0  0  0  0  0  0  0  # atno 17343 bound_to 10162
  156.0058  130.3856  150.2436 LP  0  0  0  0  0  0  0  0  0  0  0  0  # atno 17370 bound_to 10713
  157.0617  131.0092  151.3220 LP  0  0  0  0  0  0  0  0  0  0  0  0  # atno 17371 bound_to 10713
  139.9776  135.0109  156.9669 LP  0  0  0  0  0  0  0  0  0  0  0  0  # atno 17394 bound_to 11000
  140.5178  134.0938  155.7285 LP  0  0  0  0  0  0  0  0  0  0  0  0  # atno 17395 bound_to 11000

$$$$
