AV-unprocessed.smi:100|AV-procd|sdf|900|dock5
  -GOLD-   2262017393D 1   1.00000     0.00000
 Structure written by MMmdl.
 31 33  0  0  0  0  0  0  0  0  1 V2000
  153.4026  142.5965  161.3318 N   0  0  0  0  0  0  0  0  0  0  0  0
  152.6752  142.9192  160.2536 C   0  0  0  0  0  0  0  0  0  0  0  0
  152.1969  144.1813  160.1556 N   0  0  0  0  0  0  0  0  0  0  0  0
  151.4684  144.5269  159.0895 C   0  0  0  0  0  0  0  0  0  0  0  0
  151.1145  143.7780  158.0420 N   0  0  0  0  0  0  0  0  0  0  0  0
  151.5955  142.5044  158.1409 C   0  0  0  0  0  0  0  0  0  0  0  0
  152.3843  142.0009  159.2131 C   0  0  0  0  0  0  0  0  0  0  0  0
  152.7017  140.6695  158.9840 N   0  0  0  0  0  0  0  0  0  0  0  0
  152.1293  140.4041  157.8409 C   0  0  0  0  0  0  0  0  0  0  0  0
  151.4406  141.4482  157.2621 N   0  0  0  0  0  0  0  0  0  0  0  0
  150.6915  141.4205  155.9614 C   0  0  1  0  0  0  0  0  0  0  0  0
  151.0223  140.2657  155.2461 O   0  0  0  0  0  0  0  0  0  0  0  0
  149.8704  139.4403  155.0819 C   0  0  2  0  0  0  0  0  0  0  0  0
  149.9712  138.6031  153.7976 C   0  0  0  0  0  0  0  0  0  0  0  0
  151.0503  137.6979  153.8914 O   0  0  0  0  0  0  0  0  0  0  0  0
  148.7136  140.4411  155.0928 C   0  0  2  0  0  0  0  0  0  0  0  0
  148.6072  141.0528  153.9108 F   0  0  0  0  0  0  0  0  0  0  0  0
  149.1601  141.4445  156.1397 C   0  0  1  0  0  0  0  0  0  0  0  0
  148.7103  141.0675  157.4292 O   0  0  0  0  0  0  0  0  0  0  0  0
  153.7706  141.6610  161.4277 H   0  0  0  0  0  0  0  0  0  0  0  0
  153.5760  143.2875  162.0473 H   0  0  0  0  0  0  0  0  0  0  0  0
  151.1198  145.5489  159.0718 H   0  0  0  0  0  0  0  0  0  0  0  0
  152.1942  139.4278  157.3828 H   0  0  0  0  0  0  0  0  0  0  0  0
  151.0647  142.2856  155.4114 H   0  0  0  0  0  0  0  0  0  0  0  0
  149.7585  138.7868  155.9479 H   0  0  0  0  0  0  0  0  0  0  0  0
  149.0631  138.0148  153.6614 H   0  0  0  0  0  0  0  0  0  0  0  0
  150.0833  139.2371  152.9177 H   0  0  0  0  0  0  0  0  0  0  0  0
  150.9589  137.0490  153.2104 H   0  0  0  0  0  0  0  0  0  0  0  0
  147.7477  139.9824  155.3072 H   0  0  0  0  0  0  0  0  0  0  0  0
  148.7832  142.4467  155.9314 H   0  0  0  0  0  0  0  0  0  0  0  0
  148.7925  140.1297  157.5123 H   0  0  0  0  0  0  0  0  0  0  0  0
  1  2  1  0  0  0  0
  1 20  1  0  0  0  0
  1 21  1  0  0  0  0
  2  7  1  0  0  0  0
  2  3  2  0  0  0  0
  3  4  1  0  0  0  0
  4  5  2  0  0  0  0
  4 22  1  0  0  0  0
  5  6  1  0  0  0  0
  6 10  1  0  0  0  0
  6  7  2  0  0  0  0
  7  8  1  0  0  0  0
  8  9  2  0  0  0  0
  9 10  1  0  0  0  0
  9 23  1  0  0  0  0
 10 11  1  0  0  0  0
 11 18  1  0  0  0  0
 11 12  1  0  0  0  0
 11 24  1  0  0  0  0
 12 13  1  0  0  0  0
 13 14  1  0  0  0  0
 13 16  1  0  0  0  0
 13 25  1  0  0  0  0
 14 15  1  0  0  0  0
 14 26  1  0  0  0  0
 14 27  1  0  0  0  0
 15 28  1  0  0  0  0
 16 17  1  0  0  0  0
 16 18  1  0  0  0  0
 16 29  1  0  0  0  0
 18 19  1  0  0  0  0
 18 30  1  0  0  0  0
 19 31  1  0  0  0  0
M  END
> <s_m_source_file>
AV-unprocessed.smi

> <i_m_source_file_index>
100

> <i_lp_mmshare_version>
43012

> <i_f3d_flags>
0

> <s_epik_input>
bjFbY0hdbmMoW05IMl0pYyhjMTIpbltjSF1uMltDQEBIXTNPW0NAQEhdKFtDSDJdW09IXSlbQ0BIXShGKVtDQEhdM1tPSF0=

> <s_epik_cmdline>
J2VwaWtfcHl0aG9uJywgJy1waCcsICc3LjAnLCAnLXRuJywgJzgnLCAnLW1hJywgJzIwMCcsICctbWV0YWxfYmluZGluZycsICctaW1hZScsICc8aW5maWxlLm1hZT4nLCAnLW9tYWUnLCAnPG91dGZpbGUubWFlPic=

> <r_lp_tautomer_probability>
1

> <r_epik_Ionization_Penalty>
0.000750324

> <r_epik_Ionization_Penalty_Charging>
0

> <r_epik_Ionization_Penalty_Neutral>
0.000750324

> <r_epik_State_Penalty>
-0

> <r_epik_Charging_Adjusted_Penalty>
0

> <i_epik_Tot_Q>
0

> <i_epik_Tot_abs_Q>
0

> <r_epik_Metal_State_Penalty>
-0

> <b_epik_Metal_Only>
0

> <s_epik_Chemistry_Notes>
This compound contains an acetal/aminal-like group ( X-CH(R)-Y where X, Y are N, S, or O) that may be acid/base labile, releasing an aldehyde.

> <s_lp_Force_Field>
OPLS_2005

> <r_lp_Energy>
36.2821

> <b_lp_Chiralities_Consistent>
1

> <s_lp_Variant>
AV-unprocessed.smi:100-4

> <Gold.Version>
5.8.1

> <Gold.Id.Protein>
6NUR|6NUR_protein|mol2

> <Gold.PLP.Fitness>
38.2363

> <Gold.PLP.PLP>
-32.8067

> <Gold.PLP.part.hbond>
-2.4031

> <Gold.PLP.part.metal>
0.0000

> <Gold.PLP.part.buried>
-2.6673

> <Gold.PLP.part.nonpolar>
-27.1487

> <Gold.PLP.part.repulsive>
0.2548

> <Gold.PLP.ligand.clash>
0.0000

> <Gold.PLP.ligand.torsion>
0.2874

> <Gold.PLP.Chemscore.Hbond>
2.0000

> <Gold.PLP.Chemscore.CHOScore>
0.0000

> <Gold.PLP.Chemscore.Metal>
0.0000

> <Gold.Chemscore.Hbonds>
donor molecule, donor type, donor heavy atom, donor atom, acceptor molecule, acceptor atom, score
      L1  H    15    28       P1  7949  1.00
      P1  H  7989  7998       L1    12  1.00

> <Gold.PLP.Chemscore.Internal.Correction>
0.0044

> <Gold.Rescore>
     Score         DG    S(hbond)    S(metal)    S(lipo)     H(rot)  DE(clash)    DE(int)     intcor
      5.28      -5.85       1.37        0.00      33.84       3.19       0.55       0.02       ----

> <Gold.Chemscore.Fitness>
5.2810

> <Gold.Chemscore.DG>
-5.8533

> <Gold.Chemscore.ZeroCoef>
-5.4800

> <Gold.Chemscore.Hbond>
1.3715

> <Gold.Chemscore.Metal>
0.0000

> <Gold.Chemscore.Lipo>
33.8393

> <Gold.Chemscore.Internal_Hbond>
0.0000

> <Gold.Chemscore.DEClash>
0.5494

> <Gold.Chemscore.DEInternal>
0.0229

> <Gold.Chemscore.Rot>
3.1901

> <Gold.Chemscore.Internal.Correction>
   9.000000E+99

> <Gold.Chemscore.Hbonds>
donor molecule, donor type, donor heavy atom, donor atom, acceptor molecule, acceptor atom, score
      L1  H    15    28       P1  7949  0.24
      P1  H  7989  7998       L1    12  0.40

> <Gold.Chemscore.Hbond.Weighted>
-4.5807

> <Gold.Chemscore.Metal.Weighted>
-0.0000

> <Gold.Chemscore.Lipo.Weighted>
-3.9592

> <Gold.Chemscore.Internal_Hbond.Weighted>
0.0000

> <Gold.Chemscore.DEClash.Weighted>
0.5494

> <Gold.Chemscore.DEInternal.Weighted>
0.0229

> <Gold.Chemscore.Rot.Weighted>
8.1667

> <Gold.Chemscore.Internal.Correction.Weighted>
   9.000000E+99

> <Gold.Protein.RotatedTorsions>
[ 6907 6896 6895 6894 ] final   47.50 input  -60.11 | X-H torsion
[ 7974 7965 7964 7962 ] final -105.46 input  175.53 | X-H torsion
[ 8008 7997 7996 7995 ] final  -91.10 input   59.86 | X-H torsion
[ 10167 10162 10161 10158 ] final   22.52 input  -65.29 | X-H torsion
[ 10718 10713 10712 10709 ] final   69.37 input   66.30 | X-H torsion
[ 10763 10752 10751 10750 ] final  155.75 input  -60.55 | X-H torsion
[ 11005 11000 10999 10996 ] final  -32.28 input  -57.11 | X-H torsion

> <Gold.Protein.ActiveResidues>
 VAL166  LYS551  ARG553  GLY616  TRP617  ASP618  TYR619  PRO620  LYS621  CYS622 
 ASP623  PHE694  ASN695  SER759  ASP760  ASP761  ALA762  ILE779  LEU786  VAL792 
 PHE793  MET794  SER795  GLU796  ALA797  LYS798  CYS799  TRP800  GLU811  SER814 

> <Gold.Protein.RotatedAtoms>
  152.2687  134.7956  160.0417 H   0  0  0  0  0  0  0  0  0  0  0  0  # atno 6907 bound_to 6896
  151.8576  133.3446  159.3701 H   0  0  0  0  0  0  0  0  0  0  0  0  # atno 6908 bound_to 6896
  150.7144  134.5165  159.5677 H   0  0  0  0  0  0  0  0  0  0  0  0  # atno 6909 bound_to 6896
  145.2302  140.9168  143.3209 H   0  0  0  0  0  0  0  0  0  0  0  0  # atno 7974 bound_to 7965
  154.7066  140.0523  157.0510 H   0  0  0  0  0  0  0  0  0  0  0  0  # atno 8008 bound_to 7997
  155.0611  140.3189  155.4641 H   0  0  0  0  0  0  0  0  0  0  0  0  # atno 8009 bound_to 7997
  156.2777  140.2098  156.5738 H   0  0  0  0  0  0  0  0  0  0  0  0  # atno 8010 bound_to 7997
  140.5341  143.9790  150.6482 H   0  0  0  0  0  0  0  0  0  0  0  0  # atno 10167 bound_to 10162
  157.6342  130.9422  150.0505 H   0  0  0  0  0  0  0  0  0  0  0  0  # atno 10718 bound_to 10713
  154.1733  135.2803  155.3074 H   0  0  0  0  0  0  0  0  0  0  0  0  # atno 10763 bound_to 10752
  154.6058  135.5515  153.7425 H   0  0  0  0  0  0  0  0  0  0  0  0  # atno 10764 bound_to 10752
  153.0158  135.6403  154.1873 H   0  0  0  0  0  0  0  0  0  0  0  0  # atno 10765 bound_to 10752
  140.9539  133.7204  156.1263 H   0  0  0  0  0  0  0  0  0  0  0  0  # atno 11005 bound_to 11000
  144.9683  139.3906  143.6321 LP  0  0  0  0  0  0  0  0  0  0  0  0  # atno 17320 bound_to 7965
  146.3355  139.8769  142.8830 LP  0  0  0  0  0  0  0  0  0  0  0  0  # atno 17321 bound_to 7965
  140.3173  143.3159  152.0819 LP  0  0  0  0  0  0  0  0  0  0  0  0  # atno 17342 bound_to 10162
  139.4965  144.6597  151.6493 LP  0  0  0  0  0  0  0  0  0  0  0  0  # atno 17343 bound_to 10162
  156.1568  130.3643  149.9357 LP  0  0  0  0  0  0  0  0  0  0  0  0  # atno 17370 bound_to 10713
  156.7364  130.9063  151.3629 LP  0  0  0  0  0  0  0  0  0  0  0  0  # atno 17371 bound_to 10713
  140.7563  134.3988  157.5533 LP  0  0  0  0  0  0  0  0  0  0  0  0  # atno 17394 bound_to 11000
  139.8856  134.8933  156.2633 LP  0  0  0  0  0  0  0  0  0  0  0  0  # atno 17395 bound_to 11000

$$$$
