AV-unprocessed.smi:81|AV-procd|sdf|790|dock4
  -GOLD-   2262017163D 1   1.00000     0.00000
 Structure written by MMmdl.
 64 67  0  0  0  0  0  0  0  0  2 V2000
  152.7838  141.1942  159.3530 C   0  0  0  0  0  0  0  0  0  0  0  0
  151.8562  141.4473  158.1533 C   0  0  0  0  0  0  0  0  0  0  0  0
  150.8031  142.5082  158.5023 C   0  0  0  0  0  0  0  0  0  0  0  0
  151.1709  140.1468  157.6722 C   0  0  0  0  0  0  0  0  0  0  0  0
  149.9728  140.3568  156.8515 N   0  0  0  0  0  0  0  0  0  0  0  0
  148.8465  139.7405  157.2855 C   0  0  0  0  0  0  0  0  0  0  0  0
  147.6870  140.4407  157.2099 N   0  0  0  0  0  0  0  0  0  0  0  0
  146.5474  139.9026  157.6528 C   0  0  0  0  0  0  0  0  0  0  0  0
  146.3504  138.7035  158.2035 N   0  0  0  0  0  0  0  0  0  0  0  0
  147.5163  138.0023  158.2992 C   0  0  0  0  0  0  0  0  0  0  0  0
  148.7997  138.4421  157.8700 C   0  0  0  0  0  0  0  0  0  0  0  0
  149.7444  137.4566  158.1280 N   0  0  0  0  0  0  0  0  0  0  0  0
  149.0604  136.4933  158.6813 C   0  0  0  0  0  0  0  0  0  0  0  0
  147.7135  136.7384  158.8299 N   0  0  0  0  0  0  0  0  0  0  0  0
  146.7075  135.8631  159.4195 C   0  0  0  0  0  0  0  0  0  0  0  0
  147.1236  135.2584  160.7875 C   0  0  1  0  0  0  0  0  0  0  0  0
  148.0989  134.2565  160.5459 O   0  0  0  0  0  0  0  0  0  0  0  0
  147.7113  136.2786  161.7473 C   0  0  0  0  0  0  0  0  0  0  0  0
  147.5838  135.5868  163.1026 C   0  0  0  0  0  0  0  0  0  0  0  0
  146.5052  134.6622  162.9793 O   0  0  0  0  0  0  0  0  0  0  0  0
  146.0040  134.6271  161.6431 C   0  0  1  0  0  0  0  0  0  0  0  0
  144.6776  135.4101  161.6940 C   0  0  0  0  0  0  0  0  0  0  0  0
  150.1785  140.5091  155.4005 C   0  0  2  0  0  0  0  0  0  0  0  0
  149.2479  141.5220  154.6910 C   0  0  0  0  0  0  0  0  0  0  0  0
  147.9229  140.9167  154.1874 C   0  0  0  0  0  0  0  0  0  0  0  0
  148.1645  139.7110  153.3615 N   0  3  2  0  0  0  0  0  0  0  0  0
  146.9230  139.1957  152.7450 C   0  0  0  0  0  0  0  0  0  0  0  0
  148.8914  138.6658  154.1189 C   0  0  0  0  0  0  0  0  0  0  0  0
  150.2563  139.1807  154.6110 C   0  0  0  0  0  0  0  0  0  0  0  0
  152.2328  140.7824  160.1991 H   0  0  0  0  0  0  0  0  0  0  0  0
  153.2589  142.1185  159.6833 H   0  0  0  0  0  0  0  0  0  0  0  0
  153.5797  140.4932  159.1015 H   0  0  0  0  0  0  0  0  0  0  0  0
  152.4582  141.8622  157.3442 H   0  0  0  0  0  0  0  0  0  0  0  0
  150.1604  142.1766  159.3186 H   0  0  0  0  0  0  0  0  0  0  0  0
  150.1665  142.7260  157.6441 H   0  0  0  0  0  0  0  0  0  0  0  0
  151.2733  143.4436  158.8070 H   0  0  0  0  0  0  0  0  0  0  0  0
  151.8917  139.5646  157.0970 H   0  0  0  0  0  0  0  0  0  0  0  0
  150.9153  139.5279  158.5314 H   0  0  0  0  0  0  0  0  0  0  0  0
  145.6681  140.5221  157.5544 H   0  0  0  0  0  0  0  0  0  0  0  0
  149.5340  135.5771  158.9962 H   0  0  0  0  0  0  0  0  0  0  0  0
  145.7982  136.4506  159.5531 H   0  0  0  0  0  0  0  0  0  0  0  0
  146.4467  135.0891  158.6984 H   0  0  0  0  0  0  0  0  0  0  0  0
  148.9382  134.6771  160.4363 H   0  0  0  0  0  0  0  0  0  0  0  0
  148.7372  136.5626  161.5087 H   0  0  0  0  0  0  0  0  0  0  0  0
  147.1089  137.1878  161.7423 H   0  0  0  0  0  0  0  0  0  0  0  0
  148.4915  135.0298  163.3363 H   0  0  0  0  0  0  0  0  0  0  0  0
  147.4063  136.2963  163.9109 H   0  0  0  0  0  0  0  0  0  0  0  0
  145.7984  133.5988  161.3419 H   0  0  0  0  0  0  0  0  0  0  0  0
  144.1755  135.4426  160.7303 H   0  0  0  0  0  0  0  0  0  0  0  0
  144.8290  136.4387  162.0212 H   0  0  0  0  0  0  0  0  0  0  0  0
  143.9869  134.9444  162.3972 H   0  0  0  0  0  0  0  0  0  0  0  0
  151.1738  140.9514  155.3389 H   0  0  0  0  0  0  0  0  0  0  0  0
  149.0609  142.3874  155.3276 H   0  0  0  0  0  0  0  0  0  0  0  0
  149.7797  141.9125  153.8223 H   0  0  0  0  0  0  0  0  0  0  0  0
  147.2617  140.6586  155.0135 H   0  0  0  0  0  0  0  0  0  0  0  0
  147.3941  141.6629  153.5932 H   0  0  0  0  0  0  0  0  0  0  0  0
  146.2130  138.8717  153.5072 H   0  0  0  0  0  0  0  0  0  0  0  0
  147.1386  138.3469  152.0953 H   0  0  0  0  0  0  0  0  0  0  0  0
  146.4463  139.9657  152.1376 H   0  0  0  0  0  0  0  0  0  0  0  0
  148.2729  138.3278  154.9478 H   0  0  0  0  0  0  0  0  0  0  0  0
  149.0491  137.7974  153.4782 H   0  0  0  0  0  0  0  0  0  0  0  0
  150.8810  139.3494  153.7328 H   0  0  0  0  0  0  0  0  0  0  0  0
  150.7669  138.4079  155.1855 H   0  0  0  0  0  0  0  0  0  0  0  0
  148.7673  139.9934  152.6019 H   0  0  0  0  0  0  0  0  0  0  0  0
  1  2  1  0  0  0  0
  1 30  1  0  0  0  0
  1 31  1  0  0  0  0
  1 32  1  0  0  0  0
  2  3  1  0  0  0  0
  2  4  1  0  0  0  0
  2 33  1  0  0  0  0
  3 34  1  0  0  0  0
  3 35  1  0  0  0  0
  3 36  1  0  0  0  0
  4  5  1  0  0  0  0
  4 37  1  0  0  0  0
  4 38  1  0  0  0  0
  5  6  1  0  0  0  0
  5 23  1  0  0  0  0
  6 11  1  0  0  0  0
  6  7  2  0  0  0  0
  7  8  1  0  0  0  0
  8  9  2  0  0  0  0
  8 39  1  0  0  0  0
  9 10  1  0  0  0  0
 10 14  1  0  0  0  0
 10 11  2  0  0  0  0
 11 12  1  0  0  0  0
 12 13  2  0  0  0  0
 13 14  1  0  0  0  0
 13 40  1  0  0  0  0
 14 15  1  0  0  0  0
 15 16  1  0  0  0  0
 15 41  1  0  0  0  0
 15 42  1  0  0  0  0
 16 21  1  0  0  0  0
 16 17  1  0  0  0  0
 16 18  1  0  0  0  0
 17 43  1  0  0  0  0
 18 19  1  0  0  0  0
 18 44  1  0  0  0  0
 18 45  1  0  0  0  0
 19 20  1  0  0  0  0
 19 46  1  0  0  0  0
 19 47  1  0  0  0  0
 20 21  1  0  0  0  0
 21 22  1  0  0  0  0
 21 48  1  0  0  0  0
 22 49  1  0  0  0  0
 22 50  1  0  0  0  0
 22 51  1  0  0  0  0
 23 29  1  0  0  0  0
 23 24  1  0  0  0  0
 23 52  1  0  0  0  0
 24 25  1  0  0  0  0
 24 53  1  0  0  0  0
 24 54  1  0  0  0  0
 25 26  1  0  0  0  0
 25 55  1  0  0  0  0
 25 56  1  0  0  0  0
 26 27  1  0  0  0  0
 26 28  1  0  0  0  0
 26 64  1  0  0  0  0
 27 57  1  0  0  0  0
 27 58  1  0  0  0  0
 27 59  1  0  0  0  0
 28 29  1  0  0  0  0
 28 60  1  0  0  0  0
 28 61  1  0  0  0  0
 29 62  1  0  0  0  0
 29 63  1  0  0  0  0
M  CHG  1  26   1
M  END
> <s_m_source_file>
AV-unprocessed.smi

> <i_m_source_file_index>
81

> <i_lp_mmshare_version>
43012

> <i_f3d_flags>
0

> <s_epik_input>
W0NIMl0xW0NIMl1OKFtDSDNdKVtDSDJdW0NIMl1bQ0hdMU4oW0NIMl1bQ0hdKFtDSDNdKVtDSDNdKWMobltjSF1uMiljKGMyMyluW2NIXW4zW0NIMl1bQ0BAXTQoW09IXSlbQ0gyXVtDSDJdT1tDQEhdNFtDSDNd

> <s_epik_cmdline>
J2VwaWtfcHl0aG9uJywgJy1waCcsICc3LjAnLCAnLXRuJywgJzgnLCAnLW1hJywgJzIwMCcsICctbWV0YWxfYmluZGluZycsICctaW1hZScsICc8aW5maWxlLm1hZT4nLCAnLW9tYWUnLCAnPG91dGZpbGUubWFlPic=

> <r_lp_tautomer_probability>
1

> <r_epik_Ionization_Penalty>
0.00272708

> <r_epik_Ionization_Penalty_Charging>
0.00158983

> <r_epik_Ionization_Penalty_Neutral>
0.00113725

> <r_epik_State_Penalty>
-0

> <r_epik_Charging_Adjusted_Penalty>
0.00158983

> <i_epik_Tot_Q>
1

> <i_epik_Tot_abs_Q>
1

> <r_epik_Metal_State_Penalty>
-0

> <b_epik_Metal_Only>
0

> <s_lp_Force_Field>
OPLS_2005

> <r_lp_Energy>
53.2372

> <b_lp_Chiralities_Consistent>
1

> <s_lp_Variant>
AV-unprocessed.smi:81-5

> <Gold.Version>
5.8.1

> <Gold.Id.Protein>
6NUR|6NUR_protein|mol2

> <Gold.PLP.Fitness>
44.0999

> <Gold.PLP.PLP>
-43.6436

> <Gold.PLP.part.hbond>
-1.7631

> <Gold.PLP.part.metal>
0.0000

> <Gold.PLP.part.buried>
-6.9518

> <Gold.PLP.part.nonpolar>
-36.1555

> <Gold.PLP.part.repulsive>
0.1046

> <Gold.PLP.ligand.clash>
0.0000

> <Gold.PLP.ligand.torsion>
2.0578

> <Gold.PLP.Chemscore.Hbond>
1.0000

> <Gold.PLP.Chemscore.CHOScore>
0.0000

> <Gold.PLP.Chemscore.Metal>
0.0000

> <Gold.Chemscore.Hbonds>
donor molecule, donor type, donor heavy atom, donor atom, acceptor molecule, acceptor atom, score
      L1  H    26    64       P1  7957  1.00

> <Gold.PLP.Chemscore.Internal.Correction>
1.5719

> <Gold.Rescore>
     Score         DG    S(hbond)    S(metal)    S(lipo)     H(rot)  DE(clash)    DE(int)     intcor
     13.93     -16.05       1.00        0.00     112.49       2.32       0.11       2.02       ----

> <Gold.Chemscore.Fitness>
13.9280

> <Gold.Chemscore.DG>
-16.0521

> <Gold.Chemscore.ZeroCoef>
-5.4800

> <Gold.Chemscore.Hbond>
1.0000

> <Gold.Chemscore.Metal>
0.0000

> <Gold.Chemscore.Lipo>
112.4944

> <Gold.Chemscore.Internal_Hbond>
0.0000

> <Gold.Chemscore.DEClash>
0.1071

> <Gold.Chemscore.DEInternal>
2.0170

> <Gold.Chemscore.Rot>
2.3163

> <Gold.Chemscore.Internal.Correction>
   9.000000E+99

> <Gold.Chemscore.Hbonds>
donor molecule, donor type, donor heavy atom, donor atom, acceptor molecule, acceptor atom, score
      L1  H    26    64       P1  7957  1.00

> <Gold.Chemscore.Hbond.Weighted>
-3.3400

> <Gold.Chemscore.Metal.Weighted>
-0.0000

> <Gold.Chemscore.Lipo.Weighted>
-13.1618

> <Gold.Chemscore.Internal_Hbond.Weighted>
0.0000

> <Gold.Chemscore.DEClash.Weighted>
0.1071

> <Gold.Chemscore.DEInternal.Weighted>
2.0170

> <Gold.Chemscore.Rot.Weighted>
5.9297

> <Gold.Chemscore.Internal.Correction.Weighted>
   9.000000E+99

> <Gold.Protein.RotatedTorsions>
[ 6907 6896 6895 6894 ] final  -51.25 input  -60.11 | X-H torsion
[ 7974 7965 7964 7962 ] final -171.38 input  175.53 | X-H torsion
[ 8008 7997 7996 7995 ] final -167.26 input   59.86 | X-H torsion
[ 10167 10162 10161 10158 ] final  132.84 input  -65.29 | X-H torsion
[ 10718 10713 10712 10709 ] final   64.20 input   66.30 | X-H torsion
[ 10763 10752 10751 10750 ] final -119.47 input  -60.55 | X-H torsion
[ 11005 11000 10999 10996 ] final  -64.07 input  -57.11 | X-H torsion

> <Gold.Protein.ActiveResidues>
 VAL166  LYS551  ARG553  GLY616  TRP617  ASP618  TYR619  PRO620  LYS621  CYS622 
 ASP623  PHE694  ASN695  SER759  ASP760  ASP761  ALA762  ILE779  LEU786  VAL792 
 PHE793  MET794  SER795  GLU796  ALA797  LYS798  CYS799  TRP800  GLU811  SER814 

> <Gold.Protein.RotatedAtoms>
  150.8629  134.7985  159.7096 H   0  0  0  0  0  0  0  0  0  0  0  0  # atno 6907 bound_to 6896
  152.4660  134.5071  159.9752 H   0  0  0  0  0  0  0  0  0  0  0  0  # atno 6908 bound_to 6896
  151.5172  133.3435  159.2930 H   0  0  0  0  0  0  0  0  0  0  0  0  # atno 6909 bound_to 6896
  144.7158  140.1931  143.6346 H   0  0  0  0  0  0  0  0  0  0  0  0  # atno 7974 bound_to 7965
  155.8753  140.1000  157.1522 H   0  0  0  0  0  0  0  0  0  0  0  0  # atno 8008 bound_to 7997
  154.4000  140.1339  156.4192 H   0  0  0  0  0  0  0  0  0  0  0  0  # atno 8009 bound_to 7997
  155.7704  140.3461  155.5246 H   0  0  0  0  0  0  0  0  0  0  0  0  # atno 8010 bound_to 7997
  139.5322  144.6643  151.4910 H   0  0  0  0  0  0  0  0  0  0  0  0  # atno 10167 bound_to 10162
  157.6023  130.9147  149.9814 H   0  0  0  0  0  0  0  0  0  0  0  0  # atno 10718 bound_to 10713
  154.8618  135.4237  154.2304 H   0  0  0  0  0  0  0  0  0  0  0  0  # atno 10763 bound_to 10752
  153.3290  135.6987  153.6970 H   0  0  0  0  0  0  0  0  0  0  0  0  # atno 10764 bound_to 10752
  153.5994  135.3540  155.2913 H   0  0  0  0  0  0  0  0  0  0  0  0  # atno 10765 bound_to 10752
  141.1413  133.6660  156.5776 H   0  0  0  0  0  0  0  0  0  0  0  0  # atno 11005 bound_to 11000
  145.8750  139.2292  143.1639 LP  0  0  0  0  0  0  0  0  0  0  0  0  # atno 17320 bound_to 7965
  146.0049  140.8487  143.0000 LP  0  0  0  0  0  0  0  0  0  0  0  0  # atno 17321 bound_to 7965
  140.6508  143.8701  150.6783 LP  0  0  0  0  0  0  0  0  0  0  0  0  # atno 17342 bound_to 10162
  140.2065  143.3917  152.1751 LP  0  0  0  0  0  0  0  0  0  0  0  0  # atno 17343 bound_to 10162
  156.1100  130.3650  150.0066 LP  0  0  0  0  0  0  0  0  0  0  0  0  # atno 17370 bound_to 10713
  156.8167  130.9344  151.3642 LP  0  0  0  0  0  0  0  0  0  0  0  0  # atno 17371 bound_to 10713
  140.3863  134.7479  157.4693 LP  0  0  0  0  0  0  0  0  0  0  0  0  # atno 17394 bound_to 11000
  140.0600  134.6010  155.8760 LP  0  0  0  0  0  0  0  0  0  0  0  0  # atno 17395 bound_to 11000

$$$$
