AV-unprocessed.smi:2645|AV-procd|sdf|10280|dock6
  -GOLD-   2272014293D 1   1.00000     0.00000
 Structure written by MMmdl.
 50 52  0  0  0  0  0  0  0  0  2 V2000
  144.4764  136.9440  152.7141 O   0  0  0  0  0  0  0  0  0  0  0  0
  145.6453  136.6244  152.4947 C   0  0  0  0  0  0  0  0  0  0  0  0
  146.6899  137.4056  152.8073 N   0  0  0  0  0  0  0  0  0  0  0  0
  146.5857  138.7078  153.4562 C   0  0  0  0  0  0  0  0  0  0  0  0
  147.3142  138.7263  154.8147 C   0  0  0  0  0  0  0  0  0  0  0  0
  148.5514  139.5459  154.7868 N   0  3  0  0  0  0  0  0  0  0  0  0
  148.4369  140.7594  155.6414 C   0  0  0  0  0  0  0  0  0  0  0  0
  149.7275  141.5994  155.6148 C   0  0  0  0  0  0  0  0  0  0  0  0
  150.8551  140.7475  156.0033 N   0  0  0  0  0  0  0  0  0  0  0  0
  151.5442  140.9178  157.1581 C   0  0  0  0  0  0  0  0  0  0  0  0
  152.4203  140.1295  157.5157 O   0  0  0  0  0  0  0  0  0  0  0  0
  151.2538  142.1618  158.0254 C   0  0  0  0  0  0  0  0  0  0  0  0
  151.7794  143.5101  157.4934 C   0  0  0  0  0  0  0  0  0  0  0  0
  152.9424  143.4314  158.4869 C   0  0  0  0  0  0  0  0  0  0  0  0
  152.1972  142.3184  159.2302 C   0  0  0  0  0  0  0  0  0  0  0  0
  151.0386  139.6520  155.0475 C   0  0  0  0  0  0  0  0  0  0  0  0
  149.7856  138.7586  155.0668 C   0  0  0  0  0  0  0  0  0  0  0  0
  146.0452  135.4737  151.9250 N   0  0  0  0  0  0  0  0  0  0  0  0
  145.2386  134.4058  151.4485 C   0  0  0  0  0  0  0  0  0  0  0  0
  145.9504  133.3175  150.8949 C   0  0  0  0  0  0  0  0  0  0  0  0
  145.2408  132.2090  150.3934 C   0  0  0  0  0  0  0  0  0  0  0  0
  143.8360  132.2181  150.4566 C   0  0  0  0  0  0  0  0  0  0  0  0
  143.2049  133.3415  151.0216 C   0  0  0  0  0  0  0  0  0  0  0  0
  143.8829  134.4045  151.5038 N   0  0  0  0  0  0  0  0  0  0  0  0
  147.6187  137.0696  152.5972 H   0  0  0  0  0  0  0  0  0  0  0  0
  146.9768  139.4688  152.7807 H   0  0  0  0  0  0  0  0  0  0  0  0
  145.5284  138.9328  153.5986 H   0  0  0  0  0  0  0  0  0  0  0  0
  146.6296  139.1372  155.5585 H   0  0  0  0  0  0  0  0  0  0  0  0
  147.5573  137.7162  155.1477 H   0  0  0  0  0  0  0  0  0  0  0  0
  147.5987  141.3687  155.3014 H   0  0  0  0  0  0  0  0  0  0  0  0
  148.2153  140.4582  156.6666 H   0  0  0  0  0  0  0  0  0  0  0  0
  149.9012  141.9920  154.6119 H   0  0  0  0  0  0  0  0  0  0  0  0
  149.6102  142.4720  156.2586 H   0  0  0  0  0  0  0  0  0  0  0  0
  150.1981  142.2383  158.2884 H   0  0  0  0  0  0  0  0  0  0  0  0
  152.0916  143.5356  156.4488 H   0  0  0  0  0  0  0  0  0  0  0  0
  151.0972  144.3330  157.7113 H   0  0  0  0  0  0  0  0  0  0  0  0
  153.8671  143.0821  158.0254 H   0  0  0  0  0  0  0  0  0  0  0  0
  153.0997  144.3386  159.0712 H   0  0  0  0  0  0  0  0  0  0  0  0
  151.6796  142.6740  160.1220 H   0  0  0  0  0  0  0  0  0  0  0  0
  152.8175  141.4493  159.4536 H   0  0  0  0  0  0  0  0  0  0  0  0
  151.1773  140.0722  154.0501 H   0  0  0  0  0  0  0  0  0  0  0  0
  151.9297  139.0535  155.2294 H   0  0  0  0  0  0  0  0  0  0  0  0
  149.6947  138.2747  156.0408 H   0  0  0  0  0  0  0  0  0  0  0  0
  149.9056  137.9658  154.3298 H   0  0  0  0  0  0  0  0  0  0  0  0
  147.0408  135.3443  151.8208 H   0  0  0  0  0  0  0  0  0  0  0  0
  147.0302  133.3263  150.8536 H   0  0  0  0  0  0  0  0  0  0  0  0
  145.7665  131.3670  149.9674 H   0  0  0  0  0  0  0  0  0  0  0  0
  143.2570  131.3868  150.0824 H   0  0  0  0  0  0  0  0  0  0  0  0
  142.1279  133.3887  151.0889 H   0  0  0  0  0  0  0  0  0  0  0  0
  148.6427  139.8900  153.8418 H   0  0  0  0  0  0  0  0  0  0  0  0
  1  2  2  0  0  0  0
  2  3  1  0  0  0  0
  2 18  1  0  0  0  0
  3  4  1  0  0  0  0
  3 25  1  0  0  0  0
  4  5  1  0  0  0  0
  4 26  1  0  0  0  0
  4 27  1  0  0  0  0
  5  6  1  0  0  0  0
  5 28  1  0  0  0  0
  5 29  1  0  0  0  0
  6 17  1  0  0  0  0
  6  7  1  0  0  0  0
  6 50  1  0  0  0  0
  7  8  1  0  0  0  0
  7 30  1  0  0  0  0
  7 31  1  0  0  0  0
  8  9  1  0  0  0  0
  8 32  1  0  0  0  0
  8 33  1  0  0  0  0
  9 10  1  0  0  0  0
  9 16  1  0  0  0  0
 10 11  2  0  0  0  0
 10 12  1  0  0  0  0
 12 15  1  0  0  0  0
 12 13  1  0  0  0  0
 12 34  1  0  0  0  0
 13 14  1  0  0  0  0
 13 35  1  0  0  0  0
 13 36  1  0  0  0  0
 14 15  1  0  0  0  0
 14 37  1  0  0  0  0
 14 38  1  0  0  0  0
 15 39  1  0  0  0  0
 15 40  1  0  0  0  0
 16 17  1  0  0  0  0
 16 41  1  0  0  0  0
 16 42  1  0  0  0  0
 17 43  1  0  0  0  0
 17 44  1  0  0  0  0
 18 19  1  0  0  0  0
 18 45  1  0  0  0  0
 19 24  1  0  0  0  0
 19 20  2  0  0  0  0
 20 21  1  0  0  0  0
 20 46  1  0  0  0  0
 21 22  2  0  0  0  0
 21 47  1  0  0  0  0
 22 23  1  0  0  0  0
 22 48  1  0  0  0  0
 23 24  2  0  0  0  0
 23 49  1  0  0  0  0
M  CHG  1   6   1
M  END
> <s_m_source_file>
AV-unprocessed.smi

> <i_m_source_file_index>
2645

> <i_lp_mmshare_version>
43012

> <i_f3d_flags>
0

> <s_epik_input>
bjFbY0hdW2NIXVtjSF1bY0hdYzFbTkhdQyg9TylbTkhdW0NIMl1bQ0gyXU4yW0NIMl1bQ0gyXU4oW0NIMl1bQ0gyXTIpQyg9TylbQ0hdM1tDSDJdW0NIMl1bQ0gyXTM=

> <s_epik_cmdline>
J2VwaWtfcHl0aG9uJywgJy1waCcsICc3LjAnLCAnLXRuJywgJzgnLCAnLW1hJywgJzIwMCcsICctbWV0YWxfYmluZGluZycsICctaW1hZScsICc8aW5maWxlLm1hZT4nLCAnLW9tYWUnLCAnPG91dGZpbGUubWFlPic=

> <r_epik_Ionization_Penalty>
0.58203

> <r_epik_Ionization_Penalty_Charging>
0.581996

> <r_epik_Ionization_Penalty_Neutral>
3.43439e-05

> <r_epik_State_Penalty>
0.594836

> <r_epik_Charging_Adjusted_Penalty>
1.17683

> <i_epik_Tot_Q>
1

> <i_epik_Tot_abs_Q>
1

> <r_epik_Metal_State_Penalty>
0.594839

> <b_epik_Metal_Only>
0

> <s_lp_Force_Field>
OPLS_2005

> <r_lp_Energy>
52.325

> <b_lp_Chiralities_Consistent>
1

> <s_lp_Variant>
AV-unprocessed.smi:2645-2

> <Gold.Version>
5.8.1

> <Gold.Id.Protein>
6NUR|6NUR_protein|mol2

> <Gold.PLP.Fitness>
52.6678

> <Gold.PLP.PLP>
-43.4513

> <Gold.PLP.part.hbond>
-2.7173

> <Gold.PLP.part.metal>
0.0000

> <Gold.PLP.part.buried>
-1.8929

> <Gold.PLP.part.nonpolar>
-38.1670

> <Gold.PLP.part.repulsive>
0.4800

> <Gold.PLP.ligand.clash>
0.0000

> <Gold.PLP.ligand.torsion>
1.2928

> <Gold.PLP.Chemscore.Hbond>
2.8219

> <Gold.PLP.Chemscore.CHOScore>
0.9705

> <Gold.PLP.Chemscore.Metal>
0.0000

> <Gold.Chemscore.Hbonds>
donor molecule, donor type, donor heavy atom, donor atom, acceptor molecule, acceptor atom, score
      L1  H     3    25       P1  7948  1.00
      L1  H    18    45       P1  7948  0.86
      P1  H  7997  8010       L1    11  0.75
      L1  C    23    49       P1 10186  0.81

> <Gold.PLP.Chemscore.Internal.Correction>
0.4251

> <Gold.Rescore>
     Score         DG    S(hbond)    S(metal)    S(lipo)     H(rot)  DE(clash)    DE(int)     intcor
     19.73     -22.82       2.73        0.00     109.45       1.79       0.49       2.60       ----

> <Gold.Chemscore.Fitness>
19.7330

> <Gold.Chemscore.DG>
-22.8179

> <Gold.Chemscore.ZeroCoef>
-5.4800

> <Gold.Chemscore.Hbond>
2.7285

> <Gold.Chemscore.Metal>
0.0000

> <Gold.Chemscore.Lipo>
109.4488

> <Gold.Chemscore.Internal_Hbond>
0.0000

> <Gold.Chemscore.DEClash>
0.4887

> <Gold.Chemscore.DEInternal>
2.5962

> <Gold.Chemscore.Rot>
1.7894

> <Gold.Chemscore.Internal.Correction>
   9.000000E+99

> <Gold.Chemscore.Hbonds>
donor molecule, donor type, donor heavy atom, donor atom, acceptor molecule, acceptor atom, score
      L1  H     3    25       P1  7948  1.00
      L1  H    18    45       P1  7948  0.80
      P1  H  7997  8010       L1    11  0.70

> <Gold.Chemscore.Hbond.Weighted>
-9.1131

> <Gold.Chemscore.Metal.Weighted>
-0.0000

> <Gold.Chemscore.Lipo.Weighted>
-12.8055

> <Gold.Chemscore.Internal_Hbond.Weighted>
0.0000

> <Gold.Chemscore.DEClash.Weighted>
0.4887

> <Gold.Chemscore.DEInternal.Weighted>
2.5962

> <Gold.Chemscore.Rot.Weighted>
4.5807

> <Gold.Chemscore.Internal.Correction.Weighted>
   9.000000E+99

> <Gold.Protein.RotatedTorsions>
[ 6907 6896 6895 6894 ] final   67.67 input  -60.11 | X-H torsion
[ 7974 7965 7964 7962 ] final   37.46 input  175.53 | X-H torsion
[ 8008 7997 7996 7995 ] final   56.62 input   59.86 | X-H torsion
[ 10167 10162 10161 10158 ] final  152.06 input  -65.29 | X-H torsion
[ 10718 10713 10712 10709 ] final  -99.40 input   66.30 | X-H torsion
[ 10763 10752 10751 10750 ] final  164.89 input  -60.55 | X-H torsion
[ 11005 11000 10999 10996 ] final -160.67 input  -57.11 | X-H torsion

> <Gold.Protein.ActiveResidues>
 VAL166  LYS551  ARG553  GLY616  TRP617  ASP618  TYR619  PRO620  LYS621  CYS622 
 ASP623  PHE694  ASN695  SER759  ASP760  ASP761  ALA762  ILE779  LEU786  VAL792 
 PHE793  MET794  SER795  GLU796  ALA797  LYS798  CYS799  TRP800  GLU811  SER814 

> <Gold.Protein.RotatedAtoms>
  152.4568  134.5273  159.9800 H   0  0  0  0  0  0  0  0  0  0  0  0  # atno 6907 bound_to 6896
  151.5332  133.3439  159.2930 H   0  0  0  0  0  0  0  0  0  0  0  0  # atno 6908 bound_to 6896
  150.8515  134.7872  159.7075 H   0  0  0  0  0  0  0  0  0  0  0  0  # atno 6909 bound_to 6896
  146.1136  139.5892  142.9336 H   0  0  0  0  0  0  0  0  0  0  0  0  # atno 7974 bound_to 7965
  155.5204  140.3479  155.4406 H   0  0  0  0  0  0  0  0  0  0  0  0  # atno 8008 bound_to 7997
  156.0788  140.1381  156.9765 H   0  0  0  0  0  0  0  0  0  0  0  0  # atno 8009 bound_to 7997
  154.4568  140.0950  156.6756 H   0  0  0  0  0  0  0  0  0  0  0  0  # atno 8010 bound_to 7997
  139.4835  144.5389  151.7598 H   0  0  0  0  0  0  0  0  0  0  0  0  # atno 10167 bound_to 10162
  156.0133  130.5281  150.6664 H   0  0  0  0  0  0  0  0  0  0  0  0  # atno 10718 bound_to 10713
  154.3157  135.2756  155.2544 H   0  0  0  0  0  0  0  0  0  0  0  0  # atno 10763 bound_to 10752
  154.4919  135.5831  153.6469 H   0  0  0  0  0  0  0  0  0  0  0  0  # atno 10764 bound_to 10752
  152.9882  135.6137  154.3338 H   0  0  0  0  0  0  0  0  0  0  0  0  # atno 10765 bound_to 10752
  140.6290  134.4671  157.5228 H   0  0  0  0  0  0  0  0  0  0  0  0  # atno 11005 bound_to 11000
  145.5613  141.0404  143.2224 LP  0  0  0  0  0  0  0  0  0  0  0  0  # atno 17320 bound_to 7965
  144.7533  139.7138  143.7264 LP  0  0  0  0  0  0  0  0  0  0  0  0  # atno 17321 bound_to 7965
  140.4926  144.1288  150.5953 LP  0  0  0  0  0  0  0  0  0  0  0  0  # atno 17342 bound_to 10162
  140.4154  143.2637  151.9781 LP  0  0  0  0  0  0  0  0  0  0  0  0  # atno 17343 bound_to 10162
  157.4396  131.0859  151.0957 LP  0  0  0  0  0  0  0  0  0  0  0  0  # atno 17370 bound_to 10713
  157.1505  130.6182  149.5581 LP  0  0  0  0  0  0  0  0  0  0  0  0  # atno 17371 bound_to 10713
  139.9123  134.8318  156.1484 LP  0  0  0  0  0  0  0  0  0  0  0  0  # atno 17394 bound_to 11000
  141.0689  133.6806  156.2100 LP  0  0  0  0  0  0  0  0  0  0  0  0  # atno 17395 bound_to 11000

$$$$
