AV-unprocessed.smi:1047|AV-procd|sdf|4602|dock2
  -GOLD-   22720 3 93D 1   1.00000     0.00000
 Structure written by MMmdl.
 57 59  0  0  0  0  0  0  0  0  3 V2000
  147.7827  136.8038  155.5052 C   0  0  0  0  0  0  0  0  0  0  0  0
  147.0713  137.8166  154.5973 C   0  0  0  0  0  0  0  0  0  0  0  0
  147.9936  138.4350  153.6084 N   0  3  1  0  0  0  0  0  0  0  0  0
  147.3450  139.3732  152.6570 C   0  0  0  0  0  0  0  0  0  0  0  0
  147.0793  140.7434  153.3088 C   0  0  0  0  0  0  0  0  0  0  0  0
  148.2911  141.2635  153.8414 O   0  0  0  0  0  0  0  0  0  0  0  0
  148.8432  140.4301  154.8560 C   0  0  2  0  0  0  0  0  0  0  0  0
  150.0913  141.1275  155.4159 C   0  0  0  0  0  0  0  0  0  0  0  0
  150.4505  140.5888  156.7234 N   0  0  0  0  0  0  0  0  0  0  0  0
  151.2550  141.5035  157.5274 C   0  0  0  0  0  0  0  0  0  0  0  0
  150.6249  142.9058  157.5802 C   0  0  1  0  0  0  0  0  0  0  0  0
  149.5599  142.8875  158.5103 O   0  0  0  0  0  0  0  0  0  0  0  0
  151.6526  143.9725  158.0048 C   0  0  0  0  0  0  0  0  0  0  0  0
  151.8447  144.0326  159.4611 N   0  0  0  0  0  0  0  0  0  0  0  0
  151.3446  144.9203  160.3631 C   0  0  0  0  0  0  0  0  0  0  0  0
  151.8117  144.5658  161.5918 N   0  3  0  0  0  0  0  0  0  0  0  0
  152.6205  143.4338  161.4737 C   0  0  0  0  0  0  0  0  0  0  0  0
  153.3151  142.7094  162.4349 C   0  0  0  0  0  0  0  0  0  0  0  0
  154.0539  141.5901  161.9900 C   0  0  0  0  0  0  0  0  0  0  0  0
  154.8265  140.7776  163.0153 C   0  0  0  0  0  0  0  0  0  0  0  0
  154.0759  141.2287  160.6180 C   0  0  0  0  0  0  0  0  0  0  0  0
  154.8673  140.0188  160.1516 C   0  0  0  0  0  0  0  0  0  0  0  0
  153.3644  141.9803  159.6554 C   0  0  0  0  0  0  0  0  0  0  0  0
  152.6439  143.0829  160.1096 C   0  0  0  0  0  0  0  0  0  0  0  0
  149.1881  139.0651  154.2235 C   0  0  0  0  0  0  0  0  0  0  0  0
  147.1041  136.4389  156.2767 H   0  0  0  0  0  0  0  0  0  0  0  0
  148.6378  137.2577  156.0069 H   0  0  0  0  0  0  0  0  0  0  0  0
  148.1384  135.9352  154.9519 H   0  0  0  0  0  0  0  0  0  0  0  0
  146.2211  137.3501  154.0998 H   0  0  0  0  0  0  0  0  0  0  0  0
  146.6595  138.5982  155.2370 H   0  0  0  0  0  0  0  0  0  0  0  0
  148.0149  139.5082  151.8069 H   0  0  0  0  0  0  0  0  0  0  0  0
  146.4243  138.9547  152.2524 H   0  0  0  0  0  0  0  0  0  0  0  0
  146.6976  141.4417  152.5639 H   0  0  0  0  0  0  0  0  0  0  0  0
  146.3220  140.6755  154.0906 H   0  0  0  0  0  0  0  0  0  0  0  0
  148.1193  140.2919  155.6615 H   0  0  0  0  0  0  0  0  0  0  0  0
  150.9256  140.9855  154.7279 H   0  0  0  0  0  0  0  0  0  0  0  0
  149.9178  142.2027  155.4787 H   0  0  0  0  0  0  0  0  0  0  0  0
  149.6095  140.3350  157.2323 H   0  0  0  0  0  0  0  0  0  0  0  0
  151.4052  141.1095  158.5336 H   0  0  0  0  0  0  0  0  0  0  0  0
  152.2460  141.5817  157.0784 H   0  0  0  0  0  0  0  0  0  0  0  0
  150.2280  143.1746  156.6000 H   0  0  0  0  0  0  0  0  0  0  0  0
  149.4025  141.9928  158.7698 H   0  0  0  0  0  0  0  0  0  0  0  0
  152.6141  143.8174  157.5152 H   0  0  0  0  0  0  0  0  0  0  0  0
  151.3089  144.9591  157.6915 H   0  0  0  0  0  0  0  0  0  0  0  0
  150.6959  145.7559  160.1433 H   0  0  0  0  0  0  0  0  0  0  0  0
  153.2917  142.9892  163.4781 H   0  0  0  0  0  0  0  0  0  0  0  0
  155.8890  140.7618  162.7708 H   0  0  0  0  0  0  0  0  0  0  0  0
  154.4618  139.7504  163.0437 H   0  0  0  0  0  0  0  0  0  0  0  0
  154.7218  141.1962  164.0168 H   0  0  0  0  0  0  0  0  0  0  0  0
  154.7758  139.8727  159.0748 H   0  0  0  0  0  0  0  0  0  0  0  0
  154.5068  139.1141  160.6417 H   0  0  0  0  0  0  0  0  0  0  0  0
  155.9258  140.1405  160.3828 H   0  0  0  0  0  0  0  0  0  0  0  0
  153.3806  141.7012  158.6126 H   0  0  0  0  0  0  0  0  0  0  0  0
  149.6346  138.3954  154.9596 H   0  0  0  0  0  0  0  0  0  0  0  0
  149.9392  139.2048  153.4445 H   0  0  0  0  0  0  0  0  0  0  0  0
  148.3432  137.6631  153.0586 H   0  0  0  0  0  0  0  0  0  0  0  0
  151.5922  145.0614  162.4464 H   0  0  0  0  0  0  0  0  0  0  0  0
  1  2  1  0  0  0  0
  1 26  1  0  0  0  0
  1 27  1  0  0  0  0
  1 28  1  0  0  0  0
  2  3  1  0  0  0  0
  2 29  1  0  0  0  0
  2 30  1  0  0  0  0
  3 25  1  0  0  0  0
  3  4  1  0  0  0  0
  3 56  1  0  0  0  0
  4  5  1  0  0  0  0
  4 31  1  0  0  0  0
  4 32  1  0  0  0  0
  5  6  1  0  0  0  0
  5 33  1  0  0  0  0
  5 34  1  0  0  0  0
  6  7  1  0  0  0  0
  7  8  1  0  0  0  0
  7 25  1  0  0  0  0
  7 35  1  0  0  0  0
  8  9  1  0  0  0  0
  8 36  1  0  0  0  0
  8 37  1  0  0  0  0
  9 10  1  0  0  0  0
  9 38  1  0  0  0  0
 10 11  1  0  0  0  0
 10 39  1  0  0  0  0
 10 40  1  0  0  0  0
 11 12  1  0  0  0  0
 11 13  1  0  0  0  0
 11 41  1  0  0  0  0
 12 42  1  0  0  0  0
 13 14  1  0  0  0  0
 13 43  1  0  0  0  0
 13 44  1  0  0  0  0
 14 24  1  0  0  0  0
 14 15  1  0  0  0  0
 15 16  2  0  0  0  0
 15 45  1  0  0  0  0
 16 17  1  0  0  0  0
 16 57  1  0  0  0  0
 17 24  2  0  0  0  0
 17 18  1  0  0  0  0
 18 19  2  0  0  0  0
 18 46  1  0  0  0  0
 19 20  1  0  0  0  0
 19 21  1  0  0  0  0
 20 47  1  0  0  0  0
 20 48  1  0  0  0  0
 20 49  1  0  0  0  0
 21 22  1  0  0  0  0
 21 23  2  0  0  0  0
 22 50  1  0  0  0  0
 22 51  1  0  0  0  0
 22 52  1  0  0  0  0
 23 24  1  0  0  0  0
 23 53  1  0  0  0  0
 25 54  1  0  0  0  0
 25 55  1  0  0  0  0
M  CHG  1   3   1
M  CHG  1  16   1
M  END
> <s_m_source_file>
AV-unprocessed.smi

> <i_m_source_file_index>
1047

> <i_lp_mmshare_version>
43012

> <i_f3d_flags>
0

> <s_epik_input>
W0NIM11bQ0gyXU4xW0NIMl1bQ0gyXU9bQ0BIXShbQ0gyXTEpW0NIMl1bTkhdW0NIMl1bQ0BIXShbT0hdKVtDSDJdbihbY0hdbjIpYyhjMjMpW2NIXWMoW0NIM10pYyhbY0hdMylbQ0gzXQ==

> <s_epik_cmdline>
J2VwaWtfcHl0aG9uJywgJy1waCcsICc3LjAnLCAnLXRuJywgJzgnLCAnLW1hJywgJzIwMCcsICctbWV0YWxfYmluZGluZycsICctaW1hZScsICc8aW5maWxlLm1hZT4nLCAnLW9tYWUnLCAnPG91dGZpbGUubWFlPic=

> <r_epik_Ionization_Penalty>
2.03028

> <r_epik_Ionization_Penalty_Charging>
1.21256

> <r_epik_Ionization_Penalty_Neutral>
0.817715

> <r_epik_State_Penalty>
2.54959

> <r_epik_Charging_Adjusted_Penalty>
3.76215

> <i_epik_Tot_Q>
2

> <i_epik_Tot_abs_Q>
2

> <r_epik_Metal_State_Penalty>
6.52811

> <b_epik_Metal_Only>
0

> <s_lp_Force_Field>
OPLS_2005

> <r_lp_Energy>
36.7228

> <b_lp_Chiralities_Consistent>
1

> <s_lp_Variant>
AV-unprocessed.smi:1047-43

> <Gold.Version>
5.8.1

> <Gold.Id.Protein>
6NUR|6NUR_protein|mol2

> <Gold.PLP.Fitness>
60.8022

> <Gold.PLP.PLP>
-55.7017

> <Gold.PLP.part.hbond>
-3.6251

> <Gold.PLP.part.metal>
0.0000

> <Gold.PLP.part.buried>
0.3794

> <Gold.PLP.part.nonpolar>
-52.3524

> <Gold.PLP.part.repulsive>
0.2543

> <Gold.PLP.ligand.clash>
0.0000

> <Gold.PLP.ligand.torsion>
0.9676

> <Gold.PLP.Chemscore.Hbond>
2.2925

> <Gold.PLP.Chemscore.CHOScore>
0.0000

> <Gold.PLP.Chemscore.Metal>
0.0000

> <Gold.Chemscore.Hbonds>
donor molecule, donor type, donor heavy atom, donor atom, acceptor molecule, acceptor atom, score
      L1  H     3    56       P1  7948  2.00
      P1  H  8011  8017       L1     6  0.02

> <Gold.PLP.Chemscore.Internal.Correction>
0.1582

> <Gold.Rescore>
     Score         DG    S(hbond)    S(metal)    S(lipo)     H(rot)  DE(clash)    DE(int)     intcor
     16.56     -20.23       1.35        0.00     146.84       2.71       1.76       1.92       ----

> <Gold.Chemscore.Fitness>
16.5618

> <Gold.Chemscore.DG>
-20.2325

> <Gold.Chemscore.ZeroCoef>
-5.4800

> <Gold.Chemscore.Hbond>
1.3494

> <Gold.Chemscore.Metal>
0.0000

> <Gold.Chemscore.Lipo>
146.8394

> <Gold.Chemscore.Internal_Hbond>
0.0000

> <Gold.Chemscore.DEClash>
1.7556

> <Gold.Chemscore.DEInternal>
1.9151

> <Gold.Chemscore.Rot>
2.7088

> <Gold.Chemscore.Internal.Correction>
   9.000000E+99

> <Gold.Chemscore.Hbonds>
donor molecule, donor type, donor heavy atom, donor atom, acceptor molecule, acceptor atom, score
      L1  H     3    56       P1  7948  0.99
      P1  H  8011  8017       L1     6  0.06

> <Gold.Chemscore.Hbond.Weighted>
-4.5069

> <Gold.Chemscore.Metal.Weighted>
-0.0000

> <Gold.Chemscore.Lipo.Weighted>
-17.1802

> <Gold.Chemscore.Internal_Hbond.Weighted>
0.0000

> <Gold.Chemscore.DEClash.Weighted>
1.7556

> <Gold.Chemscore.DEInternal.Weighted>
1.9151

> <Gold.Chemscore.Rot.Weighted>
6.9346

> <Gold.Chemscore.Internal.Correction.Weighted>
   9.000000E+99

> <Gold.Protein.RotatedTorsions>
[ 6907 6896 6895 6894 ] final   23.95 input  -60.11 | X-H torsion
[ 7974 7965 7964 7962 ] final -166.95 input  175.53 | X-H torsion
[ 8008 7997 7996 7995 ] final  -30.15 input   59.86 | X-H torsion
[ 10167 10162 10161 10158 ] final  -84.57 input  -65.29 | X-H torsion
[ 10718 10713 10712 10709 ] final  -17.93 input   66.30 | X-H torsion
[ 10763 10752 10751 10750 ] final   91.18 input  -60.55 | X-H torsion
[ 11005 11000 10999 10996 ] final  -97.00 input  -57.11 | X-H torsion

> <Gold.Protein.ActiveResidues>
 VAL166  LYS551  ARG553  GLY616  TRP617  ASP618  TYR619  PRO620  LYS621  CYS622 
 ASP623  PHE694  ASN695  SER759  ASP760  ASP761  ALA762  ILE779  LEU786  VAL792 
 PHE793  MET794  SER795  GLU796  ALA797  LYS798  CYS799  TRP800  GLU811  SER814 

> <Gold.Protein.RotatedAtoms>
  151.9501  135.0173  160.0541 H   0  0  0  0  0  0  0  0  0  0  0  0  # atno 6907 bound_to 6896
  152.1961  133.4803  159.5042 H   0  0  0  0  0  0  0  0  0  0  0  0  # atno 6908 bound_to 6896
  150.6945  134.1568  159.4204 H   0  0  0  0  0  0  0  0  0  0  0  0  # atno 6909 bound_to 6896
  144.7234  140.2591  143.6267 H   0  0  0  0  0  0  0  0  0  0  0  0  # atno 7974 bound_to 7965
  154.4261  140.1799  156.1361 H   0  0  0  0  0  0  0  0  0  0  0  0  # atno 8008 bound_to 7997
  156.0029  140.3358  155.6838 H   0  0  0  0  0  0  0  0  0  0  0  0  # atno 8009 bound_to 7997
  155.6218  140.0660  157.2666 H   0  0  0  0  0  0  0  0  0  0  0  0  # atno 8010 bound_to 7997
  140.4120  143.2619  151.9005 H   0  0  0  0  0  0  0  0  0  0  0  0  # atno 10167 bound_to 10162
  156.5667  130.4739  149.6381 H   0  0  0  0  0  0  0  0  0  0  0  0  # atno 10718 bound_to 10713
  153.2055  135.4407  155.0318 H   0  0  0  0  0  0  0  0  0  0  0  0  # atno 10763 bound_to 10752
  154.8171  135.3320  154.7147 H   0  0  0  0  0  0  0  0  0  0  0  0  # atno 10764 bound_to 10752
  153.7589  135.6993  153.4985 H   0  0  0  0  0  0  0  0  0  0  0  0  # atno 10765 bound_to 10752
  141.1393  133.8138  157.0647 H   0  0  0  0  0  0  0  0  0  0  0  0  # atno 11005 bound_to 11000
  145.8153  139.2020  143.1969 LP  0  0  0  0  0  0  0  0  0  0  0  0  # atno 17320 bound_to 7965
  146.0561  140.8019  142.9758 LP  0  0  0  0  0  0  0  0  0  0  0  0  # atno 17321 bound_to 7965
  139.4782  144.5527  151.8361 LP  0  0  0  0  0  0  0  0  0  0  0  0  # atno 17342 bound_to 10162
  140.4628  144.1698  150.5908 LP  0  0  0  0  0  0  0  0  0  0  0  0  # atno 17343 bound_to 10162
  156.2751  130.7039  151.1847 LP  0  0  0  0  0  0  0  0  0  0  0  0  # atno 17370 bound_to 10713
  157.7357  131.0570  150.5455 LP  0  0  0  0  0  0  0  0  0  0  0  0  # atno 17371 bound_to 10713
  140.0549  134.9786  157.1203 LP  0  0  0  0  0  0  0  0  0  0  0  0  # atno 17394 bound_to 11000
  140.3934  134.2160  155.7165 LP  0  0  0  0  0  0  0  0  0  0  0  0  # atno 17395 bound_to 11000

$$$$
