AV-unprocessed.smi:37|AV-procd|sdf|320|dock5
  -GOLD-   2262016143D 1   1.00000     0.00000
 Structure written by MMmdl.
 43 44  0  0  0  0  0  0  0  0  2 V2000
  156.8347  137.7341  153.8797 C   0  0  0  0  0  0  0  0  0  0  0  0
  156.8378  137.5134  155.3997 C   0  0  0  0  0  0  0  0  0  0  0  0
  155.4791  137.7620  156.0580 C   0  0  0  0  0  0  0  0  0  0  0  0
  155.3057  137.6708  157.2747 O   0  0  0  0  0  0  0  0  0  0  0  0
  154.5409  138.0794  155.1565 O   0  0  0  0  0  0  0  0  0  0  0  0
  153.3647  138.7594  155.5639 C   0  0  0  0  0  0  0  0  0  0  0  0
  152.1422  138.2585  154.7750 C   0  0  1  0  0  0  0  0  0  0  0  0
  151.9135  136.8781  155.0477 O   0  0  0  0  0  0  0  0  0  0  0  0
  150.5570  136.6408  154.8423 C   0  0  1  0  0  0  0  0  0  0  0  0
  150.1807  135.2626  155.3607 N   0  0  0  0  0  0  0  0  0  0  0  0
  149.4702  134.3638  154.5796 C   0  0  0  0  0  0  0  0  0  0  0  0
  149.1770  133.1232  155.0195 C   0  0  0  0  0  0  0  0  0  0  0  0
  148.4825  132.2814  154.2347 F   0  0  0  0  0  0  0  0  0  0  0  0
  149.6340  132.6986  156.3397 C   0  0  0  0  0  0  0  0  0  0  0  0
  149.3339  131.5792  156.7521 O   0  0  0  0  0  0  0  0  0  0  0  0
  150.3929  133.5734  157.0598 N   0  5  0  0  0  0  0  0  0  0  0  0
  150.7101  134.8224  156.6079 C   0  0  0  0  0  0  0  0  0  0  0  0
  151.4501  135.5850  157.2292 O   0  0  0  0  0  0  0  0  0  0  0  0
  149.9112  137.8315  155.5658 C   0  0  1  0  0  0  0  0  0  0  0  0
  150.1234  137.7070  157.5563 Br  0  0  0  0  0  0  0  0  0  0  0  0
  150.7897  138.9614  155.0295 C   0  0  1  0  0  0  0  0  0  0  0  0
  150.8666  140.0858  155.9006 O   0  0  0  0  0  0  0  0  0  0  0  0
  150.4835  141.3026  155.4776 C   0  0  0  0  0  0  0  0  0  0  0  0
  149.9332  141.5489  154.4029 O   0  0  0  0  0  0  0  0  0  0  0  0
  150.8022  142.3897  156.5056 C   0  0  0  0  0  0  0  0  0  0  0  0
  151.4557  141.8511  157.7873 C   0  0  0  0  0  0  0  0  0  0  0  0
  157.8208  137.5328  153.4613 H   0  0  0  0  0  0  0  0  0  0  0  0
  156.5733  138.7623  153.6270 H   0  0  0  0  0  0  0  0  0  0  0  0
  156.1248  137.0714  153.3830 H   0  0  0  0  0  0  0  0  0  0  0  0
  157.1453  136.4909  155.6208 H   0  0  0  0  0  0  0  0  0  0  0  0
  157.5731  138.1698  155.8657 H   0  0  0  0  0  0  0  0  0  0  0  0
  153.1977  138.6080  156.6314 H   0  0  0  0  0  0  0  0  0  0  0  0
  153.4961  139.8304  155.4060 H   0  0  0  0  0  0  0  0  0  0  0  0
  152.3696  138.3464  153.7118 H   0  0  0  0  0  0  0  0  0  0  0  0
  150.3231  136.6109  153.7759 H   0  0  0  0  0  0  0  0  0  0  0  0
  149.1453  134.6383  153.5885 H   0  0  0  0  0  0  0  0  0  0  0  0
  148.8552  137.9420  155.3189 H   0  0  0  0  0  0  0  0  0  0  0  0
  150.4050  139.2763  154.0577 H   0  0  0  0  0  0  0  0  0  0  0  0
  151.4604  143.1227  156.0382 H   0  0  0  0  0  0  0  0  0  0  0  0
  149.8776  142.9102  156.7555 H   0  0  0  0  0  0  0  0  0  0  0  0
  151.6759  142.6653  158.4776 H   0  0  0  0  0  0  0  0  0  0  0  0
  152.3952  141.3406  157.5710 H   0  0  0  0  0  0  0  0  0  0  0  0
  150.7996  141.1497  158.3040 H   0  0  0  0  0  0  0  0  0  0  0  0
  1  2  1  0  0  0  0
  1 27  1  0  0  0  0
  1 28  1  0  0  0  0
  1 29  1  0  0  0  0
  2  3  1  0  0  0  0
  2 30  1  0  0  0  0
  2 31  1  0  0  0  0
  3  4  2  0  0  0  0
  3  5  1  0  0  0  0
  5  6  1  0  0  0  0
  6  7  1  0  0  0  0
  6 32  1  0  0  0  0
  6 33  1  0  0  0  0
  7 21  1  0  0  0  0
  7  8  1  0  0  0  0
  7 34  1  0  0  0  0
  8  9  1  0  0  0  0
  9 10  1  0  0  0  0
  9 19  1  0  0  0  0
  9 35  1  0  0  0  0
 10 17  1  0  0  0  0
 10 11  1  0  0  0  0
 11 12  2  0  0  0  0
 11 36  1  0  0  0  0
 12 13  1  0  0  0  0
 12 14  1  0  0  0  0
 14 15  2  0  0  0  0
 14 16  1  0  0  0  0
 16 17  1  0  0  0  0
 17 18  2  0  0  0  0
 19 20  1  0  0  0  0
 19 21  1  0  0  0  0
 19 37  1  0  0  0  0
 21 22  1  0  0  0  0
 21 38  1  0  0  0  0
 22 23  1  0  0  0  0
 23 24  2  0  0  0  0
 23 25  1  0  0  0  0
 25 26  1  0  0  0  0
 25 39  1  0  0  0  0
 25 40  1  0  0  0  0
 26 41  1  0  0  0  0
 26 42  1  0  0  0  0
 26 43  1  0  0  0  0
M  CHG  1  16  -1
M  END
> <s_m_source_file>
AV-unprocessed.smi

> <i_m_source_file_index>
37

> <i_lp_mmshare_version>
43012

> <i_f3d_flags>
0

> <s_epik_input>
W0NIM11bQ0gyXUMoPU8pT1tDSDJdW0NAQEhdMU9bQ0BASF0objJbY0hdYyhGKWMoPU8pW25IXWMyPU8pW0NAQEhdKEJyKVtDQEhdMU9DKD1PKVtDSDJdW0NIM10=

> <s_epik_cmdline>
J2VwaWtfcHl0aG9uJywgJy1waCcsICc3LjAnLCAnLXRuJywgJzgnLCAnLW1hJywgJzIwMCcsICctbWV0YWxfYmluZGluZycsICctaW1hZScsICc8aW5maWxlLm1hZT4nLCAnLW9tYWUnLCAnPG91dGZpbGUubWFlPic=

> <r_epik_Ionization_Penalty>
1.08158

> <r_epik_Ionization_Penalty_Charging>
9.05154e-09

> <r_epik_Ionization_Penalty_Neutral>
1.08158

> <r_epik_State_Penalty>
1.13706

> <r_epik_Charging_Adjusted_Penalty>
1.13706

> <i_epik_Tot_Q>
-1

> <i_epik_Tot_abs_Q>
1

> <r_epik_Metal_State_Penalty>
0.00343535

> <b_epik_Metal_Only>
0

> <s_epik_Chemistry_Notes>
This compound has an ester and may undergo hydrolysis at high or low pH. This compound contains an acetal/aminal-like group ( X-CH(R)-Y where X, Y are N, S, or O) that may be acid/base labile, releasing an aldehyde.

> <s_lp_Force_Field>
OPLS_2005

> <r_lp_Energy>
41.8028

> <b_lp_Chiralities_Consistent>
1

> <s_lp_Variant>
AV-unprocessed.smi:37-18

> <Gold.Version>
5.8.1

> <Gold.Id.Protein>
6NUR|6NUR_protein|mol2

> <Gold.PLP.Fitness>
43.5578

> <Gold.PLP.PLP>
-35.3898

> <Gold.PLP.part.hbond>
-7.7785

> <Gold.PLP.part.metal>
0.0000

> <Gold.PLP.part.buried>
2.8304

> <Gold.PLP.part.nonpolar>
-31.7842

> <Gold.PLP.part.repulsive>
0.2711

> <Gold.PLP.ligand.clash>
0.0000

> <Gold.PLP.ligand.torsion>
1.6133

> <Gold.PLP.Chemscore.Hbond>
2.9024

> <Gold.PLP.Chemscore.CHOScore>
0.8243

> <Gold.PLP.Chemscore.Metal>
0.0000

> <Gold.Chemscore.Hbonds>
donor molecule, donor type, donor heavy atom, donor atom, acceptor molecule, acceptor atom, score
      P1  H  6896  6908       L1    16  0.89
      P1  H  7989  7998       L1    24  0.12
      P1  H  7997  8010       L1     4  0.03
      P1  H  8011  8017       L1    24  0.23
      P1  H 10752 10763       L1     8  0.98
      L1  C    11    36       P1  7948  0.78

> <Gold.PLP.Chemscore.Internal.Correction>
0.2145

> <Gold.Rescore>
     Score         DG    S(hbond)    S(metal)    S(lipo)     H(rot)  DE(clash)    DE(int)     intcor
      3.08     -10.76       1.51        0.00      73.43       3.27       2.50       5.18       ----

> <Gold.Chemscore.Fitness>
3.0818

> <Gold.Chemscore.DG>
-10.7644

> <Gold.Chemscore.ZeroCoef>
-5.4800

> <Gold.Chemscore.Hbond>
1.5140

> <Gold.Chemscore.Metal>
0.0000

> <Gold.Chemscore.Lipo>
73.4265

> <Gold.Chemscore.Internal_Hbond>
0.0000

> <Gold.Chemscore.DEClash>
2.4976

> <Gold.Chemscore.DEInternal>
5.1850

> <Gold.Chemscore.Rot>
3.2669

> <Gold.Chemscore.Internal.Correction>
   9.000000E+99

> <Gold.Chemscore.Hbonds>
donor molecule, donor type, donor heavy atom, donor atom, acceptor molecule, acceptor atom, score
      P1  H  6896  6908       L1    16  0.22
      P1  H  8011  8017       L1    24  0.24
      P1  H 10752 10763       L1     8  0.88

> <Gold.Chemscore.Hbond.Weighted>
-5.0569

> <Gold.Chemscore.Metal.Weighted>
-0.0000

> <Gold.Chemscore.Lipo.Weighted>
-8.5909

> <Gold.Chemscore.Internal_Hbond.Weighted>
0.0000

> <Gold.Chemscore.DEClash.Weighted>
2.4976

> <Gold.Chemscore.DEInternal.Weighted>
5.1850

> <Gold.Chemscore.Rot.Weighted>
8.3634

> <Gold.Chemscore.Internal.Correction.Weighted>
   9.000000E+99

> <Gold.Protein.RotatedTorsions>
[ 6907 6896 6895 6894 ] final  101.92 input  -60.11 | X-H torsion
[ 7974 7965 7964 7962 ] final  -37.28 input  175.53 | X-H torsion
[ 8008 7997 7996 7995 ] final   10.47 input   59.86 | X-H torsion
[ 10167 10162 10161 10158 ] final   66.35 input  -65.29 | X-H torsion
[ 10718 10713 10712 10709 ] final -113.47 input   66.30 | X-H torsion
[ 10763 10752 10751 10750 ] final   72.63 input  -60.55 | X-H torsion
[ 11005 11000 10999 10996 ] final  -65.55 input  -57.11 | X-H torsion

> <Gold.Protein.ActiveResidues>
 VAL166  LYS551  ARG553  GLY616  TRP617  ASP618  TYR619  PRO620  LYS621  CYS622 
 ASP623  PHE694  ASN695  SER759  ASP760  ASP761  ALA762  ILE779  LEU786  VAL792 
 PHE793  MET794  SER795  GLU796  ALA797  LYS798  CYS799  TRP800  GLU811  SER814 

> <Gold.Protein.RotatedAtoms>
  152.5337  134.0053  159.7913 H   0  0  0  0  0  0  0  0  0  0  0  0  # atno 6907 bound_to 6896
  151.0265  133.5821  159.2672 H   0  0  0  0  0  0  0  0  0  0  0  0  # atno 6908 bound_to 6896
  151.2841  135.0730  159.9234 H   0  0  0  0  0  0  0  0  0  0  0  0  # atno 6909 bound_to 6896
  146.0588  140.6378  142.9007 H   0  0  0  0  0  0  0  0  0  0  0  0  # atno 7974 bound_to 7965
  154.7938  140.2840  155.5971 H   0  0  0  0  0  0  0  0  0  0  0  0  # atno 8008 bound_to 7997
  156.2968  140.2599  156.2720 H   0  0  0  0  0  0  0  0  0  0  0  0  # atno 8009 bound_to 7997
  154.9638  140.0377  157.2192 H   0  0  0  0  0  0  0  0  0  0  0  0  # atno 8010 bound_to 7997
  140.1014  144.4901  150.7035 H   0  0  0  0  0  0  0  0  0  0  0  0  # atno 10167 bound_to 10162
  156.0769  130.5975  150.8647 H   0  0  0  0  0  0  0  0  0  0  0  0  # atno 10718 bound_to 10713
  153.0470  135.5093  154.7772 H   0  0  0  0  0  0  0  0  0  0  0  0  # atno 10763 bound_to 10752
  154.6664  135.2946  154.9802 H   0  0  0  0  0  0  0  0  0  0  0  0  # atno 10764 bound_to 10752
  154.0635  135.6687  153.4867 H   0  0  0  0  0  0  0  0  0  0  0  0  # atno 10765 bound_to 10752
  141.1457  133.6683  156.6004 H   0  0  0  0  0  0  0  0  0  0  0  0  # atno 11005 bound_to 11000
  144.7163  140.4221  143.7042 LP  0  0  0  0  0  0  0  0  0  0  0  0  # atno 17320 bound_to 7965
  145.6596  139.1579  143.2816 LP  0  0  0  0  0  0  0  0  0  0  0  0  # atno 17321 bound_to 7965
  140.6976  143.2413  151.4957 LP  0  0  0  0  0  0  0  0  0  0  0  0  # atno 17342 bound_to 10162
  139.5669  144.2020  152.1779 LP  0  0  0  0  0  0  0  0  0  0  0  0  # atno 17343 bound_to 10162
  157.5868  131.0945  150.9183 LP  0  0  0  0  0  0  0  0  0  0  0  0  # atno 17370 bound_to 10713
  156.9367  130.5369  149.5279 LP  0  0  0  0  0  0  0  0  0  0  0  0  # atno 17371 bound_to 10713
  140.3693  134.7619  157.4588 LP  0  0  0  0  0  0  0  0  0  0  0  0  # atno 17394 bound_to 11000
  140.0723  134.5845  155.8628 LP  0  0  0  0  0  0  0  0  0  0  0  0  # atno 17395 bound_to 11000

$$$$
