AV-unprocessed.smi:309|AV-procd|sdf|2293|dock1
  -GOLD-   2262022193D 1   1.00000     0.00000
 Structure written by MMmdl.
 37 39  0  0  0  0  0  0  0  0  2 V2000
  151.2992  136.5823  154.1048 O   0  0  0  0  0  0  0  0  0  0  0  0
  151.5509  137.8868  154.5767 C   0  0  0  0  0  0  0  0  0  0  0  0
  150.3762  138.7918  154.3953 C   0  0  0  0  0  0  0  0  0  0  0  0
  149.3003  138.5271  153.6025 N   0  3  0  0  0  0  0  0  0  0  0  0
  148.3918  139.5824  153.6671 C   0  0  0  0  0  0  0  0  0  0  0  0
  147.1615  139.7616  153.0424 C   0  0  0  0  0  0  0  0  0  0  0  0
  146.4775  140.9620  153.3240 C   0  0  0  0  0  0  0  0  0  0  0  0
  147.0221  141.9293  154.1930 C   0  0  0  0  0  0  0  0  0  0  0  0
  148.2723  141.7375  154.8167 C   0  0  0  0  0  0  0  0  0  0  0  0
  148.9406  140.5438  154.5401 C   0  0  0  0  0  0  0  0  0  0  0  0
  150.1599  140.0085  154.9790 N   0  0  0  0  0  0  0  0  0  0  0  0
  150.9829  140.7726  155.9375 C   0  0  0  0  0  0  0  0  0  0  0  0
  150.7182  140.4138  157.4189 C   0  0  2  0  0  0  0  0  0  0  0  0
  149.3254  140.3855  157.6653 O   0  0  0  0  0  0  0  0  0  0  0  0
  151.4761  141.3216  158.3877 C   0  0  0  0  0  0  0  0  0  0  0  0
  151.3078  142.7246  158.3168 C   0  0  0  0  0  0  0  0  0  0  0  0
  152.0253  143.5789  159.1743 C   0  0  0  0  0  0  0  0  0  0  0  0
  151.8232  145.2876  159.0538 Cl  0  0  0  0  0  0  0  0  0  0  0  0
  152.9133  143.0392  160.1220 C   0  0  0  0  0  0  0  0  0  0  0  0
  153.0880  141.6456  160.2033 C   0  0  0  0  0  0  0  0  0  0  0  0
  152.3800  140.7859  159.3398 C   0  0  0  0  0  0  0  0  0  0  0  0
  152.6634  139.0848  159.4599 Cl  0  0  0  0  0  0  0  0  0  0  0  0
  151.0939  136.6353  153.1833 H   0  0  0  0  0  0  0  0  0  0  0  0
  151.8352  137.8381  155.6272 H   0  0  0  0  0  0  0  0  0  0  0  0
  152.4030  138.2980  154.0352 H   0  0  0  0  0  0  0  0  0  0  0  0
  146.7432  139.0219  152.3755 H   0  0  0  0  0  0  0  0  0  0  0  0
  145.5171  141.1445  152.8642 H   0  0  0  0  0  0  0  0  0  0  0  0
  146.4697  142.8375  154.3858 H   0  0  0  0  0  0  0  0  0  0  0  0
  148.6736  142.4868  155.4821 H   0  0  0  0  0  0  0  0  0  0  0  0
  152.0275  140.5804  155.6934 H   0  0  0  0  0  0  0  0  0  0  0  0
  150.8391  141.8390  155.7634 H   0  0  0  0  0  0  0  0  0  0  0  0
  151.0477  139.3881  157.5823 H   0  0  0  0  0  0  0  0  0  0  0  0
  148.9252  139.7900  157.0496 H   0  0  0  0  0  0  0  0  0  0  0  0
  150.6398  143.1578  157.5866 H   0  0  0  0  0  0  0  0  0  0  0  0
  153.4650  143.6918  160.7827 H   0  0  0  0  0  0  0  0  0  0  0  0
  153.7760  141.2350  160.9280 H   0  0  0  0  0  0  0  0  0  0  0  0
  149.1978  137.6794  153.0593 H   0  0  0  0  0  0  0  0  0  0  0  0
  1  2  1  0  0  0  0
  1 23  1  0  0  0  0
  2  3  1  0  0  0  0
  2 24  1  0  0  0  0
  2 25  1  0  0  0  0
  3 11  1  0  0  0  0
  3  4  2  0  0  0  0
  4  5  1  0  0  0  0
  4 37  1  0  0  0  0
  5 10  2  0  0  0  0
  5  6  1  0  0  0  0
  6  7  2  0  0  0  0
  6 26  1  0  0  0  0
  7  8  1  0  0  0  0
  7 27  1  0  0  0  0
  8  9  2  0  0  0  0
  8 28  1  0  0  0  0
  9 10  1  0  0  0  0
  9 29  1  0  0  0  0
 10 11  1  0  0  0  0
 11 12  1  0  0  0  0
 12 13  1  0  0  0  0
 12 30  1  0  0  0  0
 12 31  1  0  0  0  0
 13 14  1  0  0  0  0
 13 15  1  0  0  0  0
 13 32  1  0  0  0  0
 14 33  1  0  0  0  0
 15 21  1  0  0  0  0
 15 16  2  0  0  0  0
 16 17  1  0  0  0  0
 16 34  1  0  0  0  0
 17 18  1  0  0  0  0
 17 19  2  0  0  0  0
 19 20  1  0  0  0  0
 19 35  1  0  0  0  0
 20 21  2  0  0  0  0
 20 36  1  0  0  0  0
 21 22  1  0  0  0  0
M  CHG  1   4   1
M  END
> <s_m_source_file>
AV-unprocessed.smi

> <i_m_source_file_index>
309

> <i_lp_mmshare_version>
43012

> <i_f3d_flags>
0

> <s_epik_input>
W2NIXTFbY0hdW2NIXVtjSF1jKGMxMiluKGMobjIpW0NIMl1bT0hdKVtDSDJdW0NASF0oW09IXSljM1tjSF1jKENsKVtjSF1bY0hdYzNDbA==

> <s_epik_cmdline>
J2VwaWtfcHl0aG9uJywgJy1waCcsICc3LjAnLCAnLXRuJywgJzgnLCAnLW1hJywgJzIwMCcsICctbWV0YWxfYmluZGluZycsICctaW1hZScsICc8aW5maWxlLm1hZT4nLCAnLW9tYWUnLCAnPG91dGZpbGUubWFlPic=

> <r_epik_Ionization_Penalty>
1.35643

> <r_epik_Ionization_Penalty_Charging>
1.35557

> <r_epik_Ionization_Penalty_Neutral>
0.000861512

> <r_epik_State_Penalty>
1.43401

> <r_epik_Charging_Adjusted_Penalty>
2.78958

> <i_epik_Tot_Q>
1

> <i_epik_Tot_abs_Q>
1

> <r_epik_Metal_State_Penalty>
5.47166

> <b_epik_Metal_Only>
0

> <s_lp_Force_Field>
OPLS_2005

> <r_lp_Energy>
13.7118

> <b_lp_Chiralities_Consistent>
1

> <s_lp_Variant>
AV-unprocessed.smi:309-3

> <Gold.Version>
5.8.1

> <Gold.Id.Protein>
6NUR|6NUR_protein|mol2

> <Gold.PLP.Fitness>
64.5464

> <Gold.PLP.PLP>
-53.7323

> <Gold.PLP.part.hbond>
-4.4166

> <Gold.PLP.part.metal>
0.0000

> <Gold.PLP.part.buried>
0.7011

> <Gold.PLP.part.nonpolar>
-50.8865

> <Gold.PLP.part.repulsive>
0.0680

> <Gold.PLP.ligand.clash>
0.0000

> <Gold.PLP.ligand.torsion>
0.6809

> <Gold.PLP.Chemscore.Hbond>
4.0000

> <Gold.PLP.Chemscore.CHOScore>
0.0000

> <Gold.PLP.Chemscore.Metal>
0.0000

> <Gold.Chemscore.Hbonds>
donor molecule, donor type, donor heavy atom, donor atom, acceptor molecule, acceptor atom, score
      L1  H     1    23       P1  7949  1.00
      L1  H     4    37       P1  7948  2.00
      P1  H 10752 10764       L1     1  1.00

> <Gold.PLP.Chemscore.Internal.Correction>
0.1758

> <Gold.Rescore>
     Score         DG    S(hbond)    S(metal)    S(lipo)     H(rot)  DE(clash)    DE(int)     intcor
     21.25     -23.15       2.57        0.00     136.66       2.70       1.36       0.55       ----

> <Gold.Chemscore.Fitness>
21.2489

> <Gold.Chemscore.DG>
-23.1523

> <Gold.Chemscore.ZeroCoef>
-5.4800

> <Gold.Chemscore.Hbond>
2.5705

> <Gold.Chemscore.Metal>
0.0000

> <Gold.Chemscore.Lipo>
136.6607

> <Gold.Chemscore.Internal_Hbond>
0.0000

> <Gold.Chemscore.DEClash>
1.3559

> <Gold.Chemscore.DEInternal>
0.5476

> <Gold.Chemscore.Rot>
2.6963

> <Gold.Chemscore.Internal.Correction>
   9.000000E+99

> <Gold.Chemscore.Hbonds>
donor molecule, donor type, donor heavy atom, donor atom, acceptor molecule, acceptor atom, score
      L1  H     1    23       P1  7949  0.38
      L1  H     4    37       P1  7948  0.99
      P1  H 10752 10764       L1     1  0.36

> <Gold.Chemscore.Hbond.Weighted>
-8.5855

> <Gold.Chemscore.Metal.Weighted>
-0.0000

> <Gold.Chemscore.Lipo.Weighted>
-15.9893

> <Gold.Chemscore.Internal_Hbond.Weighted>
0.0000

> <Gold.Chemscore.DEClash.Weighted>
1.3559

> <Gold.Chemscore.DEInternal.Weighted>
0.5476

> <Gold.Chemscore.Rot.Weighted>
6.9024

> <Gold.Chemscore.Internal.Correction.Weighted>
   9.000000E+99

> <Gold.Protein.RotatedTorsions>
[ 6907 6896 6895 6894 ] final    2.82 input  -60.11 | X-H torsion
[ 7974 7965 7964 7962 ] final   21.27 input  175.53 | X-H torsion
[ 8008 7997 7996 7995 ] final   24.21 input   59.86 | X-H torsion
[ 10167 10162 10161 10158 ] final  -18.60 input  -65.29 | X-H torsion
[ 10718 10713 10712 10709 ] final  -39.91 input   66.30 | X-H torsion
[ 10763 10752 10751 10750 ] final  -78.03 input  -60.55 | X-H torsion
[ 11005 11000 10999 10996 ] final -147.66 input  -57.11 | X-H torsion

> <Gold.Protein.ActiveResidues>
 VAL166  LYS551  ARG553  GLY616  TRP617  ASP618  TYR619  PRO620  LYS621  CYS622 
 ASP623  PHE694  ASN695  SER759  ASP760  ASP761  ALA762  ILE779  LEU786  VAL792 
 PHE793  MET794  SER795  GLU796  ALA797  LYS798  CYS799  TRP800  GLU811  SER814 

> <Gold.Protein.RotatedAtoms>
  151.6151  135.1037  160.0089 H   0  0  0  0  0  0  0  0  0  0  0  0  # atno 6907 bound_to 6896
  152.4187  133.7077  159.6471 H   0  0  0  0  0  0  0  0  0  0  0  0  # atno 6908 bound_to 6896
  150.8075  133.8409  159.3220 H   0  0  0  0  0  0  0  0  0  0  0  0  # atno 6909 bound_to 6896
  146.2078  139.8051  142.8712 H   0  0  0  0  0  0  0  0  0  0  0  0  # atno 7974 bound_to 7965
  154.9927  140.3115  155.4899 H   0  0  0  0  0  0  0  0  0  0  0  0  # atno 8008 bound_to 7997
  156.2937  140.2246  156.4973 H   0  0  0  0  0  0  0  0  0  0  0  0  # atno 8009 bound_to 7997
  154.7689  140.0454  157.1023 H   0  0  0  0  0  0  0  0  0  0  0  0  # atno 8010 bound_to 7997
  140.7260  143.4900  151.0004 H   0  0  0  0  0  0  0  0  0  0  0  0  # atno 10167 bound_to 10162
  156.2872  130.4224  149.8276 H   0  0  0  0  0  0  0  0  0  0  0  0  # atno 10718 bound_to 10713
  154.5207  135.5743  153.6678 H   0  0  0  0  0  0  0  0  0  0  0  0  # atno 10763 bound_to 10752
  152.9916  135.6181  154.2758 H   0  0  0  0  0  0  0  0  0  0  0  0  # atno 10764 bound_to 10752
  154.2679  135.2854  155.2730 H   0  0  0  0  0  0  0  0  0  0  0  0  # atno 10765 bound_to 10752
  140.7693  134.3207  157.5079 H   0  0  0  0  0  0  0  0  0  0  0  0  # atno 11005 bound_to 11000
  145.3255  141.0254  143.3476 LP  0  0  0  0  0  0  0  0  0  0  0  0  # atno 17320 bound_to 7965
  144.8836  139.4870  143.6711 LP  0  0  0  0  0  0  0  0  0  0  0  0  # atno 17321 bound_to 7965
  139.8604  143.7322  152.3173 LP  0  0  0  0  0  0  0  0  0  0  0  0  # atno 17342 bound_to 10162
  139.7535  144.7527  151.0470 LP  0  0  0  0  0  0  0  0  0  0  0  0  # atno 17343 bound_to 10162
  156.5702  130.8421  151.3354 LP  0  0  0  0  0  0  0  0  0  0  0  0  # atno 17370 bound_to 10713
  157.7332  130.9726  150.1965 LP  0  0  0  0  0  0  0  0  0  0  0  0  # atno 17371 bound_to 10713
  139.8758  134.9251  156.3366 LP  0  0  0  0  0  0  0  0  0  0  0  0  # atno 17394 bound_to 11000
  140.9589  133.7402  156.0373 LP  0  0  0  0  0  0  0  0  0  0  0  0  # atno 17395 bound_to 11000

$$$$
