AV-unprocessed.smi:3181|AV-procd|sdf|12148|dock1
  -GOLD-   2272017583D 1   1.00000     0.00000
 Structure written by MMmdl.
 42 43  0  0  0  0  0  0  0  0  2 V2000
  148.8058  140.8163  155.6705 C   0  0  0  0  0  0  0  0  0  0  0  0
  149.9889  140.9947  156.6361 C   0  0  1  0  0  0  0  0  0  0  0  0
  151.3521  140.8138  155.9329 C   0  0  0  0  0  0  0  0  0  0  0  0
  151.5653  139.4604  155.4555 N   0  0  0  0  0  0  0  0  0  0  0  0
  152.4776  138.5495  155.7996 C   0  0  0  0  0  0  0  0  0  0  0  0
  152.3593  137.4017  155.1472 N   0  0  0  0  0  0  0  0  0  0  0  0
  151.2735  137.6911  154.3694 C   0  0  0  0  0  0  0  0  0  0  0  0
  150.7571  138.9112  154.5188 N   0  0  0  0  0  0  0  0  0  0  0  0
  149.9132  142.3316  157.2683 N   0  3  0  0  0  0  0  0  0  0  0  0
  151.1696  142.8486  157.8597 C   0  0  2  0  0  0  0  0  0  0  0  0
  151.8076  141.7627  158.7443 C   0  0  0  0  0  0  0  0  0  0  0  0
  153.1028  142.2598  159.4078 C   0  0  0  0  0  0  0  0  0  0  0  0
  152.8823  143.5464  160.2289 C   0  0  2  0  0  0  0  0  0  0  0  0
  152.1113  143.2643  161.5343 C   0  0  0  0  0  0  0  0  0  0  0  0
  152.2407  144.6391  159.3366 C   0  0  2  0  0  0  0  0  0  0  0  0
  152.0340  145.9764  160.0669 C   0  0  0  0  0  0  0  0  0  0  0  0
  150.9415  144.1439  158.6687 C   0  0  0  0  0  0  0  0  0  0  0  0
  148.7872  139.8147  155.2402 H   0  0  0  0  0  0  0  0  0  0  0  0
  148.8527  141.5307  154.8479 H   0  0  0  0  0  0  0  0  0  0  0  0
  147.8554  140.9630  156.1848 H   0  0  0  0  0  0  0  0  0  0  0  0
  149.8885  140.2319  157.4098 H   0  0  0  0  0  0  0  0  0  0  0  0
  151.4295  141.4931  155.0827 H   0  0  0  0  0  0  0  0  0  0  0  0
  152.1740  141.0653  156.6035 H   0  0  0  0  0  0  0  0  0  0  0  0
  153.2456  138.7300  156.5377 H   0  0  0  0  0  0  0  0  0  0  0  0
  150.8511  136.9818  153.6729 H   0  0  0  0  0  0  0  0  0  0  0  0
  149.5592  142.9982  156.5971 H   0  0  0  0  0  0  0  0  0  0  0  0
  151.8617  143.0605  157.0429 H   0  0  0  0  0  0  0  0  0  0  0  0
  151.1007  141.4430  159.5108 H   0  0  0  0  0  0  0  0  0  0  0  0
  152.0259  140.8776  158.1453 H   0  0  0  0  0  0  0  0  0  0  0  0
  153.5227  141.4758  160.0391 H   0  0  0  0  0  0  0  0  0  0  0  0
  153.8469  142.4519  158.6336 H   0  0  0  0  0  0  0  0  0  0  0  0
  153.8686  143.9046  160.5276 H   0  0  0  0  0  0  0  0  0  0  0  0
  151.0817  142.9606  161.3487 H   0  0  0  0  0  0  0  0  0  0  0  0
  152.0859  144.1417  162.1801 H   0  0  0  0  0  0  0  0  0  0  0  0
  152.5902  142.4675  162.1037 H   0  0  0  0  0  0  0  0  0  0  0  0
  152.9507  144.8414  158.5328 H   0  0  0  0  0  0  0  0  0  0  0  0
  151.2663  145.9025  160.8373 H   0  0  0  0  0  0  0  0  0  0  0  0
  151.7228  146.7559  159.3710 H   0  0  0  0  0  0  0  0  0  0  0  0
  152.9562  146.3114  160.5425 H   0  0  0  0  0  0  0  0  0  0  0  0
  150.5671  144.9296  158.0122 H   0  0  0  0  0  0  0  0  0  0  0  0
  150.1699  143.9828  159.4225 H   0  0  0  0  0  0  0  0  0  0  0  0
  149.2457  142.2614  158.0230 H   0  0  0  0  0  0  0  0  0  0  0  0
  1  2  1  0  0  0  0
  1 18  1  0  0  0  0
  1 19  1  0  0  0  0
  1 20  1  0  0  0  0
  2  3  1  0  0  0  0
  2  9  1  0  0  0  0
  2 21  1  0  0  0  0
  3  4  1  0  0  0  0
  3 22  1  0  0  0  0
  3 23  1  0  0  0  0
  4  8  1  0  0  0  0
  4  5  1  0  0  0  0
  5  6  2  0  0  0  0
  5 24  1  0  0  0  0
  6  7  1  0  0  0  0
  7  8  2  0  0  0  0
  7 25  1  0  0  0  0
  9 10  1  0  0  0  0
  9 26  1  0  0  0  0
  9 42  1  0  0  0  0
 10 17  1  0  0  0  0
 10 11  1  0  0  0  0
 10 27  1  0  0  0  0
 11 12  1  0  0  0  0
 11 28  1  0  0  0  0
 11 29  1  0  0  0  0
 12 13  1  0  0  0  0
 12 30  1  0  0  0  0
 12 31  1  0  0  0  0
 13 14  1  0  0  0  0
 13 15  1  0  0  0  0
 13 32  1  0  0  0  0
 14 33  1  0  0  0  0
 14 34  1  0  0  0  0
 14 35  1  0  0  0  0
 15 16  1  0  0  0  0
 15 17  1  0  0  0  0
 15 36  1  0  0  0  0
 16 37  1  0  0  0  0
 16 38  1  0  0  0  0
 16 39  1  0  0  0  0
 17 40  1  0  0  0  0
 17 41  1  0  0  0  0
M  CHG  1   9   1
M  END
> <s_m_source_file>
AV-unprocessed.smi

> <i_m_source_file_index>
3181

> <i_lp_mmshare_version>
43012

> <i_f3d_flags>
0

> <s_epik_input>
bjFbY0hdbltjSF1uMVtDSDJdW0NAQEhdKFtDSDNdKVtOSF1bQ0BASF0yW0NIMl1bQ0gyXVtDQEBIXShbQ0gzXSlbQ0BASF0oW0NIM10pW0NIMl0y

> <s_epik_cmdline>
J2VwaWtfcHl0aG9uJywgJy1waCcsICc3LjAnLCAnLXRuJywgJzgnLCAnLW1hJywgJzIwMCcsICctbWV0YWxfYmluZGluZycsICctaW1hZScsICc8aW5maWxlLm1hZT4nLCAnLW9tYWUnLCAnPG91dGZpbGUubWFlPic=

> <r_lp_tautomer_probability>
1

> <r_epik_Ionization_Penalty>
0.000617007

> <r_epik_Ionization_Penalty_Charging>
0.000616215

> <r_epik_Ionization_Penalty_Neutral>
7.92544e-07

> <r_epik_State_Penalty>
0.000388807

> <r_epik_Charging_Adjusted_Penalty>
0.00100502

> <i_epik_Tot_Q>
1

> <i_epik_Tot_abs_Q>
1

> <r_epik_Metal_State_Penalty>
-0

> <b_epik_Metal_Only>
0

> <s_lp_Force_Field>
OPLS_2005

> <r_lp_Energy>
20.8152

> <b_lp_Chiralities_Consistent>
1

> <s_lp_Variant>
AV-unprocessed.smi:3181-14

> <Gold.Version>
5.8.1

> <Gold.Id.Protein>
6NUR|6NUR_protein|mol2

> <Gold.PLP.Fitness>
53.0443

> <Gold.PLP.PLP>
-42.2075

> <Gold.PLP.part.hbond>
-2.3379

> <Gold.PLP.part.metal>
0.0000

> <Gold.PLP.part.buried>
-3.7747

> <Gold.PLP.part.nonpolar>
-36.6996

> <Gold.PLP.part.repulsive>
0.2510

> <Gold.PLP.ligand.clash>
0.0000

> <Gold.PLP.ligand.torsion>
0.3036

> <Gold.PLP.Chemscore.Hbond>
2.7137

> <Gold.PLP.Chemscore.CHOScore>
1.0846

> <Gold.PLP.Chemscore.Metal>
0.0000

> <Gold.Chemscore.Hbonds>
donor molecule, donor type, donor heavy atom, donor atom, acceptor molecule, acceptor atom, score
      L1  H     9    26       P1  8028  1.79
      P1  H 10752 10764       L1     6  0.67
      L1  C     7    25       P1  7948  0.20
      L1  C     7    25       P1  7949  0.89

> <Gold.PLP.Chemscore.Internal.Correction>
0.0489

> <Gold.Rescore>
     Score         DG    S(hbond)    S(metal)    S(lipo)     H(rot)  DE(clash)    DE(int)     intcor
     16.72     -18.04       1.73        0.00     104.10       2.11       0.10       1.22       ----

> <Gold.Chemscore.Fitness>
16.7212

> <Gold.Chemscore.DG>
-18.0362

> <Gold.Chemscore.ZeroCoef>
-5.4800

> <Gold.Chemscore.Hbond>
1.7296

> <Gold.Chemscore.Metal>
0.0000

> <Gold.Chemscore.Lipo>
104.0987

> <Gold.Chemscore.Internal_Hbond>
0.0000

> <Gold.Chemscore.DEClash>
0.0971

> <Gold.Chemscore.DEInternal>
1.2179

> <Gold.Chemscore.Rot>
2.1095

> <Gold.Chemscore.Internal.Correction>
   9.000000E+99

> <Gold.Chemscore.Hbonds>
donor molecule, donor type, donor heavy atom, donor atom, acceptor molecule, acceptor atom, score
      L1  H     9    26       P1  8028  0.87
      P1  H 10752 10764       L1     6  0.33

> <Gold.Chemscore.Hbond.Weighted>
-5.7770

> <Gold.Chemscore.Metal.Weighted>
-0.0000

> <Gold.Chemscore.Lipo.Weighted>
-12.1795

> <Gold.Chemscore.Internal_Hbond.Weighted>
0.0000

> <Gold.Chemscore.DEClash.Weighted>
0.0971

> <Gold.Chemscore.DEInternal.Weighted>
1.2179

> <Gold.Chemscore.Rot.Weighted>
5.4003

> <Gold.Chemscore.Internal.Correction.Weighted>
   9.000000E+99

> <Gold.Protein.RotatedTorsions>
[ 6907 6896 6895 6894 ] final  -99.13 input  -60.11 | X-H torsion
[ 7974 7965 7964 7962 ] final   58.42 input  175.53 | X-H torsion
[ 8008 7997 7996 7995 ] final    9.59 input   59.86 | X-H torsion
[ 10167 10162 10161 10158 ] final  -97.88 input  -65.29 | X-H torsion
[ 10718 10713 10712 10709 ] final  177.56 input   66.30 | X-H torsion
[ 10763 10752 10751 10750 ] final  -61.94 input  -60.55 | X-H torsion
[ 11005 11000 10999 10996 ] final -173.27 input  -57.11 | X-H torsion

> <Gold.Protein.ActiveResidues>
 VAL166  LYS551  ARG553  GLY616  TRP617  ASP618  TYR619  PRO620  LYS621  CYS622 
 ASP623  PHE694  ASN695  SER759  ASP760  ASP761  ALA762  ILE779  LEU786  VAL792 
 PHE793  MET794  SER795  GLU796  ALA797  LYS798  CYS799  TRP800  GLU811  SER814 

> <Gold.Protein.RotatedAtoms>
  150.7069  134.1088  159.3992 H   0  0  0  0  0  0  0  0  0  0  0  0  # atno 6907 bound_to 6896
  151.9075  135.0350  160.0521 H   0  0  0  0  0  0  0  0  0  0  0  0  # atno 6908 bound_to 6896
  152.2363  133.5063  159.5281 H   0  0  0  0  0  0  0  0  0  0  0  0  # atno 6909 bound_to 6896
  145.9184  139.3710  143.0493 H   0  0  0  0  0  0  0  0  0  0  0  0  # atno 7974 bound_to 7965
  154.7821  140.2820  155.6056 H   0  0  0  0  0  0  0  0  0  0  0  0  # atno 8008 bound_to 7997
  156.2951  140.2621  156.2576 H   0  0  0  0  0  0  0  0  0  0  0  0  # atno 8009 bound_to 7997
  154.9772  140.0375  157.2251 H   0  0  0  0  0  0  0  0  0  0  0  0  # atno 8010 bound_to 7997
  140.2788  143.3295  152.0462 H   0  0  0  0  0  0  0  0  0  0  0  0  # atno 10167 bound_to 10162
  156.9036  130.9887  151.3032 H   0  0  0  0  0  0  0  0  0  0  0  0  # atno 10718 bound_to 10713
  154.2922  135.6251  153.5390 H   0  0  0  0  0  0  0  0  0  0  0  0  # atno 10763 bound_to 10752
  152.9851  135.5658  154.5377 H   0  0  0  0  0  0  0  0  0  0  0  0  # atno 10764 bound_to 10752
  154.4990  135.2871  155.1412 H   0  0  0  0  0  0  0  0  0  0  0  0  # atno 10765 bound_to 10752
  140.4876  134.6016  157.4942 H   0  0  0  0  0  0  0  0  0  0  0  0  # atno 11005 bound_to 11000
  145.8581  140.9491  143.0714 LP  0  0  0  0  0  0  0  0  0  0  0  0  # atno 17320 bound_to 7965
  144.6750  140.0495  143.7479 LP  0  0  0  0  0  0  0  0  0  0  0  0  # atno 17321 bound_to 7965
  139.4968  144.6606  151.6474 LP  0  0  0  0  0  0  0  0  0  0  0  0  # atno 17342 bound_to 10162
  140.5829  143.9915  150.6278 LP  0  0  0  0  0  0  0  0  0  0  0  0  # atno 17343 bound_to 10162
  157.6011  130.8513  149.8804 LP  0  0  0  0  0  0  0  0  0  0  0  0  # atno 17370 bound_to 10713
  156.0570  130.3706  150.1068 LP  0  0  0  0  0  0  0  0  0  0  0  0  # atno 17371 bound_to 10713
  139.9789  134.7170  155.9898 LP  0  0  0  0  0  0  0  0  0  0  0  0  # atno 17394 bound_to 11000
  141.1500  133.6550  156.3985 LP  0  0  0  0  0  0  0  0  0  0  0  0  # atno 17395 bound_to 11000

$$$$
