AV-unprocessed.smi:1891|AV-procd|sdf|7665|dock7
  -GOLD-   22720 9403D 1   1.00000     0.00000
 Structure written by MMmdl.
 36 38  0  0  0  0  0  0  0  0  1 V2000
  152.9881  138.9207  155.5029 O   0  0  0  0  0  0  0  0  0  0  0  0
  152.1002  138.7887  156.5914 C   0  0  0  0  0  0  0  0  0  0  0  0
  152.0942  139.9854  157.4942 C   0  0  0  0  0  0  0  0  0  0  0  0
  152.5812  139.9264  158.7344 N   0  0  0  0  0  0  0  0  0  0  0  0
  152.4106  141.2182  159.1916 C   0  0  0  0  0  0  0  0  0  0  0  0
  152.7347  141.8018  160.4372 C   0  0  0  0  0  0  0  0  0  0  0  0
  152.4711  143.1665  160.6762 C   0  0  0  0  0  0  0  0  0  0  0  0
  151.8823  143.9657  159.6749 C   0  0  0  0  0  0  0  0  0  0  0  0
  151.5502  143.4035  158.4274 C   0  0  0  0  0  0  0  0  0  0  0  0
  151.8123  142.0396  158.1950 C   0  0  0  0  0  0  0  0  0  0  0  0
  151.6098  141.1945  157.1080 N   0  0  0  0  0  0  0  0  0  0  0  0
  151.0155  141.5761  155.8323 C   0  0  0  0  0  0  0  0  0  0  0  0
  149.9741  140.5565  155.3268 C   0  0  2  0  0  0  0  0  0  0  0  0
  150.4135  139.9722  154.1158 O   0  0  0  0  0  0  0  0  0  0  0  0
  148.5989  141.1974  155.1982 C   0  0  0  0  0  0  0  0  0  0  0  0
  147.9919  141.3376  153.9299 C   0  0  0  0  0  0  0  0  0  0  0  0
  146.7251  141.9410  153.8095 C   0  0  0  0  0  0  0  0  0  0  0  0
  146.0579  142.4125  154.9559 C   0  0  0  0  0  0  0  0  0  0  0  0
  144.8410  142.9949  154.8400 F   0  0  0  0  0  0  0  0  0  0  0  0
  146.6588  142.2810  156.2222 C   0  0  0  0  0  0  0  0  0  0  0  0
  147.9263  141.6784  156.3449 C   0  0  0  0  0  0  0  0  0  0  0  0
  148.4941  141.5692  157.5703 F   0  0  0  0  0  0  0  0  0  0  0  0
  152.4915  139.1730  154.7397 H   0  0  0  0  0  0  0  0  0  0  0  0
  151.0957  138.6305  156.1971 H   0  0  0  0  0  0  0  0  0  0  0  0
  152.3502  137.8959  157.1644 H   0  0  0  0  0  0  0  0  0  0  0  0
  153.1887  141.1988  161.2096 H   0  0  0  0  0  0  0  0  0  0  0  0
  152.7236  143.6027  161.6316 H   0  0  0  0  0  0  0  0  0  0  0  0
  151.6856  145.0106  159.8652 H   0  0  0  0  0  0  0  0  0  0  0  0
  151.0996  144.0141  157.6592 H   0  0  0  0  0  0  0  0  0  0  0  0
  150.5435  142.5504  155.9658 H   0  0  0  0  0  0  0  0  0  0  0  0
  151.7953  141.7183  155.0853 H   0  0  0  0  0  0  0  0  0  0  0  0
  149.9030  139.7365  156.0412 H   0  0  0  0  0  0  0  0  0  0  0  0
  149.7460  140.1029  153.4599 H   0  0  0  0  0  0  0  0  0  0  0  0
  148.4976  140.9858  153.0425 H   0  0  0  0  0  0  0  0  0  0  0  0
  146.2664  142.0440  152.8371 H   0  0  0  0  0  0  0  0  0  0  0  0
  146.1480  142.6452  157.1014 H   0  0  0  0  0  0  0  0  0  0  0  0
  1  2  1  0  0  0  0
  1 23  1  0  0  0  0
  2  3  1  0  0  0  0
  2 24  1  0  0  0  0
  2 25  1  0  0  0  0
  3 11  1  0  0  0  0
  3  4  2  0  0  0  0
  4  5  1  0  0  0  0
  5 10  2  0  0  0  0
  5  6  1  0  0  0  0
  6  7  2  0  0  0  0
  6 26  1  0  0  0  0
  7  8  1  0  0  0  0
  7 27  1  0  0  0  0
  8  9  2  0  0  0  0
  8 28  1  0  0  0  0
  9 10  1  0  0  0  0
  9 29  1  0  0  0  0
 10 11  1  0  0  0  0
 11 12  1  0  0  0  0
 12 13  1  0  0  0  0
 12 30  1  0  0  0  0
 12 31  1  0  0  0  0
 13 14  1  0  0  0  0
 13 15  1  0  0  0  0
 13 32  1  0  0  0  0
 14 33  1  0  0  0  0
 15 21  1  0  0  0  0
 15 16  2  0  0  0  0
 16 17  1  0  0  0  0
 16 34  1  0  0  0  0
 17 18  2  0  0  0  0
 17 35  1  0  0  0  0
 18 19  1  0  0  0  0
 18 20  1  0  0  0  0
 20 21  2  0  0  0  0
 20 36  1  0  0  0  0
 21 22  1  0  0  0  0
M  END
> <s_m_source_file>
AV-unprocessed.smi

> <i_m_source_file_index>
1891

> <i_lp_mmshare_version>
43012

> <i_f3d_flags>
0

> <s_epik_input>
W2NIXTFbY0hdW2NIXVtjSF1jKGMxMiluKGMobjIpW0NIMl1bT0hdKVtDSDJdW0NASF0oW09IXSljM1tjSF1bY0hdYyhGKVtjSF1jM0Y=

> <s_epik_cmdline>
J2VwaWtfcHl0aG9uJywgJy1waCcsICc3LjAnLCAnLXRuJywgJzgnLCAnLW1hJywgJzIwMCcsICctbWV0YWxfYmluZGluZycsICctaW1hZScsICc8aW5maWxlLm1hZT4nLCAnLW9tYWUnLCAnPG91dGZpbGUubWFlPic=

> <r_epik_Ionization_Penalty>
0.0634724

> <r_epik_Ionization_Penalty_Charging>
0

> <r_epik_Ionization_Penalty_Neutral>
0.0634724

> <r_epik_State_Penalty>
0.0551572

> <r_epik_Charging_Adjusted_Penalty>
0.0551572

> <i_epik_Tot_Q>
0

> <i_epik_Tot_abs_Q>
0

> <r_epik_Metal_State_Penalty>
5.78034e-05

> <b_epik_Metal_Only>
0

> <s_lp_Force_Field>
OPLS_2005

> <r_lp_Energy>
12.6206

> <b_lp_Chiralities_Consistent>
1

> <s_lp_Variant>
AV-unprocessed.smi:1891-1

> <Gold.Version>
5.8.1

> <Gold.Id.Protein>
6NUR|6NUR_protein|mol2

> <Gold.PLP.Fitness>
50.8158

> <Gold.PLP.PLP>
-46.1782

> <Gold.PLP.part.hbond>
-2.9766

> <Gold.PLP.part.metal>
0.0000

> <Gold.PLP.part.buried>
-6.3968

> <Gold.PLP.part.nonpolar>
-35.7255

> <Gold.PLP.part.repulsive>
0.0000

> <Gold.PLP.ligand.clash>
0.0000

> <Gold.PLP.ligand.torsion>
1.0855

> <Gold.PLP.Chemscore.Hbond>
2.2574

> <Gold.PLP.Chemscore.CHOScore>
0.0000

> <Gold.PLP.Chemscore.Metal>
0.0000

> <Gold.Chemscore.Hbonds>
donor molecule, donor type, donor heavy atom, donor atom, acceptor molecule, acceptor atom, score
      L1  H    14    33       P1  7957  0.24
      P1  H  7989  7998       L1    14  1.00
      P1  H  7997  8010       L1     1  1.00

> <Gold.PLP.Chemscore.Internal.Correction>
0.0364

> <Gold.Rescore>
     Score         DG    S(hbond)    S(metal)    S(lipo)     H(rot)  DE(clash)    DE(int)     intcor
     12.39     -14.39       1.02        0.00     109.98       2.88       0.01       1.99       ----

> <Gold.Chemscore.Fitness>
12.3882

> <Gold.Chemscore.DG>
-14.3891

> <Gold.Chemscore.ZeroCoef>
-5.4800

> <Gold.Chemscore.Hbond>
1.0199

> <Gold.Chemscore.Metal>
0.0000

> <Gold.Chemscore.Lipo>
109.9753

> <Gold.Chemscore.Internal_Hbond>
0.0000

> <Gold.Chemscore.DEClash>
0.0135

> <Gold.Chemscore.DEInternal>
1.9874

> <Gold.Chemscore.Rot>
2.8767

> <Gold.Chemscore.Internal.Correction>
   9.000000E+99

> <Gold.Chemscore.Hbonds>
donor molecule, donor type, donor heavy atom, donor atom, acceptor molecule, acceptor atom, score
      L1  H    14    33       P1  7957  0.24
      P1  H  7989  7998       L1    14  0.19
      P1  H  7997  8010       L1     1  0.43

> <Gold.Chemscore.Hbond.Weighted>
-3.4065

> <Gold.Chemscore.Metal.Weighted>
-0.0000

> <Gold.Chemscore.Lipo.Weighted>
-12.8671

> <Gold.Chemscore.Internal_Hbond.Weighted>
0.0000

> <Gold.Chemscore.DEClash.Weighted>
0.0135

> <Gold.Chemscore.DEInternal.Weighted>
1.9874

> <Gold.Chemscore.Rot.Weighted>
7.3644

> <Gold.Chemscore.Internal.Correction.Weighted>
   9.000000E+99

> <Gold.Protein.RotatedTorsions>
[ 6907 6896 6895 6894 ] final  -93.87 input  -60.11 | X-H torsion
[ 7974 7965 7964 7962 ] final  -25.98 input  175.53 | X-H torsion
[ 8008 7997 7996 7995 ] final   86.24 input   59.86 | X-H torsion
[ 10167 10162 10161 10158 ] final -163.80 input  -65.29 | X-H torsion
[ 10718 10713 10712 10709 ] final -157.20 input   66.30 | X-H torsion
[ 10763 10752 10751 10750 ] final  109.81 input  -60.55 | X-H torsion
[ 11005 11000 10999 10996 ] final   50.45 input  -57.11 | X-H torsion

> <Gold.Protein.ActiveResidues>
 VAL166  LYS551  ARG553  GLY616  TRP617  ASP618  TYR619  PRO620  LYS621  CYS622 
 ASP623  PHE694  ASN695  SER759  ASP760  ASP761  ALA762  ILE779  LEU786  VAL792 
 PHE793  MET794  SER795  GLU796  ALA797  LYS798  CYS799  TRP800  GLU811  SER814 

> <Gold.Protein.RotatedAtoms>
  150.6930  134.1900  159.4281 H   0  0  0  0  0  0  0  0  0  0  0  0  # atno 6907 bound_to 6896
  151.9871  134.9996  160.0569 H   0  0  0  0  0  0  0  0  0  0  0  0  # atno 6908 bound_to 6896
  152.1701  133.4603  159.4942 H   0  0  0  0  0  0  0  0  0  0  0  0  # atno 6909 bound_to 6896
  146.1455  140.4959  142.8633 H   0  0  0  0  0  0  0  0  0  0  0  0  # atno 7974 bound_to 7965
  155.9603  140.3394  155.6485 H   0  0  0  0  0  0  0  0  0  0  0  0  # atno 8008 bound_to 7997
  155.6807  140.0737  157.2504 H   0  0  0  0  0  0  0  0  0  0  0  0  # atno 8009 bound_to 7997
  154.4141  140.1675  156.1966 H   0  0  0  0  0  0  0  0  0  0  0  0  # atno 8010 bound_to 7997
  139.6295  144.0467  152.2004 H   0  0  0  0  0  0  0  0  0  0  0  0  # atno 10167 bound_to 10162
  156.5370  130.8546  151.2736 H   0  0  0  0  0  0  0  0  0  0  0  0  # atno 10718 bound_to 10713
  153.4400  135.3768  155.2222 H   0  0  0  0  0  0  0  0  0  0  0  0  # atno 10763 bound_to 10752
  154.8753  135.3860  154.4164 H   0  0  0  0  0  0  0  0  0  0  0  0  # atno 10764 bound_to 10752
  153.4708  135.7087  153.6058 H   0  0  0  0  0  0  0  0  0  0  0  0  # atno 10765 bound_to 10752
  140.1016  134.5073  155.8757 H   0  0  0  0  0  0  0  0  0  0  0  0  # atno 11005 bound_to 11000
  144.7842  140.5902  143.6585 LP  0  0  0  0  0  0  0  0  0  0  0  0  # atno 17320 bound_to 7965
  145.4947  139.1486  143.3690 LP  0  0  0  0  0  0  0  0  0  0  0  0  # atno 17321 bound_to 7965
  140.0128  144.6211  150.7632 LP  0  0  0  0  0  0  0  0  0  0  0  0  # atno 17342 bound_to 10162
  140.7431  143.2841  151.3514 LP  0  0  0  0  0  0  0  0  0  0  0  0  # atno 17343 bound_to 10162
  157.7412  130.9865  150.2428 LP  0  0  0  0  0  0  0  0  0  0  0  0  # atno 17370 bound_to 10713
  156.3006  130.3758  149.7753 LP  0  0  0  0  0  0  0  0  0  0  0  0  # atno 17371 bound_to 10713
  141.2107  133.6698  156.6530 LP  0  0  0  0  0  0  0  0  0  0  0  0  # atno 17394 bound_to 11000
  140.3212  134.8006  157.4253 LP  0  0  0  0  0  0  0  0  0  0  0  0  # atno 17395 bound_to 11000

$$$$
