AV-unprocessed.smi:1032|AV-procd|sdf|4483|dock4
  -GOLD-   22720 2463D 1   1.00000     0.00000
 Structure written by MMmdl.
 46 47  0  0  0  0  0  0  0  0  2 V2000
  151.3359  141.2071  158.0024 C   0  0  0  0  0  0  0  0  0  0  0  0
  150.8661  140.9253  156.5685 C   0  0  2  0  0  0  0  0  0  0  0  0
  149.4133  141.3775  156.3440 C   0  0  0  0  0  0  0  0  0  0  0  0
  148.9435  141.0625  154.9134 C   0  0  0  0  0  0  0  0  0  0  0  0
  149.0901  139.6168  154.6055 N   0  3  1  0  0  0  0  0  0  0  0  0
  148.5179  139.2584  153.2817 C   0  0  0  0  0  0  0  0  0  0  0  0
  147.0106  139.5713  153.1891 C   0  0  1  0  0  0  0  0  0  0  0  0
  146.7532  140.0123  151.8699 O   0  0  0  0  0  0  0  0  0  0  0  0
  146.1527  138.3213  153.4690 C   0  0  0  0  0  0  0  0  0  0  0  0
  146.5289  137.2048  152.6076 N   0  0  0  0  0  0  0  0  0  0  0  0
  145.6662  136.4225  151.9430 C   0  0  0  0  0  0  0  0  0  0  0  0
  144.4472  136.5880  151.9710 O   0  0  0  0  0  0  0  0  0  0  0  0
  146.3124  135.4656  151.2537 N   0  0  0  0  0  0  0  0  0  0  0  0
  145.7821  134.4172  150.4514 C   0  0  0  0  0  0  0  0  0  0  0  0
  146.6666  133.3918  150.0565 C   0  0  0  0  0  0  0  0  0  0  0  0
  146.1724  132.3301  149.2730 C   0  0  0  0  0  0  0  0  0  0  0  0
  144.8852  132.2355  148.8794 N   0  0  0  0  0  0  0  0  0  0  0  0
  144.0372  133.2119  149.2654 C   0  0  0  0  0  0  0  0  0  0  0  0
  144.4277  134.3162  150.0491 C   0  0  0  0  0  0  0  0  0  0  0  0
  150.4950  139.1618  154.7808 C   0  0  0  0  0  0  0  0  0  0  0  0
  150.9923  139.4352  156.2100 C   0  0  0  0  0  0  0  0  0  0  0  0
  150.7303  140.6694  158.7328 H   0  0  0  0  0  0  0  0  0  0  0  0
  151.2712  142.2706  158.2349 H   0  0  0  0  0  0  0  0  0  0  0  0
  152.3736  140.9029  158.1422 H   0  0  0  0  0  0  0  0  0  0  0  0
  151.5076  141.4930  155.8928 H   0  0  0  0  0  0  0  0  0  0  0  0
  148.7559  140.8814  157.0596 H   0  0  0  0  0  0  0  0  0  0  0  0
  149.3212  142.4477  156.5320 H   0  0  0  0  0  0  0  0  0  0  0  0
  147.8982  141.3568  154.8105 H   0  0  0  0  0  0  0  0  0  0  0  0
  149.5118  141.6499  154.1903 H   0  0  0  0  0  0  0  0  0  0  0  0
  149.0342  139.8052  152.4907 H   0  0  0  0  0  0  0  0  0  0  0  0
  148.7060  138.2014  153.0870 H   0  0  0  0  0  0  0  0  0  0  0  0
  146.7420  140.3612  153.8902 H   0  0  0  0  0  0  0  0  0  0  0  0
  147.5772  140.1200  151.4186 H   0  0  0  0  0  0  0  0  0  0  0  0
  146.1773  138.0456  154.5251 H   0  0  0  0  0  0  0  0  0  0  0  0
  145.1093  138.5402  153.2407 H   0  0  0  0  0  0  0  0  0  0  0  0
  147.5149  137.0057  152.5228 H   0  0  0  0  0  0  0  0  0  0  0  0
  147.3203  135.5048  151.2894 H   0  0  0  0  0  0  0  0  0  0  0  0
  147.7075  133.4143  150.3447 H   0  0  0  0  0  0  0  0  0  0  0  0
  146.8294  131.5337  148.9558 H   0  0  0  0  0  0  0  0  0  0  0  0
  143.0114  133.1080  148.9441 H   0  0  0  0  0  0  0  0  0  0  0  0
  143.6820  135.0440  150.3264 H   0  0  0  0  0  0  0  0  0  0  0  0
  150.5780  138.0951  154.5763 H   0  0  0  0  0  0  0  0  0  0  0  0
  151.1364  139.6708  154.0595 H   0  0  0  0  0  0  0  0  0  0  0  0
  152.0306  139.1152  156.3034 H   0  0  0  0  0  0  0  0  0  0  0  0
  150.4189  138.8332  156.9166 H   0  0  0  0  0  0  0  0  0  0  0  0
  148.5331  139.1269  155.2918 H   0  0  0  0  0  0  0  0  0  0  0  0
  1  2  1  0  0  0  0
  1 22  1  0  0  0  0
  1 23  1  0  0  0  0
  1 24  1  0  0  0  0
  2 21  1  0  0  0  0
  2  3  1  0  0  0  0
  2 25  1  0  0  0  0
  3  4  1  0  0  0  0
  3 26  1  0  0  0  0
  3 27  1  0  0  0  0
  4  5  1  0  0  0  0
  4 28  1  0  0  0  0
  4 29  1  0  0  0  0
  5  6  1  0  0  0  0
  5 20  1  0  0  0  0
  5 46  1  0  0  0  0
  6  7  1  0  0  0  0
  6 30  1  0  0  0  0
  6 31  1  0  0  0  0
  7  8  1  0  0  0  0
  7  9  1  0  0  0  0
  7 32  1  0  0  0  0
  8 33  1  0  0  0  0
  9 10  1  0  0  0  0
  9 34  1  0  0  0  0
  9 35  1  0  0  0  0
 10 11  1  0  0  0  0
 10 36  1  0  0  0  0
 11 12  2  0  0  0  0
 11 13  1  0  0  0  0
 13 14  1  0  0  0  0
 13 37  1  0  0  0  0
 14 19  1  0  0  0  0
 14 15  2  0  0  0  0
 15 16  1  0  0  0  0
 15 38  1  0  0  0  0
 16 17  2  0  0  0  0
 16 39  1  0  0  0  0
 17 18  1  0  0  0  0
 18 19  2  0  0  0  0
 18 40  1  0  0  0  0
 19 41  1  0  0  0  0
 20 21  1  0  0  0  0
 20 42  1  0  0  0  0
 20 43  1  0  0  0  0
 21 44  1  0  0  0  0
 21 45  1  0  0  0  0
M  CHG  1   5   1
M  END
> <s_m_source_file>
AV-unprocessed.smi

> <i_m_source_file_index>
1032

> <i_lp_mmshare_version>
43012

> <i_f3d_flags>
0

> <s_epik_input>
W0NIM11bQ0hdMVtDSDJdW0NIMl1OKFtDSDJdW0NIMl0xKVtDSDJdW0NASF0oW09IXSlbQ0gyXVtOSF1DKD1PKVtOSF1jMltjSF1bY0hdbltjSF1bY0hdMg==

> <s_epik_cmdline>
J2VwaWtfcHl0aG9uJywgJy1waCcsICc3LjAnLCAnLXRuJywgJzgnLCAnLW1hJywgJzIwMCcsICctbWV0YWxfYmluZGluZycsICctaW1hZScsICc8aW5maWxlLm1hZT4nLCAnLW9tYWUnLCAnPG91dGZpbGUubWFlPic=

> <r_epik_Ionization_Penalty>
0.11743

> <r_epik_Ionization_Penalty_Charging>
0.00147689

> <r_epik_Ionization_Penalty_Neutral>
0.115954

> <r_epik_State_Penalty>
0.105552

> <r_epik_Charging_Adjusted_Penalty>
0.107029

> <i_epik_Tot_Q>
1

> <i_epik_Tot_abs_Q>
1

> <r_epik_Metal_State_Penalty>
0.0881315

> <b_epik_Metal_Only>
0

> <s_lp_Force_Field>
OPLS_2005

> <r_lp_Energy>
24.2585

> <b_lp_Chiralities_Consistent>
1

> <s_lp_Variant>
AV-unprocessed.smi:1032-2

> <Gold.Version>
5.8.1

> <Gold.Id.Protein>
6NUR|6NUR_protein|mol2

> <Gold.PLP.Fitness>
51.5834

> <Gold.PLP.PLP>
-37.8672

> <Gold.PLP.part.hbond>
-3.9273

> <Gold.PLP.part.metal>
0.0000

> <Gold.PLP.part.buried>
-0.0853

> <Gold.PLP.part.nonpolar>
-33.9349

> <Gold.PLP.part.repulsive>
0.5491

> <Gold.PLP.ligand.clash>
0.0000

> <Gold.PLP.ligand.torsion>
0.6461

> <Gold.PLP.Chemscore.Hbond>
3.0000

> <Gold.PLP.Chemscore.CHOScore>
1.9744

> <Gold.PLP.Chemscore.Metal>
0.0000

> <Gold.Chemscore.Hbonds>
donor molecule, donor type, donor heavy atom, donor atom, acceptor molecule, acceptor atom, score
      L1  H     8    33       P1  7957  1.00
      L1  H    10    36       P1  7948  1.00
      L1  H    13    37       P1  7948  1.00
      L1  C    16    39       P1 10747  0.78
      L1  C    18    40       P1 10186  1.00

> <Gold.PLP.Chemscore.Internal.Correction>
0.0852

> <Gold.Rescore>
     Score         DG    S(hbond)    S(metal)    S(lipo)     H(rot)  DE(clash)    DE(int)     intcor
     17.67     -21.04       2.92        0.00      99.66       2.29       1.66       1.71       ----

> <Gold.Chemscore.Fitness>
17.6706

> <Gold.Chemscore.DG>
-21.0387

> <Gold.Chemscore.ZeroCoef>
-5.4800

> <Gold.Chemscore.Hbond>
2.9197

> <Gold.Chemscore.Metal>
0.0000

> <Gold.Chemscore.Lipo>
99.6608

> <Gold.Chemscore.Internal_Hbond>
0.0000

> <Gold.Chemscore.DEClash>
1.6562

> <Gold.Chemscore.DEInternal>
1.7119

> <Gold.Chemscore.Rot>
2.2865

> <Gold.Chemscore.Internal.Correction>
   9.000000E+99

> <Gold.Chemscore.Hbonds>
donor molecule, donor type, donor heavy atom, donor atom, acceptor molecule, acceptor atom, score
      L1  H     8    33       P1  7957  0.95
      L1  H    10    36       P1  7948  0.99
      L1  H    13    37       P1  7948  0.86

> <Gold.Chemscore.Hbond.Weighted>
-9.7519

> <Gold.Chemscore.Metal.Weighted>
-0.0000

> <Gold.Chemscore.Lipo.Weighted>
-11.6603

> <Gold.Chemscore.Internal_Hbond.Weighted>
0.0000

> <Gold.Chemscore.DEClash.Weighted>
1.6562

> <Gold.Chemscore.DEInternal.Weighted>
1.7119

> <Gold.Chemscore.Rot.Weighted>
5.8536

> <Gold.Chemscore.Internal.Correction.Weighted>
   9.000000E+99

> <Gold.Protein.RotatedTorsions>
[ 6907 6896 6895 6894 ] final   -2.93 input  -60.11 | X-H torsion
[ 7974 7965 7964 7962 ] final  135.65 input  175.53 | X-H torsion
[ 8008 7997 7996 7995 ] final  106.51 input   59.86 | X-H torsion
[ 10167 10162 10161 10158 ] final  -13.18 input  -65.29 | X-H torsion
[ 10718 10713 10712 10709 ] final -136.03 input   66.30 | X-H torsion
[ 10763 10752 10751 10750 ] final    4.86 input  -60.55 | X-H torsion
[ 11005 11000 10999 10996 ] final  171.29 input  -57.11 | X-H torsion

> <Gold.Protein.ActiveResidues>
 VAL166  LYS551  ARG553  GLY616  TRP617  ASP618  TYR619  PRO620  LYS621  CYS622 
 ASP623  PHE694  ASN695  SER759  ASP760  ASP761  ALA762  ILE779  LEU786  VAL792 
 PHE793  MET794  SER795  GLU796  ALA797  LYS798  CYS799  TRP800  GLU811  SER814 

> <Gold.Protein.RotatedAtoms>
  151.5219  135.1067  159.9880 H   0  0  0  0  0  0  0  0  0  0  0  0  # atno 6907 bound_to 6896
  152.4617  133.7831  159.6872 H   0  0  0  0  0  0  0  0  0  0  0  0  # atno 6908 bound_to 6896
  150.8581  133.7619  159.3027 H   0  0  0  0  0  0  0  0  0  0  0  0  # atno 6909 bound_to 6896
  144.9643  139.4676  143.5464 H   0  0  0  0  0  0  0  0  0  0  0  0  # atno 7974 bound_to 7965
  156.1749  140.3111  155.9041 H   0  0  0  0  0  0  0  0  0  0  0  0  # atno 8008 bound_to 7997
  155.3508  140.0471  157.3063 H   0  0  0  0  0  0  0  0  0  0  0  0  # atno 8009 bound_to 7997
  154.5280  140.2221  155.8866 H   0  0  0  0  0  0  0  0  0  0  0  0  # atno 8010 bound_to 7997
  140.7177  143.5453  150.9362 H   0  0  0  0  0  0  0  0  0  0  0  0  # atno 10167 bound_to 10162
  156.2726  130.7274  151.1246 H   0  0  0  0  0  0  0  0  0  0  0  0  # atno 10718 bound_to 10713
  153.2663  135.6928  153.7526 H   0  0  0  0  0  0  0  0  0  0  0  0  # atno 10763 bound_to 10752
  153.6567  135.3367  155.3116 H   0  0  0  0  0  0  0  0  0  0  0  0  # atno 10764 bound_to 10752
  154.8448  135.4467  154.1670 H   0  0  0  0  0  0  0  0  0  0  0  0  # atno 10765 bound_to 10752
  140.3174  134.7466  157.4038 H   0  0  0  0  0  0  0  0  0  0  0  0  # atno 11005 bound_to 11000
  146.3363  139.8813  142.8824 LP  0  0  0  0  0  0  0  0  0  0  0  0  # atno 17320 bound_to 7965
  145.2653  141.0091  143.3803 LP  0  0  0  0  0  0  0  0  0  0  0  0  # atno 17321 bound_to 7965
  139.9176  143.6644  152.3103 LP  0  0  0  0  0  0  0  0  0  0  0  0  # atno 17342 bound_to 10162
  139.7050  144.7629  151.1209 LP  0  0  0  0  0  0  0  0  0  0  0  0  # atno 17343 bound_to 10162
  157.7289  131.0628  150.5800 LP  0  0  0  0  0  0  0  0  0  0  0  0  # atno 17370 bound_to 10713
  156.5898  130.4326  149.5941 LP  0  0  0  0  0  0  0  0  0  0  0  0  # atno 17371 bound_to 10713
  140.0971  134.5522  155.8388 LP  0  0  0  0  0  0  0  0  0  0  0  0  # atno 17394 bound_to 11000
  141.2094  133.6684  156.6439 LP  0  0  0  0  0  0  0  0  0  0  0  0  # atno 17395 bound_to 11000

$$$$
