AV-unprocessed.smi:810|AV-procd|sdf|3809|dock8
  -GOLD-   22720 1253D 1   1.00000     0.00000
 Structure written by MMmdl.
 34 35  0  0  0  0  0  0  0  0  1 V2000
  149.3500  140.9994  157.8004 O   0  0  0  0  0  0  0  0  0  0  0  0
  149.3248  142.0359  157.1374 C   0  0  0  0  0  0  0  0  0  0  0  0
  149.9146  143.1933  157.4818 N   0  0  0  0  0  0  0  0  0  0  0  0
  150.6886  143.4816  158.6383 C   0  0  0  0  0  0  0  0  0  0  0  0
  151.6529  142.6047  159.1918 C   0  0  0  0  0  0  0  0  0  0  0  0
  152.3678  143.0147  160.3336 C   0  0  0  0  0  0  0  0  0  0  0  0
  152.0989  144.2864  160.8756 C   0  0  0  0  0  0  0  0  0  0  0  0
  151.1933  145.1381  160.3502 N   0  0  0  0  0  0  0  0  0  0  0  0
  150.5122  144.7385  159.2552 C   0  0  0  0  0  0  0  0  0  0  0  0
  148.6749  142.1537  155.9706 N   0  0  0  0  0  0  0  0  0  0  0  0
  147.9024  141.0976  155.3207 C   0  0  2  0  0  0  0  0  0  0  0  0
  148.7177  140.5017  154.1566 C   0  0  0  0  0  0  0  0  0  0  0  0
  148.3401  139.0506  153.8154 C   0  0  0  0  0  0  0  0  0  0  0  0
  149.4421  138.3985  153.2223 O   0  0  0  0  0  0  0  0  0  0  0  0
  146.5427  141.5742  154.8380 C   0  0  0  0  0  0  0  0  0  0  0  0
  146.3957  142.8390  154.0255 C   0  0  0  0  0  0  0  0  0  0  0  0
  145.8825  142.7889  155.4465 C   0  0  0  0  0  0  0  0  0  0  0  0
  149.7360  143.9798  156.8747 H   0  0  0  0  0  0  0  0  0  0  0  0
  151.8677  141.6393  158.7609 H   0  0  0  0  0  0  0  0  0  0  0  0
  153.1087  142.3695  160.7820 H   0  0  0  0  0  0  0  0  0  0  0  0
  152.6298  144.6311  161.7506 H   0  0  0  0  0  0  0  0  0  0  0  0
  149.7975  145.4464  158.8610 H   0  0  0  0  0  0  0  0  0  0  0  0
  148.7053  143.0461  155.4998 H   0  0  0  0  0  0  0  0  0  0  0  0
  147.7332  140.2934  156.0398 H   0  0  0  0  0  0  0  0  0  0  0  0
  148.5690  141.1177  153.2684 H   0  0  0  0  0  0  0  0  0  0  0  0
  149.7823  140.5584  154.3883 H   0  0  0  0  0  0  0  0  0  0  0  0
  148.0458  138.4979  154.7080 H   0  0  0  0  0  0  0  0  0  0  0  0
  147.4985  139.0258  153.1227 H   0  0  0  0  0  0  0  0  0  0  0  0
  149.1250  137.6540  152.7343 H   0  0  0  0  0  0  0  0  0  0  0  0
  145.8691  140.7616  154.5718 H   0  0  0  0  0  0  0  0  0  0  0  0
  147.2899  143.4299  153.8366 H   0  0  0  0  0  0  0  0  0  0  0  0
  145.6610  142.8362  153.2230 H   0  0  0  0  0  0  0  0  0  0  0  0
  144.8049  142.7553  155.5919 H   0  0  0  0  0  0  0  0  0  0  0  0
  146.4377  143.3457  156.1989 H   0  0  0  0  0  0  0  0  0  0  0  0
  1  2  2  0  0  0  0
  2  3  1  0  0  0  0
  2 10  1  0  0  0  0
  3  4  1  0  0  0  0
  3 18  1  0  0  0  0
  4  9  1  0  0  0  0
  4  5  2  0  0  0  0
  5  6  1  0  0  0  0
  5 19  1  0  0  0  0
  6  7  2  0  0  0  0
  6 20  1  0  0  0  0
  7  8  1  0  0  0  0
  7 21  1  0  0  0  0
  8  9  2  0  0  0  0
  9 22  1  0  0  0  0
 10 11  1  0  0  0  0
 10 23  1  0  0  0  0
 11 12  1  0  0  0  0
 11 15  1  0  0  0  0
 11 24  1  0  0  0  0
 12 13  1  0  0  0  0
 12 25  1  0  0  0  0
 12 26  1  0  0  0  0
 13 14  1  0  0  0  0
 13 27  1  0  0  0  0
 13 28  1  0  0  0  0
 14 29  1  0  0  0  0
 15 17  1  0  0  0  0
 15 16  1  0  0  0  0
 15 30  1  0  0  0  0
 16 17  1  0  0  0  0
 16 31  1  0  0  0  0
 16 32  1  0  0  0  0
 17 33  1  0  0  0  0
 17 34  1  0  0  0  0
M  END
> <s_m_source_file>
AV-unprocessed.smi

> <i_m_source_file_index>
810

> <i_lp_mmshare_version>
43012

> <i_f3d_flags>
0

> <s_epik_input>
W09IXVtDSDJdW0NIMl1bQ0BIXShbQ0hdMVtDSDJdW0NIMl0xKVtOSF1DKD1PKVtOSF1jMltjSF1bY0hdW2NIXW5bY0hdMg==

> <s_epik_cmdline>
J2VwaWtfcHl0aG9uJywgJy1waCcsICc3LjAnLCAnLXRuJywgJzgnLCAnLW1hJywgJzIwMCcsICctbWV0YWxfYmluZGluZycsICctaW1hZScsICc8aW5maWxlLm1hZT4nLCAnLW9tYWUnLCAnPG91dGZpbGUubWFlPic=

> <r_epik_Ionization_Penalty>
0.00486911

> <r_epik_Ionization_Penalty_Charging>
0

> <r_epik_Ionization_Penalty_Neutral>
0.00486911

> <r_epik_State_Penalty>
0.00350304

> <r_epik_Charging_Adjusted_Penalty>
0.00350304

> <i_epik_Tot_Q>
0

> <i_epik_Tot_abs_Q>
0

> <r_epik_Metal_State_Penalty>
-0

> <b_epik_Metal_Only>
0

> <s_lp_Force_Field>
OPLS_2005

> <r_lp_Energy>
17.5915

> <b_lp_Chiralities_Consistent>
1

> <s_lp_Variant>
AV-unprocessed.smi:810-1

> <Gold.Version>
5.8.1

> <Gold.Id.Protein>
6NUR|6NUR_protein|mol2

> <Gold.PLP.Fitness>
43.2485

> <Gold.PLP.PLP>
-33.2497

> <Gold.PLP.part.hbond>
-4.0000

> <Gold.PLP.part.metal>
0.0000

> <Gold.PLP.part.buried>
-3.8538

> <Gold.PLP.part.nonpolar>
-25.9418

> <Gold.PLP.part.repulsive>
0.3158

> <Gold.PLP.ligand.clash>
0.0000

> <Gold.PLP.ligand.torsion>
1.4700

> <Gold.PLP.Chemscore.Hbond>
2.9600

> <Gold.PLP.Chemscore.CHOScore>
0.9890

> <Gold.PLP.Chemscore.Metal>
0.0000

> <Gold.Chemscore.Hbonds>
donor molecule, donor type, donor heavy atom, donor atom, acceptor molecule, acceptor atom, score
      L1  H     3    18       P1  8028  1.00
      L1  H    10    23       P1  8028  0.94
      L1  H    14    29       P1  7948  1.00
      L1  C     9    22       P1  8029  1.00

> <Gold.PLP.Chemscore.Internal.Correction>
1.0917

> <Gold.Rescore>
     Score         DG    S(hbond)    S(metal)    S(lipo)     H(rot)  DE(clash)    DE(int)     intcor
     17.39     -18.97       2.84        0.00      84.87       2.31       0.07       1.50       ----

> <Gold.Chemscore.Fitness>
17.3916

> <Gold.Chemscore.DG>
-18.9692

> <Gold.Chemscore.ZeroCoef>
-5.4800

> <Gold.Chemscore.Hbond>
2.8361

> <Gold.Chemscore.Metal>
0.0000

> <Gold.Chemscore.Lipo>
84.8659

> <Gold.Chemscore.Internal_Hbond>
0.0000

> <Gold.Chemscore.DEClash>
0.0726

> <Gold.Chemscore.DEInternal>
1.5050

> <Gold.Chemscore.Rot>
2.3097

> <Gold.Chemscore.Internal.Correction>
   9.000000E+99

> <Gold.Chemscore.Hbonds>
donor molecule, donor type, donor heavy atom, donor atom, acceptor molecule, acceptor atom, score
      L1  H     3    18       P1  8028  0.90
      L1  H    10    23       P1  8028  0.91
      L1  H    14    29       P1  7948  0.99

> <Gold.Chemscore.Hbond.Weighted>
-9.4726

> <Gold.Chemscore.Metal.Weighted>
-0.0000

> <Gold.Chemscore.Lipo.Weighted>
-9.9293

> <Gold.Chemscore.Internal_Hbond.Weighted>
0.0000

> <Gold.Chemscore.DEClash.Weighted>
0.0726

> <Gold.Chemscore.DEInternal.Weighted>
1.5050

> <Gold.Chemscore.Rot.Weighted>
5.9127

> <Gold.Chemscore.Internal.Correction.Weighted>
   9.000000E+99

> <Gold.Protein.RotatedTorsions>
[ 6907 6896 6895 6894 ] final   94.39 input  -60.11 | X-H torsion
[ 7974 7965 7964 7962 ] final  119.69 input  175.53 | X-H torsion
[ 8008 7997 7996 7995 ] final  -47.42 input   59.86 | X-H torsion
[ 10167 10162 10161 10158 ] final   54.68 input  -65.29 | X-H torsion
[ 10718 10713 10712 10709 ] final  109.06 input   66.30 | X-H torsion
[ 10763 10752 10751 10750 ] final  104.66 input  -60.55 | X-H torsion
[ 11005 11000 10999 10996 ] final  172.89 input  -57.11 | X-H torsion

> <Gold.Protein.ActiveResidues>
 VAL166  LYS551  ARG553  GLY616  TRP617  ASP618  TYR619  PRO620  LYS621  CYS622 
 ASP623  PHE694  ASN695  SER759  ASP760  ASP761  ALA762  ILE779  LEU786  VAL792 
 PHE793  MET794  SER795  GLU796  ALA797  LYS798  CYS799  TRP800  GLU811  SER814 

> <Gold.Protein.RotatedAtoms>
  152.5449  134.1201  159.8394 H   0  0  0  0  0  0  0  0  0  0  0  0  # atno 6907 bound_to 6896
  151.1258  133.5064  159.2608 H   0  0  0  0  0  0  0  0  0  0  0  0  # atno 6908 bound_to 6896
  151.1729  135.0336  159.8814 H   0  0  0  0  0  0  0  0  0  0  0  0  # atno 6909 bound_to 6896
  145.1401  139.3273  143.4620 H   0  0  0  0  0  0  0  0  0  0  0  0  # atno 7974 bound_to 7965
  154.4016  140.1347  156.4173 H   0  0  0  0  0  0  0  0  0  0  0  0  # atno 8008 bound_to 7997
  155.7676  140.3484  155.5210 H   0  0  0  0  0  0  0  0  0  0  0  0  # atno 8009 bound_to 7997
  155.8798  140.0985  157.1483 H   0  0  0  0  0  0  0  0  0  0  0  0  # atno 8010 bound_to 7997
  140.2275  144.3723  150.6427 H   0  0  0  0  0  0  0  0  0  0  0  0  # atno 10167 bound_to 10162
  157.6558  131.0906  150.6398 H   0  0  0  0  0  0  0  0  0  0  0  0  # atno 10718 bound_to 10713
  153.3689  135.3936  155.1774 H   0  0  0  0  0  0  0  0  0  0  0  0  # atno 10763 bound_to 10752
  154.8691  135.3697  154.5003 H   0  0  0  0  0  0  0  0  0  0  0  0  # atno 10764 bound_to 10752
  153.5469  135.7083  153.5670 H   0  0  0  0  0  0  0  0  0  0  0  0  # atno 10765 bound_to 10752
  140.3346  134.7328  157.4159 H   0  0  0  0  0  0  0  0  0  0  0  0  # atno 11005 bound_to 11000
  146.3506  140.1435  142.8594 LP  0  0  0  0  0  0  0  0  0  0  0  0  # atno 17320 bound_to 7965
  145.0541  140.9039  143.4978 LP  0  0  0  0  0  0  0  0  0  0  0  0  # atno 17321 bound_to 7965
  140.6210  143.2176  151.6694 LP  0  0  0  0  0  0  0  0  0  0  0  0  # atno 17342 bound_to 10162
  139.5122  144.3484  152.0675 LP  0  0  0  0  0  0  0  0  0  0  0  0  # atno 17343 bound_to 10162
  156.6705  130.4538  149.5658 LP  0  0  0  0  0  0  0  0  0  0  0  0  # atno 17370 bound_to 10713
  156.2001  130.6614  151.1158 LP  0  0  0  0  0  0  0  0  0  0  0  0  # atno 17371 bound_to 10713
  140.0832  134.5702  155.8519 LP  0  0  0  0  0  0  0  0  0  0  0  0  # atno 17394 bound_to 11000
  141.2054  133.6647  156.6182 LP  0  0  0  0  0  0  0  0  0  0  0  0  # atno 17395 bound_to 11000

$$$$
