AV-unprocessed.smi:701|AV-procd|sdf|3409|dock1
  -GOLD-   22720 0393D 1   1.00000     0.00000
 Structure written by MMmdl.
 49 51  0  0  0  0  0  0  0  0  1 V2000
  151.8567  144.2375  158.0723 C   0  0  0  0  0  0  0  0  0  0  0  0
  151.2863  142.8664  158.4591 C   0  0  0  0  0  0  0  0  0  0  0  0
  150.3690  142.3631  157.4970 O   0  0  0  0  0  0  0  0  0  0  0  0
  150.9313  141.4745  156.5419 C   0  0  1  0  0  0  0  0  0  0  0  0
  151.6892  140.2986  157.1655 C   0  0  0  0  0  0  0  0  0  0  0  0
  151.1052  139.4592  156.0317 C   0  0  1  0  0  0  0  0  0  0  0  0
  150.7532  138.1097  156.4586 N   0  0  0  0  0  0  0  0  0  0  0  0
  151.0736  136.9944  155.7873 C   0  0  0  0  0  0  0  0  0  0  0  0
  151.7028  137.0043  154.7284 O   0  0  0  0  0  0  0  0  0  0  0  0
  150.5804  135.6745  156.3963 C   0  0  0  0  0  0  0  0  0  0  0  0
  149.7654  134.8830  155.4636 N   0  0  0  0  0  0  0  0  0  0  0  0
  150.1187  133.5756  155.1607 C   0  0  0  0  0  0  0  0  0  0  0  0
  149.4069  132.7866  154.3215 C   0  0  0  0  0  0  0  0  0  0  0  0
  148.1988  133.2927  153.6788 C   0  0  0  0  0  0  0  0  0  0  0  0
  147.4885  132.6566  152.9034 O   0  0  0  0  0  0  0  0  0  0  0  0
  147.8753  134.6110  154.0109 N   0  0  0  0  0  0  0  0  0  0  0  0
  148.6030  135.4286  154.8767 C   0  0  0  0  0  0  0  0  0  0  0  0
  148.2260  136.5774  155.1055 O   0  0  0  0  0  0  0  0  0  0  0  0
  149.9156  140.4557  155.9521 C   0  0  0  0  0  0  0  0  0  0  0  0
  148.6687  140.1206  156.8126 C   0  0  0  0  0  0  0  0  0  0  0  0
  147.5684  141.1990  156.7693 C   0  0  0  0  0  0  0  0  0  0  0  0
  147.1560  141.5292  155.3303 C   0  0  0  0  0  0  0  0  0  0  0  0
  148.3783  141.8767  154.4733 C   0  0  0  0  0  0  0  0  0  0  0  0
  149.4222  140.7508  154.5266 C   0  0  0  0  0  0  0  0  0  0  0  0
  147.0451  135.0041  153.5917 H   0  0  0  0  0  0  0  0  0  0  0  0
  152.6394  144.5388  158.7687 H   0  0  0  0  0  0  0  0  0  0  0  0
  151.0906  145.0117  158.0915 H   0  0  0  0  0  0  0  0  0  0  0  0
  152.2913  144.2140  157.0727 H   0  0  0  0  0  0  0  0  0  0  0  0
  152.1064  142.1514  158.5287 H   0  0  0  0  0  0  0  0  0  0  0  0
  150.8240  142.9004  159.4466 H   0  0  0  0  0  0  0  0  0  0  0  0
  151.5016  141.9769  155.7565 H   0  0  0  0  0  0  0  0  0  0  0  0
  152.7752  140.3882  157.1464 H   0  0  0  0  0  0  0  0  0  0  0  0
  151.3218  140.0260  158.1564 H   0  0  0  0  0  0  0  0  0  0  0  0
  151.7428  139.4919  155.1446 H   0  0  0  0  0  0  0  0  0  0  0  0
  150.2288  138.0198  157.3167 H   0  0  0  0  0  0  0  0  0  0  0  0
  151.4308  135.0863  156.7478 H   0  0  0  0  0  0  0  0  0  0  0  0
  150.0055  135.9112  157.2926 H   0  0  0  0  0  0  0  0  0  0  0  0
  151.0042  133.1574  155.6180 H   0  0  0  0  0  0  0  0  0  0  0  0
  149.7325  131.7753  154.1256 H   0  0  0  0  0  0  0  0  0  0  0  0
  148.2297  139.1816  156.4733 H   0  0  0  0  0  0  0  0  0  0  0  0
  148.9492  139.9512  157.8525 H   0  0  0  0  0  0  0  0  0  0  0  0
  146.6984  140.8603  157.3326 H   0  0  0  0  0  0  0  0  0  0  0  0
  147.9092  142.1079  157.2638 H   0  0  0  0  0  0  0  0  0  0  0  0
  146.6403  140.6729  154.8943 H   0  0  0  0  0  0  0  0  0  0  0  0
  146.4448  142.3557  155.3243 H   0  0  0  0  0  0  0  0  0  0  0  0
  148.0698  142.0503  153.4420 H   0  0  0  0  0  0  0  0  0  0  0  0
  148.8237  142.8080  154.8257 H   0  0  0  0  0  0  0  0  0  0  0  0
  150.2611  141.0183  153.8833 H   0  0  0  0  0  0  0  0  0  0  0  0
  148.9960  139.8476  154.0878 H   0  0  0  0  0  0  0  0  0  0  0  0
  1  2  1  0  0  0  0
  1 26  1  0  0  0  0
  1 27  1  0  0  0  0
  1 28  1  0  0  0  0
  2  3  1  0  0  0  0
  2 29  1  0  0  0  0
  2 30  1  0  0  0  0
  3  4  1  0  0  0  0
  4 19  1  0  0  0  0
  4  5  1  0  0  0  0
  4 31  1  0  0  0  0
  5  6  1  0  0  0  0
  5 32  1  0  0  0  0
  5 33  1  0  0  0  0
  6  7  1  0  0  0  0
  6 19  1  0  0  0  0
  6 34  1  0  0  0  0
  7  8  1  0  0  0  0
  7 35  1  0  0  0  0
  8  9  2  0  0  0  0
  8 10  1  0  0  0  0
 10 11  1  0  0  0  0
 10 36  1  0  0  0  0
 10 37  1  0  0  0  0
 11 17  1  0  0  0  0
 11 12  1  0  0  0  0
 12 13  2  0  0  0  0
 12 38  1  0  0  0  0
 13 14  1  0  0  0  0
 13 39  1  0  0  0  0
 14 15  2  0  0  0  0
 14 16  1  0  0  0  0
 16 25  1  0  0  0  0
 16 17  1  0  0  0  0
 17 18  2  0  0  0  0
 19 24  1  0  0  0  0
 19 20  1  0  0  0  0
 20 21  1  0  0  0  0
 20 40  1  0  0  0  0
 20 41  1  0  0  0  0
 21 22  1  0  0  0  0
 21 42  1  0  0  0  0
 21 43  1  0  0  0  0
 22 23  1  0  0  0  0
 22 44  1  0  0  0  0
 22 45  1  0  0  0  0
 23 24  1  0  0  0  0
 23 46  1  0  0  0  0
 23 47  1  0  0  0  0
 24 48  1  0  0  0  0
 24 49  1  0  0  0  0
M  END
> <s_m_source_file>
AV-unprocessed.smi

> <i_m_source_file_index>
701

> <i_lp_mmshare_version>
43012

> <i_f3d_flags>
0

> <s_epik_input>
W0NIMl0xW0NIMl1bQ0gyXVtDSDJdW0NIMl1DMTJbQ0BIXShPW0NIMl1bQ0gzXSlbQ0gyXVtDQEhdMltOSF1DKD1PKVtDSDJdbjNbY0hdW2NIXWMoPU8pW25IXWMzPU8=

> <s_epik_cmdline>
J2VwaWtfcHl0aG9uJywgJy1waCcsICc3LjAnLCAnLXRuJywgJzgnLCAnLW1hJywgJzIwMCcsICctbWV0YWxfYmluZGluZycsICctaW1hZScsICc8aW5maWxlLm1hZT4nLCAnLW9tYWUnLCAnPG91dGZpbGUubWFlPic=

> <r_lp_tautomer_probability>
0.999537

> <r_epik_Ionization_Penalty>
0.00304597

> <r_epik_Ionization_Penalty_Charging>
0.00304595

> <r_epik_Ionization_Penalty_Neutral>
1.88422e-08

> <r_epik_State_Penalty>
0.00214084

> <r_epik_Charging_Adjusted_Penalty>
0.00518679

> <i_epik_Tot_Q>
0

> <i_epik_Tot_abs_Q>
0

> <r_epik_Metal_State_Penalty>
0.361872

> <b_epik_Metal_Only>
0

> <s_lp_Force_Field>
OPLS_2005

> <r_lp_Energy>
28.8847

> <b_lp_Chiralities_Consistent>
1

> <s_lp_Variant>
AV-unprocessed.smi:701-2

> <Gold.Version>
5.8.1

> <Gold.Id.Protein>
6NUR|6NUR_protein|mol2

> <Gold.PLP.Fitness>
41.3714

> <Gold.PLP.PLP>
-39.0313

> <Gold.PLP.part.hbond>
-2.0000

> <Gold.PLP.part.metal>
0.0000

> <Gold.PLP.part.buried>
-4.6937

> <Gold.PLP.part.nonpolar>
-32.5486

> <Gold.PLP.part.repulsive>
0.5524

> <Gold.PLP.ligand.clash>
0.0000

> <Gold.PLP.ligand.torsion>
0.5431

> <Gold.PLP.Chemscore.Hbond>
0.9920

> <Gold.PLP.Chemscore.CHOScore>
0.0000

> <Gold.PLP.Chemscore.Metal>
0.0000

> <Gold.Chemscore.Hbonds>
donor molecule, donor type, donor heavy atom, donor atom, acceptor molecule, acceptor atom, score
      P1  H 10752 10764       L1     9  0.86

> <Gold.PLP.Chemscore.Internal.Correction>
0.4503

> <Gold.Rescore>
     Score         DG    S(hbond)    S(metal)    S(lipo)     H(rot)  DE(clash)    DE(int)     intcor
     12.51     -13.56       0.83        0.00      91.19       2.09       0.17       0.88       ----

> <Gold.Chemscore.Fitness>
12.5084

> <Gold.Chemscore.DG>
-13.5608

> <Gold.Chemscore.ZeroCoef>
-5.4800

> <Gold.Chemscore.Hbond>
0.8294

> <Gold.Chemscore.Metal>
0.0000

> <Gold.Chemscore.Lipo>
91.1905

> <Gold.Chemscore.Internal_Hbond>
0.0000

> <Gold.Chemscore.DEClash>
0.1687

> <Gold.Chemscore.DEInternal>
0.8837

> <Gold.Chemscore.Rot>
2.0933

> <Gold.Chemscore.Internal.Correction>
   9.000000E+99

> <Gold.Chemscore.Hbonds>
donor molecule, donor type, donor heavy atom, donor atom, acceptor molecule, acceptor atom, score
      P1  H 10752 10764       L1     9  0.84

> <Gold.Chemscore.Hbond.Weighted>
-2.7703

> <Gold.Chemscore.Metal.Weighted>
-0.0000

> <Gold.Chemscore.Lipo.Weighted>
-10.6693

> <Gold.Chemscore.Internal_Hbond.Weighted>
0.0000

> <Gold.Chemscore.DEClash.Weighted>
0.1687

> <Gold.Chemscore.DEInternal.Weighted>
0.8837

> <Gold.Chemscore.Rot.Weighted>
5.3588

> <Gold.Chemscore.Internal.Correction.Weighted>
   9.000000E+99

> <Gold.Protein.RotatedTorsions>
[ 6907 6896 6895 6894 ] final   -2.49 input  -60.11 | X-H torsion
[ 7974 7965 7964 7962 ] final   43.01 input  175.53 | X-H torsion
[ 8008 7997 7996 7995 ] final  -38.13 input   59.86 | X-H torsion
[ 10167 10162 10161 10158 ] final   56.47 input  -65.29 | X-H torsion
[ 10718 10713 10712 10709 ] final  148.61 input   66.30 | X-H torsion
[ 10763 10752 10751 10750 ] final  -89.89 input  -60.55 | X-H torsion
[ 11005 11000 10999 10996 ] final   33.13 input  -57.11 | X-H torsion

> <Gold.Protein.ActiveResidues>
 VAL166  LYS551  ARG553  GLY616  TRP617  ASP618  TYR619  PRO620  LYS621  CYS622 
 ASP623  PHE694  ASN695  SER759  ASP760  ASP761  ALA762  ILE779  LEU786  VAL792 
 PHE793  MET794  SER795  GLU796  ALA797  LYS798  CYS799  TRP800  GLU811  SER814 

> <Gold.Protein.RotatedAtoms>
  151.5290  135.1068  159.9897 H   0  0  0  0  0  0  0  0  0  0  0  0  # atno 6907 bound_to 6896
  152.4587  133.7772  159.6841 H   0  0  0  0  0  0  0  0  0  0  0  0  # atno 6908 bound_to 6896
  150.8540  133.7678  159.3040 H   0  0  0  0  0  0  0  0  0  0  0  0  # atno 6909 bound_to 6896
  146.0692  139.5235  142.9608 H   0  0  0  0  0  0  0  0  0  0  0  0  # atno 7974 bound_to 7965
  154.4042  140.1586  156.2649 H   0  0  0  0  0  0  0  0  0  0  0  0  # atno 8008 bound_to 7997
  155.9004  140.3433  155.6000 H   0  0  0  0  0  0  0  0  0  0  0  0  # atno 8009 bound_to 7997
  155.7455  140.0798  157.2216 H   0  0  0  0  0  0  0  0  0  0  0  0  # atno 8010 bound_to 7997
  140.2084  144.3915  150.6499 H   0  0  0  0  0  0  0  0  0  0  0  0  # atno 10167 bound_to 10162
  157.3064  131.0880  151.1350 H   0  0  0  0  0  0  0  0  0  0  0  0  # atno 10718 bound_to 10713
  154.6601  135.5324  153.8007 H   0  0  0  0  0  0  0  0  0  0  0  0  # atno 10763 bound_to 10752
  153.0437  135.6503  154.0885 H   0  0  0  0  0  0  0  0  0  0  0  0  # atno 10764 bound_to 10752
  154.0795  135.2948  155.3273 H   0  0  0  0  0  0  0  0  0  0  0  0  # atno 10765 bound_to 10752
  140.2663  134.3134  155.7841 H   0  0  0  0  0  0  0  0  0  0  0  0  # atno 11005 bound_to 11000
  145.6422  141.0282  143.1805 LP  0  0  0  0  0  0  0  0  0  0  0  0  # atno 17320 bound_to 7965
  144.7221  139.7995  143.7378 LP  0  0  0  0  0  0  0  0  0  0  0  0  # atno 17321 bound_to 7965
  140.6341  143.2192  151.6433 LP  0  0  0  0  0  0  0  0  0  0  0  0  # atno 17342 bound_to 10162
  139.5189  144.3268  152.0861 LP  0  0  0  0  0  0  0  0  0  0  0  0  # atno 17343 bound_to 10162
  157.2689  130.6694  149.6010 LP  0  0  0  0  0  0  0  0  0  0  0  0  # atno 17370 bound_to 10713
  155.9675  130.4485  150.5623 LP  0  0  0  0  0  0  0  0  0  0  0  0  # atno 17371 bound_to 10713
  141.2183  133.7440  156.9265 LP  0  0  0  0  0  0  0  0  0  0  0  0  # atno 17394 bound_to 11000
  140.1416  134.9290  157.2474 LP  0  0  0  0  0  0  0  0  0  0  0  0  # atno 17395 bound_to 11000

$$$$
