AV-unprocessed.smi:524|AV-procd|sdf|2806|dock1
  -GOLD-   2262023283D 1   1.00000     0.00000
 Structure written by MMmdl.
 42 44  0  0  0  0  0  0  0  0  2 V2000
  151.0210  136.9587  154.6694 C   0  0  0  0  0  0  0  0  0  0  0  0
  152.1553  137.7444  154.3528 O   0  0  0  0  0  0  0  0  0  0  0  0
  152.0900  139.0478  154.9084 C   0  0  0  0  0  0  0  0  0  0  0  0
  151.8431  138.9496  156.4200 C   0  0  0  0  0  0  0  0  0  0  0  0
  151.3439  140.2069  156.9760 N   0  0  0  0  0  0  0  0  0  0  0  0
  150.3146  140.9867  156.5397 C   0  0  0  0  0  0  0  0  0  0  0  0
  149.5155  140.6455  155.4454 N   0  0  0  0  0  0  0  0  0  0  0  0
  149.1030  139.2734  155.1495 C   0  0  0  0  0  0  0  0  0  0  0  0
  147.5923  139.1832  154.8671 C   0  0  0  0  0  0  0  0  0  0  0  0
  147.1980  140.1075  153.7072 C   0  0  0  0  0  0  0  0  0  0  0  0
  147.7214  141.5262  153.9687 C   0  0  0  0  0  0  0  0  0  0  0  0
  149.2273  141.4919  154.2866 C   0  0  0  0  0  0  0  0  0  0  0  0
  150.1556  142.1245  157.2196 N   0  0  0  0  0  0  0  0  0  0  0  0
  151.1458  142.0547  158.1861 C   0  0  0  0  0  0  0  0  0  0  0  0
  151.8795  140.9175  158.0565 C   0  0  0  0  0  0  0  0  0  0  0  0
  153.0333  140.5822  158.9217 C   0  0  0  0  0  0  0  0  0  0  0  0
  153.6835  139.5539  158.7457 O   0  0  0  0  0  0  0  0  0  0  0  0
  153.2540  141.5345  159.8826 N   0  5  0  0  0  0  0  0  0  0  0  0
  152.5303  142.6947  160.0547 C   0  0  0  0  0  0  0  0  0  0  0  0
  152.7979  143.5016  160.9460 O   0  0  0  0  0  0  0  0  0  0  0  0
  151.4818  142.9732  159.2180 N   0  0  0  0  0  0  0  0  0  0  0  0
  150.7012  144.2042  159.3708 C   0  0  0  0  0  0  0  0  0  0  0  0
  151.1273  135.9687  154.2260 H   0  0  0  0  0  0  0  0  0  0  0  0
  150.1086  137.4082  154.2754 H   0  0  0  0  0  0  0  0  0  0  0  0
  150.9151  136.8353  155.7478 H   0  0  0  0  0  0  0  0  0  0  0  0
  153.0243  139.5792  154.7222 H   0  0  0  0  0  0  0  0  0  0  0  0
  151.2903  139.6174  154.4325 H   0  0  0  0  0  0  0  0  0  0  0  0
  151.1494  138.1405  156.6189 H   0  0  0  0  0  0  0  0  0  0  0  0
  152.7554  138.6627  156.9405 H   0  0  0  0  0  0  0  0  0  0  0  0
  149.6720  138.9016  154.2965 H   0  0  0  0  0  0  0  0  0  0  0  0
  149.3510  138.6280  155.9929 H   0  0  0  0  0  0  0  0  0  0  0  0
  147.3155  138.1543  154.6359 H   0  0  0  0  0  0  0  0  0  0  0  0
  147.0359  139.4599  155.7632 H   0  0  0  0  0  0  0  0  0  0  0  0
  147.6219  139.7276  152.7768 H   0  0  0  0  0  0  0  0  0  0  0  0
  146.1153  140.1175  153.5786 H   0  0  0  0  0  0  0  0  0  0  0  0
  147.5363  142.1590  153.1005 H   0  0  0  0  0  0  0  0  0  0  0  0
  147.1741  141.9702  154.8006 H   0  0  0  0  0  0  0  0  0  0  0  0
  149.6148  142.4982  154.4420 H   0  0  0  0  0  0  0  0  0  0  0  0
  149.7732  141.1013  153.4268 H   0  0  0  0  0  0  0  0  0  0  0  0
  150.2761  144.2684  160.3735 H   0  0  0  0  0  0  0  0  0  0  0  0
  149.8740  144.2688  158.6644 H   0  0  0  0  0  0  0  0  0  0  0  0
  151.3350  145.0777  159.2124 H   0  0  0  0  0  0  0  0  0  0  0  0
  1  2  1  0  0  0  0
  1 23  1  0  0  0  0
  1 24  1  0  0  0  0
  1 25  1  0  0  0  0
  2  3  1  0  0  0  0
  3  4  1  0  0  0  0
  3 26  1  0  0  0  0
  3 27  1  0  0  0  0
  4  5  1  0  0  0  0
  4 28  1  0  0  0  0
  4 29  1  0  0  0  0
  5 15  1  0  0  0  0
  5  6  1  0  0  0  0
  6  7  1  0  0  0  0
  6 13  2  0  0  0  0
  7 12  1  0  0  0  0
  7  8  1  0  0  0  0
  8  9  1  0  0  0  0
  8 30  1  0  0  0  0
  8 31  1  0  0  0  0
  9 10  1  0  0  0  0
  9 32  1  0  0  0  0
  9 33  1  0  0  0  0
 10 11  1  0  0  0  0
 10 34  1  0  0  0  0
 10 35  1  0  0  0  0
 11 12  1  0  0  0  0
 11 36  1  0  0  0  0
 11 37  1  0  0  0  0
 12 38  1  0  0  0  0
 12 39  1  0  0  0  0
 13 14  1  0  0  0  0
 14 21  1  0  0  0  0
 14 15  2  0  0  0  0
 15 16  1  0  0  0  0
 16 17  2  0  0  0  0
 16 18  1  0  0  0  0
 18 19  1  0  0  0  0
 19 20  2  0  0  0  0
 19 21  1  0  0  0  0
 21 22  1  0  0  0  0
 22 40  1  0  0  0  0
 22 41  1  0  0  0  0
 22 42  1  0  0  0  0
M  CHG  1  18  -1
M  END
> <s_m_source_file>
AV-unprocessed.smi

> <i_m_source_file_index>
524

> <i_lp_mmshare_version>
43012

> <i_f3d_flags>
0

> <s_epik_input>
W0NIM11uMWMoPU8pW25IXWMoPU8pYyhjMTIpbihbQ0gyXVtDSDJdT1tDSDNdKWMobjIpTjNbQ0gyXVtDSDJdW0NIMl1bQ0gyXVtDSDJdMw==

> <s_epik_cmdline>
J2VwaWtfcHl0aG9uJywgJy1waCcsICc3LjAnLCAnLXRuJywgJzgnLCAnLW1hJywgJzIwMCcsICctbWV0YWxfYmluZGluZycsICctaW1hZScsICc8aW5maWxlLm1hZT4nLCAnLW9tYWUnLCAnPG91dGZpbGUubWFlPic=

> <r_lp_tautomer_probability>
1

> <r_epik_Ionization_Penalty>
5.09461

> <r_epik_Ionization_Penalty_Charging>
0.078064

> <r_epik_Ionization_Penalty_Neutral>
5.01654

> <r_epik_State_Penalty>
5.01281

> <r_epik_Charging_Adjusted_Penalty>
5.09087

> <i_epik_Tot_Q>
-1

> <i_epik_Tot_abs_Q>
1

> <r_epik_Metal_State_Penalty>
1.12909

> <b_epik_Metal_Only>
1

> <s_lp_Force_Field>
OPLS_2005

> <r_lp_Energy>
41.0117

> <b_lp_Chiralities_Consistent>
1

> <s_lp_Variant>
AV-unprocessed.smi:524-2

> <Gold.Version>
5.8.1

> <Gold.Id.Protein>
6NUR|6NUR_protein|mol2

> <Gold.PLP.Fitness>
39.6280

> <Gold.PLP.PLP>
-37.7306

> <Gold.PLP.part.hbond>
-2.0000

> <Gold.PLP.part.metal>
0.0000

> <Gold.PLP.part.buried>
-4.6798

> <Gold.PLP.part.nonpolar>
-32.0388

> <Gold.PLP.part.repulsive>
0.3094

> <Gold.PLP.ligand.clash>
0.0000

> <Gold.PLP.ligand.torsion>
0.8824

> <Gold.PLP.Chemscore.Hbond>
1.0899

> <Gold.PLP.Chemscore.CHOScore>
0.0000

> <Gold.PLP.Chemscore.Metal>
0.0000

> <Gold.Chemscore.Hbonds>
donor molecule, donor type, donor heavy atom, donor atom, acceptor molecule, acceptor atom, score
      P1  H  7997  8010       L1    17  1.00
      P1  H 10752 10765       L1     2  0.05

> <Gold.PLP.Chemscore.Internal.Correction>
0.3923

> <Gold.Rescore>
     Score         DG    S(hbond)    S(metal)    S(lipo)     H(rot)  DE(clash)    DE(int)     intcor
     10.64     -11.98       0.87        0.00      62.71       1.46       0.36       0.98       ----

> <Gold.Chemscore.Fitness>
10.6385

> <Gold.Chemscore.DG>
-11.9815

> <Gold.Chemscore.ZeroCoef>
-5.4800

> <Gold.Chemscore.Hbond>
0.8718

> <Gold.Chemscore.Metal>
0.0000

> <Gold.Chemscore.Lipo>
62.7101

> <Gold.Chemscore.Internal_Hbond>
0.0000

> <Gold.Chemscore.DEClash>
0.3612

> <Gold.Chemscore.DEInternal>
0.9818

> <Gold.Chemscore.Rot>
1.4639

> <Gold.Chemscore.Internal.Correction>
   9.000000E+99

> <Gold.Chemscore.Hbonds>
donor molecule, donor type, donor heavy atom, donor atom, acceptor molecule, acceptor atom, score
      P1  H  7997  8010       L1    17  0.43

> <Gold.Chemscore.Hbond.Weighted>
-2.9119

> <Gold.Chemscore.Metal.Weighted>
-0.0000

> <Gold.Chemscore.Lipo.Weighted>
-7.3371

> <Gold.Chemscore.Internal_Hbond.Weighted>
0.0000

> <Gold.Chemscore.DEClash.Weighted>
0.3612

> <Gold.Chemscore.DEInternal.Weighted>
0.9818

> <Gold.Chemscore.Rot.Weighted>
3.7475

> <Gold.Chemscore.Internal.Correction.Weighted>
   9.000000E+99

> <Gold.Protein.RotatedTorsions>
[ 6907 6896 6895 6894 ] final  -11.67 input  -60.11 | X-H torsion
[ 7974 7965 7964 7962 ] final  117.55 input  175.53 | X-H torsion
[ 8008 7997 7996 7995 ] final   10.32 input   59.86 | X-H torsion
[ 10167 10162 10161 10158 ] final  103.61 input  -65.29 | X-H torsion
[ 10718 10713 10712 10709 ] final  -73.53 input   66.30 | X-H torsion
[ 10763 10752 10751 10750 ] final  131.58 input  -60.55 | X-H torsion
[ 11005 11000 10999 10996 ] final  116.48 input  -57.11 | X-H torsion

> <Gold.Protein.ActiveResidues>
 VAL166  LYS551  ARG553  GLY616  TRP617  ASP618  TYR619  PRO620  LYS621  CYS622 
 ASP623  PHE694  ASN695  SER759  ASP760  ASP761  ALA762  ILE779  LEU786  VAL792 
 PHE793  MET794  SER795  GLU796  ALA797  LYS798  CYS799  TRP800  GLU811  SER814 

> <Gold.Protein.RotatedAtoms>
  151.3825  135.0942  159.9500 H   0  0  0  0  0  0  0  0  0  0  0  0  # atno 6907 bound_to 6896
  152.5104  133.9058  159.7474 H   0  0  0  0  0  0  0  0  0  0  0  0  # atno 6908 bound_to 6896
  150.9495  133.6510  159.2803 H   0  0  0  0  0  0  0  0  0  0  0  0  # atno 6909 bound_to 6896
  145.1661  139.3128  143.4492 H   0  0  0  0  0  0  0  0  0  0  0  0  # atno 7974 bound_to 7965
  154.7918  140.2837  155.5986 H   0  0  0  0  0  0  0  0  0  0  0  0  # atno 8008 bound_to 7997
  156.2965  140.2603  156.2696 H   0  0  0  0  0  0  0  0  0  0  0  0  # atno 8009 bound_to 7997
  154.9661  140.0377  157.2202 H   0  0  0  0  0  0  0  0  0  0  0  0  # atno 8010 bound_to 7997
  139.7248  144.7050  151.0815 H   0  0  0  0  0  0  0  0  0  0  0  0  # atno 10167 bound_to 10162
  156.0276  130.4396  150.2757 H   0  0  0  0  0  0  0  0  0  0  0  0  # atno 10718 bound_to 10713
  153.7767  135.3174  155.3360 H   0  0  0  0  0  0  0  0  0  0  0  0  # atno 10763 bound_to 10752
  154.8177  135.4625  154.0691 H   0  0  0  0  0  0  0  0  0  0  0  0  # atno 10764 bound_to 10752
  153.1967  135.6916  153.8367 H   0  0  0  0  0  0  0  0  0  0  0  0  # atno 10765 bound_to 10752
  139.9043  134.9598  156.7205 H   0  0  0  0  0  0  0  0  0  0  0  0  # atno 11005 bound_to 11000
  146.3475  140.1789  142.8589 LP  0  0  0  0  0  0  0  0  0  0  0  0  # atno 17320 bound_to 7965
  145.0281  140.8848  143.5126 LP  0  0  0  0  0  0  0  0  0  0  0  0  # atno 17321 bound_to 7965
  140.7760  143.5119  150.9642 LP  0  0  0  0  0  0  0  0  0  0  0  0  # atno 17342 bound_to 10162
  139.8806  143.7076  152.3157 LP  0  0  0  0  0  0  0  0  0  0  0  0  # atno 17343 bound_to 10162
  157.0860  131.0156  151.3139 LP  0  0  0  0  0  0  0  0  0  0  0  0  # atno 17370 bound_to 10713
  157.4891  130.7811  149.7489 LP  0  0  0  0  0  0  0  0  0  0  0  0  # atno 17371 bound_to 10713
  140.7004  133.9311  155.8021 LP  0  0  0  0  0  0  0  0  0  0  0  0  # atno 17394 bound_to 11000
  141.0376  134.0668  157.3941 LP  0  0  0  0  0  0  0  0  0  0  0  0  # atno 17395 bound_to 11000

$$$$
