AV-unprocessed.smi:912|AV-procd|sdf|4147|dock2
  -GOLD-   22720 2 53D 1   1.00000     0.00000
 Structure written by MMmdl.
 26 26  0  0  0  0  0  0  0  0  3 V2000
  146.2204  137.5902  152.0355 C   0  0  0  0  0  0  0  0  0  0  0  0
  146.2024  136.2072  151.5058 N   0  3  0  0  0  0  0  0  0  0  0  0
  145.3798  135.1926  152.2297 C   0  0  2  0  0  0  0  0  0  0  0  0
  144.0087  135.7921  152.6296 C   0  0  0  0  0  0  0  0  0  0  0  0
  146.1864  134.7384  153.4844 C   0  0  0  0  0  0  0  0  0  0  0  0
  147.4599  134.3772  153.2066 N   0  5  0  0  0  0  0  0  0  0  0  0
  145.6532  134.7369  154.5931 O   0  0  0  0  0  0  0  0  0  0  0  0
  145.1033  133.9968  151.2901 C   0  0  0  0  0  0  0  0  0  0  0  0
  146.1473  133.1771  150.7912 C   0  0  0  0  0  0  0  0  0  0  0  0
  145.8299  132.0822  149.9638 C   0  0  0  0  0  0  0  0  0  0  0  0
  144.5677  131.7500  149.6246 N   0  0  0  0  0  0  0  0  0  0  0  0
  143.5681  132.5100  150.1151 C   0  0  0  0  0  0  0  0  0  0  0  0
  143.7780  133.6264  150.9488 C   0  0  0  0  0  0  0  0  0  0  0  0
  146.9378  138.1830  151.4687 H   0  0  0  0  0  0  0  0  0  0  0  0
  146.5199  137.6209  153.0832 H   0  0  0  0  0  0  0  0  0  0  0  0
  145.2468  138.0691  151.9339 H   0  0  0  0  0  0  0  0  0  0  0  0
  145.8777  136.2443  150.5511 H   0  0  0  0  0  0  0  0  0  0  0  0
  143.3640  135.0356  153.0798 H   0  0  0  0  0  0  0  0  0  0  0  0
  143.4824  136.1871  151.7601 H   0  0  0  0  0  0  0  0  0  0  0  0
  144.1002  136.6016  153.3545 H   0  0  0  0  0  0  0  0  0  0  0  0
  147.9625  134.8573  152.4510 H   0  0  0  0  0  0  0  0  0  0  0  0
  147.1821  133.3702  151.0330 H   0  0  0  0  0  0  0  0  0  0  0  0
  146.6129  131.4507  149.5709 H   0  0  0  0  0  0  0  0  0  0  0  0
  142.5657  132.2157  149.8409 H   0  0  0  0  0  0  0  0  0  0  0  0
  142.9217  134.1725  151.3145 H   0  0  0  0  0  0  0  0  0  0  0  0
  147.1514  135.8600  151.5083 H   0  0  0  0  0  0  0  0  0  0  0  0
  1  2  1  0  0  0  0
  1 14  1  0  0  0  0
  1 15  1  0  0  0  0
  1 16  1  0  0  0  0
  2  3  1  0  0  0  0
  2 17  1  0  0  0  0
  2 26  1  0  0  0  0
  3  4  1  0  0  0  0
  3  5  1  0  0  0  0
  3  8  1  0  0  0  0
  4 18  1  0  0  0  0
  4 19  1  0  0  0  0
  4 20  1  0  0  0  0
  5  6  1  0  0  0  0
  5  7  2  0  0  0  0
  6 21  1  0  0  0  0
  8 13  1  0  0  0  0
  8  9  2  0  0  0  0
  9 10  1  0  0  0  0
  9 22  1  0  0  0  0
 10 11  2  0  0  0  0
 10 23  1  0  0  0  0
 11 12  1  0  0  0  0
 12 13  2  0  0  0  0
 12 24  1  0  0  0  0
 13 25  1  0  0  0  0
M  CHG  1   2   1
M  CHG  1   6  -1
M  END
> <s_m_source_file>
AV-unprocessed.smi

> <i_m_source_file_index>
912

> <i_lp_mmshare_version>
43012

> <i_f3d_flags>
0

> <s_epik_input>
W0NIM11bTkhdW0NAQF0oW0NIM10pKEMoPU8pW05IMl0pYzFbY0hdW2NIXW5bY0hdW2NIXTE=

> <s_epik_cmdline>
J2VwaWtfcHl0aG9uJywgJy1waCcsICc3LjAnLCAnLXRuJywgJzgnLCAnLW1hJywgJzIwMCcsICctbWV0YWxfYmluZGluZycsICctaW1hZScsICc8aW5maWxlLm1hZT4nLCAnLW9tYWUnLCAnPG91dGZpbGUubWFlPic=

> <r_epik_Ionization_Penalty>
6.88213

> <r_epik_Ionization_Penalty_Charging>
6.88153

> <r_epik_Ionization_Penalty_Neutral>
0.000601258

> <r_epik_State_Penalty>
7.02604

> <r_epik_Charging_Adjusted_Penalty>
13.9076

> <i_epik_Tot_Q>
0

> <i_epik_Tot_abs_Q>
2

> <r_epik_Metal_State_Penalty>
3.10652

> <b_epik_Metal_Only>
1

> <s_lp_Force_Field>
OPLS_2005

> <r_lp_Energy>
7.66147

> <b_lp_Chiralities_Consistent>
1

> <s_lp_Variant>
AV-unprocessed.smi:912-8

> <Gold.Version>
5.8.1

> <Gold.Id.Protein>
6NUR|6NUR_protein|mol2

> <Gold.PLP.Fitness>
37.3485

> <Gold.PLP.PLP>
-22.1577

> <Gold.PLP.part.hbond>
-3.0000

> <Gold.PLP.part.metal>
0.0000

> <Gold.PLP.part.buried>
-2.0762

> <Gold.PLP.part.nonpolar>
-18.7085

> <Gold.PLP.part.repulsive>
0.2972

> <Gold.PLP.ligand.clash>
0.0134

> <Gold.PLP.ligand.torsion>
0.4950

> <Gold.PLP.Chemscore.Hbond>
3.1418

> <Gold.PLP.Chemscore.CHOScore>
2.2449

> <Gold.PLP.Chemscore.Metal>
0.0000

> <Gold.Chemscore.Hbonds>
donor molecule, donor type, donor heavy atom, donor atom, acceptor molecule, acceptor atom, score
      L1  H     2    26       P1  7948  1.92
      L1  H     6    21       P1  7948  1.00
      P1  H 10785 10796       L1    11  0.15
      L1  C    10    23       P1 10747  1.00
      L1  C    12    24       P1 10186  0.34
      L1  C    12    24       P1 10952  0.92

> <Gold.PLP.Chemscore.Internal.Correction>
0.0341

> <Gold.Rescore>
     Score         DG    S(hbond)    S(metal)    S(lipo)     H(rot)  DE(clash)    DE(int)     intcor
     13.55     -14.38       1.98        0.00      59.14       1.80       0.07       0.76       ----

> <Gold.Chemscore.Fitness>
13.5458

> <Gold.Chemscore.DG>
-14.3803

> <Gold.Chemscore.ZeroCoef>
-5.4800

> <Gold.Chemscore.Hbond>
1.9757

> <Gold.Chemscore.Metal>
0.0000

> <Gold.Chemscore.Lipo>
59.1352

> <Gold.Chemscore.Internal_Hbond>
0.0000

> <Gold.Chemscore.DEClash>
0.0706

> <Gold.Chemscore.DEInternal>
0.7639

> <Gold.Chemscore.Rot>
1.8037

> <Gold.Chemscore.Internal.Correction>
   9.000000E+99

> <Gold.Chemscore.Hbonds>
donor molecule, donor type, donor heavy atom, donor atom, acceptor molecule, acceptor atom, score
      L1  H     2    26       P1  7948  0.92
      L1  H     6    21       P1  7948  0.72
      P1  H 10785 10796       L1    11  0.02

> <Gold.Chemscore.Hbond.Weighted>
-6.5989

> <Gold.Chemscore.Metal.Weighted>
-0.0000

> <Gold.Chemscore.Lipo.Weighted>
-6.9188

> <Gold.Chemscore.Internal_Hbond.Weighted>
0.0000

> <Gold.Chemscore.DEClash.Weighted>
0.0706

> <Gold.Chemscore.DEInternal.Weighted>
0.7639

> <Gold.Chemscore.Rot.Weighted>
4.6174

> <Gold.Chemscore.Internal.Correction.Weighted>
   9.000000E+99

> <Gold.Protein.RotatedTorsions>
[ 6907 6896 6895 6894 ] final  -85.99 input  -60.11 | X-H torsion
[ 7974 7965 7964 7962 ] final   91.41 input  175.53 | X-H torsion
[ 8008 7997 7996 7995 ] final -117.83 input   59.86 | X-H torsion
[ 10167 10162 10161 10158 ] final -158.50 input  -65.29 | X-H torsion
[ 10718 10713 10712 10709 ] final  -85.39 input   66.30 | X-H torsion
[ 10763 10752 10751 10750 ] final -112.47 input  -60.55 | X-H torsion
[ 11005 11000 10999 10996 ] final -159.14 input  -57.11 | X-H torsion

> <Gold.Protein.ActiveResidues>
 VAL166  LYS551  ARG553  GLY616  TRP617  ASP618  TYR619  PRO620  LYS621  CYS622 
 ASP623  PHE694  ASN695  SER759  ASP760  ASP761  ALA762  ILE779  LEU786  VAL792 
 PHE793  MET794  SER795  GLU796  ALA797  LYS798  CYS799  TRP800  GLU811  SER814 

> <Gold.Protein.RotatedAtoms>
  150.6868  134.3120  159.4750 H   0  0  0  0  0  0  0  0  0  0  0  0  # atno 6907 bound_to 6896
  152.1005  134.9342  160.0579 H   0  0  0  0  0  0  0  0  0  0  0  0  # atno 6908 bound_to 6896
  152.0623  133.4033  159.4460 H   0  0  0  0  0  0  0  0  0  0  0  0  # atno 6909 bound_to 6896
  145.5060  139.2276  143.2751 H   0  0  0  0  0  0  0  0  0  0  0  0  # atno 7974 bound_to 7965
  155.0900  140.0395  157.2665 H   0  0  0  0  0  0  0  0  0  0  0  0  # atno 8008 bound_to 7997
  154.6839  140.2639  155.6855 H   0  0  0  0  0  0  0  0  0  0  0  0  # atno 8009 bound_to 7997
  156.2705  140.2773  156.1394 H   0  0  0  0  0  0  0  0  0  0  0  0  # atno 8010 bound_to 7997
  139.6687  143.9783  152.2271 H   0  0  0  0  0  0  0  0  0  0  0  0  # atno 10167 bound_to 10162
  155.9997  130.4729  150.4554 H   0  0  0  0  0  0  0  0  0  0  0  0  # atno 10718 bound_to 10713
  154.8351  135.4489  154.1199 H   0  0  0  0  0  0  0  0  0  0  0  0  # atno 10763 bound_to 10752
  153.2438  135.6919  153.7760 H   0  0  0  0  0  0  0  0  0  0  0  0  # atno 10764 bound_to 10752
  153.7098  135.3358  155.3219 H   0  0  0  0  0  0  0  0  0  0  0  0  # atno 10765 bound_to 10752
  140.6458  134.4503  157.5234 H   0  0  0  0  0  0  0  0  0  0  0  0  # atno 11005 bound_to 11000
  146.2196  140.5864  142.9023 LP  0  0  0  0  0  0  0  0  0  0  0  0  # atno 17320 bound_to 7965
  144.7753  140.5726  143.6642 LP  0  0  0  0  0  0  0  0  0  0  0  0  # atno 17321 bound_to 7965
  139.9541  144.6601  150.8143 LP  0  0  0  0  0  0  0  0  0  0  0  0  # atno 17342 bound_to 10162
  140.7610  143.3163  151.2725 LP  0  0  0  0  0  0  0  0  0  0  0  0  # atno 17343 bound_to 10162
  157.2583  131.0561  151.2336 LP  0  0  0  0  0  0  0  0  0  0  0  0  # atno 17370 bound_to 10713
  157.3460  130.7057  149.6411 LP  0  0  0  0  0  0  0  0  0  0  0  0  # atno 17371 bound_to 10713
  139.9063  134.8441  156.1693 LP  0  0  0  0  0  0  0  0  0  0  0  0  # atno 17394 bound_to 11000
  141.0573  133.6859  156.1885 LP  0  0  0  0  0  0  0  0  0  0  0  0  # atno 17395 bound_to 11000

$$$$
