AV-unprocessed.smi:1013|AV-procd|sdf|4429|dock5
  -GOLD-   22720 2383D 1   1.00000     0.00000
 Structure written by MMmdl.
 29 30  0  0  0  0  0  0  0  0  2 V2000
  152.8864  139.5138  154.8673 O   0  0  0  0  0  0  0  0  0  0  0  0
  151.9394  138.6983  154.9398 C   0  0  0  0  0  0  0  0  0  0  0  0
  152.0356  137.4653  154.7559 O   0  5  0  0  0  0  0  0  0  0  0  0
  150.5457  139.2361  155.2922 C   0  0  1  0  0  0  0  0  0  0  0  0
  150.6594  140.7333  155.6677 C   0  0  0  0  0  0  0  0  0  0  0  0
  151.1440  140.9593  157.0167 N   0  0  0  0  0  0  0  0  0  0  0  0
  151.5776  140.0299  157.9369 C   0  0  0  0  0  0  0  0  0  0  0  0
  151.9280  140.7116  159.0667 C   0  0  0  0  0  0  0  0  0  0  0  0
  151.6638  142.0749  158.7450 C   0  0  0  0  0  0  0  0  0  0  0  0
  151.8579  143.2934  159.6081 C   0  0  0  0  0  0  0  0  0  0  0  0
  152.3670  142.9399  160.7882 F   0  0  0  0  0  0  0  0  0  0  0  0
  152.6946  144.1483  159.0197 F   0  0  0  0  0  0  0  0  0  0  0  0
  150.6895  143.9044  159.8037 F   0  0  0  0  0  0  0  0  0  0  0  0
  151.1880  142.2132  157.5150 N   0  0  0  0  0  0  0  0  0  0  0  0
  149.6099  139.0148  154.1758 N   0  0  0  0  0  0  0  0  0  0  0  0
  148.3308  139.6597  154.4148 C   0  0  0  0  0  0  0  0  0  0  0  0
  147.2030  139.3516  153.4591 C   0  0  0  0  0  0  0  0  0  0  0  0
  147.8882  140.6977  153.4124 C   0  0  0  0  0  0  0  0  0  0  0  0
  150.2114  138.6634  156.1593 H   0  0  0  0  0  0  0  0  0  0  0  0
  151.3425  141.2459  154.9879 H   0  0  0  0  0  0  0  0  0  0  0  0
  149.6925  141.2268  155.5577 H   0  0  0  0  0  0  0  0  0  0  0  0
  151.6055  138.9742  157.7110 H   0  0  0  0  0  0  0  0  0  0  0  0
  152.3149  140.2986  159.9862 H   0  0  0  0  0  0  0  0  0  0  0  0
  149.4619  138.0254  154.0347 H   0  0  0  0  0  0  0  0  0  0  0  0
  148.0281  139.8649  155.4385 H   0  0  0  0  0  0  0  0  0  0  0  0
  147.4013  138.6570  152.6448 H   0  0  0  0  0  0  0  0  0  0  0  0
  146.1965  139.3113  153.8706 H   0  0  0  0  0  0  0  0  0  0  0  0
  147.3358  141.5557  153.7897 H   0  0  0  0  0  0  0  0  0  0  0  0
  148.5399  140.8996  152.5643 H   0  0  0  0  0  0  0  0  0  0  0  0
  1  2  2  0  0  0  0
  2  3  1  0  0  0  0
  2  4  1  0  0  0  0
  4  5  1  0  0  0  0
  4 15  1  0  0  0  0
  4 19  1  0  0  0  0
  5  6  1  0  0  0  0
  5 20  1  0  0  0  0
  5 21  1  0  0  0  0
  6 14  1  0  0  0  0
  6  7  1  0  0  0  0
  7  8  2  0  0  0  0
  7 22  1  0  0  0  0
  8  9  1  0  0  0  0
  8 23  1  0  0  0  0
  9 10  1  0  0  0  0
  9 14  2  0  0  0  0
 10 11  1  0  0  0  0
 10 12  1  0  0  0  0
 10 13  1  0  0  0  0
 15 16  1  0  0  0  0
 15 24  1  0  0  0  0
 16 18  1  0  0  0  0
 16 17  1  0  0  0  0
 16 25  1  0  0  0  0
 17 18  1  0  0  0  0
 17 26  1  0  0  0  0
 17 27  1  0  0  0  0
 18 28  1  0  0  0  0
 18 29  1  0  0  0  0
M  CHG  1   3  -1
M  END
> <s_m_source_file>
AV-unprocessed.smi

> <i_m_source_file_index>
1013

> <i_lp_mmshare_version>
43012

> <i_f3d_flags>
0

> <s_epik_input>
W0NIMl0xW0NIMl1bQ0hdMVtOSF1bQ0BIXShDKD1PKVtPSF0pW0NIMl1uMltjSF1bY0hdYyhuMilDKEYpKEYpRg==

> <s_epik_cmdline>
J2VwaWtfcHl0aG9uJywgJy1waCcsICc3LjAnLCAnLXRuJywgJzgnLCAnLW1hJywgJzIwMCcsICctbWV0YWxfYmluZGluZycsICctaW1hZScsICc8aW5maWxlLm1hZT4nLCAnLW9tYWUnLCAnPG91dGZpbGUubWFlPic=

> <r_lp_tautomer_probability>
1

> <r_epik_Ionization_Penalty>
0.786284

> <r_epik_Ionization_Penalty_Charging>
0.00153368

> <r_epik_Ionization_Penalty_Neutral>
0.78475

> <r_epik_State_Penalty>
0.814638

> <r_epik_Charging_Adjusted_Penalty>
0.816172

> <i_epik_Tot_Q>
-1

> <i_epik_Tot_abs_Q>
1

> <r_epik_Metal_State_Penalty>
0.814638

> <b_epik_Metal_Only>
0

> <s_lp_Force_Field>
OPLS_2005

> <r_lp_Energy>
17.111

> <b_lp_Chiralities_Consistent>
1

> <s_lp_Variant>
AV-unprocessed.smi:1013-4

> <Gold.Version>
5.8.1

> <Gold.Id.Protein>
6NUR|6NUR_protein|mol2

> <Gold.PLP.Fitness>
49.9865

> <Gold.PLP.PLP>
-39.3111

> <Gold.PLP.part.hbond>
-3.7229

> <Gold.PLP.part.metal>
0.0000

> <Gold.PLP.part.buried>
-2.8041

> <Gold.PLP.part.nonpolar>
-32.8222

> <Gold.PLP.part.repulsive>
0.1941

> <Gold.PLP.ligand.clash>
0.0000

> <Gold.PLP.ligand.torsion>
0.7139

> <Gold.PLP.Chemscore.Hbond>
3.8118

> <Gold.PLP.Chemscore.CHOScore>
0.0000

> <Gold.PLP.Chemscore.Metal>
0.0000

> <Gold.Chemscore.Hbonds>
donor molecule, donor type, donor heavy atom, donor atom, acceptor molecule, acceptor atom, score
      P1  H  7989  7998       L1     1  0.12
      P1  H  7997  8009       L1     1  2.00
      P1  H 10752 10765       L1     3  1.60

> <Gold.PLP.Chemscore.Internal.Correction>
0.6677

> <Gold.Rescore>
     Score         DG    S(hbond)    S(metal)    S(lipo)     H(rot)  DE(clash)    DE(int)     intcor
     11.54     -12.38       1.81        0.00      62.31       2.52       0.08       0.77       ----

> <Gold.Chemscore.Fitness>
11.5395

> <Gold.Chemscore.DG>
-12.3850

> <Gold.Chemscore.ZeroCoef>
-5.4800

> <Gold.Chemscore.Hbond>
1.8127

> <Gold.Chemscore.Metal>
0.0000

> <Gold.Chemscore.Lipo>
62.3147

> <Gold.Chemscore.Internal_Hbond>
0.0000

> <Gold.Chemscore.DEClash>
0.0761

> <Gold.Chemscore.DEInternal>
0.7694

> <Gold.Chemscore.Rot>
2.5157

> <Gold.Chemscore.Internal.Correction>
   9.000000E+99

> <Gold.Chemscore.Hbonds>
donor molecule, donor type, donor heavy atom, donor atom, acceptor molecule, acceptor atom, score
      P1  H  7989  7998       L1     1  0.01
      P1  H  7997  8009       L1     1  0.97
      P1  H 10752 10765       L1     3  0.75

> <Gold.Chemscore.Hbond.Weighted>
-6.0544

> <Gold.Chemscore.Metal.Weighted>
-0.0000

> <Gold.Chemscore.Lipo.Weighted>
-7.2908

> <Gold.Chemscore.Internal_Hbond.Weighted>
0.0000

> <Gold.Chemscore.DEClash.Weighted>
0.0761

> <Gold.Chemscore.DEInternal.Weighted>
0.7694

> <Gold.Chemscore.Rot.Weighted>
6.4402

> <Gold.Chemscore.Internal.Correction.Weighted>
   9.000000E+99

> <Gold.Protein.RotatedTorsions>
[ 6907 6896 6895 6894 ] final   84.67 input  -60.11 | X-H torsion
[ 7974 7965 7964 7962 ] final  -15.89 input  175.53 | X-H torsion
[ 8008 7997 7996 7995 ] final -137.46 input   59.86 | X-H torsion
[ 10167 10162 10161 10158 ] final -117.07 input  -65.29 | X-H torsion
[ 10718 10713 10712 10709 ] final  162.23 input   66.30 | X-H torsion
[ 10763 10752 10751 10750 ] final  168.63 input  -60.55 | X-H torsion
[ 11005 11000 10999 10996 ] final  102.47 input  -57.11 | X-H torsion

> <Gold.Protein.ActiveResidues>
 VAL166  LYS551  ARG553  GLY616  TRP617  ASP618  TYR619  PRO620  LYS621  CYS622 
 ASP623  PHE694  ASN695  SER759  ASP760  ASP761  ALA762  ILE779  LEU786  VAL792 
 PHE793  MET794  SER795  GLU796  ALA797  LYS798  CYS799  TRP800  GLU811  SER814 

> <Gold.Protein.RotatedAtoms>
  152.5358  134.2705  159.8969 H   0  0  0  0  0  0  0  0  0  0  0  0  # atno 6907 bound_to 6896
  151.2662  133.4271  159.2626 H   0  0  0  0  0  0  0  0  0  0  0  0  # atno 6908 bound_to 6896
  151.0409  134.9621  159.8217 H   0  0  0  0  0  0  0  0  0  0  0  0  # atno 6909 bound_to 6896
  146.2012  140.3557  142.8422 H   0  0  0  0  0  0  0  0  0  0  0  0  # atno 7974 bound_to 7965
  155.4122  140.0513  157.3031 H   0  0  0  0  0  0  0  0  0  0  0  0  # atno 8008 bound_to 7997
  154.4941  140.2131  155.9445 H   0  0  0  0  0  0  0  0  0  0  0  0  # atno 8009 bound_to 7997
  156.1382  140.3159  155.8458 H   0  0  0  0  0  0  0  0  0  0  0  0  # atno 8010 bound_to 7997
  140.0723  143.4865  152.1972 H   0  0  0  0  0  0  0  0  0  0  0  0  # atno 10167 bound_to 10162
  157.1254  131.0503  151.2396 H   0  0  0  0  0  0  0  0  0  0  0  0  # atno 10718 bound_to 10713
  154.3714  135.2753  155.2264 H   0  0  0  0  0  0  0  0  0  0  0  0  # atno 10763 bound_to 10752
  154.4410  135.5954  153.6133 H   0  0  0  0  0  0  0  0  0  0  0  0  # atno 10764 bound_to 10752
  152.9838  135.6018  154.3946 H   0  0  0  0  0  0  0  0  0  0  0  0  # atno 10765 bound_to 10752
  139.8778  134.9225  156.5064 H   0  0  0  0  0  0  0  0  0  0  0  0  # atno 11005 bound_to 11000
  144.8688  140.7244  143.6060 LP  0  0  0  0  0  0  0  0  0  0  0  0  # atno 17320 bound_to 7965
  145.3477  139.1715  143.4452 LP  0  0  0  0  0  0  0  0  0  0  0  0  # atno 17321 bound_to 7965
  139.5828  144.7518  151.3596 LP  0  0  0  0  0  0  0  0  0  0  0  0  # atno 17342 bound_to 10162
  140.7119  143.7368  150.7583 LP  0  0  0  0  0  0  0  0  0  0  0  0  # atno 17343 bound_to 10162
  157.4440  130.7560  149.7093 LP  0  0  0  0  0  0  0  0  0  0  0  0  # atno 17370 bound_to 10713
  155.9819  130.4014  150.3444 LP  0  0  0  0  0  0  0  0  0  0  0  0  # atno 17371 bound_to 10713
  140.8552  133.8101  155.9209 LP  0  0  0  0  0  0  0  0  0  0  0  0  # atno 17394 bound_to 11000
  140.9104  134.2267  157.4989 LP  0  0  0  0  0  0  0  0  0  0  0  0  # atno 17395 bound_to 11000

$$$$
