AV-unprocessed.smi:3014|AV-procd|sdf|11469|dock10
  -GOLD-   2272016403D 1   1.00000     0.00000
 Structure written by MMmdl.
 45 46  0  0  0  0  0  0  0  0  1 V2000
  153.2517  142.4040  162.5379 C   0  0  0  0  0  0  0  0  0  0  0  0
  152.5838  142.9012  161.2479 C   0  0  1  0  0  0  0  0  0  0  0  0
  152.0607  144.3417  161.4066 C   0  0  0  0  0  0  0  0  0  0  0  0
  151.3993  144.8496  160.1160 C   0  0  0  0  0  0  0  0  0  0  0  0
  152.3562  144.7425  158.9171 C   0  0  0  0  0  0  0  0  0  0  0  0
  152.8890  143.3101  158.7377 C   0  0  2  0  0  0  0  0  0  0  0  0
  151.7938  142.4892  158.3480 O   0  0  0  0  0  0  0  0  0  0  0  0
  151.1424  142.8921  157.1491 C   0  0  0  0  0  0  0  0  0  0  0  0
  150.4816  141.6805  156.4886 C   0  0  0  0  0  0  0  0  0  0  0  0
  151.0562  140.5926  156.5272 O   0  0  0  0  0  0  0  0  0  0  0  0
  149.2976  141.8982  155.8844 N   0  0  0  0  0  0  0  0  0  0  0  0
  148.4807  140.9682  155.1909 C   0  0  0  0  0  0  0  0  0  0  0  0
  147.5580  141.5210  154.2770 C   0  0  0  0  0  0  0  0  0  0  0  0
  146.7357  140.6209  153.5723 C   0  0  0  0  0  0  0  0  0  0  0  0
  146.8215  139.2878  153.7557 N   0  0  0  0  0  0  0  0  0  0  0  0
  147.7238  138.8454  154.6400 C   0  0  0  0  0  0  0  0  0  0  0  0
  147.8181  137.4639  154.8308 N   0  0  0  0  0  0  0  0  0  0  0  0
  148.7944  136.8923  155.7537 C   0  0  0  0  0  0  0  0  0  0  0  0
  146.9455  136.5409  154.1104 C   0  0  0  0  0  0  0  0  0  0  0  0
  148.5456  139.6243  155.3554 N   0  0  0  0  0  0  0  0  0  0  0  0
  153.5418  142.8056  160.0432 C   0  0  0  0  0  0  0  0  0  0  0  0
  154.1201  143.0113  162.7957 H   0  0  0  0  0  0  0  0  0  0  0  0
  153.5863  141.3715  162.4348 H   0  0  0  0  0  0  0  0  0  0  0  0
  152.5578  142.4421  163.3781 H   0  0  0  0  0  0  0  0  0  0  0  0
  151.7294  142.2517  161.0514 H   0  0  0  0  0  0  0  0  0  0  0  0
  151.3437  144.3902  162.2269 H   0  0  0  0  0  0  0  0  0  0  0  0
  152.8832  145.0052  161.6773 H   0  0  0  0  0  0  0  0  0  0  0  0
  150.4952  144.2726  159.9176 H   0  0  0  0  0  0  0  0  0  0  0  0
  151.0815  145.8845  160.2452 H   0  0  0  0  0  0  0  0  0  0  0  0
  151.8527  145.0713  158.0075 H   0  0  0  0  0  0  0  0  0  0  0  0
  153.1954  145.4233  159.0657 H   0  0  0  0  0  0  0  0  0  0  0  0
  153.6313  143.3227  157.9378 H   0  0  0  0  0  0  0  0  0  0  0  0
  150.3733  143.6352  157.3640 H   0  0  0  0  0  0  0  0  0  0  0  0
  151.8509  143.3350  156.4492 H   0  0  0  0  0  0  0  0  0  0  0  0
  148.9402  142.8411  155.9372 H   0  0  0  0  0  0  0  0  0  0  0  0
  147.4799  142.5870  154.1200 H   0  0  0  0  0  0  0  0  0  0  0  0
  146.0066  140.9728  152.8575 H   0  0  0  0  0  0  0  0  0  0  0  0
  149.8031  137.2098  155.4873 H   0  0  0  0  0  0  0  0  0  0  0  0
  148.7768  135.8026  155.7425 H   0  0  0  0  0  0  0  0  0  0  0  0
  148.5882  137.2196  156.7733 H   0  0  0  0  0  0  0  0  0  0  0  0
  147.1297  136.6042  153.0375 H   0  0  0  0  0  0  0  0  0  0  0  0
  145.8983  136.7831  154.2942 H   0  0  0  0  0  0  0  0  0  0  0  0
  147.1039  135.5070  154.4168 H   0  0  0  0  0  0  0  0  0  0  0  0
  154.4307  143.4046  160.2453 H   0  0  0  0  0  0  0  0  0  0  0  0
  153.8979  141.7825  159.9271 H   0  0  0  0  0  0  0  0  0  0  0  0
  1  2  1  0  0  0  0
  1 22  1  0  0  0  0
  1 23  1  0  0  0  0
  1 24  1  0  0  0  0
  2 21  1  0  0  0  0
  2  3  1  0  0  0  0
  2 25  1  0  0  0  0
  3  4  1  0  0  0  0
  3 26  1  0  0  0  0
  3 27  1  0  0  0  0
  4  5  1  0  0  0  0
  4 28  1  0  0  0  0
  4 29  1  0  0  0  0
  5  6  1  0  0  0  0
  5 30  1  0  0  0  0
  5 31  1  0  0  0  0
  6  7  1  0  0  0  0
  6 21  1  0  0  0  0
  6 32  1  0  0  0  0
  7  8  1  0  0  0  0
  8  9  1  0  0  0  0
  8 33  1  0  0  0  0
  8 34  1  0  0  0  0
  9 10  2  0  0  0  0
  9 11  1  0  0  0  0
 11 12  1  0  0  0  0
 11 35  1  0  0  0  0
 12 20  1  0  0  0  0
 12 13  2  0  0  0  0
 13 14  1  0  0  0  0
 13 36  1  0  0  0  0
 14 15  2  0  0  0  0
 14 37  1  0  0  0  0
 15 16  1  0  0  0  0
 16 17  1  0  0  0  0
 16 20  2  0  0  0  0
 17 18  1  0  0  0  0
 17 19  1  0  0  0  0
 18 38  1  0  0  0  0
 18 39  1  0  0  0  0
 18 40  1  0  0  0  0
 19 41  1  0  0  0  0
 19 42  1  0  0  0  0
 19 43  1  0  0  0  0
 21 44  1  0  0  0  0
 21 45  1  0  0  0  0
M  END
> <s_m_source_file>
AV-unprocessed.smi

> <i_m_source_file_index>
3014

> <i_lp_mmshare_version>
43012

> <i_f3d_flags>
0

> <s_epik_input>
W0NIM11bQ0BASF0xW0NIMl1bQ0gyXVtDSDJdW0NASF0oW0NIMl0xKU9bQ0gyXUMoPU8pW05IXWMyW2NIXVtjSF1uYyhuMilOKFtDSDNdKVtDSDNd

> <s_epik_cmdline>
J2VwaWtfcHl0aG9uJywgJy1waCcsICc3LjAnLCAnLXRuJywgJzgnLCAnLW1hJywgJzIwMCcsICctbWV0YWxfYmluZGluZycsICctaW1hZScsICc8aW5maWxlLm1hZT4nLCAnLW9tYWUnLCAnPG91dGZpbGUubWFlPic=

> <r_lp_tautomer_probability>
1

> <r_epik_Ionization_Penalty>
0.000308195

> <r_epik_Ionization_Penalty_Charging>
0

> <r_epik_Ionization_Penalty_Neutral>
0.000308195

> <r_epik_State_Penalty>
-0

> <r_epik_Charging_Adjusted_Penalty>
0

> <i_epik_Tot_Q>
0

> <i_epik_Tot_abs_Q>
0

> <r_epik_Metal_State_Penalty>
-0

> <b_epik_Metal_Only>
0

> <s_lp_Force_Field>
OPLS_2005

> <r_lp_Energy>
6.78662

> <b_lp_Chiralities_Consistent>
1

> <s_lp_Variant>
AV-unprocessed.smi:3014-4

> <Gold.Version>
5.8.1

> <Gold.Id.Protein>
6NUR|6NUR_protein|mol2

> <Gold.PLP.Fitness>
46.4415

> <Gold.PLP.PLP>
-41.7781

> <Gold.PLP.part.hbond>
-1.0000

> <Gold.PLP.part.metal>
0.0000

> <Gold.PLP.part.buried>
-5.4302

> <Gold.PLP.part.nonpolar>
-37.0459

> <Gold.PLP.part.repulsive>
0.3573

> <Gold.PLP.ligand.clash>
0.0000

> <Gold.PLP.ligand.torsion>
0.5753

> <Gold.PLP.Chemscore.Hbond>
1.0000

> <Gold.PLP.Chemscore.CHOScore>
0.9334

> <Gold.PLP.Chemscore.Metal>
0.0000

> <Gold.Chemscore.Hbonds>
donor molecule, donor type, donor heavy atom, donor atom, acceptor molecule, acceptor atom, score
      L1  H    11    35       P1  8028  1.00
      L1  C    14    37       P1 10175  1.00

> <Gold.PLP.Chemscore.Internal.Correction>
0.0136

> <Gold.Rescore>
     Score         DG    S(hbond)    S(metal)    S(lipo)     H(rot)  DE(clash)    DE(int)     intcor
     16.72     -18.55       1.00        0.00     114.46       1.43       0.01       1.82       ----

> <Gold.Chemscore.Fitness>
16.7163

> <Gold.Chemscore.DG>
-18.5480

> <Gold.Chemscore.ZeroCoef>
-5.4800

> <Gold.Chemscore.Hbond>
0.9997

> <Gold.Chemscore.Metal>
0.0000

> <Gold.Chemscore.Lipo>
114.4629

> <Gold.Chemscore.Internal_Hbond>
0.0000

> <Gold.Chemscore.DEClash>
0.0149

> <Gold.Chemscore.DEInternal>
1.8168

> <Gold.Chemscore.Rot>
1.4310

> <Gold.Chemscore.Internal.Correction>
   9.000000E+99

> <Gold.Chemscore.Hbonds>
donor molecule, donor type, donor heavy atom, donor atom, acceptor molecule, acceptor atom, score
      L1  H    11    35       P1  8028  0.99

> <Gold.Chemscore.Hbond.Weighted>
-3.3391

> <Gold.Chemscore.Metal.Weighted>
-0.0000

> <Gold.Chemscore.Lipo.Weighted>
-13.3922

> <Gold.Chemscore.Internal_Hbond.Weighted>
0.0000

> <Gold.Chemscore.DEClash.Weighted>
0.0149

> <Gold.Chemscore.DEInternal.Weighted>
1.8168

> <Gold.Chemscore.Rot.Weighted>
3.6632

> <Gold.Chemscore.Internal.Correction.Weighted>
   9.000000E+99

> <Gold.Protein.RotatedTorsions>
[ 6907 6896 6895 6894 ] final  -57.65 input  -60.11 | X-H torsion
[ 7974 7965 7964 7962 ] final  172.11 input  175.53 | X-H torsion
[ 8008 7997 7996 7995 ] final  -46.71 input   59.86 | X-H torsion
[ 10167 10162 10161 10158 ] final   87.59 input  -65.29 | X-H torsion
[ 10718 10713 10712 10709 ] final  115.58 input   66.30 | X-H torsion
[ 10763 10752 10751 10750 ] final  155.48 input  -60.55 | X-H torsion
[ 11005 11000 10999 10996 ] final -128.11 input  -57.11 | X-H torsion

> <Gold.Protein.ActiveResidues>
 VAL166  LYS551  ARG553  GLY616  TRP617  ASP618  TYR619  PRO620  LYS621  CYS622 
 ASP623  PHE694  ASN695  SER759  ASP760  ASP761  ALA762  ILE779  LEU786  VAL792 
 PHE793  MET794  SER795  GLU796  ALA797  LYS798  CYS799  TRP800  GLU811  SER814 

> <Gold.Protein.RotatedAtoms>
  150.8069  134.7199  159.6651 H   0  0  0  0  0  0  0  0  0  0  0  0  # atno 6907 bound_to 6896
  152.4188  134.5989  160.0004 H   0  0  0  0  0  0  0  0  0  0  0  0  # atno 6908 bound_to 6896
  151.6211  133.3302  159.3124 H   0  0  0  0  0  0  0  0  0  0  0  0  # atno 6909 bound_to 6896
  144.7276  139.9451  143.6430 H   0  0  0  0  0  0  0  0  0  0  0  0  # atno 7974 bound_to 7965
  154.4010  140.1365  156.4055 H   0  0  0  0  0  0  0  0  0  0  0  0  # atno 8008 bound_to 7997
  155.7783  140.3482  155.5263 H   0  0  0  0  0  0  0  0  0  0  0  0  # atno 8009 bound_to 7997
  155.8699  140.0970  157.1548 H   0  0  0  0  0  0  0  0  0  0  0  0  # atno 8010 bound_to 7997
  139.8759  144.6467  150.8897 H   0  0  0  0  0  0  0  0  0  0  0  0  # atno 10167 bound_to 10162
  157.6213  131.1014  150.7350 H   0  0  0  0  0  0  0  0  0  0  0  0  # atno 10718 bound_to 10713
  154.1690  135.2805  155.3086 H   0  0  0  0  0  0  0  0  0  0  0  0  # atno 10763 bound_to 10752
  154.6090  135.5505  153.7456 H   0  0  0  0  0  0  0  0  0  0  0  0  # atno 10764 bound_to 10752
  153.0170  135.6410  154.1830 H   0  0  0  0  0  0  0  0  0  0  0  0  # atno 10765 bound_to 10752
  140.9543  134.1023  157.4031 H   0  0  0  0  0  0  0  0  0  0  0  0  # atno 11005 bound_to 11000
  146.0755  139.3743  143.0497 LP  0  0  0  0  0  0  0  0  0  0  0  0  # atno 17320 bound_to 7965
  145.7911  140.9814  143.1048 LP  0  0  0  0  0  0  0  0  0  0  0  0  # atno 17321 bound_to 7965
  140.7753  143.3626  151.1800 LP  0  0  0  0  0  0  0  0  0  0  0  0  # atno 17342 bound_to 10162
  139.7241  143.9176  152.2996 LP  0  0  0  0  0  0  0  0  0  0  0  0  # atno 17343 bound_to 10162
  156.7707  130.4828  149.5419 LP  0  0  0  0  0  0  0  0  0  0  0  0  # atno 17370 bound_to 10713
  156.1360  130.6211  151.0401 LP  0  0  0  0  0  0  0  0  0  0  0  0  # atno 17371 bound_to 10713
  139.8857  135.0075  156.6453 LP  0  0  0  0  0  0  0  0  0  0  0  0  # atno 17394 bound_to 11000
  140.7558  133.8859  155.8381 LP  0  0  0  0  0  0  0  0  0  0  0  0  # atno 17395 bound_to 11000

$$$$
