AV-unprocessed.smi:21|AV-procd|sdf|145|dock1
  -GOLD-   2262015353D 1   1.00000     0.00000
 Structure written by MMmdl.
 62 65  0  0  0  0  0  0  0  0  2 V2000
  152.6880  142.4911  159.4753 C   0  0  0  0  0  0  0  0  0  0  0  0
  152.0983  141.3746  158.8287 O   0  0  0  0  0  0  0  0  0  0  0  0
  151.3179  141.7213  157.6943 C   0  0  1  0  0  0  0  0  0  0  0  0
  150.7427  140.5099  156.9685 C   0  0  0  0  0  0  0  0  0  0  0  0
  149.5273  141.0770  156.2215 C   0  0  1  0  0  0  0  0  0  0  0  0
  148.4505  140.0164  155.8825 C   0  0  0  0  0  0  0  0  0  0  0  0
  148.8048  139.2126  154.7093 N   0  0  0  0  0  0  0  0  0  0  0  0
  150.2124  138.9008  154.4929 C   0  0  0  0  0  0  0  0  0  0  0  0
  147.8427  138.5195  154.0351 C   0  0  0  0  0  0  0  0  0  0  0  0
  147.2294  139.1302  152.9862 N   0  0  0  0  0  0  0  0  0  0  0  0
  146.2758  138.5074  152.2900 C   0  0  0  0  0  0  0  0  0  0  0  0
  145.7835  137.2821  152.4662 N   0  0  0  0  0  0  0  0  0  0  0  0
  146.3891  136.6539  153.5126 C   0  0  0  0  0  0  0  0  0  0  0  0
  147.4139  137.1914  154.3461 C   0  0  0  0  0  0  0  0  0  0  0  0
  147.7526  136.2542  155.3178 N   0  0  0  0  0  0  0  0  0  0  0  0
  146.9883  135.2277  155.0668 C   0  0  0  0  0  0  0  0  0  0  0  0
  146.1514  135.3751  153.9858 N   0  0  0  0  0  0  0  0  0  0  0  0
  145.1958  134.4006  153.4892 C   0  0  0  0  0  0  0  0  0  0  0  0
  144.4546  134.8213  152.1922 C   0  0  2  0  0  0  0  0  0  0  0  0
  142.9926  135.1882  152.5362 C   0  0  0  0  0  0  0  0  0  0  0  0
  142.3524  134.1594  153.2638 O   0  0  0  0  0  0  0  0  0  0  0  0
  144.5534  133.7901  151.0298 C   0  0  1  0  0  0  0  0  0  0  0  0
  145.9526  133.2480  150.7812 C   0  0  0  0  0  0  0  0  0  0  0  0
  145.6733  131.9935  149.9668 C   0  0  0  0  0  0  0  0  0  0  0  0
  144.4923  131.4536  150.5396 O   0  0  0  0  0  0  0  0  0  0  0  0
  143.7806  132.4762  151.2312 C   0  0  0  0  0  0  0  0  0  0  0  0
  149.0647  142.2411  157.0345 N   0  3  1  0  0  0  0  0  0  0  0  0
  147.6635  142.2336  157.5170 C   0  0  0  0  0  0  0  0  0  0  0  0
  150.0507  142.4603  158.1181 C   0  0  0  0  0  0  0  0  0  0  0  0
  151.8866  142.3450  157.0020 H   0  0  0  0  0  0  0  0  0  0  0  0
  149.8851  141.5113  155.2867 H   0  0  0  0  0  0  0  0  0  0  0  0
  153.2406  142.1532  160.3519 H   0  0  0  0  0  0  0  0  0  0  0  0
  151.9293  143.1996  159.8106 H   0  0  0  0  0  0  0  0  0  0  0  0
  153.3886  143.0111  158.8211 H   0  0  0  0  0  0  0  0  0  0  0  0
  151.4610  140.0336  156.3005 H   0  0  0  0  0  0  0  0  0  0  0  0
  150.4212  139.7680  157.7009 H   0  0  0  0  0  0  0  0  0  0  0  0
  148.2396  139.3908  156.7494 H   0  0  0  0  0  0  0  0  0  0  0  0
  147.5094  140.5147  155.6496 H   0  0  0  0  0  0  0  0  0  0  0  0
  150.4739  137.9520  154.9620 H   0  0  0  0  0  0  0  0  0  0  0  0
  150.8506  139.6732  154.9224 H   0  0  0  0  0  0  0  0  0  0  0  0
  150.4400  138.8446  153.4279 H   0  0  0  0  0  0  0  0  0  0  0  0
  145.8465  139.0712  151.4749 H   0  0  0  0  0  0  0  0  0  0  0  0
  147.0232  134.3259  155.6609 H   0  0  0  0  0  0  0  0  0  0  0  0
  145.7176  133.4555  153.3335 H   0  0  0  0  0  0  0  0  0  0  0  0
  144.4750  134.2231  154.2881 H   0  0  0  0  0  0  0  0  0  0  0  0
  144.9114  135.7462  151.8389 H   0  0  0  0  0  0  0  0  0  0  0  0
  142.9598  136.1039  153.1273 H   0  0  0  0  0  0  0  0  0  0  0  0
  142.4153  135.3922  151.6346 H   0  0  0  0  0  0  0  0  0  0  0  0
  143.0107  133.6628  153.7252 H   0  0  0  0  0  0  0  0  0  0  0  0
  144.2063  134.2556  150.1059 H   0  0  0  0  0  0  0  0  0  0  0  0
  146.5981  133.9488  150.2513 H   0  0  0  0  0  0  0  0  0  0  0  0
  146.4343  132.9813  151.7232 H   0  0  0  0  0  0  0  0  0  0  0  0
  145.4764  132.2498  148.9251 H   0  0  0  0  0  0  0  0  0  0  0  0
  146.4964  131.2793  149.9946 H   0  0  0  0  0  0  0  0  0  0  0  0
  143.7376  132.1999  152.2853 H   0  0  0  0  0  0  0  0  0  0  0  0
  142.7600  132.5376  150.8552 H   0  0  0  0  0  0  0  0  0  0  0  0
  147.4696  141.3808  158.1685 H   0  0  0  0  0  0  0  0  0  0  0  0
  146.9592  142.2104  156.6855 H   0  0  0  0  0  0  0  0  0  0  0  0
  147.4610  143.1417  158.0857 H   0  0  0  0  0  0  0  0  0  0  0  0
  149.6745  142.0254  159.0461 H   0  0  0  0  0  0  0  0  0  0  0  0
  150.2242  143.5218  158.2963 H   0  0  0  0  0  0  0  0  0  0  0  0
  149.1423  143.0394  156.4205 H   0  0  0  0  0  0  0  0  0  0  0  0
  1  2  1  0  0  0  0
  1 32  1  0  0  0  0
  1 33  1  0  0  0  0
  1 34  1  0  0  0  0
  2  3  1  0  0  0  0
  3 30  1  0  0  0  0
  3 29  1  0  0  0  0
  3  4  1  0  0  0  0
  4  5  1  0  0  0  0
  4 35  1  0  0  0  0
  4 36  1  0  0  0  0
  5 31  1  0  0  0  0
  5  6  1  0  0  0  0
  5 27  1  0  0  0  0
  6  7  1  0  0  0  0
  6 37  1  0  0  0  0
  6 38  1  0  0  0  0
  7  8  1  0  0  0  0
  7  9  1  0  0  0  0
  8 39  1  0  0  0  0
  8 40  1  0  0  0  0
  8 41  1  0  0  0  0
  9 14  1  0  0  0  0
  9 10  2  0  0  0  0
 10 11  1  0  0  0  0
 11 12  2  0  0  0  0
 11 42  1  0  0  0  0
 12 13  1  0  0  0  0
 13 17  1  0  0  0  0
 13 14  2  0  0  0  0
 14 15  1  0  0  0  0
 15 16  2  0  0  0  0
 16 17  1  0  0  0  0
 16 43  1  0  0  0  0
 17 18  1  0  0  0  0
 18 19  1  0  0  0  0
 18 44  1  0  0  0  0
 18 45  1  0  0  0  0
 19 20  1  0  0  0  0
 19 22  1  0  0  0  0
 19 46  1  0  0  0  0
 20 21  1  0  0  0  0
 20 47  1  0  0  0  0
 20 48  1  0  0  0  0
 21 49  1  0  0  0  0
 22 26  1  0  0  0  0
 22 23  1  0  0  0  0
 22 50  1  0  0  0  0
 23 24  1  0  0  0  0
 23 51  1  0  0  0  0
 23 52  1  0  0  0  0
 24 25  1  0  0  0  0
 24 53  1  0  0  0  0
 24 54  1  0  0  0  0
 25 26  1  0  0  0  0
 26 55  1  0  0  0  0
 26 56  1  0  0  0  0
 27 28  1  0  0  0  0
 27 29  1  0  0  0  0
 27 62  1  0  0  0  0
 28 57  1  0  0  0  0
 28 58  1  0  0  0  0
 28 59  1  0  0  0  0
 29 60  1  0  0  0  0
 29 61  1  0  0  0  0
M  CHG  1  27   1
M  END
> <s_m_source_file>
AV-unprocessed.smi

> <i_m_source_file_index>
21

> <i_lp_mmshare_version>
43012

> <i_f3d_flags>
0

> <s_epik_input>
W0NIM11PW0NASF0xW0NIMl1bQ0BIXShOKFtDSDNdKVtDSDJdMSlbQ0gyXU4oW0NIM10pYyhuW2NIXW4yKWMoYzIzKW5bY0hdbjNbQ0gyXVtDQEhdKFtDSDJdW09IXSlbQ0BASF00W0NIMl1bQ0gyXU9bQ0gyXTQ=

> <s_epik_cmdline>
J2VwaWtfcHl0aG9uJywgJy1waCcsICc3LjAnLCAnLXRuJywgJzgnLCAnLW1hJywgJzIwMCcsICctbWV0YWxfYmluZGluZycsICctaW1hZScsICc8aW5maWxlLm1hZT4nLCAnLW9tYWUnLCAnPG91dGZpbGUubWFlPic=

> <r_lp_tautomer_probability>
1

> <r_epik_Ionization_Penalty>
0.0157465

> <r_epik_Ionization_Penalty_Charging>
0.015354

> <r_epik_Ionization_Penalty_Neutral>
0.000392529

> <r_epik_State_Penalty>
0.0120612

> <r_epik_Charging_Adjusted_Penalty>
0.0274152

> <i_epik_Tot_Q>
1

> <i_epik_Tot_abs_Q>
1

> <r_epik_Metal_State_Penalty>
0.0121253

> <b_epik_Metal_Only>
0

> <s_lp_Force_Field>
OPLS_2005

> <r_lp_Energy>
60.8003

> <b_lp_Chiralities_Consistent>
1

> <s_lp_Variant>
AV-unprocessed.smi:21-25

> <Gold.Version>
5.8.1

> <Gold.Id.Protein>
6NUR|6NUR_protein|mol2

> <Gold.PLP.Fitness>
44.8501

> <Gold.PLP.PLP>
-38.4652

> <Gold.PLP.part.hbond>
-2.2091

> <Gold.PLP.part.metal>
0.0000

> <Gold.PLP.part.buried>
-5.7832

> <Gold.PLP.part.nonpolar>
-32.3306

> <Gold.PLP.part.repulsive>
0.7180

> <Gold.PLP.ligand.clash>
0.0050

> <Gold.PLP.ligand.torsion>
2.8780

> <Gold.PLP.Chemscore.Hbond>
2.2621

> <Gold.PLP.Chemscore.CHOScore>
1.5992

> <Gold.PLP.Chemscore.Metal>
0.0000

> <Gold.Chemscore.Hbonds>
donor molecule, donor type, donor heavy atom, donor atom, acceptor molecule, acceptor atom, score
      L1  H    21    49       P1 10957  0.29
      L1  H    27    62       P1  8028  2.00
      L1  C    11    42       P1 10171  0.80
      L1  C    11    42       P1 10175  0.27

> <Gold.PLP.Chemscore.Internal.Correction>
0.5622

> <Gold.Rescore>
     Score         DG    S(hbond)    S(metal)    S(lipo)     H(rot)  DE(clash)    DE(int)     intcor
      6.60     -11.95       1.11        0.00      90.87       3.08       0.15       5.21       ----

> <Gold.Chemscore.Fitness>
6.5973

> <Gold.Chemscore.DG>
-11.9488

> <Gold.Chemscore.ZeroCoef>
-5.4800

> <Gold.Chemscore.Hbond>
1.1111

> <Gold.Chemscore.Metal>
0.0000

> <Gold.Chemscore.Lipo>
90.8716

> <Gold.Chemscore.Internal_Hbond>
0.0000

> <Gold.Chemscore.DEClash>
0.1458

> <Gold.Chemscore.DEInternal>
5.2057

> <Gold.Chemscore.Rot>
3.0758

> <Gold.Chemscore.Internal.Correction>
   9.000000E+99

> <Gold.Chemscore.Hbonds>
donor molecule, donor type, donor heavy atom, donor atom, acceptor molecule, acceptor atom, score
      L1  H    21    49       P1 10957  0.29
      L1  H    27    62       P1  8028  1.00

> <Gold.Chemscore.Hbond.Weighted>
-3.7110

> <Gold.Chemscore.Metal.Weighted>
-0.0000

> <Gold.Chemscore.Lipo.Weighted>
-10.6320

> <Gold.Chemscore.Internal_Hbond.Weighted>
0.0000

> <Gold.Chemscore.DEClash.Weighted>
0.1458

> <Gold.Chemscore.DEInternal.Weighted>
5.2057

> <Gold.Chemscore.Rot.Weighted>
7.8741

> <Gold.Chemscore.Internal.Correction.Weighted>
   9.000000E+99

> <Gold.Protein.RotatedTorsions>
[ 6907 6896 6895 6894 ] final   18.21 input  -60.11 | X-H torsion
[ 7974 7965 7964 7962 ] final  147.52 input  175.53 | X-H torsion
[ 8008 7997 7996 7995 ] final  -69.56 input   59.86 | X-H torsion
[ 10167 10162 10161 10158 ] final  -70.32 input  -65.29 | X-H torsion
[ 10718 10713 10712 10709 ] final  163.68 input   66.30 | X-H torsion
[ 10763 10752 10751 10750 ] final -172.99 input  -60.55 | X-H torsion
[ 11005 11000 10999 10996 ] final  137.86 input  -57.11 | X-H torsion

> <Gold.Protein.ActiveResidues>
 VAL166  LYS551  ARG553  GLY616  TRP617  ASP618  TYR619  PRO620  LYS621  CYS622 
 ASP623  PHE694  ASN695  SER759  ASP760  ASP761  ALA762  ILE779  LEU786  VAL792 
 PHE793  MET794  SER795  GLU796  ALA797  LYS798  CYS799  TRP800  GLU811  SER814 

> <Gold.Protein.RotatedAtoms>
  151.8617  135.0522  160.0469 H   0  0  0  0  0  0  0  0  0  0  0  0  # atno 6907 bound_to 6896
  152.2658  133.5333  159.5417 H   0  0  0  0  0  0  0  0  0  0  0  0  # atno 6908 bound_to 6896
  150.7133  134.0683  159.3898 H   0  0  0  0  0  0  0  0  0  0  0  0  # atno 6909 bound_to 6896
  144.8585  139.6040  143.5941 H   0  0  0  0  0  0  0  0  0  0  0  0  # atno 7974 bound_to 7965
  154.4948  140.0851  156.7672 H   0  0  0  0  0  0  0  0  0  0  0  0  # atno 8008 bound_to 7997
  155.4144  140.3443  155.4248 H   0  0  0  0  0  0  0  0  0  0  0  0  # atno 8009 bound_to 7997
  156.1378  140.1520  156.8955 H   0  0  0  0  0  0  0  0  0  0  0  0  # atno 8010 bound_to 7997
  140.5362  143.2318  151.7173 H   0  0  0  0  0  0  0  0  0  0  0  0  # atno 10167 bound_to 10162
  157.1051  131.0453  151.2481 H   0  0  0  0  0  0  0  0  0  0  0  0  # atno 10718 bound_to 10713
  154.6130  135.2866  155.0411 H   0  0  0  0  0  0  0  0  0  0  0  0  # atno 10763 bound_to 10752
  154.1633  135.6484  153.4995 H   0  0  0  0  0  0  0  0  0  0  0  0  # atno 10764 bound_to 10752
  153.0203  135.5383  154.6891 H   0  0  0  0  0  0  0  0  0  0  0  0  # atno 10765 bound_to 10752
  140.0143  134.9425  157.0344 H   0  0  0  0  0  0  0  0  0  0  0  0  # atno 11005 bound_to 11000
  146.2842  139.6958  142.9207 LP  0  0  0  0  0  0  0  0  0  0  0  0  # atno 17320 bound_to 7965
  145.4359  141.0419  143.2884 LP  0  0  0  0  0  0  0  0  0  0  0  0  # atno 17321 bound_to 7965
  139.4971  144.4039  152.0152 LP  0  0  0  0  0  0  0  0  0  0  0  0  # atno 17342 bound_to 10162
  140.3145  144.3499  150.6025 LP  0  0  0  0  0  0  0  0  0  0  0  0  # atno 17343 bound_to 10162
  157.4608  130.7652  149.7234 LP  0  0  0  0  0  0  0  0  0  0  0  0  # atno 17370 bound_to 10713
  155.9864  130.3975  150.3214 LP  0  0  0  0  0  0  0  0  0  0  0  0  # atno 17371 bound_to 10713
  140.4498  134.1594  155.7180 LP  0  0  0  0  0  0  0  0  0  0  0  0  # atno 17394 bound_to 11000
  141.1732  133.8566  157.1504 LP  0  0  0  0  0  0  0  0  0  0  0  0  # atno 17395 bound_to 11000

$$$$
