AV-unprocessed.smi:767|AV-procd|sdf|3661|dock4
  -GOLD-   22720 1 73D 1   1.00000     0.00000
 Structure written by MMmdl.
 47 49  0  0  0  0  0  0  0  0  1 V2000
  145.8834  130.0200  151.9300 C   0  0  0  0  0  0  0  0  0  0  0  0
  145.6289  131.4789  151.6131 C   0  0  0  0  0  0  0  0  0  0  0  0
  144.4493  131.8816  150.9518 C   0  0  0  0  0  0  0  0  0  0  0  0
  144.2667  133.2517  150.6818 C   0  0  0  0  0  0  0  0  0  0  0  0
  145.2659  134.1626  151.0811 C   0  0  0  0  0  0  0  0  0  0  0  0
  145.1139  135.6481  150.8207 C   0  0  0  0  0  0  0  0  0  0  0  0
  145.0454  136.4568  152.1259 C   0  0  0  0  0  0  0  0  0  0  0  0
  146.3699  136.8798  152.5639 N   0  0  0  0  0  0  0  0  0  0  0  0
  146.6127  137.6669  153.6209 C   0  0  0  0  0  0  0  0  0  0  0  0
  145.7379  138.1290  154.3538 O   0  0  0  0  0  0  0  0  0  0  0  0
  147.9234  137.8865  153.7868 N   0  0  0  0  0  0  0  0  0  0  0  0
  148.4908  138.7107  154.8491 C   0  0  2  0  0  0  0  0  0  0  0  0
  149.5360  139.7078  154.3252 C   0  0  1  0  0  0  0  0  0  0  0  0
  149.2656  141.1858  154.4025 C   0  0  0  0  0  0  0  0  0  0  0  0
  149.9575  141.5915  155.7072 C   0  0  0  0  0  0  0  0  0  0  0  0
  150.0543  140.3815  156.4554 O   0  0  0  0  0  0  0  0  0  0  0  0
  150.3722  139.3358  155.5401 C   0  0  1  0  0  0  0  0  0  0  0  0
  149.5878  138.0157  155.6957 C   0  0  0  0  0  0  0  0  0  0  0  0
  149.1967  137.6335  157.1239 C   0  0  0  0  0  0  0  0  0  0  0  0
  150.2874  136.7924  155.0857 C   0  0  0  0  0  0  0  0  0  0  0  0
  146.4077  133.6566  151.7374 C   0  0  0  0  0  0  0  0  0  0  0  0
  146.5913  132.3449  152.0006 N   0  0  0  0  0  0  0  0  0  0  0  0
  145.0559  129.3923  151.5981 H   0  0  0  0  0  0  0  0  0  0  0  0
  146.0062  129.8805  153.0043 H   0  0  0  0  0  0  0  0  0  0  0  0
  146.7909  129.6773  151.4322 H   0  0  0  0  0  0  0  0  0  0  0  0
  143.7005  131.1608  150.6578 H   0  0  0  0  0  0  0  0  0  0  0  0
  143.3744  133.5951  150.1794 H   0  0  0  0  0  0  0  0  0  0  0  0
  145.9512  135.9862  150.2084 H   0  0  0  0  0  0  0  0  0  0  0  0
  144.2128  135.8142  150.2284 H   0  0  0  0  0  0  0  0  0  0  0  0
  144.4382  137.3502  151.9782 H   0  0  0  0  0  0  0  0  0  0  0  0
  144.5592  135.8759  152.9115 H   0  0  0  0  0  0  0  0  0  0  0  0
  147.1558  136.5505  152.0228 H   0  0  0  0  0  0  0  0  0  0  0  0
  148.5692  137.4663  153.1348 H   0  0  0  0  0  0  0  0  0  0  0  0
  147.7395  139.2029  155.4711 H   0  0  0  0  0  0  0  0  0  0  0  0
  150.0079  139.3776  153.3978 H   0  0  0  0  0  0  0  0  0  0  0  0
  149.6672  141.7318  153.5484 H   0  0  0  0  0  0  0  0  0  0  0  0
  148.1945  141.3832  154.4527 H   0  0  0  0  0  0  0  0  0  0  0  0
  150.9627  141.9656  155.5076 H   0  0  0  0  0  0  0  0  0  0  0  0
  149.4095  142.3593  156.2539 H   0  0  0  0  0  0  0  0  0  0  0  0
  151.4399  139.2429  155.3354 H   0  0  0  0  0  0  0  0  0  0  0  0
  150.0730  137.4051  157.7312 H   0  0  0  0  0  0  0  0  0  0  0  0
  148.5449  136.7596  157.1398 H   0  0  0  0  0  0  0  0  0  0  0  0
  148.6599  138.4404  157.6235 H   0  0  0  0  0  0  0  0  0  0  0  0
  151.1785  136.5207  155.6524 H   0  0  0  0  0  0  0  0  0  0  0  0
  150.6071  136.9782  154.0599 H   0  0  0  0  0  0  0  0  0  0  0  0
  149.6331  135.9200  155.0689 H   0  0  0  0  0  0  0  0  0  0  0  0
  147.1943  134.3216  152.0624 H   0  0  0  0  0  0  0  0  0  0  0  0
  1  2  1  0  0  0  0
  1 23  1  0  0  0  0
  1 24  1  0  0  0  0
  1 25  1  0  0  0  0
  2 22  1  0  0  0  0
  2  3  2  0  0  0  0
  3  4  1  0  0  0  0
  3 26  1  0  0  0  0
  4  5  2  0  0  0  0
  4 27  1  0  0  0  0
  5  6  1  0  0  0  0
  5 21  1  0  0  0  0
  6  7  1  0  0  0  0
  6 28  1  0  0  0  0
  6 29  1  0  0  0  0
  7  8  1  0  0  0  0
  7 30  1  0  0  0  0
  7 31  1  0  0  0  0
  8  9  1  0  0  0  0
  8 32  1  0  0  0  0
  9 10  2  0  0  0  0
  9 11  1  0  0  0  0
 11 12  1  0  0  0  0
 11 33  1  0  0  0  0
 12 18  1  0  0  0  0
 12 13  1  0  0  0  0
 12 34  1  0  0  0  0
 13 17  1  0  0  0  0
 13 14  1  0  0  0  0
 13 35  1  0  0  0  0
 14 15  1  0  0  0  0
 14 36  1  0  0  0  0
 14 37  1  0  0  0  0
 15 16  1  0  0  0  0
 15 38  1  0  0  0  0
 15 39  1  0  0  0  0
 16 17  1  0  0  0  0
 17 18  1  0  0  0  0
 17 40  1  0  0  0  0
 18 19  1  0  0  0  0
 18 20  1  0  0  0  0
 19 41  1  0  0  0  0
 19 42  1  0  0  0  0
 19 43  1  0  0  0  0
 20 44  1  0  0  0  0
 20 45  1  0  0  0  0
 20 46  1  0  0  0  0
 21 22  2  0  0  0  0
 21 47  1  0  0  0  0
M  END
> <s_m_source_file>
AV-unprocessed.smi

> <i_m_source_file_index>
767

> <i_lp_mmshare_version>
43012

> <i_f3d_flags>
0

> <s_epik_input>
W0NIM11jMVtjSF1bY0hdYyhbY0hdbjEpW0NIMl1bQ0gyXVtOSF1DKD1PKVtOSF1bQ0BIXTJDKFtDSDNdKShbQ0gzXSlbQ0BIXShbQ0BASF0yMylPW0NIMl1bQ0gyXTM=

> <s_epik_cmdline>
J2VwaWtfcHl0aG9uJywgJy1waCcsICc3LjAnLCAnLXRuJywgJzgnLCAnLW1hJywgJzIwMCcsICctbWV0YWxfYmluZGluZycsICctaW1hZScsICc8aW5maWxlLm1hZT4nLCAnLW9tYWUnLCAnPG91dGZpbGUubWFlPic=

> <r_epik_Ionization_Penalty>
0.0567523

> <r_epik_Ionization_Penalty_Charging>
0

> <r_epik_Ionization_Penalty_Neutral>
0.0567523

> <r_epik_State_Penalty>
0.0489186

> <r_epik_Charging_Adjusted_Penalty>
0.0489186

> <i_epik_Tot_Q>
0

> <i_epik_Tot_abs_Q>
0

> <r_epik_Metal_State_Penalty>
0.044622

> <b_epik_Metal_Only>
0

> <s_lp_Force_Field>
OPLS_2005

> <r_lp_Energy>
31.223

> <b_lp_Chiralities_Consistent>
1

> <s_lp_Variant>
AV-unprocessed.smi:767-5

> <Gold.Version>
5.8.1

> <Gold.Id.Protein>
6NUR|6NUR_protein|mol2

> <Gold.PLP.Fitness>
44.7624

> <Gold.PLP.PLP>
-36.2123

> <Gold.PLP.part.hbond>
-2.0000

> <Gold.PLP.part.metal>
0.0000

> <Gold.PLP.part.buried>
-4.4548

> <Gold.PLP.part.nonpolar>
-30.4222

> <Gold.PLP.part.repulsive>
0.2963

> <Gold.PLP.ligand.clash>
0.0000

> <Gold.PLP.ligand.torsion>
0.3022

> <Gold.PLP.Chemscore.Hbond>
1.9920

> <Gold.PLP.Chemscore.CHOScore>
1.0000

> <Gold.PLP.Chemscore.Metal>
0.0000

> <Gold.Chemscore.Hbonds>
donor molecule, donor type, donor heavy atom, donor atom, acceptor molecule, acceptor atom, score
      L1  H     8    32       P1  7948  1.00
      L1  H    11    33       P1  7948  1.00
      L1  C    21    47       P1  7948  0.93

> <Gold.PLP.Chemscore.Internal.Correction>
0.1786

> <Gold.Rescore>
     Score         DG    S(hbond)    S(metal)    S(lipo)     H(rot)  DE(clash)    DE(int)     intcor
     19.23     -19.62       1.89        0.00      98.62       1.45       0.12       0.26       ----

> <Gold.Chemscore.Fitness>
19.2308

> <Gold.Chemscore.DG>
-19.6158

> <Gold.Chemscore.ZeroCoef>
-5.4800

> <Gold.Chemscore.Hbond>
1.8886

> <Gold.Chemscore.Metal>
0.0000

> <Gold.Chemscore.Lipo>
98.6250

> <Gold.Chemscore.Internal_Hbond>
0.0000

> <Gold.Chemscore.DEClash>
0.1243

> <Gold.Chemscore.DEInternal>
0.2607

> <Gold.Chemscore.Rot>
1.4497

> <Gold.Chemscore.Internal.Correction>
   9.000000E+99

> <Gold.Chemscore.Hbonds>
donor molecule, donor type, donor heavy atom, donor atom, acceptor molecule, acceptor atom, score
      L1  H     8    32       P1  7948  0.96
      L1  H    11    33       P1  7948  0.96

> <Gold.Chemscore.Hbond.Weighted>
-6.3079

> <Gold.Chemscore.Metal.Weighted>
-0.0000

> <Gold.Chemscore.Lipo.Weighted>
-11.5391

> <Gold.Chemscore.Internal_Hbond.Weighted>
0.0000

> <Gold.Chemscore.DEClash.Weighted>
0.1243

> <Gold.Chemscore.DEInternal.Weighted>
0.2607

> <Gold.Chemscore.Rot.Weighted>
3.7112

> <Gold.Chemscore.Internal.Correction.Weighted>
   9.000000E+99

> <Gold.Protein.RotatedTorsions>
[ 6907 6896 6895 6894 ] final   64.11 input  -60.11 | X-H torsion
[ 7974 7965 7964 7962 ] final   47.41 input  175.53 | X-H torsion
[ 8008 7997 7996 7995 ] final  -50.86 input   59.86 | X-H torsion
[ 10167 10162 10161 10158 ] final   39.63 input  -65.29 | X-H torsion
[ 10718 10713 10712 10709 ] final -101.50 input   66.30 | X-H torsion
[ 10763 10752 10751 10750 ] final  104.68 input  -60.55 | X-H torsion
[ 11005 11000 10999 10996 ] final    6.41 input  -57.11 | X-H torsion

> <Gold.Protein.ActiveResidues>
 VAL166  LYS551  ARG553  GLY616  TRP617  ASP618  TYR619  PRO620  LYS621  CYS622 
 ASP623  PHE694  ASN695  SER759  ASP760  ASP761  ALA762  ILE779  LEU786  VAL792 
 PHE793  MET794  SER795  GLU796  ALA797  LYS798  CYS799  TRP800  GLU811  SER814 

> <Gold.Protein.RotatedAtoms>
  152.4306  134.5785  159.9940 H   0  0  0  0  0  0  0  0  0  0  0  0  # atno 6907 bound_to 6896
  151.5909  133.3361  159.3035 H   0  0  0  0  0  0  0  0  0  0  0  0  # atno 6908 bound_to 6896
  150.8198  134.7436  159.6827 H   0  0  0  0  0  0  0  0  0  0  0  0  # atno 6909 bound_to 6896
  146.0300  139.4752  142.9844 H   0  0  0  0  0  0  0  0  0  0  0  0  # atno 7974 bound_to 7965
  154.4070  140.1262  156.4734 H   0  0  0  0  0  0  0  0  0  0  0  0  # atno 8008 bound_to 7997
  155.7156  140.3493  155.4973 H   0  0  0  0  0  0  0  0  0  0  0  0  # atno 8009 bound_to 7997
  155.9261  140.1061  157.1159 H   0  0  0  0  0  0  0  0  0  0  0  0  # atno 8010 bound_to 7997
  140.3820  144.1966  150.6130 H   0  0  0  0  0  0  0  0  0  0  0  0  # atno 10167 bound_to 10162
  156.0196  130.5376  150.6971 H   0  0  0  0  0  0  0  0  0  0  0  0  # atno 10718 bound_to 10713
  153.3692  135.3935  155.1776 H   0  0  0  0  0  0  0  0  0  0  0  0  # atno 10763 bound_to 10752
  154.8691  135.3698  154.4999 H   0  0  0  0  0  0  0  0  0  0  0  0  # atno 10764 bound_to 10752
  153.5465  135.7083  153.5672 H   0  0  0  0  0  0  0  0  0  0  0  0  # atno 10765 bound_to 10752
  140.5598  134.0203  155.7967 H   0  0  0  0  0  0  0  0  0  0  0  0  # atno 11005 bound_to 11000
  145.7056  141.0122  143.1481 LP  0  0  0  0  0  0  0  0  0  0  0  0  # atno 17320 bound_to 7965
  144.7026  139.8696  143.7439 LP  0  0  0  0  0  0  0  0  0  0  0  0  # atno 17321 bound_to 7965
  140.4927  143.2342  151.8794 LP  0  0  0  0  0  0  0  0  0  0  0  0  # atno 17342 bound_to 10162
  139.4794  144.5147  151.8884 LP  0  0  0  0  0  0  0  0  0  0  0  0  # atno 17343 bound_to 10162
  157.4640  131.0886  151.0715 LP  0  0  0  0  0  0  0  0  0  0  0  0  # atno 17370 bound_to 10713
  157.1194  130.6055  149.5501 LP  0  0  0  0  0  0  0  0  0  0  0  0  # atno 17371 bound_to 10713
  141.1121  133.9599  157.2890 LP  0  0  0  0  0  0  0  0  0  0  0  0  # atno 17394 bound_to 11000
  139.9413  135.0190  156.8717 LP  0  0  0  0  0  0  0  0  0  0  0  0  # atno 17395 bound_to 11000

$$$$
