AV-unprocessed.smi:3239|AV-procd|sdf|12379|dock5
  -GOLD-   2272018243D 1   1.00000     0.00000
 Structure written by MMmdl.
 35 35  0  0  0  0  0  0  0  0  1 V2000
  151.9351  145.4708  159.7743 C   0  0  0  0  0  0  0  0  0  0  0  0
  152.1412  144.2779  159.6145 C   0  0  0  0  0  0  0  0  0  0  0  0
  152.4099  142.8417  159.4258 C   0  0  0  0  0  0  0  0  0  0  0  0
  151.7229  142.2866  158.2650 N   0  0  0  0  0  0  0  0  0  0  0  0
  151.9855  141.0931  157.7057 C   0  0  0  0  0  0  0  0  0  0  0  0
  152.8377  140.3142  158.1333 O   0  0  0  0  0  0  0  0  0  0  0  0
  151.1154  140.7156  156.5421 C   0  0  0  0  0  0  0  0  0  0  0  0
  151.1385  139.4169  155.9858 C   0  0  0  0  0  0  0  0  0  0  0  0
  150.2784  139.1171  154.9114 C   0  0  0  0  0  0  0  0  0  0  0  0
  149.4147  140.1219  154.4285 C   0  0  0  0  0  0  0  0  0  0  0  0
  148.5650  139.8150  153.3549 N   0  0  0  0  0  0  0  0  0  0  0  0
  147.3961  138.9544  153.5095 C   0  0  2  0  0  0  0  0  0  0  0  0
  146.7040  138.7177  152.1554 C   0  0  0  0  0  0  0  0  0  0  0  0
  146.4287  139.5662  154.5346 C   0  0  0  0  0  0  0  0  0  0  0  0
  145.3178  138.7022  154.7108 O   0  0  0  0  0  0  0  0  0  0  0  0
  144.3387  139.2446  155.5793 C   0  0  0  0  0  0  0  0  0  0  0  0
  149.3827  141.3654  154.9622 N   0  0  0  0  0  0  0  0  0  0  0  0
  150.2066  141.6469  155.9941 C   0  0  0  0  0  0  0  0  0  0  0  0
  151.7606  146.5139  159.9147 H   0  0  0  0  0  0  0  0  0  0  0  0
  153.4845  142.7154  159.2940 H   0  0  0  0  0  0  0  0  0  0  0  0
  152.1339  142.3115  160.3385 H   0  0  0  0  0  0  0  0  0  0  0  0
  150.9866  142.8475  157.8619 H   0  0  0  0  0  0  0  0  0  0  0  0
  151.7979  138.6529  156.3716 H   0  0  0  0  0  0  0  0  0  0  0  0
  150.2827  138.1307  154.4711 H   0  0  0  0  0  0  0  0  0  0  0  0
  148.8037  140.1366  152.4280 H   0  0  0  0  0  0  0  0  0  0  0  0
  147.7265  137.9950  153.9092 H   0  0  0  0  0  0  0  0  0  0  0  0
  145.8435  138.0570  152.2631 H   0  0  0  0  0  0  0  0  0  0  0  0
  147.3787  138.2530  151.4361 H   0  0  0  0  0  0  0  0  0  0  0  0
  146.3516  139.6540  151.7214 H   0  0  0  0  0  0  0  0  0  0  0  0
  146.9356  139.6951  155.4925 H   0  0  0  0  0  0  0  0  0  0  0  0
  146.0963  140.5525  154.2058 H   0  0  0  0  0  0  0  0  0  0  0  0
  143.5112  138.5425  155.6813 H   0  0  0  0  0  0  0  0  0  0  0  0
  143.9391  140.1810  155.1878 H   0  0  0  0  0  0  0  0  0  0  0  0
  144.7495  139.4271  156.5732 H   0  0  0  0  0  0  0  0  0  0  0  0
  150.1363  142.6512  156.3864 H   0  0  0  0  0  0  0  0  0  0  0  0
  1  2  3  0  0  0  0
  1 19  1  0  0  0  0
  2  3  1  0  0  0  0
  3  4  1  0  0  0  0
  3 20  1  0  0  0  0
  3 21  1  0  0  0  0
  4  5  1  0  0  0  0
  4 22  1  0  0  0  0
  5  6  2  0  0  0  0
  5  7  1  0  0  0  0
  7 18  1  0  0  0  0
  7  8  2  0  0  0  0
  8  9  1  0  0  0  0
  8 23  1  0  0  0  0
  9 10  2  0  0  0  0
  9 24  1  0  0  0  0
 10 11  1  0  0  0  0
 10 17  1  0  0  0  0
 11 12  1  0  0  0  0
 11 25  1  0  0  0  0
 12 13  1  0  0  0  0
 12 14  1  0  0  0  0
 12 26  1  0  0  0  0
 13 27  1  0  0  0  0
 13 28  1  0  0  0  0
 13 29  1  0  0  0  0
 14 15  1  0  0  0  0
 14 30  1  0  0  0  0
 14 31  1  0  0  0  0
 15 16  1  0  0  0  0
 16 32  1  0  0  0  0
 16 33  1  0  0  0  0
 16 34  1  0  0  0  0
 17 18  2  0  0  0  0
 18 35  1  0  0  0  0
M  END
> <s_m_source_file>
AV-unprocessed.smi

> <i_m_source_file_index>
3239

> <i_lp_mmshare_version>
43012

> <i_f3d_flags>
0

> <s_epik_input>
W0NIXSNDW0NIMl1bTkhdQyg9TyljMVtjSF1bY0hdYyhuW2NIXTEpW05IXVtDQEhdKFtDSDNdKVtDSDJdT1tDSDNd

> <s_epik_cmdline>
J2VwaWtfcHl0aG9uJywgJy1waCcsICc3LjAnLCAnLXRuJywgJzgnLCAnLW1hJywgJzIwMCcsICctbWV0YWxfYmluZGluZycsICctaW1hZScsICc8aW5maWxlLm1hZT4nLCAnLW9tYWUnLCAnPG91dGZpbGUubWFlPic=

> <r_lp_tautomer_probability>
1

> <r_epik_Ionization_Penalty>
0.00321854

> <r_epik_Ionization_Penalty_Charging>
0

> <r_epik_Ionization_Penalty_Neutral>
0.00321854

> <r_epik_State_Penalty>
0.00226446

> <r_epik_Charging_Adjusted_Penalty>
0.00226446

> <i_epik_Tot_Q>
0

> <i_epik_Tot_abs_Q>
0

> <r_epik_Metal_State_Penalty>
-0

> <b_epik_Metal_Only>
0

> <s_lp_Force_Field>
OPLS_2005

> <r_lp_Energy>
6.08626

> <b_lp_Chiralities_Consistent>
1

> <s_lp_Variant>
AV-unprocessed.smi:3239-1

> <Gold.Version>
5.8.1

> <Gold.Id.Protein>
6NUR|6NUR_protein|mol2

> <Gold.PLP.Fitness>
42.4232

> <Gold.PLP.PLP>
-35.3320

> <Gold.PLP.part.hbond>
-1.6922

> <Gold.PLP.part.metal>
0.0000

> <Gold.PLP.part.buried>
-5.0023

> <Gold.PLP.part.nonpolar>
-30.4968

> <Gold.PLP.part.repulsive>
0.4094

> <Gold.PLP.ligand.clash>
0.0000

> <Gold.PLP.ligand.torsion>
0.8015

> <Gold.PLP.Chemscore.Hbond>
1.8796

> <Gold.PLP.Chemscore.CHOScore>
1.0000

> <Gold.PLP.Chemscore.Metal>
0.0000

> <Gold.Chemscore.Hbonds>
donor molecule, donor type, donor heavy atom, donor atom, acceptor molecule, acceptor atom, score
      L1  H    11    25       P1  7957  0.93
      P1  H  7997  8009       L1     6  0.83
      L1  C    18    35       P1  8028  1.00

> <Gold.PLP.Chemscore.Internal.Correction>
0.0553

> <Gold.Rescore>
     Score         DG    S(hbond)    S(metal)    S(lipo)     H(rot)  DE(clash)    DE(int)     intcor
     16.04     -16.92       1.81        0.00      81.51       1.62       0.00       0.88       ----

> <Gold.Chemscore.Fitness>
16.0364

> <Gold.Chemscore.DG>
-16.9156

> <Gold.Chemscore.ZeroCoef>
-5.4800

> <Gold.Chemscore.Hbond>
1.8095

> <Gold.Chemscore.Metal>
0.0000

> <Gold.Chemscore.Lipo>
81.5087

> <Gold.Chemscore.Internal_Hbond>
0.0000

> <Gold.Chemscore.DEClash>
0.0000

> <Gold.Chemscore.DEInternal>
0.8792

> <Gold.Chemscore.Rot>
1.6190

> <Gold.Chemscore.Internal.Correction>
   9.000000E+99

> <Gold.Chemscore.Hbonds>
donor molecule, donor type, donor heavy atom, donor atom, acceptor molecule, acceptor atom, score
      L1  H    11    25       P1  7957  0.85
      P1  H  7997  8009       L1     6  0.71

> <Gold.Chemscore.Hbond.Weighted>
-6.0437

> <Gold.Chemscore.Metal.Weighted>
-0.0000

> <Gold.Chemscore.Lipo.Weighted>
-9.5365

> <Gold.Chemscore.Internal_Hbond.Weighted>
0.0000

> <Gold.Chemscore.DEClash.Weighted>
0.0000

> <Gold.Chemscore.DEInternal.Weighted>
0.8792

> <Gold.Chemscore.Rot.Weighted>
4.1447

> <Gold.Chemscore.Internal.Correction.Weighted>
   9.000000E+99

> <Gold.Protein.RotatedTorsions>
[ 6907 6896 6895 6894 ] final  -16.54 input  -60.11 | X-H torsion
[ 7974 7965 7964 7962 ] final -106.64 input  175.53 | X-H torsion
[ 8008 7997 7996 7995 ] final  163.38 input   59.86 | X-H torsion
[ 10167 10162 10161 10158 ] final  105.25 input  -65.29 | X-H torsion
[ 10718 10713 10712 10709 ] final  161.90 input   66.30 | X-H torsion
[ 10763 10752 10751 10750 ] final   78.53 input  -60.55 | X-H torsion
[ 11005 11000 10999 10996 ] final -113.80 input  -57.11 | X-H torsion

> <Gold.Protein.ActiveResidues>
 VAL166  LYS551  ARG553  GLY616  TRP617  ASP618  TYR619  PRO620  LYS621  CYS622 
 ASP623  PHE694  ASN695  SER759  ASP760  ASP761  ALA762  ILE779  LEU786  VAL792 
 PHE793  MET794  SER795  GLU796  ALA797  LYS798  CYS799  TRP800  GLU811  SER814 

> <Gold.Protein.RotatedAtoms>
  151.3071  135.0784  159.9258 H   0  0  0  0  0  0  0  0  0  0  0  0  # atno 6907 bound_to 6896
  152.5285  133.9774  159.7801 H   0  0  0  0  0  0  0  0  0  0  0  0  # atno 6908 bound_to 6896
  151.0071  133.5949  159.2718 H   0  0  0  0  0  0  0  0  0  0  0  0  # atno 6909 bound_to 6896
  145.2154  140.9113  143.3290 H   0  0  0  0  0  0  0  0  0  0  0  0  # atno 7974 bound_to 7965
  156.1961  140.1725  156.7994 H   0  0  0  0  0  0  0  0  0  0  0  0  # atno 8008 bound_to 7997
  154.5532  140.0713  156.8732 H   0  0  0  0  0  0  0  0  0  0  0  0  # atno 8009 bound_to 7997
  155.2989  140.3360  155.4251 H   0  0  0  0  0  0  0  0  0  0  0  0  # atno 8010 bound_to 7997
  139.7108  144.7078  151.1030 H   0  0  0  0  0  0  0  0  0  0  0  0  # atno 10167 bound_to 10162
  157.1301  131.0514  151.2375 H   0  0  0  0  0  0  0  0  0  0  0  0  # atno 10718 bound_to 10713
  153.0882  135.4873  154.8638 H   0  0  0  0  0  0  0  0  0  0  0  0  # atno 10763 bound_to 10752
  154.7236  135.3045  154.9009 H   0  0  0  0  0  0  0  0  0  0  0  0  # atno 10764 bound_to 10752
  153.9666  135.6806  153.4799 H   0  0  0  0  0  0  0  0  0  0  0  0  # atno 10765 bound_to 10752
  141.0592  133.9563  157.2699 H   0  0  0  0  0  0  0  0  0  0  0  0  # atno 11005 bound_to 11000
  144.9816  139.3777  143.6259 LP  0  0  0  0  0  0  0  0  0  0  0  0  # atno 17320 bound_to 7965
  146.3388  139.8960  142.8802 LP  0  0  0  0  0  0  0  0  0  0  0  0  # atno 17321 bound_to 7965
  140.7733  143.5295  150.9440 LP  0  0  0  0  0  0  0  0  0  0  0  0  # atno 17342 bound_to 10162
  139.8980  143.6871  152.3135 LP  0  0  0  0  0  0  0  0  0  0  0  0  # atno 17343 bound_to 10162
  157.4400  130.7539  149.7061 LP  0  0  0  0  0  0  0  0  0  0  0  0  # atno 17370 bound_to 10713
  155.9810  130.4024  150.3498 LP  0  0  0  0  0  0  0  0  0  0  0  0  # atno 17371 bound_to 10713
  139.9417  135.0190  156.8728 LP  0  0  0  0  0  0  0  0  0  0  0  0  # atno 17394 bound_to 11000
  140.5903  134.0268  155.7497 LP  0  0  0  0  0  0  0  0  0  0  0  0  # atno 17395 bound_to 11000

$$$$
