AV-unprocessed.smi:211|AV-procd|sdf|1615|dock10
  -GOLD-   2262019543D 1   1.00000     0.00000
 Structure written by MMmdl.
 59 62  0  0  0  0  0  0  0  0  1 V2000
  144.7375  143.9815  161.2806 C   0  0  0  0  0  0  0  0  0  0  0  0
  145.7646  143.4388  160.2929 C   0  0  0  0  0  0  0  0  0  0  0  0
  146.9550  143.3941  160.6018 O   0  0  0  0  0  0  0  0  0  0  0  0
  145.2860  143.0301  159.1079 N   0  0  0  0  0  0  0  0  0  0  0  0
  146.0783  142.4669  158.0153 C   0  0  2  0  0  0  0  0  0  0  0  0
  146.0868  143.4708  156.8468 C   0  0  0  0  0  0  0  0  0  0  0  0
  145.5289  141.0690  157.6245 C   0  0  0  0  0  0  0  0  0  0  0  0
  146.2950  140.4503  156.4305 C   0  0  0  0  0  0  0  0  0  0  0  0
  145.7315  139.0754  156.0388 C   0  0  0  0  0  0  0  0  0  0  0  0
  144.2985  139.1558  155.7678 N   0  0  0  0  0  0  0  0  0  0  0  0
  143.7934  138.0834  155.1057 C   0  0  0  0  0  0  0  0  0  0  0  0
  142.6816  137.4563  155.5759 N   0  0  0  0  0  0  0  0  0  0  0  0
  142.1903  136.3870  154.9431 C   0  0  0  0  0  0  0  0  0  0  0  0
  142.6429  135.7903  153.8392 N   0  0  0  0  0  0  0  0  0  0  0  0
  143.7499  136.4215  153.3537 C   0  0  0  0  0  0  0  0  0  0  0  0
  144.3872  137.5610  153.9217 C   0  0  0  0  0  0  0  0  0  0  0  0
  145.4895  137.9169  153.1532 N   0  0  0  0  0  0  0  0  0  0  0  0
  145.5124  137.0288  152.1971 C   0  0  0  0  0  0  0  0  0  0  0  0
  144.4879  136.1097  152.2251 N   0  0  0  0  0  0  0  0  0  0  0  0
  144.2959  135.0088  151.3274 C   0  0  0  0  0  0  0  0  0  0  0  0
  144.3042  133.5616  151.8280 C   0  0  0  0  0  0  0  0  0  0  0  0
  144.9050  133.1081  150.4777 C   0  0  0  0  0  0  0  0  0  0  0  0
  145.9913  132.0247  150.5965 C   0  0  0  0  0  0  0  0  0  0  0  0
  146.6830  131.8328  149.3796 O   0  0  0  0  0  0  0  0  0  0  0  0
  143.8502  132.6616  149.4429 C   0  0  0  0  0  0  0  0  0  0  0  0
  144.4207  132.3902  148.1793 O   0  0  0  0  0  0  0  0  0  0  0  0
  145.4027  134.5679  150.3679 C   0  0  0  0  0  0  0  0  0  0  0  0
  143.5042  139.7117  156.8627 C   0  0  0  0  0  0  0  0  0  0  0  0
  144.0240  141.0990  157.2736 C   0  0  0  0  0  0  0  0  0  0  0  0
  144.1325  144.7604  160.8152 H   0  0  0  0  0  0  0  0  0  0  0  0
  145.2286  144.4089  162.1554 H   0  0  0  0  0  0  0  0  0  0  0  0
  144.0757  143.1825  161.6159 H   0  0  0  0  0  0  0  0  0  0  0  0
  144.2917  143.1093  158.9502 H   0  0  0  0  0  0  0  0  0  0  0  0
  147.1069  142.3355  158.3573 H   0  0  0  0  0  0  0  0  0  0  0  0
  146.7641  143.1630  156.0512 H   0  0  0  0  0  0  0  0  0  0  0  0
  146.4208  144.4551  157.1768 H   0  0  0  0  0  0  0  0  0  0  0  0
  145.0916  143.5873  156.4165 H   0  0  0  0  0  0  0  0  0  0  0  0
  145.6580  140.4057  158.4814 H   0  0  0  0  0  0  0  0  0  0  0  0
  146.2402  141.1210  155.5719 H   0  0  0  0  0  0  0  0  0  0  0  0
  147.3536  140.3353  156.6634 H   0  0  0  0  0  0  0  0  0  0  0  0
  146.2798  138.6974  155.1766 H   0  0  0  0  0  0  0  0  0  0  0  0
  145.8953  138.3628  156.8483 H   0  0  0  0  0  0  0  0  0  0  0  0
  141.3086  135.9461  155.3845 H   0  0  0  0  0  0  0  0  0  0  0  0
  146.2804  137.0254  151.4374 H   0  0  0  0  0  0  0  0  0  0  0  0
  143.3767  135.2247  150.7802 H   0  0  0  0  0  0  0  0  0  0  0  0
  144.9838  133.4184  152.6703 H   0  0  0  0  0  0  0  0  0  0  0  0
  143.3171  133.1563  152.0527 H   0  0  0  0  0  0  0  0  0  0  0  0
  146.7308  132.2995  151.3491 H   0  0  0  0  0  0  0  0  0  0  0  0
  145.5686  131.0721  150.9173 H   0  0  0  0  0  0  0  0  0  0  0  0
  147.4534  131.3134  149.5503 H   0  0  0  0  0  0  0  0  0  0  0  0
  143.3170  131.7734  149.7832 H   0  0  0  0  0  0  0  0  0  0  0  0
  143.0905  133.4300  149.2981 H   0  0  0  0  0  0  0  0  0  0  0  0
  144.8287  133.1792  147.8573 H   0  0  0  0  0  0  0  0  0  0  0  0
  145.3363  135.0079  149.3723 H   0  0  0  0  0  0  0  0  0  0  0  0
  146.4002  134.7085  150.7887 H   0  0  0  0  0  0  0  0  0  0  0  0
  142.4589  139.7932  156.5611 H   0  0  0  0  0  0  0  0  0  0  0  0
  143.5420  139.0339  157.7168 H   0  0  0  0  0  0  0  0  0  0  0  0
  143.4346  141.4473  158.1209 H   0  0  0  0  0  0  0  0  0  0  0  0
  143.8500  141.8070  156.4621 H   0  0  0  0  0  0  0  0  0  0  0  0
  1  2  1  0  0  0  0
  1 30  1  0  0  0  0
  1 31  1  0  0  0  0
  1 32  1  0  0  0  0
  2  3  2  0  0  0  0
  2  4  1  0  0  0  0
  4  5  1  0  0  0  0
  4 33  1  0  0  0  0
  5  6  1  0  0  0  0
  5  7  1  0  0  0  0
  5 34  1  0  0  0  0
  6 35  1  0  0  0  0
  6 36  1  0  0  0  0
  6 37  1  0  0  0  0
  7 29  1  0  0  0  0
  7  8  1  0  0  0  0
  7 38  1  0  0  0  0
  8  9  1  0  0  0  0
  8 39  1  0  0  0  0
  8 40  1  0  0  0  0
  9 10  1  0  0  0  0
  9 41  1  0  0  0  0
  9 42  1  0  0  0  0
 10 11  1  0  0  0  0
 10 28  1  0  0  0  0
 11 16  1  0  0  0  0
 11 12  2  0  0  0  0
 12 13  1  0  0  0  0
 13 14  2  0  0  0  0
 13 43  1  0  0  0  0
 14 15  1  0  0  0  0
 15 19  1  0  0  0  0
 15 16  2  0  0  0  0
 16 17  1  0  0  0  0
 17 18  2  0  0  0  0
 18 19  1  0  0  0  0
 18 44  1  0  0  0  0
 19 20  1  0  0  0  0
 20 27  1  0  0  0  0
 20 21  1  0  0  0  0
 20 45  1  0  0  0  0
 21 22  1  0  0  0  0
 21 46  1  0  0  0  0
 21 47  1  0  0  0  0
 22 23  1  0  0  0  0
 22 25  1  0  0  0  0
 22 27  1  0  0  0  0
 23 24  1  0  0  0  0
 23 48  1  0  0  0  0
 23 49  1  0  0  0  0
 24 50  1  0  0  0  0
 25 26  1  0  0  0  0
 25 51  1  0  0  0  0
 25 52  1  0  0  0  0
 26 53  1  0  0  0  0
 27 54  1  0  0  0  0
 27 55  1  0  0  0  0
 28 29  1  0  0  0  0
 28 56  1  0  0  0  0
 28 57  1  0  0  0  0
 29 58  1  0  0  0  0
 29 59  1  0  0  0  0
M  END
> <s_m_source_file>
AV-unprocessed.smi

> <i_m_source_file_index>
211

> <i_lp_mmshare_version>
43012

> <i_f3d_flags>
0

> <s_epik_input>
W0NIM11DKD1PKVtOSF1bQ0BIXShbQ0gzXSlbQ0hdMVtDSDJdW0NIMl1OKFtDSDJdW0NIMl0xKWMobltjSF1uMiljKGMyMyluW2NIXW4zW0NIXShbQ0gyXTQpW0NIMl1DNChbQ0gyXVtPSF0pW0NIMl1bT0hd

> <s_epik_cmdline>
J2VwaWtfcHl0aG9uJywgJy1waCcsICc3LjAnLCAnLXRuJywgJzgnLCAnLW1hJywgJzIwMCcsICctbWV0YWxfYmluZGluZycsICctaW1hZScsICc8aW5maWxlLm1hZT4nLCAnLW9tYWUnLCAnPG91dGZpbGUubWFlPic=

> <r_lp_tautomer_probability>
1

> <r_epik_Ionization_Penalty>
0.00335435

> <r_epik_Ionization_Penalty_Charging>
0

> <r_epik_Ionization_Penalty_Neutral>
0.00335435

> <r_epik_State_Penalty>
0.00231338

> <r_epik_Charging_Adjusted_Penalty>
0.00231338

> <i_epik_Tot_Q>
0

> <i_epik_Tot_abs_Q>
0

> <r_epik_Metal_State_Penalty>
-0

> <b_epik_Metal_Only>
0

> <s_lp_Force_Field>
OPLS_2005

> <r_lp_Energy>
41.9303

> <b_lp_Chiralities_Consistent>
1

> <s_lp_Variant>
AV-unprocessed.smi:211-1

> <Gold.Version>
5.8.1

> <Gold.Id.Protein>
6NUR|6NUR_protein|mol2

> <Gold.PLP.Fitness>
50.9678

> <Gold.PLP.PLP>
-34.4070

> <Gold.PLP.part.hbond>
-5.0565

> <Gold.PLP.part.metal>
0.0000

> <Gold.PLP.part.buried>
-5.0565

> <Gold.PLP.part.nonpolar>
-23.9314

> <Gold.PLP.part.repulsive>
0.4561

> <Gold.PLP.ligand.clash>
0.0000

> <Gold.PLP.ligand.torsion>
0.5762

> <Gold.PLP.Chemscore.Hbond>
3.6160

> <Gold.PLP.Chemscore.CHOScore>
1.9864

> <Gold.PLP.Chemscore.Metal>
0.0000

> <Gold.Chemscore.Hbonds>
donor molecule, donor type, donor heavy atom, donor atom, acceptor molecule, acceptor atom, score
      L1  H    24    50       P1 10747  1.00
      L1  H    26    53       P1  7921  0.89
      P1  H  6933  6944       L1     3  0.99
      L1  C    13    43       P1 11000  0.79
      L1  C    18    44       P1  7948  0.33

> <Gold.PLP.Chemscore.Internal.Correction>
0.9059

> <Gold.Rescore>
     Score         DG    S(hbond)    S(metal)    S(lipo)     H(rot)  DE(clash)    DE(int)     intcor
      9.97     -10.94       2.79        0.00      52.69       3.92       0.18       0.78       ----

> <Gold.Chemscore.Fitness>
9.9672

> <Gold.Chemscore.DG>
-10.9367

> <Gold.Chemscore.ZeroCoef>
-5.4800

> <Gold.Chemscore.Hbond>
2.7891

> <Gold.Chemscore.Metal>
0.0000

> <Gold.Chemscore.Lipo>
52.6900

> <Gold.Chemscore.Internal_Hbond>
0.0000

> <Gold.Chemscore.DEClash>
0.1849

> <Gold.Chemscore.DEInternal>
0.7846

> <Gold.Chemscore.Rot>
3.9155

> <Gold.Chemscore.Internal.Correction>
   9.000000E+99

> <Gold.Chemscore.Hbonds>
donor molecule, donor type, donor heavy atom, donor atom, acceptor molecule, acceptor atom, score
      L1  H    24    50       P1 10747  1.00
      L1  H    26    53       P1  7921  0.43
      P1  H  6933  6944       L1     3  0.92

> <Gold.Chemscore.Hbond.Weighted>
-9.3156

> <Gold.Chemscore.Metal.Weighted>
-0.0000

> <Gold.Chemscore.Lipo.Weighted>
-6.1647

> <Gold.Chemscore.Internal_Hbond.Weighted>
0.0000

> <Gold.Chemscore.DEClash.Weighted>
0.1849

> <Gold.Chemscore.DEInternal.Weighted>
0.7846

> <Gold.Chemscore.Rot.Weighted>
10.0236

> <Gold.Chemscore.Internal.Correction.Weighted>
   9.000000E+99

> <Gold.Protein.RotatedTorsions>
[ 6907 6896 6895 6894 ] final  -49.86 input  -60.11 | X-H torsion
[ 7974 7965 7964 7962 ] final   27.10 input  175.53 | X-H torsion
[ 8008 7997 7996 7995 ] final   67.70 input   59.86 | X-H torsion
[ 10167 10162 10161 10158 ] final  -37.96 input  -65.29 | X-H torsion
[ 10718 10713 10712 10709 ] final  118.21 input   66.30 | X-H torsion
[ 10763 10752 10751 10750 ] final  125.10 input  -60.55 | X-H torsion
[ 11005 11000 10999 10996 ] final -142.34 input  -57.11 | X-H torsion

> <Gold.Protein.ActiveResidues>
 VAL166  LYS551  ARG553  GLY616  TRP617  ASP618  TYR619  PRO620  LYS621  CYS622 
 ASP623  PHE694  ASN695  SER759  ASP760  ASP761  ALA762  ILE779  LEU786  VAL792 
 PHE793  MET794  SER795  GLU796  ALA797  LYS798  CYS799  TRP800  GLU811  SER814 

> <Gold.Protein.RotatedAtoms>
  150.8763  134.8147  159.7192 H   0  0  0  0  0  0  0  0  0  0  0  0  # atno 6907 bound_to 6896
  152.4749  134.4866  159.9692 H   0  0  0  0  0  0  0  0  0  0  0  0  # atno 6908 bound_to 6896
  151.4947  133.3478  159.2894 H   0  0  0  0  0  0  0  0  0  0  0  0  # atno 6909 bound_to 6896
  146.1802  139.7237  142.8905 H   0  0  0  0  0  0  0  0  0  0  0  0  # atno 7974 bound_to 7965
  155.6969  140.3495  155.4917 H   0  0  0  0  0  0  0  0  0  0  0  0  # atno 8008 bound_to 7997
  155.9474  140.1113  157.1027 H   0  0  0  0  0  0  0  0  0  0  0  0  # atno 8009 bound_to 7997
  154.4115  140.1201  156.4994 H   0  0  0  0  0  0  0  0  0  0  0  0  # atno 8010 bound_to 7997
  140.7105  143.3308  151.2574 H   0  0  0  0  0  0  0  0  0  0  0  0  # atno 10167 bound_to 10162
  157.6045  131.1045  150.7725 H   0  0  0  0  0  0  0  0  0  0  0  0  # atno 10718 bound_to 10713
  153.6719  135.3329  155.3155 H   0  0  0  0  0  0  0  0  0  0  0  0  # atno 10763 bound_to 10752
  154.8489  135.4388  154.1696 H   0  0  0  0  0  0  0  0  0  0  0  0  # atno 10764 bound_to 10752
  153.2690  135.6998  153.7576 H   0  0  0  0  0  0  0  0  0  0  0  0  # atno 10765 bound_to 10752
  140.8235  134.2603  157.4890 H   0  0  0  0  0  0  0  0  0  0  0  0  # atno 11005 bound_to 11000
  145.4097  141.0395  143.3024 LP  0  0  0  0  0  0  0  0  0  0  0  0  # atno 17320 bound_to 7965
  144.8303  139.5640  143.6947 LP  0  0  0  0  0  0  0  0  0  0  0  0  # atno 17321 bound_to 7965
  139.6789  143.9889  152.2797 LP  0  0  0  0  0  0  0  0  0  0  0  0  # atno 17342 bound_to 10162
  139.9512  144.6619  150.8170 LP  0  0  0  0  0  0  0  0  0  0  0  0  # atno 17343 bound_to 10162
  156.8116  130.4954  149.5355 LP  0  0  0  0  0  0  0  0  0  0  0  0  # atno 17370 bound_to 10713
  156.1127  130.6052  151.0073 LP  0  0  0  0  0  0  0  0  0  0  0  0  # atno 17371 bound_to 10713
  139.8707  134.9548  156.4186 LP  0  0  0  0  0  0  0  0  0  0  0  0  # atno 17394 bound_to 11000
  140.9074  133.7736  155.9751 LP  0  0  0  0  0  0  0  0  0  0  0  0  # atno 17395 bound_to 11000

$$$$
