AV-unprocessed.smi:510|AV-procd|sdf|2763|dock4
  -GOLD-   2262023223D 1   1.00000     0.00000
 Structure written by MMmdl.
 29 30  0  0  0  0  0  0  0  0  2 V2000
  149.8116  140.3797  155.0687 C   0  0  0  0  0  0  0  0  0  0  0  0
  149.0963  141.5112  155.5319 O   0  0  0  0  0  0  0  0  0  0  0  0
  149.4264  141.8506  156.8679 C   0  0  0  0  0  0  0  0  0  0  0  0
  150.9406  142.0719  156.9629 C   0  0  0  0  0  0  0  0  0  0  0  0
  151.3302  142.5701  158.2777 N   0  0  0  0  0  0  0  0  0  0  0  0
  150.9371  143.7237  158.8725 C   0  0  0  0  0  0  0  0  0  0  0  0
  150.0740  144.5976  158.2270 N   0  0  0  0  0  0  0  0  0  0  0  0
  151.4421  143.9357  160.0879 N   0  0  0  0  0  0  0  0  0  0  0  0
  152.2390  142.8152  160.2798 C   0  0  0  0  0  0  0  0  0  0  0  0
  152.1962  141.9844  159.2040 C   0  0  0  0  0  0  0  0  0  0  0  0
  152.9564  140.7210  159.1081 C   0  0  0  0  0  0  0  0  0  0  0  0
  152.8922  140.0176  158.1020 O   0  0  0  0  0  0  0  0  0  0  0  0
  153.6963  140.4791  160.2365 N   0  5  0  0  0  0  0  0  0  0  0  0
  153.7653  141.2878  161.3518 C   0  0  0  0  0  0  0  0  0  0  0  0
  154.4605  140.9874  162.3227 O   0  0  0  0  0  0  0  0  0  0  0  0
  153.0470  142.4563  161.3909 N   0  0  0  0  0  0  0  0  0  0  0  0
  153.0652  143.3702  162.5371 C   0  0  0  0  0  0  0  0  0  0  0  0
  149.5243  140.1599  154.0405 H   0  0  0  0  0  0  0  0  0  0  0  0
  149.5927  139.5000  155.6753 H   0  0  0  0  0  0  0  0  0  0  0  0
  150.8875  140.5587  155.0868 H   0  0  0  0  0  0  0  0  0  0  0  0
  148.8923  142.7533  157.1690 H   0  0  0  0  0  0  0  0  0  0  0  0
  149.1224  141.0475  157.5412 H   0  0  0  0  0  0  0  0  0  0  0  0
  151.4673  141.1392  156.7598 H   0  0  0  0  0  0  0  0  0  0  0  0
  151.2788  142.7700  156.1979 H   0  0  0  0  0  0  0  0  0  0  0  0
  149.7188  144.3979  157.3033 H   0  0  0  0  0  0  0  0  0  0  0  0
  149.7744  145.4590  158.6601 H   0  0  0  0  0  0  0  0  0  0  0  0
  153.6838  143.0376  163.3709 H   0  0  0  0  0  0  0  0  0  0  0  0
  152.0525  143.5038  162.9186 H   0  0  0  0  0  0  0  0  0  0  0  0
  153.4371  144.3465  162.2250 H   0  0  0  0  0  0  0  0  0  0  0  0
  1  2  1  0  0  0  0
  1 18  1  0  0  0  0
  1 19  1  0  0  0  0
  1 20  1  0  0  0  0
  2  3  1  0  0  0  0
  3  4  1  0  0  0  0
  3 21  1  0  0  0  0
  3 22  1  0  0  0  0
  4  5  1  0  0  0  0
  4 23  1  0  0  0  0
  4 24  1  0  0  0  0
  5 10  1  0  0  0  0
  5  6  1  0  0  0  0
  6  7  1  0  0  0  0
  6  8  2  0  0  0  0
  7 25  1  0  0  0  0
  7 26  1  0  0  0  0
  8  9  1  0  0  0  0
  9 16  1  0  0  0  0
  9 10  2  0  0  0  0
 10 11  1  0  0  0  0
 11 12  2  0  0  0  0
 11 13  1  0  0  0  0
 13 14  1  0  0  0  0
 14 15  2  0  0  0  0
 14 16  1  0  0  0  0
 16 17  1  0  0  0  0
 17 27  1  0  0  0  0
 17 28  1  0  0  0  0
 17 29  1  0  0  0  0
M  CHG  1  13  -1
M  END
> <s_m_source_file>
AV-unprocessed.smi

> <i_m_source_file_index>
510

> <i_lp_mmshare_version>
43012

> <i_f3d_flags>
0

> <s_epik_input>
W0NIM11PW0NIMl1bQ0gyXW4oYyhuMSlbTkgyXSljKGMxMiljKD1PKVtuSF1jKD1PKW4yW0NIM10=

> <s_epik_cmdline>
J2VwaWtfcHl0aG9uJywgJy1waCcsICc3LjAnLCAnLXRuJywgJzgnLCAnLW1hJywgJzIwMCcsICctbWV0YWxfYmluZGluZycsICctaW1hZScsICc8aW5maWxlLm1hZT4nLCAnLW9tYWUnLCAnPG91dGZpbGUubWFlPic=

> <r_lp_tautomer_probability>
1

> <r_epik_Ionization_Penalty>
5.7178

> <r_epik_Ionization_Penalty_Charging>
1.59161e-08

> <r_epik_Ionization_Penalty_Neutral>
5.7178

> <r_epik_State_Penalty>
5.71748

> <r_epik_Charging_Adjusted_Penalty>
5.71748

> <i_epik_Tot_Q>
-1

> <i_epik_Tot_abs_Q>
1

> <r_epik_Metal_State_Penalty>
1.69653

> <b_epik_Metal_Only>
1

> <s_lp_Force_Field>
OPLS_2005

> <r_lp_Energy>
28.6626

> <b_lp_Chiralities_Consistent>
1

> <s_lp_Variant>
AV-unprocessed.smi:510-2

> <Gold.Version>
5.8.1

> <Gold.Id.Protein>
6NUR|6NUR_protein|mol2

> <Gold.PLP.Fitness>
41.1796

> <Gold.PLP.PLP>
-35.2046

> <Gold.PLP.part.hbond>
-4.0000

> <Gold.PLP.part.metal>
0.0000

> <Gold.PLP.part.buried>
-4.5563

> <Gold.PLP.part.nonpolar>
-26.0588

> <Gold.PLP.part.repulsive>
0.2983

> <Gold.PLP.ligand.clash>
0.0000

> <Gold.PLP.ligand.torsion>
0.0139

> <Gold.PLP.Chemscore.Hbond>
2.0000

> <Gold.PLP.Chemscore.CHOScore>
0.0000

> <Gold.PLP.Chemscore.Metal>
0.0000

> <Gold.Chemscore.Hbonds>
donor molecule, donor type, donor heavy atom, donor atom, acceptor molecule, acceptor atom, score
      L1  H     7    25       P1  8028  0.95
      P1  H  7997  8008       L1    12  1.00

> <Gold.PLP.Chemscore.Internal.Correction>
0.0029

> <Gold.Rescore>
     Score         DG    S(hbond)    S(metal)    S(lipo)     H(rot)  DE(clash)    DE(int)     intcor
     10.64     -10.82       1.51        0.00      41.34       1.77       0.14       0.04       ----

> <Gold.Chemscore.Fitness>
10.6422

> <Gold.Chemscore.DG>
-10.8221

> <Gold.Chemscore.ZeroCoef>
-5.4800

> <Gold.Chemscore.Hbond>
1.5051

> <Gold.Chemscore.Metal>
0.0000

> <Gold.Chemscore.Lipo>
41.3381

> <Gold.Chemscore.Internal_Hbond>
0.0000

> <Gold.Chemscore.DEClash>
0.1423

> <Gold.Chemscore.DEInternal>
0.0376

> <Gold.Chemscore.Rot>
1.7663

> <Gold.Chemscore.Internal.Correction>
   9.000000E+99

> <Gold.Chemscore.Hbonds>
donor molecule, donor type, donor heavy atom, donor atom, acceptor molecule, acceptor atom, score
      L1  H     7    25       P1  8028  0.21
      L1  H     7    26       P1  8029  0.01
      P1  H  7997  8008       L1    12  0.74

> <Gold.Chemscore.Hbond.Weighted>
-5.0272

> <Gold.Chemscore.Metal.Weighted>
-0.0000

> <Gold.Chemscore.Lipo.Weighted>
-4.8366

> <Gold.Chemscore.Internal_Hbond.Weighted>
0.0000

> <Gold.Chemscore.DEClash.Weighted>
0.1423

> <Gold.Chemscore.DEInternal.Weighted>
0.0376

> <Gold.Chemscore.Rot.Weighted>
4.5217

> <Gold.Chemscore.Internal.Correction.Weighted>
   9.000000E+99

> <Gold.Protein.RotatedTorsions>
[ 6907 6896 6895 6894 ] final -110.09 input  -60.11 | X-H torsion
[ 7974 7965 7964 7962 ] final  -71.76 input  175.53 | X-H torsion
[ 8008 7997 7996 7995 ] final  -88.75 input   59.86 | X-H torsion
[ 10167 10162 10161 10158 ] final  -27.75 input  -65.29 | X-H torsion
[ 10718 10713 10712 10709 ] final  175.79 input   66.30 | X-H torsion
[ 10763 10752 10751 10750 ] final   16.24 input  -60.55 | X-H torsion
[ 11005 11000 10999 10996 ] final   38.72 input  -57.11 | X-H torsion

> <Gold.Protein.ActiveResidues>
 VAL166  LYS551  ARG553  GLY616  TRP617  ASP618  TYR619  PRO620  LYS621  CYS622 
 ASP623  PHE694  ASN695  SER759  ASP760  ASP761  ALA762  ILE779  LEU786  VAL792 
 PHE793  MET794  SER795  GLU796  ALA797  LYS798  CYS799  TRP800  GLU811  SER814 

> <Gold.Protein.RotatedAtoms>
  150.7603  133.9433  159.3462 H   0  0  0  0  0  0  0  0  0  0  0  0  # atno 6907 bound_to 6896
  151.7343  135.0866  160.0315 H   0  0  0  0  0  0  0  0  0  0  0  0  # atno 6908 bound_to 6896
  152.3569  133.6211  159.6022 H   0  0  0  0  0  0  0  0  0  0  0  0  # atno 6909 bound_to 6896
  145.6739  140.9212  143.0868 H   0  0  0  0  0  0  0  0  0  0  0  0  # atno 7974 bound_to 7965
  154.6785  140.0550  157.0241 H   0  0  0  0  0  0  0  0  0  0  0  0  # atno 8008 bound_to 7997
  155.0985  140.3226  155.4535 H   0  0  0  0  0  0  0  0  0  0  0  0  # atno 8009 bound_to 7997
  156.2685  140.2035  156.6112 H   0  0  0  0  0  0  0  0  0  0  0  0  # atno 8010 bound_to 7997
  140.7275  143.4067  151.1174 H   0  0  0  0  0  0  0  0  0  0  0  0  # atno 10167 bound_to 10162
  156.9297  130.9967  151.2989 H   0  0  0  0  0  0  0  0  0  0  0  0  # atno 10718 bound_to 10713
  153.1449  135.6767  153.8970 H   0  0  0  0  0  0  0  0  0  0  0  0  # atno 10763 bound_to 10752
  153.8415  135.3105  155.3427 H   0  0  0  0  0  0  0  0  0  0  0  0  # atno 10764 bound_to 10752
  154.7817  135.4884  153.9943 H   0  0  0  0  0  0  0  0  0  0  0  0  # atno 10765 bound_to 10752
  140.2098  134.3769  155.8054 H   0  0  0  0  0  0  0  0  0  0  0  0  # atno 11005 bound_to 11000
  144.7048  139.8608  143.7433 LP  0  0  0  0  0  0  0  0  0  0  0  0  # atno 17320 bound_to 7965
  146.1022  139.4019  143.0339 LP  0  0  0  0  0  0  0  0  0  0  0  0  # atno 17321 bound_to 7965
  139.7694  143.8516  152.3117 LP  0  0  0  0  0  0  0  0  0  0  0  0  # atno 17342 bound_to 10162
  139.8429  144.7201  150.9308 LP  0  0  0  0  0  0  0  0  0  0  0  0  # atno 17343 bound_to 10162
  157.5855  130.8406  149.8583 LP  0  0  0  0  0  0  0  0  0  0  0  0  # atno 17370 bound_to 10713
  156.0453  130.3729  150.1333 LP  0  0  0  0  0  0  0  0  0  0  0  0  # atno 17371 bound_to 10713
  141.2226  133.7137  156.8399 LP  0  0  0  0  0  0  0  0  0  0  0  0  # atno 17394 bound_to 11000
  140.1963  134.8929  157.3118 LP  0  0  0  0  0  0  0  0  0  0  0  0  # atno 17395 bound_to 11000

$$$$
