AV-unprocessed.smi:714|AV-procd|sdf|3483|dock4
  -GOLD-   22720 0473D 1   1.00000     0.00000
 Structure written by MMmdl.
 38 39  0  0  0  0  0  0  0  0  1 V2000
  147.3526  134.3182  162.3516 C   0  0  0  0  0  0  0  0  0  0  0  0
  146.8277  135.1729  161.6552 C   0  0  0  0  0  0  0  0  0  0  0  0
  146.1833  136.2064  160.8271 C   0  0  0  0  0  0  0  0  0  0  0  0
  146.9799  136.5689  159.6600 N   0  0  0  0  0  0  0  0  0  0  0  0
  148.2599  136.9819  159.6815 C   0  0  0  0  0  0  0  0  0  0  0  0
  148.8911  137.0855  160.7348 O   0  0  0  0  0  0  0  0  0  0  0  0
  148.8037  137.2885  158.3563 C   0  0  0  0  0  0  0  0  0  0  0  0
  148.4034  136.5848  157.1490 C   0  0  0  0  0  0  0  0  0  0  0  0
  148.9735  136.8809  155.9654 C   0  0  0  0  0  0  0  0  0  0  0  0
  150.0008  137.9187  155.8379 C   0  0  0  0  0  0  0  0  0  0  0  0
  150.5423  138.1561  154.7580 O   0  0  0  0  0  0  0  0  0  0  0  0
  150.3100  138.6028  156.9837 N   0  0  0  0  0  0  0  0  0  0  0  0
  151.3512  139.6601  156.9567 C   0  0  1  0  0  0  0  0  0  0  0  0
  151.1510  140.6963  155.8272 C   0  0  0  0  0  0  0  0  0  0  0  0
  150.8044  142.0293  156.5037 C   0  0  0  0  0  0  0  0  0  0  0  0
  151.0350  141.8069  157.9194 N   0  0  0  0  0  0  0  0  0  0  0  0
  150.8925  142.9036  158.8754 C   0  0  0  0  0  0  0  0  0  0  0  0
  152.1011  143.8567  158.8610 C   0  0  0  0  0  0  0  0  0  0  0  0
  151.8977  144.8268  159.7513 F   0  0  0  0  0  0  0  0  0  0  0  0
  153.2249  143.2168  159.1831 F   0  0  0  0  0  0  0  0  0  0  0  0
  152.2412  144.4090  157.6558 F   0  0  0  0  0  0  0  0  0  0  0  0
  151.2844  140.5259  158.2143 C   0  0  0  0  0  0  0  0  0  0  0  0
  151.4536  140.0680  159.3439 O   0  0  0  0  0  0  0  0  0  0  0  0
  149.7315  138.2561  158.2271 C   0  0  0  0  0  0  0  0  0  0  0  0
  147.8101  133.5730  162.9630 H   0  0  0  0  0  0  0  0  0  0  0  0
  145.1908  135.8569  160.5394 H   0  0  0  0  0  0  0  0  0  0  0  0
  146.0434  137.0926  161.4460 H   0  0  0  0  0  0  0  0  0  0  0  0
  146.5216  136.5065  158.7625 H   0  0  0  0  0  0  0  0  0  0  0  0
  147.6486  135.8127  157.1709 H   0  0  0  0  0  0  0  0  0  0  0  0
  148.6633  136.3418  155.0823 H   0  0  0  0  0  0  0  0  0  0  0  0
  152.3615  139.2567  156.8751 H   0  0  0  0  0  0  0  0  0  0  0  0
  152.0865  140.8081  155.2776 H   0  0  0  0  0  0  0  0  0  0  0  0
  150.4023  140.4063  155.0889 H   0  0  0  0  0  0  0  0  0  0  0  0
  151.4209  142.8461  156.1267 H   0  0  0  0  0  0  0  0  0  0  0  0
  149.7576  142.2892  156.3418 H   0  0  0  0  0  0  0  0  0  0  0  0
  149.9846  143.4614  158.6421 H   0  0  0  0  0  0  0  0  0  0  0  0
  150.7482  142.4979  159.8780 H   0  0  0  0  0  0  0  0  0  0  0  0
  150.1059  138.8172  159.0703 H   0  0  0  0  0  0  0  0  0  0  0  0
  1  2  3  0  0  0  0
  1 25  1  0  0  0  0
  2  3  1  0  0  0  0
  3  4  1  0  0  0  0
  3 26  1  0  0  0  0
  3 27  1  0  0  0  0
  4  5  1  0  0  0  0
  4 28  1  0  0  0  0
  5  6  2  0  0  0  0
  5  7  1  0  0  0  0
  7 24  2  0  0  0  0
  7  8  1  0  0  0  0
  8  9  2  0  0  0  0
  8 29  1  0  0  0  0
  9 10  1  0  0  0  0
  9 30  1  0  0  0  0
 10 11  2  0  0  0  0
 10 12  1  0  0  0  0
 12 13  1  0  0  0  0
 12 24  1  0  0  0  0
 13 22  1  0  0  0  0
 13 14  1  0  0  0  0
 13 31  1  0  0  0  0
 14 15  1  0  0  0  0
 14 32  1  0  0  0  0
 14 33  1  0  0  0  0
 15 16  1  0  0  0  0
 15 34  1  0  0  0  0
 15 35  1  0  0  0  0
 16 17  1  0  0  0  0
 16 22  1  0  0  0  0
 17 18  1  0  0  0  0
 17 36  1  0  0  0  0
 17 37  1  0  0  0  0
 18 19  1  0  0  0  0
 18 20  1  0  0  0  0
 18 21  1  0  0  0  0
 22 23  2  0  0  0  0
 24 38  1  0  0  0  0
M  END
> <s_m_source_file>
AV-unprocessed.smi

> <i_m_source_file_index>
714

> <i_lp_mmshare_version>
43012

> <i_f3d_flags>
0

> <s_epik_input>
W0NIXSNDW0NIMl1bTkhdQyg9TyljMVtjSF1bY0hdYyg9TyluKFtjSF0xKVtDQEBIXTJbQ0gyXVtDSDJdTihDMj1PKVtDSDJdQyhGKShGKUY=

> <s_epik_cmdline>
J2VwaWtfcHl0aG9uJywgJy1waCcsICc3LjAnLCAnLXRuJywgJzgnLCAnLW1hJywgJzIwMCcsICctbWV0YWxfYmluZGluZycsICctaW1hZScsICc8aW5maWxlLm1hZT4nLCAnLW9tYWUnLCAnPG91dGZpbGUubWFlPic=

> <r_lp_tautomer_probability>
1

> <r_epik_Ionization_Penalty>
2.95503e-06

> <r_epik_Ionization_Penalty_Charging>
5.74209e-08

> <r_epik_Ionization_Penalty_Neutral>
2.89761e-06

> <r_epik_State_Penalty>
-0

> <r_epik_Charging_Adjusted_Penalty>
5.74209e-08

> <i_epik_Tot_Q>
0

> <i_epik_Tot_abs_Q>
0

> <r_epik_Metal_State_Penalty>
-0

> <b_epik_Metal_Only>
0

> <s_lp_Force_Field>
OPLS_2005

> <r_lp_Energy>
33.0774

> <b_lp_Chiralities_Consistent>
1

> <s_lp_Variant>
AV-unprocessed.smi:714-2

> <Gold.Version>
5.8.1

> <Gold.Id.Protein>
6NUR|6NUR_protein|mol2

> <Gold.PLP.Fitness>
43.0243

> <Gold.PLP.PLP>
-42.8559

> <Gold.PLP.part.hbond>
-1.1477

> <Gold.PLP.part.metal>
0.0000

> <Gold.PLP.part.buried>
-6.4092

> <Gold.PLP.part.nonpolar>
-36.8381

> <Gold.PLP.part.repulsive>
0.2610

> <Gold.PLP.ligand.clash>
0.4417

> <Gold.PLP.ligand.torsion>
0.9875

> <Gold.PLP.Chemscore.Hbond>
0.8000

> <Gold.PLP.Chemscore.CHOScore>
0.0000

> <Gold.PLP.Chemscore.Metal>
0.0000

> <Gold.Chemscore.Hbonds>
donor molecule, donor type, donor heavy atom, donor atom, acceptor molecule, acceptor atom, score
      P1  H  6931  6943       L1     6  0.78

> <Gold.PLP.Chemscore.Internal.Correction>
0.1850

> <Gold.Rescore>
     Score         DG    S(hbond)    S(metal)    S(lipo)     H(rot)  DE(clash)    DE(int)     intcor
      7.45     -12.38       0.86        0.00      69.64       1.61       0.02       4.91       ----

> <Gold.Chemscore.Fitness>
7.4509

> <Gold.Chemscore.DG>
-12.3754

> <Gold.Chemscore.ZeroCoef>
-5.4800

> <Gold.Chemscore.Hbond>
0.8618

> <Gold.Chemscore.Metal>
0.0000

> <Gold.Chemscore.Lipo>
69.6378

> <Gold.Chemscore.Internal_Hbond>
0.0000

> <Gold.Chemscore.DEClash>
0.0154

> <Gold.Chemscore.DEInternal>
4.9091

> <Gold.Chemscore.Rot>
1.6136

> <Gold.Chemscore.Internal.Correction>
   9.000000E+99

> <Gold.Chemscore.Hbonds>
donor molecule, donor type, donor heavy atom, donor atom, acceptor molecule, acceptor atom, score
      P1  H  6931  6943       L1     6  0.77

> <Gold.Chemscore.Hbond.Weighted>
-2.8785

> <Gold.Chemscore.Metal.Weighted>
-0.0000

> <Gold.Chemscore.Lipo.Weighted>
-8.1476

> <Gold.Chemscore.Internal_Hbond.Weighted>
0.0000

> <Gold.Chemscore.DEClash.Weighted>
0.0154

> <Gold.Chemscore.DEInternal.Weighted>
4.9091

> <Gold.Chemscore.Rot.Weighted>
4.1308

> <Gold.Chemscore.Internal.Correction.Weighted>
   9.000000E+99

> <Gold.Protein.RotatedTorsions>
[ 6907 6896 6895 6894 ] final  161.67 input  -60.11 | X-H torsion
[ 7974 7965 7964 7962 ] final  123.53 input  175.53 | X-H torsion
[ 8008 7997 7996 7995 ] final  145.76 input   59.86 | X-H torsion
[ 10167 10162 10161 10158 ] final -161.54 input  -65.29 | X-H torsion
[ 10718 10713 10712 10709 ] final  -33.82 input   66.30 | X-H torsion
[ 10763 10752 10751 10750 ] final  106.86 input  -60.55 | X-H torsion
[ 11005 11000 10999 10996 ] final   92.69 input  -57.11 | X-H torsion

> <Gold.Protein.ActiveResidues>
 VAL166  LYS551  ARG553  GLY616  TRP617  ASP618  TYR619  PRO620  LYS621  CYS622 
 ASP623  PHE694  ASN695  SER759  ASP760  ASP761  ALA762  ILE779  LEU786  VAL792 
 PHE793  MET794  SER795  GLU796  ALA797  LYS798  CYS799  TRP800  GLU811  SER814 

> <Gold.Protein.RotatedAtoms>
  151.9520  133.3669  159.4003 H   0  0  0  0  0  0  0  0  0  0  0  0  # atno 6907 bound_to 6896
  150.6979  134.4330  159.5266 H   0  0  0  0  0  0  0  0  0  0  0  0  # atno 6908 bound_to 6896
  152.2005  134.8592  160.0559 H   0  0  0  0  0  0  0  0  0  0  0  0  # atno 6909 bound_to 6896
  145.0948  139.3560  143.4842 H   0  0  0  0  0  0  0  0  0  0  0  0  # atno 7974 bound_to 7965
  156.2874  140.2200  156.5268 H   0  0  0  0  0  0  0  0  0  0  0  0  # atno 8008 bound_to 7997
  154.7482  140.0482  157.0892 H   0  0  0  0  0  0  0  0  0  0  0  0  # atno 8009 bound_to 7997
  155.0143  140.3116  155.4821 H   0  0  0  0  0  0  0  0  0  0  0  0  # atno 8010 bound_to 7997
  139.6458  144.0175  152.2126 H   0  0  0  0  0  0  0  0  0  0  0  0  # atno 10167 bound_to 10162
  156.3580  130.4319  149.7647 H   0  0  0  0  0  0  0  0  0  0  0  0  # atno 10718 bound_to 10713
  153.3987  135.3863  155.1973 H   0  0  0  0  0  0  0  0  0  0  0  0  # atno 10763 bound_to 10752
  154.8727  135.3766  154.4646 H   0  0  0  0  0  0  0  0  0  0  0  0  # atno 10764 bound_to 10752
  153.5140  135.7087  153.5827 H   0  0  0  0  0  0  0  0  0  0  0  0  # atno 10765 bound_to 10752
  139.8820  134.8747  156.3610 H   0  0  0  0  0  0  0  0  0  0  0  0  # atno 11005 bound_to 11000
  146.3531  140.0799  142.8618 LP  0  0  0  0  0  0  0  0  0  0  0  0  # atno 17320 bound_to 7965
  145.1023  140.9354  143.4705 LP  0  0  0  0  0  0  0  0  0  0  0  0  # atno 17321 bound_to 7965
  139.9876  144.6384  150.7843 LP  0  0  0  0  0  0  0  0  0  0  0  0  # atno 17342 bound_to 10162
  140.7514  143.2971  151.3176 LP  0  0  0  0  0  0  0  0  0  0  0  0  # atno 17343 bound_to 10162
  156.4822  130.8046  151.3060 LP  0  0  0  0  0  0  0  0  0  0  0  0  # atno 17370 bound_to 10713
  157.7470  131.0002  150.2917 LP  0  0  0  0  0  0  0  0  0  0  0  0  # atno 17371 bound_to 10713
  140.9530  133.7439  156.0297 LP  0  0  0  0  0  0  0  0  0  0  0  0  # atno 17394 bound_to 11000
  140.8083  134.3429  157.5419 LP  0  0  0  0  0  0  0  0  0  0  0  0  # atno 17395 bound_to 11000

$$$$
