AV-unprocessed.smi:3187|AV-procd|sdf|12182|dock1
  -GOLD-   2272018 23D 1   1.00000     0.00000
 Structure written by MMmdl.
 42 43  0  0  0  0  0  0  0  0  3 V2000
  153.1841  140.4198  158.9505 C   0  0  0  0  0  0  0  0  0  0  0  0
  152.7904  141.6869  159.6903 C   0  0  0  0  0  0  0  0  0  0  0  0
  152.9992  141.8164  161.0152 C   0  0  0  0  0  0  0  0  0  0  0  0
  152.6768  143.0600  161.8232 C   0  0  0  0  0  0  0  0  0  0  0  0
  151.8817  144.1042  161.0237 C   0  0  0  0  0  0  0  0  0  0  0  0
  152.3593  144.1794  159.5624 C   0  0  2  0  0  0  0  0  0  0  0  0
  151.7568  145.3885  158.8272 C   0  0  0  0  0  0  0  0  0  0  0  0
  152.1898  142.8084  158.8387 C   0  0  2  0  0  0  0  0  0  0  0  0
  150.7301  142.4556  158.4526 C   0  0  0  0  0  0  0  0  0  0  0  0
  150.4751  142.6131  157.0063 N   0  3  0  0  0  0  0  0  0  0  0  0
  149.6549  141.5367  156.4172 C   0  0  0  0  0  0  0  0  0  0  0  0
  149.4391  141.7667  154.9146 C   0  0  0  0  0  0  0  0  0  0  0  0
  148.8195  140.6077  154.2672 N   0  0  0  0  0  0  0  0  0  0  0  0
  147.5553  140.5284  153.7409 C   0  0  0  0  0  0  0  0  0  0  0  0
  147.4177  139.2575  153.2442 C   0  0  0  0  0  0  0  0  0  0  0  0
  148.6023  138.6152  153.4887 N   0  3  0  0  0  0  0  0  0  0  0  0
  149.4535  139.4377  154.1112 C   0  0  0  0  0  0  0  0  0  0  0  0
  153.8963  140.6509  158.1581 H   0  0  0  0  0  0  0  0  0  0  0  0
  152.3180  139.9345  158.5027 H   0  0  0  0  0  0  0  0  0  0  0  0
  153.6547  139.7005  159.6217 H   0  0  0  0  0  0  0  0  0  0  0  0
  153.4509  141.0047  161.5671 H   0  0  0  0  0  0  0  0  0  0  0  0
  152.1288  142.7780  162.7226 H   0  0  0  0  0  0  0  0  0  0  0  0
  153.6228  143.4905  162.1528 H   0  0  0  0  0  0  0  0  0  0  0  0
  150.8200  143.8598  161.0558 H   0  0  0  0  0  0  0  0  0  0  0  0
  151.9799  145.0763  161.5086 H   0  0  0  0  0  0  0  0  0  0  0  0
  153.4331  144.3727  159.6000 H   0  0  0  0  0  0  0  0  0  0  0  0
  150.6672  145.3717  158.8425 H   0  0  0  0  0  0  0  0  0  0  0  0
  152.0872  145.4257  157.7889 H   0  0  0  0  0  0  0  0  0  0  0  0
  152.0685  146.3205  159.2999 H   0  0  0  0  0  0  0  0  0  0  0  0
  152.7828  142.8482  157.9234 H   0  0  0  0  0  0  0  0  0  0  0  0
  150.5057  141.4185  158.6995 H   0  0  0  0  0  0  0  0  0  0  0  0
  150.0252  143.0620  159.0210 H   0  0  0  0  0  0  0  0  0  0  0  0
  149.9968  143.4918  156.8665 H   0  0  0  0  0  0  0  0  0  0  0  0
  150.1456  140.5767  156.5838 H   0  0  0  0  0  0  0  0  0  0  0  0
  148.6926  141.5012  156.9300 H   0  0  0  0  0  0  0  0  0  0  0  0
  148.7896  142.6272  154.7463 H   0  0  0  0  0  0  0  0  0  0  0  0
  150.3851  141.9746  154.4123 H   0  0  0  0  0  0  0  0  0  0  0  0
  146.8645  141.3596  153.7560 H   0  0  0  0  0  0  0  0  0  0  0  0
  146.5878  138.7754  152.7478 H   0  0  0  0  0  0  0  0  0  0  0  0
  150.4553  139.2010  154.4242 H   0  0  0  0  0  0  0  0  0  0  0  0
  151.3634  142.6501  156.5267 H   0  0  0  0  0  0  0  0  0  0  0  0
  148.8072  137.6568  153.2334 H   0  0  0  0  0  0  0  0  0  0  0  0
  1  2  1  0  0  0  0
  1 18  1  0  0  0  0
  1 19  1  0  0  0  0
  1 20  1  0  0  0  0
  2  8  1  0  0  0  0
  2  3  2  0  0  0  0
  3  4  1  0  0  0  0
  3 21  1  0  0  0  0
  4  5  1  0  0  0  0
  4 22  1  0  0  0  0
  4 23  1  0  0  0  0
  5  6  1  0  0  0  0
  5 24  1  0  0  0  0
  5 25  1  0  0  0  0
  6  7  1  0  0  0  0
  6  8  1  0  0  0  0
  6 26  1  0  0  0  0
  7 27  1  0  0  0  0
  7 28  1  0  0  0  0
  7 29  1  0  0  0  0
  8  9  1  0  0  0  0
  8 30  1  0  0  0  0
  9 10  1  0  0  0  0
  9 31  1  0  0  0  0
  9 32  1  0  0  0  0
 10 11  1  0  0  0  0
 10 33  1  0  0  0  0
 10 41  1  0  0  0  0
 11 12  1  0  0  0  0
 11 34  1  0  0  0  0
 11 35  1  0  0  0  0
 12 13  1  0  0  0  0
 12 36  1  0  0  0  0
 12 37  1  0  0  0  0
 13 17  1  0  0  0  0
 13 14  1  0  0  0  0
 14 15  2  0  0  0  0
 14 38  1  0  0  0  0
 15 16  1  0  0  0  0
 15 39  1  0  0  0  0
 16 17  2  0  0  0  0
 16 42  1  0  0  0  0
 17 40  1  0  0  0  0
M  CHG  1  10   1
M  CHG  1  16   1
M  END
> <s_m_source_file>
AV-unprocessed.smi

> <i_m_source_file_index>
3187

> <i_lp_mmshare_version>
43012

> <i_f3d_flags>
0

> <s_epik_input>
W0NIM11DMT1bQ0hdW0NIMl1bQ0gyXVtDQEBIXShbQ0gzXSlbQ0BIXTFbQ0gyXVtOSF1bQ0gyXVtDSDJdbjJbY0hdW2NIXW5bY0hdMg==

> <s_epik_cmdline>
J2VwaWtfcHl0aG9uJywgJy1waCcsICc3LjAnLCAnLXRuJywgJzgnLCAnLW1hJywgJzIwMCcsICctbWV0YWxfYmluZGluZycsICctaW1hZScsICc8aW5maWxlLm1hZT4nLCAnLW9tYWUnLCAnPG91dGZpbGUubWFlPic=

> <r_lp_tautomer_probability>
1

> <r_epik_Ionization_Penalty>
1.51066

> <r_epik_Ionization_Penalty_Charging>
0.0026721

> <r_epik_Ionization_Penalty_Neutral>
1.50798

> <r_epik_State_Penalty>
1.12593

> <r_epik_Charging_Adjusted_Penalty>
1.12861

> <i_epik_Tot_Q>
2

> <i_epik_Tot_abs_Q>
2

> <r_epik_Metal_State_Penalty>
5.12155

> <b_epik_Metal_Only>
0

> <s_lp_Force_Field>
OPLS_2005

> <r_lp_Energy>
26.0631

> <b_lp_Chiralities_Consistent>
1

> <s_lp_Variant>
AV-unprocessed.smi:3187-8

> <Gold.Version>
5.8.1

> <Gold.Id.Protein>
6NUR|6NUR_protein|mol2

> <Gold.PLP.Fitness>
54.6324

> <Gold.PLP.PLP>
-44.5074

> <Gold.PLP.part.hbond>
-3.0000

> <Gold.PLP.part.metal>
0.0000

> <Gold.PLP.part.buried>
-0.3229

> <Gold.PLP.part.nonpolar>
-40.9674

> <Gold.PLP.part.repulsive>
0.0698

> <Gold.PLP.ligand.clash>
0.0000

> <Gold.PLP.ligand.torsion>
1.0558

> <Gold.PLP.Chemscore.Hbond>
3.9825

> <Gold.PLP.Chemscore.CHOScore>
0.0000

> <Gold.PLP.Chemscore.Metal>
0.0000

> <Gold.Chemscore.Hbonds>
donor molecule, donor type, donor heavy atom, donor atom, acceptor molecule, acceptor atom, score
      L1  H    10    33       P1  8028  1.95
      L1  H    16    42       P1  7948  1.98

> <Gold.PLP.Chemscore.Internal.Correction>
0.2892

> <Gold.Rescore>
     Score         DG    S(hbond)    S(metal)    S(lipo)     H(rot)  DE(clash)    DE(int)     intcor
     19.68     -20.88       1.79        0.00     123.75       1.97       0.16       1.04       ----

> <Gold.Chemscore.Fitness>
19.6801

> <Gold.Chemscore.DG>
-20.8830

> <Gold.Chemscore.ZeroCoef>
-5.4800

> <Gold.Chemscore.Hbond>
1.7892

> <Gold.Chemscore.Metal>
0.0000

> <Gold.Chemscore.Lipo>
123.7462

> <Gold.Chemscore.Internal_Hbond>
0.0000

> <Gold.Chemscore.DEClash>
0.1639

> <Gold.Chemscore.DEInternal>
1.0389

> <Gold.Chemscore.Rot>
1.9732

> <Gold.Chemscore.Internal.Correction>
   9.000000E+99

> <Gold.Chemscore.Hbonds>
donor molecule, donor type, donor heavy atom, donor atom, acceptor molecule, acceptor atom, score
      L1  H    10    33       P1  8028  0.86
      L1  H    16    42       P1  7948  0.93

> <Gold.Chemscore.Hbond.Weighted>
-5.9760

> <Gold.Chemscore.Metal.Weighted>
-0.0000

> <Gold.Chemscore.Lipo.Weighted>
-14.4783

> <Gold.Chemscore.Internal_Hbond.Weighted>
0.0000

> <Gold.Chemscore.DEClash.Weighted>
0.1639

> <Gold.Chemscore.DEInternal.Weighted>
1.0389

> <Gold.Chemscore.Rot.Weighted>
5.0514

> <Gold.Chemscore.Internal.Correction.Weighted>
   9.000000E+99

> <Gold.Protein.RotatedTorsions>
[ 6907 6896 6895 6894 ] final   71.78 input  -60.11 | X-H torsion
[ 7974 7965 7964 7962 ] final  156.62 input  175.53 | X-H torsion
[ 8008 7997 7996 7995 ] final -152.86 input   59.86 | X-H torsion
[ 10167 10162 10161 10158 ] final    5.72 input  -65.29 | X-H torsion
[ 10718 10713 10712 10709 ] final -160.93 input   66.30 | X-H torsion
[ 10763 10752 10751 10750 ] final   21.15 input  -60.55 | X-H torsion
[ 11005 11000 10999 10996 ] final  169.81 input  -57.11 | X-H torsion

> <Gold.Protein.ActiveResidues>
 VAL166  LYS551  ARG553  GLY616  TRP617  ASP618  TYR619  PRO620  LYS621  CYS622 
 ASP623  PHE694  ASN695  SER759  ASP760  ASP761  ALA762  ILE779  LEU786  VAL792 
 PHE793  MET794  SER795  GLU796  ALA797  LYS798  CYS799  TRP800  GLU811  SER814 

> <Gold.Protein.RotatedAtoms>
  152.4830  134.4669  159.9622 H   0  0  0  0  0  0  0  0  0  0  0  0  # atno 6907 bound_to 6896
  151.4671  133.3572  159.2825 H   0  0  0  0  0  0  0  0  0  0  0  0  # atno 6908 bound_to 6896
  150.8917  134.8347  159.7359 H   0  0  0  0  0  0  0  0  0  0  0  0  # atno 6909 bound_to 6896
  144.7952  139.7229  143.6205 H   0  0  0  0  0  0  0  0  0  0  0  0  # atno 7974 bound_to 7965
  155.6618  140.0723  157.2551 H   0  0  0  0  0  0  0  0  0  0  0  0  # atno 8008 bound_to 7997
  154.4141  140.1715  156.1836 H   0  0  0  0  0  0  0  0  0  0  0  0  # atno 8009 bound_to 7997
  155.9690  140.3363  155.6562 H   0  0  0  0  0  0  0  0  0  0  0  0  # atno 8010 bound_to 7997
  140.6467  143.7645  150.7509 H   0  0  0  0  0  0  0  0  0  0  0  0  # atno 10167 bound_to 10162
  156.5891  130.8762  151.2885 H   0  0  0  0  0  0  0  0  0  0  0  0  # atno 10718 bound_to 10713
  153.1018  135.6674  153.9658 H   0  0  0  0  0  0  0  0  0  0  0  0  # atno 10763 bound_to 10752
  153.9226  135.3013  155.3449 H   0  0  0  0  0  0  0  0  0  0  0  0  # atno 10764 bound_to 10752
  154.7439  135.5066  153.9246 H   0  0  0  0  0  0  0  0  0  0  0  0  # atno 10765 bound_to 10752
  140.3017  134.7590  157.3921 H   0  0  0  0  0  0  0  0  0  0  0  0  # atno 11005 bound_to 11000
  146.2218  139.5649  142.9613 LP  0  0  0  0  0  0  0  0  0  0  0  0  # atno 17320 bound_to 7965
  145.5692  141.0396  143.2183 LP  0  0  0  0  0  0  0  0  0  0  0  0  # atno 17321 bound_to 7965
  140.1288  143.4545  152.2267 LP  0  0  0  0  0  0  0  0  0  0  0  0  # atno 17342 bound_to 10162
  139.5678  144.7445  151.3974 LP  0  0  0  0  0  0  0  0  0  0  0  0  # atno 17343 bound_to 10162
  157.7308  130.9691  150.1850 LP  0  0  0  0  0  0  0  0  0  0  0  0  # atno 17370 bound_to 10713
  156.2565  130.3706  149.8176 LP  0  0  0  0  0  0  0  0  0  0  0  0  # atno 17371 bound_to 10713
  140.1103  134.5354  155.8272 LP  0  0  0  0  0  0  0  0  0  0  0  0  # atno 17394 bound_to 11000
  141.2127  133.6722  156.6677 LP  0  0  0  0  0  0  0  0  0  0  0  0  # atno 17395 bound_to 11000

$$$$
