AV-unprocessed.smi:3308|AV-procd|sdf|12709|dock4
  -GOLD-   2272019 43D 1   1.00000     0.00000
 Structure written by MMmdl.
 41 42  0  0  0  0  0  0  0  0  2 V2000
  144.4232  135.1347  153.5683 C   0  0  0  0  0  0  0  0  0  0  0  0
  145.6925  134.9973  152.7081 C   0  0  1  0  0  0  0  0  0  0  0  0
  146.8181  135.6508  153.4129 N   0  3  0  0  0  0  0  0  0  0  0  0
  146.5196  136.9930  153.9577 C   0  0  0  0  0  0  0  0  0  0  0  0
  147.7198  137.6052  154.6934 C   0  0  0  0  0  0  0  0  0  0  0  0
  148.3892  136.9059  155.4557 O   0  0  0  0  0  0  0  0  0  0  0  0
  148.0045  138.9056  154.4761 N   0  0  0  0  0  0  0  0  0  0  0  0
  149.1280  139.6024  155.0995 C   0  0  0  0  0  0  0  0  0  0  0  0
  149.2312  140.9476  154.3801 C   0  0  0  0  0  0  0  0  0  0  0  0
  147.8211  141.2043  153.8672 C   0  0  0  0  0  0  0  0  0  0  0  0
  147.2598  139.8075  153.5974 C   0  0  0  0  0  0  0  0  0  0  0  0
  146.0453  133.5225  152.3730 C   0  0  2  0  0  0  0  0  0  0  0  0
  147.5553  133.2995  152.1629 C   0  0  0  0  0  0  0  0  0  0  0  0
  145.3043  133.0281  151.2192 N   0  0  0  0  0  0  0  0  0  0  0  0
  145.8021  132.4684  150.0603 C   0  0  0  0  0  0  0  0  0  0  0  0
  144.7365  132.1617  149.2639 C   0  0  0  0  0  0  0  0  0  0  0  0
  143.6116  132.5773  150.0288 C   0  0  0  0  0  0  0  0  0  0  0  0
  143.9538  133.0959  151.1971 N   0  0  0  0  0  0  0  0  0  0  0  0
  143.5397  134.7588  153.0518 H   0  0  0  0  0  0  0  0  0  0  0  0
  144.2276  136.1794  153.8123 H   0  0  0  0  0  0  0  0  0  0  0  0
  144.5188  134.5868  154.5063 H   0  0  0  0  0  0  0  0  0  0  0  0
  145.5021  135.5297  151.7743 H   0  0  0  0  0  0  0  0  0  0  0  0
  147.0986  135.0609  154.1834 H   0  0  0  0  0  0  0  0  0  0  0  0
  146.2227  137.6544  153.1431 H   0  0  0  0  0  0  0  0  0  0  0  0
  145.6772  136.9146  154.6464 H   0  0  0  0  0  0  0  0  0  0  0  0
  148.9102  139.7500  156.1583 H   0  0  0  0  0  0  0  0  0  0  0  0
  150.0587  139.0383  155.0202 H   0  0  0  0  0  0  0  0  0  0  0  0
  149.5991  141.7455  155.0259 H   0  0  0  0  0  0  0  0  0  0  0  0
  149.9155  140.8596  153.5352 H   0  0  0  0  0  0  0  0  0  0  0  0
  147.2338  141.6903  154.6474 H   0  0  0  0  0  0  0  0  0  0  0  0
  147.8014  141.8465  152.9861 H   0  0  0  0  0  0  0  0  0  0  0  0
  147.4366  139.5213  152.5597 H   0  0  0  0  0  0  0  0  0  0  0  0
  146.1854  139.7771  153.7828 H   0  0  0  0  0  0  0  0  0  0  0  0
  145.7409  132.9067  153.2208 H   0  0  0  0  0  0  0  0  0  0  0  0
  148.1225  133.5148  153.0684 H   0  0  0  0  0  0  0  0  0  0  0  0
  147.9471  133.9331  151.3665 H   0  0  0  0  0  0  0  0  0  0  0  0
  147.7632  132.2632  151.8943 H   0  0  0  0  0  0  0  0  0  0  0  0
  146.8618  132.3356  149.8991 H   0  0  0  0  0  0  0  0  0  0  0  0
  144.7567  131.7105  148.2829 H   0  0  0  0  0  0  0  0  0  0  0  0
  142.5645  132.5183  149.7710 H   0  0  0  0  0  0  0  0  0  0  0  0
  147.5972  135.7279  152.7746 H   0  0  0  0  0  0  0  0  0  0  0  0
  1  2  1  0  0  0  0
  1 19  1  0  0  0  0
  1 20  1  0  0  0  0
  1 21  1  0  0  0  0
  2  3  1  0  0  0  0
  2 12  1  0  0  0  0
  2 22  1  0  0  0  0
  3  4  1  0  0  0  0
  3 23  1  0  0  0  0
  3 41  1  0  0  0  0
  4  5  1  0  0  0  0
  4 24  1  0  0  0  0
  4 25  1  0  0  0  0
  5  6  2  0  0  0  0
  5  7  1  0  0  0  0
  7 11  1  0  0  0  0
  7  8  1  0  0  0  0
  8  9  1  0  0  0  0
  8 26  1  0  0  0  0
  8 27  1  0  0  0  0
  9 10  1  0  0  0  0
  9 28  1  0  0  0  0
  9 29  1  0  0  0  0
 10 11  1  0  0  0  0
 10 30  1  0  0  0  0
 10 31  1  0  0  0  0
 11 32  1  0  0  0  0
 11 33  1  0  0  0  0
 12 13  1  0  0  0  0
 12 14  1  0  0  0  0
 12 34  1  0  0  0  0
 13 35  1  0  0  0  0
 13 36  1  0  0  0  0
 13 37  1  0  0  0  0
 14 18  1  0  0  0  0
 14 15  1  0  0  0  0
 15 16  2  0  0  0  0
 15 38  1  0  0  0  0
 16 17  1  0  0  0  0
 16 39  1  0  0  0  0
 17 18  2  0  0  0  0
 17 40  1  0  0  0  0
M  CHG  1   3   1
M  END
> <s_m_source_file>
AV-unprocessed.smi

> <i_m_source_file_index>
3308

> <i_lp_mmshare_version>
43012

> <i_f3d_flags>
0

> <s_epik_input>
bjFbY0hdW2NIXVtjSF1uMVtDQEBIXShbQ0gzXSlbQ0BIXShbQ0gzXSlbTkhdW0NIMl1DKD1PKU4yW0NIMl1bQ0gyXVtDSDJdW0NIMl0y

> <s_epik_cmdline>
J2VwaWtfcHl0aG9uJywgJy1waCcsICc3LjAnLCAnLXRuJywgJzgnLCAnLW1hJywgJzIwMCcsICctbWV0YWxfYmluZGluZycsICctaW1hZScsICc8aW5maWxlLm1hZT4nLCAnLW9tYWUnLCAnPG91dGZpbGUubWFlPic=

> <r_lp_tautomer_probability>
1

> <r_epik_Ionization_Penalty>
0.141739

> <r_epik_Ionization_Penalty_Charging>
0.141731

> <r_epik_Ionization_Penalty_Neutral>
8.82171e-06

> <r_epik_State_Penalty>
0.131043

> <r_epik_Charging_Adjusted_Penalty>
0.272773

> <i_epik_Tot_Q>
1

> <i_epik_Tot_abs_Q>
1

> <r_epik_Metal_State_Penalty>
0.131385

> <b_epik_Metal_Only>
0

> <s_lp_Force_Field>
OPLS_2005

> <r_lp_Energy>
34.0204

> <b_lp_Chiralities_Consistent>
1

> <s_lp_Variant>
AV-unprocessed.smi:3308-2

> <Gold.Version>
5.8.1

> <Gold.Id.Protein>
6NUR|6NUR_protein|mol2

> <Gold.PLP.Fitness>
40.1942

> <Gold.PLP.PLP>
-29.0609

> <Gold.PLP.part.hbond>
-1.0000

> <Gold.PLP.part.metal>
0.0000

> <Gold.PLP.part.buried>
-4.0181

> <Gold.PLP.part.nonpolar>
-25.8088

> <Gold.PLP.part.repulsive>
0.2389

> <Gold.PLP.ligand.clash>
0.0000

> <Gold.PLP.ligand.torsion>
0.9478

> <Gold.PLP.Chemscore.Hbond>
2.0000

> <Gold.PLP.Chemscore.CHOScore>
2.3110

> <Gold.PLP.Chemscore.Metal>
0.0000

> <Gold.Chemscore.Hbonds>
donor molecule, donor type, donor heavy atom, donor atom, acceptor molecule, acceptor atom, score
      L1  H     3    41       P1  7948  2.00
      L1  C    15    38       P1 10747  0.84
      L1  C    17    40       P1 10186  0.94
      L1  C    17    40       P1 10952  0.37

> <Gold.PLP.Chemscore.Internal.Correction>
0.0958

> <Gold.Rescore>
     Score         DG    S(hbond)    S(metal)    S(lipo)     H(rot)  DE(clash)    DE(int)     intcor
     12.84     -13.60       1.00        0.00      79.86       1.78       0.05       0.71       ----

> <Gold.Chemscore.Fitness>
12.8363

> <Gold.Chemscore.DG>
-13.5969

> <Gold.Chemscore.ZeroCoef>
-5.4800

> <Gold.Chemscore.Hbond>
0.9998

> <Gold.Chemscore.Metal>
0.0000

> <Gold.Chemscore.Lipo>
79.8582

> <Gold.Chemscore.Internal_Hbond>
0.0000

> <Gold.Chemscore.DEClash>
0.0502

> <Gold.Chemscore.DEInternal>
0.7104

> <Gold.Chemscore.Rot>
1.7836

> <Gold.Chemscore.Internal.Correction>
   9.000000E+99

> <Gold.Chemscore.Hbonds>
donor molecule, donor type, donor heavy atom, donor atom, acceptor molecule, acceptor atom, score
      L1  H     3    41       P1  7948  1.00

> <Gold.Chemscore.Hbond.Weighted>
-3.3395

> <Gold.Chemscore.Metal.Weighted>
-0.0000

> <Gold.Chemscore.Lipo.Weighted>
-9.3434

> <Gold.Chemscore.Internal_Hbond.Weighted>
0.0000

> <Gold.Chemscore.DEClash.Weighted>
0.0502

> <Gold.Chemscore.DEInternal.Weighted>
0.7104

> <Gold.Chemscore.Rot.Weighted>
4.5660

> <Gold.Chemscore.Internal.Correction.Weighted>
   9.000000E+99

> <Gold.Protein.RotatedTorsions>
[ 6907 6896 6895 6894 ] final -145.97 input  -60.11 | X-H torsion
[ 7974 7965 7964 7962 ] final    0.76 input  175.53 | X-H torsion
[ 8008 7997 7996 7995 ] final -100.42 input   59.86 | X-H torsion
[ 10167 10162 10161 10158 ] final   -8.38 input  -65.29 | X-H torsion
[ 10718 10713 10712 10709 ] final  -69.99 input   66.30 | X-H torsion
[ 10763 10752 10751 10750 ] final  -11.46 input  -60.55 | X-H torsion
[ 11005 11000 10999 10996 ] final -161.99 input  -57.11 | X-H torsion

> <Gold.Protein.ActiveResidues>
 VAL166  LYS551  ARG553  GLY616  TRP617  ASP618  TYR619  PRO620  LYS621  CYS622 
 ASP623  PHE694  ASN695  SER759  ASP760  ASP761  ALA762  ILE779  LEU786  VAL792 
 PHE793  MET794  SER795  GLU796  ALA797  LYS798  CYS799  TRP800  GLU811  SER814 

> <Gold.Protein.RotatedAtoms>
  151.1352  133.5009  159.2597 H   0  0  0  0  0  0  0  0  0  0  0  0  # atno 6907 bound_to 6896
  151.1714  135.0319  159.8763 H   0  0  0  0  0  0  0  0  0  0  0  0  # atno 6908 bound_to 6896
  152.5461  134.1215  159.8454 H   0  0  0  0  0  0  0  0  0  0  0  0  # atno 6909 bound_to 6896
  146.2436  140.1089  142.8344 H   0  0  0  0  0  0  0  0  0  0  0  0  # atno 7974 bound_to 7965
  154.8284  140.0441  157.1460 H   0  0  0  0  0  0  0  0  0  0  0  0  # atno 8008 bound_to 7997
  154.9180  140.3023  155.5211 H   0  0  0  0  0  0  0  0  0  0  0  0  # atno 8009 bound_to 7997
  156.2985  140.2346  156.4226 H   0  0  0  0  0  0  0  0  0  0  0  0  # atno 8010 bound_to 7997
  140.7057  143.5975  150.8831 H   0  0  0  0  0  0  0  0  0  0  0  0  # atno 10167 bound_to 10162
  156.0429  130.4323  150.2229 H   0  0  0  0  0  0  0  0  0  0  0  0  # atno 10718 bound_to 10713
  153.4841  135.7017  153.5921 H   0  0  0  0  0  0  0  0  0  0  0  0  # atno 10763 bound_to 10752
  153.4121  135.3846  155.2057 H   0  0  0  0  0  0  0  0  0  0  0  0  # atno 10764 bound_to 10752
  154.8720  135.3907  154.4294 H   0  0  0  0  0  0  0  0  0  0  0  0  # atno 10765 bound_to 10752
  140.6142  134.4818  157.5218 H   0  0  0  0  0  0  0  0  0  0  0  0  # atno 11005 bound_to 11000
  145.0504  140.9013  143.4999 LP  0  0  0  0  0  0  0  0  0  0  0  0  # atno 17320 bound_to 7965
  145.1186  139.2709  143.5600 LP  0  0  0  0  0  0  0  0  0  0  0  0  # atno 17321 bound_to 7965
  139.9700  143.6067  152.2976 LP  0  0  0  0  0  0  0  0  0  0  0  0  # atno 17342 bound_to 10162
  139.6651  144.7662  151.1889 LP  0  0  0  0  0  0  0  0  0  0  0  0  # atno 17343 bound_to 10162
  157.0322  131.0011  151.3308 LP  0  0  0  0  0  0  0  0  0  0  0  0  # atno 17370 bound_to 10713
  157.5269  130.8033  149.7872 LP  0  0  0  0  0  0  0  0  0  0  0  0  # atno 17371 bound_to 10713
  139.9180  134.8207  156.1304 LP  0  0  0  0  0  0  0  0  0  0  0  0  # atno 17394 bound_to 11000
  141.0787  133.6764  156.2290 LP  0  0  0  0  0  0  0  0  0  0  0  0  # atno 17395 bound_to 11000

$$$$
