AV-unprocessed.smi:1261|AV-procd|sdf|5308|dock3
  -GOLD-   22720 4433D 1   1.00000     0.00000
 Structure written by MMmdl.
 50 51  0  0  0  0  0  0  0  0  2 V2000
  153.8277  141.6519  161.0682 C   0  0  0  0  0  0  0  0  0  0  0  0
  152.7313  142.3246  160.2300 C   0  0  1  0  0  0  0  0  0  0  0  0
  153.3253  143.3636  159.2619 C   0  0  0  0  0  0  0  0  0  0  0  0
  152.2409  143.9965  158.3705 C   0  0  2  0  0  0  0  0  0  0  0  0
  151.3520  144.9990  159.1282 C   0  0  0  0  0  0  0  0  0  0  0  0
  151.4151  142.9016  157.6664 C   0  0  0  0  0  0  0  0  0  0  0  0
  150.8392  141.9372  158.6396 N   0  3  1  0  0  0  0  0  0  0  0  0
  149.9179  140.9681  157.9938 C   0  0  0  0  0  0  0  0  0  0  0  0
  150.6301  140.0921  156.9499 C   0  0  0  0  0  0  0  0  0  0  0  0
  150.9272  138.6787  157.4762 C   0  0  0  0  0  0  0  0  0  0  0  0
  149.6971  137.9466  157.7485 N   0  0  0  0  0  0  0  0  0  0  0  0
  149.3821  137.3677  158.9201 C   0  0  0  0  0  0  0  0  0  0  0  0
  150.1358  137.3847  159.8926 O   0  0  0  0  0  0  0  0  0  0  0  0
  148.0163  136.6698  159.0450 C   0  0  0  0  0  0  0  0  0  0  0  0
  147.7290  136.0941  160.3693 N   0  0  0  0  0  0  0  0  0  0  0  0
  147.7725  137.0122  161.4076 N   0  0  0  0  0  0  0  0  0  0  0  0
  147.5344  136.6303  162.6169 C   0  0  0  0  0  0  0  0  0  0  0  0
  147.5914  137.5716  163.6154 O   0  0  0  0  0  0  0  0  0  0  0  0
  147.2169  135.2513  162.9174 C   0  0  0  0  0  0  0  0  0  0  0  0
  147.1795  134.3635  161.8997 C   0  0  0  0  0  0  0  0  0  0  0  0
  147.4511  134.7620  160.5173 C   0  0  0  0  0  0  0  0  0  0  0  0
  147.4419  133.9717  159.5739 O   0  0  0  0  0  0  0  0  0  0  0  0
  151.8991  141.2851  159.4542 C   0  0  0  0  0  0  0  0  0  0  0  0
  147.6214  137.0817  164.4227 H   0  0  0  0  0  0  0  0  0  0  0  0
  154.5353  141.1123  160.4379 H   0  0  0  0  0  0  0  0  0  0  0  0
  153.4010  140.9393  161.7745 H   0  0  0  0  0  0  0  0  0  0  0  0
  154.3895  142.3883  161.6438 H   0  0  0  0  0  0  0  0  0  0  0  0
  152.0665  142.8402  160.9241 H   0  0  0  0  0  0  0  0  0  0  0  0
  153.8584  144.1380  159.8149 H   0  0  0  0  0  0  0  0  0  0  0  0
  154.0680  142.8787  158.6265 H   0  0  0  0  0  0  0  0  0  0  0  0
  152.7532  144.5682  157.5955 H   0  0  0  0  0  0  0  0  0  0  0  0
  150.7618  144.5157  159.9065 H   0  0  0  0  0  0  0  0  0  0  0  0
  150.6568  145.4938  158.4497 H   0  0  0  0  0  0  0  0  0  0  0  0
  151.9528  145.7759  159.6022 H   0  0  0  0  0  0  0  0  0  0  0  0
  150.6191  143.3671  157.0836 H   0  0  0  0  0  0  0  0  0  0  0  0
  152.0434  142.3589  156.9580 H   0  0  0  0  0  0  0  0  0  0  0  0
  149.5003  140.3066  158.7544 H   0  0  0  0  0  0  0  0  0  0  0  0
  149.0730  141.4960  157.5487 H   0  0  0  0  0  0  0  0  0  0  0  0
  150.0238  140.0145  156.0479 H   0  0  0  0  0  0  0  0  0  0  0  0
  151.5647  140.5698  156.6527 H   0  0  0  0  0  0  0  0  0  0  0  0
  151.4975  138.1167  156.7362 H   0  0  0  0  0  0  0  0  0  0  0  0
  151.5441  138.7247  158.3754 H   0  0  0  0  0  0  0  0  0  0  0  0
  149.0255  137.8838  156.9966 H   0  0  0  0  0  0  0  0  0  0  0  0
  147.2459  137.3974  158.7831 H   0  0  0  0  0  0  0  0  0  0  0  0
  147.9493  135.8952  158.2791 H   0  0  0  0  0  0  0  0  0  0  0  0
  147.0151  134.9470  163.9340 H   0  0  0  0  0  0  0  0  0  0  0  0
  146.9428  133.3308  162.1100 H   0  0  0  0  0  0  0  0  0  0  0  0
  152.5445  140.6930  158.8030 H   0  0  0  0  0  0  0  0  0  0  0  0
  151.4519  140.5917  160.1656 H   0  0  0  0  0  0  0  0  0  0  0  0
  150.2758  142.4856  159.2737 H   0  0  0  0  0  0  0  0  0  0  0  0
  1  2  1  0  0  0  0
  1 25  1  0  0  0  0
  1 26  1  0  0  0  0
  1 27  1  0  0  0  0
  2 23  1  0  0  0  0
  2  3  1  0  0  0  0
  2 28  1  0  0  0  0
  3  4  1  0  0  0  0
  3 29  1  0  0  0  0
  3 30  1  0  0  0  0
  4  5  1  0  0  0  0
  4  6  1  0  0  0  0
  4 31  1  0  0  0  0
  5 32  1  0  0  0  0
  5 33  1  0  0  0  0
  5 34  1  0  0  0  0
  6  7  1  0  0  0  0
  6 35  1  0  0  0  0
  6 36  1  0  0  0  0
  7  8  1  0  0  0  0
  7 23  1  0  0  0  0
  7 50  1  0  0  0  0
  8  9  1  0  0  0  0
  8 37  1  0  0  0  0
  8 38  1  0  0  0  0
  9 10  1  0  0  0  0
  9 39  1  0  0  0  0
  9 40  1  0  0  0  0
 10 11  1  0  0  0  0
 10 41  1  0  0  0  0
 10 42  1  0  0  0  0
 11 12  1  0  0  0  0
 11 43  1  0  0  0  0
 12 13  2  0  0  0  0
 12 14  1  0  0  0  0
 14 44  1  0  0  0  0
 14 45  1  0  0  0  0
 14 15  1  0  0  0  0
 15 16  1  0  0  0  0
 15 21  1  0  0  0  0
 16 17  2  0  0  0  0
 17 18  1  0  0  0  0
 17 19  1  0  0  0  0
 18 24  1  0  0  0  0
 19 46  1  0  0  0  0
 19 20  2  0  0  0  0
 20 47  1  0  0  0  0
 20 21  1  0  0  0  0
 21 22  2  0  0  0  0
 23 48  1  0  0  0  0
 23 49  1  0  0  0  0
M  CHG  1   7   1
M  END
> <s_m_source_file>
AV-unprocessed.smi

> <i_m_source_file_index>
1261

> <i_lp_mmshare_version>
43012

> <i_f3d_flags>
0

> <s_epik_input>
W0NIM11bQ0BASF0xW0NIMl1bQ0BASF0oW0NIM10pW0NIMl1OKFtDSDJdMSlbQ0gyXVtDSDJdW0NIMl1bTkhdQyg9TylbQ0gyXW4yW25IXWMoPU8pW2NIXVtjSF1jMj1P

> <s_epik_cmdline>
J2VwaWtfcHl0aG9uJywgJy1waCcsICc3LjAnLCAnLXRuJywgJzgnLCAnLW1hJywgJzIwMCcsICctbWV0YWxfYmluZGluZycsICctaW1hZScsICc8aW5maWxlLm1hZT4nLCAnLW9tYWUnLCAnPG91dGZpbGUubWFlPic=

> <r_lp_tautomer_probability>
0.9996

> <r_epik_Ionization_Penalty>
2.1425

> <r_epik_Ionization_Penalty_Charging>
0.000312112

> <r_epik_Ionization_Penalty_Neutral>
2.14218

> <r_epik_State_Penalty>
1.71978

> <r_epik_Charging_Adjusted_Penalty>
1.72009

> <i_epik_Tot_Q>
1

> <i_epik_Tot_abs_Q>
1

> <r_epik_Metal_State_Penalty>
1.71978

> <b_epik_Metal_Only>
0

> <s_lp_Force_Field>
OPLS_2005

> <r_lp_Energy>
29.1446

> <b_lp_Chiralities_Consistent>
1

> <s_lp_Variant>
AV-unprocessed.smi:1261-8

> <Gold.Version>
5.8.1

> <Gold.Id.Protein>
6NUR|6NUR_protein|mol2

> <Gold.PLP.Fitness>
54.9160

> <Gold.PLP.PLP>
-51.7577

> <Gold.PLP.part.hbond>
-4.0000

> <Gold.PLP.part.metal>
0.0000

> <Gold.PLP.part.buried>
-6.3204

> <Gold.PLP.part.nonpolar>
-42.0060

> <Gold.PLP.part.repulsive>
0.1868

> <Gold.PLP.ligand.clash>
0.0000

> <Gold.PLP.ligand.torsion>
0.3365

> <Gold.PLP.Chemscore.Hbond>
1.2621

> <Gold.PLP.Chemscore.CHOScore>
0.0000

> <Gold.PLP.Chemscore.Metal>
0.0000

> <Gold.Chemscore.Hbonds>
donor molecule, donor type, donor heavy atom, donor atom, acceptor molecule, acceptor atom, score
      P1  H  6931  6943       L1    16  0.70
      P1  H  6934  6947       L1    16  0.57

> <Gold.PLP.Chemscore.Internal.Correction>
0.0449

> <Gold.Rescore>
     Score         DG    S(hbond)    S(metal)    S(lipo)     H(rot)  DE(clash)    DE(int)     intcor
     12.08     -13.68       0.85        0.00     114.29       3.14       0.04       1.56       ----

> <Gold.Chemscore.Fitness>
12.0841

> <Gold.Chemscore.DG>
-13.6777

> <Gold.Chemscore.ZeroCoef>
-5.4800

> <Gold.Chemscore.Hbond>
0.8537

> <Gold.Chemscore.Metal>
0.0000

> <Gold.Chemscore.Lipo>
114.2939

> <Gold.Chemscore.Internal_Hbond>
0.0000

> <Gold.Chemscore.DEClash>
0.0370

> <Gold.Chemscore.DEInternal>
1.5566

> <Gold.Chemscore.Rot>
3.1352

> <Gold.Chemscore.Internal.Correction>
   9.000000E+99

> <Gold.Chemscore.Hbonds>
donor molecule, donor type, donor heavy atom, donor atom, acceptor molecule, acceptor atom, score
      P1  H  6931  6943       L1    16  0.07
      P1  H  6934  6947       L1    16  0.48

> <Gold.Chemscore.Hbond.Weighted>
-2.8514

> <Gold.Chemscore.Metal.Weighted>
-0.0000

> <Gold.Chemscore.Lipo.Weighted>
-13.3724

> <Gold.Chemscore.Internal_Hbond.Weighted>
0.0000

> <Gold.Chemscore.DEClash.Weighted>
0.0370

> <Gold.Chemscore.DEInternal.Weighted>
1.5566

> <Gold.Chemscore.Rot.Weighted>
8.0260

> <Gold.Chemscore.Internal.Correction.Weighted>
   9.000000E+99

> <Gold.Protein.RotatedTorsions>
[ 6907 6896 6895 6894 ] final   63.52 input  -60.11 | X-H torsion
[ 7974 7965 7964 7962 ] final -127.13 input  175.53 | X-H torsion
[ 8008 7997 7996 7995 ] final  141.94 input   59.86 | X-H torsion
[ 10167 10162 10161 10158 ] final  -91.08 input  -65.29 | X-H torsion
[ 10718 10713 10712 10709 ] final  132.49 input   66.30 | X-H torsion
[ 10763 10752 10751 10750 ] final   30.44 input  -60.55 | X-H torsion
[ 11005 11000 10999 10996 ] final   67.96 input  -57.11 | X-H torsion

> <Gold.Protein.ActiveResidues>
 VAL166  LYS551  ARG553  GLY616  TRP617  ASP618  TYR619  PRO620  LYS621  CYS622 
 ASP623  PHE694  ASN695  SER759  ASP760  ASP761  ALA762  ILE779  LEU786  VAL792 
 PHE793  MET794  SER795  GLU796  ALA797  LYS798  CYS799  TRP800  GLU811  SER814 

> <Gold.Protein.RotatedAtoms>
  152.4260  134.5868  159.9962 H   0  0  0  0  0  0  0  0  0  0  0  0  # atno 6907 bound_to 6896
  151.6004  133.3351  159.3054 H   0  0  0  0  0  0  0  0  0  0  0  0  # atno 6908 bound_to 6896
  150.8149  134.7363  159.6787 H   0  0  0  0  0  0  0  0  0  0  0  0  # atno 6909 bound_to 6896
  144.9802  140.7633  143.4616 H   0  0  0  0  0  0  0  0  0  0  0  0  # atno 7974 bound_to 7965
  156.2958  140.2302  156.4647 H   0  0  0  0  0  0  0  0  0  0  0  0  # atno 8008 bound_to 7997
  154.7988  140.0449  157.1278 H   0  0  0  0  0  0  0  0  0  0  0  0  # atno 8009 bound_to 7997
  154.9558  140.3048  155.5057 H   0  0  0  0  0  0  0  0  0  0  0  0  # atno 8010 bound_to 7997
  140.3485  143.2904  151.9754 H   0  0  0  0  0  0  0  0  0  0  0  0  # atno 10167 bound_to 10162
  157.4866  131.1088  150.9612 H   0  0  0  0  0  0  0  0  0  0  0  0  # atno 10718 bound_to 10713
  153.0371  135.6464  154.1045 H   0  0  0  0  0  0  0  0  0  0  0  0  # atno 10763 bound_to 10752
  154.0758  135.2877  155.3301 H   0  0  0  0  0  0  0  0  0  0  0  0  # atno 10764 bound_to 10752
  154.6563  135.5407  153.8028 H   0  0  0  0  0  0  0  0  0  0  0  0  # atno 10765 bound_to 10752
  139.9739  134.6854  156.0391 H   0  0  0  0  0  0  0  0  0  0  0  0  # atno 11005 bound_to 11000
  145.2431  139.2064  143.4982 LP  0  0  0  0  0  0  0  0  0  0  0  0  # atno 17320 bound_to 7965
  146.3406  140.2330  142.8594 LP  0  0  0  0  0  0  0  0  0  0  0  0  # atno 17321 bound_to 7965
  139.4830  144.6096  151.7457 LP  0  0  0  0  0  0  0  0  0  0  0  0  # atno 17342 bound_to 10162
  140.5242  144.0832  150.6032 LP  0  0  0  0  0  0  0  0  0  0  0  0  # atno 17343 bound_to 10162
  157.0327  130.5718  149.5345 LP  0  0  0  0  0  0  0  0  0  0  0  0  # atno 17370 bound_to 10713
  156.0150  130.5244  150.8107 LP  0  0  0  0  0  0  0  0  0  0  0  0  # atno 17371 bound_to 10713
  141.1418  133.6563  156.3751 LP  0  0  0  0  0  0  0  0  0  0  0  0  # atno 17394 bound_to 11000
  140.5234  134.6282  157.5326 LP  0  0  0  0  0  0  0  0  0  0  0  0  # atno 17395 bound_to 11000

$$$$
