AV-unprocessed.smi:2526|AV-procd|sdf|9938|dock4
  -GOLD-   2272013583D 1   1.00000     0.00000
 Structure written by MMmdl.
 28 29  0  0  0  0  0  0  0  0  1 V2000
  151.0336  144.8485  160.0341 C   0  0  0  0  0  0  0  0  0  0  0  0
  151.1483  143.6442  159.2396 N   0  0  0  0  0  0  0  0  0  0  0  0
  151.0596  143.5063  157.8715 C   0  0  0  0  0  0  0  0  0  0  0  0
  151.2402  142.1837  157.5755 C   0  0  0  0  0  0  0  0  0  0  0  0
  151.2422  141.5172  156.2196 C   0  0  2  0  0  0  0  0  0  0  0  0
  150.1117  141.9858  155.4119 N   0  0  0  0  0  0  0  0  0  0  0  0
  149.3581  141.2584  154.5678 C   0  0  0  0  0  0  0  0  0  0  0  0
  148.4636  141.7731  153.9009 O   0  0  0  0  0  0  0  0  0  0  0  0
  149.6023  139.7463  154.4620 C   0  0  0  0  0  0  0  0  0  0  0  0
  150.9748  139.3146  154.9987 C   0  0  0  0  0  0  0  0  0  0  0  0
  151.2556  139.9755  156.3530 C   0  0  1  0  0  0  0  0  0  0  0  0
  152.5292  139.5071  156.8697 N   0  0  0  0  0  0  0  0  0  0  0  0
  151.4372  141.5895  158.8568 C   0  0  0  0  0  0  0  0  0  0  0  0
  151.3812  142.4637  159.8477 N   0  0  0  0  0  0  0  0  0  0  0  0
  150.5153  145.6213  159.4660 H   0  0  0  0  0  0  0  0  0  0  0  0
  152.0283  145.2076  160.2984 H   0  0  0  0  0  0  0  0  0  0  0  0
  150.4714  144.6450  160.9464 H   0  0  0  0  0  0  0  0  0  0  0  0
  150.8803  144.3530  157.2252 H   0  0  0  0  0  0  0  0  0  0  0  0
  152.1324  141.8191  155.6651 H   0  0  0  0  0  0  0  0  0  0  0  0
  149.9049  142.9723  155.4728 H   0  0  0  0  0  0  0  0  0  0  0  0
  148.8159  139.2454  155.0277 H   0  0  0  0  0  0  0  0  0  0  0  0
  149.4900  139.4304  153.4241 H   0  0  0  0  0  0  0  0  0  0  0  0
  151.0013  138.2283  155.0935 H   0  0  0  0  0  0  0  0  0  0  0  0
  151.7512  139.5830  154.2803 H   0  0  0  0  0  0  0  0  0  0  0  0
  150.4782  139.6682  157.0544 H   0  0  0  0  0  0  0  0  0  0  0  0
  152.4890  139.4633  157.8779 H   0  0  0  0  0  0  0  0  0  0  0  0
  152.6981  138.5644  156.5493 H   0  0  0  0  0  0  0  0  0  0  0  0
  151.6214  140.5519  159.0940 H   0  0  0  0  0  0  0  0  0  0  0  0
  1  2  1  0  0  0  0
  1 15  1  0  0  0  0
  1 16  1  0  0  0  0
  1 17  1  0  0  0  0
  2 14  1  0  0  0  0
  2  3  1  0  0  0  0
  3  4  2  0  0  0  0
  3 18  1  0  0  0  0
  4  5  1  0  0  0  0
  4 13  1  0  0  0  0
  5 11  1  0  0  0  0
  5  6  1  0  0  0  0
  5 19  1  0  0  0  0
  6  7  1  0  0  0  0
  6 20  1  0  0  0  0
  7  8  2  0  0  0  0
  7  9  1  0  0  0  0
  9 10  1  0  0  0  0
  9 21  1  0  0  0  0
  9 22  1  0  0  0  0
 10 11  1  0  0  0  0
 10 23  1  0  0  0  0
 10 24  1  0  0  0  0
 11 12  1  0  0  0  0
 11 25  1  0  0  0  0
 12 26  1  0  0  0  0
 12 27  1  0  0  0  0
 13 14  2  0  0  0  0
 13 28  1  0  0  0  0
M  END
> <s_m_source_file>
AV-unprocessed.smi

> <i_m_source_file_index>
2526

> <i_lp_mmshare_version>
43012

> <i_f3d_flags>
0

> <s_epik_input>
W0NIM11uMVtjSF1jKFtjSF1uMSlbQ0BASF0yW05IXUMoPU8pW0NIMl1bQ0gyXVtDQEhdMltOSDJd

> <s_epik_cmdline>
J2VwaWtfcHl0aG9uJywgJy1waCcsICc3LjAnLCAnLXRuJywgJzgnLCAnLW1hJywgJzIwMCcsICctbWV0YWxfYmluZGluZycsICctaW1hZScsICc8aW5maWxlLm1hZT4nLCAnLW9tYWUnLCAnPG91dGZpbGUubWFlPic=

> <r_lp_tautomer_probability>
1

> <r_epik_Ionization_Penalty>
2.50279

> <r_epik_Ionization_Penalty_Charging>
0

> <r_epik_Ionization_Penalty_Neutral>
2.50279

> <r_epik_State_Penalty>
2.66754

> <r_epik_Charging_Adjusted_Penalty>
2.66754

> <i_epik_Tot_Q>
0

> <i_epik_Tot_abs_Q>
0

> <r_epik_Metal_State_Penalty>
2.66721

> <b_epik_Metal_Only>
0

> <s_lp_Force_Field>
OPLS_2005

> <r_lp_Energy>
8.43832

> <b_lp_Chiralities_Consistent>
1

> <s_lp_Variant>
AV-unprocessed.smi:2526-5

> <Gold.Version>
5.8.1

> <Gold.Id.Protein>
6NUR|6NUR_protein|mol2

> <Gold.PLP.Fitness>
37.2046

> <Gold.PLP.PLP>
-28.8303

> <Gold.PLP.part.hbond>
-3.8789

> <Gold.PLP.part.metal>
0.0000

> <Gold.PLP.part.buried>
-2.6266

> <Gold.PLP.part.nonpolar>
-22.5288

> <Gold.PLP.part.repulsive>
0.3717

> <Gold.PLP.ligand.clash>
0.0000

> <Gold.PLP.ligand.torsion>
0.2614

> <Gold.PLP.Chemscore.Hbond>
1.9892

> <Gold.PLP.Chemscore.CHOScore>
0.9679

> <Gold.PLP.Chemscore.Metal>
0.0000

> <Gold.Chemscore.Hbonds>
donor molecule, donor type, donor heavy atom, donor atom, acceptor molecule, acceptor atom, score
      L1  H     6    20       P1  8028  1.00
      P1  H  7997  8008       L1    12  0.71
      P1  H  8011  8017       L1     8  0.28
      L1  C     3    18       P1  8028  0.97

> <Gold.PLP.Chemscore.Internal.Correction>
0.0258

> <Gold.Rescore>
     Score         DG    S(hbond)    S(metal)    S(lipo)     H(rot)  DE(clash)    DE(int)     intcor
     13.75     -13.83       1.00        0.00      64.79       1.00       0.05       0.03       ----

> <Gold.Chemscore.Fitness>
13.7550

> <Gold.Chemscore.DG>
-13.8325

> <Gold.Chemscore.ZeroCoef>
-5.4800

> <Gold.Chemscore.Hbond>
0.9975

> <Gold.Chemscore.Metal>
0.0000

> <Gold.Chemscore.Lipo>
64.7930

> <Gold.Chemscore.Internal_Hbond>
0.0000

> <Gold.Chemscore.DEClash>
0.0518

> <Gold.Chemscore.DEInternal>
0.0257

> <Gold.Chemscore.Rot>
1.0000

> <Gold.Chemscore.Internal.Correction>
   9.000000E+99

> <Gold.Chemscore.Hbonds>
donor molecule, donor type, donor heavy atom, donor atom, acceptor molecule, acceptor atom, score
      L1  H     6    20       P1  8028  0.93
      P1  H  7997  8008       L1    12  0.02
      P1  H  8011  8017       L1     8  0.03

> <Gold.Chemscore.Hbond.Weighted>
-3.3317

> <Gold.Chemscore.Metal.Weighted>
-0.0000

> <Gold.Chemscore.Lipo.Weighted>
-7.5808

> <Gold.Chemscore.Internal_Hbond.Weighted>
0.0000

> <Gold.Chemscore.DEClash.Weighted>
0.0518

> <Gold.Chemscore.DEInternal.Weighted>
0.0257

> <Gold.Chemscore.Rot.Weighted>
2.5600

> <Gold.Chemscore.Internal.Correction.Weighted>
   9.000000E+99

> <Gold.Protein.RotatedTorsions>
[ 6907 6896 6895 6894 ] final   97.58 input  -60.11 | X-H torsion
[ 7974 7965 7964 7962 ] final  -40.15 input  175.53 | X-H torsion
[ 8008 7997 7996 7995 ] final  -62.22 input   59.86 | X-H torsion
[ 10167 10162 10161 10158 ] final -146.24 input  -65.29 | X-H torsion
[ 10718 10713 10712 10709 ] final  -62.74 input   66.30 | X-H torsion
[ 10763 10752 10751 10750 ] final  159.97 input  -60.55 | X-H torsion
[ 11005 11000 10999 10996 ] final   40.37 input  -57.11 | X-H torsion

> <Gold.Protein.ActiveResidues>
 VAL166  LYS551  ARG553  GLY616  TRP617  ASP618  TYR619  PRO620  LYS621  CYS622 
 ASP623  PHE694  ASN695  SER759  ASP760  ASP761  ALA762  ILE779  LEU786  VAL792 
 PHE793  MET794  SER795  GLU796  ALA797  LYS798  CYS799  TRP800  GLU811  SER814 

> <Gold.Protein.RotatedAtoms>
  152.5421  134.0711  159.8194 H   0  0  0  0  0  0  0  0  0  0  0  0  # atno 6907 bound_to 6896
  151.0826  133.5371  159.2627 H   0  0  0  0  0  0  0  0  0  0  0  0  # atno 6908 bound_to 6896
  151.2192  135.0520  159.8997 H   0  0  0  0  0  0  0  0  0  0  0  0  # atno 6909 bound_to 6896
  146.0331  140.6706  142.9123 H   0  0  0  0  0  0  0  0  0  0  0  0  # atno 7974 bound_to 7965
  154.4488  140.1000  156.6554 H   0  0  0  0  0  0  0  0  0  0  0  0  # atno 8008 bound_to 7997
  155.5352  140.3482  155.4416 H   0  0  0  0  0  0  0  0  0  0  0  0  # atno 8009 bound_to 7997
  156.0636  140.1332  156.9901 H   0  0  0  0  0  0  0  0  0  0  0  0  # atno 8010 bound_to 7997
  139.7731  143.8208  152.2628 H   0  0  0  0  0  0  0  0  0  0  0  0  # atno 10167 bound_to 10162
  156.0836  130.4212  150.1178 H   0  0  0  0  0  0  0  0  0  0  0  0  # atno 10718 bound_to 10713
  154.2402  135.2775  155.2857 H   0  0  0  0  0  0  0  0  0  0  0  0  # atno 10763 bound_to 10752
  154.5551  135.5663  153.6960 H   0  0  0  0  0  0  0  0  0  0  0  0  # atno 10764 bound_to 10752
  153.0001  135.6284  154.2546 H   0  0  0  0  0  0  0  0  0  0  0  0  # atno 10765 bound_to 10752
  140.1937  134.3955  155.8132 H   0  0  0  0  0  0  0  0  0  0  0  0  # atno 11005 bound_to 11000
  144.7039  140.3772  143.7133 LP  0  0  0  0  0  0  0  0  0  0  0  0  # atno 17320 bound_to 7965
  145.7008  139.1661  143.2594 LP  0  0  0  0  0  0  0  0  0  0  0  0  # atno 17321 bound_to 7965
  139.8249  144.7279  150.9525 LP  0  0  0  0  0  0  0  0  0  0  0  0  # atno 17342 bound_to 10162
  140.7815  143.4124  151.0971 LP  0  0  0  0  0  0  0  0  0  0  0  0  # atno 17343 bound_to 10162
  156.9203  130.9681  151.3549 LP  0  0  0  0  0  0  0  0  0  0  0  0  # atno 17370 bound_to 10713
  157.5962  130.8479  149.8732 LP  0  0  0  0  0  0  0  0  0  0  0  0  # atno 17371 bound_to 10713
  141.2227  133.7059  156.8140 LP  0  0  0  0  0  0  0  0  0  0  0  0  # atno 17394 bound_to 11000
  140.2130  134.8813  157.3296 LP  0  0  0  0  0  0  0  0  0  0  0  0  # atno 17395 bound_to 11000

$$$$
