AV-unprocessed.smi:275|AV-procd|sdf|2064|dock5
  -GOLD-   2262021313D 1   1.00000     0.00000
 Structure written by MMmdl.
 65 69  0  0  0  0  0  0  0  0  1 V2000
  150.5655  140.2536  155.0233 C   0  0  0  0  0  0  0  0  0  0  0  0
  151.9324  139.8679  155.6135 C   0  0  0  0  0  0  0  0  0  0  0  0
  152.5024  138.6765  154.8257 C   0  0  0  0  0  0  0  0  0  0  0  0
  151.8616  139.5552  157.1197 C   0  0  2  0  0  0  0  0  0  0  0  0
  150.5351  139.1424  157.5735 N   0  0  0  0  0  0  0  0  0  0  0  0
  150.2384  137.7537  157.6813 C   0  0  0  0  0  0  0  0  0  0  0  0
  150.9275  136.8184  156.9733 N   0  0  0  0  0  0  0  0  0  0  0  0
  150.6368  135.5191  157.0846 C   0  0  0  0  0  0  0  0  0  0  0  0
  149.7056  134.9351  157.8397 N   0  0  0  0  0  0  0  0  0  0  0  0
  149.0070  135.8608  158.5555 C   0  0  0  0  0  0  0  0  0  0  0  0
  149.2072  137.2700  158.5326 C   0  0  0  0  0  0  0  0  0  0  0  0
  148.3052  137.8908  159.3876 N   0  0  0  0  0  0  0  0  0  0  0  0
  147.6112  136.9056  159.8882 C   0  0  0  0  0  0  0  0  0  0  0  0
  147.9784  135.6502  159.4577 N   0  0  0  0  0  0  0  0  0  0  0  0
  147.3726  134.3875  159.8441 C   0  0  0  0  0  0  0  0  0  0  0  0
  147.6116  133.9829  161.3227 C   0  0  1  0  0  0  0  0  0  0  0  0
  147.0281  135.0983  162.2247 C   0  0  0  0  0  0  0  0  0  0  0  0
  147.2481  134.8389  163.5958 O   0  0  0  0  0  0  0  0  0  0  0  0
  147.0248  132.5799  161.6695 C   0  0  2  0  0  0  0  0  0  0  0  0
  147.4731  131.4416  160.7660 C   0  0  0  0  0  0  0  0  0  0  0  0
  146.4366  130.3671  161.0585 C   0  0  0  0  0  0  0  0  0  0  0  0
  145.2204  131.0820  161.2115 O   0  0  0  0  0  0  0  0  0  0  0  0
  145.4984  132.4383  161.5474 C   0  0  0  0  0  0  0  0  0  0  0  0
  150.7365  139.7654  158.8691 C   0  0  0  0  0  0  0  0  0  0  0  0
  151.7662  140.6787  158.1844 C   0  0  0  0  0  0  0  0  0  0  0  0
  151.2158  142.0535  157.7410 C   0  0  0  0  0  0  0  0  0  0  0  0
  150.9607  143.0047  158.9231 C   0  0  0  0  0  0  0  0  0  0  0  0
  152.2337  143.2114  159.7537 C   0  0  0  0  0  0  0  0  0  0  0  0
  152.8381  141.8690  160.1843 C   0  0  0  0  0  0  0  0  0  0  0  0
  153.0575  140.9445  158.9751 C   0  0  0  0  0  0  0  0  0  0  0  0
  149.8286  139.4650  155.1784 H   0  0  0  0  0  0  0  0  0  0  0  0
  150.6367  140.4349  153.9506 H   0  0  0  0  0  0  0  0  0  0  0  0
  150.1796  141.1670  155.4754 H   0  0  0  0  0  0  0  0  0  0  0  0
  152.6022  140.7133  155.4526 H   0  0  0  0  0  0  0  0  0  0  0  0
  151.8578  137.8019  154.9176 H   0  0  0  0  0  0  0  0  0  0  0  0
  153.4925  138.3888  155.1746 H   0  0  0  0  0  0  0  0  0  0  0  0
  152.5905  138.9128  153.7650 H   0  0  0  0  0  0  0  0  0  0  0  0
  152.6259  138.8388  157.4263 H   0  0  0  0  0  0  0  0  0  0  0  0
  151.2375  134.8529  156.4832 H   0  0  0  0  0  0  0  0  0  0  0  0
  146.8120  137.0686  160.5964 H   0  0  0  0  0  0  0  0  0  0  0  0
  146.3042  134.4854  159.6484 H   0  0  0  0  0  0  0  0  0  0  0  0
  147.7312  133.6008  159.1794 H   0  0  0  0  0  0  0  0  0  0  0  0
  148.6898  133.9610  161.4886 H   0  0  0  0  0  0  0  0  0  0  0  0
  147.5028  136.0572  162.0149 H   0  0  0  0  0  0  0  0  0  0  0  0
  145.9615  135.2304  162.0402 H   0  0  0  0  0  0  0  0  0  0  0  0
  148.0380  134.3270  163.6822 H   0  0  0  0  0  0  0  0  0  0  0  0
  147.3113  132.3221  162.6905 H   0  0  0  0  0  0  0  0  0  0  0  0
  147.4133  131.7375  159.7176 H   0  0  0  0  0  0  0  0  0  0  0  0
  148.4885  131.1014  160.9716 H   0  0  0  0  0  0  0  0  0  0  0  0
  146.3670  129.6205  160.2673 H   0  0  0  0  0  0  0  0  0  0  0  0
  146.6668  129.8552  161.9937 H   0  0  0  0  0  0  0  0  0  0  0  0
  144.9858  132.7020  162.4717 H   0  0  0  0  0  0  0  0  0  0  0  0
  145.1056  133.0684  160.7491 H   0  0  0  0  0  0  0  0  0  0  0  0
  149.8499  140.2709  159.2522 H   0  0  0  0  0  0  0  0  0  0  0  0
  151.1759  139.0889  159.6052 H   0  0  0  0  0  0  0  0  0  0  0  0
  151.9056  142.5390  157.0523 H   0  0  0  0  0  0  0  0  0  0  0  0
  150.2851  141.9314  157.1859 H   0  0  0  0  0  0  0  0  0  0  0  0
  150.5972  143.9651  158.5563 H   0  0  0  0  0  0  0  0  0  0  0  0
  150.1716  142.6012  159.5583 H   0  0  0  0  0  0  0  0  0  0  0  0
  152.9654  143.7645  159.1638 H   0  0  0  0  0  0  0  0  0  0  0  0
  152.0153  143.8235  160.6291 H   0  0  0  0  0  0  0  0  0  0  0  0
  153.7832  142.0365  160.7015 H   0  0  0  0  0  0  0  0  0  0  0  0
  152.1760  141.3819  160.9013 H   0  0  0  0  0  0  0  0  0  0  0  0
  153.4851  140.0044  159.3255 H   0  0  0  0  0  0  0  0  0  0  0  0
  153.8121  141.3832  158.3212 H   0  0  0  0  0  0  0  0  0  0  0  0
  1  2  1  0  0  0  0
  1 31  1  0  0  0  0
  1 32  1  0  0  0  0
  1 33  1  0  0  0  0
  2  3  1  0  0  0  0
  2  4  1  0  0  0  0
  2 34  1  0  0  0  0
  3 35  1  0  0  0  0
  3 36  1  0  0  0  0
  3 37  1  0  0  0  0
  4 25  1  0  0  0  0
  4  5  1  0  0  0  0
  4 38  1  0  0  0  0
  5  6  1  0  0  0  0
  5 24  1  0  0  0  0
  6 11  1  0  0  0  0
  6  7  2  0  0  0  0
  7  8  1  0  0  0  0
  8  9  2  0  0  0  0
  8 39  1  0  0  0  0
  9 10  1  0  0  0  0
 10 14  1  0  0  0  0
 10 11  2  0  0  0  0
 11 12  1  0  0  0  0
 12 13  2  0  0  0  0
 13 14  1  0  0  0  0
 13 40  1  0  0  0  0
 14 15  1  0  0  0  0
 15 16  1  0  0  0  0
 15 41  1  0  0  0  0
 15 42  1  0  0  0  0
 16 17  1  0  0  0  0
 16 19  1  0  0  0  0
 16 43  1  0  0  0  0
 17 18  1  0  0  0  0
 17 44  1  0  0  0  0
 17 45  1  0  0  0  0
 18 46  1  0  0  0  0
 19 23  1  0  0  0  0
 19 20  1  0  0  0  0
 19 47  1  0  0  0  0
 20 21  1  0  0  0  0
 20 48  1  0  0  0  0
 20 49  1  0  0  0  0
 21 22  1  0  0  0  0
 21 50  1  0  0  0  0
 21 51  1  0  0  0  0
 22 23  1  0  0  0  0
 23 52  1  0  0  0  0
 23 53  1  0  0  0  0
 24 25  1  0  0  0  0
 24 54  1  0  0  0  0
 24 55  1  0  0  0  0
 25 30  1  0  0  0  0
 25 26  1  0  0  0  0
 26 27  1  0  0  0  0
 26 56  1  0  0  0  0
 26 57  1  0  0  0  0
 27 28  1  0  0  0  0
 27 58  1  0  0  0  0
 27 59  1  0  0  0  0
 28 29  1  0  0  0  0
 28 60  1  0  0  0  0
 28 61  1  0  0  0  0
 29 30  1  0  0  0  0
 29 62  1  0  0  0  0
 29 63  1  0  0  0  0
 30 64  1  0  0  0  0
 30 65  1  0  0  0  0
M  END
> <s_m_source_file>
AV-unprocessed.smi

> <i_m_source_file_index>
275

> <i_lp_mmshare_version>
43012

> <i_f3d_flags>
0

> <s_epik_input>
W0NIMl0xW0NIMl1bQ0gyXVtDSDJdW0NIMl1DMTJbQ0BIXShbQ0hdKFtDSDNdKVtDSDNdKU4oW0NIMl0yKWMobltjSF1uMyljKGMzNCluW2NIXW40W0NIMl1bQ0BIXShbQ0gyXVtPSF0pW0NAQEhdNVtDSDJdW0NIMl1PW0NIMl01

> <s_epik_cmdline>
J2VwaWtfcHl0aG9uJywgJy1waCcsICc3LjAnLCAnLXRuJywgJzgnLCAnLW1hJywgJzIwMCcsICctbWV0YWxfYmluZGluZycsICctaW1hZScsICc8aW5maWxlLm1hZT4nLCAnLW9tYWUnLCAnPG91dGZpbGUubWFlPic=

> <r_lp_tautomer_probability>
1

> <r_epik_Ionization_Penalty>
0.00375122

> <r_epik_Ionization_Penalty_Charging>
0

> <r_epik_Ionization_Penalty_Neutral>
0.00375122

> <r_epik_State_Penalty>
0.00260593

> <r_epik_Charging_Adjusted_Penalty>
0.00260593

> <i_epik_Tot_Q>
0

> <i_epik_Tot_abs_Q>
0

> <r_epik_Metal_State_Penalty>
-0

> <b_epik_Metal_Only>
0

> <s_lp_Force_Field>
OPLS_2005

> <r_lp_Energy>
64.5971

> <b_lp_Chiralities_Consistent>
1

> <s_lp_Variant>
AV-unprocessed.smi:275-3

> <Gold.Version>
5.8.1

> <Gold.Id.Protein>
6NUR|6NUR_protein|mol2

> <Gold.PLP.Fitness>
49.3918

> <Gold.PLP.PLP>
-48.4829

> <Gold.PLP.part.hbond>
-4.9432

> <Gold.PLP.part.metal>
0.0000

> <Gold.PLP.part.buried>
-1.5610

> <Gold.PLP.part.nonpolar>
-42.2734

> <Gold.PLP.part.repulsive>
0.0765

> <Gold.PLP.ligand.clash>
0.0000

> <Gold.PLP.ligand.torsion>
1.1480

> <Gold.PLP.Chemscore.Hbond>
0.8609

> <Gold.PLP.Chemscore.CHOScore>
0.0000

> <Gold.PLP.Chemscore.Metal>
0.0000

> <Gold.Chemscore.Hbonds>
donor molecule, donor type, donor heavy atom, donor atom, acceptor molecule, acceptor atom, score
      P1  H  6896  6907       L1     9  0.82
      P1  H  6934  6947       L1    12  0.03

> <Gold.PLP.Chemscore.Internal.Correction>
0.6222

> <Gold.Rescore>
     Score         DG    S(hbond)    S(metal)    S(lipo)     H(rot)  DE(clash)    DE(int)     intcor
     11.62     -15.52       0.21        0.00     135.22       2.54       2.07       1.83       ----

> <Gold.Chemscore.Fitness>
11.6169

> <Gold.Chemscore.DG>
-15.5222

> <Gold.Chemscore.ZeroCoef>
-5.4800

> <Gold.Chemscore.Hbond>
0.2149

> <Gold.Chemscore.Metal>
0.0000

> <Gold.Chemscore.Lipo>
135.2234

> <Gold.Chemscore.Internal_Hbond>
0.0000

> <Gold.Chemscore.DEClash>
2.0719

> <Gold.Chemscore.DEInternal>
1.8333

> <Gold.Chemscore.Rot>
2.5377

> <Gold.Chemscore.Internal.Correction>
   9.000000E+99

> <Gold.Chemscore.Hbonds>
donor molecule, donor type, donor heavy atom, donor atom, acceptor molecule, acceptor atom, score
      P1  H  6896  6907       L1     9  0.12

> <Gold.Chemscore.Hbond.Weighted>
-0.7176

> <Gold.Chemscore.Metal.Weighted>
-0.0000

> <Gold.Chemscore.Lipo.Weighted>
-15.8211

> <Gold.Chemscore.Internal_Hbond.Weighted>
0.0000

> <Gold.Chemscore.DEClash.Weighted>
2.0719

> <Gold.Chemscore.DEInternal.Weighted>
1.8333

> <Gold.Chemscore.Rot.Weighted>
6.4966

> <Gold.Chemscore.Internal.Correction.Weighted>
   9.000000E+99

> <Gold.Protein.RotatedTorsions>
[ 6907 6896 6895 6894 ] final -108.16 input  -60.11 | X-H torsion
[ 7974 7965 7964 7962 ] final  172.56 input  175.53 | X-H torsion
[ 8008 7997 7996 7995 ] final   37.29 input   59.86 | X-H torsion
[ 10167 10162 10161 10158 ] final  -27.49 input  -65.29 | X-H torsion
[ 10718 10713 10712 10709 ] final  110.02 input   66.30 | X-H torsion
[ 10763 10752 10751 10750 ] final  -73.29 input  -60.55 | X-H torsion
[ 11005 11000 10999 10996 ] final    7.10 input  -57.11 | X-H torsion

> <Gold.Protein.ActiveResidues>
 VAL166  LYS551  ARG553  GLY616  TRP617  ASP618  TYR619  PRO620  LYS621  CYS622 
 ASP623  PHE694  ASN695  SER759  ASP760  ASP761  ALA762  ILE779  LEU786  VAL792 
 PHE793  MET794  SER795  GLU796  ALA797  LYS798  CYS799  TRP800  GLU811  SER814 

> <Gold.Protein.RotatedAtoms>
  150.7485  133.9719  159.3548 H   0  0  0  0  0  0  0  0  0  0  0  0  # atno 6907 bound_to 6896
  151.7654  135.0798  160.0361 H   0  0  0  0  0  0  0  0  0  0  0  0  # atno 6908 bound_to 6896
  152.3375  133.5991  159.5889 H   0  0  0  0  0  0  0  0  0  0  0  0  # atno 6909 bound_to 6896
  144.7265  139.9516  143.6432 H   0  0  0  0  0  0  0  0  0  0  0  0  # atno 7974 bound_to 7965
  155.2014  140.3316  155.4342 H   0  0  0  0  0  0  0  0  0  0  0  0  # atno 8008 bound_to 7997
  156.2405  140.1893  156.7050 H   0  0  0  0  0  0  0  0  0  0  0  0  # atno 8009 bound_to 7997
  154.6139  140.0605  156.9515 H   0  0  0  0  0  0  0  0  0  0  0  0  # atno 8010 bound_to 7997
  140.7277  143.4089  151.1139 H   0  0  0  0  0  0  0  0  0  0  0  0  # atno 10167 bound_to 10162
  157.6514  131.0925  150.6540 H   0  0  0  0  0  0  0  0  0  0  0  0  # atno 10718 bound_to 10713
  154.4574  135.5902  153.6232 H   0  0  0  0  0  0  0  0  0  0  0  0  # atno 10763 bound_to 10752
  152.9819  135.6035  154.3529 H   0  0  0  0  0  0  0  0  0  0  0  0  # atno 10764 bound_to 10752
  154.3397  135.2842  155.2408 H   0  0  0  0  0  0  0  0  0  0  0  0  # atno 10765 bound_to 10752
  140.5520  134.0274  155.7940 H   0  0  0  0  0  0  0  0  0  0  0  0  # atno 11005 bound_to 11000
  146.0707  139.3696  143.0525 LP  0  0  0  0  0  0  0  0  0  0  0  0  # atno 17320 bound_to 7965
  145.7972  140.9787  143.1018 LP  0  0  0  0  0  0  0  0  0  0  0  0  # atno 17321 bound_to 7965
  139.7719  143.8481  152.3122 LP  0  0  0  0  0  0  0  0  0  0  0  0  # atno 17342 bound_to 10162
  139.8403  144.7213  150.9339 LP  0  0  0  0  0  0  0  0  0  0  0  0  # atno 17343 bound_to 10162
  156.6851  130.4578  149.5616 LP  0  0  0  0  0  0  0  0  0  0  0  0  # atno 17370 bound_to 10713
  156.1902  130.6555  151.1052 LP  0  0  0  0  0  0  0  0  0  0  0  0  # atno 17371 bound_to 10713
  141.1166  133.9531  157.2811 LP  0  0  0  0  0  0  0  0  0  0  0  0  # atno 17394 bound_to 11000
  139.9450  135.0185  156.8825 LP  0  0  0  0  0  0  0  0  0  0  0  0  # atno 17395 bound_to 11000

$$$$
