AV-unprocessed.smi:1041|AV-procd|sdf|4532|dock5
  -GOLD-   22720 2553D 1   1.00000     0.00000
 Structure written by MMmdl.
 52 53  0  0  0  0  0  0  0  0  1 V2000
  152.0920  143.1659  160.4143 C   0  0  0  0  0  0  0  0  0  0  0  0
  152.0188  141.8248  159.9639 O   0  0  0  0  0  0  0  0  0  0  0  0
  153.2985  141.2561  159.7391 C   0  0  0  0  0  0  0  0  0  0  0  0
  153.1350  139.8419  159.1582 C   0  0  0  0  0  0  0  0  0  0  0  0
  152.7160  139.7816  157.7572 N   0  0  0  0  0  0  0  0  0  0  0  0
  151.4773  140.5330  157.5580 C   0  0  0  0  0  0  0  0  0  0  0  0
  151.0368  140.5678  156.0856 C   0  0  0  0  0  0  0  0  0  0  0  0
  150.8506  139.1423  155.5351 C   0  0  0  0  0  0  0  0  0  0  0  0
  150.4484  139.1677  154.0469 C   0  0  0  0  0  0  0  0  0  0  0  0
  149.0519  139.5508  153.8677 N   0  0  0  0  0  0  0  0  0  0  0  0
  148.5548  140.7911  153.9938 C   0  0  0  0  0  0  0  0  0  0  0  0
  149.2366  141.7720  154.2886 O   0  0  0  0  0  0  0  0  0  0  0  0
  147.0575  140.9530  153.7256 C   0  0  0  0  0  0  0  0  0  0  0  0
  146.2334  141.5192  154.8811 C   0  0  0  0  0  0  0  0  0  0  0  0
  145.5611  142.7047  154.8018 C   0  0  0  0  0  0  0  0  0  0  0  0
  145.5717  143.5751  153.5571 C   0  0  0  0  0  0  0  0  0  0  0  0
  144.8088  143.1963  155.8778 N   0  0  0  0  0  0  0  0  0  0  0  0
  144.7563  142.5034  156.9675 C   0  0  0  0  0  0  0  0  0  0  0  0
  143.9814  142.9228  158.1988 C   0  0  0  0  0  0  0  0  0  0  0  0
  145.4211  141.2874  157.1145 N   0  0  0  0  0  0  0  0  0  0  0  0
  146.1725  140.7400  156.1332 C   0  0  0  0  0  0  0  0  0  0  0  0
  146.7549  139.6725  156.3187 O   0  0  0  0  0  0  0  0  0  0  0  0
  152.1365  138.3327  155.8035 C   0  0  0  0  0  0  0  0  0  0  0  0
  152.5373  138.4055  157.2870 C   0  0  0  0  0  0  0  0  0  0  0  0
  145.3469  140.7915  157.9908 H   0  0  0  0  0  0  0  0  0  0  0  0
  151.0861  143.5542  160.5741 H   0  0  0  0  0  0  0  0  0  0  0  0
  152.5856  143.8024  159.6788 H   0  0  0  0  0  0  0  0  0  0  0  0
  152.6338  143.2363  161.3583 H   0  0  0  0  0  0  0  0  0  0  0  0
  153.8877  141.8896  159.0755 H   0  0  0  0  0  0  0  0  0  0  0  0
  153.8431  141.1961  160.6825 H   0  0  0  0  0  0  0  0  0  0  0  0
  154.0667  139.2892  159.2872 H   0  0  0  0  0  0  0  0  0  0  0  0
  152.3950  139.3246  159.7702 H   0  0  0  0  0  0  0  0  0  0  0  0
  150.6806  140.1024  158.1668 H   0  0  0  0  0  0  0  0  0  0  0  0
  151.6103  141.5582  157.9061 H   0  0  0  0  0  0  0  0  0  0  0  0
  150.1071  141.1303  155.9933 H   0  0  0  0  0  0  0  0  0  0  0  0
  151.7829  141.1012  155.4949 H   0  0  0  0  0  0  0  0  0  0  0  0
  150.0376  138.6754  156.0941 H   0  0  0  0  0  0  0  0  0  0  0  0
  151.0551  139.9022  153.5167 H   0  0  0  0  0  0  0  0  0  0  0  0
  150.6608  138.2053  153.5781 H   0  0  0  0  0  0  0  0  0  0  0  0
  148.4107  138.8130  153.6138 H   0  0  0  0  0  0  0  0  0  0  0  0
  146.9310  141.5976  152.8554 H   0  0  0  0  0  0  0  0  0  0  0  0
  146.6600  139.9880  153.4090 H   0  0  0  0  0  0  0  0  0  0  0  0
  145.1260  143.0459  152.7148 H   0  0  0  0  0  0  0  0  0  0  0  0
  146.5916  143.8548  153.2927 H   0  0  0  0  0  0  0  0  0  0  0  0
  145.0044  144.4938  153.7113 H   0  0  0  0  0  0  0  0  0  0  0  0
  144.3341  143.8923  158.5517 H   0  0  0  0  0  0  0  0  0  0  0  0
  144.0944  142.2030  159.0109 H   0  0  0  0  0  0  0  0  0  0  0  0
  142.9203  143.0080  157.9635 H   0  0  0  0  0  0  0  0  0  0  0  0
  151.9979  137.2892  155.5209 H   0  0  0  0  0  0  0  0  0  0  0  0
  152.9511  138.7156  155.1867 H   0  0  0  0  0  0  0  0  0  0  0  0
  153.4608  137.8420  157.4135 H   0  0  0  0  0  0  0  0  0  0  0  0
  151.7824  137.9020  157.8930 H   0  0  0  0  0  0  0  0  0  0  0  0
  1  2  1  0  0  0  0
  1 26  1  0  0  0  0
  1 27  1  0  0  0  0
  1 28  1  0  0  0  0
  2  3  1  0  0  0  0
  3  4  1  0  0  0  0
  3 29  1  0  0  0  0
  3 30  1  0  0  0  0
  4  5  1  0  0  0  0
  4 31  1  0  0  0  0
  4 32  1  0  0  0  0
  5 24  1  0  0  0  0
  5  6  1  0  0  0  0
  6  7  1  0  0  0  0
  6 33  1  0  0  0  0
  6 34  1  0  0  0  0
  7  8  1  0  0  0  0
  7 35  1  0  0  0  0
  7 36  1  0  0  0  0
  8  9  1  0  0  0  0
  8 23  1  0  0  0  0
  8 37  1  0  0  0  0
  9 10  1  0  0  0  0
  9 38  1  0  0  0  0
  9 39  1  0  0  0  0
 10 11  1  0  0  0  0
 10 40  1  0  0  0  0
 11 12  2  0  0  0  0
 11 13  1  0  0  0  0
 13 14  1  0  0  0  0
 13 41  1  0  0  0  0
 13 42  1  0  0  0  0
 14 21  1  0  0  0  0
 14 15  2  0  0  0  0
 15 16  1  0  0  0  0
 15 17  1  0  0  0  0
 16 43  1  0  0  0  0
 16 44  1  0  0  0  0
 16 45  1  0  0  0  0
 17 18  2  0  0  0  0
 18 19  1  0  0  0  0
 18 20  1  0  0  0  0
 19 46  1  0  0  0  0
 19 47  1  0  0  0  0
 19 48  1  0  0  0  0
 20 25  1  0  0  0  0
 20 21  1  0  0  0  0
 21 22  2  0  0  0  0
 23 24  1  0  0  0  0
 23 49  1  0  0  0  0
 23 50  1  0  0  0  0
 24 51  1  0  0  0  0
 24 52  1  0  0  0  0
M  END
> <s_m_source_file>
AV-unprocessed.smi

> <i_m_source_file_index>
1041

> <i_lp_mmshare_version>
43012

> <i_f3d_flags>
0

> <s_epik_input>
W0NIM11PW0NIMl1bQ0gyXU4xW0NIMl1bQ0gyXVtDSF0oW0NIMl1bQ0gyXTEpW0NIMl1bTkhdQyg9TylbQ0gyXWMyYyhbQ0gzXSluYyhbQ0gzXSlbbkhdYzI9Tw==

> <s_epik_cmdline>
J2VwaWtfcHl0aG9uJywgJy1waCcsICc3LjAnLCAnLXRuJywgJzgnLCAnLW1hJywgJzIwMCcsICctbWV0YWxfYmluZGluZycsICctaW1hZScsICc8aW5maWxlLm1hZT4nLCAnLW9tYWUnLCAnPG91dGZpbGUubWFlPic=

> <r_lp_tautomer_probability>
0.839158

> <r_epik_Ionization_Penalty>
2.47116

> <r_epik_Ionization_Penalty_Charging>
0.00036358

> <r_epik_Ionization_Penalty_Neutral>
2.4708

> <r_epik_State_Penalty>
2.72392

> <r_epik_Charging_Adjusted_Penalty>
2.72428

> <i_epik_Tot_Q>
0

> <i_epik_Tot_abs_Q>
0

> <r_epik_Metal_State_Penalty>
2.89755

> <b_epik_Metal_Only>
0

> <s_lp_Force_Field>
OPLS_2005

> <r_lp_Energy>
27.3294

> <b_lp_Chiralities_Consistent>
1

> <s_lp_Variant>
AV-unprocessed.smi:1041-5

> <Gold.Version>
5.8.1

> <Gold.Id.Protein>
6NUR|6NUR_protein|mol2

> <Gold.PLP.Fitness>
42.8739

> <Gold.PLP.PLP>
-38.7345

> <Gold.PLP.part.hbond>
-4.0000

> <Gold.PLP.part.metal>
0.0000

> <Gold.PLP.part.buried>
-3.7414

> <Gold.PLP.part.nonpolar>
-31.6642

> <Gold.PLP.part.repulsive>
0.4592

> <Gold.PLP.ligand.clash>
0.0000

> <Gold.PLP.ligand.torsion>
0.2958

> <Gold.PLP.Chemscore.Hbond>
1.5280

> <Gold.PLP.Chemscore.CHOScore>
0.0000

> <Gold.PLP.Chemscore.Metal>
0.0000

> <Gold.Chemscore.Hbonds>
donor molecule, donor type, donor heavy atom, donor atom, acceptor molecule, acceptor atom, score
      P1  H  7997  8008       L1     5  0.75
      P1  H  8011  8017       L1    12  0.37

> <Gold.PLP.Chemscore.Internal.Correction>
0.1470

> <Gold.Rescore>
     Score         DG    S(hbond)    S(metal)    S(lipo)     H(rot)  DE(clash)    DE(int)     intcor
      9.80     -12.85       0.80        0.00      91.75       2.36       0.11       2.95       ----

> <Gold.Chemscore.Fitness>
9.7967

> <Gold.Chemscore.DG>
-12.8517

> <Gold.Chemscore.ZeroCoef>
-5.4800

> <Gold.Chemscore.Hbond>
0.8018

> <Gold.Chemscore.Metal>
0.0000

> <Gold.Chemscore.Lipo>
91.7510

> <Gold.Chemscore.Internal_Hbond>
0.0000

> <Gold.Chemscore.DEClash>
0.1069

> <Gold.Chemscore.DEInternal>
2.9481

> <Gold.Chemscore.Rot>
2.3598

> <Gold.Chemscore.Internal.Correction>
   9.000000E+99

> <Gold.Chemscore.Hbonds>
donor molecule, donor type, donor heavy atom, donor atom, acceptor molecule, acceptor atom, score
      P1  H  7997  8008       L1     5  0.04
      P1  H  8011  8017       L1    12  0.09

> <Gold.Chemscore.Hbond.Weighted>
-2.6779

> <Gold.Chemscore.Metal.Weighted>
-0.0000

> <Gold.Chemscore.Lipo.Weighted>
-10.7349

> <Gold.Chemscore.Internal_Hbond.Weighted>
0.0000

> <Gold.Chemscore.DEClash.Weighted>
0.1069

> <Gold.Chemscore.DEInternal.Weighted>
2.9481

> <Gold.Chemscore.Rot.Weighted>
6.0410

> <Gold.Chemscore.Internal.Correction.Weighted>
   9.000000E+99

> <Gold.Protein.RotatedTorsions>
[ 6907 6896 6895 6894 ] final   -9.11 input  -60.11 | X-H torsion
[ 7974 7965 7964 7962 ] final   30.29 input  175.53 | X-H torsion
[ 8008 7997 7996 7995 ] final  -64.94 input   59.86 | X-H torsion
[ 10167 10162 10161 10158 ] final  -17.90 input  -65.29 | X-H torsion
[ 10718 10713 10712 10709 ] final  157.36 input   66.30 | X-H torsion
[ 10763 10752 10751 10750 ] final  170.42 input  -60.55 | X-H torsion
[ 11005 11000 10999 10996 ] final   57.08 input  -57.11 | X-H torsion

> <Gold.Protein.ActiveResidues>
 VAL166  LYS551  ARG553  GLY616  TRP617  ASP618  TYR619  PRO620  LYS621  CYS622 
 ASP623  PHE694  ASN695  SER759  ASP760  ASP761  ALA762  ILE779  LEU786  VAL792 
 PHE793  MET794  SER795  GLU796  ALA797  LYS798  CYS799  TRP800  GLU811  SER814 

> <Gold.Protein.RotatedAtoms>
  151.4229  135.1000  159.9619 H   0  0  0  0  0  0  0  0  0  0  0  0  # atno 6907 bound_to 6896
  152.4982  133.8690  159.7299 H   0  0  0  0  0  0  0  0  0  0  0  0  # atno 6908 bound_to 6896
  150.9210  133.6823  159.2860 H   0  0  0  0  0  0  0  0  0  0  0  0  # atno 6909 bound_to 6896
  146.1620  139.6808  142.9027 H   0  0  0  0  0  0  0  0  0  0  0  0  # atno 7974 bound_to 7965
  154.4641  140.0943  156.6974 H   0  0  0  0  0  0  0  0  0  0  0  0  # atno 8008 bound_to 7997
  155.4908  140.3470  155.4336 H   0  0  0  0  0  0  0  0  0  0  0  0  # atno 8009 bound_to 7997
  156.0925  140.1401  156.9562 H   0  0  0  0  0  0  0  0  0  0  0  0  # atno 8010 bound_to 7997
  140.7253  143.4969  150.9919 H   0  0  0  0  0  0  0  0  0  0  0  0  # atno 10167 bound_to 10162
  157.1926  131.0658  151.2071 H   0  0  0  0  0  0  0  0  0  0  0  0  # atno 10718 bound_to 10713
  154.3973  135.2754  155.2118 H   0  0  0  0  0  0  0  0  0  0  0  0  # atno 10763 bound_to 10752
  154.4159  135.6011  153.5984 H   0  0  0  0  0  0  0  0  0  0  0  0  # atno 10764 bound_to 10752
  152.9831  135.5960  154.4236 H   0  0  0  0  0  0  0  0  0  0  0  0  # atno 10765 bound_to 10752
  140.0480  134.5778  155.9299 H   0  0  0  0  0  0  0  0  0  0  0  0  # atno 11005 bound_to 11000
  145.4563  141.0431  143.2776 LP  0  0  0  0  0  0  0  0  0  0  0  0  # atno 17320 bound_to 7965
  144.8040  139.6086  143.7059 LP  0  0  0  0  0  0  0  0  0  0  0  0  # atno 17321 bound_to 7965
  139.8676  143.7233  152.3169 LP  0  0  0  0  0  0  0  0  0  0  0  0  # atno 17342 bound_to 10162
  139.7471  144.7544  151.0563 LP  0  0  0  0  0  0  0  0  0  0  0  0  # atno 17343 bound_to 10162
  157.3846  130.7249  149.6654 LP  0  0  0  0  0  0  0  0  0  0  0  0  # atno 17370 bound_to 10713
  155.9710  130.4163  150.4224 LP  0  0  0  0  0  0  0  0  0  0  0  0  # atno 17371 bound_to 10713
  141.1916  133.6572  156.5465 LP  0  0  0  0  0  0  0  0  0  0  0  0  # atno 17394 bound_to 11000
  140.3963  134.7396  157.4753 LP  0  0  0  0  0  0  0  0  0  0  0  0  # atno 17395 bound_to 11000

$$$$
