AV-unprocessed.smi:2185|AV-procd|sdf|8875|dock2
  -GOLD-   2272012 73D 1   1.00000     0.00000
 Structure written by MMmdl.
 38 39  0  0  0  0  0  0  0  0  1 V2000
  151.8666  141.0427  159.1502 C   0  0  0  0  0  0  0  0  0  0  0  0
  151.4886  139.7194  157.9302 S   0  0  0  0  0  0  0  0  0  0  0  0
  152.6486  139.5754  157.0373 O   0  0  0  0  0  0  0  0  0  0  0  0
  150.9836  138.5489  158.6639 O   0  0  0  0  0  0  0  0  0  0  0  0
  150.1742  140.3695  156.9930 N   0  0  0  0  0  0  0  0  0  0  0  0
  150.4071  140.8195  155.6060 C   0  0  0  0  0  0  0  0  0  0  0  0
  149.9182  139.7810  154.5816 C   0  0  0  0  0  0  0  0  0  0  0  0
  148.4486  139.4065  154.8219 C   0  0  0  0  0  0  0  0  0  0  0  0
  148.0371  138.3807  153.8679 N   0  0  0  0  0  0  0  0  0  0  0  0
  146.7882  137.9155  153.7226 C   0  0  0  0  0  0  0  0  0  0  0  0
  145.8363  138.3069  154.3971 O   0  0  0  0  0  0  0  0  0  0  0  0
  146.7265  136.9937  152.7462 N   0  0  0  0  0  0  0  0  0  0  0  0
  145.5985  136.2679  152.2748 C   0  0  0  0  0  0  0  0  0  0  0  0
  144.2623  136.5093  152.6777 C   0  0  0  0  0  0  0  0  0  0  0  0
  143.2360  135.7047  152.1458 C   0  0  0  0  0  0  0  0  0  0  0  0
  143.5817  134.6857  151.2371 C   0  0  0  0  0  0  0  0  0  0  0  0
  144.8512  134.4367  150.8530 N   0  0  0  0  0  0  0  0  0  0  0  0
  145.8295  135.2119  151.3673 C   0  0  0  0  0  0  0  0  0  0  0  0
  148.2814  138.9103  156.2679 C   0  0  0  0  0  0  0  0  0  0  0  0
  148.7868  139.9529  157.2814 C   0  0  0  0  0  0  0  0  0  0  0  0
  152.6870  140.7137  159.7876 H   0  0  0  0  0  0  0  0  0  0  0  0
  150.9934  141.2368  159.7704 H   0  0  0  0  0  0  0  0  0  0  0  0
  152.1661  141.9512  158.6305 H   0  0  0  0  0  0  0  0  0  0  0  0
  149.8732  141.7587  155.4555 H   0  0  0  0  0  0  0  0  0  0  0  0
  151.4626  141.0392  155.4490 H   0  0  0  0  0  0  0  0  0  0  0  0
  150.0390  140.1813  153.5743 H   0  0  0  0  0  0  0  0  0  0  0  0
  150.5425  138.8892  154.6310 H   0  0  0  0  0  0  0  0  0  0  0  0
  147.8378  140.2997  154.6759 H   0  0  0  0  0  0  0  0  0  0  0  0
  148.7569  138.0031  153.2691 H   0  0  0  0  0  0  0  0  0  0  0  0
  147.5843  136.8291  152.2403 H   0  0  0  0  0  0  0  0  0  0  0  0
  144.0033  137.2782  153.3884 H   0  0  0  0  0  0  0  0  0  0  0  0
  142.2067  135.8627  152.4320 H   0  0  0  0  0  0  0  0  0  0  0  0
  142.8191  134.0500  150.8122 H   0  0  0  0  0  0  0  0  0  0  0  0
  146.8329  134.9817  151.0394 H   0  0  0  0  0  0  0  0  0  0  0  0
  147.2323  138.6919  156.4703 H   0  0  0  0  0  0  0  0  0  0  0  0
  148.8175  137.9712  156.4015 H   0  0  0  0  0  0  0  0  0  0  0  0
  148.7106  139.5632  158.2959 H   0  0  0  0  0  0  0  0  0  0  0  0
  148.1481  140.8359  157.2427 H   0  0  0  0  0  0  0  0  0  0  0  0
  1  2  1  0  0  0  0
  1 21  1  0  0  0  0
  1 22  1  0  0  0  0
  1 23  1  0  0  0  0
  2  3  2  0  0  0  0
  2  4  2  0  0  0  0
  2  5  1  0  0  0  0
  5 20  1  0  0  0  0
  5  6  1  0  0  0  0
  6  7  1  0  0  0  0
  6 24  1  0  0  0  0
  6 25  1  0  0  0  0
  7  8  1  0  0  0  0
  7 26  1  0  0  0  0
  7 27  1  0  0  0  0
  8  9  1  0  0  0  0
  8 19  1  0  0  0  0
  8 28  1  0  0  0  0
  9 10  1  0  0  0  0
  9 29  1  0  0  0  0
 10 11  2  0  0  0  0
 10 12  1  0  0  0  0
 12 13  1  0  0  0  0
 12 30  1  0  0  0  0
 13 18  1  0  0  0  0
 13 14  2  0  0  0  0
 14 15  1  0  0  0  0
 14 31  1  0  0  0  0
 15 16  2  0  0  0  0
 15 32  1  0  0  0  0
 16 17  1  0  0  0  0
 16 33  1  0  0  0  0
 17 18  2  0  0  0  0
 18 34  1  0  0  0  0
 19 20  1  0  0  0  0
 19 35  1  0  0  0  0
 19 36  1  0  0  0  0
 20 37  1  0  0  0  0
 20 38  1  0  0  0  0
M  END
> <s_m_source_file>
AV-unprocessed.smi

> <i_m_source_file_index>
2185

> <i_lp_mmshare_version>
43012

> <i_f3d_flags>
0

> <s_epik_input>
W0NIM11TKD1PKSg9TylOMVtDSDJdW0NIMl1bQ0hdKFtDSDJdW0NIMl0xKVtOSF1DKD1PKVtOSF1jMltjSF1bY0hdW2NIXW5bY0hdMg==

> <s_epik_cmdline>
J2VwaWtfcHl0aG9uJywgJy1waCcsICc3LjAnLCAnLXRuJywgJzgnLCAnLW1hJywgJzIwMCcsICctbWV0YWxfYmluZGluZycsICctaW1hZScsICc8aW5maWxlLm1hZT4nLCAnLW9tYWUnLCAnPG91dGZpbGUubWFlPic=

> <r_epik_Ionization_Penalty>
0.00480481

> <r_epik_Ionization_Penalty_Charging>
0

> <r_epik_Ionization_Penalty_Neutral>
0.00480481

> <r_epik_State_Penalty>
0.00345682

> <r_epik_Charging_Adjusted_Penalty>
0.00345682

> <i_epik_Tot_Q>
0

> <i_epik_Tot_abs_Q>
0

> <r_epik_Metal_State_Penalty>
-0

> <b_epik_Metal_Only>
0

> <s_lp_Force_Field>
OPLS_2005

> <r_lp_Energy>
2.72974

> <b_lp_Chiralities_Consistent>
1

> <s_lp_Variant>
AV-unprocessed.smi:2185-1

> <Gold.Version>
5.8.1

> <Gold.Id.Protein>
6NUR|6NUR_protein|mol2

> <Gold.PLP.Fitness>
36.2781

> <Gold.PLP.PLP>
-23.7686

> <Gold.PLP.part.hbond>
-2.7773

> <Gold.PLP.part.metal>
0.0000

> <Gold.PLP.part.buried>
-3.7058

> <Gold.PLP.part.nonpolar>
-17.9436

> <Gold.PLP.part.repulsive>
0.2895

> <Gold.PLP.ligand.clash>
0.0000

> <Gold.PLP.ligand.torsion>
1.0746

> <Gold.PLP.Chemscore.Hbond>
2.3261

> <Gold.PLP.Chemscore.CHOScore>
1.8759

> <Gold.PLP.Chemscore.Metal>
0.0000

> <Gold.Chemscore.Hbonds>
donor molecule, donor type, donor heavy atom, donor atom, acceptor molecule, acceptor atom, score
      L1  H     9    29       P1  7948  0.34
      L1  H    12    30       P1  7948  0.99
      P1  H  7997  8009       L1     3  1.00
      L1  C    16    33       P1 10186  1.00
      L1  C    18    34       P1  7948  0.89

> <Gold.PLP.Chemscore.Internal.Correction>
2.0525

> <Gold.Rescore>
     Score         DG    S(hbond)    S(metal)    S(lipo)     H(rot)  DE(clash)    DE(int)     intcor
     15.82     -18.20       2.86        0.00      48.91       1.00       0.10       2.27       ----

> <Gold.Chemscore.Fitness>
15.8234

> <Gold.Chemscore.DG>
-18.2000

> <Gold.Chemscore.ZeroCoef>
-5.4800

> <Gold.Chemscore.Hbond>
2.8614

> <Gold.Chemscore.Metal>
0.0000

> <Gold.Chemscore.Lipo>
48.9148

> <Gold.Chemscore.Internal_Hbond>
0.0000

> <Gold.Chemscore.DEClash>
0.1045

> <Gold.Chemscore.DEInternal>
2.2721

> <Gold.Chemscore.Rot>
1.0000

> <Gold.Chemscore.Internal.Correction>
   9.000000E+99

> <Gold.Chemscore.Hbonds>
donor molecule, donor type, donor heavy atom, donor atom, acceptor molecule, acceptor atom, score
      L1  H     9    29       P1  7948  0.34
      L1  H    12    30       P1  7948  0.92
      P1  H  7997  8009       L1     3  0.98

> <Gold.Chemscore.Hbond.Weighted>
-9.5569

> <Gold.Chemscore.Metal.Weighted>
-0.0000

> <Gold.Chemscore.Lipo.Weighted>
-5.7230

> <Gold.Chemscore.Internal_Hbond.Weighted>
0.0000

> <Gold.Chemscore.DEClash.Weighted>
0.1045

> <Gold.Chemscore.DEInternal.Weighted>
2.2721

> <Gold.Chemscore.Rot.Weighted>
2.5600

> <Gold.Chemscore.Internal.Correction.Weighted>
   9.000000E+99

> <Gold.Protein.RotatedTorsions>
[ 6907 6896 6895 6894 ] final  -30.89 input  -60.11 | X-H torsion
[ 7974 7965 7964 7962 ] final  -92.88 input  175.53 | X-H torsion
[ 8008 7997 7996 7995 ] final -163.03 input   59.86 | X-H torsion
[ 10167 10162 10161 10158 ] final   39.32 input  -65.29 | X-H torsion
[ 10718 10713 10712 10709 ] final -127.63 input   66.30 | X-H torsion
[ 10763 10752 10751 10750 ] final -176.21 input  -60.55 | X-H torsion
[ 11005 11000 10999 10996 ] final   66.33 input  -57.11 | X-H torsion

> <Gold.Protein.ActiveResidues>
 VAL166  LYS551  ARG553  GLY616  TRP617  ASP618  TYR619  PRO620  LYS621  CYS622 
 ASP623  PHE694  ASN695  SER759  ASP760  ASP761  ALA762  ILE779  LEU786  VAL792 
 PHE793  MET794  SER795  GLU796  ALA797  LYS798  CYS799  TRP800  GLU811  SER814 

> <Gold.Protein.RotatedAtoms>
  151.0994  134.9963  159.8440 H   0  0  0  0  0  0  0  0  0  0  0  0  # atno 6907 bound_to 6896
  152.5435  134.1969  159.8706 H   0  0  0  0  0  0  0  0  0  0  0  0  # atno 6908 bound_to 6896
  151.2011  133.4566  159.2629 H   0  0  0  0  0  0  0  0  0  0  0  0  # atno 6909 bound_to 6896
  145.3939  140.9531  143.2325 H   0  0  0  0  0  0  0  0  0  0  0  0  # atno 7974 bound_to 7965
  155.8154  140.0912  157.1880 H   0  0  0  0  0  0  0  0  0  0  0  0  # atno 8008 bound_to 7997
  154.3979  140.1447  156.3496 H   0  0  0  0  0  0  0  0  0  0  0  0  # atno 8009 bound_to 7997
  155.8321  140.3442  155.5581 H   0  0  0  0  0  0  0  0  0  0  0  0  # atno 8010 bound_to 7997
  140.3851  144.1927  150.6130 H   0  0  0  0  0  0  0  0  0  0  0  0  # atno 10167 bound_to 10162
  156.1875  130.6773  151.0382 H   0  0  0  0  0  0  0  0  0  0  0  0  # atno 10718 bound_to 10713
  154.5751  135.2831  155.0789 H   0  0  0  0  0  0  0  0  0  0  0  0  # atno 10763 bound_to 10752
  154.2146  135.6402  153.5129 H   0  0  0  0  0  0  0  0  0  0  0  0  # atno 10764 bound_to 10752
  153.0070  135.5500  154.6387 H   0  0  0  0  0  0  0  0  0  0  0  0  # atno 10765 bound_to 10752
  139.9838  134.6700  156.0213 H   0  0  0  0  0  0  0  0  0  0  0  0  # atno 11005 bound_to 11000
  144.8421  139.5455  143.6895 LP  0  0  0  0  0  0  0  0  0  0  0  0  # atno 17320 bound_to 7965
  146.2784  139.6813  142.9246 LP  0  0  0  0  0  0  0  0  0  0  0  0  # atno 17321 bound_to 7965
  140.4897  143.2351  151.8836 LP  0  0  0  0  0  0  0  0  0  0  0  0  # atno 17342 bound_to 10162
  139.4792  144.5179  151.8842 LP  0  0  0  0  0  0  0  0  0  0  0  0  # atno 17343 bound_to 10162
  157.6908  131.0810  150.7113 LP  0  0  0  0  0  0  0  0  0  0  0  0  # atno 17370 bound_to 10713
  156.7170  130.4669  149.5532 LP  0  0  0  0  0  0  0  0  0  0  0  0  # atno 17371 bound_to 10713
  141.1507  133.6549  156.4003 LP  0  0  0  0  0  0  0  0  0  0  0  0  # atno 17394 bound_to 11000
  140.5042  134.6456  157.5260 LP  0  0  0  0  0  0  0  0  0  0  0  0  # atno 17395 bound_to 11000

$$$$
