AV-unprocessed.smi:847|AV-procd|sdf|3938|dock6
  -GOLD-   22720 1403D 1   1.00000     0.00000
 Structure written by MMmdl.
 46 47  0  0  0  0  0  0  0  0  1 V2000
  151.8054  143.4102  157.9820 C   0  0  0  0  0  0  0  0  0  0  0  0
  151.1080  142.2524  158.4062 O   0  0  0  0  0  0  0  0  0  0  0  0
  151.4775  141.0963  157.6731 C   0  0  0  0  0  0  0  0  0  0  0  0
  151.0968  141.2899  156.2023 C   0  0  0  0  0  0  0  0  0  0  0  0
  151.6373  140.2118  155.4443 O   0  0  0  0  0  0  0  0  0  0  0  0
  150.9737  139.0023  155.4528 C   0  0  0  0  0  0  0  0  0  0  0  0
  151.4808  137.9513  154.6622 C   0  0  0  0  0  0  0  0  0  0  0  0
  150.8125  136.7125  154.6709 C   0  0  0  0  0  0  0  0  0  0  0  0
  149.6581  136.5656  155.4677 C   0  0  0  0  0  0  0  0  0  0  0  0
  148.9115  135.2448  155.5291 C   0  0  0  0  0  0  0  0  0  0  0  0
  148.3031  134.8966  154.2504 N   0  0  0  0  0  0  0  0  0  0  0  0
  147.3873  133.9346  154.0620 C   0  0  0  0  0  0  0  0  0  0  0  0
  147.0023  133.1797  154.9560 O   0  0  0  0  0  0  0  0  0  0  0  0
  146.8155  133.8076  152.6373 C   0  0  1  0  0  0  0  0  0  0  0  0
  147.1318  132.4200  152.0567 C   0  0  0  0  0  0  0  0  0  0  0  0
  145.9867  132.1306  151.1044 C   0  0  0  0  0  0  0  0  0  0  0  0
  144.7924  132.8821  151.6910 C   0  0  0  0  0  0  0  0  0  0  0  0
  145.3473  133.9353  152.5454 N   0  0  0  0  0  0  0  0  0  0  0  0
  144.5943  134.9123  153.1090 C   0  0  0  0  0  0  0  0  0  0  0  0
  143.0749  134.8573  152.9333 C   0  0  0  0  0  0  0  0  0  0  0  0
  145.0748  135.8505  153.7453 O   0  0  0  0  0  0  0  0  0  0  0  0
  149.2267  137.6769  156.2215 C   0  0  0  0  0  0  0  0  0  0  0  0
  149.8619  138.8681  156.2189 N   0  0  0  0  0  0  0  0  0  0  0  0
  147.2464  134.5775  151.9946 H   0  0  0  0  0  0  0  0  0  0  0  0
  151.4871  144.2676  158.5749 H   0  0  0  0  0  0  0  0  0  0  0  0
  151.6019  143.6318  156.9335 H   0  0  0  0  0  0  0  0  0  0  0  0
  152.8821  143.2919  158.1123 H   0  0  0  0  0  0  0  0  0  0  0  0
  152.5557  140.9517  157.7533 H   0  0  0  0  0  0  0  0  0  0  0  0
  150.9955  140.2048  158.0771 H   0  0  0  0  0  0  0  0  0  0  0  0
  150.0119  141.3456  156.0981 H   0  0  0  0  0  0  0  0  0  0  0  0
  151.5176  142.2313  155.8452 H   0  0  0  0  0  0  0  0  0  0  0  0
  152.3689  138.0914  154.0638 H   0  0  0  0  0  0  0  0  0  0  0  0
  151.1848  135.8905  154.0780 H   0  0  0  0  0  0  0  0  0  0  0  0
  149.6017  134.4476  155.8064 H   0  0  0  0  0  0  0  0  0  0  0  0
  148.1624  135.2873  156.3217 H   0  0  0  0  0  0  0  0  0  0  0  0
  148.5629  135.4629  153.4556 H   0  0  0  0  0  0  0  0  0  0  0  0
  148.1018  132.3880  151.5598 H   0  0  0  0  0  0  0  0  0  0  0  0
  147.1379  131.6561  152.8366 H   0  0  0  0  0  0  0  0  0  0  0  0
  146.2248  132.5427  150.1229 H   0  0  0  0  0  0  0  0  0  0  0  0
  145.7959  131.0646  150.9782 H   0  0  0  0  0  0  0  0  0  0  0  0
  144.1591  133.2814  150.8977 H   0  0  0  0  0  0  0  0  0  0  0  0
  144.1900  132.2082  152.3020 H   0  0  0  0  0  0  0  0  0  0  0  0
  142.6770  133.9035  153.2801 H   0  0  0  0  0  0  0  0  0  0  0  0
  142.8013  134.9938  151.8871 H   0  0  0  0  0  0  0  0  0  0  0  0
  142.5933  135.6478  153.5100 H   0  0  0  0  0  0  0  0  0  0  0  0
  148.3510  137.6094  156.8502 H   0  0  0  0  0  0  0  0  0  0  0  0
  1  2  1  0  0  0  0
  1 25  1  0  0  0  0
  1 26  1  0  0  0  0
  1 27  1  0  0  0  0
  2  3  1  0  0  0  0
  3  4  1  0  0  0  0
  3 28  1  0  0  0  0
  3 29  1  0  0  0  0
  4  5  1  0  0  0  0
  4 30  1  0  0  0  0
  4 31  1  0  0  0  0
  5  6  1  0  0  0  0
  6 23  1  0  0  0  0
  6  7  2  0  0  0  0
  7  8  1  0  0  0  0
  7 32  1  0  0  0  0
  8  9  2  0  0  0  0
  8 33  1  0  0  0  0
  9 10  1  0  0  0  0
  9 22  1  0  0  0  0
 10 11  1  0  0  0  0
 10 34  1  0  0  0  0
 10 35  1  0  0  0  0
 11 12  1  0  0  0  0
 11 36  1  0  0  0  0
 12 13  2  0  0  0  0
 12 14  1  0  0  0  0
 14 24  1  0  0  0  0
 14 18  1  0  0  0  0
 14 15  1  0  0  0  0
 15 16  1  0  0  0  0
 15 37  1  0  0  0  0
 15 38  1  0  0  0  0
 16 17  1  0  0  0  0
 16 39  1  0  0  0  0
 16 40  1  0  0  0  0
 17 18  1  0  0  0  0
 17 41  1  0  0  0  0
 17 42  1  0  0  0  0
 18 19  1  0  0  0  0
 19 20  1  0  0  0  0
 19 21  2  0  0  0  0
 20 43  1  0  0  0  0
 20 44  1  0  0  0  0
 20 45  1  0  0  0  0
 22 23  2  0  0  0  0
 22 46  1  0  0  0  0
M  END
> <s_m_source_file>
AV-unprocessed.smi

> <i_m_source_file_index>
847

> <i_lp_mmshare_version>
43012

> <i_f3d_flags>
0

> <s_epik_input>
W0NIM11PW0NIMl1bQ0gyXU9jMVtjSF1bY0hdYyhbY0hdbjEpW0NIMl1bTkhdQyg9TylbQ0BASF0yW0NIMl1bQ0gyXVtDSDJdTjJDKD1PKVtDSDNd

> <s_epik_cmdline>
J2VwaWtfcHl0aG9uJywgJy1waCcsICc3LjAnLCAnLXRuJywgJzgnLCAnLW1hJywgJzIwMCcsICctbWV0YWxfYmluZGluZycsICctaW1hZScsICc8aW5maWxlLm1hZT4nLCAnLW9tYWUnLCAnPG91dGZpbGUubWFlPic=

> <r_lp_tautomer_probability>
1

> <r_epik_Ionization_Penalty>
6.04138e-05

> <r_epik_Ionization_Penalty_Charging>
0

> <r_epik_Ionization_Penalty_Neutral>
6.04138e-05

> <r_epik_State_Penalty>
-0

> <r_epik_Charging_Adjusted_Penalty>
0

> <i_epik_Tot_Q>
0

> <i_epik_Tot_abs_Q>
0

> <r_epik_Metal_State_Penalty>
-0

> <b_epik_Metal_Only>
0

> <s_lp_Force_Field>
OPLS_2005

> <r_lp_Energy>
14.1261

> <b_lp_Chiralities_Consistent>
1

> <s_lp_Variant>
AV-unprocessed.smi:847-2

> <Gold.Version>
5.8.1

> <Gold.Id.Protein>
6NUR|6NUR_protein|mol2

> <Gold.PLP.Fitness>
37.1498

> <Gold.PLP.PLP>
-31.9367

> <Gold.PLP.part.hbond>
-2.0000

> <Gold.PLP.part.metal>
0.0000

> <Gold.PLP.part.buried>
-4.2508

> <Gold.PLP.part.nonpolar>
-25.1848

> <Gold.PLP.part.repulsive>
0.2098

> <Gold.PLP.ligand.clash>
0.0000

> <Gold.PLP.ligand.torsion>
0.2365

> <Gold.PLP.Chemscore.Hbond>
1.8640

> <Gold.PLP.Chemscore.CHOScore>
0.0000

> <Gold.PLP.Chemscore.Metal>
0.0000

> <Gold.Chemscore.Hbonds>
donor molecule, donor type, donor heavy atom, donor atom, acceptor molecule, acceptor atom, score
      L1  H    11    36       P1  7948  1.00
      P1  H  7989  7998       L1     5  0.86

> <Gold.PLP.Chemscore.Internal.Correction>
0.0941

> <Gold.Rescore>
     Score         DG    S(hbond)    S(metal)    S(lipo)     H(rot)  DE(clash)    DE(int)     intcor
     11.92     -13.95       1.64        0.00      76.11       2.31       0.06       1.97       ----

> <Gold.Chemscore.Fitness>
11.9195

> <Gold.Chemscore.DG>
-13.9490

> <Gold.Chemscore.ZeroCoef>
-5.4800

> <Gold.Chemscore.Hbond>
1.6370

> <Gold.Chemscore.Metal>
0.0000

> <Gold.Chemscore.Lipo>
76.1130

> <Gold.Chemscore.Internal_Hbond>
0.0000

> <Gold.Chemscore.DEClash>
0.0601

> <Gold.Chemscore.DEInternal>
1.9694

> <Gold.Chemscore.Rot>
2.3062

> <Gold.Chemscore.Internal.Correction>
   9.000000E+99

> <Gold.Chemscore.Hbonds>
donor molecule, donor type, donor heavy atom, donor atom, acceptor molecule, acceptor atom, score
      L1  H    11    36       P1  7948  0.97
      P1  H  7989  7998       L1     5  0.24

> <Gold.Chemscore.Hbond.Weighted>
-5.4676

> <Gold.Chemscore.Metal.Weighted>
-0.0000

> <Gold.Chemscore.Lipo.Weighted>
-8.9052

> <Gold.Chemscore.Internal_Hbond.Weighted>
0.0000

> <Gold.Chemscore.DEClash.Weighted>
0.0601

> <Gold.Chemscore.DEInternal.Weighted>
1.9694

> <Gold.Chemscore.Rot.Weighted>
5.9038

> <Gold.Chemscore.Internal.Correction.Weighted>
   9.000000E+99

> <Gold.Protein.RotatedTorsions>
[ 6907 6896 6895 6894 ] final -102.71 input  -60.11 | X-H torsion
[ 7974 7965 7964 7962 ] final  -62.43 input  175.53 | X-H torsion
[ 8008 7997 7996 7995 ] final -134.25 input   59.86 | X-H torsion
[ 10167 10162 10161 10158 ] final  112.03 input  -65.29 | X-H torsion
[ 10718 10713 10712 10709 ] final  -86.28 input   66.30 | X-H torsion
[ 10763 10752 10751 10750 ] final  157.74 input  -60.55 | X-H torsion
[ 11005 11000 10999 10996 ] final  160.48 input  -57.11 | X-H torsion

> <Gold.Protein.ActiveResidues>
 VAL166  LYS551  ARG553  GLY616  TRP617  ASP618  TYR619  PRO620  LYS621  CYS622 
 ASP623  PHE694  ASN695  SER759  ASP760  ASP761  ALA762  ILE779  LEU786  VAL792 
 PHE793  MET794  SER795  GLU796  ALA797  LYS798  CYS799  TRP800  GLU811  SER814 

> <Gold.Protein.RotatedAtoms>
  150.7208  134.0539  159.3807 H   0  0  0  0  0  0  0  0  0  0  0  0  # atno 6907 bound_to 6896
  151.8517  135.0553  160.0469 H   0  0  0  0  0  0  0  0  0  0  0  0  # atno 6908 bound_to 6896
  152.2785  133.5412  159.5519 H   0  0  0  0  0  0  0  0  0  0  0  0  # atno 6909 bound_to 6896
  145.7914  140.8707  143.0279 H   0  0  0  0  0  0  0  0  0  0  0  0  # atno 7974 bound_to 7965
  155.3590  140.0481  157.3046 H   0  0  0  0  0  0  0  0  0  0  0  0  # atno 8008 bound_to 7997
  154.5188  140.2217  155.8979 H   0  0  0  0  0  0  0  0  0  0  0  0  # atno 8009 bound_to 7997
  156.1666  140.3105  155.8906 H   0  0  0  0  0  0  0  0  0  0  0  0  # atno 8010 bound_to 7997
  139.6566  144.7129  151.1944 H   0  0  0  0  0  0  0  0  0  0  0  0  # atno 10167 bound_to 10162
  155.9991  130.4759  150.4690 H   0  0  0  0  0  0  0  0  0  0  0  0  # atno 10718 bound_to 10713
  154.2050  135.2788  155.2978 H   0  0  0  0  0  0  0  0  0  0  0  0  # atno 10763 bound_to 10752
  154.5824  135.5585  153.7201 H   0  0  0  0  0  0  0  0  0  0  0  0  # atno 10764 bound_to 10752
  153.0078  135.6348  154.2189 H   0  0  0  0  0  0  0  0  0  0  0  0  # atno 10765 bound_to 10752
  140.2064  134.8300  157.3073 H   0  0  0  0  0  0  0  0  0  0  0  0  # atno 11005 bound_to 11000
  144.6781  140.0129  143.7484 LP  0  0  0  0  0  0  0  0  0  0  0  0  # atno 17320 bound_to 7965
  145.9973  139.3062  143.0949 LP  0  0  0  0  0  0  0  0  0  0  0  0  # atno 17321 bound_to 7965
  140.7562  143.6061  150.8651 LP  0  0  0  0  0  0  0  0  0  0  0  0  # atno 17342 bound_to 10162
  139.9715  143.6051  152.2972 LP  0  0  0  0  0  0  0  0  0  0  0  0  # atno 17343 bound_to 10162
  157.2707  131.0586  151.2261 LP  0  0  0  0  0  0  0  0  0  0  0  0  # atno 17370 bound_to 10713
  157.3343  130.7001  149.6343 LP  0  0  0  0  0  0  0  0  0  0  0  0  # atno 17371 bound_to 10713
  140.1999  134.4268  155.7669 LP  0  0  0  0  0  0  0  0  0  0  0  0  # atno 17394 bound_to 11000
  141.2227  133.7067  156.8166 LP  0  0  0  0  0  0  0  0  0  0  0  0  # atno 17395 bound_to 11000

$$$$
