AV-unprocessed.smi:1815|AV-procd|sdf|7358|dock6
  -GOLD-   22720 9 23D 1   1.00000     0.00000
 Structure written by MMmdl.
 38 39  0  0  0  0  0  0  0  0  2 V2000
  153.0763  142.7813  162.2492 C   0  0  0  0  0  0  0  0  0  0  0  0
  153.0304  142.8761  160.7208 C   0  0  1  0  0  0  0  0  0  0  0  0
  152.5309  141.5720  160.0713 C   0  0  0  0  0  0  0  0  0  0  0  0
  152.4180  141.6908  158.6222 N   0  0  0  0  0  0  0  0  0  0  0  0
  151.9523  140.4373  158.0307 C   0  0  0  0  0  0  0  0  0  0  0  0
  151.5997  140.5138  156.5366 C   0  0  0  0  0  0  0  0  0  0  0  0
  151.3702  139.1777  156.0044 N   0  0  0  0  0  0  0  0  0  0  0  0
  152.3276  138.2850  155.7189 C   0  0  0  0  0  0  0  0  0  0  0  0
  153.5117  138.5739  155.9070 O   0  0  0  0  0  0  0  0  0  0  0  0
  151.8542  137.1147  155.2331 N   0  5  0  0  0  0  0  0  0  0  0  0
  150.9087  136.4397  155.9070 C   0  0  0  0  0  0  0  0  0  0  0  0
  150.2671  136.9467  156.9660 N   0  0  0  0  0  0  0  0  0  0  0  0
  149.3192  136.0781  157.5097 C   0  0  0  0  0  0  0  0  0  0  0  0
  149.2302  134.8849  156.8436 C   0  0  0  0  0  0  0  0  0  0  0  0
  150.3407  134.8164  155.5050 S   0  0  0  0  0  0  0  0  0  0  0  0
  151.5451  142.8191  158.3076 C   0  0  0  0  0  0  0  0  0  0  0  0
  152.0369  144.1274  158.9565 C   0  0  1  0  0  0  0  0  0  0  0  0
  151.0788  145.2964  158.7039 C   0  0  0  0  0  0  0  0  0  0  0  0
  152.1507  143.9387  160.3644 O   0  0  0  0  0  0  0  0  0  0  0  0
  153.7446  141.9829  162.5722 H   0  0  0  0  0  0  0  0  0  0  0  0
  152.0875  142.5790  162.6619 H   0  0  0  0  0  0  0  0  0  0  0  0
  153.4356  143.7131  162.6863 H   0  0  0  0  0  0  0  0  0  0  0  0
  154.0319  143.1070  160.3534 H   0  0  0  0  0  0  0  0  0  0  0  0
  153.2150  140.7602  160.3211 H   0  0  0  0  0  0  0  0  0  0  0  0
  151.5618  141.3033  160.4954 H   0  0  0  0  0  0  0  0  0  0  0  0
  152.7350  139.6858  158.1446 H   0  0  0  0  0  0  0  0  0  0  0  0
  151.0940  140.0621  158.5907 H   0  0  0  0  0  0  0  0  0  0  0  0
  150.7003  141.1081  156.3746 H   0  0  0  0  0  0  0  0  0  0  0  0
  152.4117  140.9917  155.9862 H   0  0  0  0  0  0  0  0  0  0  0  0
  150.4125  138.9054  155.8394 H   0  0  0  0  0  0  0  0  0  0  0  0
  148.7513  136.3924  158.3727 H   0  0  0  0  0  0  0  0  0  0  0  0
  148.5832  134.0475  157.0559 H   0  0  0  0  0  0  0  0  0  0  0  0
  151.4918  142.9653  157.2294 H   0  0  0  0  0  0  0  0  0  0  0  0
  150.5298  142.6042  158.6450 H   0  0  0  0  0  0  0  0  0  0  0  0
  153.0182  144.3861  158.5552 H   0  0  0  0  0  0  0  0  0  0  0  0
  150.9677  145.4893  157.6367 H   0  0  0  0  0  0  0  0  0  0  0  0
  151.4478  146.2102  159.1702 H   0  0  0  0  0  0  0  0  0  0  0  0
  150.0890  145.0908  159.1123 H   0  0  0  0  0  0  0  0  0  0  0  0
  1  2  1  0  0  0  0
  1 20  1  0  0  0  0
  1 21  1  0  0  0  0
  1 22  1  0  0  0  0
  2 19  1  0  0  0  0
  2  3  1  0  0  0  0
  2 23  1  0  0  0  0
  3  4  1  0  0  0  0
  3 24  1  0  0  0  0
  3 25  1  0  0  0  0
  4  5  1  0  0  0  0
  4 16  1  0  0  0  0
  5  6  1  0  0  0  0
  5 26  1  0  0  0  0
  5 27  1  0  0  0  0
  6  7  1  0  0  0  0
  6 28  1  0  0  0  0
  6 29  1  0  0  0  0
  7  8  1  0  0  0  0
  7 30  1  0  0  0  0
  8  9  2  0  0  0  0
  8 10  1  0  0  0  0
 10 11  1  0  0  0  0
 11 15  1  0  0  0  0
 11 12  2  0  0  0  0
 12 13  1  0  0  0  0
 13 14  2  0  0  0  0
 13 31  1  0  0  0  0
 14 15  1  0  0  0  0
 14 32  1  0  0  0  0
 16 17  1  0  0  0  0
 16 33  1  0  0  0  0
 16 34  1  0  0  0  0
 17 18  1  0  0  0  0
 17 19  1  0  0  0  0
 17 35  1  0  0  0  0
 18 36  1  0  0  0  0
 18 37  1  0  0  0  0
 18 38  1  0  0  0  0
M  CHG  1  10  -1
M  END
> <s_m_source_file>
AV-unprocessed.smi

> <i_m_source_file_index>
1815

> <i_lp_mmshare_version>
43012

> <i_f3d_flags>
0

> <s_epik_input>
W0NIM11bQ0BASF0xW0NIMl1OKFtDSDJdW0NASF0oTzEpW0NIM10pW0NIMl1bQ0gyXVtOSF1DKD1PKVtOSF1jMm5bY0hdW2NIXXMy

> <s_epik_cmdline>
J2VwaWtfcHl0aG9uJywgJy1waCcsICc3LjAnLCAnLXRuJywgJzgnLCAnLW1hJywgJzIwMCcsICctbWV0YWxfYmluZGluZycsICctaW1hZScsICc8aW5maWxlLm1hZT4nLCAnLW9tYWUnLCAnPG91dGZpbGUubWFlPic=

> <r_lp_tautomer_probability>
0.999

> <r_epik_Ionization_Penalty>
7.22374

> <r_epik_Ionization_Penalty_Charging>
5.82415

> <r_epik_Ionization_Penalty_Neutral>
1.39959

> <r_epik_State_Penalty>
6.03347

> <r_epik_Charging_Adjusted_Penalty>
11.8576

> <i_epik_Tot_Q>
-1

> <i_epik_Tot_abs_Q>
1

> <r_epik_Metal_State_Penalty>
2.01024

> <b_epik_Metal_Only>
1

> <s_lp_Force_Field>
OPLS_2005

> <r_lp_Energy>
15.5459

> <b_lp_Chiralities_Consistent>
1

> <s_lp_Variant>
AV-unprocessed.smi:1815-9

> <Gold.Version>
5.8.1

> <Gold.Id.Protein>
6NUR|6NUR_protein|mol2

> <Gold.PLP.Fitness>
42.6985

> <Gold.PLP.PLP>
-35.5624

> <Gold.PLP.part.hbond>
-2.0000

> <Gold.PLP.part.metal>
0.0000

> <Gold.PLP.part.buried>
-6.2513

> <Gold.PLP.part.nonpolar>
-27.0867

> <Gold.PLP.part.repulsive>
0.2384

> <Gold.PLP.ligand.clash>
0.0000

> <Gold.PLP.ligand.torsion>
0.6682

> <Gold.PLP.Chemscore.Hbond>
2.8160

> <Gold.PLP.Chemscore.CHOScore>
0.0000

> <Gold.PLP.Chemscore.Metal>
0.0000

> <Gold.Chemscore.Hbonds>
donor molecule, donor type, donor heavy atom, donor atom, acceptor molecule, acceptor atom, score
      P1  H  7997  8009       L1     9  0.82
      P1  H 10752 10763       L1    10  2.00

> <Gold.PLP.Chemscore.Internal.Correction>
0.0244

> <Gold.Rescore>
     Score         DG    S(hbond)    S(metal)    S(lipo)     H(rot)  DE(clash)    DE(int)     intcor
     15.06     -17.33       1.60        0.00      89.80       1.57       0.03       2.24       ----

> <Gold.Chemscore.Fitness>
15.0641

> <Gold.Chemscore.DG>
-17.3298

> <Gold.Chemscore.ZeroCoef>
-5.4800

> <Gold.Chemscore.Hbond>
1.6035

> <Gold.Chemscore.Metal>
0.0000

> <Gold.Chemscore.Lipo>
89.8033

> <Gold.Chemscore.Internal_Hbond>
0.0000

> <Gold.Chemscore.DEClash>
0.0276

> <Gold.Chemscore.DEInternal>
2.2381

> <Gold.Chemscore.Rot>
1.5676

> <Gold.Chemscore.Internal.Correction>
   9.000000E+99

> <Gold.Chemscore.Hbonds>
donor molecule, donor type, donor heavy atom, donor atom, acceptor molecule, acceptor atom, score
      P1  H  7997  8009       L1     9  0.81
      P1  H 10752 10763       L1    10  0.24

> <Gold.Chemscore.Hbond.Weighted>
-5.3558

> <Gold.Chemscore.Metal.Weighted>
-0.0000

> <Gold.Chemscore.Lipo.Weighted>
-10.5070

> <Gold.Chemscore.Internal_Hbond.Weighted>
0.0000

> <Gold.Chemscore.DEClash.Weighted>
0.0276

> <Gold.Chemscore.DEInternal.Weighted>
2.2381

> <Gold.Chemscore.Rot.Weighted>
4.0130

> <Gold.Chemscore.Internal.Correction.Weighted>
   9.000000E+99

> <Gold.Protein.RotatedTorsions>
[ 6907 6896 6895 6894 ] final -156.33 input  -60.11 | X-H torsion
[ 7974 7965 7964 7962 ] final  -76.50 input  175.53 | X-H torsion
[ 8008 7997 7996 7995 ] final -163.94 input   59.86 | X-H torsion
[ 10167 10162 10161 10158 ] final   98.07 input  -65.29 | X-H torsion
[ 10718 10713 10712 10709 ] final  120.68 input   66.30 | X-H torsion
[ 10763 10752 10751 10750 ] final   60.96 input  -60.55 | X-H torsion
[ 11005 11000 10999 10996 ] final -167.66 input  -57.11 | X-H torsion

> <Gold.Protein.ActiveResidues>
 VAL166  LYS551  ARG553  GLY616  TRP617  ASP618  TYR619  PRO620  LYS621  CYS622 
 ASP623  PHE694  ASN695  SER759  ASP760  ASP761  ALA762  ILE779  LEU786  VAL792 
 PHE793  MET794  SER795  GLU796  ALA797  LYS798  CYS799  TRP800  GLU811  SER814 

> <Gold.Protein.RotatedAtoms>
  151.2860  133.4187  159.2629 H   0  0  0  0  0  0  0  0  0  0  0  0  # atno 6907 bound_to 6896
  151.0319  134.9546  159.8126 H   0  0  0  0  0  0  0  0  0  0  0  0  # atno 6908 bound_to 6896
  152.5347  134.2821  159.9064 H   0  0  0  0  0  0  0  0  0  0  0  0  # atno 6909 bound_to 6896
  145.6121  140.9384  143.1184 H   0  0  0  0  0  0  0  0  0  0  0  0  # atno 7974 bound_to 7965
  155.8285  140.0930  157.1806 H   0  0  0  0  0  0  0  0  0  0  0  0  # atno 8008 bound_to 7997
  154.3979  140.1423  156.3646 H   0  0  0  0  0  0  0  0  0  0  0  0  # atno 8009 bound_to 7997
  155.8191  140.3447  155.5505 H   0  0  0  0  0  0  0  0  0  0  0  0  # atno 8010 bound_to 7997
  139.7743  144.6911  151.0112 H   0  0  0  0  0  0  0  0  0  0  0  0  # atno 10167 bound_to 10162
  157.5873  131.1068  150.8068 H   0  0  0  0  0  0  0  0  0  0  0  0  # atno 10718 bound_to 10713
  152.9936  135.5518  154.5957 H   0  0  0  0  0  0  0  0  0  0  0  0  # atno 10763 bound_to 10752
  154.5309  135.2813  155.1183 H   0  0  0  0  0  0  0  0  0  0  0  0  # atno 10764 bound_to 10752
  154.2498  135.6401  153.5289 H   0  0  0  0  0  0  0  0  0  0  0  0  # atno 10765 bound_to 10752
  140.5507  134.5431  157.5122 H   0  0  0  0  0  0  0  0  0  0  0  0  # atno 11005 bound_to 11000
  144.7265  139.7858  143.7363 LP  0  0  0  0  0  0  0  0  0  0  0  0  # atno 17320 bound_to 7965
  146.1496  139.4575  143.0057 LP  0  0  0  0  0  0  0  0  0  0  0  0  # atno 17321 bound_to 7965
  140.7815  143.4554  151.0354 LP  0  0  0  0  0  0  0  0  0  0  0  0  # atno 17342 bound_to 10162
  139.8236  143.7786  152.3178 LP  0  0  0  0  0  0  0  0  0  0  0  0  # atno 17343 bound_to 10162
  156.8499  130.5077  149.5313 LP  0  0  0  0  0  0  0  0  0  0  0  0  # atno 17370 bound_to 10713
  156.0924  130.5906  150.9755 LP  0  0  0  0  0  0  0  0  0  0  0  0  # atno 17371 bound_to 10713
  139.9456  134.7707  156.0569 LP  0  0  0  0  0  0  0  0  0  0  0  0  # atno 17394 bound_to 11000
  141.1173  133.6624  156.3126 LP  0  0  0  0  0  0  0  0  0  0  0  0  # atno 17395 bound_to 11000

$$$$
