AV-unprocessed.smi:2476|AV-procd|sdf|9758|dock2
  -GOLD-   2272013403D 1   1.00000     0.00000
 Structure written by MMmdl.
 34 35  0  0  0  0  0  0  0  0  1 V2000
  146.8790  145.1976  160.5603 C   0  0  0  0  0  0  0  0  0  0  0  0
  147.0321  143.7910  159.9910 C   0  0  0  0  0  0  0  0  0  0  0  0
  146.7242  142.8158  160.6753 O   0  0  0  0  0  0  0  0  0  0  0  0
  147.5088  143.6986  158.7404 N   0  0  0  0  0  0  0  0  0  0  0  0
  147.7213  142.4510  158.0138 C   0  0  0  0  0  0  0  0  0  0  0  0
  149.1349  142.3527  157.4112 C   0  0  1  0  0  0  0  0  0  0  0  0
  150.1764  141.7904  158.4026 C   0  0  0  0  0  0  0  0  0  0  0  0
  151.4647  141.6294  157.7405 N   0  0  0  0  0  0  0  0  0  0  0  0
  152.4972  141.2405  158.6068 C   0  0  0  0  0  0  0  0  0  0  0  0
  153.0481  140.0134  158.4371 N   0  0  0  0  0  0  0  0  0  0  0  0
  154.0443  139.6380  159.2680 C   0  0  0  0  0  0  0  0  0  0  0  0
  154.5388  140.4568  160.3020 C   0  0  0  0  0  0  0  0  0  0  0  0
  153.9649  141.7303  160.4780 C   0  0  0  0  0  0  0  0  0  0  0  0
  152.9255  142.1311  159.6162 C   0  0  0  0  0  0  0  0  0  0  0  0
  152.3523  143.3506  159.7584 F   0  0  0  0  0  0  0  0  0  0  0  0
  151.3750  140.8132  156.5370 C   0  0  0  0  0  0  0  0  0  0  0  0
  150.3105  141.3923  155.5908 C   0  0  0  0  0  0  0  0  0  0  0  0
  149.0659  141.4897  156.2777 O   0  0  0  0  0  0  0  0  0  0  0  0
  146.8415  145.9459  159.7675 H   0  0  0  0  0  0  0  0  0  0  0  0
  147.7180  145.4316  161.2157 H   0  0  0  0  0  0  0  0  0  0  0  0
  145.9592  145.2728  161.1408 H   0  0  0  0  0  0  0  0  0  0  0  0
  147.7393  144.5539  158.2557 H   0  0  0  0  0  0  0  0  0  0  0  0
  147.5550  141.6241  158.7050 H   0  0  0  0  0  0  0  0  0  0  0  0
  146.9697  142.3499  157.2290 H   0  0  0  0  0  0  0  0  0  0  0  0
  149.4473  143.3434  157.0757 H   0  0  0  0  0  0  0  0  0  0  0  0
  150.2905  142.4615  159.2548 H   0  0  0  0  0  0  0  0  0  0  0  0
  149.8389  140.8283  158.7908 H   0  0  0  0  0  0  0  0  0  0  0  0
  154.4607  138.6551  159.1032 H   0  0  0  0  0  0  0  0  0  0  0  0
  155.3380  140.1162  160.9435 H   0  0  0  0  0  0  0  0  0  0  0  0
  154.3159  142.3879  161.2594 H   0  0  0  0  0  0  0  0  0  0  0  0
  152.3441  140.7816  156.0376 H   0  0  0  0  0  0  0  0  0  0  0  0
  151.1141  139.7881  156.8041 H   0  0  0  0  0  0  0  0  0  0  0  0
  150.6116  142.3729  155.2184 H   0  0  0  0  0  0  0  0  0  0  0  0
  150.1874  140.7452  154.7225 H   0  0  0  0  0  0  0  0  0  0  0  0
  1  2  1  0  0  0  0
  1 19  1  0  0  0  0
  1 20  1  0  0  0  0
  1 21  1  0  0  0  0
  2  3  2  0  0  0  0
  2  4  1  0  0  0  0
  4  5  1  0  0  0  0
  4 22  1  0  0  0  0
  5  6  1  0  0  0  0
  5 23  1  0  0  0  0
  5 24  1  0  0  0  0
  6 18  1  0  0  0  0
  6  7  1  0  0  0  0
  6 25  1  0  0  0  0
  7  8  1  0  0  0  0
  7 26  1  0  0  0  0
  7 27  1  0  0  0  0
  8  9  1  0  0  0  0
  8 16  1  0  0  0  0
  9 14  1  0  0  0  0
  9 10  2  0  0  0  0
 10 11  1  0  0  0  0
 11 12  2  0  0  0  0
 11 28  1  0  0  0  0
 12 13  1  0  0  0  0
 12 29  1  0  0  0  0
 13 14  2  0  0  0  0
 13 30  1  0  0  0  0
 14 15  1  0  0  0  0
 16 17  1  0  0  0  0
 16 31  1  0  0  0  0
 16 32  1  0  0  0  0
 17 18  1  0  0  0  0
 17 33  1  0  0  0  0
 17 34  1  0  0  0  0
M  END
> <s_m_source_file>
AV-unprocessed.smi

> <i_m_source_file_index>
2476

> <i_lp_mmshare_version>
43012

> <i_f3d_flags>
0

> <s_epik_input>
W0NIM11DKD1PKVtOSF1bQ0gyXVtDQEBIXTFbQ0gyXU4oW0NIMl1bQ0gyXU8xKWMybltjSF1bY0hdW2NIXWMyRg==

> <s_epik_cmdline>
J2VwaWtfcHl0aG9uJywgJy1waCcsICc3LjAnLCAnLXRuJywgJzgnLCAnLW1hJywgJzIwMCcsICctbWV0YWxfYmluZGluZycsICctaW1hZScsICc8aW5maWxlLm1hZT4nLCAnLW9tYWUnLCAnPG91dGZpbGUubWFlPic=

> <r_lp_tautomer_probability>
1

> <r_epik_Ionization_Penalty>
1.69306e-05

> <r_epik_Ionization_Penalty_Charging>
0

> <r_epik_Ionization_Penalty_Neutral>
1.69306e-05

> <r_epik_State_Penalty>
-0

> <r_epik_Charging_Adjusted_Penalty>
0

> <i_epik_Tot_Q>
0

> <i_epik_Tot_abs_Q>
0

> <r_epik_Metal_State_Penalty>
-0

> <b_epik_Metal_Only>
0

> <s_lp_Force_Field>
OPLS_2005

> <r_lp_Energy>
19.3351

> <b_lp_Chiralities_Consistent>
1

> <s_lp_Variant>
AV-unprocessed.smi:2476-2

> <Gold.Version>
5.8.1

> <Gold.Id.Protein>
6NUR|6NUR_protein|mol2

> <Gold.PLP.Fitness>
40.9778

> <Gold.PLP.PLP>
-32.6404

> <Gold.PLP.part.hbond>
-3.9786

> <Gold.PLP.part.metal>
0.0000

> <Gold.PLP.part.buried>
-1.6980

> <Gold.PLP.part.nonpolar>
-25.8520

> <Gold.PLP.part.repulsive>
0.2278

> <Gold.PLP.ligand.clash>
0.0000

> <Gold.PLP.ligand.torsion>
0.5935

> <Gold.PLP.Chemscore.Hbond>
3.1392

> <Gold.PLP.Chemscore.CHOScore>
0.0000

> <Gold.PLP.Chemscore.Metal>
0.0000

> <Gold.Chemscore.Hbonds>
donor molecule, donor type, donor heavy atom, donor atom, acceptor molecule, acceptor atom, score
      L1  H     4    22       P1  8029  1.00
      P1  H  6933  6944       L1     3  0.88
      P1  H  6934  6946       L1     3  0.91
      P1  H  7997  8009       L1    10  0.29

> <Gold.PLP.Chemscore.Internal.Correction>
0.1068

> <Gold.Rescore>
     Score         DG    S(hbond)    S(metal)    S(lipo)     H(rot)  DE(clash)    DE(int)     intcor
     13.51     -15.06       1.92        0.00      62.27       1.61       0.02       1.53       ----

> <Gold.Chemscore.Fitness>
13.5071

> <Gold.Chemscore.DG>
-15.0590

> <Gold.Chemscore.ZeroCoef>
-5.4800

> <Gold.Chemscore.Hbond>
1.9190

> <Gold.Chemscore.Metal>
0.0000

> <Gold.Chemscore.Lipo>
62.2696

> <Gold.Chemscore.Internal_Hbond>
0.0000

> <Gold.Chemscore.DEClash>
0.0174

> <Gold.Chemscore.DEInternal>
1.5345

> <Gold.Chemscore.Rot>
1.6078

> <Gold.Chemscore.Internal.Correction>
   9.000000E+99

> <Gold.Chemscore.Hbonds>
donor molecule, donor type, donor heavy atom, donor atom, acceptor molecule, acceptor atom, score
      L1  H     4    22       P1  8029  0.78
      P1  H  6933  6944       L1     3  0.25
      P1  H  6934  6946       L1     3  0.89
      P1  H  7997  8009       L1    10  0.01

> <Gold.Chemscore.Hbond.Weighted>
-6.4093

> <Gold.Chemscore.Metal.Weighted>
-0.0000

> <Gold.Chemscore.Lipo.Weighted>
-7.2855

> <Gold.Chemscore.Internal_Hbond.Weighted>
0.0000

> <Gold.Chemscore.DEClash.Weighted>
0.0174

> <Gold.Chemscore.DEInternal.Weighted>
1.5345

> <Gold.Chemscore.Rot.Weighted>
4.1159

> <Gold.Chemscore.Internal.Correction.Weighted>
   9.000000E+99

> <Gold.Protein.RotatedTorsions>
[ 6907 6896 6895 6894 ] final  139.39 input  -60.11 | X-H torsion
[ 7974 7965 7964 7962 ] final   -5.00 input  175.53 | X-H torsion
[ 8008 7997 7996 7995 ] final  167.94 input   59.86 | X-H torsion
[ 10167 10162 10161 10158 ] final  -60.45 input  -65.29 | X-H torsion
[ 10718 10713 10712 10709 ] final   59.27 input   66.30 | X-H torsion
[ 10763 10752 10751 10750 ] final  120.70 input  -60.55 | X-H torsion
[ 11005 11000 10999 10996 ] final   10.47 input  -57.11 | X-H torsion

> <Gold.Protein.ActiveResidues>
 VAL166  LYS551  ARG553  GLY616  TRP617  ASP618  TYR619  PRO620  LYS621  CYS622 
 ASP623  PHE694  ASN695  SER759  ASP760  ASP761  ALA762  ILE779  LEU786  VAL792 
 PHE793  MET794  SER795  GLU796  ALA797  LYS798  CYS799  TRP800  GLU811  SER814 

> <Gold.Protein.RotatedAtoms>
  152.2555  133.5252  159.5350 H   0  0  0  0  0  0  0  0  0  0  0  0  # atno 6907 bound_to 6896
  150.7107  134.0901  159.3938 H   0  0  0  0  0  0  0  0  0  0  0  0  # atno 6908 bound_to 6896
  151.8820  135.0450  160.0540 H   0  0  0  0  0  0  0  0  0  0  0  0  # atno 6909 bound_to 6896
  146.2361  140.1956  142.8333 H   0  0  0  0  0  0  0  0  0  0  0  0  # atno 7974 bound_to 7965
  156.1590  140.1603  156.8644 H   0  0  0  0  0  0  0  0  0  0  0  0  # atno 8008 bound_to 7997
  154.5142  140.0793  156.8085 H   0  0  0  0  0  0  0  0  0  0  0  0  # atno 8009 bound_to 7997
  155.3746  140.3402  155.4246 H   0  0  0  0  0  0  0  0  0  0  0  0  # atno 8010 bound_to 7997
  140.6070  143.2376  151.5797 H   0  0  0  0  0  0  0  0  0  0  0  0  # atno 10167 bound_to 10162
  157.5662  130.8873  149.9192 H   0  0  0  0  0  0  0  0  0  0  0  0  # atno 10718 bound_to 10713
  153.6027  135.3445  155.2951 H   0  0  0  0  0  0  0  0  0  0  0  0  # atno 10763 bound_to 10752
  154.8633  135.4231  154.2395 H   0  0  0  0  0  0  0  0  0  0  0  0  # atno 10764 bound_to 10752
  153.3228  135.7039  153.7087 H   0  0  0  0  0  0  0  0  0  0  0  0  # atno 10765 bound_to 10752
  140.5142  134.0623  155.7826 H   0  0  0  0  0  0  0  0  0  0  0  0  # atno 11005 bound_to 11000
  144.9823  140.8471  143.5390 LP  0  0  0  0  0  0  0  0  0  0  0  0  # atno 17320 bound_to 7965
  145.1951  139.2281  143.5222 LP  0  0  0  0  0  0  0  0  0  0  0  0  # atno 17321 bound_to 7965
  139.5332  144.2854  152.1195 LP  0  0  0  0  0  0  0  0  0  0  0  0  # atno 17342 bound_to 10162
  140.2046  144.4624  150.6415 LP  0  0  0  0  0  0  0  0  0  0  0  0  # atno 17343 bound_to 10162
  156.0711  130.3685  150.0775 LP  0  0  0  0  0  0  0  0  0  0  0  0  # atno 17370 bound_to 10713
  156.8933  130.9596  151.3585 LP  0  0  0  0  0  0  0  0  0  0  0  0  # atno 17371 bound_to 10713
  141.1369  133.9205  157.2413 LP  0  0  0  0  0  0  0  0  0  0  0  0  # atno 17394 bound_to 11000
  139.9642  135.0146  156.9342 LP  0  0  0  0  0  0  0  0  0  0  0  0  # atno 17395 bound_to 11000

$$$$
