AV-unprocessed.smi:2302|AV-procd|sdf|9239|dock10
  -GOLD-   2272012453D 1   1.00000     0.00000
 Structure written by MMmdl.
 40 41  0  0  0  0  0  0  0  0  2 V2000
  153.7471  137.4821  157.3942 C   0  0  0  0  0  0  0  0  0  0  0  0
  152.6220  137.9039  156.4727 C   0  0  0  0  0  0  0  0  0  0  0  0
  152.3689  139.2651  156.2132 C   0  0  0  0  0  0  0  0  0  0  0  0
  151.3116  139.5887  155.3442 C   0  0  0  0  0  0  0  0  0  0  0  0
  150.5560  138.5457  154.7747 C   0  0  0  0  0  0  0  0  0  0  0  0
  150.8743  137.2054  155.0891 C   0  0  0  0  0  0  0  0  0  0  0  0
  150.0557  136.2291  154.4620 N   0  0  0  0  0  0  0  0  0  0  0  0
  149.7847  134.9804  154.8804 C   0  0  0  0  0  0  0  0  0  0  0  0
  150.1858  134.4773  155.9299 O   0  0  0  0  0  0  0  0  0  0  0  0
  149.0072  134.3324  154.0010 N   0  0  0  0  0  0  0  0  0  0  0  0
  148.5360  132.9576  154.1462 C   0  0  0  0  0  0  0  0  0  0  0  0
  147.8654  132.4046  152.8712 C   0  0  1  0  0  0  0  0  0  0  0  0
  147.0223  131.1325  153.1099 C   0  0  0  0  0  0  0  0  0  0  0  0
  146.3988  130.6832  151.8443 N   0  3  1  0  0  0  0  0  0  0  0  0
  145.6152  129.4395  152.0034 C   0  0  0  0  0  0  0  0  0  0  0  0
  145.6140  131.7763  151.2273 C   0  0  0  0  0  0  0  0  0  0  0  0
  146.4914  133.0253  151.0432 C   0  0  0  0  0  0  0  0  0  0  0  0
  147.0414  133.4139  152.2957 O   0  0  0  0  0  0  0  0  0  0  0  0
  151.8976  136.9034  155.9267 N   0  0  0  0  0  0  0  0  0  0  0  0
  154.2032  138.3441  157.8816 H   0  0  0  0  0  0  0  0  0  0  0  0
  154.5203  136.9599  156.8301 H   0  0  0  0  0  0  0  0  0  0  0  0
  153.3742  136.8118  158.1693 H   0  0  0  0  0  0  0  0  0  0  0  0
  152.9673  140.0421  156.6657 H   0  0  0  0  0  0  0  0  0  0  0  0
  151.0833  140.6196  155.1172 H   0  0  0  0  0  0  0  0  0  0  0  0
  149.7403  138.7777  154.1055 H   0  0  0  0  0  0  0  0  0  0  0  0
  149.6339  136.5131  153.5904 H   0  0  0  0  0  0  0  0  0  0  0  0
  148.7176  134.8266  153.1698 H   0  0  0  0  0  0  0  0  0  0  0  0
  149.3536  132.3060  154.4589 H   0  0  0  0  0  0  0  0  0  0  0  0
  147.8141  132.9491  154.9632 H   0  0  0  0  0  0  0  0  0  0  0  0
  148.6609  132.1735  152.1604 H   0  0  0  0  0  0  0  0  0  0  0  0
  147.6532  130.3378  153.5096 H   0  0  0  0  0  0  0  0  0  0  0  0
  146.2370  131.3207  153.8439 H   0  0  0  0  0  0  0  0  0  0  0  0
  144.7703  129.5918  152.6763 H   0  0  0  0  0  0  0  0  0  0  0  0
  146.2373  128.6417  152.4102 H   0  0  0  0  0  0  0  0  0  0  0  0
  145.2298  129.1034  151.0403 H   0  0  0  0  0  0  0  0  0  0  0  0
  145.2237  131.4515  150.2619 H   0  0  0  0  0  0  0  0  0  0  0  0
  144.7558  132.0141  151.8579 H   0  0  0  0  0  0  0  0  0  0  0  0
  147.2902  132.8391  150.3237 H   0  0  0  0  0  0  0  0  0  0  0  0
  145.8946  133.8484  150.6499 H   0  0  0  0  0  0  0  0  0  0  0  0
  147.1539  130.4717  151.2074 H   0  0  0  0  0  0  0  0  0  0  0  0
  1  2  1  0  0  0  0
  1 20  1  0  0  0  0
  1 21  1  0  0  0  0
  1 22  1  0  0  0  0
  2 19  1  0  0  0  0
  2  3  2  0  0  0  0
  3  4  1  0  0  0  0
  3 23  1  0  0  0  0
  4  5  2  0  0  0  0
  4 24  1  0  0  0  0
  5  6  1  0  0  0  0
  5 25  1  0  0  0  0
  6  7  1  0  0  0  0
  6 19  2  0  0  0  0
  7  8  1  0  0  0  0
  7 26  1  0  0  0  0
  8  9  2  0  0  0  0
  8 10  1  0  0  0  0
 10 11  1  0  0  0  0
 10 27  1  0  0  0  0
 11 12  1  0  0  0  0
 11 28  1  0  0  0  0
 11 29  1  0  0  0  0
 12 18  1  0  0  0  0
 12 13  1  0  0  0  0
 12 30  1  0  0  0  0
 13 14  1  0  0  0  0
 13 31  1  0  0  0  0
 13 32  1  0  0  0  0
 14 15  1  0  0  0  0
 14 16  1  0  0  0  0
 14 40  1  0  0  0  0
 15 33  1  0  0  0  0
 15 34  1  0  0  0  0
 15 35  1  0  0  0  0
 16 17  1  0  0  0  0
 16 36  1  0  0  0  0
 16 37  1  0  0  0  0
 17 18  1  0  0  0  0
 17 38  1  0  0  0  0
 17 39  1  0  0  0  0
M  CHG  1  14   1
M  END
> <s_m_source_file>
AV-unprocessed.smi

> <i_m_source_file_index>
2302

> <i_lp_mmshare_version>
43012

> <i_f3d_flags>
0

> <s_epik_input>
W0NIM11jMVtjSF1bY0hdW2NIXWMobjEpW05IXUMoPU8pW05IXVtDSDJdW0NAQEhdMltDSDJdTihbQ0gzXSlbQ0gyXVtDSDJdTzI=

> <s_epik_cmdline>
J2VwaWtfcHl0aG9uJywgJy1waCcsICc3LjAnLCAnLXRuJywgJzgnLCAnLW1hJywgJzIwMCcsICctbWV0YWxfYmluZGluZycsICctaW1hZScsICc8aW5maWxlLm1hZT4nLCAnLW9tYWUnLCAnPG91dGZpbGUubWFlPic=

> <r_epik_Ionization_Penalty>
0.204647

> <r_epik_Ionization_Penalty_Charging>
0.204578

> <r_epik_Ionization_Penalty_Neutral>
6.91954e-05

> <r_epik_State_Penalty>
0.194513

> <r_epik_Charging_Adjusted_Penalty>
0.399091

> <i_epik_Tot_Q>
1

> <i_epik_Tot_abs_Q>
1

> <r_epik_Metal_State_Penalty>
0.194515

> <b_epik_Metal_Only>
0

> <s_lp_Force_Field>
OPLS_2005

> <r_lp_Energy>
15.833

> <b_lp_Chiralities_Consistent>
1

> <s_lp_Variant>
AV-unprocessed.smi:2302-4

> <Gold.Version>
5.8.1

> <Gold.Id.Protein>
6NUR|6NUR_protein|mol2

> <Gold.PLP.Fitness>
44.5403

> <Gold.PLP.PLP>
-33.2312

> <Gold.PLP.part.hbond>
-4.8981

> <Gold.PLP.part.metal>
0.0000

> <Gold.PLP.part.buried>
-0.2294

> <Gold.PLP.part.nonpolar>
-27.9775

> <Gold.PLP.part.repulsive>
0.3059

> <Gold.PLP.ligand.clash>
0.0000

> <Gold.PLP.ligand.torsion>
0.3345

> <Gold.PLP.Chemscore.Hbond>
3.9920

> <Gold.PLP.Chemscore.CHOScore>
0.0000

> <Gold.PLP.Chemscore.Metal>
0.0000

> <Gold.Chemscore.Hbonds>
donor molecule, donor type, donor heavy atom, donor atom, acceptor molecule, acceptor atom, score
      L1  H     7    26       P1  7948  1.00
      L1  H    10    27       P1  7948  1.00
      L1  H    14    40       P1 10747  0.89
      P1  H 10752 10765       L1    19  0.89

> <Gold.PLP.Chemscore.Internal.Correction>
0.0022

> <Gold.Rescore>
     Score         DG    S(hbond)    S(metal)    S(lipo)     H(rot)  DE(clash)    DE(int)     intcor
     19.28     -20.83       3.03        0.00      72.60       1.27       0.11       1.44       ----

> <Gold.Chemscore.Fitness>
19.2834

> <Gold.Chemscore.DG>
-20.8350

> <Gold.Chemscore.ZeroCoef>
-5.4800

> <Gold.Chemscore.Hbond>
3.0304

> <Gold.Chemscore.Metal>
0.0000

> <Gold.Chemscore.Lipo>
72.5961

> <Gold.Chemscore.Internal_Hbond>
0.0000

> <Gold.Chemscore.DEClash>
0.1083

> <Gold.Chemscore.DEInternal>
1.4433

> <Gold.Chemscore.Rot>
1.2736

> <Gold.Chemscore.Internal.Correction>
   9.000000E+99

> <Gold.Chemscore.Hbonds>
donor molecule, donor type, donor heavy atom, donor atom, acceptor molecule, acceptor atom, score
      L1  H     7    26       P1  7948  0.54
      L1  H    10    27       P1  7948  0.33
      L1  H    14    40       P1 10747  0.85
      P1  H 10752 10765       L1    19  0.26

> <Gold.Chemscore.Hbond.Weighted>
-10.1215

> <Gold.Chemscore.Metal.Weighted>
-0.0000

> <Gold.Chemscore.Lipo.Weighted>
-8.4937

> <Gold.Chemscore.Internal_Hbond.Weighted>
0.0000

> <Gold.Chemscore.DEClash.Weighted>
0.1083

> <Gold.Chemscore.DEInternal.Weighted>
1.4433

> <Gold.Chemscore.Rot.Weighted>
3.2603

> <Gold.Chemscore.Internal.Correction.Weighted>
   9.000000E+99

> <Gold.Protein.RotatedTorsions>
[ 6907 6896 6895 6894 ] final -112.72 input  -60.11 | X-H torsion
[ 7974 7965 7964 7962 ] final  156.36 input  175.53 | X-H torsion
[ 8008 7997 7996 7995 ] final   -5.65 input   59.86 | X-H torsion
[ 10167 10162 10161 10158 ] final -155.34 input  -65.29 | X-H torsion
[ 10718 10713 10712 10709 ] final  -72.95 input   66.30 | X-H torsion
[ 10763 10752 10751 10750 ] final -168.01 input  -60.55 | X-H torsion
[ 11005 11000 10999 10996 ] final  142.29 input  -57.11 | X-H torsion

> <Gold.Protein.ActiveResidues>
 VAL166  LYS551  ARG553  GLY616  TRP617  ASP618  TYR619  PRO620  LYS621  CYS622 
 ASP623  PHE694  ASN695  SER759  ASP760  ASP761  ALA762  ILE779  LEU786  VAL792 
 PHE793  MET794  SER795  GLU796  ALA797  LYS798  CYS799  TRP800  GLU811  SER814 

> <Gold.Protein.RotatedAtoms>
  150.7778  133.9048  159.3351 H   0  0  0  0  0  0  0  0  0  0  0  0  # atno 6907 bound_to 6896
  151.6918  135.0943  160.0244 H   0  0  0  0  0  0  0  0  0  0  0  0  # atno 6908 bound_to 6896
  152.3820  133.6521  159.6204 H   0  0  0  0  0  0  0  0  0  0  0  0  # atno 6909 bound_to 6896
  144.7968  139.7193  143.6198 H   0  0  0  0  0  0  0  0  0  0  0  0  # atno 7974 bound_to 7965
  154.6017  140.2453  155.7783 H   0  0  0  0  0  0  0  0  0  0  0  0  # atno 8008 bound_to 7997
  156.2315  140.2965  156.0153 H   0  0  0  0  0  0  0  0  0  0  0  0  # atno 8009 bound_to 7997
  155.2199  140.0400  157.2937 H   0  0  0  0  0  0  0  0  0  0  0  0  # atno 8010 bound_to 7997
  139.6939  143.9374  152.2398 H   0  0  0  0  0  0  0  0  0  0  0  0  # atno 10167 bound_to 10162
  156.0299  130.4383  150.2670 H   0  0  0  0  0  0  0  0  0  0  0  0  # atno 10718 bound_to 10713
  154.6673  135.2934  154.9789 H   0  0  0  0  0  0  0  0  0  0  0  0  # atno 10763 bound_to 10752
  154.0828  135.6602  153.4844 H   0  0  0  0  0  0  0  0  0  0  0  0  # atno 10764 bound_to 10752
  153.0465  135.5201  154.7652 H   0  0  0  0  0  0  0  0  0  0  0  0  # atno 10765 bound_to 10752
  140.0466  134.9277  157.0940 H   0  0  0  0  0  0  0  0  0  0  0  0  # atno 11005 bound_to 11000
  146.2238  139.5685  142.9601 LP  0  0  0  0  0  0  0  0  0  0  0  0  # atno 17320 bound_to 7965
  145.5654  141.0400  143.2203 LP  0  0  0  0  0  0  0  0  0  0  0  0  # atno 17321 bound_to 7965
  139.9198  144.6807  150.8474 LP  0  0  0  0  0  0  0  0  0  0  0  0  # atno 17342 bound_to 10162
  140.7691  143.3383  151.2261 LP  0  0  0  0  0  0  0  0  0  0  0  0  # atno 17343 bound_to 10162
  157.0772  131.0133  151.3169 LP  0  0  0  0  0  0  0  0  0  0  0  0  # atno 17370 bound_to 10713
  157.4954  130.7848  149.7550 LP  0  0  0  0  0  0  0  0  0  0  0  0  # atno 17371 bound_to 10713
  140.3984  134.2109  155.7164 LP  0  0  0  0  0  0  0  0  0  0  0  0  # atno 17394 bound_to 11000
  141.1910  133.8205  157.0897 LP  0  0  0  0  0  0  0  0  0  0  0  0  # atno 17395 bound_to 11000

$$$$
