AV-unprocessed.smi:1436|AV-procd|sdf|5860|dock4
  -GOLD-   22720 5533D 1   1.00000     0.00000
 Structure written by MMmdl.
 43 44  0  0  0  0  0  0  0  0  1 V2000
  148.1928  137.3260  158.6128 C   0  0  0  0  0  0  0  0  0  0  0  0
  147.7872  136.5470  159.8305 C   0  0  0  0  0  0  0  0  0  0  0  0
  147.7683  137.1441  161.0101 N   0  0  0  0  0  0  0  0  0  0  0  0
  147.3691  136.1673  161.9272 O   0  0  0  0  0  0  0  0  0  0  0  0
  147.1628  135.0062  161.2552 C   0  0  0  0  0  0  0  0  0  0  0  0
  146.7341  133.8290  162.0640 C   0  0  0  0  0  0  0  0  0  0  0  0
  147.4075  135.1765  159.9206 C   0  0  0  0  0  0  0  0  0  0  0  0
  147.3055  134.1606  158.8098 C   0  0  0  0  0  0  0  0  0  0  0  0
  148.6771  133.9048  158.1779 C   0  0  0  0  0  0  0  0  0  0  0  0
  149.4476  133.0790  158.6693 O   0  0  0  0  0  0  0  0  0  0  0  0
  148.9704  134.6283  157.0862 N   0  0  0  0  0  0  0  0  0  0  0  0
  150.2281  134.5785  156.3443 C   0  0  1  0  0  0  0  0  0  0  0  0
  150.4482  133.1804  155.7450 C   0  0  0  0  0  0  0  0  0  0  0  0
  150.3353  135.7259  155.3101 C   0  0  0  0  0  0  0  0  0  0  0  0
  151.4911  136.6206  155.4287 N   0  0  0  0  0  0  0  0  0  0  0  0
  151.6825  137.0377  156.8142 C   0  0  0  0  0  0  0  0  0  0  0  0
  152.8944  137.9716  156.9747 C   0  0  0  0  0  0  0  0  0  0  0  0
  152.7363  139.1047  156.1278 O   0  0  0  0  0  0  0  0  0  0  0  0
  152.5947  138.7466  154.7576 C   0  0  0  0  0  0  0  0  0  0  0  0
  151.3845  137.8119  154.5890 C   0  0  0  0  0  0  0  0  0  0  0  0
  149.2289  137.1151  158.3477 H   0  0  0  0  0  0  0  0  0  0  0  0
  148.1027  138.4008  158.7726 H   0  0  0  0  0  0  0  0  0  0  0  0
  147.5702  137.0667  157.7564 H   0  0  0  0  0  0  0  0  0  0  0  0
  147.4167  132.9920  161.9160 H   0  0  0  0  0  0  0  0  0  0  0  0
  145.7345  133.5059  161.7736 H   0  0  0  0  0  0  0  0  0  0  0  0
  146.7174  134.0662  163.1280 H   0  0  0  0  0  0  0  0  0  0  0  0
  146.9197  133.2089  159.1759 H   0  0  0  0  0  0  0  0  0  0  0  0
  146.6050  134.4968  158.0441 H   0  0  0  0  0  0  0  0  0  0  0  0
  148.2745  135.2790  156.7520 H   0  0  0  0  0  0  0  0  0  0  0  0
  151.0321  134.7304  157.0667 H   0  0  0  0  0  0  0  0  0  0  0  0
  151.3987  133.1296  155.2133 H   0  0  0  0  0  0  0  0  0  0  0  0
  149.6589  132.9120  155.0422 H   0  0  0  0  0  0  0  0  0  0  0  0
  150.4668  132.4192  156.5253 H   0  0  0  0  0  0  0  0  0  0  0  0
  150.2767  135.3247  154.2970 H   0  0  0  0  0  0  0  0  0  0  0  0
  149.4343  136.3291  155.4298 H   0  0  0  0  0  0  0  0  0  0  0  0
  150.7869  137.5463  157.1743 H   0  0  0  0  0  0  0  0  0  0  0  0
  151.8198  136.1616  157.4492 H   0  0  0  0  0  0  0  0  0  0  0  0
  152.9808  138.3076  158.0082 H   0  0  0  0  0  0  0  0  0  0  0  0
  153.8205  137.4499  156.7281 H   0  0  0  0  0  0  0  0  0  0  0  0
  152.4604  139.6514  154.1646 H   0  0  0  0  0  0  0  0  0  0  0  0
  153.5071  138.2636  154.4043 H   0  0  0  0  0  0  0  0  0  0  0  0
  151.3125  137.5319  153.5395 H   0  0  0  0  0  0  0  0  0  0  0  0
  150.4727  138.3563  154.8351 H   0  0  0  0  0  0  0  0  0  0  0  0
  1  2  1  0  0  0  0
  1 21  1  0  0  0  0
  1 22  1  0  0  0  0
  1 23  1  0  0  0  0
  2  7  1  0  0  0  0
  2  3  2  0  0  0  0
  3  4  1  0  0  0  0
  4  5  1  0  0  0  0
  5  6  1  0  0  0  0
  5  7  2  0  0  0  0
  6 24  1  0  0  0  0
  6 25  1  0  0  0  0
  6 26  1  0  0  0  0
  7  8  1  0  0  0  0
  8  9  1  0  0  0  0
  8 27  1  0  0  0  0
  8 28  1  0  0  0  0
  9 10  2  0  0  0  0
  9 11  1  0  0  0  0
 11 12  1  0  0  0  0
 11 29  1  0  0  0  0
 12 13  1  0  0  0  0
 12 14  1  0  0  0  0
 12 30  1  0  0  0  0
 13 31  1  0  0  0  0
 13 32  1  0  0  0  0
 13 33  1  0  0  0  0
 14 15  1  0  0  0  0
 14 34  1  0  0  0  0
 14 35  1  0  0  0  0
 15 20  1  0  0  0  0
 15 16  1  0  0  0  0
 16 17  1  0  0  0  0
 16 36  1  0  0  0  0
 16 37  1  0  0  0  0
 17 18  1  0  0  0  0
 17 38  1  0  0  0  0
 17 39  1  0  0  0  0
 18 19  1  0  0  0  0
 19 20  1  0  0  0  0
 19 40  1  0  0  0  0
 19 41  1  0  0  0  0
 20 42  1  0  0  0  0
 20 43  1  0  0  0  0
M  END
> <s_m_source_file>
AV-unprocessed.smi

> <i_m_source_file_index>
1436

> <i_lp_mmshare_version>
43012

> <i_f3d_flags>
0

> <s_epik_input>
W0NIM11jMW5vYyhbQ0gzXSljMVtDSDJdQyg9TylbTkhdW0NASF0oW0NIM10pW0NIMl1OMltDSDJdW0NIMl1PW0NIMl1bQ0gyXTI=

> <s_epik_cmdline>
J2VwaWtfcHl0aG9uJywgJy1waCcsICc3LjAnLCAnLXRuJywgJzgnLCAnLW1hJywgJzIwMCcsICctbWV0YWxfYmluZGluZycsICctaW1hZScsICc8aW5maWxlLm1hZT4nLCAnLW9tYWUnLCAnPG91dGZpbGUubWFlPic=

> <r_epik_Ionization_Penalty>
0.234179

> <r_epik_Ionization_Penalty_Charging>
0

> <r_epik_Ionization_Penalty_Neutral>
0.234179

> <r_epik_State_Penalty>
0.224936

> <r_epik_Charging_Adjusted_Penalty>
0.224936

> <i_epik_Tot_Q>
0

> <i_epik_Tot_abs_Q>
0

> <r_epik_Metal_State_Penalty>
0.224936

> <b_epik_Metal_Only>
0

> <s_lp_Force_Field>
OPLS_2005

> <r_lp_Energy>
22.5578

> <b_lp_Chiralities_Consistent>
1

> <s_lp_Variant>
AV-unprocessed.smi:1436-2

> <Gold.Version>
5.8.1

> <Gold.Id.Protein>
6NUR|6NUR_protein|mol2

> <Gold.PLP.Fitness>
42.3133

> <Gold.PLP.PLP>
-30.5193

> <Gold.PLP.part.hbond>
-5.0000

> <Gold.PLP.part.metal>
0.0000

> <Gold.PLP.part.buried>
-4.8385

> <Gold.PLP.part.nonpolar>
-21.1711

> <Gold.PLP.part.repulsive>
0.1499

> <Gold.PLP.ligand.clash>
0.0000

> <Gold.PLP.ligand.torsion>
1.2317

> <Gold.PLP.Chemscore.Hbond>
4.7040

> <Gold.PLP.Chemscore.CHOScore>
0.0000

> <Gold.PLP.Chemscore.Metal>
0.0000

> <Gold.Chemscore.Hbonds>
donor molecule, donor type, donor heavy atom, donor atom, acceptor molecule, acceptor atom, score
      P1  H  6896  6909       L1    10  1.00
      P1  H  6931  6943       L1     3  0.93
      P1  H  6934  6947       L1     3  0.86
      P1  H  7997  8010       L1    18  1.00
      P1  H 10752 10765       L1    15  1.00

> <Gold.PLP.Chemscore.Internal.Correction>
0.1455

> <Gold.Rescore>
     Score         DG    S(hbond)    S(metal)    S(lipo)     H(rot)  DE(clash)    DE(int)     intcor
     19.43     -20.62       3.50        0.00      66.89       1.71       0.00       1.19       ----

> <Gold.Chemscore.Fitness>
19.4337

> <Gold.Chemscore.DG>
-20.6207

> <Gold.Chemscore.ZeroCoef>
-5.4800

> <Gold.Chemscore.Hbond>
3.5042

> <Gold.Chemscore.Metal>
0.0000

> <Gold.Chemscore.Lipo>
66.8863

> <Gold.Chemscore.Internal_Hbond>
0.0000

> <Gold.Chemscore.DEClash>
0.0000

> <Gold.Chemscore.DEInternal>
1.1869

> <Gold.Chemscore.Rot>
1.7145

> <Gold.Chemscore.Internal.Correction>
   9.000000E+99

> <Gold.Chemscore.Hbonds>
donor molecule, donor type, donor heavy atom, donor atom, acceptor molecule, acceptor atom, score
      P1  H  6896  6909       L1    10  0.93
      P1  H  6931  6943       L1     3  0.55
      P1  H  6934  6947       L1     3  0.74
      P1  H  7997  8010       L1    18  0.33
      P1  H 10752 10765       L1    15  0.11

> <Gold.Chemscore.Hbond.Weighted>
-11.7040

> <Gold.Chemscore.Metal.Weighted>
-0.0000

> <Gold.Chemscore.Lipo.Weighted>
-7.8257

> <Gold.Chemscore.Internal_Hbond.Weighted>
0.0000

> <Gold.Chemscore.DEClash.Weighted>
0.0000

> <Gold.Chemscore.DEInternal.Weighted>
1.1869

> <Gold.Chemscore.Rot.Weighted>
4.3891

> <Gold.Chemscore.Internal.Correction.Weighted>
   9.000000E+99

> <Gold.Protein.RotatedTorsions>
[ 6907 6896 6895 6894 ] final  -11.99 input  -60.11 | X-H torsion
[ 7974 7965 7964 7962 ] final -113.21 input  175.53 | X-H torsion
[ 8008 7997 7996 7995 ] final   82.89 input   59.86 | X-H torsion
[ 10167 10162 10161 10158 ] final  113.14 input  -65.29 | X-H torsion
[ 10718 10713 10712 10709 ] final  -88.57 input   66.30 | X-H torsion
[ 10763 10752 10751 10750 ] final  171.79 input  -60.55 | X-H torsion
[ 11005 11000 10999 10996 ] final   -7.15 input  -57.11 | X-H torsion

> <Gold.Protein.ActiveResidues>
 VAL166  LYS551  ARG553  GLY616  TRP617  ASP618  TYR619  PRO620  LYS621  CYS622 
 ASP623  PHE694  ASN695  SER759  ASP760  ASP761  ALA762  ILE779  LEU786  VAL792 
 PHE793  MET794  SER795  GLU796  ALA797  LYS798  CYS799  TRP800  GLU811  SER814 

> <Gold.Protein.RotatedAtoms>
  151.3776  135.0934  159.9485 H   0  0  0  0  0  0  0  0  0  0  0  0  # atno 6907 bound_to 6896
  152.5117  133.9104  159.7495 H   0  0  0  0  0  0  0  0  0  0  0  0  # atno 6908 bound_to 6896
  150.9530  133.6473  159.2797 H   0  0  0  0  0  0  0  0  0  0  0  0  # atno 6909 bound_to 6896
  145.1348  140.8745  143.3737 H   0  0  0  0  0  0  0  0  0  0  0  0  # atno 7974 bound_to 7965
  155.9166  140.3424  155.6140 H   0  0  0  0  0  0  0  0  0  0  0  0  # atno 8008 bound_to 7997
  155.7324  140.0797  157.2302 H   0  0  0  0  0  0  0  0  0  0  0  0  # atno 8009 bound_to 7997
  154.4063  140.1585  156.2511 H   0  0  0  0  0  0  0  0  0  0  0  0  # atno 8010 bound_to 7997
  139.6483  144.7127  151.2098 H   0  0  0  0  0  0  0  0  0  0  0  0  # atno 10167 bound_to 10162
  155.9983  130.4840  150.5039 H   0  0  0  0  0  0  0  0  0  0  0  0  # atno 10718 bound_to 10713
  154.4169  135.2757  155.2000 H   0  0  0  0  0  0  0  0  0  0  0  0  # atno 10763 bound_to 10752
  154.3962  135.6055  153.5875 H   0  0  0  0  0  0  0  0  0  0  0  0  # atno 10764 bound_to 10752
  152.9832  135.5915  154.4460 H   0  0  0  0  0  0  0  0  0  0  0  0  # atno 10765 bound_to 10752
  140.7097  133.8919  155.8742 H   0  0  0  0  0  0  0  0  0  0  0  0  # atno 11005 bound_to 11000
  145.0596  139.3116  143.5887 LP  0  0  0  0  0  0  0  0  0  0  0  0  # atno 17320 bound_to 7965
  146.3510  140.0033  142.8674 LP  0  0  0  0  0  0  0  0  0  0  0  0  # atno 17321 bound_to 7965
  140.7525  143.6193  150.8529 LP  0  0  0  0  0  0  0  0  0  0  0  0  # atno 17342 bound_to 10162
  139.9838  143.5922  152.2934 LP  0  0  0  0  0  0  0  0  0  0  0  0  # atno 17343 bound_to 10162
  157.3020  131.0647  151.2062 LP  0  0  0  0  0  0  0  0  0  0  0  0  # atno 17370 bound_to 10713
  157.3038  130.6856  149.6178 LP  0  0  0  0  0  0  0  0  0  0  0  0  # atno 17371 bound_to 10713
  141.0095  134.1040  157.4236 LP  0  0  0  0  0  0  0  0  0  0  0  0  # atno 17394 bound_to 11000
  139.8875  135.0090  156.6563 LP  0  0  0  0  0  0  0  0  0  0  0  0  # atno 17395 bound_to 11000

$$$$
