AV-unprocessed.smi:243|AV-procd|sdf|1863|dock3
  -GOLD-   2262020493D 1   1.00000     0.00000
 Structure written by MMmdl.
 58 61  0  0  0  0  0  0  0  0  2 V2000
  152.0876  145.1368  159.5562 C   0  0  0  0  0  0  0  0  0  0  0  0
  150.9083  145.2354  158.5776 C   0  0  0  0  0  0  0  0  0  0  0  0
  150.5606  143.9246  157.9740 N   0  3  1  0  0  0  0  0  0  0  0  0
  151.5675  143.4783  156.9793 C   0  0  0  0  0  0  0  0  0  0  0  0
  151.1232  142.1898  156.2675 C   0  0  0  0  0  0  0  0  0  0  0  0
  150.8264  141.0612  157.2794 C   0  0  2  0  0  0  0  0  0  0  0  0
  150.4418  139.8015  156.6208 N   0  0  0  0  0  0  0  0  0  0  0  0
  151.2354  139.3656  155.4757 C   0  0  0  0  0  0  0  0  0  0  0  0
  150.1887  138.7486  157.4332 C   0  0  0  0  0  0  0  0  0  0  0  0
  151.2514  138.1778  158.0524 N   0  0  0  0  0  0  0  0  0  0  0  0
  151.0708  137.1283  158.8596 C   0  0  0  0  0  0  0  0  0  0  0  0
  149.9333  136.5091  159.1817 N   0  0  0  0  0  0  0  0  0  0  0  0
  148.8606  137.0910  158.5726 C   0  0  0  0  0  0  0  0  0  0  0  0
  148.8958  138.2113  157.6957 C   0  0  0  0  0  0  0  0  0  0  0  0
  147.6072  138.5305  157.2841 N   0  0  0  0  0  0  0  0  0  0  0  0
  146.8547  137.6438  157.8760 C   0  0  0  0  0  0  0  0  0  0  0  0
  147.5269  136.7321  158.6582 N   0  0  0  0  0  0  0  0  0  0  0  0
  146.9455  135.6344  159.4149 C   0  0  0  0  0  0  0  0  0  0  0  0
  146.6400  135.9993  160.8864 C   0  0  2  0  0  0  0  0  0  0  0  0
  145.8914  137.2020  160.9220 O   0  0  0  0  0  0  0  0  0  0  0  0
  147.8836  136.1789  161.7543 C   0  0  0  0  0  0  0  0  0  0  0  0
  147.4236  135.6828  163.1178 C   0  0  0  0  0  0  0  0  0  0  0  0
  146.6163  134.5685  162.7804 O   0  0  0  0  0  0  0  0  0  0  0  0
  145.8468  134.9064  161.6315 C   0  0  0  0  0  0  0  0  0  0  0  0
  149.7843  141.5700  158.3189 C   0  0  2  0  0  0  0  0  0  0  0  0
  148.3599  141.7581  157.7551 C   0  0  0  0  0  0  0  0  0  0  0  0
  150.2894  142.8663  158.9824 C   0  0  0  0  0  0  0  0  0  0  0  0
  152.2553  146.0934  160.0516 H   0  0  0  0  0  0  0  0  0  0  0  0
  153.0169  144.8675  159.0554 H   0  0  0  0  0  0  0  0  0  0  0  0
  151.8949  144.3945  160.3314 H   0  0  0  0  0  0  0  0  0  0  0  0
  150.0492  145.6134  159.1336 H   0  0  0  0  0  0  0  0  0  0  0  0
  151.1149  145.9665  157.7950 H   0  0  0  0  0  0  0  0  0  0  0  0
  151.7226  144.2604  156.2348 H   0  0  0  0  0  0  0  0  0  0  0  0
  152.5254  143.3208  157.4777 H   0  0  0  0  0  0  0  0  0  0  0  0
  150.2477  142.3875  155.6485 H   0  0  0  0  0  0  0  0  0  0  0  0
  151.9180  141.8925  155.5835 H   0  0  0  0  0  0  0  0  0  0  0  0
  151.7595  140.8713  157.8096 H   0  0  0  0  0  0  0  0  0  0  0  0
  151.0400  138.3251  155.2101 H   0  0  0  0  0  0  0  0  0  0  0  0
  152.3010  139.4667  155.6853 H   0  0  0  0  0  0  0  0  0  0  0  0
  150.9982  139.9705  154.6006 H   0  0  0  0  0  0  0  0  0  0  0  0
  151.9660  136.7257  159.3098 H   0  0  0  0  0  0  0  0  0  0  0  0
  145.7817  137.6267  157.7520 H   0  0  0  0  0  0  0  0  0  0  0  0
  146.0356  135.3083  158.9092 H   0  0  0  0  0  0  0  0  0  0  0  0
  147.6364  134.7912  159.3733 H   0  0  0  0  0  0  0  0  0  0  0  0
  144.9765  136.9900  160.8172 H   0  0  0  0  0  0  0  0  0  0  0  0
  148.6865  135.5300  161.4017 H   0  0  0  0  0  0  0  0  0  0  0  0
  148.2663  137.2003  161.7735 H   0  0  0  0  0  0  0  0  0  0  0  0
  148.2525  135.3995  163.7666 H   0  0  0  0  0  0  0  0  0  0  0  0
  146.8212  136.4350  163.6296 H   0  0  0  0  0  0  0  0  0  0  0  0
  144.8624  135.2571  161.9466 H   0  0  0  0  0  0  0  0  0  0  0  0
  145.6951  134.0129  161.0249 H   0  0  0  0  0  0  0  0  0  0  0  0
  149.7059  140.8341  159.1195 H   0  0  0  0  0  0  0  0  0  0  0  0
  148.3245  142.5122  156.9694 H   0  0  0  0  0  0  0  0  0  0  0  0
  147.6726  142.0745  158.5401 H   0  0  0  0  0  0  0  0  0  0  0  0
  147.9626  140.8330  157.3396 H   0  0  0  0  0  0  0  0  0  0  0  0
  151.2023  142.6634  159.5450 H   0  0  0  0  0  0  0  0  0  0  0  0
  149.5509  143.2076  159.7070 H   0  0  0  0  0  0  0  0  0  0  0  0
  149.7028  144.0669  157.4600 H   0  0  0  0  0  0  0  0  0  0  0  0
  1  2  1  0  0  0  0
  1 28  1  0  0  0  0
  1 29  1  0  0  0  0
  1 30  1  0  0  0  0
  2  3  1  0  0  0  0
  2 31  1  0  0  0  0
  2 32  1  0  0  0  0
  3 27  1  0  0  0  0
  3  4  1  0  0  0  0
  3 58  1  0  0  0  0
  4  5  1  0  0  0  0
  4 33  1  0  0  0  0
  4 34  1  0  0  0  0
  5  6  1  0  0  0  0
  5 35  1  0  0  0  0
  5 36  1  0  0  0  0
  6  7  1  0  0  0  0
  6 25  1  0  0  0  0
  6 37  1  0  0  0  0
  7  8  1  0  0  0  0
  7  9  1  0  0  0  0
  8 38  1  0  0  0  0
  8 39  1  0  0  0  0
  8 40  1  0  0  0  0
  9 14  1  0  0  0  0
  9 10  2  0  0  0  0
 10 11  1  0  0  0  0
 11 12  2  0  0  0  0
 11 41  1  0  0  0  0
 12 13  1  0  0  0  0
 13 17  1  0  0  0  0
 13 14  2  0  0  0  0
 14 15  1  0  0  0  0
 15 16  2  0  0  0  0
 16 17  1  0  0  0  0
 16 42  1  0  0  0  0
 17 18  1  0  0  0  0
 18 19  1  0  0  0  0
 18 43  1  0  0  0  0
 18 44  1  0  0  0  0
 19 24  1  0  0  0  0
 19 20  1  0  0  0  0
 19 21  1  0  0  0  0
 20 45  1  0  0  0  0
 21 22  1  0  0  0  0
 21 46  1  0  0  0  0
 21 47  1  0  0  0  0
 22 23  1  0  0  0  0
 22 48  1  0  0  0  0
 22 49  1  0  0  0  0
 23 24  1  0  0  0  0
 24 50  1  0  0  0  0
 24 51  1  0  0  0  0
 25 26  1  0  0  0  0
 25 27  1  0  0  0  0
 25 52  1  0  0  0  0
 26 53  1  0  0  0  0
 26 54  1  0  0  0  0
 26 55  1  0  0  0  0
 27 56  1  0  0  0  0
 27 57  1  0  0  0  0
M  CHG  1   3   1
M  END
> <s_m_source_file>
AV-unprocessed.smi

> <i_m_source_file_index>
243

> <i_lp_mmshare_version>
43012

> <i_f3d_flags>
0

> <s_epik_input>
W0NIM11bQ0gyXU4xW0NIMl1bQ0gyXVtDQEhdKFtDQEBIXShbQ0gzXSlbQ0gyXTEpTihbQ0gzXSljKG5bY0hdbjIpYyhjMjMpbltjSF1uM1tDSDJdW0NAQF00KFtPSF0pW0NIMl1bQ0gyXU9bQ0gyXTQ=

> <s_epik_cmdline>
J2VwaWtfcHl0aG9uJywgJy1waCcsICc3LjAnLCAnLXRuJywgJzgnLCAnLW1hJywgJzIwMCcsICctbWV0YWxfYmluZGluZycsICctaW1hZScsICc8aW5maWxlLm1hZT4nLCAnLW9tYWUnLCAnPG91dGZpbGUubWFlPic=

> <r_lp_tautomer_probability>
1

> <r_epik_Ionization_Penalty>
0.00253099

> <r_epik_Ionization_Penalty_Charging>
0.00137877

> <r_epik_Ionization_Penalty_Neutral>
0.00115221

> <r_epik_State_Penalty>
-0

> <r_epik_Charging_Adjusted_Penalty>
0.00137877

> <i_epik_Tot_Q>
1

> <i_epik_Tot_abs_Q>
1

> <r_epik_Metal_State_Penalty>
-0

> <b_epik_Metal_Only>
0

> <s_lp_Force_Field>
OPLS_2005

> <r_lp_Energy>
46.6392

> <b_lp_Chiralities_Consistent>
1

> <s_lp_Variant>
AV-unprocessed.smi:243-16

> <Gold.Version>
5.8.1

> <Gold.Id.Protein>
6NUR|6NUR_protein|mol2

> <Gold.PLP.Fitness>
47.0878

> <Gold.PLP.PLP>
-36.0392

> <Gold.PLP.part.hbond>
-3.1687

> <Gold.PLP.part.metal>
0.0000

> <Gold.PLP.part.buried>
-6.3999

> <Gold.PLP.part.nonpolar>
-25.4905

> <Gold.PLP.part.repulsive>
0.0301

> <Gold.PLP.ligand.clash>
0.0000

> <Gold.PLP.ligand.torsion>
0.7059

> <Gold.PLP.Chemscore.Hbond>
3.9840

> <Gold.PLP.Chemscore.CHOScore>
0.0000

> <Gold.PLP.Chemscore.Metal>
0.0000

> <Gold.Chemscore.Hbonds>
donor molecule, donor type, donor heavy atom, donor atom, acceptor molecule, acceptor atom, score
      L1  H     3    58       P1  8028  1.66
      P1  H  6896  6908       L1    12  0.75
      P1  H  6934  6947       L1    20  0.54

> <Gold.PLP.Chemscore.Internal.Correction>
0.5085

> <Gold.Rescore>
     Score         DG    S(hbond)    S(metal)    S(lipo)     H(rot)  DE(clash)    DE(int)     intcor
     13.45     -17.34       1.74        0.00     107.05       2.53       2.78       1.10       ----

> <Gold.Chemscore.Fitness>
13.4547

> <Gold.Chemscore.DG>
-17.3379

> <Gold.Chemscore.ZeroCoef>
-5.4800

> <Gold.Chemscore.Hbond>
1.7397

> <Gold.Chemscore.Metal>
0.0000

> <Gold.Chemscore.Lipo>
107.0525

> <Gold.Chemscore.Internal_Hbond>
0.0000

> <Gold.Chemscore.DEClash>
2.7839

> <Gold.Chemscore.DEInternal>
1.0993

> <Gold.Chemscore.Rot>
2.5305

> <Gold.Chemscore.Internal.Correction>
   9.000000E+99

> <Gold.Chemscore.Hbonds>
donor molecule, donor type, donor heavy atom, donor atom, acceptor molecule, acceptor atom, score
      L1  H     3    58       P1  8028  0.31
      P1  H  6896  6908       L1    12  0.09
      P1  H  6934  6947       L1    20  0.48

> <Gold.Chemscore.Hbond.Weighted>
-5.8107

> <Gold.Chemscore.Metal.Weighted>
-0.0000

> <Gold.Chemscore.Lipo.Weighted>
-12.5251

> <Gold.Chemscore.Internal_Hbond.Weighted>
0.0000

> <Gold.Chemscore.DEClash.Weighted>
2.7839

> <Gold.Chemscore.DEInternal.Weighted>
1.0993

> <Gold.Chemscore.Rot.Weighted>
6.4780

> <Gold.Chemscore.Internal.Correction.Weighted>
   9.000000E+99

> <Gold.Protein.RotatedTorsions>
[ 6907 6896 6895 6894 ] final -174.81 input  -60.11 | X-H torsion
[ 7974 7965 7964 7962 ] final    3.64 input  175.53 | X-H torsion
[ 8008 7997 7996 7995 ] final   50.31 input   59.86 | X-H torsion
[ 10167 10162 10161 10158 ] final  -50.64 input  -65.29 | X-H torsion
[ 10718 10713 10712 10709 ] final -103.58 input   66.30 | X-H torsion
[ 10763 10752 10751 10750 ] final  -12.57 input  -60.55 | X-H torsion
[ 11005 11000 10999 10996 ] final   73.28 input  -57.11 | X-H torsion

> <Gold.Protein.ActiveResidues>
 VAL166  LYS551  ARG553  GLY616  TRP617  ASP618  TYR619  PRO620  LYS621  CYS622 
 ASP623  PHE694  ASN695  SER759  ASP760  ASP761  ALA762  ILE779  LEU786  VAL792 
 PHE793  MET794  SER795  GLU796  ALA797  LYS798  CYS799  TRP800  GLU811  SER814 

> <Gold.Protein.RotatedAtoms>
  151.5784  133.3381  159.3003 H   0  0  0  0  0  0  0  0  0  0  0  0  # atno 6907 bound_to 6896
  150.8327  134.7591  159.6879 H   0  0  0  0  0  0  0  0  0  0  0  0  # atno 6908 bound_to 6896
  152.4409  134.5600  159.9943 H   0  0  0  0  0  0  0  0  0  0  0  0  # atno 6909 bound_to 6896
  146.2445  140.0655  142.8365 H   0  0  0  0  0  0  0  0  0  0  0  0  # atno 7974 bound_to 7965
  155.4166  140.3444  155.4268 H   0  0  0  0  0  0  0  0  0  0  0  0  # atno 8008 bound_to 7997
  156.1417  140.1544  156.8941 H   0  0  0  0  0  0  0  0  0  0  0  0  # atno 8009 bound_to 7997
  154.4977  140.0823  156.7712 H   0  0  0  0  0  0  0  0  0  0  0  0  # atno 8010 bound_to 7997
  140.6627  143.2650  151.4389 H   0  0  0  0  0  0  0  0  0  0  0  0  # atno 10167 bound_to 10162
  156.0271  130.5474  150.7273 H   0  0  0  0  0  0  0  0  0  0  0  0  # atno 10718 bound_to 10713
  153.5005  135.7017  153.5835 H   0  0  0  0  0  0  0  0  0  0  0  0  # atno 10763 bound_to 10752
  153.3968  135.3882  155.1961 H   0  0  0  0  0  0  0  0  0  0  0  0  # atno 10764 bound_to 10752
  154.8711  135.3872  154.4474 H   0  0  0  0  0  0  0  0  0  0  0  0  # atno 10765 bound_to 10752
  139.9448  134.7333  156.1007 H   0  0  0  0  0  0  0  0  0  0  0  0  # atno 11005 bound_to 11000
  145.0862  140.9254  143.4796 LP  0  0  0  0  0  0  0  0  0  0  0  0  # atno 17320 bound_to 7965
  145.0818  139.2954  143.5779 LP  0  0  0  0  0  0  0  0  0  0  0  0  # atno 17321 bound_to 7965
  139.5866  144.1590  152.2037 LP  0  0  0  0  0  0  0  0  0  0  0  0  # atno 17342 bound_to 10162
  140.0932  144.5603  150.7040 LP  0  0  0  0  0  0  0  0  0  0  0  0  # atno 17343 bound_to 10162
  157.4874  131.0908  151.0466 LP  0  0  0  0  0  0  0  0  0  0  0  0  # atno 17370 bound_to 10713
  157.0883  130.5931  149.5434 LP  0  0  0  0  0  0  0  0  0  0  0  0  # atno 17371 bound_to 10713
  141.1095  133.6648  156.2944 LP  0  0  0  0  0  0  0  0  0  0  0  0  # atno 17394 bound_to 11000
  140.5862  134.5696  157.5490 LP  0  0  0  0  0  0  0  0  0  0  0  0  # atno 17395 bound_to 11000

$$$$
