AV-unprocessed.smi:209|AV-procd|sdf|1609|dock9
  -GOLD-   2262019533D 1   1.00000     0.00000
 Structure written by MMmdl.
 48 52  0  0  0  0  0  0  0  0  1 V2000
  154.1769  141.3261  161.7224 O   0  0  0  0  0  0  0  0  0  0  0  0
  153.7630  140.6462  160.7859 C   0  0  0  0  0  0  0  0  0  0  0  0
  154.2500  139.4696  160.3736 N   0  0  0  0  0  0  0  0  0  0  0  0
  153.5808  138.9770  159.1735 C   0  0  0  0  0  0  0  0  0  0  0  0
  152.9143  140.2546  158.6406 C   0  0  2  0  0  0  0  0  0  0  0  0
  152.5733  141.0094  159.9164 C   0  0  2  0  0  0  0  0  0  0  0  0
  152.2600  142.4670  159.5735 C   0  0  0  0  0  0  0  0  0  0  0  0
  151.0491  142.4414  158.6097 C   0  0  0  0  0  0  0  0  0  0  0  0
  151.2548  141.4836  157.4038 C   0  0  0  0  0  0  0  0  0  0  0  0
  151.7180  140.1492  157.8130 N   0  0  0  0  0  0  0  0  0  0  0  0
  151.8384  139.2857  156.7812 C   0  0  0  0  0  0  0  0  0  0  0  0
  152.7765  139.4929  155.8198 N   0  0  0  0  0  0  0  0  0  0  0  0
  152.8954  138.6265  154.8092 C   0  0  0  0  0  0  0  0  0  0  0  0
  152.1984  137.5112  154.5793 N   0  0  0  0  0  0  0  0  0  0  0  0
  151.2629  137.2989  155.5495 C   0  0  0  0  0  0  0  0  0  0  0  0
  151.0150  138.1359  156.6724 C   0  0  0  0  0  0  0  0  0  0  0  0
  149.9812  137.6162  157.4392 N   0  0  0  0  0  0  0  0  0  0  0  0
  149.6310  136.5333  156.8003 C   0  0  0  0  0  0  0  0  0  0  0  0
  150.3624  136.2532  155.6663 N   0  0  0  0  0  0  0  0  0  0  0  0
  150.1873  135.1184  154.7709 C   0  0  0  0  0  0  0  0  0  0  0  0
  149.0308  134.1714  155.1553 C   0  0  0  0  0  0  0  0  0  0  0  0
  147.7102  134.9661  155.1110 C   0  0  0  0  0  0  0  0  0  0  0  0
  147.3335  135.3274  153.7970 O   0  0  0  0  0  0  0  0  0  0  0  0
  149.0573  132.8246  154.4163 C   0  0  0  0  0  0  0  0  0  0  0  0
  149.3962  132.0945  155.6155 O   0  0  0  0  0  0  0  0  0  0  0  0
  149.2554  133.2993  156.3998 C   0  0  0  0  0  0  0  0  0  0  0  0
  153.6655  140.8193  158.0829 H   0  0  0  0  0  0  0  0  0  0  0  0
  151.7002  140.5608  160.3952 H   0  0  0  0  0  0  0  0  0  0  0  0
  155.0428  139.0031  160.7904 H   0  0  0  0  0  0  0  0  0  0  0  0
  154.2834  138.5448  158.4603 H   0  0  0  0  0  0  0  0  0  0  0  0
  152.8457  138.2200  159.4511 H   0  0  0  0  0  0  0  0  0  0  0  0
  152.0225  143.0368  160.4722 H   0  0  0  0  0  0  0  0  0  0  0  0
  153.1176  142.9478  159.1011 H   0  0  0  0  0  0  0  0  0  0  0  0
  150.1651  142.1211  159.1627 H   0  0  0  0  0  0  0  0  0  0  0  0
  150.8343  143.4486  158.2521 H   0  0  0  0  0  0  0  0  0  0  0  0
  150.3218  141.3892  156.8465 H   0  0  0  0  0  0  0  0  0  0  0  0
  151.9832  141.9252  156.7219 H   0  0  0  0  0  0  0  0  0  0  0  0
  153.6591  138.8589  154.0817 H   0  0  0  0  0  0  0  0  0  0  0  0
  148.8279  135.8996  157.1471 H   0  0  0  0  0  0  0  0  0  0  0  0
  150.0463  135.5048  153.7608 H   0  0  0  0  0  0  0  0  0  0  0  0
  151.1308  134.5717  154.7428 H   0  0  0  0  0  0  0  0  0  0  0  0
  146.8889  134.3824  155.5247 H   0  0  0  0  0  0  0  0  0  0  0  0
  147.7839  135.8787  155.7032 H   0  0  0  0  0  0  0  0  0  0  0  0
  148.1153  135.4238  153.2747 H   0  0  0  0  0  0  0  0  0  0  0  0
  148.0991  132.5078  154.0041 H   0  0  0  0  0  0  0  0  0  0  0  0
  149.8378  132.7512  153.6578 H   0  0  0  0  0  0  0  0  0  0  0  0
  150.1615  133.5298  156.9574 H   0  0  0  0  0  0  0  0  0  0  0  0
  148.3984  133.2474  157.0725 H   0  0  0  0  0  0  0  0  0  0  0  0
  1  2  2  0  0  0  0
  2  6  1  0  0  0  0
  2  3  1  0  0  0  0
  3  4  1  0  0  0  0
  3 29  1  0  0  0  0
  4  5  1  0  0  0  0
  4 30  1  0  0  0  0
  4 31  1  0  0  0  0
  5 27  1  0  0  0  0
  5 10  1  0  0  0  0
  5  6  1  0  0  0  0
  6 28  1  0  0  0  0
  6  7  1  0  0  0  0
  7  8  1  0  0  0  0
  7 32  1  0  0  0  0
  7 33  1  0  0  0  0
  8  9  1  0  0  0  0
  8 34  1  0  0  0  0
  8 35  1  0  0  0  0
  9 10  1  0  0  0  0
  9 36  1  0  0  0  0
  9 37  1  0  0  0  0
 10 11  1  0  0  0  0
 11 16  1  0  0  0  0
 11 12  2  0  0  0  0
 12 13  1  0  0  0  0
 13 14  2  0  0  0  0
 13 38  1  0  0  0  0
 14 15  1  0  0  0  0
 15 19  1  0  0  0  0
 15 16  2  0  0  0  0
 16 17  1  0  0  0  0
 17 18  2  0  0  0  0
 18 19  1  0  0  0  0
 18 39  1  0  0  0  0
 19 20  1  0  0  0  0
 20 21  1  0  0  0  0
 20 40  1  0  0  0  0
 20 41  1  0  0  0  0
 21 26  1  0  0  0  0
 21 22  1  0  0  0  0
 21 24  1  0  0  0  0
 22 23  1  0  0  0  0
 22 42  1  0  0  0  0
 22 43  1  0  0  0  0
 23 44  1  0  0  0  0
 24 25  1  0  0  0  0
 24 45  1  0  0  0  0
 24 46  1  0  0  0  0
 25 26  1  0  0  0  0
 26 47  1  0  0  0  0
 26 48  1  0  0  0  0
M  END
> <s_m_source_file>
AV-unprocessed.smi

> <i_m_source_file_index>
209

> <i_lp_mmshare_version>
43012

> <i_f3d_flags>
0

> <s_epik_input>
W0NIMl0xW05IXUMoPU8pW0NAQEhdKFtDQEBIXTEyKVtDSDJdW0NIMl1bQ0gyXU4yYyhuW2NIXW4zKWMoYzM0KW5bY0hdbjRbQ0gyXUM1KFtDSDJdW09IXSlbQ0gyXU9bQ0gyXTU=

> <s_epik_cmdline>
J2VwaWtfcHl0aG9uJywgJy1waCcsICc3LjAnLCAnLXRuJywgJzgnLCAnLW1hJywgJzIwMCcsICctbWV0YWxfYmluZGluZycsICctaW1hZScsICc8aW5maWxlLm1hZT4nLCAnLW9tYWUnLCAnPG91dGZpbGUubWFlPic=

> <r_lp_tautomer_probability>
1

> <r_epik_Ionization_Penalty>
0.00113306

> <r_epik_Ionization_Penalty_Charging>
0

> <r_epik_Ionization_Penalty_Neutral>
0.00113306

> <r_epik_State_Penalty>
0.000624042

> <r_epik_Charging_Adjusted_Penalty>
0.000624042

> <i_epik_Tot_Q>
0

> <i_epik_Tot_abs_Q>
0

> <r_epik_Metal_State_Penalty>
-0

> <b_epik_Metal_Only>
0

> <s_lp_Force_Field>
OPLS_2005

> <r_lp_Energy>
56.7924

> <b_lp_Chiralities_Consistent>
1

> <s_lp_Variant>
AV-unprocessed.smi:209-3

> <Gold.Version>
5.8.1

> <Gold.Id.Protein>
6NUR|6NUR_protein|mol2

> <Gold.PLP.Fitness>
45.4043

> <Gold.PLP.PLP>
-38.0111

> <Gold.PLP.part.hbond>
-3.9291

> <Gold.PLP.part.metal>
0.0000

> <Gold.PLP.part.buried>
-6.5687

> <Gold.PLP.part.nonpolar>
-28.4121

> <Gold.PLP.part.repulsive>
0.1640

> <Gold.PLP.ligand.clash>
0.0016

> <Gold.PLP.ligand.torsion>
0.2583

> <Gold.PLP.Chemscore.Hbond>
2.5161

> <Gold.PLP.Chemscore.CHOScore>
0.0000

> <Gold.PLP.Chemscore.Metal>
0.0000

> <Gold.Chemscore.Hbonds>
donor molecule, donor type, donor heavy atom, donor atom, acceptor molecule, acceptor atom, score
      L1  H    23    44       P1  7948  0.99
      P1  H  7997  8010       L1    12  1.00
      P1  H 10752 10763       L1    14  0.57

> <Gold.PLP.Chemscore.Internal.Correction>
0.3630

> <Gold.Rescore>
     Score         DG    S(hbond)    S(metal)    S(lipo)     H(rot)  DE(clash)    DE(int)     intcor
     13.99     -14.32       2.34        0.00      66.92       2.66       0.07       0.26       ----

> <Gold.Chemscore.Fitness>
13.9947

> <Gold.Chemscore.DG>
-14.3173

> <Gold.Chemscore.ZeroCoef>
-5.4800

> <Gold.Chemscore.Hbond>
2.3419

> <Gold.Chemscore.Metal>
0.0000

> <Gold.Chemscore.Lipo>
66.9236

> <Gold.Chemscore.Internal_Hbond>
0.0000

> <Gold.Chemscore.DEClash>
0.0650

> <Gold.Chemscore.DEInternal>
0.2576

> <Gold.Chemscore.Rot>
2.6620

> <Gold.Chemscore.Internal.Correction>
   9.000000E+99

> <Gold.Chemscore.Hbonds>
donor molecule, donor type, donor heavy atom, donor atom, acceptor molecule, acceptor atom, score
      L1  H    23    44       P1  7948  0.93
      P1  H  7997  8010       L1    12  0.73
      P1  H 10752 10763       L1    14  0.42

> <Gold.Chemscore.Hbond.Weighted>
-7.8221

> <Gold.Chemscore.Metal.Weighted>
-0.0000

> <Gold.Chemscore.Lipo.Weighted>
-7.8301

> <Gold.Chemscore.Internal_Hbond.Weighted>
0.0000

> <Gold.Chemscore.DEClash.Weighted>
0.0650

> <Gold.Chemscore.DEInternal.Weighted>
0.2576

> <Gold.Chemscore.Rot.Weighted>
6.8148

> <Gold.Chemscore.Internal.Correction.Weighted>
   9.000000E+99

> <Gold.Protein.RotatedTorsions>
[ 6907 6896 6895 6894 ] final -102.24 input  -60.11 | X-H torsion
[ 7974 7965 7964 7962 ] final   17.55 input  175.53 | X-H torsion
[ 8008 7997 7996 7995 ] final   83.22 input   59.86 | X-H torsion
[ 10167 10162 10161 10158 ] final -101.37 input  -65.29 | X-H torsion
[ 10718 10713 10712 10709 ] final -168.20 input   66.30 | X-H torsion
[ 10763 10752 10751 10750 ] final   21.98 input  -60.55 | X-H torsion
[ 11005 11000 10999 10996 ] final  156.48 input  -57.11 | X-H torsion

> <Gold.Protein.ActiveResidues>
 VAL166  LYS551  ARG553  GLY616  TRP617  ASP618  TYR619  PRO620  LYS621  CYS622 
 ASP623  PHE694  ASN695  SER759  ASP760  ASP761  ALA762  ILE779  LEU786  VAL792 
 PHE793  MET794  SER795  GLU796  ALA797  LYS798  CYS799  TRP800  GLU811  SER814 

> <Gold.Protein.RotatedAtoms>
  150.7188  134.0612  159.3831 H   0  0  0  0  0  0  0  0  0  0  0  0  # atno 6907 bound_to 6896
  151.8591  135.0528  160.0477 H   0  0  0  0  0  0  0  0  0  0  0  0  # atno 6908 bound_to 6896
  152.2731  133.5365  159.5488 H   0  0  0  0  0  0  0  0  0  0  0  0  # atno 6909 bound_to 6896
  146.2214  139.8585  142.8609 H   0  0  0  0  0  0  0  0  0  0  0  0  # atno 7974 bound_to 7965
  155.9210  140.3421  155.6173 H   0  0  0  0  0  0  0  0  0  0  0  0  # atno 8008 bound_to 7997
  155.7273  140.0791  157.2323 H   0  0  0  0  0  0  0  0  0  0  0  0  # atno 8009 bound_to 7997
  154.4069  140.1594  156.2457 H   0  0  0  0  0  0  0  0  0  0  0  0  # atno 8010 bound_to 7997
  140.2420  143.3532  152.0793 H   0  0  0  0  0  0  0  0  0  0  0  0  # atno 10167 bound_to 10162
  156.6934  130.9168  151.3071 H   0  0  0  0  0  0  0  0  0  0  0  0  # atno 10718 bound_to 10713
  153.0952  135.6658  153.9777 H   0  0  0  0  0  0  0  0  0  0  0  0  # atno 10763 bound_to 10752
  153.9363  135.2998  155.3445 H   0  0  0  0  0  0  0  0  0  0  0  0  # atno 10764 bound_to 10752
  154.7370  135.5097  153.9132 H   0  0  0  0  0  0  0  0  0  0  0  0  # atno 10765 bound_to 10752
  140.1679  134.8564  157.2654 H   0  0  0  0  0  0  0  0  0  0  0  0  # atno 11005 bound_to 11000
  145.2728  141.0114  143.3762 LP  0  0  0  0  0  0  0  0  0  0  0  0  # atno 17320 bound_to 7965
  144.9210  139.4412  143.6541 LP  0  0  0  0  0  0  0  0  0  0  0  0  # atno 17321 bound_to 7965
  139.5074  144.6831  151.5957 LP  0  0  0  0  0  0  0  0  0  0  0  0  # atno 17342 bound_to 10162
  140.6106  143.9443  150.6450 LP  0  0  0  0  0  0  0  0  0  0  0  0  # atno 17343 bound_to 10162
  157.7000  130.9323  150.0757 LP  0  0  0  0  0  0  0  0  0  0  0  0  # atno 17370 bound_to 10713
  156.1781  130.3649  149.9073 LP  0  0  0  0  0  0  0  0  0  0  0  0  # atno 17371 bound_to 10713
  140.2412  134.3793  155.7480 LP  0  0  0  0  0  0  0  0  0  0  0  0  # atno 17394 bound_to 11000
  141.2215  133.7266  156.8792 LP  0  0  0  0  0  0  0  0  0  0  0  0  # atno 17395 bound_to 11000

$$$$
