AV-unprocessed.smi:2741|AV-procd|sdf|10561|dock1
  -GOLD-   2272015 13D 1   1.00000     0.00000
 Structure written by MMmdl.
 39 40  0  0  0  0  0  0  0  0  1 V2000
  151.8846  140.1588  155.9113 O   0  0  0  0  0  0  0  0  0  0  0  0
  150.8556  139.9990  156.5694 C   0  0  0  0  0  0  0  0  0  0  0  0
  150.9167  139.6917  158.0723 C   0  0  0  0  0  0  0  0  0  0  0  0
  151.7142  140.6631  158.8400 N   0  0  0  0  0  0  0  0  0  0  0  0
  151.2901  142.0063  158.8099 C   0  0  0  0  0  0  0  0  0  0  0  0
  151.9339  142.9929  159.4630 C   0  0  0  0  0  0  0  0  0  0  0  0
  151.4273  144.4269  159.4557 C   0  0  0  0  0  0  0  0  0  0  0  0
  152.1396  145.1875  160.2872 F   0  0  0  0  0  0  0  0  0  0  0  0
  151.5361  144.9391  158.2306 F   0  0  0  0  0  0  0  0  0  0  0  0
  150.1465  144.4919  159.8214 F   0  0  0  0  0  0  0  0  0  0  0  0
  153.0899  142.6014  160.2451 C   0  0  0  0  0  0  0  0  0  0  0  0
  153.5087  141.3214  160.2849 C   0  0  0  0  0  0  0  0  0  0  0  0
  152.8138  140.2640  159.5470 C   0  0  0  0  0  0  0  0  0  0  0  0
  153.1934  139.0929  159.5661 O   0  0  0  0  0  0  0  0  0  0  0  0
  149.6254  140.1005  156.0446 N   0  0  0  0  0  0  0  0  0  0  0  0
  149.3270  140.4183  154.6521 C   0  0  0  0  0  0  0  0  0  0  0  0
  148.5449  139.2877  153.9552 C   0  0  1  0  0  0  0  0  0  0  0  0
  147.2460  138.9076  154.6748 C   0  0  0  0  0  0  0  0  0  0  0  0
  146.4088  138.2346  153.5902 C   0  0  0  0  0  0  0  0  0  0  0  0
  146.6867  139.0823  152.3474 C   0  0  2  0  0  0  0  0  0  0  0  0
  146.5053  138.3469  151.1556 O   0  0  0  0  0  0  0  0  0  0  0  0
  148.1278  139.5954  152.5030 C   0  0  0  0  0  0  0  0  0  0  0  0
  149.8946  139.6554  158.4520 H   0  0  0  0  0  0  0  0  0  0  0  0
  151.3083  138.6832  158.2173 H   0  0  0  0  0  0  0  0  0  0  0  0
  150.4063  142.1840  158.2146 H   0  0  0  0  0  0  0  0  0  0  0  0
  153.6329  143.3488  160.8047 H   0  0  0  0  0  0  0  0  0  0  0  0
  154.3767  141.0667  160.8755 H   0  0  0  0  0  0  0  0  0  0  0  0
  148.8359  139.9557  156.6572 H   0  0  0  0  0  0  0  0  0  0  0  0
  148.7717  141.3559  154.5941 H   0  0  0  0  0  0  0  0  0  0  0  0
  150.2730  140.5892  154.1372 H   0  0  0  0  0  0  0  0  0  0  0  0
  149.1699  138.3931  153.9336 H   0  0  0  0  0  0  0  0  0  0  0  0
  147.4180  138.2584  155.5339 H   0  0  0  0  0  0  0  0  0  0  0  0
  146.7328  139.8025  155.0299 H   0  0  0  0  0  0  0  0  0  0  0  0
  146.7606  137.2121  153.4429 H   0  0  0  0  0  0  0  0  0  0  0  0
  145.3484  138.1905  153.8404 H   0  0  0  0  0  0  0  0  0  0  0  0
  146.0048  139.9339  152.3382 H   0  0  0  0  0  0  0  0  0  0  0  0
  145.6120  138.4568  150.8671 H   0  0  0  0  0  0  0  0  0  0  0  0
  148.1633  140.6645  152.2894 H   0  0  0  0  0  0  0  0  0  0  0  0
  148.8140  139.1080  151.8088 H   0  0  0  0  0  0  0  0  0  0  0  0
  1  2  2  0  0  0  0
  2  3  1  0  0  0  0
  2 15  1  0  0  0  0
  3  4  1  0  0  0  0
  3 23  1  0  0  0  0
  3 24  1  0  0  0  0
  4 13  1  0  0  0  0
  4  5  1  0  0  0  0
  5  6  2  0  0  0  0
  5 25  1  0  0  0  0
  6  7  1  0  0  0  0
  6 11  1  0  0  0  0
  7  8  1  0  0  0  0
  7  9  1  0  0  0  0
  7 10  1  0  0  0  0
 11 12  2  0  0  0  0
 11 26  1  0  0  0  0
 12 13  1  0  0  0  0
 12 27  1  0  0  0  0
 13 14  2  0  0  0  0
 15 16  1  0  0  0  0
 15 28  1  0  0  0  0
 16 17  1  0  0  0  0
 16 29  1  0  0  0  0
 16 30  1  0  0  0  0
 17 22  1  0  0  0  0
 17 18  1  0  0  0  0
 17 31  1  0  0  0  0
 18 19  1  0  0  0  0
 18 32  1  0  0  0  0
 18 33  1  0  0  0  0
 19 20  1  0  0  0  0
 19 34  1  0  0  0  0
 19 35  1  0  0  0  0
 20 21  1  0  0  0  0
 20 22  1  0  0  0  0
 20 36  1  0  0  0  0
 21 37  1  0  0  0  0
 22 38  1  0  0  0  0
 22 39  1  0  0  0  0
M  END
> <s_m_source_file>
AV-unprocessed.smi

> <i_m_source_file_index>
2741

> <i_lp_mmshare_version>
43012

> <i_f3d_flags>
0

> <s_epik_input>
W09IXVtDQEBIXShbQ0gyXTEpW0NIMl1bQ0gyXVtDQEhdMVtDSDJdW05IXUMoPU8pW0NIMl1uMltjSF1jKEMoRikoRilGKVtjSF1bY0hdYzI9Tw==

> <s_epik_cmdline>
J2VwaWtfcHl0aG9uJywgJy1waCcsICc3LjAnLCAnLXRuJywgJzgnLCAnLW1hJywgJzIwMCcsICctbWV0YWxfYmluZGluZycsICctaW1hZScsICc8aW5maWxlLm1hZT4nLCAnLW9tYWUnLCAnPG91dGZpbGUubWFlPic=

> <r_lp_tautomer_probability>
1

> <r_epik_Ionization_Penalty>
1.17551e-06

> <r_epik_Ionization_Penalty_Charging>
1.78841e-08

> <r_epik_Ionization_Penalty_Neutral>
1.15762e-06

> <r_epik_State_Penalty>
-0

> <r_epik_Charging_Adjusted_Penalty>
1.78841e-08

> <i_epik_Tot_Q>
0

> <i_epik_Tot_abs_Q>
0

> <r_epik_Metal_State_Penalty>
-0

> <b_epik_Metal_Only>
0

> <s_lp_Force_Field>
OPLS_2005

> <r_lp_Energy>
34.082

> <b_lp_Chiralities_Consistent>
1

> <s_lp_Variant>
AV-unprocessed.smi:2741-4

> <Gold.Version>
5.8.1

> <Gold.Id.Protein>
6NUR|6NUR_protein|mol2

> <Gold.PLP.Fitness>
46.9215

> <Gold.PLP.PLP>
-41.4839

> <Gold.PLP.part.hbond>
-2.4649

> <Gold.PLP.part.metal>
0.0000

> <Gold.PLP.part.buried>
0.5638

> <Gold.PLP.part.nonpolar>
-39.2743

> <Gold.PLP.part.repulsive>
0.0386

> <Gold.PLP.ligand.clash>
0.0000

> <Gold.PLP.ligand.torsion>
0.1424

> <Gold.PLP.Chemscore.Hbond>
1.8938

> <Gold.PLP.Chemscore.CHOScore>
0.0000

> <Gold.PLP.Chemscore.Metal>
0.0000

> <Gold.Chemscore.Hbonds>
donor molecule, donor type, donor heavy atom, donor atom, acceptor molecule, acceptor atom, score
      L1  H    21    37       P1 10171  1.00
      P1  H  7954  7966       L1    21  0.73

> <Gold.PLP.Chemscore.Internal.Correction>
0.0411

> <Gold.Rescore>
     Score         DG    S(hbond)    S(metal)    S(lipo)     H(rot)  DE(clash)    DE(int)     intcor
     14.12     -18.99       2.52        0.00      97.89       2.48       4.73       0.15       ----

> <Gold.Chemscore.Fitness>
14.1194

> <Gold.Chemscore.DG>
-18.9928

> <Gold.Chemscore.ZeroCoef>
-5.4800

> <Gold.Chemscore.Hbond>
2.5179

> <Gold.Chemscore.Metal>
0.0000

> <Gold.Chemscore.Lipo>
97.8941

> <Gold.Chemscore.Internal_Hbond>
0.0000

> <Gold.Chemscore.DEClash>
4.7270

> <Gold.Chemscore.DEInternal>
0.1463

> <Gold.Chemscore.Rot>
2.4807

> <Gold.Chemscore.Internal.Correction>
   9.000000E+99

> <Gold.Chemscore.Hbonds>
donor molecule, donor type, donor heavy atom, donor atom, acceptor molecule, acceptor atom, score
      L1  H    21    37       P1 10171  0.93
      P1  H  7954  7966       L1    21  0.70
      P1  H  7989  7998       L1     1  0.01
      P1  H  7997  8010       L1     1  0.01

> <Gold.Chemscore.Hbond.Weighted>
-8.4098

> <Gold.Chemscore.Metal.Weighted>
-0.0000

> <Gold.Chemscore.Lipo.Weighted>
-11.4536

> <Gold.Chemscore.Internal_Hbond.Weighted>
0.0000

> <Gold.Chemscore.DEClash.Weighted>
4.7270

> <Gold.Chemscore.DEInternal.Weighted>
0.1463

> <Gold.Chemscore.Rot.Weighted>
6.3507

> <Gold.Chemscore.Internal.Correction.Weighted>
   9.000000E+99

> <Gold.Protein.RotatedTorsions>
[ 6907 6896 6895 6894 ] final   27.84 input  -60.11 | X-H torsion
[ 7974 7965 7964 7962 ] final   22.32 input  175.53 | X-H torsion
[ 8008 7997 7996 7995 ] final   69.74 input   59.86 | X-H torsion
[ 10167 10162 10161 10158 ] final  132.07 input  -65.29 | X-H torsion
[ 10718 10713 10712 10709 ] final   71.70 input   66.30 | X-H torsion
[ 10763 10752 10751 10750 ] final  -83.71 input  -60.55 | X-H torsion
[ 11005 11000 10999 10996 ] final  100.60 input  -57.11 | X-H torsion

> <Gold.Protein.ActiveResidues>
 VAL166  LYS551  ARG553  GLY616  TRP617  ASP618  TYR619  PRO620  LYS621  CYS622 
 ASP623  PHE694  ASN695  SER759  ASP760  ASP761  ALA762  ILE779  LEU786  VAL792 
 PHE793  MET794  SER795  GLU796  ALA797  LYS798  CYS799  TRP800  GLU811  SER814 

> <Gold.Protein.RotatedAtoms>
  152.0082  134.9891  160.0567 H   0  0  0  0  0  0  0  0  0  0  0  0  # atno 6907 bound_to 6896
  152.1454  133.4485  159.4796 H   0  0  0  0  0  0  0  0  0  0  0  0  # atno 6908 bound_to 6896
  150.6869  134.2172  159.4425 H   0  0  0  0  0  0  0  0  0  0  0  0  # atno 6909 bound_to 6896
  146.2034  139.7901  142.8744 H   0  0  0  0  0  0  0  0  0  0  0  0  # atno 7974 bound_to 7965
  155.7281  140.3492  155.5047 H   0  0  0  0  0  0  0  0  0  0  0  0  # atno 8008 bound_to 7997
  155.9207  140.1067  157.1230 H   0  0  0  0  0  0  0  0  0  0  0  0  # atno 8009 bound_to 7997
  154.4069  140.1250  156.4663 H   0  0  0  0  0  0  0  0  0  0  0  0  # atno 8010 bound_to 7997
  139.5355  144.6678  151.4799 H   0  0  0  0  0  0  0  0  0  0  0  0  # atno 10167 bound_to 10162
  157.6465  130.9542  150.0826 H   0  0  0  0  0  0  0  0  0  0  0  0  # atno 10718 bound_to 10713
  154.5909  135.5546  153.7277 H   0  0  0  0  0  0  0  0  0  0  0  0  # atno 10763 bound_to 10752
  153.0116  135.6343  154.1850 H   0  0  0  0  0  0  0  0  0  0  0  0  # atno 10764 bound_to 10752
  154.1791  135.2888  155.3037 H   0  0  0  0  0  0  0  0  0  0  0  0  # atno 10765 bound_to 10752
  139.8771  134.9147  156.4781 H   0  0  0  0  0  0  0  0  0  0  0  0  # atno 11005 bound_to 11000
  145.3406  141.0287  143.3394 LP  0  0  0  0  0  0  0  0  0  0  0  0  # atno 17320 bound_to 7965
  144.8735  139.5005  143.6757 LP  0  0  0  0  0  0  0  0  0  0  0  0  # atno 17321 bound_to 7965
  140.6559  143.8599  150.6835 LP  0  0  0  0  0  0  0  0  0  0  0  0  # atno 17342 bound_to 10162
  140.1979  143.3983  152.1814 LP  0  0  0  0  0  0  0  0  0  0  0  0  # atno 17343 bound_to 10162
  156.1798  130.3649  149.9051 LP  0  0  0  0  0  0  0  0  0  0  0  0  # atno 17370 bound_to 10713
  156.7006  130.8931  151.3599 LP  0  0  0  0  0  0  0  0  0  0  0  0  # atno 17371 bound_to 10713
  140.8747  133.7962  155.9402 LP  0  0  0  0  0  0  0  0  0  0  0  0  # atno 17394 bound_to 11000
  140.8916  134.2488  157.5091 LP  0  0  0  0  0  0  0  0  0  0  0  0  # atno 17395 bound_to 11000

$$$$
