AV-unprocessed.smi:2370|AV-procd|sdf|9435|dock1
  -GOLD-   2272013 63D 1   1.00000     0.00000
 Structure written by MMmdl.
 37 38  0  0  0  0  0  0  0  0  1 V2000
  146.3466  139.8918  155.4398 C   0  0  0  0  0  0  0  0  0  0  0  0
  147.7101  140.2902  155.4965 O   0  0  0  0  0  0  0  0  0  0  0  0
  148.2321  140.9099  154.3204 C   0  0  0  0  0  0  0  0  0  0  0  0
  149.7184  141.2729  154.4755 C   0  0  0  0  0  0  0  0  0  0  0  0
  149.9167  142.2906  155.5033 N   0  0  0  0  0  0  0  0  0  0  0  0
  150.6113  142.1282  156.6384 C   0  0  0  0  0  0  0  0  0  0  0  0
  151.1918  141.0844  156.9381 O   0  0  0  0  0  0  0  0  0  0  0  0
  150.5693  143.2373  157.3971 N   0  0  0  0  0  0  0  0  0  0  0  0
  151.1236  143.4378  158.6892 C   0  0  0  0  0  0  0  0  0  0  0  0
  151.9729  142.4602  159.2687 C   0  0  0  0  0  0  0  0  0  0  0  0
  152.5296  142.6931  160.5424 C   0  0  0  0  0  0  0  0  0  0  0  0
  153.4303  141.6593  161.1855 C   0  0  0  0  0  0  0  0  0  0  0  0
  152.2327  143.9021  161.1992 C   0  0  0  0  0  0  0  0  0  0  0  0
  151.3975  144.8251  160.5441 C   0  0  0  0  0  0  0  0  0  0  0  0
  150.8649  144.6048  159.3234 N   0  0  0  0  0  0  0  0  0  0  0  0
  147.8123  140.0552  153.1082 C   0  0  0  0  0  0  0  0  0  0  0  0
  147.4029  141.3423  152.3913 C   0  0  0  0  0  0  0  0  0  0  0  0
  147.2659  141.9809  153.7739 C   0  0  0  0  0  0  0  0  0  0  0  0
  146.0965  139.3453  156.3490 H   0  0  0  0  0  0  0  0  0  0  0  0
  146.1477  139.2337  154.5937 H   0  0  0  0  0  0  0  0  0  0  0  0
  145.6760  140.7487  155.3833 H   0  0  0  0  0  0  0  0  0  0  0  0
  150.3068  140.3819  154.7001 H   0  0  0  0  0  0  0  0  0  0  0  0
  150.1273  141.6505  153.5390 H   0  0  0  0  0  0  0  0  0  0  0  0
  149.4650  143.1797  155.3476 H   0  0  0  0  0  0  0  0  0  0  0  0
  149.9717  143.9796  157.0644 H   0  0  0  0  0  0  0  0  0  0  0  0
  152.2123  141.5434  158.7511 H   0  0  0  0  0  0  0  0  0  0  0  0
  153.9005  142.0501  162.0883 H   0  0  0  0  0  0  0  0  0  0  0  0
  154.2187  141.3589  160.4947 H   0  0  0  0  0  0  0  0  0  0  0  0
  152.8539  140.7742  161.4553 H   0  0  0  0  0  0  0  0  0  0  0  0
  152.6364  144.1232  162.1764 H   0  0  0  0  0  0  0  0  0  0  0  0
  151.1511  145.7670  161.0115 H   0  0  0  0  0  0  0  0  0  0  0  0
  148.6181  139.5076  152.6202 H   0  0  0  0  0  0  0  0  0  0  0  0
  146.9601  139.4047  153.3143 H   0  0  0  0  0  0  0  0  0  0  0  0
  148.2119  141.7748  151.8005 H   0  0  0  0  0  0  0  0  0  0  0  0
  146.4746  141.2748  151.8236 H   0  0  0  0  0  0  0  0  0  0  0  0
  146.2526  141.8948  154.1706 H   0  0  0  0  0  0  0  0  0  0  0  0
  147.6345  143.0051  153.8365 H   0  0  0  0  0  0  0  0  0  0  0  0
  1  2  1  0  0  0  0
  1 19  1  0  0  0  0
  1 20  1  0  0  0  0
  1 21  1  0  0  0  0
  2  3  1  0  0  0  0
  3 18  1  0  0  0  0
  3  4  1  0  0  0  0
  3 16  1  0  0  0  0
  4  5  1  0  0  0  0
  4 22  1  0  0  0  0
  4 23  1  0  0  0  0
  5  6  1  0  0  0  0
  5 24  1  0  0  0  0
  6  7  2  0  0  0  0
  6  8  1  0  0  0  0
  8  9  1  0  0  0  0
  8 25  1  0  0  0  0
  9 15  1  0  0  0  0
  9 10  2  0  0  0  0
 10 11  1  0  0  0  0
 10 26  1  0  0  0  0
 11 12  1  0  0  0  0
 11 13  2  0  0  0  0
 12 27  1  0  0  0  0
 12 28  1  0  0  0  0
 12 29  1  0  0  0  0
 13 14  1  0  0  0  0
 13 30  1  0  0  0  0
 14 15  2  0  0  0  0
 14 31  1  0  0  0  0
 16 17  1  0  0  0  0
 16 32  1  0  0  0  0
 16 33  1  0  0  0  0
 17 18  1  0  0  0  0
 17 34  1  0  0  0  0
 17 35  1  0  0  0  0
 18 36  1  0  0  0  0
 18 37  1  0  0  0  0
M  END
> <s_m_source_file>
AV-unprocessed.smi

> <i_m_source_file_index>
2370

> <i_lp_mmshare_version>
43012

> <i_f3d_flags>
0

> <s_epik_input>
W0NIMl0xW0NIMl1bQ0gyXUMxKE9bQ0gzXSlbQ0gyXVtOSF1DKD1PKVtOSF1jMltjSF1jKFtDSDNdKVtjSF1bY0hdbjI=

> <s_epik_cmdline>
J2VwaWtfcHl0aG9uJywgJy1waCcsICc3LjAnLCAnLXRuJywgJzgnLCAnLW1hJywgJzIwMCcsICctbWV0YWxfYmluZGluZycsICctaW1hZScsICc8aW5maWxlLm1hZT4nLCAnLW9tYWUnLCAnPG91dGZpbGUubWFlPic=

> <r_lp_tautomer_probability>
1

> <r_epik_Ionization_Penalty>
9.08611e-05

> <r_epik_Ionization_Penalty_Charging>
0

> <r_epik_Ionization_Penalty_Neutral>
9.08611e-05

> <r_epik_State_Penalty>
-0

> <r_epik_Charging_Adjusted_Penalty>
0

> <i_epik_Tot_Q>
0

> <i_epik_Tot_abs_Q>
0

> <r_epik_Metal_State_Penalty>
-0

> <b_epik_Metal_Only>
0

> <s_lp_Force_Field>
OPLS_2005

> <r_lp_Energy>
22.0857

> <b_lp_Chiralities_Consistent>
1

> <s_lp_Variant>
AV-unprocessed.smi:2370-1

> <Gold.Version>
5.8.1

> <Gold.Id.Protein>
6NUR|6NUR_protein|mol2

> <Gold.PLP.Fitness>
42.9612

> <Gold.PLP.PLP>
-36.9941

> <Gold.PLP.part.hbond>
-2.0000

> <Gold.PLP.part.metal>
0.0000

> <Gold.PLP.part.buried>
-5.3856

> <Gold.PLP.part.nonpolar>
-28.9547

> <Gold.PLP.part.repulsive>
0.3264

> <Gold.PLP.ligand.clash>
0.0000

> <Gold.PLP.ligand.torsion>
0.1549

> <Gold.PLP.Chemscore.Hbond>
2.0000

> <Gold.PLP.Chemscore.CHOScore>
0.0000

> <Gold.PLP.Chemscore.Metal>
0.0000

> <Gold.Chemscore.Hbonds>
donor molecule, donor type, donor heavy atom, donor atom, acceptor molecule, acceptor atom, score
      L1  H     5    24       P1  8028  1.00
      L1  H     8    25       P1  8028  1.00

> <Gold.PLP.Chemscore.Internal.Correction>
0.2768

> <Gold.Rescore>
     Score         DG    S(hbond)    S(metal)    S(lipo)     H(rot)  DE(clash)    DE(int)     intcor
     17.10     -18.96       1.92        0.00      92.18       1.45       0.30       1.55       ----

> <Gold.Chemscore.Fitness>
17.1043

> <Gold.Chemscore.DG>
-18.9553

> <Gold.Chemscore.ZeroCoef>
-5.4800

> <Gold.Chemscore.Hbond>
1.9187

> <Gold.Chemscore.Metal>
0.0000

> <Gold.Chemscore.Lipo>
92.1766

> <Gold.Chemscore.Internal_Hbond>
0.0000

> <Gold.Chemscore.DEClash>
0.3038

> <Gold.Chemscore.DEInternal>
1.5471

> <Gold.Chemscore.Rot>
1.4523

> <Gold.Chemscore.Internal.Correction>
   9.000000E+99

> <Gold.Chemscore.Hbonds>
donor molecule, donor type, donor heavy atom, donor atom, acceptor molecule, acceptor atom, score
      L1  H     5    24       P1  8028  0.99
      L1  H     8    25       P1  8028  0.85

> <Gold.Chemscore.Hbond.Weighted>
-6.4085

> <Gold.Chemscore.Metal.Weighted>
-0.0000

> <Gold.Chemscore.Lipo.Weighted>
-10.7847

> <Gold.Chemscore.Internal_Hbond.Weighted>
0.0000

> <Gold.Chemscore.DEClash.Weighted>
0.3038

> <Gold.Chemscore.DEInternal.Weighted>
1.5471

> <Gold.Chemscore.Rot.Weighted>
3.7179

> <Gold.Chemscore.Internal.Correction.Weighted>
   9.000000E+99

> <Gold.Protein.RotatedTorsions>
[ 6907 6896 6895 6894 ] final  -45.14 input  -60.11 | X-H torsion
[ 7974 7965 7964 7962 ] final  139.20 input  175.53 | X-H torsion
[ 8008 7997 7996 7995 ] final   33.35 input   59.86 | X-H torsion
[ 10167 10162 10161 10158 ] final -176.12 input  -65.29 | X-H torsion
[ 10718 10713 10712 10709 ] final   81.74 input   66.30 | X-H torsion
[ 10763 10752 10751 10750 ] final   89.79 input  -60.55 | X-H torsion
[ 11005 11000 10999 10996 ] final   97.54 input  -57.11 | X-H torsion

> <Gold.Protein.ActiveResidues>
 VAL166  LYS551  ARG553  GLY616  TRP617  ASP618  TYR619  PRO620  LYS621  CYS622 
 ASP623  PHE694  ASN695  SER759  ASP760  ASP761  ALA762  ILE779  LEU786  VAL792 
 PHE793  MET794  SER795  GLU796  ALA797  LYS798  CYS799  TRP800  GLU811  SER814 

> <Gold.Protein.RotatedAtoms>
  150.9252  134.8668  159.7514 H   0  0  0  0  0  0  0  0  0  0  0  0  # atno 6907 bound_to 6896
  152.5012  134.4160  159.9474 H   0  0  0  0  0  0  0  0  0  0  0  0  # atno 6908 bound_to 6896
  151.4191  133.3664  159.2789 H   0  0  0  0  0  0  0  0  0  0  0  0  # atno 6909 bound_to 6896
  144.9301  139.5058  143.5622 H   0  0  0  0  0  0  0  0  0  0  0  0  # atno 7974 bound_to 7965
  155.1371  140.3262  155.4460 H   0  0  0  0  0  0  0  0  0  0  0  0  # atno 8008 bound_to 7997
  156.2616  140.2000  156.6438 H   0  0  0  0  0  0  0  0  0  0  0  0  # atno 8009 bound_to 7997
  154.6569  140.0552  157.0006 H   0  0  0  0  0  0  0  0  0  0  0  0  # atno 8010 bound_to 7997
  139.5546  144.2023  152.1136 H   0  0  0  0  0  0  0  0  0  0  0  0  # atno 10167 bound_to 10162
  157.6840  131.0017  150.2272 H   0  0  0  0  0  0  0  0  0  0  0  0  # atno 10718 bound_to 10713
  153.1908  135.4457  155.0146 H   0  0  0  0  0  0  0  0  0  0  0  0  # atno 10763 bound_to 10752
  154.8089  135.3286  154.7361 H   0  0  0  0  0  0  0  0  0  0  0  0  # atno 10764 bound_to 10752
  153.7815  135.6977  153.4943 H   0  0  0  0  0  0  0  0  0  0  0  0  # atno 10765 bound_to 10752
  139.8775  134.9006  156.4323 H   0  0  0  0  0  0  0  0  0  0  0  0  # atno 11005 bound_to 11000
  146.3243  139.8245  142.8920 LP  0  0  0  0  0  0  0  0  0  0  0  0  # atno 17320 bound_to 7965
  145.3156  141.0231  143.3530 LP  0  0  0  0  0  0  0  0  0  0  0  0  # atno 17321 bound_to 7965
  140.1524  144.5102  150.6679 LP  0  0  0  0  0  0  0  0  0  0  0  0  # atno 17342 bound_to 10162
  140.6816  143.2329  151.5370 LP  0  0  0  0  0  0  0  0  0  0  0  0  # atno 17343 bound_to 10162
  156.2912  130.3746  149.7840 LP  0  0  0  0  0  0  0  0  0  0  0  0  # atno 17370 bound_to 10713
  156.5499  130.8337  151.3296 LP  0  0  0  0  0  0  0  0  0  0  0  0  # atno 17371 bound_to 10713
  140.9058  133.7747  155.9733 LP  0  0  0  0  0  0  0  0  0  0  0  0  # atno 17394 bound_to 11000
  140.8601  134.2851  157.5238 LP  0  0  0  0  0  0  0  0  0  0  0  0  # atno 17395 bound_to 11000

$$$$
