AV-unprocessed.smi:1915|AV-procd|sdf|7763|dock3
  -GOLD-   22720 9503D 1   1.00000     0.00000
 Structure written by MMmdl.
 45 46  0  0  0  0  0  0  0  0  2 V2000
  151.2582  141.6693  158.8392 C   0  0  0  0  0  0  0  0  0  0  0  0
  151.1842  140.4752  157.8720 C   0  0  0  0  0  0  0  0  0  0  0  0
  152.0298  139.3065  158.4000 C   0  0  0  0  0  0  0  0  0  0  0  0
  151.5977  140.8304  156.4260 C   0  0  0  0  0  0  0  0  0  0  0  0
  151.4651  139.7072  155.4978 N   0  0  0  0  0  0  0  0  0  0  0  0
  150.1509  139.2648  155.0594 C   0  0  0  0  0  0  0  0  0  0  0  0
  150.3810  137.9216  154.3329 C   0  0  2  0  0  0  0  0  0  0  0  0
  149.8292  136.7225  155.1191 C   0  0  0  0  0  0  0  0  0  0  0  0
  150.0326  136.6289  156.3303 O   0  0  0  0  0  0  0  0  0  0  0  0
  149.1500  135.8036  154.4142 N   0  0  0  0  0  0  0  0  0  0  0  0
  148.5512  134.5877  154.9608 C   0  0  0  0  0  0  0  0  0  0  0  0
  148.8989  133.3235  154.1482 C   0  0  0  0  0  0  0  0  0  0  0  0
  147.8228  132.9087  153.1592 C   0  0  0  0  0  0  0  0  0  0  0  0
  147.2363  131.6251  153.1900 C   0  0  0  0  0  0  0  0  0  0  0  0
  146.2699  131.2852  152.2206 C   0  0  0  0  0  0  0  0  0  0  0  0
  145.9094  132.2350  151.2424 C   0  0  0  0  0  0  0  0  0  0  0  0
  146.5252  133.5026  151.2586 C   0  0  0  0  0  0  0  0  0  0  0  0
  147.4477  133.7900  152.2030 N   0  3  0  0  0  0  0  0  0  0  0  0
  151.9086  137.8171  154.1596 C   0  0  0  0  0  0  0  0  0  0  0  0
  152.4541  138.9395  155.0255 C   0  0  0  0  0  0  0  0  0  0  0  0
  153.6551  139.0789  155.2515 O   0  0  0  0  0  0  0  0  0  0  0  0
  152.2595  142.1003  158.8599 H   0  0  0  0  0  0  0  0  0  0  0  0
  151.0062  141.3667  159.8558 H   0  0  0  0  0  0  0  0  0  0  0  0
  150.5592  142.4571  158.5597 H   0  0  0  0  0  0  0  0  0  0  0  0
  150.1477  140.1361  157.8492 H   0  0  0  0  0  0  0  0  0  0  0  0
  153.0857  139.5739  158.4548 H   0  0  0  0  0  0  0  0  0  0  0  0
  151.9412  138.4326  157.7540 H   0  0  0  0  0  0  0  0  0  0  0  0
  151.7098  139.0080  159.3986 H   0  0  0  0  0  0  0  0  0  0  0  0
  151.0103  141.6777  156.0681 H   0  0  0  0  0  0  0  0  0  0  0  0
  152.6356  141.1655  156.4139 H   0  0  0  0  0  0  0  0  0  0  0  0
  149.4675  139.1802  155.9063 H   0  0  0  0  0  0  0  0  0  0  0  0
  149.7332  140.0055  154.3763 H   0  0  0  0  0  0  0  0  0  0  0  0
  149.9011  137.9548  153.3534 H   0  0  0  0  0  0  0  0  0  0  0  0
  149.0279  135.9643  153.4245 H   0  0  0  0  0  0  0  0  0  0  0  0
  148.8423  134.4547  156.0042 H   0  0  0  0  0  0  0  0  0  0  0  0
  147.4697  134.7249  154.9666 H   0  0  0  0  0  0  0  0  0  0  0  0
  149.8270  133.4891  153.6000 H   0  0  0  0  0  0  0  0  0  0  0  0
  149.0963  132.4931  154.8277 H   0  0  0  0  0  0  0  0  0  0  0  0
  147.5310  130.9051  153.9394 H   0  0  0  0  0  0  0  0  0  0  0  0
  145.8140  130.3060  152.2252 H   0  0  0  0  0  0  0  0  0  0  0  0
  145.1735  131.9930  150.4894 H   0  0  0  0  0  0  0  0  0  0  0  0
  146.3139  134.2875  150.5471 H   0  0  0  0  0  0  0  0  0  0  0  0
  152.3229  136.8582  154.4743 H   0  0  0  0  0  0  0  0  0  0  0  0
  152.1993  137.9858  153.1223 H   0  0  0  0  0  0  0  0  0  0  0  0
  147.8868  134.7107  152.1902 H   0  0  0  0  0  0  0  0  0  0  0  0
  1  2  1  0  0  0  0
  1 22  1  0  0  0  0
  1 23  1  0  0  0  0
  1 24  1  0  0  0  0
  2  3  1  0  0  0  0
  2  4  1  0  0  0  0
  2 25  1  0  0  0  0
  3 26  1  0  0  0  0
  3 27  1  0  0  0  0
  3 28  1  0  0  0  0
  4  5  1  0  0  0  0
  4 29  1  0  0  0  0
  4 30  1  0  0  0  0
  5 20  1  0  0  0  0
  5  6  1  0  0  0  0
  6  7  1  0  0  0  0
  6 31  1  0  0  0  0
  6 32  1  0  0  0  0
  7  8  1  0  0  0  0
  7 19  1  0  0  0  0
  7 33  1  0  0  0  0
  8  9  2  0  0  0  0
  8 10  1  0  0  0  0
 10 11  1  0  0  0  0
 10 34  1  0  0  0  0
 11 12  1  0  0  0  0
 11 35  1  0  0  0  0
 11 36  1  0  0  0  0
 12 13  1  0  0  0  0
 12 37  1  0  0  0  0
 12 38  1  0  0  0  0
 13 18  1  0  0  0  0
 13 14  2  0  0  0  0
 14 15  1  0  0  0  0
 14 39  1  0  0  0  0
 15 16  2  0  0  0  0
 15 40  1  0  0  0  0
 16 17  1  0  0  0  0
 16 41  1  0  0  0  0
 17 18  2  0  0  0  0
 17 42  1  0  0  0  0
 18 45  1  0  0  0  0
 19 20  1  0  0  0  0
 19 43  1  0  0  0  0
 19 44  1  0  0  0  0
 20 21  2  0  0  0  0
M  CHG  1  18   1
M  END
> <s_m_source_file>
AV-unprocessed.smi

> <i_m_source_file_index>
1915

> <i_lp_mmshare_version>
43012

> <i_f3d_flags>
0

> <s_epik_input>
W0NIM11bQ0hdKFtDSDNdKVtDSDJdTjFbQ0gyXVtDQEhdKFtDSDJdQzE9TylDKD1PKVtOSF1bQ0gyXVtDSDJdYzJbY0hdW2NIXVtjSF1bY0hdbjI=

> <s_epik_cmdline>
J2VwaWtfcHl0aG9uJywgJy1waCcsICc3LjAnLCAnLXRuJywgJzgnLCAnLW1hJywgJzIwMCcsICctbWV0YWxfYmluZGluZycsICctaW1hZScsICc8aW5maWxlLm1hZT4nLCAnLW9tYWUnLCAnPG91dGZpbGUubWFlPic=

> <r_epik_Ionization_Penalty>
1.88249

> <r_epik_Ionization_Penalty_Charging>
1.88249

> <r_epik_Ionization_Penalty_Neutral>
3.64574e-08

> <r_epik_State_Penalty>
2.00238

> <r_epik_Charging_Adjusted_Penalty>
3.88487

> <i_epik_Tot_Q>
1

> <i_epik_Tot_abs_Q>
1

> <r_epik_Metal_State_Penalty>
2.02676

> <b_epik_Metal_Only>
0

> <s_lp_Force_Field>
OPLS_2005

> <r_lp_Energy>
20.6112

> <b_lp_Chiralities_Consistent>
1

> <s_lp_Variant>
AV-unprocessed.smi:1915-4

> <Gold.Version>
5.8.1

> <Gold.Id.Protein>
6NUR|6NUR_protein|mol2

> <Gold.PLP.Fitness>
50.2314

> <Gold.PLP.PLP>
-39.9002

> <Gold.PLP.part.hbond>
-2.7269

> <Gold.PLP.part.metal>
0.0000

> <Gold.PLP.part.buried>
-4.7806

> <Gold.PLP.part.nonpolar>
-33.1485

> <Gold.PLP.part.repulsive>
0.0597

> <Gold.PLP.ligand.clash>
0.0000

> <Gold.PLP.ligand.torsion>
0.8737

> <Gold.PLP.Chemscore.Hbond>
3.9760

> <Gold.PLP.Chemscore.CHOScore>
0.0000

> <Gold.PLP.Chemscore.Metal>
0.0000

> <Gold.Chemscore.Hbonds>
donor molecule, donor type, donor heavy atom, donor atom, acceptor molecule, acceptor atom, score
      L1  H    10    34       P1  7948  1.00
      L1  H    18    45       P1  7948  2.00
      P1  H  7997  8009       L1    21  0.94

> <Gold.PLP.Chemscore.Internal.Correction>
0.1506

> <Gold.Rescore>
     Score         DG    S(hbond)    S(metal)    S(lipo)     H(rot)  DE(clash)    DE(int)     intcor
     19.03     -19.76       2.80        0.00      83.01       1.86       0.01       0.72       ----

> <Gold.Chemscore.Fitness>
19.0310

> <Gold.Chemscore.DG>
-19.7583

> <Gold.Chemscore.ZeroCoef>
-5.4800

> <Gold.Chemscore.Hbond>
2.7957

> <Gold.Chemscore.Metal>
0.0000

> <Gold.Chemscore.Lipo>
83.0085

> <Gold.Chemscore.Internal_Hbond>
0.0000

> <Gold.Chemscore.DEClash>
0.0089

> <Gold.Chemscore.DEInternal>
0.7184

> <Gold.Chemscore.Rot>
1.8638

> <Gold.Chemscore.Internal.Correction>
   9.000000E+99

> <Gold.Chemscore.Hbonds>
donor molecule, donor type, donor heavy atom, donor atom, acceptor molecule, acceptor atom, score
      L1  H    10    34       P1  7948  0.90
      L1  H    18    45       P1  7948  0.50
      P1  H  7997  8009       L1    21  0.84

> <Gold.Chemscore.Hbond.Weighted>
-9.3377

> <Gold.Chemscore.Metal.Weighted>
-0.0000

> <Gold.Chemscore.Lipo.Weighted>
-9.7120

> <Gold.Chemscore.Internal_Hbond.Weighted>
0.0000

> <Gold.Chemscore.DEClash.Weighted>
0.0089

> <Gold.Chemscore.DEInternal.Weighted>
0.7184

> <Gold.Chemscore.Rot.Weighted>
4.7713

> <Gold.Chemscore.Internal.Correction.Weighted>
   9.000000E+99

> <Gold.Protein.RotatedTorsions>
[ 6907 6896 6895 6894 ] final   14.07 input  -60.11 | X-H torsion
[ 7974 7965 7964 7962 ] final  -22.18 input  175.53 | X-H torsion
[ 8008 7997 7996 7995 ] final -145.43 input   59.86 | X-H torsion
[ 10167 10162 10161 10158 ] final  127.87 input  -65.29 | X-H torsion
[ 10718 10713 10712 10709 ] final  130.64 input   66.30 | X-H torsion
[ 10763 10752 10751 10750 ] final  -66.21 input  -60.55 | X-H torsion
[ 11005 11000 10999 10996 ] final   80.20 input  -57.11 | X-H torsion

> <Gold.Protein.ActiveResidues>
 VAL166  LYS551  ARG553  GLY616  TRP617  ASP618  TYR619  PRO620  LYS621  CYS622 
 ASP623  PHE694  ASN695  SER759  ASP760  ASP761  ALA762  ILE779  LEU786  VAL792 
 PHE793  MET794  SER795  GLU796  ALA797  LYS798  CYS799  TRP800  GLU811  SER814 

> <Gold.Protein.RotatedAtoms>
  151.7964  135.0721  160.0394 H   0  0  0  0  0  0  0  0  0  0  0  0  # atno 6907 bound_to 6896
  152.3120  133.5758  159.5695 H   0  0  0  0  0  0  0  0  0  0  0  0  # atno 6908 bound_to 6896
  150.7325  134.0054  159.3694 H   0  0  0  0  0  0  0  0  0  0  0  0  # atno 6909 bound_to 6896
  146.1690  140.4444  142.8540 H   0  0  0  0  0  0  0  0  0  0  0  0  # atno 7974 bound_to 7965
  155.5430  140.0610  157.2866 H   0  0  0  0  0  0  0  0  0  0  0  0  # atno 8008 bound_to 7997
  154.4445  140.1916  156.0654 H   0  0  0  0  0  0  0  0  0  0  0  0  # atno 8009 bound_to 7997
  156.0571  140.3277  155.7422 H   0  0  0  0  0  0  0  0  0  0  0  0  # atno 8010 bound_to 7997
  139.5556  144.6846  151.4193 H   0  0  0  0  0  0  0  0  0  0  0  0  # atno 10167 bound_to 10162
  157.5043  131.1095  150.9383 H   0  0  0  0  0  0  0  0  0  0  0  0  # atno 10718 bound_to 10713
  154.3565  135.6125  153.5669 H   0  0  0  0  0  0  0  0  0  0  0  0  # atno 10763 bound_to 10752
  152.9795  135.5805  154.4683 H   0  0  0  0  0  0  0  0  0  0  0  0  # atno 10764 bound_to 10752
  154.4413  135.2850  155.1823 H   0  0  0  0  0  0  0  0  0  0  0  0  # atno 10765 bound_to 10752
  139.9143  134.7902  156.1878 H   0  0  0  0  0  0  0  0  0  0  0  0  # atno 11005 bound_to 11000
  144.8135  140.6427  143.6399 LP  0  0  0  0  0  0  0  0  0  0  0  0  # atno 17320 bound_to 7965
  145.4390  139.1538  143.3981 LP  0  0  0  0  0  0  0  0  0  0  0  0  # atno 17321 bound_to 7965
  140.6828  143.8043  150.7144 LP  0  0  0  0  0  0  0  0  0  0  0  0  # atno 17342 bound_to 10162
  140.1501  143.4365  152.2137 LP  0  0  0  0  0  0  0  0  0  0  0  0  # atno 17343 bound_to 10162
  157.0044  130.5612  149.5314 LP  0  0  0  0  0  0  0  0  0  0  0  0  # atno 17370 bound_to 10713
  156.0248  130.5342  150.8377 LP  0  0  0  0  0  0  0  0  0  0  0  0  # atno 17371 bound_to 10713
  141.0602  133.6845  156.1938 LP  0  0  0  0  0  0  0  0  0  0  0  0  # atno 17394 bound_to 11000
  140.6673  134.4905  157.5586 LP  0  0  0  0  0  0  0  0  0  0  0  0  # atno 17395 bound_to 11000

$$$$
