AV-unprocessed.smi:648|AV-procd|sdf|3173|dock5
  -GOLD-   22720 0 93D 1   1.00000     0.00000
 Structure written by MMmdl.
 46 47  0  0  0  0  0  0  0  0  2 V2000
  142.3964  136.1821  154.2239 C   0  0  0  0  0  0  0  0  0  0  0  0
  143.7253  135.9267  153.4992 C   0  0  1  0  0  0  0  0  0  0  0  0
  143.5327  134.9945  152.2886 C   0  0  0  0  0  0  0  0  0  0  0  0
  144.8444  134.6911  151.5263 C   0  0  0  0  0  0  0  0  0  0  0  0
  145.7252  133.7026  152.3253 C   0  0  0  0  0  0  0  0  0  0  0  0
  144.4869  133.9943  150.1970 C   0  0  0  0  0  0  0  0  0  0  0  0
  145.5879  136.0193  151.1940 C   0  0  0  0  0  0  0  0  0  0  0  0
  145.7553  137.0384  152.3600 C   0  0  2  0  0  0  0  0  0  0  0  0
  146.3035  138.3846  151.8079 C   0  0  0  0  0  0  0  0  0  0  0  0
  147.6690  138.3200  151.4484 O   0  0  0  0  0  0  0  0  0  0  0  0
  146.7441  136.4759  153.3188 N   0  3  0  0  0  0  0  0  0  0  0  0
  147.1059  137.2709  154.5161 C   0  0  0  0  0  0  0  0  0  0  0  0
  148.4445  136.7945  155.1029 C   0  0  0  0  0  0  0  0  0  0  0  0
  149.4495  137.8432  155.0915 N   0  0  0  0  0  0  0  0  0  0  0  0
  149.9747  138.5331  154.0773 C   0  0  0  0  0  0  0  0  0  0  0  0
  150.8902  139.4165  154.4488 N   0  0  0  0  0  0  0  0  0  0  0  0
  150.8654  139.2185  155.8004 C   0  0  0  0  0  0  0  0  0  0  0  0
  150.0173  138.2875  156.2375 N   0  0  0  0  0  0  0  0  0  0  0  0
  144.3792  137.2463  153.0482 C   0  0  0  0  0  0  0  0  0  0  0  0
  141.6751  136.6760  153.5722 H   0  0  0  0  0  0  0  0  0  0  0  0
  142.5424  136.8150  155.1000 H   0  0  0  0  0  0  0  0  0  0  0  0
  141.9505  135.2477  154.5661 H   0  0  0  0  0  0  0  0  0  0  0  0
  144.3807  135.4373  154.2181 H   0  0  0  0  0  0  0  0  0  0  0  0
  143.0684  134.0611  152.6108 H   0  0  0  0  0  0  0  0  0  0  0  0
  142.8191  135.4600  151.6067 H   0  0  0  0  0  0  0  0  0  0  0  0
  146.6790  133.5302  151.8261 H   0  0  0  0  0  0  0  0  0  0  0  0
  145.2336  132.7339  152.4245 H   0  0  0  0  0  0  0  0  0  0  0  0
  145.9399  134.0379  153.3369 H   0  0  0  0  0  0  0  0  0  0  0  0
  145.3810  133.7579  149.6189 H   0  0  0  0  0  0  0  0  0  0  0  0
  143.8505  134.6210  149.5707 H   0  0  0  0  0  0  0  0  0  0  0  0
  143.9506  133.0601  150.3676 H   0  0  0  0  0  0  0  0  0  0  0  0
  146.5608  135.7980  150.7522 H   0  0  0  0  0  0  0  0  0  0  0  0
  145.0225  136.5056  150.3984 H   0  0  0  0  0  0  0  0  0  0  0  0
  145.7561  138.6970  150.9185 H   0  0  0  0  0  0  0  0  0  0  0  0
  146.1843  139.1769  152.5479 H   0  0  0  0  0  0  0  0  0  0  0  0
  148.0867  137.6456  151.9626 H   0  0  0  0  0  0  0  0  0  0  0  0
  146.3603  135.5997  153.6424 H   0  0  0  0  0  0  0  0  0  0  0  0
  147.1817  138.3212  154.2344 H   0  0  0  0  0  0  0  0  0  0  0  0
  146.3388  137.2105  155.2859 H   0  0  0  0  0  0  0  0  0  0  0  0
  148.3111  136.4446  156.1274 H   0  0  0  0  0  0  0  0  0  0  0  0
  148.8267  135.9500  154.5283 H   0  0  0  0  0  0  0  0  0  0  0  0
  149.6918  138.3788  153.0461 H   0  0  0  0  0  0  0  0  0  0  0  0
  151.4933  139.7737  156.4818 H   0  0  0  0  0  0  0  0  0  0  0  0
  143.6981  137.7380  152.3524 H   0  0  0  0  0  0  0  0  0  0  0  0
  144.4577  137.9296  153.8925 H   0  0  0  0  0  0  0  0  0  0  0  0
  147.5954  136.2753  152.8137 H   0  0  0  0  0  0  0  0  0  0  0  0
  1  2  1  0  0  0  0
  1 20  1  0  0  0  0
  1 21  1  0  0  0  0
  1 22  1  0  0  0  0
  2 19  1  0  0  0  0
  2  3  1  0  0  0  0
  2 23  1  0  0  0  0
  3  4  1  0  0  0  0
  3 24  1  0  0  0  0
  3 25  1  0  0  0  0
  4  5  1  0  0  0  0
  4  6  1  0  0  0  0
  4  7  1  0  0  0  0
  5 26  1  0  0  0  0
  5 27  1  0  0  0  0
  5 28  1  0  0  0  0
  6 29  1  0  0  0  0
  6 30  1  0  0  0  0
  6 31  1  0  0  0  0
  7  8  1  0  0  0  0
  7 32  1  0  0  0  0
  7 33  1  0  0  0  0
  8  9  1  0  0  0  0
  8 11  1  0  0  0  0
  8 19  1  0  0  0  0
  9 10  1  0  0  0  0
  9 34  1  0  0  0  0
  9 35  1  0  0  0  0
 10 36  1  0  0  0  0
 11 12  1  0  0  0  0
 11 37  1  0  0  0  0
 11 46  1  0  0  0  0
 12 13  1  0  0  0  0
 12 38  1  0  0  0  0
 12 39  1  0  0  0  0
 13 14  1  0  0  0  0
 13 40  1  0  0  0  0
 13 41  1  0  0  0  0
 14 18  1  0  0  0  0
 14 15  1  0  0  0  0
 15 16  2  0  0  0  0
 15 42  1  0  0  0  0
 16 17  1  0  0  0  0
 17 18  2  0  0  0  0
 17 43  1  0  0  0  0
 19 44  1  0  0  0  0
 19 45  1  0  0  0  0
M  CHG  1  11   1
M  END
> <s_m_source_file>
AV-unprocessed.smi

> <i_m_source_file_index>
648

> <i_lp_mmshare_version>
43012

> <i_f3d_flags>
0

> <s_epik_input>
W0NIM11DMShbQ0gzXSlbQ0gyXVtDQEBIXShbQ0gzXSlbQ0gyXVtDQF0oW0NIMl0xKShbQ0gyXVtPSF0pW05IXVtDSDJdW0NIMl1uMltjSF1uW2NIXW4y

> <s_epik_cmdline>
J2VwaWtfcHl0aG9uJywgJy1waCcsICc3LjAnLCAnLXRuJywgJzgnLCAnLW1hJywgJzIwMCcsICctbWV0YWxfYmluZGluZycsICctaW1hZScsICc8aW5maWxlLm1hZT4nLCAnLW9tYWUnLCAnPG91dGZpbGUubWFlPic=

> <r_lp_tautomer_probability>
1

> <r_epik_Ionization_Penalty>
0.00942316

> <r_epik_Ionization_Penalty_Charging>
0.00942185

> <r_epik_Ionization_Penalty_Neutral>
1.31257e-06

> <r_epik_State_Penalty>
0.00715409

> <r_epik_Charging_Adjusted_Penalty>
0.0165759

> <i_epik_Tot_Q>
1

> <i_epik_Tot_abs_Q>
1

> <r_epik_Metal_State_Penalty>
0.00715563

> <b_epik_Metal_Only>
0

> <s_lp_Force_Field>
OPLS_2005

> <r_lp_Energy>
29.0097

> <b_lp_Chiralities_Consistent>
1

> <s_lp_Variant>
AV-unprocessed.smi:648-4

> <Gold.Version>
5.8.1

> <Gold.Id.Protein>
6NUR|6NUR_protein|mol2

> <Gold.PLP.Fitness>
48.8074

> <Gold.PLP.PLP>
-29.5177

> <Gold.PLP.part.hbond>
-4.7833

> <Gold.PLP.part.metal>
0.0000

> <Gold.PLP.part.buried>
-1.1338

> <Gold.PLP.part.nonpolar>
-24.0692

> <Gold.PLP.part.repulsive>
0.1351

> <Gold.PLP.ligand.clash>
0.0000

> <Gold.PLP.ligand.torsion>
0.6168

> <Gold.PLP.Chemscore.Hbond>
4.8480

> <Gold.PLP.Chemscore.CHOScore>
1.9842

> <Gold.PLP.Chemscore.Metal>
0.0000

> <Gold.Chemscore.Hbonds>
donor molecule, donor type, donor heavy atom, donor atom, acceptor molecule, acceptor atom, score
      L1  H    10    36       P1  7948  0.83
      L1  H    11    46       P1  7948  2.00
      P1  H  7954  7966       L1    10  1.00
      P1  H  7989  7998       L1    16  1.00
      L1  C    15    42       P1  7948  1.00
      L1  C    15    42       P1  7957  1.00

> <Gold.PLP.Chemscore.Internal.Correction>
0.0268

> <Gold.Rescore>
     Score         DG    S(hbond)    S(metal)    S(lipo)     H(rot)  DE(clash)    DE(int)     intcor
     14.11     -14.86       3.38        0.00      53.07       3.17       0.04       0.71       ----

> <Gold.Chemscore.Fitness>
14.1106

> <Gold.Chemscore.DG>
-14.8583

> <Gold.Chemscore.ZeroCoef>
-5.4800

> <Gold.Chemscore.Hbond>
3.3825

> <Gold.Chemscore.Metal>
0.0000

> <Gold.Chemscore.Lipo>
53.0650

> <Gold.Chemscore.Internal_Hbond>
0.0000

> <Gold.Chemscore.DEClash>
0.0414

> <Gold.Chemscore.DEInternal>
0.7063

> <Gold.Chemscore.Rot>
3.1750

> <Gold.Chemscore.Internal.Correction>
   9.000000E+99

> <Gold.Chemscore.Hbonds>
donor molecule, donor type, donor heavy atom, donor atom, acceptor molecule, acceptor atom, score
      L1  H    10    36       P1  7948  0.83
      L1  H    11    46       P1  7948  1.00
      P1  H  7954  7966       L1    10  0.25
      P1  H  7989  7998       L1    16  1.00

> <Gold.Chemscore.Hbond.Weighted>
-11.2976

> <Gold.Chemscore.Metal.Weighted>
-0.0000

> <Gold.Chemscore.Lipo.Weighted>
-6.2086

> <Gold.Chemscore.Internal_Hbond.Weighted>
0.0000

> <Gold.Chemscore.DEClash.Weighted>
0.0414

> <Gold.Chemscore.DEInternal.Weighted>
0.7063

> <Gold.Chemscore.Rot.Weighted>
8.1279

> <Gold.Chemscore.Internal.Correction.Weighted>
   9.000000E+99

> <Gold.Protein.RotatedTorsions>
[ 6907 6896 6895 6894 ] final  126.85 input  -60.11 | X-H torsion
[ 7974 7965 7964 7962 ] final  161.58 input  175.53 | X-H torsion
[ 8008 7997 7996 7995 ] final   69.78 input   59.86 | X-H torsion
[ 10167 10162 10161 10158 ] final   19.66 input  -65.29 | X-H torsion
[ 10718 10713 10712 10709 ] final   23.30 input   66.30 | X-H torsion
[ 10763 10752 10751 10750 ] final  170.71 input  -60.55 | X-H torsion
[ 11005 11000 10999 10996 ] final  -63.94 input  -57.11 | X-H torsion

> <Gold.Protein.ActiveResidues>
 VAL166  LYS551  ARG553  GLY616  TRP617  ASP618  TYR619  PRO620  LYS621  CYS622 
 ASP623  PHE694  ASN695  SER759  ASP760  ASP761  ALA762  ILE779  LEU786  VAL792 
 PHE793  MET794  SER795  GLU796  ALA797  LYS798  CYS799  TRP800  GLU811  SER814 

> <Gold.Protein.RotatedAtoms>
  152.3866  133.6620  159.6203 H   0  0  0  0  0  0  0  0  0  0  0  0  # atno 6907 bound_to 6896
  150.7784  133.9025  159.3354 H   0  0  0  0  0  0  0  0  0  0  0  0  # atno 6908 bound_to 6896
  151.6820  135.0961  160.0269 H   0  0  0  0  0  0  0  0  0  0  0  0  # atno 6909 bound_to 6896
  144.7679  139.7918  143.6308 H   0  0  0  0  0  0  0  0  0  0  0  0  # atno 7974 bound_to 7965
  155.7288  140.3492  155.5050 H   0  0  0  0  0  0  0  0  0  0  0  0  # atno 8008 bound_to 7997
  155.9201  140.1065  157.1235 H   0  0  0  0  0  0  0  0  0  0  0  0  # atno 8009 bound_to 7997
  154.4068  140.1251  156.4655 H   0  0  0  0  0  0  0  0  0  0  0  0  # atno 8010 bound_to 7997
  140.5562  143.9419  150.6611 H   0  0  0  0  0  0  0  0  0  0  0  0  # atno 10167 bound_to 10162
  157.1642  130.6731  149.6055 H   0  0  0  0  0  0  0  0  0  0  0  0  # atno 10718 bound_to 10713
  154.4014  135.2755  155.2094 H   0  0  0  0  0  0  0  0  0  0  0  0  # atno 10763 bound_to 10752
  154.4118  135.6020  153.5961 H   0  0  0  0  0  0  0  0  0  0  0  0  # atno 10764 bound_to 10752
  152.9831  135.5951  154.4283 H   0  0  0  0  0  0  0  0  0  0  0  0  # atno 10765 bound_to 10752
  141.1409  133.6658  156.5756 H   0  0  0  0  0  0  0  0  0  0  0  0  # atno 11005 bound_to 11000
  146.1801  139.4990  142.9872 LP  0  0  0  0  0  0  0  0  0  0  0  0  # atno 17320 bound_to 7965
  145.6414  141.0283  143.1809 LP  0  0  0  0  0  0  0  0  0  0  0  0  # atno 17321 bound_to 7965
  140.2858  143.3358  152.1108 LP  0  0  0  0  0  0  0  0  0  0  0  0  # atno 17342 bound_to 10162
  139.5049  144.6785  151.6069 LP  0  0  0  0  0  0  0  0  0  0  0  0  # atno 17343 bound_to 10162
  155.9748  130.4701  150.6418 LP  0  0  0  0  0  0  0  0  0  0  0  0  # atno 17370 bound_to 10713
  157.4104  131.0823  151.1226 LP  0  0  0  0  0  0  0  0  0  0  0  0  # atno 17371 bound_to 10713
  140.3878  134.7467  157.4702 LP  0  0  0  0  0  0  0  0  0  0  0  0  # atno 17394 bound_to 11000
  140.0589  134.6024  155.8772 LP  0  0  0  0  0  0  0  0  0  0  0  0  # atno 17395 bound_to 11000

$$$$
