AV-unprocessed.smi:1525|AV-procd|sdf|6143|dock3
  -GOLD-   22720 6283D 1   1.00000     0.00000
 Structure written by MMmdl.
 49 51  0  0  0  0  0  0  0  0  2 V2000
  150.2037  134.2320  155.8116 O   0  0  0  0  0  0  0  0  0  0  0  0
  149.7895  134.7938  154.7977 C   0  0  0  0  0  0  0  0  0  0  0  0
  149.9236  136.1078  154.5701 N   0  0  0  0  0  0  0  0  0  0  0  0
  150.5550  137.0529  155.4828 C   0  0  0  0  0  0  0  0  0  0  0  0
  150.2919  138.5058  155.0453 C   0  0  0  0  0  0  0  0  0  0  0  0
  150.9197  139.5255  155.8830 N   0  0  0  0  0  0  0  0  0  0  0  0
  150.3749  140.8474  155.5903 C   0  0  0  0  0  0  0  0  0  0  0  0
  151.0162  141.9417  156.4611 C   0  0  0  0  0  0  0  0  0  0  0  0
  150.8392  141.6194  157.8363 O   0  0  0  0  0  0  0  0  0  0  0  0
  151.3972  140.3550  158.1786 C   0  0  0  0  0  0  0  0  0  0  0  0
  150.7614  139.2545  157.3106 C   0  0  0  0  0  0  0  0  0  0  0  0
  149.1302  134.1897  153.7950 N   0  0  0  0  0  0  0  0  0  0  0  0
  148.7818  132.8137  153.6800 C   0  0  0  0  0  0  0  0  0  0  0  0
  149.5868  131.7872  154.2373 C   0  0  0  0  0  0  0  0  0  0  0  0
  149.2044  130.4399  154.0906 C   0  0  0  0  0  0  0  0  0  0  0  0
  148.0286  130.1377  153.3812 C   0  0  0  0  0  0  0  0  0  0  0  0
  147.2937  131.1359  152.8487 N   0  3  0  0  0  0  0  0  0  0  0  0
  147.6114  132.4497  152.9590 C   0  0  0  0  0  0  0  0  0  0  0  0
  146.7808  133.4067  152.3377 N   0  0  0  0  0  0  0  0  0  0  0  0
  146.6952  133.2673  150.8861 C   0  0  0  0  0  0  0  0  0  0  0  0
  145.2463  133.5775  150.5019 C   0  0  0  0  0  0  0  0  0  0  0  0
  144.4694  133.2397  151.7685 C   0  0  0  0  0  0  0  0  0  0  0  0
  145.4418  133.6554  152.8698 C   0  0  0  0  0  0  0  0  0  0  0  0
  149.5529  136.4864  153.7110 H   0  0  0  0  0  0  0  0  0  0  0  0
  150.2001  136.8700  156.4977 H   0  0  0  0  0  0  0  0  0  0  0  0
  151.6270  136.8547  155.4870 H   0  0  0  0  0  0  0  0  0  0  0  0
  150.6635  138.6151  154.0254 H   0  0  0  0  0  0  0  0  0  0  0  0
  149.2171  138.6868  154.9924 H   0  0  0  0  0  0  0  0  0  0  0  0
  150.5319  141.0880  154.5383 H   0  0  0  0  0  0  0  0  0  0  0  0
  149.2958  140.8464  155.7521 H   0  0  0  0  0  0  0  0  0  0  0  0
  152.0792  142.0418  156.2366 H   0  0  0  0  0  0  0  0  0  0  0  0
  150.5532  142.9076  156.2589 H   0  0  0  0  0  0  0  0  0  0  0  0
  152.4792  140.3787  158.0401 H   0  0  0  0  0  0  0  0  0  0  0  0
  151.2138  140.1582  159.2348 H   0  0  0  0  0  0  0  0  0  0  0  0
  149.7016  139.1691  157.5558 H   0  0  0  0  0  0  0  0  0  0  0  0
  151.2205  138.3011  157.5695 H   0  0  0  0  0  0  0  0  0  0  0  0
  148.7581  134.7959  153.0789 H   0  0  0  0  0  0  0  0  0  0  0  0
  150.5009  132.0112  154.7657 H   0  0  0  0  0  0  0  0  0  0  0  0
  149.8084  129.6499  154.5127 H   0  0  0  0  0  0  0  0  0  0  0  0
  147.6605  129.1354  153.2165 H   0  0  0  0  0  0  0  0  0  0  0  0
  147.3886  133.9431  150.3850 H   0  0  0  0  0  0  0  0  0  0  0  0
  146.9482  132.2479  150.5893 H   0  0  0  0  0  0  0  0  0  0  0  0
  145.1413  134.6403  150.2790 H   0  0  0  0  0  0  0  0  0  0  0  0
  144.9092  133.0155  149.6305 H   0  0  0  0  0  0  0  0  0  0  0  0
  143.5095  133.7532  151.8325 H   0  0  0  0  0  0  0  0  0  0  0  0
  144.2853  132.1657  151.8177 H   0  0  0  0  0  0  0  0  0  0  0  0
  145.2253  133.1527  153.8124 H   0  0  0  0  0  0  0  0  0  0  0  0
  145.3537  134.7259  153.0573 H   0  0  0  0  0  0  0  0  0  0  0  0
  146.4523  130.8863  152.3287 H   0  0  0  0  0  0  0  0  0  0  0  0
  1  2  2  0  0  0  0
  2  3  1  0  0  0  0
  2 12  1  0  0  0  0
  3  4  1  0  0  0  0
  3 24  1  0  0  0  0
  4  5  1  0  0  0  0
  4 25  1  0  0  0  0
  4 26  1  0  0  0  0
  5  6  1  0  0  0  0
  5 27  1  0  0  0  0
  5 28  1  0  0  0  0
  6 11  1  0  0  0  0
  6  7  1  0  0  0  0
  7  8  1  0  0  0  0
  7 29  1  0  0  0  0
  7 30  1  0  0  0  0
  8  9  1  0  0  0  0
  8 31  1  0  0  0  0
  8 32  1  0  0  0  0
  9 10  1  0  0  0  0
 10 11  1  0  0  0  0
 10 33  1  0  0  0  0
 10 34  1  0  0  0  0
 11 35  1  0  0  0  0
 11 36  1  0  0  0  0
 12 13  1  0  0  0  0
 12 37  1  0  0  0  0
 13 18  1  0  0  0  0
 13 14  2  0  0  0  0
 14 15  1  0  0  0  0
 14 38  1  0  0  0  0
 15 16  2  0  0  0  0
 15 39  1  0  0  0  0
 16 17  1  0  0  0  0
 16 40  1  0  0  0  0
 17 18  2  0  0  0  0
 17 49  1  0  0  0  0
 18 19  1  0  0  0  0
 19 23  1  0  0  0  0
 19 20  1  0  0  0  0
 20 21  1  0  0  0  0
 20 41  1  0  0  0  0
 20 42  1  0  0  0  0
 21 22  1  0  0  0  0
 21 43  1  0  0  0  0
 21 44  1  0  0  0  0
 22 23  1  0  0  0  0
 22 45  1  0  0  0  0
 22 46  1  0  0  0  0
 23 47  1  0  0  0  0
 23 48  1  0  0  0  0
M  CHG  1  17   1
M  END
> <s_m_source_file>
AV-unprocessed.smi

> <i_m_source_file_index>
1525

> <i_lp_mmshare_version>
43012

> <i_f3d_flags>
0

> <s_epik_input>
W0NIMl0xW0NIMl1PW0NIMl1bQ0gyXU4xW0NIMl1bQ0gyXVtOSF1DKD1PKVtOSF1jMltjSF1bY0hdW2NIXW5jMk4zW0NIMl1bQ0gyXVtDSDJdW0NIMl0z

> <s_epik_cmdline>
J2VwaWtfcHl0aG9uJywgJy1waCcsICc3LjAnLCAnLXRuJywgJzgnLCAnLW1hJywgJzIwMCcsICctbWV0YWxfYmluZGluZycsICctaW1hZScsICc8aW5maWxlLm1hZT4nLCAnLW9tYWUnLCAnPG91dGZpbGUubWFlPic=

> <r_epik_Ionization_Penalty>
1.38385

> <r_epik_Ionization_Penalty_Charging>
1.11784

> <r_epik_Ionization_Penalty_Neutral>
0.26601

> <r_epik_State_Penalty>
1.46794

> <r_epik_Charging_Adjusted_Penalty>
2.58578

> <i_epik_Tot_Q>
1

> <i_epik_Tot_abs_Q>
1

> <r_epik_Metal_State_Penalty>
1.54909

> <b_epik_Metal_Only>
0

> <s_lp_Force_Field>
OPLS_2005

> <r_lp_Energy>
56.1891

> <b_lp_Chiralities_Consistent>
1

> <s_lp_Variant>
AV-unprocessed.smi:1525-3

> <Gold.Version>
5.8.1

> <Gold.Id.Protein>
6NUR|6NUR_protein|mol2

> <Gold.PLP.Fitness>
41.8530

> <Gold.PLP.PLP>
-36.5702

> <Gold.PLP.part.hbond>
-2.9075

> <Gold.PLP.part.metal>
0.0000

> <Gold.PLP.part.buried>
-5.5120

> <Gold.PLP.part.nonpolar>
-28.4653

> <Gold.PLP.part.repulsive>
0.2575

> <Gold.PLP.ligand.clash>
0.0000

> <Gold.PLP.ligand.torsion>
0.4433

> <Gold.PLP.Chemscore.Hbond>
1.9920

> <Gold.PLP.Chemscore.CHOScore>
0.0000

> <Gold.PLP.Chemscore.Metal>
0.0000

> <Gold.Chemscore.Hbonds>
donor molecule, donor type, donor heavy atom, donor atom, acceptor molecule, acceptor atom, score
      L1  H     3    24       P1  7948  0.99
      L1  H    12    37       P1  7948  1.00

> <Gold.PLP.Chemscore.Internal.Correction>
0.1936

> <Gold.Rescore>
     Score         DG    S(hbond)    S(metal)    S(lipo)     H(rot)  DE(clash)    DE(int)     intcor
     13.04     -14.72       1.30        0.00      77.61       1.63       0.05       1.63       ----

> <Gold.Chemscore.Fitness>
13.0403

> <Gold.Chemscore.DG>
-14.7232

> <Gold.Chemscore.ZeroCoef>
-5.4800

> <Gold.Chemscore.Hbond>
1.2999

> <Gold.Chemscore.Metal>
0.0000

> <Gold.Chemscore.Lipo>
77.6068

> <Gold.Chemscore.Internal_Hbond>
0.0000

> <Gold.Chemscore.DEClash>
0.0515

> <Gold.Chemscore.DEInternal>
1.6314

> <Gold.Chemscore.Rot>
1.6323

> <Gold.Chemscore.Internal.Correction>
   9.000000E+99

> <Gold.Chemscore.Hbonds>
donor molecule, donor type, donor heavy atom, donor atom, acceptor molecule, acceptor atom, score
      L1  H     3    24       P1  7948  0.65
      L1  H    12    37       P1  7948  0.24

> <Gold.Chemscore.Hbond.Weighted>
-4.3417

> <Gold.Chemscore.Metal.Weighted>
-0.0000

> <Gold.Chemscore.Lipo.Weighted>
-9.0800

> <Gold.Chemscore.Internal_Hbond.Weighted>
0.0000

> <Gold.Chemscore.DEClash.Weighted>
0.0515

> <Gold.Chemscore.DEInternal.Weighted>
1.6314

> <Gold.Chemscore.Rot.Weighted>
4.1786

> <Gold.Chemscore.Internal.Correction.Weighted>
   9.000000E+99

> <Gold.Protein.RotatedTorsions>
[ 6907 6896 6895 6894 ] final  -89.43 input  -60.11 | X-H torsion
[ 7974 7965 7964 7962 ] final    0.85 input  175.53 | X-H torsion
[ 8008 7997 7996 7995 ] final  111.22 input   59.86 | X-H torsion
[ 10167 10162 10161 10158 ] final  106.28 input  -65.29 | X-H torsion
[ 10718 10713 10712 10709 ] final -116.81 input   66.30 | X-H torsion
[ 10763 10752 10751 10750 ] final  -70.08 input  -60.55 | X-H torsion
[ 11005 11000 10999 10996 ] final   74.87 input  -57.11 | X-H torsion

> <Gold.Protein.ActiveResidues>
 VAL166  LYS551  ARG553  GLY616  TRP617  ASP618  TYR619  PRO620  LYS621  CYS622 
 ASP623  PHE694  ASN695  SER759  ASP760  ASP761  ALA762  ILE779  LEU786  VAL792 
 PHE793  MET794  SER795  GLU796  ALA797  LYS798  CYS799  TRP800  GLU811  SER814 

> <Gold.Protein.RotatedAtoms>
  150.6874  134.2589  159.4540 H   0  0  0  0  0  0  0  0  0  0  0  0  # atno 6907 bound_to 6896
  152.0520  134.9645  160.0584 H   0  0  0  0  0  0  0  0  0  0  0  0  # atno 6908 bound_to 6896
  152.1105  133.4263  159.4666 H   0  0  0  0  0  0  0  0  0  0  0  0  # atno 6909 bound_to 6896
  146.2437  140.1075  142.8345 H   0  0  0  0  0  0  0  0  0  0  0  0  # atno 7974 bound_to 7965
  156.2109  140.3023  155.9730 H   0  0  0  0  0  0  0  0  0  0  0  0  # atno 8008 bound_to 7997
  155.2726  140.0434  157.3025 H   0  0  0  0  0  0  0  0  0  0  0  0  # atno 8009 bound_to 7997
  154.5698  140.2345  155.8217 H   0  0  0  0  0  0  0  0  0  0  0  0  # atno 8010 bound_to 7997
  139.7022  144.7092  151.1166 H   0  0  0  0  0  0  0  0  0  0  0  0  # atno 10167 bound_to 10162
  156.0989  130.6156  150.9083 H   0  0  0  0  0  0  0  0  0  0  0  0  # atno 10718 bound_to 10713
  154.4125  135.6005  153.5961 H   0  0  0  0  0  0  0  0  0  0  0  0  # atno 10763 bound_to 10752
  152.9791  135.5933  154.4053 H   0  0  0  0  0  0  0  0  0  0  0  0  # atno 10764 bound_to 10752
  154.3867  135.2841  155.2157 H   0  0  0  0  0  0  0  0  0  0  0  0  # atno 10765 bound_to 10752
  139.9370  134.7469  156.1200 H   0  0  0  0  0  0  0  0  0  0  0  0  # atno 11005 bound_to 11000
  145.0516  140.9021  143.4992 LP  0  0  0  0  0  0  0  0  0  0  0  0  # atno 17320 bound_to 7965
  145.1174  139.2716  143.5606 LP  0  0  0  0  0  0  0  0  0  0  0  0  # atno 17321 bound_to 7965
  140.7712  143.5408  150.9315 LP  0  0  0  0  0  0  0  0  0  0  0  0  # atno 17342 bound_to 10162
  139.9090  143.6743  152.3118 LP  0  0  0  0  0  0  0  0  0  0  0  0  # atno 17343 bound_to 10162
  157.6156  131.0933  150.8717 LP  0  0  0  0  0  0  0  0  0  0  0  0  # atno 17370 bound_to 10713
  156.8849  130.5192  149.5289 LP  0  0  0  0  0  0  0  0  0  0  0  0  # atno 17371 bound_to 10713
  141.0989  133.6685  156.2708 LP  0  0  0  0  0  0  0  0  0  0  0  0  # atno 17394 bound_to 11000
  140.6049  134.5518  157.5524 LP  0  0  0  0  0  0  0  0  0  0  0  0  # atno 17395 bound_to 11000

$$$$
