AV-unprocessed.smi:3168|AV-procd|sdf|12102|dock6
  -GOLD-   2272017533D 1   1.00000     0.00000
 Structure written by MMmdl.
 33 34  0  0  0  0  0  0  0  0  1 V2000
  152.6451  138.7244  154.6693 C   0  0  0  0  0  0  0  0  0  0  0  0
  151.5339  138.9020  155.7245 C   0  0  1  0  0  0  0  0  0  0  0  0
  152.0607  139.4143  157.0780 C   0  0  0  0  0  0  0  0  0  0  0  0
  153.1062  138.9725  157.5563 O   0  0  0  0  0  0  0  0  0  0  0  0
  151.3127  140.3419  157.6974 N   0  0  0  0  0  0  0  0  0  0  0  0
  151.6210  140.9479  158.9869 C   0  0  0  0  0  0  0  0  0  0  0  0
  152.2512  142.3398  158.8189 C   0  0  1  0  0  0  0  0  0  0  0  0
  151.4605  143.2636  157.8951 C   0  0  0  0  0  0  0  0  0  0  0  0
  151.9006  144.6259  158.3796 C   0  0  0  0  0  0  0  0  0  0  0  0
  151.9900  144.4067  159.8872 C   0  0  0  0  0  0  0  0  0  0  0  0
  152.2948  143.0259  160.0683 O   0  0  0  0  0  0  0  0  0  0  0  0
  150.4526  139.7484  155.2300 N   0  0  0  0  0  0  0  0  0  0  0  0
  149.1807  139.3667  154.8534 C   0  0  0  0  0  0  0  0  0  0  0  0
  148.5032  140.4954  154.4912 C   0  0  0  0  0  0  0  0  0  0  0  0
  149.4521  141.5365  154.6885 C   0  0  0  0  0  0  0  0  0  0  0  0
  150.6140  141.0889  155.1350 N   0  0  0  0  0  0  0  0  0  0  0  0
  153.4032  138.0175  155.0081 H   0  0  0  0  0  0  0  0  0  0  0  0
  153.1477  139.6657  154.4434 H   0  0  0  0  0  0  0  0  0  0  0  0
  152.2348  138.3379  153.7359 H   0  0  0  0  0  0  0  0  0  0  0  0
  151.1077  137.9154  155.9123 H   0  0  0  0  0  0  0  0  0  0  0  0
  150.4660  140.6498  157.2419 H   0  0  0  0  0  0  0  0  0  0  0  0
  150.7165  141.0129  159.5941 H   0  0  0  0  0  0  0  0  0  0  0  0
  152.3052  140.2884  159.5212 H   0  0  0  0  0  0  0  0  0  0  0  0
  153.2725  142.2559  158.4433 H   0  0  0  0  0  0  0  0  0  0  0  0
  151.6741  143.0940  156.8393 H   0  0  0  0  0  0  0  0  0  0  0  0
  150.3876  143.1416  158.0516 H   0  0  0  0  0  0  0  0  0  0  0  0
  152.8847  144.8672  157.9749 H   0  0  0  0  0  0  0  0  0  0  0  0
  151.2111  145.4244  158.1044 H   0  0  0  0  0  0  0  0  0  0  0  0
  152.7404  145.0444  160.3545 H   0  0  0  0  0  0  0  0  0  0  0  0
  151.0291  144.6126  160.3600 H   0  0  0  0  0  0  0  0  0  0  0  0
  148.8659  138.3337  154.8755 H   0  0  0  0  0  0  0  0  0  0  0  0
  147.4839  140.5667  154.1420 H   0  0  0  0  0  0  0  0  0  0  0  0
  149.3311  142.5973  154.5258 H   0  0  0  0  0  0  0  0  0  0  0  0
  1  2  1  0  0  0  0
  1 17  1  0  0  0  0
  1 18  1  0  0  0  0
  1 19  1  0  0  0  0
  2  3  1  0  0  0  0
  2 12  1  0  0  0  0
  2 20  1  0  0  0  0
  3  4  2  0  0  0  0
  3  5  1  0  0  0  0
  5  6  1  0  0  0  0
  5 21  1  0  0  0  0
  6  7  1  0  0  0  0
  6 22  1  0  0  0  0
  6 23  1  0  0  0  0
  7 11  1  0  0  0  0
  7  8  1  0  0  0  0
  7 24  1  0  0  0  0
  8  9  1  0  0  0  0
  8 25  1  0  0  0  0
  8 26  1  0  0  0  0
  9 10  1  0  0  0  0
  9 27  1  0  0  0  0
  9 28  1  0  0  0  0
 10 11  1  0  0  0  0
 10 29  1  0  0  0  0
 10 30  1  0  0  0  0
 12 16  1  0  0  0  0
 12 13  1  0  0  0  0
 13 14  2  0  0  0  0
 13 31  1  0  0  0  0
 14 15  1  0  0  0  0
 14 32  1  0  0  0  0
 15 16  2  0  0  0  0
 15 33  1  0  0  0  0
M  END
> <s_m_source_file>
AV-unprocessed.smi

> <i_m_source_file_index>
3168

> <i_lp_mmshare_version>
43012

> <i_f3d_flags>
0

> <s_epik_input>
bjFbY0hdW2NIXVtjSF1uMVtDQEhdKFtDSDNdKUMoPU8pW05IXVtDSDJdW0NAQEhdMltDSDJdW0NIMl1bQ0gyXU8y

> <s_epik_cmdline>
J2VwaWtfcHl0aG9uJywgJy1waCcsICc3LjAnLCAnLXRuJywgJzgnLCAnLW1hJywgJzIwMCcsICctbWV0YWxfYmluZGluZycsICctaW1hZScsICc8aW5maWxlLm1hZT4nLCAnLW9tYWUnLCAnPG91dGZpbGUubWFlPic=

> <r_lp_tautomer_probability>
1

> <r_epik_Ionization_Penalty>
4.14877e-05

> <r_epik_Ionization_Penalty_Charging>
0

> <r_epik_Ionization_Penalty_Neutral>
4.14877e-05

> <r_epik_State_Penalty>
-0

> <r_epik_Charging_Adjusted_Penalty>
0

> <i_epik_Tot_Q>
0

> <i_epik_Tot_abs_Q>
0

> <r_epik_Metal_State_Penalty>
-0

> <b_epik_Metal_Only>
0

> <s_lp_Force_Field>
OPLS_2005

> <r_lp_Energy>
21.2002

> <b_lp_Chiralities_Consistent>
1

> <s_lp_Variant>
AV-unprocessed.smi:3168-4

> <Gold.Version>
5.8.1

> <Gold.Id.Protein>
6NUR|6NUR_protein|mol2

> <Gold.PLP.Fitness>
40.3629

> <Gold.PLP.PLP>
-33.9664

> <Gold.PLP.part.hbond>
-2.0000

> <Gold.PLP.part.metal>
0.0000

> <Gold.PLP.part.buried>
-4.5406

> <Gold.PLP.part.nonpolar>
-28.2250

> <Gold.PLP.part.repulsive>
0.1472

> <Gold.PLP.ligand.clash>
0.0000

> <Gold.PLP.ligand.torsion>
0.7949

> <Gold.PLP.Chemscore.Hbond>
1.6256

> <Gold.PLP.Chemscore.CHOScore>
1.0000

> <Gold.PLP.Chemscore.Metal>
0.0000

> <Gold.Chemscore.Hbonds>
donor molecule, donor type, donor heavy atom, donor atom, acceptor molecule, acceptor atom, score
      P1  H  7989  7998       L1    16  0.40
      P1  H  7997  8009       L1     4  1.00
      L1  C    15    33       P1  8028  1.00

> <Gold.PLP.Chemscore.Internal.Correction>
0.1095

> <Gold.Rescore>
     Score         DG    S(hbond)    S(metal)    S(lipo)     H(rot)  DE(clash)    DE(int)     intcor
     16.37     -17.24       1.83        0.00      83.45       1.61       0.06       0.82       ----

> <Gold.Chemscore.Fitness>
16.3673

> <Gold.Chemscore.DG>
-17.2425

> <Gold.Chemscore.ZeroCoef>
-5.4800

> <Gold.Chemscore.Hbond>
1.8320

> <Gold.Chemscore.Metal>
0.0000

> <Gold.Chemscore.Lipo>
83.4506

> <Gold.Chemscore.Internal_Hbond>
0.0000

> <Gold.Chemscore.DEClash>
0.0580

> <Gold.Chemscore.DEInternal>
0.8172

> <Gold.Chemscore.Rot>
1.6094

> <Gold.Chemscore.Internal.Correction>
   9.000000E+99

> <Gold.Chemscore.Hbonds>
donor molecule, donor type, donor heavy atom, donor atom, acceptor molecule, acceptor atom, score
      P1  H  7989  7998       L1    16  0.01
      P1  H  7997  8009       L1     4  0.65

> <Gold.Chemscore.Hbond.Weighted>
-6.1188

> <Gold.Chemscore.Metal.Weighted>
-0.0000

> <Gold.Chemscore.Lipo.Weighted>
-9.7637

> <Gold.Chemscore.Internal_Hbond.Weighted>
0.0000

> <Gold.Chemscore.DEClash.Weighted>
0.0580

> <Gold.Chemscore.DEInternal.Weighted>
0.8172

> <Gold.Chemscore.Rot.Weighted>
4.1201

> <Gold.Chemscore.Internal.Correction.Weighted>
   9.000000E+99

> <Gold.Protein.RotatedTorsions>
[ 6907 6896 6895 6894 ] final  163.46 input  -60.11 | X-H torsion
[ 7974 7965 7964 7962 ] final  166.51 input  175.53 | X-H torsion
[ 8008 7997 7996 7995 ] final  160.78 input   59.86 | X-H torsion
[ 10167 10162 10161 10158 ] final  -16.65 input  -65.29 | X-H torsion
[ 10718 10713 10712 10709 ] final  -88.95 input   66.30 | X-H torsion
[ 10763 10752 10751 10750 ] final  -98.03 input  -60.55 | X-H torsion
[ 11005 11000 10999 10996 ] final  -63.42 input  -57.11 | X-H torsion

> <Gold.Protein.ActiveResidues>
 VAL166  LYS551  ARG553  GLY616  TRP617  ASP618  TYR619  PRO620  LYS621  CYS622 
 ASP623  PHE694  ASN695  SER759  ASP760  ASP761  ALA762  ILE779  LEU786  VAL792 
 PHE793  MET794  SER795  GLU796  ALA797  LYS798  CYS799  TRP800  GLU811  SER814 

> <Gold.Protein.RotatedAtoms>
  151.9249  133.3595  159.3909 H   0  0  0  0  0  0  0  0  0  0  0  0  # atno 6907 bound_to 6896
  150.7029  134.4597  159.5384 H   0  0  0  0  0  0  0  0  0  0  0  0  # atno 6908 bound_to 6896
  152.2227  134.8397  160.0534 H   0  0  0  0  0  0  0  0  0  0  0  0  # atno 6909 bound_to 6896
  144.7460  139.8626  143.6382 H   0  0  0  0  0  0  0  0  0  0  0  0  # atno 7974 bound_to 7965
  156.2149  140.1795  156.7612 H   0  0  0  0  0  0  0  0  0  0  0  0  # atno 8008 bound_to 7997
  154.5776  140.0671  156.9087 H   0  0  0  0  0  0  0  0  0  0  0  0  # atno 8009 bound_to 7997
  155.2559  140.3332  155.4280 H   0  0  0  0  0  0  0  0  0  0  0  0  # atno 8010 bound_to 7997
  140.7237  143.5094  150.9768 H   0  0  0  0  0  0  0  0  0  0  0  0  # atno 10167 bound_to 10162
  155.9984  130.4854  150.5097 H   0  0  0  0  0  0  0  0  0  0  0  0  # atno 10718 bound_to 10713
  154.7379  135.5024  153.9073 H   0  0  0  0  0  0  0  0  0  0  0  0  # atno 10763 bound_to 10752
  153.1013  135.6686  153.9675 H   0  0  0  0  0  0  0  0  0  0  0  0  # atno 10764 bound_to 10752
  153.9460  135.3062  155.3420 H   0  0  0  0  0  0  0  0  0  0  0  0  # atno 10765 bound_to 10752
  141.1392  133.6652  156.5678 H   0  0  0  0  0  0  0  0  0  0  0  0  # atno 11005 bound_to 11000
  146.1338  139.4378  143.0152 LP  0  0  0  0  0  0  0  0  0  0  0  0  # atno 17320 bound_to 7965
  145.7123  141.0102  143.1446 LP  0  0  0  0  0  0  0  0  0  0  0  0  # atno 17321 bound_to 7965
  139.8807  143.7075  152.3157 LP  0  0  0  0  0  0  0  0  0  0  0  0  # atno 17342 bound_to 10162
  139.7356  144.7572  151.0732 LP  0  0  0  0  0  0  0  0  0  0  0  0  # atno 17343 bound_to 10162
  157.3071  131.0656  151.2027 LP  0  0  0  0  0  0  0  0  0  0  0  0  # atno 17370 bound_to 10713
  157.2986  130.6831  149.6152 LP  0  0  0  0  0  0  0  0  0  0  0  0  # atno 17371 bound_to 10713
  140.3937  134.7417  157.4737 LP  0  0  0  0  0  0  0  0  0  0  0  0  # atno 17394 bound_to 11000
  140.0547  134.6080  155.8819 LP  0  0  0  0  0  0  0  0  0  0  0  0  # atno 17395 bound_to 11000

$$$$
