AV-unprocessed.smi:2810|AV-procd|sdf|10827|dock7
  -GOLD-   2272015263D 1   1.00000     0.00000
 Structure written by MMmdl.
 39 40  0  0  0  0  0  0  0  0  1 V2000
  147.3291  142.1261  158.3831 C   0  0  0  0  0  0  0  0  0  0  0  0
  148.8359  141.9817  158.3651 C   0  0  0  0  0  0  0  0  0  0  0  0
  149.4569  140.7958  157.9221 C   0  0  0  0  0  0  0  0  0  0  0  0
  150.8724  140.7686  157.9604 C   0  0  0  0  0  0  0  0  0  0  0  0
  151.6315  139.6544  157.5486 N   0  0  0  0  0  0  0  0  0  0  0  0
  152.7994  139.4527  158.4034 C   0  0  0  0  0  0  0  0  0  0  0  0
  153.4794  138.1128  158.0873 C   0  0  0  0  0  0  0  0  0  0  0  0
  153.8020  138.0673  156.7040 O   0  0  0  0  0  0  0  0  0  0  0  0
  152.6342  138.1297  155.8941 C   0  0  0  0  0  0  0  0  0  0  0  0
  151.8922  139.4692  156.1133 C   0  0  1  0  0  0  0  0  0  0  0  0
  150.6375  139.4730  155.2205 C   0  0  0  0  0  0  0  0  0  0  0  0
  149.9032  138.3580  155.2031 N   0  0  0  0  0  0  0  0  0  0  0  0
  150.3292  140.4681  154.5669 O   0  0  0  0  0  0  0  0  0  0  0  0
  151.5716  141.8451  158.3869 N   0  0  0  0  0  0  0  0  0  0  0  0
  150.8812  142.9190  158.7847 C   0  0  0  0  0  0  0  0  0  0  0  0
  151.6874  144.1160  159.2711 C   0  0  0  0  0  0  0  0  0  0  0  0
  150.7888  145.2088  159.8705 C   0  0  0  0  0  0  0  0  0  0  0  0
  152.6380  144.6471  158.1871 C   0  0  0  0  0  0  0  0  0  0  0  0
  149.5506  143.0424  158.7969 N   0  0  0  0  0  0  0  0  0  0  0  0
  146.8479  141.2933  157.8698 H   0  0  0  0  0  0  0  0  0  0  0  0
  147.0273  143.0499  157.8889 H   0  0  0  0  0  0  0  0  0  0  0  0
  146.9659  142.1500  159.4108 H   0  0  0  0  0  0  0  0  0  0  0  0
  148.8700  139.9593  157.5745 H   0  0  0  0  0  0  0  0  0  0  0  0
  153.5031  140.2722  158.2476 H   0  0  0  0  0  0  0  0  0  0  0  0
  152.5201  139.4700  159.4580 H   0  0  0  0  0  0  0  0  0  0  0  0
  154.3953  138.0092  158.6693 H   0  0  0  0  0  0  0  0  0  0  0  0
  152.8348  137.2737  158.3546 H   0  0  0  0  0  0  0  0  0  0  0  0
  152.9382  138.0291  154.8513 H   0  0  0  0  0  0  0  0  0  0  0  0
  151.9891  137.2771  156.1167 H   0  0  0  0  0  0  0  0  0  0  0  0
  152.5568  140.2716  155.7885 H   0  0  0  0  0  0  0  0  0  0  0  0
  149.0697  138.3108  154.6354 H   0  0  0  0  0  0  0  0  0  0  0  0
  150.1847  137.5653  155.7614 H   0  0  0  0  0  0  0  0  0  0  0  0
  152.3230  143.7651  160.0861 H   0  0  0  0  0  0  0  0  0  0  0  0
  150.1824  144.8124  160.6853 H   0  0  0  0  0  0  0  0  0  0  0  0
  150.1123  145.6238  159.1227 H   0  0  0  0  0  0  0  0  0  0  0  0
  151.3842  146.0297  160.2703 H   0  0  0  0  0  0  0  0  0  0  0  0
  153.3110  143.8629  157.8386 H   0  0  0  0  0  0  0  0  0  0  0  0
  153.2516  145.4634  158.5689 H   0  0  0  0  0  0  0  0  0  0  0  0
  152.0879  145.0224  157.3236 H   0  0  0  0  0  0  0  0  0  0  0  0
  1  2  1  0  0  0  0
  1 20  1  0  0  0  0
  1 21  1  0  0  0  0
  1 22  1  0  0  0  0
  2 19  1  0  0  0  0
  2  3  2  0  0  0  0
  3  4  1  0  0  0  0
  3 23  1  0  0  0  0
  4  5  1  0  0  0  0
  4 14  2  0  0  0  0
  5 10  1  0  0  0  0
  5  6  1  0  0  0  0
  6  7  1  0  0  0  0
  6 24  1  0  0  0  0
  6 25  1  0  0  0  0
  7  8  1  0  0  0  0
  7 26  1  0  0  0  0
  7 27  1  0  0  0  0
  8  9  1  0  0  0  0
  9 10  1  0  0  0  0
  9 28  1  0  0  0  0
  9 29  1  0  0  0  0
 10 11  1  0  0  0  0
 10 30  1  0  0  0  0
 11 12  1  0  0  0  0
 11 13  2  0  0  0  0
 12 31  1  0  0  0  0
 12 32  1  0  0  0  0
 14 15  1  0  0  0  0
 15 16  1  0  0  0  0
 15 19  2  0  0  0  0
 16 17  1  0  0  0  0
 16 18  1  0  0  0  0
 16 33  1  0  0  0  0
 17 34  1  0  0  0  0
 17 35  1  0  0  0  0
 17 36  1  0  0  0  0
 18 37  1  0  0  0  0
 18 38  1  0  0  0  0
 18 39  1  0  0  0  0
M  END
> <s_m_source_file>
AV-unprocessed.smi

> <i_m_source_file_index>
2810

> <i_lp_mmshare_version>
43012

> <i_f3d_flags>
0

> <s_epik_input>
W0NIM11bQ0hdKFtDSDNdKWMobjEpbmMoW2NIXWMxW0NIM10pTjJbQ0gyXVtDSDJdT1tDSDJdW0NASF0yQyg9TylbTkgyXQ==

> <s_epik_cmdline>
J2VwaWtfcHl0aG9uJywgJy1waCcsICc3LjAnLCAnLXRuJywgJzgnLCAnLW1hJywgJzIwMCcsICctbWV0YWxfYmluZGluZycsICctaW1hZScsICc8aW5maWxlLm1hZT4nLCAnLW9tYWUnLCAnPG91dGZpbGUubWFlPic=

> <r_lp_tautomer_probability>
1

> <r_epik_Ionization_Penalty>
0.00607782

> <r_epik_Ionization_Penalty_Charging>
0

> <r_epik_Ionization_Penalty_Neutral>
0.00607782

> <r_epik_State_Penalty>
0.00441345

> <r_epik_Charging_Adjusted_Penalty>
0.00441345

> <i_epik_Tot_Q>
0

> <i_epik_Tot_abs_Q>
0

> <r_epik_Metal_State_Penalty>
-0

> <b_epik_Metal_Only>
0

> <s_lp_Force_Field>
OPLS_2005

> <r_lp_Energy>
6.57668

> <b_lp_Chiralities_Consistent>
1

> <s_lp_Variant>
AV-unprocessed.smi:2810-1

> <Gold.Version>
5.8.1

> <Gold.Id.Protein>
6NUR|6NUR_protein|mol2

> <Gold.PLP.Fitness>
34.8979

> <Gold.PLP.PLP>
-32.6212

> <Gold.PLP.part.hbond>
-1.8203

> <Gold.PLP.part.metal>
0.0000

> <Gold.PLP.part.buried>
-5.2081

> <Gold.PLP.part.nonpolar>
-25.8149

> <Gold.PLP.part.repulsive>
0.3279

> <Gold.PLP.ligand.clash>
0.0000

> <Gold.PLP.ligand.torsion>
1.1251

> <Gold.PLP.Chemscore.Hbond>
1.3978

> <Gold.PLP.Chemscore.CHOScore>
0.0000

> <Gold.PLP.Chemscore.Metal>
0.0000

> <Gold.Chemscore.Hbonds>
donor molecule, donor type, donor heavy atom, donor atom, acceptor molecule, acceptor atom, score
      P1  H  7989  7998       L1    13  0.98
      P1  H  7997  8008       L1     8  0.41

> <Gold.PLP.Chemscore.Internal.Correction>
0.3335

> <Gold.Rescore>
     Score         DG    S(hbond)    S(metal)    S(lipo)     H(rot)  DE(clash)    DE(int)     intcor
     11.33     -12.41       1.00        0.00      68.25       1.71       0.05       1.02       ----

> <Gold.Chemscore.Fitness>
11.3349

> <Gold.Chemscore.DG>
-12.4086

> <Gold.Chemscore.ZeroCoef>
-5.4800

> <Gold.Chemscore.Hbond>
0.9956

> <Gold.Chemscore.Metal>
0.0000

> <Gold.Chemscore.Lipo>
68.2500

> <Gold.Chemscore.Internal_Hbond>
0.0000

> <Gold.Chemscore.DEClash>
0.0515

> <Gold.Chemscore.DEInternal>
1.0221

> <Gold.Chemscore.Rot>
1.7117

> <Gold.Chemscore.Internal.Correction>
   9.000000E+99

> <Gold.Chemscore.Hbonds>
donor molecule, donor type, donor heavy atom, donor atom, acceptor molecule, acceptor atom, score
      P1  H  7989  7998       L1    13  0.69
      P1  H  7997  8008       L1     8  0.01

> <Gold.Chemscore.Hbond.Weighted>
-3.3253

> <Gold.Chemscore.Metal.Weighted>
-0.0000

> <Gold.Chemscore.Lipo.Weighted>
-7.9852

> <Gold.Chemscore.Internal_Hbond.Weighted>
0.0000

> <Gold.Chemscore.DEClash.Weighted>
0.0515

> <Gold.Chemscore.DEInternal.Weighted>
1.0221

> <Gold.Chemscore.Rot.Weighted>
4.3820

> <Gold.Chemscore.Internal.Correction.Weighted>
   9.000000E+99

> <Gold.Protein.RotatedTorsions>
[ 6907 6896 6895 6894 ] final  153.09 input  -60.11 | X-H torsion
[ 7974 7965 7964 7962 ] final  -94.79 input  175.53 | X-H torsion
[ 8008 7997 7996 7995 ] final  -53.78 input   59.86 | X-H torsion
[ 10167 10162 10161 10158 ] final    7.95 input  -65.29 | X-H torsion
[ 10718 10713 10712 10709 ] final   95.02 input   66.30 | X-H torsion
[ 10763 10752 10751 10750 ] final   63.23 input  -60.55 | X-H torsion
[ 11005 11000 10999 10996 ] final -102.06 input  -57.11 | X-H torsion

> <Gold.Protein.ActiveResidues>
 VAL166  LYS551  ARG553  GLY616  TRP617  ASP618  TYR619  PRO620  LYS621  CYS622 
 ASP623  PHE694  ASN695  SER759  ASP760  ASP761  ALA762  ILE779  LEU786  VAL792 
 PHE793  MET794  SER795  GLU796  ALA797  LYS798  CYS799  TRP800  GLU811  SER814 

> <Gold.Protein.RotatedAtoms>
  152.0775  133.4136  159.4486 H   0  0  0  0  0  0  0  0  0  0  0  0  # atno 6907 bound_to 6896
  150.6862  134.3020  159.4719 H   0  0  0  0  0  0  0  0  0  0  0  0  # atno 6908 bound_to 6896
  152.0858  134.9440  160.0623 H   0  0  0  0  0  0  0  0  0  0  0  0  # atno 6909 bound_to 6896
  145.3687  140.9502  143.2459 H   0  0  0  0  0  0  0  0  0  0  0  0  # atno 7974 bound_to 7965
  154.4143  140.1192  156.5209 H   0  0  0  0  0  0  0  0  0  0  0  0  # atno 8008 bound_to 7997
  155.6703  140.3496  155.4797 H   0  0  0  0  0  0  0  0  0  0  0  0  # atno 8009 bound_to 7997
  155.9638  140.1128  157.0862 H   0  0  0  0  0  0  0  0  0  0  0  0  # atno 8010 bound_to 7997
  140.6342  143.7923  150.7337 H   0  0  0  0  0  0  0  0  0  0  0  0  # atno 10167 bound_to 10162
  157.6943  131.0531  150.4274 H   0  0  0  0  0  0  0  0  0  0  0  0  # atno 10718 bound_to 10713
  153.0010  135.5436  154.6318 H   0  0  0  0  0  0  0  0  0  0  0  0  # atno 10763 bound_to 10752
  154.5594  135.2832  155.0936 H   0  0  0  0  0  0  0  0  0  0  0  0  # atno 10764 bound_to 10752
  154.2144  135.6461  153.5178 H   0  0  0  0  0  0  0  0  0  0  0  0  # atno 10765 bound_to 10752
  141.1205  133.8528  157.1312 H   0  0  0  0  0  0  0  0  0  0  0  0  # atno 11005 bound_to 11000
  144.8592  139.5202  143.6820 LP  0  0  0  0  0  0  0  0  0  0  0  0  # atno 17320 bound_to 7965
  146.2895  139.7099  142.9171 LP  0  0  0  0  0  0  0  0  0  0  0  0  # atno 17321 bound_to 7965
  140.1541  143.4332  152.2111 LP  0  0  0  0  0  0  0  0  0  0  0  0  # atno 17342 bound_to 10162
  139.5554  144.7369  151.4310 LP  0  0  0  0  0  0  0  0  0  0  0  0  # atno 17343 bound_to 10162
  156.4644  130.4039  149.6556 LP  0  0  0  0  0  0  0  0  0  0  0  0  # atno 17370 bound_to 10713
  156.3659  130.7506  151.2483 LP  0  0  0  0  0  0  0  0  0  0  0  0  # atno 17371 bound_to 10713
  140.0158  134.9968  157.0491 LP  0  0  0  0  0  0  0  0  0  0  0  0  # atno 17394 bound_to 11000
  140.4521  134.1571  155.7182 LP  0  0  0  0  0  0  0  0  0  0  0  0  # atno 17395 bound_to 11000

$$$$
