AV-unprocessed.smi:855|AV-procd|sdf|3958|dock2
  -GOLD-   22720 1423D 1   1.00000     0.00000
 Structure written by MMmdl.
 35 36  0  0  0  0  0  0  0  0  3 V2000
  147.5639  135.8827  162.9165 C   0  0  0  0  0  0  0  0  0  0  0  0
  147.6395  135.9336  161.4292 C   0  0  0  0  0  0  0  0  0  0  0  0
  147.6555  134.9661  160.4644 C   0  0  0  0  0  0  0  0  0  0  0  0
  147.7420  135.7145  159.2602 C   0  0  0  0  0  0  0  0  0  0  0  0
  147.7878  135.0580  158.0017 N   0  0  0  0  0  0  0  0  0  0  0  0
  148.8606  134.6118  157.3228 C   0  0  0  0  0  0  0  0  0  0  0  0
  149.9986  134.7656  157.7816 O   0  0  0  0  0  0  0  0  0  0  0  0
  148.5143  134.0141  156.1498 N   0  5  0  0  0  0  0  0  0  0  0  0
  147.9990  134.7255  154.9790 C   0  0  0  0  0  0  0  0  0  0  0  0
  147.3061  133.7304  154.0264 C   0  0  0  0  0  0  0  0  0  0  0  0
  146.9421  134.3390  152.7184 N   0  3  0  0  0  0  0  0  0  0  0  0
  146.7464  133.3634  151.6190 C   0  0  0  0  0  0  0  0  0  0  0  0
  145.5340  133.8378  150.8064 C   0  0  0  0  0  0  0  0  0  0  0  0
  145.2925  135.2698  151.2712 C   0  0  0  0  0  0  0  0  0  0  0  0
  145.7659  135.2403  152.7200 C   0  0  0  0  0  0  0  0  0  0  0  0
  147.7742  137.0218  159.4726 N   0  0  0  0  0  0  0  0  0  0  0  0
  147.7084  137.1687  160.8631 O   0  0  0  0  0  0  0  0  0  0  0  0
  147.6419  134.8565  163.2760 H   0  0  0  0  0  0  0  0  0  0  0  0
  146.6180  136.2942  163.2688 H   0  0  0  0  0  0  0  0  0  0  0  0
  148.3728  136.4598  163.3646 H   0  0  0  0  0  0  0  0  0  0  0  0
  147.6132  133.8956  160.6004 H   0  0  0  0  0  0  0  0  0  0  0  0
  146.8940  134.9014  157.5607 H   0  0  0  0  0  0  0  0  0  0  0  0
  147.2820  135.4971  155.2609 H   0  0  0  0  0  0  0  0  0  0  0  0
  148.7918  135.2400  154.4344 H   0  0  0  0  0  0  0  0  0  0  0  0
  147.9927  132.9000  153.8534 H   0  0  0  0  0  0  0  0  0  0  0  0
  146.4223  133.2987  154.4971 H   0  0  0  0  0  0  0  0  0  0  0  0
  147.6486  133.3414  151.0071 H   0  0  0  0  0  0  0  0  0  0  0  0
  146.5752  132.3529  151.9935 H   0  0  0  0  0  0  0  0  0  0  0  0
  145.6952  133.7683  149.7303 H   0  0  0  0  0  0  0  0  0  0  0  0
  144.6664  133.2240  151.0520 H   0  0  0  0  0  0  0  0  0  0  0  0
  145.9097  135.9580  150.6924 H   0  0  0  0  0  0  0  0  0  0  0  0
  144.2523  135.5805  151.1699 H   0  0  0  0  0  0  0  0  0  0  0  0
  144.9795  134.8253  153.3526 H   0  0  0  0  0  0  0  0  0  0  0  0
  146.0131  136.2341  153.0946 H   0  0  0  0  0  0  0  0  0  0  0  0
  147.7362  134.9016  152.4452 H   0  0  0  0  0  0  0  0  0  0  0  0
  1  2  1  0  0  0  0
  1 18  1  0  0  0  0
  1 19  1  0  0  0  0
  1 20  1  0  0  0  0
  2 17  1  0  0  0  0
  2  3  2  0  0  0  0
  3  4  1  0  0  0  0
  3 21  1  0  0  0  0
  4  5  1  0  0  0  0
  4 16  2  0  0  0  0
  5  6  1  0  0  0  0
  5 22  1  0  0  0  0
  6  7  2  0  0  0  0
  6  8  1  0  0  0  0
  8  9  1  0  0  0  0
  9 10  1  0  0  0  0
  9 23  1  0  0  0  0
  9 24  1  0  0  0  0
 10 11  1  0  0  0  0
 10 25  1  0  0  0  0
 10 26  1  0  0  0  0
 11 15  1  0  0  0  0
 11 12  1  0  0  0  0
 11 35  1  0  0  0  0
 12 13  1  0  0  0  0
 12 27  1  0  0  0  0
 12 28  1  0  0  0  0
 13 14  1  0  0  0  0
 13 29  1  0  0  0  0
 13 30  1  0  0  0  0
 14 15  1  0  0  0  0
 14 31  1  0  0  0  0
 14 32  1  0  0  0  0
 15 33  1  0  0  0  0
 15 34  1  0  0  0  0
 16 17  1  0  0  0  0
M  CHG  1   8  -1
M  CHG  1  11   1
M  END
> <s_m_source_file>
AV-unprocessed.smi

> <i_m_source_file_index>
855

> <i_lp_mmshare_version>
43012

> <i_f3d_flags>
0

> <s_epik_input>
W0NIM11jMVtjSF1jKG5vMSlbTkhdQyg9TylbTkhdW0NIMl1bQ0gyXU4yW0NIMl1bQ0gyXVtDSDJdW0NIMl0y

> <s_epik_cmdline>
J2VwaWtfcHl0aG9uJywgJy1waCcsICc3LjAnLCAnLXRuJywgJzgnLCAnLW1hJywgJzIwMCcsICctbWV0YWxfYmluZGluZycsICctaW1hZScsICc8aW5maWxlLm1hZT4nLCAnLW9tYWUnLCAnPG91dGZpbGUubWFlPic=

> <r_epik_Ionization_Penalty>
6.76467

> <r_epik_Ionization_Penalty_Charging>
6.76466

> <r_epik_Ionization_Penalty_Neutral>
5.76722e-06

> <r_epik_State_Penalty>
6.79042

> <r_epik_Charging_Adjusted_Penalty>
13.5551

> <i_epik_Tot_Q>
0

> <i_epik_Tot_abs_Q>
2

> <r_epik_Metal_State_Penalty>
2.72416

> <b_epik_Metal_Only>
1

> <s_lp_Force_Field>
OPLS_2005

> <r_lp_Energy>
21.5232

> <b_lp_Chiralities_Consistent>
1

> <s_lp_Variant>
AV-unprocessed.smi:855-3

> <Gold.Version>
5.8.1

> <Gold.Id.Protein>
6NUR|6NUR_protein|mol2

> <Gold.PLP.Fitness>
36.3939

> <Gold.PLP.PLP>
-26.0469

> <Gold.PLP.part.hbond>
-4.0000

> <Gold.PLP.part.metal>
0.0000

> <Gold.PLP.part.buried>
-3.5711

> <Gold.PLP.part.nonpolar>
-18.7120

> <Gold.PLP.part.repulsive>
0.0495

> <Gold.PLP.ligand.clash>
0.0000

> <Gold.PLP.ligand.torsion>
1.7239

> <Gold.PLP.Chemscore.Hbond>
4.5760

> <Gold.PLP.Chemscore.CHOScore>
0.0000

> <Gold.PLP.Chemscore.Metal>
0.0000

> <Gold.Chemscore.Hbonds>
donor molecule, donor type, donor heavy atom, donor atom, acceptor molecule, acceptor atom, score
      L1  H    11    35       P1  7948  2.00
      P1  H  6896  6908       L1     7  0.88
      P1  H  6931  6943       L1    17  0.86
      P1  H  6934  6947       L1    17  0.87

> <Gold.PLP.Chemscore.Internal.Correction>
0.0667

> <Gold.Rescore>
     Score         DG    S(hbond)    S(metal)    S(lipo)     H(rot)  DE(clash)    DE(int)     intcor
     16.32     -17.98       3.23        0.00      49.07       1.57       0.01       1.65       ----

> <Gold.Chemscore.Fitness>
16.3214

> <Gold.Chemscore.DG>
-17.9795

> <Gold.Chemscore.ZeroCoef>
-5.4800

> <Gold.Chemscore.Hbond>
3.2290

> <Gold.Chemscore.Metal>
0.0000

> <Gold.Chemscore.Lipo>
49.0743

> <Gold.Chemscore.Internal_Hbond>
0.0000

> <Gold.Chemscore.DEClash>
0.0089

> <Gold.Chemscore.DEInternal>
1.6492

> <Gold.Chemscore.Rot>
1.5731

> <Gold.Chemscore.Internal.Correction>
   9.000000E+99

> <Gold.Chemscore.Hbonds>
donor molecule, donor type, donor heavy atom, donor atom, acceptor molecule, acceptor atom, score
      L1  H    11    35       P1  7948  0.91
      P1  H  6896  6908       L1     7  0.86
      P1  H  6931  6943       L1    17  0.53
      P1  H  6934  6947       L1    17  0.19

> <Gold.Chemscore.Hbond.Weighted>
-10.7849

> <Gold.Chemscore.Metal.Weighted>
-0.0000

> <Gold.Chemscore.Lipo.Weighted>
-5.7417

> <Gold.Chemscore.Internal_Hbond.Weighted>
0.0000

> <Gold.Chemscore.DEClash.Weighted>
0.0089

> <Gold.Chemscore.DEInternal.Weighted>
1.6492

> <Gold.Chemscore.Rot.Weighted>
4.0271

> <Gold.Chemscore.Internal.Correction.Weighted>
   9.000000E+99

> <Gold.Protein.RotatedTorsions>
[ 6907 6896 6895 6894 ] final  148.93 input  -60.11 | X-H torsion
[ 7974 7965 7964 7962 ] final  115.12 input  175.53 | X-H torsion
[ 8008 7997 7996 7995 ] final -155.92 input   59.86 | X-H torsion
[ 10167 10162 10161 10158 ] final -115.57 input  -65.29 | X-H torsion
[ 10718 10713 10712 10709 ] final  161.20 input   66.30 | X-H torsion
[ 10763 10752 10751 10750 ] final  147.61 input  -60.55 | X-H torsion
[ 11005 11000 10999 10996 ] final  -60.69 input  -57.11 | X-H torsion

> <Gold.Protein.ActiveResidues>
 VAL166  LYS551  ARG553  GLY616  TRP617  ASP618  TYR619  PRO620  LYS621  CYS622 
 ASP623  PHE694  ASN695  SER759  ASP760  ASP761  ALA762  ILE779  LEU786  VAL792 
 PHE793  MET794  SER795  GLU796  ALA797  LYS798  CYS799  TRP800  GLU811  SER814 

> <Gold.Protein.RotatedAtoms>
  152.1349  133.4429  159.4738 H   0  0  0  0  0  0  0  0  0  0  0  0  # atno 6907 bound_to 6896
  150.6881  134.2376  159.4468 H   0  0  0  0  0  0  0  0  0  0  0  0  # atno 6908 bound_to 6896
  152.0262  134.9794  160.0622 H   0  0  0  0  0  0  0  0  0  0  0  0  # atno 6909 bound_to 6896
  145.1960  139.2976  143.4343 H   0  0  0  0  0  0  0  0  0  0  0  0  # atno 7974 bound_to 7965
  155.7092  140.0776  157.2378 H   0  0  0  0  0  0  0  0  0  0  0  0  # atno 8008 bound_to 7997
  154.4061  140.1633  156.2331 H   0  0  0  0  0  0  0  0  0  0  0  0  # atno 8009 bound_to 7997
  155.9298  140.3392  155.6242 H   0  0  0  0  0  0  0  0  0  0  0  0  # atno 8010 bound_to 7997
  140.0886  143.4720  152.1883 H   0  0  0  0  0  0  0  0  0  0  0  0  # atno 10167 bound_to 10162
  157.1398  131.0537  151.2332 H   0  0  0  0  0  0  0  0  0  0  0  0  # atno 10718 bound_to 10713
  154.0411  135.2889  155.3355 H   0  0  0  0  0  0  0  0  0  0  0  0  # atno 10763 bound_to 10752
  154.6928  135.5219  153.8419 H   0  0  0  0  0  0  0  0  0  0  0  0  # atno 10764 bound_to 10752
  153.0599  135.6610  154.0615 H   0  0  0  0  0  0  0  0  0  0  0  0  # atno 10765 bound_to 10752
  141.1296  133.6624  156.5261 H   0  0  0  0  0  0  0  0  0  0  0  0  # atno 11005 bound_to 11000
  146.3427  140.2188  142.8591 LP  0  0  0  0  0  0  0  0  0  0  0  0  # atno 17320 bound_to 7965
  144.9994  140.8619  143.5290 LP  0  0  0  0  0  0  0  0  0  0  0  0  # atno 17321 bound_to 7965
  139.5737  144.7476  151.3821 LP  0  0  0  0  0  0  0  0  0  0  0  0  # atno 17342 bound_to 10162
  140.7040  143.7560  150.7451 LP  0  0  0  0  0  0  0  0  0  0  0  0  # atno 17343 bound_to 10162
  157.4318  130.7494  149.6996 LP  0  0  0  0  0  0  0  0  0  0  0  0  # atno 17370 bound_to 10713
  155.9791  130.4044  150.3609 LP  0  0  0  0  0  0  0  0  0  0  0  0  # atno 17371 bound_to 10713
  140.4253  134.7150  157.4912 LP  0  0  0  0  0  0  0  0  0  0  0  0  # atno 17394 bound_to 11000
  140.0331  134.6376  155.9079 LP  0  0  0  0  0  0  0  0  0  0  0  0  # atno 17395 bound_to 11000

$$$$
