AV-unprocessed.smi:1572|AV-procd|sdf|6331|dock10
  -GOLD-   22720 6543D 1   1.00000     0.00000
 Structure written by MMmdl.
 42 43  0  0  0  0  0  0  0  0  3 V2000
  144.0877  133.9628  151.2017 C   0  0  0  0  0  0  0  0  0  0  0  0
  145.3356  134.6742  150.9468 N   0  0  0  0  0  0  0  0  0  0  0  0
  145.6369  135.6884  151.9566 C   0  0  0  0  0  0  0  0  0  0  0  0
  146.0517  135.0670  153.3069 C   0  0  0  0  0  0  0  0  0  0  0  0
  147.2326  134.1727  153.1354 N   0  3  0  0  0  0  0  0  0  0  0  0
  147.8720  133.6760  154.4068 C   0  0  0  0  0  0  0  0  0  0  0  0
  146.9315  132.6625  155.1066 C   0  0  0  0  0  0  0  0  0  0  0  0
  149.1630  132.8910  154.0616 C   0  0  0  0  0  0  0  0  0  0  0  0
  148.1882  134.8535  155.3777 C   0  0  0  0  0  0  0  0  0  0  0  0
  148.1497  134.4675  156.7875 N   0  0  0  0  0  0  0  0  0  0  0  0
  147.8147  135.2539  157.8204 C   0  0  0  0  0  0  0  0  0  0  0  0
  147.4945  136.4283  157.6240 O   0  0  0  0  0  0  0  0  0  0  0  0
  147.8822  134.6311  159.0180 N   0  5  0  0  0  0  0  0  0  0  0  0
  147.7181  135.3353  160.1501 C   0  0  0  0  0  0  0  0  0  0  0  0
  147.5664  136.6693  160.1505 N   0  0  0  0  0  0  0  0  0  0  0  0
  147.4113  137.2006  161.4236 N   0  0  0  0  0  0  0  0  0  0  0  0
  147.4389  136.2473  162.3545 C   0  0  0  0  0  0  0  0  0  0  0  0
  147.6572  134.6147  161.7610 S   0  0  0  0  0  0  0  0  0  0  0  0
  146.9114  133.1317  152.1178 C   0  0  0  0  0  0  0  0  0  0  0  0
  146.4846  133.7839  150.7863 C   0  0  0  0  0  0  0  0  0  0  0  0
  143.2563  134.6666  151.2485 H   0  0  0  0  0  0  0  0  0  0  0  0
  144.1059  133.4015  152.1351 H   0  0  0  0  0  0  0  0  0  0  0  0
  143.8812  133.2625  150.3917 H   0  0  0  0  0  0  0  0  0  0  0  0
  146.4444  136.3199  151.5836 H   0  0  0  0  0  0  0  0  0  0  0  0
  144.7724  136.3405  152.0881 H   0  0  0  0  0  0  0  0  0  0  0  0
  146.2762  135.8908  153.9809 H   0  0  0  0  0  0  0  0  0  0  0  0
  145.2166  134.5243  153.7486 H   0  0  0  0  0  0  0  0  0  0  0  0
  147.4387  132.1341  155.9148 H   0  0  0  0  0  0  0  0  0  0  0  0
  146.5703  131.9062  154.4088 H   0  0  0  0  0  0  0  0  0  0  0  0
  146.0658  133.1437  155.5612 H   0  0  0  0  0  0  0  0  0  0  0  0
  149.5404  132.3341  154.9197 H   0  0  0  0  0  0  0  0  0  0  0  0
  149.9756  133.5458  153.7478 H   0  0  0  0  0  0  0  0  0  0  0  0
  148.9876  132.1658  153.2662 H   0  0  0  0  0  0  0  0  0  0  0  0
  149.1515  135.3082  155.1469 H   0  0  0  0  0  0  0  0  0  0  0  0
  147.4523  135.6485  155.2629 H   0  0  0  0  0  0  0  0  0  0  0  0
  148.4029  133.5144  157.0037 H   0  0  0  0  0  0  0  0  0  0  0  0
  147.3295  136.5066  163.3969 H   0  0  0  0  0  0  0  0  0  0  0  0
  147.7785  132.5110  151.9032 H   0  0  0  0  0  0  0  0  0  0  0  0
  146.1322  132.4624  152.4816 H   0  0  0  0  0  0  0  0  0  0  0  0
  146.2526  133.0182  150.0451 H   0  0  0  0  0  0  0  0  0  0  0  0
  147.3170  134.3614  150.3817 H   0  0  0  0  0  0  0  0  0  0  0  0
  147.9394  134.7515  152.7055 H   0  0  0  0  0  0  0  0  0  0  0  0
  1  2  1  0  0  0  0
  1 21  1  0  0  0  0
  1 22  1  0  0  0  0
  1 23  1  0  0  0  0
  2 20  1  0  0  0  0
  2  3  1  0  0  0  0
  3  4  1  0  0  0  0
  3 24  1  0  0  0  0
  3 25  1  0  0  0  0
  4  5  1  0  0  0  0
  4 26  1  0  0  0  0
  4 27  1  0  0  0  0
  5  6  1  0  0  0  0
  5 19  1  0  0  0  0
  5 42  1  0  0  0  0
  6  7  1  0  0  0  0
  6  8  1  0  0  0  0
  6  9  1  0  0  0  0
  7 28  1  0  0  0  0
  7 29  1  0  0  0  0
  7 30  1  0  0  0  0
  8 31  1  0  0  0  0
  8 32  1  0  0  0  0
  8 33  1  0  0  0  0
  9 10  1  0  0  0  0
  9 34  1  0  0  0  0
  9 35  1  0  0  0  0
 10 11  1  0  0  0  0
 10 36  1  0  0  0  0
 11 12  2  0  0  0  0
 11 13  1  0  0  0  0
 13 14  1  0  0  0  0
 14 18  1  0  0  0  0
 14 15  2  0  0  0  0
 15 16  1  0  0  0  0
 16 17  2  0  0  0  0
 17 18  1  0  0  0  0
 17 37  1  0  0  0  0
 19 20  1  0  0  0  0
 19 38  1  0  0  0  0
 19 39  1  0  0  0  0
 20 40  1  0  0  0  0
 20 41  1  0  0  0  0
M  CHG  1   5   1
M  CHG  1  13  -1
M  END
> <s_m_source_file>
AV-unprocessed.smi

> <i_m_source_file_index>
1572

> <i_lp_mmshare_version>
43012

> <i_f3d_flags>
0

> <s_epik_input>
W0NIM11OMVtDSDJdW0NIMl1OKFtDSDJdW0NIMl0xKUMoW0NIM10pKFtDSDNdKVtDSDJdW05IXUMoPU8pW05IXWMybm5bY0hdczI=

> <s_epik_cmdline>
J2VwaWtfcHl0aG9uJywgJy1waCcsICc3LjAnLCAnLXRuJywgJzgnLCAnLW1hJywgJzIwMCcsICctbWV0YWxfYmluZGluZycsICctaW1hZScsICc8aW5maWxlLm1hZT4nLCAnLW9tYWUnLCAnPG91dGZpbGUubWFlPic=

> <r_epik_Ionization_Penalty>
3.12043

> <r_epik_Ionization_Penalty_Charging>
3.08547

> <r_epik_Ionization_Penalty_Neutral>
0.0349584

> <r_epik_State_Penalty>
4.04075

> <r_epik_Charging_Adjusted_Penalty>
7.12622

> <i_epik_Tot_Q>
0

> <i_epik_Tot_abs_Q>
2

> <r_epik_Metal_State_Penalty>
1.47091

> <b_epik_Metal_Only>
1

> <s_lp_Force_Field>
OPLS_2005

> <r_lp_Energy>
19.1563

> <b_lp_Chiralities_Consistent>
1

> <s_lp_Variant>
AV-unprocessed.smi:1572-5

> <Gold.Version>
5.8.1

> <Gold.Id.Protein>
6NUR|6NUR_protein|mol2

> <Gold.PLP.Fitness>
37.4427

> <Gold.PLP.PLP>
-27.5481

> <Gold.PLP.part.hbond>
-3.0000

> <Gold.PLP.part.metal>
0.0000

> <Gold.PLP.part.buried>
-5.1215

> <Gold.PLP.part.nonpolar>
-18.8523

> <Gold.PLP.part.repulsive>
0.2101

> <Gold.PLP.ligand.clash>
0.0000

> <Gold.PLP.ligand.torsion>
0.8063

> <Gold.PLP.Chemscore.Hbond>
3.7936

> <Gold.PLP.Chemscore.CHOScore>
0.0000

> <Gold.PLP.Chemscore.Metal>
0.0000

> <Gold.Chemscore.Hbonds>
donor molecule, donor type, donor heavy atom, donor atom, acceptor molecule, acceptor atom, score
      L1  H     5    42       P1  7948  2.00
      P1  H  6931  6943       L1    16  0.90
      P1  H  6934  6947       L1    16  0.88

> <Gold.PLP.Chemscore.Internal.Correction>
0.1264

> <Gold.Rescore>
     Score         DG    S(hbond)    S(metal)    S(lipo)     H(rot)  DE(clash)    DE(int)     intcor
     11.81     -14.50       1.75        0.00      63.59       1.67       0.17       2.52       ----

> <Gold.Chemscore.Fitness>
11.8118

> <Gold.Chemscore.DG>
-14.4987

> <Gold.Chemscore.ZeroCoef>
-5.4800

> <Gold.Chemscore.Hbond>
1.7522

> <Gold.Chemscore.Metal>
0.0000

> <Gold.Chemscore.Lipo>
63.5913

> <Gold.Chemscore.Internal_Hbond>
0.0000

> <Gold.Chemscore.DEClash>
0.1697

> <Gold.Chemscore.DEInternal>
2.5172

> <Gold.Chemscore.Rot>
1.6694

> <Gold.Chemscore.Internal.Correction>
   9.000000E+99

> <Gold.Chemscore.Hbonds>
donor molecule, donor type, donor heavy atom, donor atom, acceptor molecule, acceptor atom, score
      L1  H     5    42       P1  7948  0.81
      P1  H  6931  6943       L1    16  0.19
      P1  H  6934  6947       L1    16  0.19

> <Gold.Chemscore.Hbond.Weighted>
-5.8523

> <Gold.Chemscore.Metal.Weighted>
-0.0000

> <Gold.Chemscore.Lipo.Weighted>
-7.4402

> <Gold.Chemscore.Internal_Hbond.Weighted>
0.0000

> <Gold.Chemscore.DEClash.Weighted>
0.1697

> <Gold.Chemscore.DEInternal.Weighted>
2.5172

> <Gold.Chemscore.Rot.Weighted>
4.2738

> <Gold.Chemscore.Internal.Correction.Weighted>
   9.000000E+99

> <Gold.Protein.RotatedTorsions>
[ 6907 6896 6895 6894 ] final  -15.54 input  -60.11 | X-H torsion
[ 7974 7965 7964 7962 ] final   57.57 input  175.53 | X-H torsion
[ 8008 7997 7996 7995 ] final -147.27 input   59.86 | X-H torsion
[ 10167 10162 10161 10158 ] final  139.76 input  -65.29 | X-H torsion
[ 10718 10713 10712 10709 ] final   61.05 input   66.30 | X-H torsion
[ 10763 10752 10751 10750 ] final   87.71 input  -60.55 | X-H torsion
[ 11005 11000 10999 10996 ] final  -31.88 input  -57.11 | X-H torsion

> <Gold.Protein.ActiveResidues>
 VAL166  LYS551  ARG553  GLY616  TRP617  ASP618  TYR619  PRO620  LYS621  CYS622 
 ASP623  PHE694  ASN695  SER759  ASP760  ASP761  ALA762  ILE779  LEU786  VAL792 
 PHE793  MET794  SER795  GLU796  ALA797  LYS798  CYS799  TRP800  GLU811  SER814 

> <Gold.Protein.RotatedAtoms>
  151.3223  135.0821  159.9309 H   0  0  0  0  0  0  0  0  0  0  0  0  # atno 6907 bound_to 6896
  152.5254  133.9626  159.7734 H   0  0  0  0  0  0  0  0  0  0  0  0  # atno 6908 bound_to 6896
  150.9949  133.6060  159.2733 H   0  0  0  0  0  0  0  0  0  0  0  0  # atno 6909 bound_to 6896
  145.9276  139.3781  143.0440 H   0  0  0  0  0  0  0  0  0  0  0  0  # atno 7974 bound_to 7965
  155.5729  140.0636  157.2802 H   0  0  0  0  0  0  0  0  0  0  0  0  # atno 8008 bound_to 7997
  154.4355  140.1866  156.0943 H   0  0  0  0  0  0  0  0  0  0  0  0  # atno 8009 bound_to 7997
  156.0363  140.3301  155.7198 H   0  0  0  0  0  0  0  0  0  0  0  0  # atno 8010 bound_to 7997
  139.5069  144.6275  151.5900 H   0  0  0  0  0  0  0  0  0  0  0  0  # atno 10167 bound_to 10162
  157.5799  130.8973  149.9413 H   0  0  0  0  0  0  0  0  0  0  0  0  # atno 10718 bound_to 10713
  153.1696  135.4533  154.9884 H   0  0  0  0  0  0  0  0  0  0  0  0  # atno 10763 bound_to 10752
  154.7956  135.3236  154.7677 H   0  0  0  0  0  0  0  0  0  0  0  0  # atno 10764 bound_to 10752
  153.8155  135.6951  153.4889 H   0  0  0  0  0  0  0  0  0  0  0  0  # atno 10765 bound_to 10752
  140.9505  133.7224  156.1213 H   0  0  0  0  0  0  0  0  0  0  0  0  # atno 11005 bound_to 11000
  145.8468  140.9551  143.0770 LP  0  0  0  0  0  0  0  0  0  0  0  0  # atno 17320 bound_to 7965
  144.6760  140.0355  143.7482 LP  0  0  0  0  0  0  0  0  0  0  0  0  # atno 17321 bound_to 7965
  140.5997  143.9632  150.6378 LP  0  0  0  0  0  0  0  0  0  0  0  0  # atno 17342 bound_to 10162
  140.2840  143.3370  152.1125 LP  0  0  0  0  0  0  0  0  0  0  0  0  # atno 17343 bound_to 10162
  156.0845  130.3669  150.0515 LP  0  0  0  0  0  0  0  0  0  0  0  0  # atno 17370 bound_to 10713
  156.8656  130.9506  151.3614 LP  0  0  0  0  0  0  0  0  0  0  0  0  # atno 17371 bound_to 10713
  140.7609  134.3940  157.5526 LP  0  0  0  0  0  0  0  0  0  0  0  0  # atno 17394 bound_to 11000
  139.8846  134.8960  156.2693 LP  0  0  0  0  0  0  0  0  0  0  0  0  # atno 17395 bound_to 11000

$$$$
