AV-unprocessed.smi:3303|AV-procd|sdf|12657|dock9
  -GOLD-   2272018593D 1   1.00000     0.00000
 Structure written by MMmdl.
 45 46  0  0  0  0  0  0  0  0  3 V2000
  151.2755  138.2630  154.7961 C   0  0  0  0  0  0  0  0  0  0  0  0
  150.0068  139.1211  154.9473 C   0  0  2  0  0  0  0  0  0  0  0  0
  149.0514  138.8676  153.7632 C   0  0  0  0  0  0  0  0  0  0  0  0
  147.8004  139.6634  153.8663 N   0  3  2  0  0  0  0  0  0  0  0  0
  146.8451  139.2878  152.7955 C   0  0  0  0  0  0  0  0  0  0  0  0
  148.0777  141.1287  153.9482 C   0  0  1  0  0  0  0  0  0  0  0  0
  146.7935  141.9702  154.0841 C   0  0  0  0  0  0  0  0  0  0  0  0
  149.0179  141.4254  155.1345 C   0  0  0  0  0  0  0  0  0  0  0  0
  150.3285  140.6266  155.0572 C   0  0  1  0  0  0  0  0  0  0  0  0
  151.1507  140.9084  156.2564 N   0  3  0  0  0  0  0  0  0  0  0  0
  150.5727  140.4332  157.5292 C   0  0  0  0  0  0  0  0  0  0  0  0
  151.4955  140.7646  158.7096 C   0  0  0  0  0  0  0  0  0  0  0  0
  151.6353  142.2591  158.9248 C   0  0  0  0  0  0  0  0  0  0  0  0
  152.2806  142.7651  160.0731 C   0  0  0  0  0  0  0  0  0  0  0  0
  152.3918  144.1616  160.2183 C   0  0  0  0  0  0  0  0  0  0  0  0
  151.8563  144.9924  159.2154 C   0  0  0  0  0  0  0  0  0  0  0  0
  151.2318  144.3880  158.1062 C   0  0  0  0  0  0  0  0  0  0  0  0
  151.1227  143.0498  157.9557 N   0  0  0  0  0  0  0  0  0  0  0  0
  151.8449  138.5474  153.9106 H   0  0  0  0  0  0  0  0  0  0  0  0
  151.0247  137.2058  154.7024 H   0  0  0  0  0  0  0  0  0  0  0  0
  151.9340  138.3606  155.6595 H   0  0  0  0  0  0  0  0  0  0  0  0
  149.4990  138.8071  155.8612 H   0  0  0  0  0  0  0  0  0  0  0  0
  149.5491  139.1005  152.8201 H   0  0  0  0  0  0  0  0  0  0  0  0
  148.7985  137.8069  153.7293 H   0  0  0  0  0  0  0  0  0  0  0  0
  147.1892  139.6393  151.8221 H   0  0  0  0  0  0  0  0  0  0  0  0
  145.8527  139.6969  152.9818 H   0  0  0  0  0  0  0  0  0  0  0  0
  146.7291  138.2047  152.7421 H   0  0  0  0  0  0  0  0  0  0  0  0
  148.5801  141.4291  153.0268 H   0  0  0  0  0  0  0  0  0  0  0  0
  147.0327  143.0225  154.2406 H   0  0  0  0  0  0  0  0  0  0  0  0
  146.1879  141.6418  154.9295 H   0  0  0  0  0  0  0  0  0  0  0  0
  146.1765  141.9245  153.1868 H   0  0  0  0  0  0  0  0  0  0  0  0
  149.2461  142.4919  155.1637 H   0  0  0  0  0  0  0  0  0  0  0  0
  148.5037  141.1971  156.0700 H   0  0  0  0  0  0  0  0  0  0  0  0
  150.8669  140.9382  154.1598 H   0  0  0  0  0  0  0  0  0  0  0  0
  152.0546  140.4732  156.1369 H   0  0  0  0  0  0  0  0  0  0  0  0
  149.5982  140.8997  157.6797 H   0  0  0  0  0  0  0  0  0  0  0  0
  150.4112  139.3561  157.4672 H   0  0  0  0  0  0  0  0  0  0  0  0
  151.1122  140.3109  159.6250 H   0  0  0  0  0  0  0  0  0  0  0  0
  152.4838  140.3336  158.5440 H   0  0  0  0  0  0  0  0  0  0  0  0
  152.6828  142.1028  160.8256 H   0  0  0  0  0  0  0  0  0  0  0  0
  152.8801  144.5877  161.0824 H   0  0  0  0  0  0  0  0  0  0  0  0
  151.9231  146.0675  159.2938 H   0  0  0  0  0  0  0  0  0  0  0  0
  150.8107  144.9947  157.3184 H   0  0  0  0  0  0  0  0  0  0  0  0
  151.2841  141.9077  156.3227 H   0  0  0  0  0  0  0  0  0  0  0  0
  147.3639  139.4000  154.7386 H   0  0  0  0  0  0  0  0  0  0  0  0
  1  2  1  0  0  0  0
  1 19  1  0  0  0  0
  1 20  1  0  0  0  0
  1 21  1  0  0  0  0
  2  9  1  0  0  0  0
  2  3  1  0  0  0  0
  2 22  1  0  0  0  0
  3  4  1  0  0  0  0
  3 23  1  0  0  0  0
  3 24  1  0  0  0  0
  4  5  1  0  0  0  0
  4  6  1  0  0  0  0
  4 45  1  0  0  0  0
  5 25  1  0  0  0  0
  5 26  1  0  0  0  0
  5 27  1  0  0  0  0
  6  7  1  0  0  0  0
  6  8  1  0  0  0  0
  6 28  1  0  0  0  0
  7 29  1  0  0  0  0
  7 30  1  0  0  0  0
  7 31  1  0  0  0  0
  8  9  1  0  0  0  0
  8 32  1  0  0  0  0
  8 33  1  0  0  0  0
  9 10  1  0  0  0  0
  9 34  1  0  0  0  0
 10 11  1  0  0  0  0
 10 35  1  0  0  0  0
 10 44  1  0  0  0  0
 11 12  1  0  0  0  0
 11 36  1  0  0  0  0
 11 37  1  0  0  0  0
 12 13  1  0  0  0  0
 12 38  1  0  0  0  0
 12 39  1  0  0  0  0
 13 18  1  0  0  0  0
 13 14  2  0  0  0  0
 14 15  1  0  0  0  0
 14 40  1  0  0  0  0
 15 16  2  0  0  0  0
 15 41  1  0  0  0  0
 16 17  1  0  0  0  0
 16 42  1  0  0  0  0
 17 18  2  0  0  0  0
 17 43  1  0  0  0  0
M  CHG  1   4   1
M  CHG  1  10   1
M  END
> <s_m_source_file>
AV-unprocessed.smi

> <i_m_source_file_index>
3303

> <i_lp_mmshare_version>
43012

> <i_f3d_flags>
0

> <s_epik_input>
W0NIM11bQ0BASF0xW0NIMl1OKFtDSDNdKVtDQEBIXShbQ0gzXSlbQ0gyXVtDQEhdMVtOSF1bQ0gyXVtDSDJdYzJbY0hdW2NIXVtjSF1bY0hdbjI=

> <s_epik_cmdline>
J2VwaWtfcHl0aG9uJywgJy1waCcsICc3LjAnLCAnLXRuJywgJzgnLCAnLW1hJywgJzIwMCcsICctbWV0YWxfYmluZGluZycsICctaW1hZScsICc8aW5maWxlLm1hZT4nLCAnLW9tYWUnLCAnPG91dGZpbGUubWFlPic=

> <r_epik_Ionization_Penalty>
0.0769462

> <r_epik_Ionization_Penalty_Charging>
0.0759813

> <r_epik_Ionization_Penalty_Neutral>
0.000964829

> <r_epik_State_Penalty>
0.0654373

> <r_epik_Charging_Adjusted_Penalty>
0.141419

> <i_epik_Tot_Q>
2

> <i_epik_Tot_abs_Q>
2

> <r_epik_Metal_State_Penalty>
0.0656439

> <b_epik_Metal_Only>
0

> <s_lp_Force_Field>
OPLS_2005

> <r_lp_Energy>
29.1913

> <b_lp_Chiralities_Consistent>
1

> <s_lp_Variant>
AV-unprocessed.smi:3303-1

> <Gold.Version>
5.8.1

> <Gold.Id.Protein>
6NUR|6NUR_protein|mol2

> <Gold.PLP.Fitness>
43.4089

> <Gold.PLP.PLP>
-40.6188

> <Gold.PLP.part.hbond>
-0.1424

> <Gold.PLP.part.metal>
0.0000

> <Gold.PLP.part.buried>
-2.2449

> <Gold.PLP.part.nonpolar>
-39.5514

> <Gold.PLP.part.repulsive>
0.2513

> <Gold.PLP.ligand.clash>
0.0000

> <Gold.PLP.ligand.torsion>
0.1082

> <Gold.PLP.Chemscore.Hbond>
0.0000

> <Gold.PLP.Chemscore.CHOScore>
1.0000

> <Gold.PLP.Chemscore.Metal>
0.0000

> <Gold.Chemscore.Hbonds>
donor molecule, donor type, donor heavy atom, donor atom, acceptor molecule, acceptor atom, score
      L1  C    17    43       P1  8028  1.00

> <Gold.PLP.Chemscore.Internal.Correction>
0.0065

> <Gold.Rescore>
     Score         DG    S(hbond)    S(metal)    S(lipo)     H(rot)  DE(clash)    DE(int)     intcor
     14.72     -16.33       0.00        0.00     122.84       1.37       0.15       1.46       ----

> <Gold.Chemscore.Fitness>
14.7182

> <Gold.Chemscore.DG>
-16.3341

> <Gold.Chemscore.ZeroCoef>
-5.4800

> <Gold.Chemscore.Hbond>
0.0000

> <Gold.Chemscore.Metal>
0.0000

> <Gold.Chemscore.Lipo>
122.8425

> <Gold.Chemscore.Internal_Hbond>
0.0000

> <Gold.Chemscore.DEClash>
0.1512

> <Gold.Chemscore.DEInternal>
1.4647

> <Gold.Chemscore.Rot>
1.3744

> <Gold.Chemscore.Internal.Correction>
   9.000000E+99

> <Gold.Chemscore.Hbond.Weighted>
-0.0000

> <Gold.Chemscore.Metal.Weighted>
-0.0000

> <Gold.Chemscore.Lipo.Weighted>
-14.3726

> <Gold.Chemscore.Internal_Hbond.Weighted>
0.0000

> <Gold.Chemscore.DEClash.Weighted>
0.1512

> <Gold.Chemscore.DEInternal.Weighted>
1.4647

> <Gold.Chemscore.Rot.Weighted>
3.5185

> <Gold.Chemscore.Internal.Correction.Weighted>
   9.000000E+99

> <Gold.Protein.RotatedTorsions>
[ 6907 6896 6895 6894 ] final  -54.79 input  -60.11 | X-H torsion
[ 7974 7965 7964 7962 ] final  -54.32 input  175.53 | X-H torsion
[ 8008 7997 7996 7995 ] final  130.05 input   59.86 | X-H torsion
[ 10167 10162 10161 10158 ] final -144.70 input  -65.29 | X-H torsion
[ 10718 10713 10712 10709 ] final -128.85 input   66.30 | X-H torsion
[ 10763 10752 10751 10750 ] final  -78.41 input  -60.55 | X-H torsion
[ 11005 11000 10999 10996 ] final  177.83 input  -57.11 | X-H torsion

> <Gold.Protein.ActiveResidues>
 VAL166  LYS551  ARG553  GLY616  TRP617  ASP618  TYR619  PRO620  LYS621  CYS622 
 ASP623  PHE694  ASN695  SER759  ASP760  ASP761  ALA762  ILE779  LEU786  VAL792 
 PHE793  MET794  SER795  GLU796  ALA797  LYS798  CYS799  TRP800  GLU811  SER814 

> <Gold.Protein.RotatedAtoms>
  150.8307  134.7559  159.6851 H   0  0  0  0  0  0  0  0  0  0  0  0  # atno 6907 bound_to 6896
  152.4412  134.5583  159.9896 H   0  0  0  0  0  0  0  0  0  0  0  0  # atno 6908 bound_to 6896
  151.5745  133.3348  159.3032 H   0  0  0  0  0  0  0  0  0  0  0  0  # atno 6909 bound_to 6896
  145.8869  140.8101  142.9811 H   0  0  0  0  0  0  0  0  0  0  0  0  # atno 7974 bound_to 7965
  156.2947  140.2605  156.2698 H   0  0  0  0  0  0  0  0  0  0  0  0  # atno 8008 bound_to 7997
  154.9706  140.0391  157.2251 H   0  0  0  0  0  0  0  0  0  0  0  0  # atno 8009 bound_to 7997
  154.7862  140.2804  155.6031 H   0  0  0  0  0  0  0  0  0  0  0  0  # atno 8010 bound_to 7997
  139.7874  143.8014  152.2646 H   0  0  0  0  0  0  0  0  0  0  0  0  # atno 10167 bound_to 10162
  156.1990  130.6845  151.0516 H   0  0  0  0  0  0  0  0  0  0  0  0  # atno 10718 bound_to 10713
  154.5255  135.5731  153.6716 H   0  0  0  0  0  0  0  0  0  0  0  0  # atno 10763 bound_to 10752
  152.9927  135.6192  154.2697 H   0  0  0  0  0  0  0  0  0  0  0  0  # atno 10764 bound_to 10752
  154.2621  135.2856  155.2753 H   0  0  0  0  0  0  0  0  0  0  0  0  # atno 10765 bound_to 10752
  140.3884  134.6884  157.4493 H   0  0  0  0  0  0  0  0  0  0  0  0  # atno 11005 bound_to 11000
  144.6729  140.1469  143.7433 LP  0  0  0  0  0  0  0  0  0  0  0  0  # atno 17320 bound_to 7965
  145.8956  139.2401  143.1524 LP  0  0  0  0  0  0  0  0  0  0  0  0  # atno 17321 bound_to 7965
  139.8095  144.7341  150.9716 LP  0  0  0  0  0  0  0  0  0  0  0  0  # atno 17342 bound_to 10162
  140.7820  143.4264  151.0761 LP  0  0  0  0  0  0  0  0  0  0  0  0  # atno 17343 bound_to 10162
  157.6975  131.0789  150.6925 LP  0  0  0  0  0  0  0  0  0  0  0  0  # atno 17370 bound_to 10713
  156.6982  130.4615  149.5580 LP  0  0  0  0  0  0  0  0  0  0  0  0  # atno 17371 bound_to 10713
  140.0425  134.6247  155.8962 LP  0  0  0  0  0  0  0  0  0  0  0  0  # atno 17394 bound_to 11000
  141.1899  133.6567  156.5389 LP  0  0  0  0  0  0  0  0  0  0  0  0  # atno 17395 bound_to 11000

$$$$
