AV-unprocessed.smi:48|AV-procd|sdf|459|dock5
  -GOLD-   2262016323D 1   1.00000     0.00000
 Structure written by MMmdl.
 30 32  0  0  0  0  0  0  0  0  1 V2000
  149.1790  138.4065  153.5244 O   0  0  0  0  0  0  0  0  0  0  0  0
  149.6359  138.0607  154.8141 C   0  0  0  0  0  0  0  0  0  0  0  0
  149.2353  139.1498  155.8251 C   0  0  1  0  0  0  0  0  0  0  0  0
  149.7158  138.8356  157.1319 O   0  0  0  0  0  0  0  0  0  0  0  0
  150.0197  139.9961  157.8477 C   0  0  1  0  0  0  0  0  0  0  0  0
  151.4623  139.9144  158.2429 N   0  0  0  0  0  0  0  0  0  0  0  0
  152.4143  139.0570  157.8165 C   0  0  0  0  0  0  0  0  0  0  0  0
  153.6373  139.1947  158.3275 N   0  0  0  0  0  0  0  0  0  0  0  0
  153.4562  140.2613  159.1926 C   0  0  0  0  0  0  0  0  0  0  0  0
  154.3309  140.9479  160.0690 C   0  0  0  0  0  0  0  0  0  0  0  0
  155.9893  140.4911  160.2075 Cl  0  0  0  0  0  0  0  0  0  0  0  0
  153.8360  141.9764  160.7985 N   0  0  0  0  0  0  0  0  0  0  0  0
  152.5455  142.3105  160.6713 C   0  0  0  0  0  0  0  0  0  0  0  0
  151.6069  141.7594  159.8927 N   0  0  0  0  0  0  0  0  0  0  0  0
  152.1102  140.7232  159.1590 C   0  0  0  0  0  0  0  0  0  0  0  0
  149.7436  141.1923  156.9179 C   0  0  1  0  0  0  0  0  0  0  0  0
  150.6300  142.2901  157.0497 O   0  0  0  0  0  0  0  0  0  0  0  0
  149.7762  140.5574  155.5344 C   0  0  1  0  0  0  0  0  0  0  0  0
  151.0830  140.5113  154.9854 O   0  0  0  0  0  0  0  0  0  0  0  0
  148.1475  139.2219  155.8826 H   0  0  0  0  0  0  0  0  0  0  0  0
  149.4750  140.0379  158.7916 H   0  0  0  0  0  0  0  0  0  0  0  0
  148.7289  141.5344  157.1263 H   0  0  0  0  0  0  0  0  0  0  0  0
  149.1372  141.0930  154.8317 H   0  0  0  0  0  0  0  0  0  0  0  0
  149.4163  137.7143  152.9265 H   0  0  0  0  0  0  0  0  0  0  0  0
  149.2457  137.0846  155.1042 H   0  0  0  0  0  0  0  0  0  0  0  0
  150.7217  137.9761  154.7621 H   0  0  0  0  0  0  0  0  0  0  0  0
  152.1999  138.2878  157.0891 H   0  0  0  0  0  0  0  0  0  0  0  0
  152.2172  143.1400  161.2802 H   0  0  0  0  0  0  0  0  0  0  0  0
  150.3499  142.8102  157.7874 H   0  0  0  0  0  0  0  0  0  0  0  0
  151.6083  139.9321  155.5166 H   0  0  0  0  0  0  0  0  0  0  0  0
  1  2  1  0  0  0  0
  1 24  1  0  0  0  0
  2  3  1  0  0  0  0
  2 25  1  0  0  0  0
  2 26  1  0  0  0  0
  3 20  1  0  0  0  0
  3 18  1  0  0  0  0
  3  4  1  0  0  0  0
  4  5  1  0  0  0  0
  5 21  1  0  0  0  0
  5  6  1  0  0  0  0
  5 16  1  0  0  0  0
  6 15  1  0  0  0  0
  6  7  1  0  0  0  0
  7  8  2  0  0  0  0
  7 27  1  0  0  0  0
  8  9  1  0  0  0  0
  9 15  2  0  0  0  0
  9 10  1  0  0  0  0
 10 11  1  0  0  0  0
 10 12  2  0  0  0  0
 12 13  1  0  0  0  0
 13 14  2  0  0  0  0
 13 28  1  0  0  0  0
 14 15  1  0  0  0  0
 16 22  1  0  0  0  0
 16 17  1  0  0  0  0
 16 18  1  0  0  0  0
 17 29  1  0  0  0  0
 18 23  1  0  0  0  0
 18 19  1  0  0  0  0
 19 30  1  0  0  0  0
M  END
> <s_m_source_file>
AV-unprocessed.smi

> <i_m_source_file_index>
48

> <i_lp_mmshare_version>
43012

> <i_f3d_flags>
0

> <s_epik_input>
W09IXVtDSDJdW0NASF0xT1tDQEhdKFtDQEhdKFtPSF0pW0NAQEhdMVtPSF0pbihbY0hdbjIpYyhjMjMpbltjSF1uYzNDbA==

> <s_epik_cmdline>
J2VwaWtfcHl0aG9uJywgJy1waCcsICc3LjAnLCAnLXRuJywgJzgnLCAnLW1hJywgJzIwMCcsICctbWV0YWxfYmluZGluZycsICctaW1hZScsICc8aW5maWxlLm1hZT4nLCAnLW9tYWUnLCAnPG91dGZpbGUubWFlPic=

> <r_lp_tautomer_probability>
1

> <r_epik_Ionization_Penalty>
3.45505e-06

> <r_epik_Ionization_Penalty_Charging>
0

> <r_epik_Ionization_Penalty_Neutral>
3.45505e-06

> <r_epik_State_Penalty>
-0

> <r_epik_Charging_Adjusted_Penalty>
0

> <i_epik_Tot_Q>
0

> <i_epik_Tot_abs_Q>
0

> <r_epik_Metal_State_Penalty>
-0

> <b_epik_Metal_Only>
0

> <s_epik_Chemistry_Notes>
This compound contains an acetal/aminal-like group ( X-CH(R)-Y where X, Y are N, S, or O) that may be acid/base labile, releasing an aldehyde.

> <s_lp_Force_Field>
OPLS_2005

> <r_lp_Energy>
40.6027

> <b_lp_Chiralities_Consistent>
1

> <s_lp_Variant>
AV-unprocessed.smi:48-13

> <Gold.Version>
5.8.1

> <Gold.Id.Protein>
6NUR|6NUR_protein|mol2

> <Gold.PLP.Fitness>
36.5216

> <Gold.PLP.PLP>
-28.1570

> <Gold.PLP.part.hbond>
-4.9958

> <Gold.PLP.part.metal>
0.0000

> <Gold.PLP.part.buried>
-4.6447

> <Gold.PLP.part.nonpolar>
-18.6890

> <Gold.PLP.part.repulsive>
0.0000

> <Gold.PLP.ligand.clash>
0.0000

> <Gold.PLP.ligand.torsion>
0.3141

> <Gold.PLP.Chemscore.Hbond>
2.9420

> <Gold.PLP.Chemscore.CHOScore>
0.0000

> <Gold.PLP.Chemscore.Metal>
0.0000

> <Gold.Chemscore.Hbonds>
donor molecule, donor type, donor heavy atom, donor atom, acceptor molecule, acceptor atom, score
      L1  H     1    24       P1  7948  1.00
      P1  H  7989  7998       L1    19  1.00
      P1  H  7997  8008       L1     8  0.85

> <Gold.PLP.Chemscore.Internal.Correction>
0.1669

> <Gold.Rescore>
     Score         DG    S(hbond)    S(metal)    S(lipo)     H(rot)  DE(clash)    DE(int)     intcor
      8.61      -9.34       2.64        0.00      40.70       3.80       0.01       0.72       ----

> <Gold.Chemscore.Fitness>
8.6082

> <Gold.Chemscore.DG>
-9.3426

> <Gold.Chemscore.ZeroCoef>
-5.4800

> <Gold.Chemscore.Hbond>
2.6446

> <Gold.Chemscore.Metal>
0.0000

> <Gold.Chemscore.Lipo>
40.7001

> <Gold.Chemscore.Internal_Hbond>
0.0000

> <Gold.Chemscore.DEClash>
0.0121

> <Gold.Chemscore.DEInternal>
0.7223

> <Gold.Chemscore.Rot>
3.8017

> <Gold.Chemscore.Internal.Correction>
   9.000000E+99

> <Gold.Chemscore.Hbonds>
donor molecule, donor type, donor heavy atom, donor atom, acceptor molecule, acceptor atom, score
      L1  H     1    24       P1  7948  0.87
      P1  H  7989  7998       L1    19  0.90
      P1  H  7997  8008       L1     8  0.12

> <Gold.Chemscore.Hbond.Weighted>
-8.8331

> <Gold.Chemscore.Metal.Weighted>
-0.0000

> <Gold.Chemscore.Lipo.Weighted>
-4.7619

> <Gold.Chemscore.Internal_Hbond.Weighted>
0.0000

> <Gold.Chemscore.DEClash.Weighted>
0.0121

> <Gold.Chemscore.DEInternal.Weighted>
0.7223

> <Gold.Chemscore.Rot.Weighted>
9.7324

> <Gold.Chemscore.Internal.Correction.Weighted>
   9.000000E+99

> <Gold.Protein.RotatedTorsions>
[ 6907 6896 6895 6894 ] final -166.69 input  -60.11 | X-H torsion
[ 7974 7965 7964 7962 ] final  -13.00 input  175.53 | X-H torsion
[ 8008 7997 7996 7995 ] final  -99.45 input   59.86 | X-H torsion
[ 10167 10162 10161 10158 ] final    9.63 input  -65.29 | X-H torsion
[ 10718 10713 10712 10709 ] final -114.76 input   66.30 | X-H torsion
[ 10763 10752 10751 10750 ] final -126.15 input  -60.55 | X-H torsion
[ 11005 11000 10999 10996 ] final  -96.58 input  -57.11 | X-H torsion

> <Gold.Protein.ActiveResidues>
 VAL166  LYS551  ARG553  GLY616  TRP617  ASP618  TYR619  PRO620  LYS621  CYS622 
 ASP623  PHE694  ASN695  SER759  ASP760  ASP761  ALA762  ILE779  LEU786  VAL792 
 PHE793  MET794  SER795  GLU796  ALA797  LYS798  CYS799  TRP800  GLU811  SER814 

> <Gold.Protein.RotatedAtoms>
  151.4476  133.3626  159.2790 H   0  0  0  0  0  0  0  0  0  0  0  0  # atno 6907 bound_to 6896
  150.9114  134.8532  159.7438 H   0  0  0  0  0  0  0  0  0  0  0  0  # atno 6908 bound_to 6896
  152.4934  134.4406  159.9594 H   0  0  0  0  0  0  0  0  0  0  0  0  # atno 6909 bound_to 6896
  146.2131  140.3139  142.8385 H   0  0  0  0  0  0  0  0  0  0  0  0  # atno 7974 bound_to 7965
  154.8150  140.0448  157.1370 H   0  0  0  0  0  0  0  0  0  0  0  0  # atno 8008 bound_to 7997
  154.9324  140.3041  155.5141 H   0  0  0  0  0  0  0  0  0  0  0  0  # atno 8009 bound_to 7997
  156.2975  140.2320  156.4385 H   0  0  0  0  0  0  0  0  0  0  0  0  # atno 8010 bound_to 7997
  140.6243  143.8134  150.7214 H   0  0  0  0  0  0  0  0  0  0  0  0  # atno 10167 bound_to 10162
  156.0851  130.6044  150.8817 H   0  0  0  0  0  0  0  0  0  0  0  0  # atno 10718 bound_to 10713
  154.8743  135.4005  154.3385 H   0  0  0  0  0  0  0  0  0  0  0  0  # atno 10763 bound_to 10752
  153.4188  135.7022  153.6314 H   0  0  0  0  0  0  0  0  0  0  0  0  # atno 10764 bound_to 10752
  153.4985  135.3733  155.2498 H   0  0  0  0  0  0  0  0  0  0  0  0  # atno 10765 bound_to 10752
  141.1407  133.8108  157.0591 H   0  0  0  0  0  0  0  0  0  0  0  0  # atno 11005 bound_to 11000
  144.8968  140.7593  143.5892 LP  0  0  0  0  0  0  0  0  0  0  0  0  # atno 17320 bound_to 7965
  145.3063  139.1833  143.4662 LP  0  0  0  0  0  0  0  0  0  0  0  0  # atno 17321 bound_to 7965
  140.1732  143.4177  152.1986 LP  0  0  0  0  0  0  0  0  0  0  0  0  # atno 17342 bound_to 10162
  139.5466  144.7304  151.4563 LP  0  0  0  0  0  0  0  0  0  0  0  0  # atno 17343 bound_to 10162
  157.5982  131.0942  150.9005 LP  0  0  0  0  0  0  0  0  0  0  0  0  # atno 17370 bound_to 10713
  156.9167  130.5300  149.5279 LP  0  0  0  0  0  0  0  0  0  0  0  0  # atno 17371 bound_to 10713
  140.0583  134.9769  157.1259 LP  0  0  0  0  0  0  0  0  0  0  0  0  # atno 17394 bound_to 11000
  140.3887  134.2208  155.7167 LP  0  0  0  0  0  0  0  0  0  0  0  0  # atno 17395 bound_to 11000

$$$$
