AV-unprocessed.smi:2237|AV-procd|sdf|9049|dock8
  -GOLD-   2272012253D 1   1.00000     0.00000
 Structure written by MMmdl.
 55 57  0  0  0  0  0  0  0  0  3 V2000
  152.6911  142.2323  161.6752 C   0  0  0  0  0  0  0  0  0  0  0  0
  152.1797  143.2657  160.6936 C   0  0  0  0  0  0  0  0  0  0  0  0
  152.2871  144.6433  160.9685 C   0  0  0  0  0  0  0  0  0  0  0  0
  151.7874  145.5499  160.0166 C   0  0  0  0  0  0  0  0  0  0  0  0
  151.2064  145.0460  158.8371 C   0  0  0  0  0  0  0  0  0  0  0  0
  151.1381  143.6487  158.6382 C   0  0  0  0  0  0  0  0  0  0  0  0
  150.5366  143.2431  157.4171 N   0  0  0  0  0  0  0  0  0  0  0  0
  150.6481  142.0591  156.7895 C   0  0  0  0  0  0  0  0  0  0  0  0
  151.3033  141.0968  157.1904 O   0  0  0  0  0  0  0  0  0  0  0  0
  149.9422  142.0449  155.6490 N   0  0  0  0  0  0  0  0  0  0  0  0
  149.8587  140.9152  154.7279 C   0  0  2  0  0  0  0  0  0  0  0  0
  148.6470  141.0918  153.7962 C   0  0  0  0  0  0  0  0  0  0  0  0
  148.4689  139.8593  152.8912 C   0  0  0  0  0  0  0  0  0  0  0  0
  148.2905  138.6114  153.6874 N   0  3  2  0  0  0  0  0  0  0  0  0
  146.9765  138.4641  154.4062 C   0  0  2  0  0  0  0  0  0  0  0  0
  146.8458  137.1003  155.1265 C   0  0  0  0  0  0  0  0  0  0  0  0
  146.6950  135.9334  154.1323 C   0  0  0  0  0  0  0  0  0  0  0  0
  145.5224  136.1350  153.2452 N   0  3  2  0  0  0  0  0  0  0  0  0
  145.2962  134.9885  152.3386 C   0  0  0  0  0  0  0  0  0  0  0  0
  145.5847  137.4272  152.5188 C   0  0  0  0  0  0  0  0  0  0  0  0
  145.7272  138.6046  153.5011 C   0  0  0  0  0  0  0  0  0  0  0  0
  149.4937  138.3981  154.5436 C   0  0  0  0  0  0  0  0  0  0  0  0
  149.7529  139.5828  155.4970 C   0  0  0  0  0  0  0  0  0  0  0  0
  151.6220  142.7821  159.5627 N   0  0  0  0  0  0  0  0  0  0  0  0
  153.2347  142.7011  162.4959 H   0  0  0  0  0  0  0  0  0  0  0  0
  153.3643  141.5336  161.1776 H   0  0  0  0  0  0  0  0  0  0  0  0
  151.8586  141.6671  162.0955 H   0  0  0  0  0  0  0  0  0  0  0  0
  152.7381  144.9985  161.8834 H   0  0  0  0  0  0  0  0  0  0  0  0
  151.8479  146.6145  160.1870 H   0  0  0  0  0  0  0  0  0  0  0  0
  150.8181  145.7296  158.0961 H   0  0  0  0  0  0  0  0  0  0  0  0
  149.9563  143.9369  156.9698 H   0  0  0  0  0  0  0  0  0  0  0  0
  149.4340  142.8799  155.3960 H   0  0  0  0  0  0  0  0  0  0  0  0
  150.7587  140.8929  154.1100 H   0  0  0  0  0  0  0  0  0  0  0  0
  147.7413  141.2593  154.3804 H   0  0  0  0  0  0  0  0  0  0  0  0
  148.7823  141.9815  153.1801 H   0  0  0  0  0  0  0  0  0  0  0  0
  147.6659  140.0084  152.1722 H   0  0  0  0  0  0  0  0  0  0  0  0
  149.3630  139.7424  152.2770 H   0  0  0  0  0  0  0  0  0  0  0  0
  146.9145  139.2525  155.1557 H   0  0  0  0  0  0  0  0  0  0  0  0
  147.6719  136.9087  155.8083 H   0  0  0  0  0  0  0  0  0  0  0  0
  145.9616  137.1254  155.7656 H   0  0  0  0  0  0  0  0  0  0  0  0
  147.5990  135.8281  153.5305 H   0  0  0  0  0  0  0  0  0  0  0  0
  146.5731  135.0005  154.6843 H   0  0  0  0  0  0  0  0  0  0  0  0
  146.1325  134.8613  151.6499 H   0  0  0  0  0  0  0  0  0  0  0  0
  144.3890  135.1344  151.7511 H   0  0  0  0  0  0  0  0  0  0  0  0
  145.1777  134.0655  152.9072 H   0  0  0  0  0  0  0  0  0  0  0  0
  146.4172  137.4136  151.8138 H   0  0  0  0  0  0  0  0  0  0  0  0
  144.6751  137.5546  151.9304 H   0  0  0  0  0  0  0  0  0  0  0  0
  144.8408  138.6257  154.1371 H   0  0  0  0  0  0  0  0  0  0  0  0
  145.7010  139.5584  152.9763 H   0  0  0  0  0  0  0  0  0  0  0  0
  149.4381  137.4678  155.1041 H   0  0  0  0  0  0  0  0  0  0  0  0
  150.3573  138.2800  153.8874 H   0  0  0  0  0  0  0  0  0  0  0  0
  150.6740  139.4018  156.0526 H   0  0  0  0  0  0  0  0  0  0  0  0
  148.9624  139.6432  156.2454 H   0  0  0  0  0  0  0  0  0  0  0  0
  148.3020  137.8639  153.0082 H   0  0  0  0  0  0  0  0  0  0  0  0
  144.7121  136.1834  153.8469 H   0  0  0  0  0  0  0  0  0  0  0  0
  1  2  1  0  0  0  0
  1 25  1  0  0  0  0
  1 26  1  0  0  0  0
  1 27  1  0  0  0  0
  2 24  1  0  0  0  0
  2  3  2  0  0  0  0
  3  4  1  0  0  0  0
  3 28  1  0  0  0  0
  4  5  2  0  0  0  0
  4 29  1  0  0  0  0
  5  6  1  0  0  0  0
  5 30  1  0  0  0  0
  6  7  1  0  0  0  0
  6 24  2  0  0  0  0
  7  8  1  0  0  0  0
  7 31  1  0  0  0  0
  8  9  2  0  0  0  0
  8 10  1  0  0  0  0
 10 11  1  0  0  0  0
 10 32  1  0  0  0  0
 11 23  1  0  0  0  0
 11 12  1  0  0  0  0
 11 33  1  0  0  0  0
 12 13  1  0  0  0  0
 12 34  1  0  0  0  0
 12 35  1  0  0  0  0
 13 14  1  0  0  0  0
 13 36  1  0  0  0  0
 13 37  1  0  0  0  0
 14 15  1  0  0  0  0
 14 22  1  0  0  0  0
 14 54  1  0  0  0  0
 15 21  1  0  0  0  0
 15 16  1  0  0  0  0
 15 38  1  0  0  0  0
 16 17  1  0  0  0  0
 16 39  1  0  0  0  0
 16 40  1  0  0  0  0
 17 18  1  0  0  0  0
 17 41  1  0  0  0  0
 17 42  1  0  0  0  0
 18 19  1  0  0  0  0
 18 20  1  0  0  0  0
 18 55  1  0  0  0  0
 19 43  1  0  0  0  0
 19 44  1  0  0  0  0
 19 45  1  0  0  0  0
 20 21  1  0  0  0  0
 20 46  1  0  0  0  0
 20 47  1  0  0  0  0
 21 48  1  0  0  0  0
 21 49  1  0  0  0  0
 22 23  1  0  0  0  0
 22 50  1  0  0  0  0
 22 51  1  0  0  0  0
 23 52  1  0  0  0  0
 23 53  1  0  0  0  0
M  CHG  1  14   1
M  CHG  1  18   1
M  END
> <s_m_source_file>
AV-unprocessed.smi

> <i_m_source_file_index>
2237

> <i_lp_mmshare_version>
43012

> <i_f3d_flags>
0

> <s_epik_input>
W0NIM11jMVtjSF1bY0hdW2NIXWMobjEpW05IXUMoPU8pW05IXVtDSF0yW0NIMl1bQ0gyXU4oW0NIMl1bQ0gyXTIpW0NIXTNbQ0gyXVtDSDJdTihbQ0gzXSlbQ0gyXVtDSDJdMw==

> <s_epik_cmdline>
J2VwaWtfcHl0aG9uJywgJy1waCcsICc3LjAnLCAnLXRuJywgJzgnLCAnLW1hJywgJzIwMCcsICctbWV0YWxfYmluZGluZycsICctaW1hZScsICc8aW5maWxlLm1hZT4nLCAnLW9tYWUnLCAnPG91dGZpbGUubWFlPic=

> <r_epik_Ionization_Penalty>
0.180851

> <r_epik_Ionization_Penalty_Charging>
0.180787

> <r_epik_Ionization_Penalty_Neutral>
6.38624e-05

> <r_epik_State_Penalty>
0.153592

> <r_epik_Charging_Adjusted_Penalty>
0.334379

> <i_epik_Tot_Q>
2

> <i_epik_Tot_abs_Q>
2

> <r_epik_Metal_State_Penalty>
0.153595

> <b_epik_Metal_Only>
0

> <s_lp_Force_Field>
OPLS_2005

> <r_lp_Energy>
48.731

> <b_lp_Chiralities_Consistent>
1

> <s_lp_Variant>
AV-unprocessed.smi:2237-4

> <Gold.Version>
5.8.1

> <Gold.Id.Protein>
6NUR|6NUR_protein|mol2

> <Gold.PLP.Fitness>
49.6933

> <Gold.PLP.PLP>
-38.4965

> <Gold.PLP.part.hbond>
-3.0000

> <Gold.PLP.part.metal>
0.0000

> <Gold.PLP.part.buried>
0.0459

> <Gold.PLP.part.nonpolar>
-35.7653

> <Gold.PLP.part.repulsive>
0.1794

> <Gold.PLP.ligand.clash>
0.0000

> <Gold.PLP.ligand.torsion>
0.3649

> <Gold.PLP.Chemscore.Hbond>
3.9600

> <Gold.PLP.Chemscore.CHOScore>
0.0000

> <Gold.PLP.Chemscore.Metal>
0.0000

> <Gold.Chemscore.Hbonds>
donor molecule, donor type, donor heavy atom, donor atom, acceptor molecule, acceptor atom, score
      L1  H     7    31       P1  8028  1.00
      L1  H    10    32       P1  8028  1.00
      L1  H    14    54       P1  7948  1.72

> <Gold.PLP.Chemscore.Internal.Correction>
0.0465

> <Gold.Rescore>
     Score         DG    S(hbond)    S(metal)    S(lipo)     H(rot)  DE(clash)    DE(int)     intcor
     19.19     -24.22       2.78        0.00     107.58       1.23       1.88       3.14       ----

> <Gold.Chemscore.Fitness>
19.1936

> <Gold.Chemscore.DG>
-24.2173

> <Gold.Chemscore.ZeroCoef>
-5.4800

> <Gold.Chemscore.Hbond>
2.7837

> <Gold.Chemscore.Metal>
0.0000

> <Gold.Chemscore.Lipo>
107.5816

> <Gold.Chemscore.Internal_Hbond>
0.0000

> <Gold.Chemscore.DEClash>
1.8833

> <Gold.Chemscore.DEInternal>
3.1403

> <Gold.Chemscore.Rot>
1.2295

> <Gold.Chemscore.Internal.Correction>
   9.000000E+99

> <Gold.Chemscore.Hbonds>
donor molecule, donor type, donor heavy atom, donor atom, acceptor molecule, acceptor atom, score
      L1  H     7    31       P1  8028  0.94
      L1  H    10    32       P1  8028  0.97
      L1  H    14    54       P1  7948  0.84

> <Gold.Chemscore.Hbond.Weighted>
-9.2976

> <Gold.Chemscore.Metal.Weighted>
-0.0000

> <Gold.Chemscore.Lipo.Weighted>
-12.5871

> <Gold.Chemscore.Internal_Hbond.Weighted>
0.0000

> <Gold.Chemscore.DEClash.Weighted>
1.8833

> <Gold.Chemscore.DEInternal.Weighted>
3.1403

> <Gold.Chemscore.Rot.Weighted>
3.1474

> <Gold.Chemscore.Internal.Correction.Weighted>
   9.000000E+99

> <Gold.Protein.RotatedTorsions>
[ 6907 6896 6895 6894 ] final  -94.72 input  -60.11 | X-H torsion
[ 7974 7965 7964 7962 ] final   84.74 input  175.53 | X-H torsion
[ 8008 7997 7996 7995 ] final -132.50 input   59.86 | X-H torsion
[ 10167 10162 10161 10158 ] final -146.76 input  -65.29 | X-H torsion
[ 10718 10713 10712 10709 ] final   71.65 input   66.30 | X-H torsion
[ 10763 10752 10751 10750 ] final   53.76 input  -60.55 | X-H torsion
[ 11005 11000 10999 10996 ] final  -46.41 input  -57.11 | X-H torsion

> <Gold.Protein.ActiveResidues>
 VAL166  LYS551  ARG553  GLY616  TRP617  ASP618  TYR619  PRO620  LYS621  CYS622 
 ASP623  PHE694  ASN695  SER759  ASP760  ASP761  ALA762  ILE779  LEU786  VAL792 
 PHE793  MET794  SER795  GLU796  ALA797  LYS798  CYS799  TRP800  GLU811  SER814 

> <Gold.Protein.RotatedAtoms>
  150.6948  134.1769  159.4233 H   0  0  0  0  0  0  0  0  0  0  0  0  # atno 6907 bound_to 6896
  151.9745  135.0058  160.0563 H   0  0  0  0  0  0  0  0  0  0  0  0  # atno 6908 bound_to 6896
  152.1812  133.4673  159.4996 H   0  0  0  0  0  0  0  0  0  0  0  0  # atno 6909 bound_to 6896
  145.5948  139.2343  143.2279 H   0  0  0  0  0  0  0  0  0  0  0  0  # atno 7974 bound_to 7965
  155.3299  140.0466  157.3042 H   0  0  0  0  0  0  0  0  0  0  0  0  # atno 8008 bound_to 7997
  154.5334  140.2264  155.8731 H   0  0  0  0  0  0  0  0  0  0  0  0  # atno 8009 bound_to 7997
  156.1811  140.3073  155.9156 H   0  0  0  0  0  0  0  0  0  0  0  0  # atno 8010 bound_to 7997
  139.7684  143.8274  152.2620 H   0  0  0  0  0  0  0  0  0  0  0  0  # atno 10167 bound_to 10162
  157.6462  130.9539  150.0818 H   0  0  0  0  0  0  0  0  0  0  0  0  # atno 10718 bound_to 10713
  152.9798  135.5768  154.4794 H   0  0  0  0  0  0  0  0  0  0  0  0  # atno 10763 bound_to 10752
  154.4345  135.2774  155.1892 H   0  0  0  0  0  0  0  0  0  0  0  0  # atno 10764 bound_to 10752
  154.3586  135.6193  153.5733 H   0  0  0  0  0  0  0  0  0  0  0  0  # atno 10765 bound_to 10752
  141.0577  133.6720  156.3151 H   0  0  0  0  0  0  0  0  0  0  0  0  # atno 11005 bound_to 11000
  146.1620  140.6774  142.9273 LP  0  0  0  0  0  0  0  0  0  0  0  0  # atno 17320 bound_to 7965
  144.7335  140.4742  143.6920 LP  0  0  0  0  0  0  0  0  0  0  0  0  # atno 17321 bound_to 7965
  139.8301  144.7257  150.9461 LP  0  0  0  0  0  0  0  0  0  0  0  0  # atno 17342 bound_to 10162
  140.7812  143.4078  151.1043 LP  0  0  0  0  0  0  0  0  0  0  0  0  # atno 17343 bound_to 10162
  156.1792  130.3649  149.9058 LP  0  0  0  0  0  0  0  0  0  0  0  0  # atno 17370 bound_to 10713
  156.7014  130.8935  151.3600 LP  0  0  0  0  0  0  0  0  0  0  0  0  # atno 17371 bound_to 10713
  140.5931  134.5631  157.5503 LP  0  0  0  0  0  0  0  0  0  0  0  0  # atno 17394 bound_to 11000
  139.9405  134.7796  156.0692 LP  0  0  0  0  0  0  0  0  0  0  0  0  # atno 17395 bound_to 11000

$$$$
