AV-unprocessed.smi:1308|AV-procd|sdf|5442|dock9
  -GOLD-   22720 5 13D 1   1.00000     0.00000
 Structure written by MMmdl.
 44 44  0  0  0  0  0  0  0  0  2 V2000
  147.8174  136.1886  161.3413 C   0  0  0  0  0  0  0  0  0  0  0  0
  148.2291  136.7931  160.0158 C   0  0  0  0  0  0  0  0  0  0  0  0
  147.4400  137.6105  159.4296 N   0  0  0  0  0  0  0  0  0  0  0  0
  147.8150  138.1705  158.1968 C   0  0  0  0  0  0  0  0  0  0  0  0
  146.8129  139.1221  157.5671 C   0  0  0  0  0  0  0  0  0  0  0  0
  149.0087  137.8605  157.6152 C   0  0  0  0  0  0  0  0  0  0  0  0
  149.4565  138.4306  156.2679 C   0  0  0  0  0  0  0  0  0  0  0  0
  150.5561  139.4940  156.3246 C   0  0  0  0  0  0  0  0  0  0  0  0
  150.9885  139.9845  155.2819 O   0  0  0  0  0  0  0  0  0  0  0  0
  150.9865  139.8469  157.5467 N   0  0  0  0  0  0  0  0  0  0  0  0
  152.0348  140.8176  157.8494 C   0  0  2  0  0  0  0  0  0  0  0  0
  153.0806  140.1523  158.7545 C   0  0  0  0  0  0  0  0  0  0  0  0
  151.4357  142.0778  158.5038 C   0  0  0  0  0  0  0  0  0  0  0  0
  152.3179  142.6777  159.6157 C   0  0  0  0  0  0  0  0  0  0  0  0
  151.7582  143.9743  160.2347 C   0  0  0  0  0  0  0  0  0  0  0  0
  152.0974  145.2186  159.3967 C   0  0  0  0  0  0  0  0  0  0  0  0
  152.2604  144.1459  161.6763 C   0  0  0  0  0  0  0  0  0  0  0  0
  149.8887  136.9126  158.3221 C   0  0  0  0  0  0  0  0  0  0  0  0
  150.9680  136.5840  157.8313 O   0  0  0  0  0  0  0  0  0  0  0  0
  149.4546  136.4152  159.5148 N   0  5  0  0  0  0  0  0  0  0  0  0
  146.7815  136.4330  161.5799 H   0  0  0  0  0  0  0  0  0  0  0  0
  148.4527  136.5681  162.1421 H   0  0  0  0  0  0  0  0  0  0  0  0
  147.9119  135.1026  161.3091 H   0  0  0  0  0  0  0  0  0  0  0  0
  147.2320  140.1259  157.4986 H   0  0  0  0  0  0  0  0  0  0  0  0
  145.8980  139.1802  158.1580 H   0  0  0  0  0  0  0  0  0  0  0  0
  146.5423  138.7887  156.5651 H   0  0  0  0  0  0  0  0  0  0  0  0
  149.8099  137.6083  155.6452 H   0  0  0  0  0  0  0  0  0  0  0  0
  148.6085  138.8438  155.7213 H   0  0  0  0  0  0  0  0  0  0  0  0
  150.5564  139.3887  158.3380 H   0  0  0  0  0  0  0  0  0  0  0  0
  152.5443  141.1186  156.9325 H   0  0  0  0  0  0  0  0  0  0  0  0
  153.8955  140.8389  158.9844 H   0  0  0  0  0  0  0  0  0  0  0  0
  153.5148  139.2759  158.2720 H   0  0  0  0  0  0  0  0  0  0  0  0
  152.6408  139.8283  159.6986 H   0  0  0  0  0  0  0  0  0  0  0  0
  151.2499  142.8262  157.7330 H   0  0  0  0  0  0  0  0  0  0  0  0
  150.4617  141.8258  158.9245 H   0  0  0  0  0  0  0  0  0  0  0  0
  152.4283  141.9312  160.4035 H   0  0  0  0  0  0  0  0  0  0  0  0
  153.3228  142.8641  159.2353 H   0  0  0  0  0  0  0  0  0  0  0  0
  150.6719  143.8866  160.2802 H   0  0  0  0  0  0  0  0  0  0  0  0
  153.1750  145.3328  159.2752 H   0  0  0  0  0  0  0  0  0  0  0  0
  151.7200  146.1246  159.8716 H   0  0  0  0  0  0  0  0  0  0  0  0
  151.6524  145.1696  158.4033 H   0  0  0  0  0  0  0  0  0  0  0  0
  153.3467  144.2366  161.7084 H   0  0  0  0  0  0  0  0  0  0  0  0
  151.9795  143.2940  162.2963 H   0  0  0  0  0  0  0  0  0  0  0  0
  151.8375  145.0389  162.1374 H   0  0  0  0  0  0  0  0  0  0  0  0
  1  2  1  0  0  0  0
  1 21  1  0  0  0  0
  1 22  1  0  0  0  0
  1 23  1  0  0  0  0
  2 20  1  0  0  0  0
  2  3  2  0  0  0  0
  3  4  1  0  0  0  0
  4  5  1  0  0  0  0
  4  6  2  0  0  0  0
  5 24  1  0  0  0  0
  5 25  1  0  0  0  0
  5 26  1  0  0  0  0
  6  7  1  0  0  0  0
  6 18  1  0  0  0  0
  7  8  1  0  0  0  0
  7 27  1  0  0  0  0
  7 28  1  0  0  0  0
  8  9  2  0  0  0  0
  8 10  1  0  0  0  0
 10 11  1  0  0  0  0
 10 29  1  0  0  0  0
 11 12  1  0  0  0  0
 11 13  1  0  0  0  0
 11 30  1  0  0  0  0
 12 31  1  0  0  0  0
 12 32  1  0  0  0  0
 12 33  1  0  0  0  0
 13 14  1  0  0  0  0
 13 34  1  0  0  0  0
 13 35  1  0  0  0  0
 14 15  1  0  0  0  0
 14 36  1  0  0  0  0
 14 37  1  0  0  0  0
 15 16  1  0  0  0  0
 15 17  1  0  0  0  0
 15 38  1  0  0  0  0
 16 39  1  0  0  0  0
 16 40  1  0  0  0  0
 16 41  1  0  0  0  0
 17 42  1  0  0  0  0
 17 43  1  0  0  0  0
 17 44  1  0  0  0  0
 18 19  2  0  0  0  0
 18 20  1  0  0  0  0
M  CHG  1  20  -1
M  END
> <s_m_source_file>
AV-unprocessed.smi

> <i_m_source_file_index>
1308

> <i_lp_mmshare_version>
43012

> <i_f3d_flags>
0

> <s_epik_input>
W0NIM11jMW5jKFtDSDNdKWMoYyg9TylbbkhdMSlbQ0gyXUMoPU8pW05IXVtDQEhdKFtDSDNdKVtDSDJdW0NIMl1bQ0hdKFtDSDNdKVtDSDNd

> <s_epik_cmdline>
J2VwaWtfcHl0aG9uJywgJy1waCcsICc3LjAnLCAnLXRuJywgJzgnLCAnLW1hJywgJzIwMCcsICctbWV0YWxfYmluZGluZycsICctaW1hZScsICc8aW5maWxlLm1hZT4nLCAnLW9tYWUnLCAnPG91dGZpbGUubWFlPic=

> <r_lp_tautomer_probability>
0.839158

> <r_epik_Ionization_Penalty>
6.61719

> <r_epik_Ionization_Penalty_Charging>
7.20681e-08

> <r_epik_Ionization_Penalty_Neutral>
6.61719

> <r_epik_State_Penalty>
4.43758

> <r_epik_Charging_Adjusted_Penalty>
4.43758

> <i_epik_Tot_Q>
-1

> <i_epik_Tot_abs_Q>
1

> <r_epik_Metal_State_Penalty>
0.801586

> <b_epik_Metal_Only>
1

> <s_lp_Force_Field>
OPLS_2005

> <r_lp_Energy>
8.43775

> <b_lp_Chiralities_Consistent>
1

> <s_lp_Variant>
AV-unprocessed.smi:1308-5

> <Gold.Version>
5.8.1

> <Gold.Id.Protein>
6NUR|6NUR_protein|mol2

> <Gold.PLP.Fitness>
41.4758

> <Gold.PLP.PLP>
-33.0102

> <Gold.PLP.part.hbond>
-3.2087

> <Gold.PLP.part.metal>
0.0000

> <Gold.PLP.part.buried>
-4.4454

> <Gold.PLP.part.nonpolar>
-25.6967

> <Gold.PLP.part.repulsive>
0.0735

> <Gold.PLP.ligand.clash>
0.0000

> <Gold.PLP.ligand.torsion>
1.0340

> <Gold.PLP.Chemscore.Hbond>
3.4868

> <Gold.PLP.Chemscore.CHOScore>
0.0000

> <Gold.PLP.Chemscore.Metal>
0.0000

> <Gold.Chemscore.Hbonds>
donor molecule, donor type, donor heavy atom, donor atom, acceptor molecule, acceptor atom, score
      P1  H  6896  6908       L1    20  1.49
      P1  H  6934  6947       L1     3  0.66
      P1  H  7989  7998       L1     9  0.84

> <Gold.PLP.Chemscore.Internal.Correction>
0.0731

> <Gold.Rescore>
     Score         DG    S(hbond)    S(metal)    S(lipo)     H(rot)  DE(clash)    DE(int)     intcor
     16.66     -17.99       2.27        0.00      84.01       1.91       0.08       1.24       ----

> <Gold.Chemscore.Fitness>
16.6639

> <Gold.Chemscore.DG>
-17.9867

> <Gold.Chemscore.ZeroCoef>
-5.4800

> <Gold.Chemscore.Hbond>
2.2671

> <Gold.Chemscore.Metal>
0.0000

> <Gold.Chemscore.Lipo>
84.0088

> <Gold.Chemscore.Internal_Hbond>
0.0000

> <Gold.Chemscore.DEClash>
0.0811

> <Gold.Chemscore.DEInternal>
1.2417

> <Gold.Chemscore.Rot>
1.9118

> <Gold.Chemscore.Internal.Correction>
   9.000000E+99

> <Gold.Chemscore.Hbonds>
donor molecule, donor type, donor heavy atom, donor atom, acceptor molecule, acceptor atom, score
      P1  H  6896  6908       L1    20  0.15
      P1  H  6934  6947       L1     3  0.15
      P1  H  7989  7998       L1     9  0.82

> <Gold.Chemscore.Hbond.Weighted>
-7.5720

> <Gold.Chemscore.Metal.Weighted>
-0.0000

> <Gold.Chemscore.Lipo.Weighted>
-9.8290

> <Gold.Chemscore.Internal_Hbond.Weighted>
0.0000

> <Gold.Chemscore.DEClash.Weighted>
0.0811

> <Gold.Chemscore.DEInternal.Weighted>
1.2417

> <Gold.Chemscore.Rot.Weighted>
4.8943

> <Gold.Chemscore.Internal.Correction.Weighted>
   9.000000E+99

> <Gold.Protein.RotatedTorsions>
[ 6907 6896 6895 6894 ] final -175.98 input  -60.11 | X-H torsion
[ 7974 7965 7964 7962 ] final  147.64 input  175.53 | X-H torsion
[ 8008 7997 7996 7995 ] final  -12.68 input   59.86 | X-H torsion
[ 10167 10162 10161 10158 ] final -154.12 input  -65.29 | X-H torsion
[ 10718 10713 10712 10709 ] final   85.04 input   66.30 | X-H torsion
[ 10763 10752 10751 10750 ] final  -66.16 input  -60.55 | X-H torsion
[ 11005 11000 10999 10996 ] final -127.91 input  -57.11 | X-H torsion

> <Gold.Protein.ActiveResidues>
 VAL166  LYS551  ARG553  GLY616  TRP617  ASP618  TYR619  PRO620  LYS621  CYS622 
 ASP623  PHE694  ASN695  SER759  ASP760  ASP761  ALA762  ILE779  LEU786  VAL792 
 PHE793  MET794  SER795  GLU796  ALA797  LYS798  CYS799  TRP800  GLU811  SER814 

> <Gold.Protein.RotatedAtoms>
  151.5974  133.3360  159.3040 H   0  0  0  0  0  0  0  0  0  0  0  0  # atno 6907 bound_to 6896
  150.8226  134.7445  159.6797 H   0  0  0  0  0  0  0  0  0  0  0  0  # atno 6908 bound_to 6896
  152.4319  134.5768  159.9988 H   0  0  0  0  0  0  0  0  0  0  0  0  # atno 6909 bound_to 6896
  144.8576  139.6053  143.5945 H   0  0  0  0  0  0  0  0  0  0  0  0  # atno 7974 bound_to 7965
  154.5357  140.2270  155.8727 H   0  0  0  0  0  0  0  0  0  0  0  0  # atno 8008 bound_to 7997
  156.1808  140.3100  155.9109 H   0  0  0  0  0  0  0  0  0  0  0  0  # atno 8009 bound_to 7997
  155.3360  140.0448  157.3034 H   0  0  0  0  0  0  0  0  0  0  0  0  # atno 8010 bound_to 7997
  139.7040  143.9217  152.2441 H   0  0  0  0  0  0  0  0  0  0  0  0  # atno 10167 bound_to 10162
  157.6908  131.0158  150.2763 H   0  0  0  0  0  0  0  0  0  0  0  0  # atno 10718 bound_to 10713
  154.3557  135.6127  153.5665 H   0  0  0  0  0  0  0  0  0  0  0  0  # atno 10763 bound_to 10752
  152.9796  135.5803  154.4692 H   0  0  0  0  0  0  0  0  0  0  0  0  # atno 10764 bound_to 10752
  154.4421  135.2850  155.1818 H   0  0  0  0  0  0  0  0  0  0  0  0  # atno 10765 bound_to 10752
  140.9560  134.1000  157.4015 H   0  0  0  0  0  0  0  0  0  0  0  0  # atno 11005 bound_to 11000
  146.2835  139.6941  142.9212 LP  0  0  0  0  0  0  0  0  0  0  0  0  # atno 17320 bound_to 7965
  145.4376  141.0420  143.2876 LP  0  0  0  0  0  0  0  0  0  0  0  0  # atno 17321 bound_to 7965
  139.9067  144.6880  150.8606 LP  0  0  0  0  0  0  0  0  0  0  0  0  # atno 17342 bound_to 10162
  140.7717  143.3473  151.2085 LP  0  0  0  0  0  0  0  0  0  0  0  0  # atno 17343 bound_to 10162
  156.3317  130.3801  149.7485 LP  0  0  0  0  0  0  0  0  0  0  0  0  # atno 17370 bound_to 10713
  156.5023  130.8134  151.3137 LP  0  0  0  0  0  0  0  0  0  0  0  0  # atno 17371 bound_to 10713
  139.8862  135.0079  156.6486 LP  0  0  0  0  0  0  0  0  0  0  0  0  # atno 17394 bound_to 11000
  140.7535  133.8877  155.8364 LP  0  0  0  0  0  0  0  0  0  0  0  0  # atno 17395 bound_to 11000

$$$$
