AV-unprocessed.smi:2640|AV-procd|sdf|10268|dock4
  -GOLD-   2272014283D 1   1.00000     0.00000
 Structure written by MMmdl.
 42 43  0  0  0  0  0  0  0  0  2 V2000
  146.8069  139.8391  153.9797 O   0  0  0  0  0  0  0  0  0  0  0  0
  147.3355  139.0498  153.1961 C   0  0  0  0  0  0  0  0  0  0  0  0
  146.5381  138.4617  152.0317 C   0  0  0  0  0  0  0  0  0  0  0  0
  146.2675  137.0227  152.2242 N   0  3  0  0  0  0  0  0  0  0  0  0
  145.5808  136.3790  151.0884 C   0  0  0  0  0  0  0  0  0  0  0  0
  144.6069  135.2970  151.5778 C   0  0  0  0  0  0  0  0  0  0  0  0
  144.8842  134.0071  150.9760 N   0  0  0  0  0  0  0  0  0  0  0  0
  144.0690  133.2430  150.1678 C   0  0  0  0  0  0  0  0  0  0  0  0
  144.7651  132.1151  149.8396 C   0  0  0  0  0  0  0  0  0  0  0  0
  146.0144  132.2845  150.4990 C   0  0  0  0  0  0  0  0  0  0  0  0
  146.0826  133.4186  151.1779 N   0  0  0  0  0  0  0  0  0  0  0  0
  148.6175  138.6622  153.2939 N   0  0  0  0  0  0  0  0  0  0  0  0
  149.5526  139.0802  154.3416 C   0  0  2  0  0  0  0  0  0  0  0  0
  150.8716  138.3026  154.1297 C   0  0  0  0  0  0  0  0  0  0  0  0
  152.0996  138.9800  154.7629 C   0  0  0  0  0  0  0  0  0  0  0  0
  152.0740  139.0692  156.2964 C   0  0  0  0  0  0  0  0  0  0  0  0
  150.9133  139.9142  156.8486 C   0  0  0  0  0  0  0  0  0  0  0  0
  149.6491  139.1900  156.8279 N   0  0  0  0  0  0  0  0  0  0  0  0
  148.9880  138.7544  155.7449 C   0  0  0  0  0  0  0  0  0  0  0  0
  147.9501  138.1037  155.8690 O   0  0  0  0  0  0  0  0  0  0  0  0
  145.5957  139.0038  151.9440 H   0  0  0  0  0  0  0  0  0  0  0  0
  147.0879  138.6041  151.1000 H   0  0  0  0  0  0  0  0  0  0  0  0
  147.1479  136.5531  152.3807 H   0  0  0  0  0  0  0  0  0  0  0  0
  145.0452  137.1405  150.5198 H   0  0  0  0  0  0  0  0  0  0  0  0
  146.3231  135.9391  150.4211 H   0  0  0  0  0  0  0  0  0  0  0  0
  144.6683  135.1938  152.6622 H   0  0  0  0  0  0  0  0  0  0  0  0
  143.5777  135.5730  151.3434 H   0  0  0  0  0  0  0  0  0  0  0  0
  143.0732  133.5603  149.8956 H   0  0  0  0  0  0  0  0  0  0  0  0
  144.4336  131.2946  149.2205 H   0  0  0  0  0  0  0  0  0  0  0  0
  146.8677  131.6223  150.5035 H   0  0  0  0  0  0  0  0  0  0  0  0
  148.9716  138.0107  152.6084 H   0  0  0  0  0  0  0  0  0  0  0  0
  149.7308  140.1532  154.2489 H   0  0  0  0  0  0  0  0  0  0  0  0
  150.7816  137.2750  154.4865 H   0  0  0  0  0  0  0  0  0  0  0  0
  151.0697  138.2227  153.0595 H   0  0  0  0  0  0  0  0  0  0  0  0
  152.9916  138.4281  154.4648 H   0  0  0  0  0  0  0  0  0  0  0  0
  152.2171  139.9800  154.3441 H   0  0  0  0  0  0  0  0  0  0  0  0
  152.0528  138.0696  156.7324 H   0  0  0  0  0  0  0  0  0  0  0  0
  153.0125  139.5175  156.6239 H   0  0  0  0  0  0  0  0  0  0  0  0
  151.1191  140.1688  157.8885 H   0  0  0  0  0  0  0  0  0  0  0  0
  150.8227  140.8608  156.3141 H   0  0  0  0  0  0  0  0  0  0  0  0
  149.2487  138.9693  157.7282 H   0  0  0  0  0  0  0  0  0  0  0  0
  145.6969  136.9163  153.0510 H   0  0  0  0  0  0  0  0  0  0  0  0
  1  2  2  0  0  0  0
  2  3  1  0  0  0  0
  2 12  1  0  0  0  0
  3  4  1  0  0  0  0
  3 21  1  0  0  0  0
  3 22  1  0  0  0  0
  4  5  1  0  0  0  0
  4 23  1  0  0  0  0
  4 42  1  0  0  0  0
  5  6  1  0  0  0  0
  5 24  1  0  0  0  0
  5 25  1  0  0  0  0
  6  7  1  0  0  0  0
  6 26  1  0  0  0  0
  6 27  1  0  0  0  0
  7 11  1  0  0  0  0
  7  8  1  0  0  0  0
  8  9  2  0  0  0  0
  8 28  1  0  0  0  0
  9 10  1  0  0  0  0
  9 29  1  0  0  0  0
 10 11  2  0  0  0  0
 10 30  1  0  0  0  0
 12 13  1  0  0  0  0
 12 31  1  0  0  0  0
 13 19  1  0  0  0  0
 13 14  1  0  0  0  0
 13 32  1  0  0  0  0
 14 15  1  0  0  0  0
 14 33  1  0  0  0  0
 14 34  1  0  0  0  0
 15 16  1  0  0  0  0
 15 35  1  0  0  0  0
 15 36  1  0  0  0  0
 16 17  1  0  0  0  0
 16 37  1  0  0  0  0
 16 38  1  0  0  0  0
 17 18  1  0  0  0  0
 17 39  1  0  0  0  0
 17 40  1  0  0  0  0
 18 19  1  0  0  0  0
 18 41  1  0  0  0  0
 19 20  2  0  0  0  0
M  CHG  1   4   1
M  END
> <s_m_source_file>
AV-unprocessed.smi

> <i_m_source_file_index>
2640

> <i_lp_mmshare_version>
43012

> <i_f3d_flags>
0

> <s_epik_input>
Tz1DMVtOSF1bQ0gyXVtDSDJdW0NIMl1bQ0gyXVtDQEhdMVtOSF1DKD1PKVtDSDJdW05IXVtDSDJdW0NIMl1uMltjSF1bY0hdW2NIXW4y

> <s_epik_cmdline>
J2VwaWtfcHl0aG9uJywgJy1waCcsICc3LjAnLCAnLXRuJywgJzgnLCAnLW1hJywgJzIwMCcsICctbWV0YWxfYmluZGluZycsICctaW1hZScsICc8aW5maWxlLm1hZT4nLCAnLW9tYWUnLCAnPG91dGZpbGUubWFlPic=

> <r_lp_tautomer_probability>
1

> <r_epik_Ionization_Penalty>
0.245908

> <r_epik_Ionization_Penalty_Charging>
0.245903

> <r_epik_Ionization_Penalty_Neutral>
5.38378e-06

> <r_epik_State_Penalty>
0.237496

> <r_epik_Charging_Adjusted_Penalty>
0.483398

> <i_epik_Tot_Q>
1

> <i_epik_Tot_abs_Q>
1

> <r_epik_Metal_State_Penalty>
0.237698

> <b_epik_Metal_Only>
0

> <s_lp_Force_Field>
OPLS_2005

> <r_lp_Energy>
8.65948

> <b_lp_Chiralities_Consistent>
1

> <s_lp_Variant>
AV-unprocessed.smi:2640-1

> <Gold.Version>
5.8.1

> <Gold.Id.Protein>
6NUR|6NUR_protein|mol2

> <Gold.PLP.Fitness>
51.1062

> <Gold.PLP.PLP>
-37.6385

> <Gold.PLP.part.hbond>
-3.0000

> <Gold.PLP.part.metal>
0.0000

> <Gold.PLP.part.buried>
-3.2049

> <Gold.PLP.part.nonpolar>
-31.6075

> <Gold.PLP.part.repulsive>
0.4563

> <Gold.PLP.ligand.clash>
0.0000

> <Gold.PLP.ligand.torsion>
0.7266

> <Gold.PLP.Chemscore.Hbond>
2.9520

> <Gold.PLP.Chemscore.CHOScore>
2.0000

> <Gold.PLP.Chemscore.Metal>
0.0000

> <Gold.Chemscore.Hbonds>
donor molecule, donor type, donor heavy atom, donor atom, acceptor molecule, acceptor atom, score
      L1  H     4    23       P1  7948  1.95
      L1  H    12    31       P1  7948  1.00
      L1  C     8    28       P1 10186  1.00
      L1  C    10    30       P1 10747  1.00

> <Gold.PLP.Chemscore.Internal.Correction>
0.0650

> <Gold.Rescore>
     Score         DG    S(hbond)    S(metal)    S(lipo)     H(rot)  DE(clash)    DE(int)     intcor
     14.60     -15.56       1.89        0.00      85.65       2.45       0.21       0.75       ----

> <Gold.Chemscore.Fitness>
14.6045

> <Gold.Chemscore.DG>
-15.5606

> <Gold.Chemscore.ZeroCoef>
-5.4800

> <Gold.Chemscore.Hbond>
1.8929

> <Gold.Chemscore.Metal>
0.0000

> <Gold.Chemscore.Lipo>
85.6466

> <Gold.Chemscore.Internal_Hbond>
0.0000

> <Gold.Chemscore.DEClash>
0.2067

> <Gold.Chemscore.DEInternal>
0.7494

> <Gold.Chemscore.Rot>
2.4462

> <Gold.Chemscore.Internal.Correction>
   9.000000E+99

> <Gold.Chemscore.Hbonds>
donor molecule, donor type, donor heavy atom, donor atom, acceptor molecule, acceptor atom, score
      L1  H     4    23       P1  7948  0.93
      L1  H    12    31       P1  7948  0.94

> <Gold.Chemscore.Hbond.Weighted>
-6.3222

> <Gold.Chemscore.Metal.Weighted>
-0.0000

> <Gold.Chemscore.Lipo.Weighted>
-10.0207

> <Gold.Chemscore.Internal_Hbond.Weighted>
0.0000

> <Gold.Chemscore.DEClash.Weighted>
0.2067

> <Gold.Chemscore.DEInternal.Weighted>
0.7494

> <Gold.Chemscore.Rot.Weighted>
6.2623

> <Gold.Chemscore.Internal.Correction.Weighted>
   9.000000E+99

> <Gold.Protein.RotatedTorsions>
[ 6907 6896 6895 6894 ] final -161.70 input  -60.11 | X-H torsion
[ 7974 7965 7964 7962 ] final -144.92 input  175.53 | X-H torsion
[ 8008 7997 7996 7995 ] final  -47.67 input   59.86 | X-H torsion
[ 10167 10162 10161 10158 ] final -132.54 input  -65.29 | X-H torsion
[ 10718 10713 10712 10709 ] final -107.55 input   66.30 | X-H torsion
[ 10763 10752 10751 10750 ] final   89.09 input  -60.55 | X-H torsion
[ 11005 11000 10999 10996 ] final   44.24 input  -57.11 | X-H torsion

> <Gold.Protein.ActiveResidues>
 VAL166  LYS551  ARG553  GLY616  TRP617  ASP618  TYR619  PRO620  LYS621  CYS622 
 ASP623  PHE694  ASN695  SER759  ASP760  ASP761  ALA762  ILE779  LEU786  VAL792 
 PHE793  MET794  SER795  GLU796  ALA797  LYS798  CYS799  TRP800  GLU811  SER814 

> <Gold.Protein.RotatedAtoms>
  151.3688  133.3862  159.2697 H   0  0  0  0  0  0  0  0  0  0  0  0  # atno 6907 bound_to 6896
  150.9667  134.9048  159.7774 H   0  0  0  0  0  0  0  0  0  0  0  0  # atno 6908 bound_to 6896
  152.5170  134.3649  159.9350 H   0  0  0  0  0  0  0  0  0  0  0  0  # atno 6909 bound_to 6896
  144.8263  140.5649  143.5545 H   0  0  0  0  0  0  0  0  0  0  0  0  # atno 7974 bound_to 7965
  154.4019  140.1340  156.4213 H   0  0  0  0  0  0  0  0  0  0  0  0  # atno 8008 bound_to 7997
  155.7640  140.3485  155.5192 H   0  0  0  0  0  0  0  0  0  0  0  0  # atno 8009 bound_to 7997
  155.8831  140.0990  157.1461 H   0  0  0  0  0  0  0  0  0  0  0  0  # atno 8010 bound_to 7997
  139.9075  143.6533  152.2582 H   0  0  0  0  0  0  0  0  0  0  0  0  # atno 10167 bound_to 10162
  156.0442  130.5668  150.7838 H   0  0  0  0  0  0  0  0  0  0  0  0  # atno 10718 bound_to 10713
  153.1835  135.4483  155.0059 H   0  0  0  0  0  0  0  0  0  0  0  0  # atno 10763 bound_to 10752
  154.8045  135.3269  154.7468 H   0  0  0  0  0  0  0  0  0  0  0  0  # atno 10764 bound_to 10752
  153.7929  135.6968  153.4923 H   0  0  0  0  0  0  0  0  0  0  0  0  # atno 10765 bound_to 10752
  140.1570  134.4389  155.8343 H   0  0  0  0  0  0  0  0  0  0  0  0  # atno 11005 bound_to 11000
  145.4993  139.1484  143.3666 LP  0  0  0  0  0  0  0  0  0  0  0  0  # atno 17320 bound_to 7965
  146.2568  140.5132  142.8870 LP  0  0  0  0  0  0  0  0  0  0  0  0  # atno 17321 bound_to 7965
  139.6971  144.7640  151.1337 LP  0  0  0  0  0  0  0  0  0  0  0  0  # atno 17342 bound_to 10162
  140.7693  143.5508  150.9206 LP  0  0  0  0  0  0  0  0  0  0  0  0  # atno 17343 bound_to 10162
  157.5298  131.0936  150.9970 LP  0  0  0  0  0  0  0  0  0  0  0  0  # atno 17370 bound_to 10713
  157.0280  130.5700  149.5339 LP  0  0  0  0  0  0  0  0  0  0  0  0  # atno 17371 bound_to 10713
  141.2205  133.6897  156.7525 LP  0  0  0  0  0  0  0  0  0  0  0  0  # atno 17394 bound_to 11000
  140.2535  134.8522  157.3690 LP  0  0  0  0  0  0  0  0  0  0  0  0  # atno 17395 bound_to 11000

$$$$
