AV-unprocessed.smi:21|AV-procd|sdf|149|dock4
  -GOLD-   2262015363D 1   1.00000     0.00000
 Structure written by MMmdl.
 62 65  0  0  0  0  0  0  0  0  2 V2000
  143.9215  132.8033  149.0412 C   0  0  0  0  0  0  0  0  0  0  0  0
  144.2877  133.3308  150.3060 O   0  0  0  0  0  0  0  0  0  0  0  0
  145.6065  132.9875  150.7046 C   0  0  1  0  0  0  0  0  0  0  0  0
  145.9606  133.4753  152.1056 C   0  0  0  0  0  0  0  0  0  0  0  0
  147.1069  132.5455  152.5235 C   0  0  1  0  0  0  0  0  0  0  0  0
  147.3276  132.4563  154.0543 C   0  0  0  0  0  0  0  0  0  0  0  0
  148.7140  132.1321  154.4053 N   0  0  0  0  0  0  0  0  0  0  0  0
  149.3152  130.9637  153.7731 C   0  0  0  0  0  0  0  0  0  0  0  0
  149.4879  133.0006  155.1234 C   0  0  0  0  0  0  0  0  0  0  0  0
  150.6011  132.5176  155.7387 N   0  0  0  0  0  0  0  0  0  0  0  0
  151.3958  133.3140  156.4573 C   0  0  0  0  0  0  0  0  0  0  0  0
  151.2712  134.6188  156.6922 N   0  0  0  0  0  0  0  0  0  0  0  0
  150.1639  135.1238  156.0798 C   0  0  0  0  0  0  0  0  0  0  0  0
  149.2256  134.3985  155.2866 C   0  0  0  0  0  0  0  0  0  0  0  0
  148.2325  135.2703  154.8476 N   0  0  0  0  0  0  0  0  0  0  0  0
  148.5632  136.4293  155.3454 C   0  0  0  0  0  0  0  0  0  0  0  0
  149.7159  136.4323  156.0939 N   0  0  0  0  0  0  0  0  0  0  0  0
  150.3179  137.5705  156.7661 C   0  0  0  0  0  0  0  0  0  0  0  0
  151.7015  137.9548  156.1807 C   0  0  1  0  0  0  0  0  0  0  0  0
  151.5898  138.3571  154.6914 C   0  0  0  0  0  0  0  0  0  0  0  0
  150.8436  139.5460  154.5343 O   0  0  0  0  0  0  0  0  0  0  0  0
  152.4470  139.0325  157.0158 C   0  0  1  0  0  0  0  0  0  0  0  0
  151.6768  140.3007  157.3463 C   0  0  0  0  0  0  0  0  0  0  0  0
  152.5135  140.8662  158.4857 C   0  0  0  0  0  0  0  0  0  0  0  0
  152.8801  139.7223  159.2449 O   0  0  0  0  0  0  0  0  0  0  0  0
  152.9588  138.5814  158.3922 C   0  0  0  0  0  0  0  0  0  0  0  0
  146.8464  131.2526  151.8239 N   0  3  1  0  0  0  0  0  0  0  0  0
  146.6453  130.0464  152.6616 C   0  0  0  0  0  0  0  0  0  0  0  0
  145.7452  131.4739  150.8569 C   0  0  0  0  0  0  0  0  0  0  0  0
  146.3404  133.3462  149.9803 H   0  0  0  0  0  0  0  0  0  0  0  0
  148.0221  132.9290  152.0703 H   0  0  0  0  0  0  0  0  0  0  0  0
  142.8886  133.0720  148.8196 H   0  0  0  0  0  0  0  0  0  0  0  0
  143.9931  131.7149  149.0313 H   0  0  0  0  0  0  0  0  0  0  0  0
  144.5474  133.2034  148.2432 H   0  0  0  0  0  0  0  0  0  0  0  0
  146.2417  134.5285  152.1339 H   0  0  0  0  0  0  0  0  0  0  0  0
  145.1033  133.3360  152.7653 H   0  0  0  0  0  0  0  0  0  0  0  0
  146.9840  133.3631  154.5512 H   0  0  0  0  0  0  0  0  0  0  0  0
  146.7087  131.6565  154.4615 H   0  0  0  0  0  0  0  0  0  0  0  0
  150.0571  131.2639  153.0326 H   0  0  0  0  0  0  0  0  0  0  0  0
  148.5624  130.3633  153.2615 H   0  0  0  0  0  0  0  0  0  0  0  0
  149.7920  130.3241  154.5163 H   0  0  0  0  0  0  0  0  0  0  0  0
  152.2546  132.8377  156.9072 H   0  0  0  0  0  0  0  0  0  0  0  0
  147.9742  137.3189  155.1751 H   0  0  0  0  0  0  0  0  0  0  0  0
  149.6254  138.4092  156.6940 H   0  0  0  0  0  0  0  0  0  0  0  0
  150.3886  137.3212  157.8238 H   0  0  0  0  0  0  0  0  0  0  0  0
  152.3222  137.0581  156.2175 H   0  0  0  0  0  0  0  0  0  0  0  0
  152.5730  138.5401  154.2592 H   0  0  0  0  0  0  0  0  0  0  0  0
  151.1292  137.5604  154.1070 H   0  0  0  0  0  0  0  0  0  0  0  0
  150.4188  139.7459  155.3546 H   0  0  0  0  0  0  0  0  0  0  0  0
  153.3337  139.3417  156.4604 H   0  0  0  0  0  0  0  0  0  0  0  0
  151.5945  140.9851  156.5015 H   0  0  0  0  0  0  0  0  0  0  0  0
  150.6741  140.0828  157.7121 H   0  0  0  0  0  0  0  0  0  0  0  0
  153.4145  141.3461  158.1008 H   0  0  0  0  0  0  0  0  0  0  0  0
  151.9698  141.5923  159.0904 H   0  0  0  0  0  0  0  0  0  0  0  0
  152.3589  137.7844  158.8284 H   0  0  0  0  0  0  0  0  0  0  0  0
  153.9857  138.2195  158.3314 H   0  0  0  0  0  0  0  0  0  0  0  0
  145.7879  130.1606  153.3260 H   0  0  0  0  0  0  0  0  0  0  0  0
  147.5295  129.8280  153.2603 H   0  0  0  0  0  0  0  0  0  0  0  0
  146.4640  129.1778  152.0275 H   0  0  0  0  0  0  0  0  0  0  0  0
  144.8163  131.0679  151.2621 H   0  0  0  0  0  0  0  0  0  0  0  0
  145.9376  130.9744  149.9073 H   0  0  0  0  0  0  0  0  0  0  0  0
  147.6753  131.0749  151.2745 H   0  0  0  0  0  0  0  0  0  0  0  0
  1  2  1  0  0  0  0
  1 32  1  0  0  0  0
  1 33  1  0  0  0  0
  1 34  1  0  0  0  0
  2  3  1  0  0  0  0
  3 30  1  0  0  0  0
  3 29  1  0  0  0  0
  3  4  1  0  0  0  0
  4  5  1  0  0  0  0
  4 35  1  0  0  0  0
  4 36  1  0  0  0  0
  5 31  1  0  0  0  0
  5  6  1  0  0  0  0
  5 27  1  0  0  0  0
  6  7  1  0  0  0  0
  6 37  1  0  0  0  0
  6 38  1  0  0  0  0
  7  8  1  0  0  0  0
  7  9  1  0  0  0  0
  8 39  1  0  0  0  0
  8 40  1  0  0  0  0
  8 41  1  0  0  0  0
  9 14  1  0  0  0  0
  9 10  2  0  0  0  0
 10 11  1  0  0  0  0
 11 12  2  0  0  0  0
 11 42  1  0  0  0  0
 12 13  1  0  0  0  0
 13 17  1  0  0  0  0
 13 14  2  0  0  0  0
 14 15  1  0  0  0  0
 15 16  2  0  0  0  0
 16 17  1  0  0  0  0
 16 43  1  0  0  0  0
 17 18  1  0  0  0  0
 18 19  1  0  0  0  0
 18 44  1  0  0  0  0
 18 45  1  0  0  0  0
 19 20  1  0  0  0  0
 19 22  1  0  0  0  0
 19 46  1  0  0  0  0
 20 21  1  0  0  0  0
 20 47  1  0  0  0  0
 20 48  1  0  0  0  0
 21 49  1  0  0  0  0
 22 26  1  0  0  0  0
 22 23  1  0  0  0  0
 22 50  1  0  0  0  0
 23 24  1  0  0  0  0
 23 51  1  0  0  0  0
 23 52  1  0  0  0  0
 24 25  1  0  0  0  0
 24 53  1  0  0  0  0
 24 54  1  0  0  0  0
 25 26  1  0  0  0  0
 26 55  1  0  0  0  0
 26 56  1  0  0  0  0
 27 28  1  0  0  0  0
 27 29  1  0  0  0  0
 27 62  1  0  0  0  0
 28 57  1  0  0  0  0
 28 58  1  0  0  0  0
 28 59  1  0  0  0  0
 29 60  1  0  0  0  0
 29 61  1  0  0  0  0
M  CHG  1  27   1
M  END
> <s_m_source_file>
AV-unprocessed.smi

> <i_m_source_file_index>
21

> <i_lp_mmshare_version>
43012

> <i_f3d_flags>
0

> <s_epik_input>
W0NIM11PW0NASF0xW0NIMl1bQ0BIXShOKFtDSDNdKVtDSDJdMSlbQ0gyXU4oW0NIM10pYyhuW2NIXW4yKWMoYzIzKW5bY0hdbjNbQ0gyXVtDQEhdKFtDSDJdW09IXSlbQ0BASF00W0NIMl1bQ0gyXU9bQ0gyXTQ=

> <s_epik_cmdline>
J2VwaWtfcHl0aG9uJywgJy1waCcsICc3LjAnLCAnLXRuJywgJzgnLCAnLW1hJywgJzIwMCcsICctbWV0YWxfYmluZGluZycsICctaW1hZScsICc8aW5maWxlLm1hZT4nLCAnLW9tYWUnLCAnPG91dGZpbGUubWFlPic=

> <r_lp_tautomer_probability>
1

> <r_epik_Ionization_Penalty>
0.0157465

> <r_epik_Ionization_Penalty_Charging>
0.015354

> <r_epik_Ionization_Penalty_Neutral>
0.000392529

> <r_epik_State_Penalty>
0.0120612

> <r_epik_Charging_Adjusted_Penalty>
0.0274152

> <i_epik_Tot_Q>
1

> <i_epik_Tot_abs_Q>
1

> <r_epik_Metal_State_Penalty>
0.0121253

> <b_epik_Metal_Only>
0

> <s_lp_Force_Field>
OPLS_2005

> <r_lp_Energy>
61.5082

> <b_lp_Chiralities_Consistent>
1

> <s_lp_Variant>
AV-unprocessed.smi:21-29

> <Gold.Version>
5.8.1

> <Gold.Id.Protein>
6NUR|6NUR_protein|mol2

> <Gold.PLP.Fitness>
47.2869

> <Gold.PLP.PLP>
-42.5250

> <Gold.PLP.part.hbond>
-2.1826

> <Gold.PLP.part.metal>
0.0000

> <Gold.PLP.part.buried>
-8.1012

> <Gold.PLP.part.nonpolar>
-32.6415

> <Gold.PLP.part.repulsive>
0.3070

> <Gold.PLP.ligand.clash>
0.0000

> <Gold.PLP.ligand.torsion>
0.8030

> <Gold.PLP.Chemscore.Hbond>
2.0000

> <Gold.PLP.Chemscore.CHOScore>
0.0000

> <Gold.PLP.Chemscore.Metal>
0.0000

> <Gold.Chemscore.Hbonds>
donor molecule, donor type, donor heavy atom, donor atom, acceptor molecule, acceptor atom, score
      L1  H    27    62       P1 10747  1.00
      P1  H  7989  7998       L1    21  1.00

> <Gold.PLP.Chemscore.Internal.Correction>
0.3679

> <Gold.Rescore>
     Score         DG    S(hbond)    S(metal)    S(lipo)     H(rot)  DE(clash)    DE(int)     intcor
     14.46     -16.26       1.98        0.00     102.89       3.08       0.04       1.77       ----

> <Gold.Chemscore.Fitness>
14.4592

> <Gold.Chemscore.DG>
-16.2648

> <Gold.Chemscore.ZeroCoef>
-5.4800

> <Gold.Chemscore.Hbond>
1.9824

> <Gold.Chemscore.Metal>
0.0000

> <Gold.Chemscore.Lipo>
102.8864

> <Gold.Chemscore.Internal_Hbond>
0.0000

> <Gold.Chemscore.DEClash>
0.0362

> <Gold.Chemscore.DEInternal>
1.7694

> <Gold.Chemscore.Rot>
3.0758

> <Gold.Chemscore.Internal.Correction>
   9.000000E+99

> <Gold.Chemscore.Hbonds>
donor molecule, donor type, donor heavy atom, donor atom, acceptor molecule, acceptor atom, score
      L1  H    27    62       P1 10747  1.00
      P1  H  7989  7998       L1    21  0.92

> <Gold.Chemscore.Hbond.Weighted>
-6.6213

> <Gold.Chemscore.Metal.Weighted>
-0.0000

> <Gold.Chemscore.Lipo.Weighted>
-12.0377

> <Gold.Chemscore.Internal_Hbond.Weighted>
0.0000

> <Gold.Chemscore.DEClash.Weighted>
0.0362

> <Gold.Chemscore.DEInternal.Weighted>
1.7694

> <Gold.Chemscore.Rot.Weighted>
7.8741

> <Gold.Chemscore.Internal.Correction.Weighted>
   9.000000E+99

> <Gold.Protein.RotatedTorsions>
[ 6907 6896 6895 6894 ] final -174.01 input  -60.11 | X-H torsion
[ 7974 7965 7964 7962 ] final   89.06 input  175.53 | X-H torsion
[ 8008 7997 7996 7995 ] final -103.84 input   59.86 | X-H torsion
[ 10167 10162 10161 10158 ] final -142.34 input  -65.29 | X-H torsion
[ 10718 10713 10712 10709 ] final  -66.34 input   66.30 | X-H torsion
[ 10763 10752 10751 10750 ] final  -98.33 input  -60.55 | X-H torsion
[ 11005 11000 10999 10996 ] final -127.84 input  -57.11 | X-H torsion

> <Gold.Protein.ActiveResidues>
 VAL166  LYS551  ARG553  GLY616  TRP617  ASP618  TYR619  PRO620  LYS621  CYS622 
 ASP623  PHE694  ASN695  SER759  ASP760  ASP761  ALA762  ILE779  LEU786  VAL792 
 PHE793  MET794  SER795  GLU796  ALA797  LYS798  CYS799  TRP800  GLU811  SER814 

> <Gold.Protein.RotatedAtoms>
  151.5654  133.3397  159.2978 H   0  0  0  0  0  0  0  0  0  0  0  0  # atno 6907 bound_to 6896
  150.8398  134.7689  159.6934 H   0  0  0  0  0  0  0  0  0  0  0  0  # atno 6908 bound_to 6896
  152.4468  134.5485  159.9911 H   0  0  0  0  0  0  0  0  0  0  0  0  # atno 6909 bound_to 6896
  145.5374  139.2286  143.2585 H   0  0  0  0  0  0  0  0  0  0  0  0  # atno 7974 bound_to 7965
  154.8767  140.0421  157.1757 H   0  0  0  0  0  0  0  0  0  0  0  0  # atno 8008 bound_to 7997
  154.8682  140.2954  155.5476 H   0  0  0  0  0  0  0  0  0  0  0  0  # atno 8009 bound_to 7997
  156.2999  140.2434  156.3667 H   0  0  0  0  0  0  0  0  0  0  0  0  # atno 8010 bound_to 7997
  139.8098  143.7718  152.2663 H   0  0  0  0  0  0  0  0  0  0  0  0  # atno 10167 bound_to 10162
  156.0618  130.4260  150.1695 H   0  0  0  0  0  0  0  0  0  0  0  0  # atno 10718 bound_to 10713
  154.7405  135.5013  153.9115 H   0  0  0  0  0  0  0  0  0  0  0  0  # atno 10763 bound_to 10752
  153.1038  135.6692  153.9631 H   0  0  0  0  0  0  0  0  0  0  0  0  # atno 10764 bound_to 10752
  153.9409  135.3068  155.3422 H   0  0  0  0  0  0  0  0  0  0  0  0  # atno 10765 bound_to 10752
  140.9566  134.0993  157.4010 H   0  0  0  0  0  0  0  0  0  0  0  0  # atno 11005 bound_to 11000
  146.2004  140.6193  142.9105 LP  0  0  0  0  0  0  0  0  0  0  0  0  # atno 17320 bound_to 7965
  144.7594  140.5386  143.6746 LP  0  0  0  0  0  0  0  0  0  0  0  0  # atno 17321 bound_to 7965
  139.7864  144.7426  151.0016 LP  0  0  0  0  0  0  0  0  0  0  0  0  # atno 17342 bound_to 10162
  140.7818  143.4488  151.0443 LP  0  0  0  0  0  0  0  0  0  0  0  0  # atno 17343 bound_to 10162
  156.9762  130.9850  151.3448 LP  0  0  0  0  0  0  0  0  0  0  0  0  # atno 17370 bound_to 10713
  157.5632  130.8260  149.8293 LP  0  0  0  0  0  0  0  0  0  0  0  0  # atno 17371 bound_to 10713
  139.8864  135.0081  156.6497 LP  0  0  0  0  0  0  0  0  0  0  0  0  # atno 17394 bound_to 11000
  140.7527  133.8884  155.8359 LP  0  0  0  0  0  0  0  0  0  0  0  0  # atno 17395 bound_to 11000

$$$$
