AV-unprocessed.smi:2702|AV-procd|sdf|10432|dock5
  -GOLD-   2272014473D 1   1.00000     0.00000
 Structure written by MMmdl.
 47 48  0  0  0  0  0  0  0  0  1 V2000
  147.5234  136.5933  163.0478 C   0  0  0  0  0  0  0  0  0  0  0  0
  147.6863  137.1064  161.7376 O   0  0  0  0  0  0  0  0  0  0  0  0
  148.2001  136.1411  160.8345 C   0  0  0  0  0  0  0  0  0  0  0  0
  148.7674  136.8082  159.5965 C   0  0  0  0  0  0  0  0  0  0  0  0
  147.9940  137.5305  158.7523 C   0  0  0  0  0  0  0  0  0  0  0  0
  148.5738  138.1711  157.5716 C   0  0  0  0  0  0  0  0  0  0  0  0
  147.9033  138.8356  156.7813 O   0  0  0  0  0  0  0  0  0  0  0  0
  149.9164  137.9774  157.4135 N   0  0  0  0  0  0  0  0  0  0  0  0
  150.6523  138.5659  156.2791 C   0  0  0  0  0  0  0  0  0  0  0  0
  151.7368  139.5695  156.7004 C   0  0  0  0  0  0  0  0  0  0  0  0
  152.7311  139.7647  155.9998 O   0  0  0  0  0  0  0  0  0  0  0  0
  151.5214  140.2031  157.8630 N   0  0  0  0  0  0  0  0  0  0  0  0
  152.3983  141.2115  158.4566 C   0  0  2  0  0  0  0  0  0  0  0  0
  152.8621  140.7245  159.8425 C   0  0  0  0  0  0  0  0  0  0  0  0
  153.7493  141.7659  160.5308 C   0  0  0  0  0  0  0  0  0  0  0  0
  153.0167  143.1068  160.6467 C   0  0  0  0  0  0  0  0  0  0  0  0
  152.5617  143.6332  159.2708 C   0  0  2  0  0  0  0  0  0  0  0  0
  151.8667  144.9962  159.4454 C   0  0  0  0  0  0  0  0  0  0  0  0
  151.6785  142.5855  158.5348 C   0  0  1  0  0  0  0  0  0  0  0  0
  151.2560  143.0694  157.1300 C   0  0  0  0  0  0  0  0  0  0  0  0
  150.6767  137.2218  158.3281 C   0  0  0  0  0  0  0  0  0  0  0  0
  150.1386  136.6611  159.3638 N   0  0  0  0  0  0  0  0  0  0  0  0
  147.1234  137.3714  163.6980 H   0  0  0  0  0  0  0  0  0  0  0  0
  148.4766  136.2643  163.4637 H   0  0  0  0  0  0  0  0  0  0  0  0
  146.8268  135.7540  163.0593 H   0  0  0  0  0  0  0  0  0  0  0  0
  148.9939  135.5639  161.3112 H   0  0  0  0  0  0  0  0  0  0  0  0
  147.4114  135.4414  160.5531 H   0  0  0  0  0  0  0  0  0  0  0  0
  146.9372  137.6420  158.9459 H   0  0  0  0  0  0  0  0  0  0  0  0
  151.1172  137.7854  155.6731 H   0  0  0  0  0  0  0  0  0  0  0  0
  149.9623  139.0703  155.6005 H   0  0  0  0  0  0  0  0  0  0  0  0
  150.6799  139.9787  158.3737 H   0  0  0  0  0  0  0  0  0  0  0  0
  153.2805  141.3367  157.8251 H   0  0  0  0  0  0  0  0  0  0  0  0
  151.9961  140.5133  160.4715 H   0  0  0  0  0  0  0  0  0  0  0  0
  153.4109  139.7867  159.7473 H   0  0  0  0  0  0  0  0  0  0  0  0
  154.0385  141.4125  161.5208 H   0  0  0  0  0  0  0  0  0  0  0  0
  154.6727  141.8967  159.9651 H   0  0  0  0  0  0  0  0  0  0  0  0
  152.1530  142.9938  161.3038 H   0  0  0  0  0  0  0  0  0  0  0  0
  153.6737  143.8334  161.1261 H   0  0  0  0  0  0  0  0  0  0  0  0
  153.4585  143.7992  158.6715 H   0  0  0  0  0  0  0  0  0  0  0  0
  150.9075  144.8908  159.9533 H   0  0  0  0  0  0  0  0  0  0  0  0
  151.6903  145.4886  158.4898 H   0  0  0  0  0  0  0  0  0  0  0  0
  152.4810  145.6752  160.0373 H   0  0  0  0  0  0  0  0  0  0  0  0
  150.7679  142.4506  159.1209 H   0  0  0  0  0  0  0  0  0  0  0  0
  152.1258  143.2642  156.5019 H   0  0  0  0  0  0  0  0  0  0  0  0
  150.6646  143.9830  157.1754 H   0  0  0  0  0  0  0  0  0  0  0  0
  150.6370  142.3345  156.6153 H   0  0  0  0  0  0  0  0  0  0  0  0
  151.7421  137.1482  158.1035 H   0  0  0  0  0  0  0  0  0  0  0  0
  1  2  1  0  0  0  0
  1 23  1  0  0  0  0
  1 24  1  0  0  0  0
  1 25  1  0  0  0  0
  2  3  1  0  0  0  0
  3  4  1  0  0  0  0
  3 26  1  0  0  0  0
  3 27  1  0  0  0  0
  4 22  1  0  0  0  0
  4  5  2  0  0  0  0
  5  6  1  0  0  0  0
  5 28  1  0  0  0  0
  6  7  2  0  0  0  0
  6  8  1  0  0  0  0
  8  9  1  0  0  0  0
  8 21  1  0  0  0  0
  9 10  1  0  0  0  0
  9 29  1  0  0  0  0
  9 30  1  0  0  0  0
 10 11  2  0  0  0  0
 10 12  1  0  0  0  0
 12 13  1  0  0  0  0
 12 31  1  0  0  0  0
 13 19  1  0  0  0  0
 13 14  1  0  0  0  0
 13 32  1  0  0  0  0
 14 15  1  0  0  0  0
 14 33  1  0  0  0  0
 14 34  1  0  0  0  0
 15 16  1  0  0  0  0
 15 35  1  0  0  0  0
 15 36  1  0  0  0  0
 16 17  1  0  0  0  0
 16 37  1  0  0  0  0
 16 38  1  0  0  0  0
 17 18  1  0  0  0  0
 17 19  1  0  0  0  0
 17 39  1  0  0  0  0
 18 40  1  0  0  0  0
 18 41  1  0  0  0  0
 18 42  1  0  0  0  0
 19 20  1  0  0  0  0
 19 43  1  0  0  0  0
 20 44  1  0  0  0  0
 20 45  1  0  0  0  0
 20 46  1  0  0  0  0
 21 22  2  0  0  0  0
 21 47  1  0  0  0  0
M  END
> <s_m_source_file>
AV-unprocessed.smi

> <i_m_source_file_index>
2702

> <i_lp_mmshare_version>
43012

> <i_f3d_flags>
0

> <s_epik_input>
W0NIM11PW0NIMl1jMVtjSF1jKD1PKW4oW2NIXW4xKVtDSDJdQyg9TylbTkhdW0NAQEhdMltDSDJdW0NIMl1bQ0gyXVtDQEBIXShbQ0gzXSlbQ0BIXTJbQ0gzXQ==

> <s_epik_cmdline>
J2VwaWtfcHl0aG9uJywgJy1waCcsICc3LjAnLCAnLXRuJywgJzgnLCAnLW1hJywgJzIwMCcsICctbWV0YWxfYmluZGluZycsICctaW1hZScsICc8aW5maWxlLm1hZT4nLCAnLW9tYWUnLCAnPG91dGZpbGUubWFlPic=

> <r_lp_tautomer_probability>
1

> <r_epik_Ionization_Penalty>
1.22164e-06

> <r_epik_Ionization_Penalty_Charging>
3.17988e-07

> <r_epik_Ionization_Penalty_Neutral>
9.03656e-07

> <r_epik_State_Penalty>
-0

> <r_epik_Charging_Adjusted_Penalty>
3.17988e-07

> <i_epik_Tot_Q>
0

> <i_epik_Tot_abs_Q>
0

> <r_epik_Metal_State_Penalty>
-0

> <b_epik_Metal_Only>
0

> <s_lp_Force_Field>
OPLS_2005

> <r_lp_Energy>
18.2474

> <b_lp_Chiralities_Consistent>
1

> <s_lp_Variant>
AV-unprocessed.smi:2702-3

> <Gold.Version>
5.8.1

> <Gold.Id.Protein>
6NUR|6NUR_protein|mol2

> <Gold.PLP.Fitness>
53.1749

> <Gold.PLP.PLP>
-42.7675

> <Gold.PLP.part.hbond>
-4.0000

> <Gold.PLP.part.metal>
0.0000

> <Gold.PLP.part.buried>
-4.6412

> <Gold.PLP.part.nonpolar>
-33.8542

> <Gold.PLP.part.repulsive>
0.0728

> <Gold.PLP.ligand.clash>
0.0000

> <Gold.PLP.ligand.torsion>
0.4705

> <Gold.PLP.Chemscore.Hbond>
3.7760

> <Gold.PLP.Chemscore.CHOScore>
0.0000

> <Gold.PLP.Chemscore.Metal>
0.0000

> <Gold.Chemscore.Hbonds>
donor molecule, donor type, donor heavy atom, donor atom, acceptor molecule, acceptor atom, score
      P1  H  6896  6907       L1    22  1.00
      P1  H  6931  6943       L1     2  1.00
      P1  H  6934  6947       L1     2  0.54
      P1  H  7997  8008       L1    11  1.00

> <Gold.PLP.Chemscore.Internal.Correction>
0.0204

> <Gold.Rescore>
     Score         DG    S(hbond)    S(metal)    S(lipo)     H(rot)  DE(clash)    DE(int)     intcor
     23.00     -23.48       2.97        0.00     111.17       1.93       0.04       0.44       ----

> <Gold.Chemscore.Fitness>
22.9999

> <Gold.Chemscore.DG>
-23.4790

> <Gold.Chemscore.ZeroCoef>
-5.4800

> <Gold.Chemscore.Hbond>
2.9726

> <Gold.Chemscore.Metal>
0.0000

> <Gold.Chemscore.Lipo>
111.1739

> <Gold.Chemscore.Internal_Hbond>
0.0000

> <Gold.Chemscore.DEClash>
0.0414

> <Gold.Chemscore.DEInternal>
0.4378

> <Gold.Chemscore.Rot>
1.9284

> <Gold.Chemscore.Internal.Correction>
   9.000000E+99

> <Gold.Chemscore.Hbonds>
donor molecule, donor type, donor heavy atom, donor atom, acceptor molecule, acceptor atom, score
      P1  H  6896  6907       L1    22  0.76
      P1  H  6931  6943       L1     2  0.17
      P1  H  6934  6947       L1     2  0.51
      P1  H  7997  8008       L1    11  1.00

> <Gold.Chemscore.Hbond.Weighted>
-9.9285

> <Gold.Chemscore.Metal.Weighted>
-0.0000

> <Gold.Chemscore.Lipo.Weighted>
-13.0073

> <Gold.Chemscore.Internal_Hbond.Weighted>
0.0000

> <Gold.Chemscore.DEClash.Weighted>
0.0414

> <Gold.Chemscore.DEInternal.Weighted>
0.4378

> <Gold.Chemscore.Rot.Weighted>
4.9368

> <Gold.Chemscore.Internal.Correction.Weighted>
   9.000000E+99

> <Gold.Protein.RotatedTorsions>
[ 6907 6896 6895 6894 ] final  -47.06 input  -60.11 | X-H torsion
[ 7974 7965 7964 7962 ] final  -66.09 input  175.53 | X-H torsion
[ 8008 7997 7996 7995 ] final  -30.74 input   59.86 | X-H torsion
[ 10167 10162 10161 10158 ] final   80.13 input  -65.29 | X-H torsion
[ 10718 10713 10712 10709 ] final -119.77 input   66.30 | X-H torsion
[ 10763 10752 10751 10750 ] final  104.98 input  -60.55 | X-H torsion
[ 11005 11000 10999 10996 ] final  119.44 input  -57.11 | X-H torsion

> <Gold.Protein.ActiveResidues>
 VAL166  LYS551  ARG553  GLY616  TRP617  ASP618  TYR619  PRO620  LYS621  CYS622 
 ASP623  PHE694  ASN695  SER759  ASP760  ASP761  ALA762  ILE779  LEU786  VAL792 
 PHE793  MET794  SER795  GLU796  ALA797  LYS798  CYS799  TRP800  GLU811  SER814 

> <Gold.Protein.RotatedAtoms>
  150.9048  134.8462  159.7384 H   0  0  0  0  0  0  0  0  0  0  0  0  # atno 6907 bound_to 6896
  152.4912  134.4448  159.9565 H   0  0  0  0  0  0  0  0  0  0  0  0  # atno 6908 bound_to 6896
  151.4497  133.3582  159.2828 H   0  0  0  0  0  0  0  0  0  0  0  0  # atno 6909 bound_to 6896
  145.7461  140.8930  143.0504 H   0  0  0  0  0  0  0  0  0  0  0  0  # atno 7974 bound_to 7965
  154.4239  140.1783  156.1456 H   0  0  0  0  0  0  0  0  0  0  0  0  # atno 8008 bound_to 7997
  155.9957  140.3365  155.6771 H   0  0  0  0  0  0  0  0  0  0  0  0  # atno 8009 bound_to 7997
  155.6312  140.0670  157.2639 H   0  0  0  0  0  0  0  0  0  0  0  0  # atno 8010 bound_to 7997
  139.9530  144.6013  150.8143 H   0  0  0  0  0  0  0  0  0  0  0  0  # atno 10167 bound_to 10162
  156.1206  130.6320  150.9457 H   0  0  0  0  0  0  0  0  0  0  0  0  # atno 10718 bound_to 10713
  153.3733  135.3925  155.1804 H   0  0  0  0  0  0  0  0  0  0  0  0  # atno 10763 bound_to 10752
  154.8697  135.3707  154.4950 H   0  0  0  0  0  0  0  0  0  0  0  0  # atno 10764 bound_to 10752
  153.5420  135.7084  153.5693 H   0  0  0  0  0  0  0  0  0  0  0  0  # atno 10765 bound_to 10752
  139.9146  134.9628  156.7655 H   0  0  0  0  0  0  0  0  0  0  0  0  # atno 11005 bound_to 11000
  144.6860  139.9527  143.7478 LP  0  0  0  0  0  0  0  0  0  0  0  0  # atno 17320 bound_to 7965
  146.0401  139.3414  143.0702 LP  0  0  0  0  0  0  0  0  0  0  0  0  # atno 17321 bound_to 7965
  140.7577  143.3092  151.2887 LP  0  0  0  0  0  0  0  0  0  0  0  0  # atno 17342 bound_to 10162
  139.6614  144.0183  152.2694 LP  0  0  0  0  0  0  0  0  0  0  0  0  # atno 17343 bound_to 10162
  157.6390  131.0912  150.8291 LP  0  0  0  0  0  0  0  0  0  0  0  0  # atno 17370 bound_to 10713
  156.8388  130.5041  149.5323 LP  0  0  0  0  0  0  0  0  0  0  0  0  # atno 17371 bound_to 10713
  140.6662  133.9600  155.7832 LP  0  0  0  0  0  0  0  0  0  0  0  0  # atno 17394 bound_to 11000
  141.0609  134.0348  157.3660 LP  0  0  0  0  0  0  0  0  0  0  0  0  # atno 17395 bound_to 11000

$$$$
