AV-unprocessed.smi:1416|AV-procd|sdf|5764|dock3
  -GOLD-   22720 5403D 1   1.00000     0.00000
 Structure written by MMmdl.
 44 45  0  0  0  0  0  0  0  0  1 V2000
  144.2252  143.9501  162.3379 C   0  0  0  0  0  0  0  0  0  0  0  0
  145.4527  143.3936  161.6115 C   0  0  0  0  0  0  0  0  0  0  0  0
  145.6475  144.1348  159.9690 S   0  0  0  0  0  0  0  0  0  0  0  0
  146.2436  142.6844  159.0525 C   0  0  0  0  0  0  0  0  0  0  0  0
  146.4914  142.9922  157.5643 C   0  0  0  0  0  0  0  0  0  0  0  0
  147.2482  141.8844  156.8224 C   0  0  0  0  0  0  0  0  0  0  0  0
  147.1271  140.7068  157.1619 O   0  0  0  0  0  0  0  0  0  0  0  0
  148.0249  142.2777  155.8028 N   0  0  0  0  0  0  0  0  0  0  0  0
  148.8221  141.3819  154.9736 C   0  0  0  0  0  0  0  0  0  0  0  0
  150.0897  140.9014  155.6610 C   0  0  0  0  0  0  0  0  0  0  0  0
  150.7625  139.7366  155.2363 C   0  0  0  0  0  0  0  0  0  0  0  0
  151.9205  139.3423  155.9314 C   0  0  0  0  0  0  0  0  0  0  0  0
  152.4209  140.0237  156.9829 N   0  0  0  0  0  0  0  0  0  0  0  0
  151.7846  141.1463  157.4004 C   0  0  0  0  0  0  0  0  0  0  0  0
  152.3222  141.8506  158.5000 N   0  0  0  0  0  0  0  0  0  0  0  0
  152.6126  141.0460  159.6845 C   0  0  0  0  0  0  0  0  0  0  0  0
  153.4623  141.8497  160.6840 C   0  0  0  0  0  0  0  0  0  0  0  0
  152.8104  143.0765  160.9956 O   0  0  0  0  0  0  0  0  0  0  0  0
  152.6407  143.8929  159.8417 C   0  0  0  0  0  0  0  0  0  0  0  0
  151.7583  143.1622  158.8156 C   0  0  0  0  0  0  0  0  0  0  0  0
  150.6076  141.6101  156.7648 C   0  0  0  0  0  0  0  0  0  0  0  0
  144.1193  143.4971  163.3238 H   0  0  0  0  0  0  0  0  0  0  0  0
  143.3117  143.7471  161.7784 H   0  0  0  0  0  0  0  0  0  0  0  0
  144.3043  145.0290  162.4737 H   0  0  0  0  0  0  0  0  0  0  0  0
  146.3522  143.5883  162.1961 H   0  0  0  0  0  0  0  0  0  0  0  0
  145.3654  142.3121  161.5042 H   0  0  0  0  0  0  0  0  0  0  0  0
  147.1463  142.3013  159.5303 H   0  0  0  0  0  0  0  0  0  0  0  0
  145.4925  141.8989  159.1385 H   0  0  0  0  0  0  0  0  0  0  0  0
  145.5328  143.1249  157.0619 H   0  0  0  0  0  0  0  0  0  0  0  0
  147.0227  143.9404  157.4670 H   0  0  0  0  0  0  0  0  0  0  0  0
  148.0697  143.2629  155.5858 H   0  0  0  0  0  0  0  0  0  0  0  0
  148.2073  140.5250  154.6942 H   0  0  0  0  0  0  0  0  0  0  0  0
  149.1097  141.8850  154.0491 H   0  0  0  0  0  0  0  0  0  0  0  0
  150.4014  139.1483  154.4057 H   0  0  0  0  0  0  0  0  0  0  0  0
  152.4588  138.4539  155.6363 H   0  0  0  0  0  0  0  0  0  0  0  0
  151.6699  140.7526  160.1487 H   0  0  0  0  0  0  0  0  0  0  0  0
  153.1396  140.1272  159.4311 H   0  0  0  0  0  0  0  0  0  0  0  0
  153.6004  141.2785  161.6022 H   0  0  0  0  0  0  0  0  0  0  0  0
  154.4566  142.0459  160.2788 H   0  0  0  0  0  0  0  0  0  0  0  0
  152.1736  144.8324  160.1367 H   0  0  0  0  0  0  0  0  0  0  0  0
  153.6126  144.1414  159.4122 H   0  0  0  0  0  0  0  0  0  0  0  0
  151.6803  143.7673  157.9114 H   0  0  0  0  0  0  0  0  0  0  0  0
  150.7502  143.0365  159.2131 H   0  0  0  0  0  0  0  0  0  0  0  0
  150.0943  142.4911  157.1203 H   0  0  0  0  0  0  0  0  0  0  0  0
  1  2  1  0  0  0  0
  1 22  1  0  0  0  0
  1 23  1  0  0  0  0
  1 24  1  0  0  0  0
  2  3  1  0  0  0  0
  2 25  1  0  0  0  0
  2 26  1  0  0  0  0
  3  4  1  0  0  0  0
  4  5  1  0  0  0  0
  4 27  1  0  0  0  0
  4 28  1  0  0  0  0
  5  6  1  0  0  0  0
  5 29  1  0  0  0  0
  5 30  1  0  0  0  0
  6  7  2  0  0  0  0
  6  8  1  0  0  0  0
  8  9  1  0  0  0  0
  8 31  1  0  0  0  0
  9 10  1  0  0  0  0
  9 32  1  0  0  0  0
  9 33  1  0  0  0  0
 10 21  1  0  0  0  0
 10 11  2  0  0  0  0
 11 12  1  0  0  0  0
 11 34  1  0  0  0  0
 12 13  2  0  0  0  0
 12 35  1  0  0  0  0
 13 14  1  0  0  0  0
 14 15  1  0  0  0  0
 14 21  2  0  0  0  0
 15 20  1  0  0  0  0
 15 16  1  0  0  0  0
 16 17  1  0  0  0  0
 16 36  1  0  0  0  0
 16 37  1  0  0  0  0
 17 18  1  0  0  0  0
 17 38  1  0  0  0  0
 17 39  1  0  0  0  0
 18 19  1  0  0  0  0
 19 20  1  0  0  0  0
 19 40  1  0  0  0  0
 19 41  1  0  0  0  0
 20 42  1  0  0  0  0
 20 43  1  0  0  0  0
 21 44  1  0  0  0  0
M  END
> <s_m_source_file>
AV-unprocessed.smi

> <i_m_source_file_index>
1416

> <i_lp_mmshare_version>
43012

> <i_f3d_flags>
0

> <s_epik_input>
W0NIM11bQ0gyXVNbQ0gyXVtDSDJdQyg9TylbTkhdW0NIMl1jMVtjSF1bY0hdbmMoW2NIXTEpTjJbQ0gyXVtDSDJdT1tDSDJdW0NIMl0y

> <s_epik_cmdline>
J2VwaWtfcHl0aG9uJywgJy1waCcsICc3LjAnLCAnLXRuJywgJzgnLCAnLW1hJywgJzIwMCcsICctbWV0YWxfYmluZGluZycsICctaW1hZScsICc8aW5maWxlLm1hZT4nLCAnLW9tYWUnLCAnPG91dGZpbGUubWFlPic=

> <r_lp_tautomer_probability>
1

> <r_epik_Ionization_Penalty>
0.00571449

> <r_epik_Ionization_Penalty_Charging>
0

> <r_epik_Ionization_Penalty_Neutral>
0.00571449

> <r_epik_State_Penalty>
0.00419227

> <r_epik_Charging_Adjusted_Penalty>
0.00419227

> <i_epik_Tot_Q>
0

> <i_epik_Tot_abs_Q>
0

> <r_epik_Metal_State_Penalty>
-0

> <b_epik_Metal_Only>
0

> <s_lp_Force_Field>
OPLS_2005

> <r_lp_Energy>
16.5768

> <b_lp_Chiralities_Consistent>
1

> <s_lp_Variant>
AV-unprocessed.smi:1416-1

> <Gold.Version>
5.8.1

> <Gold.Id.Protein>
6NUR|6NUR_protein|mol2

> <Gold.PLP.Fitness>
45.8460

> <Gold.PLP.PLP>
-41.8248

> <Gold.PLP.part.hbond>
-2.0000

> <Gold.PLP.part.metal>
0.0000

> <Gold.PLP.part.buried>
-5.7704

> <Gold.PLP.part.nonpolar>
-34.5135

> <Gold.PLP.part.repulsive>
0.1252

> <Gold.PLP.ligand.clash>
0.0000

> <Gold.PLP.ligand.torsion>
1.2144

> <Gold.PLP.Chemscore.Hbond>
2.0000

> <Gold.PLP.Chemscore.CHOScore>
0.0000

> <Gold.PLP.Chemscore.Metal>
0.0000

> <Gold.Chemscore.Hbonds>
donor molecule, donor type, donor heavy atom, donor atom, acceptor molecule, acceptor atom, score
      L1  H     8    31       P1  8028  1.00
      P1  H  7997  8008       L1    13  0.95

> <Gold.PLP.Chemscore.Internal.Correction>
0.4501

> <Gold.Rescore>
     Score         DG    S(hbond)    S(metal)    S(lipo)     H(rot)  DE(clash)    DE(int)     intcor
     16.10     -17.68       1.61        0.00      99.38       1.87       0.31       1.27       ----

> <Gold.Chemscore.Fitness>
16.1038

> <Gold.Chemscore.DG>
-17.6848

> <Gold.Chemscore.ZeroCoef>
-5.4800

> <Gold.Chemscore.Hbond>
1.6064

> <Gold.Chemscore.Metal>
0.0000

> <Gold.Chemscore.Lipo>
99.3802

> <Gold.Chemscore.Internal_Hbond>
0.0000

> <Gold.Chemscore.DEClash>
0.3106

> <Gold.Chemscore.DEInternal>
1.2704

> <Gold.Chemscore.Rot>
1.8704

> <Gold.Chemscore.Internal.Correction>
   9.000000E+99

> <Gold.Chemscore.Hbonds>
donor molecule, donor type, donor heavy atom, donor atom, acceptor molecule, acceptor atom, score
      L1  H     8    31       P1  8028  0.71
      P1  H  7997  8008       L1    13  0.20

> <Gold.Chemscore.Hbond.Weighted>
-5.3654

> <Gold.Chemscore.Metal.Weighted>
-0.0000

> <Gold.Chemscore.Lipo.Weighted>
-11.6275

> <Gold.Chemscore.Internal_Hbond.Weighted>
0.0000

> <Gold.Chemscore.DEClash.Weighted>
0.3106

> <Gold.Chemscore.DEInternal.Weighted>
1.2704

> <Gold.Chemscore.Rot.Weighted>
4.7881

> <Gold.Chemscore.Internal.Correction.Weighted>
   9.000000E+99

> <Gold.Protein.RotatedTorsions>
[ 6907 6896 6895 6894 ] final -104.35 input  -60.11 | X-H torsion
[ 7974 7965 7964 7962 ] final   44.75 input  175.53 | X-H torsion
[ 8008 7997 7996 7995 ] final  -46.62 input   59.86 | X-H torsion
[ 10167 10162 10161 10158 ] final  100.95 input  -65.29 | X-H torsion
[ 10718 10713 10712 10709 ] final  -56.37 input   66.30 | X-H torsion
[ 10763 10752 10751 10750 ] final  109.64 input  -60.55 | X-H torsion
[ 11005 11000 10999 10996 ] final   60.65 input  -57.11 | X-H torsion

> <Gold.Protein.ActiveResidues>
 VAL166  LYS551  ARG553  GLY616  TRP617  ASP618  TYR619  PRO620  LYS621  CYS622 
 ASP623  PHE694  ASN695  SER759  ASP760  ASP761  ALA762  ILE779  LEU786  VAL792 
 PHE793  MET794  SER795  GLU796  ALA797  LYS798  CYS799  TRP800  GLU811  SER814 

> <Gold.Protein.RotatedAtoms>
  150.7283  134.0291  159.3726 H   0  0  0  0  0  0  0  0  0  0  0  0  # atno 6907 bound_to 6896
  151.8259  135.0635  160.0440 H   0  0  0  0  0  0  0  0  0  0  0  0  # atno 6908 bound_to 6896
  152.2969  133.5580  159.5629 H   0  0  0  0  0  0  0  0  0  0  0  0  # atno 6909 bound_to 6896
  146.0541  139.5040  142.9700 H   0  0  0  0  0  0  0  0  0  0  0  0  # atno 7974 bound_to 7965
  154.4009  140.1367  156.4042 H   0  0  0  0  0  0  0  0  0  0  0  0  # atno 8008 bound_to 7997
  155.7795  140.3482  155.5269 H   0  0  0  0  0  0  0  0  0  0  0  0  # atno 8009 bound_to 7997
  155.8687  140.0968  157.1555 H   0  0  0  0  0  0  0  0  0  0  0  0  # atno 8010 bound_to 7997
  139.7481  144.6992  151.0473 H   0  0  0  0  0  0  0  0  0  0  0  0  # atno 10167 bound_to 10162
  156.1294  130.4160  150.0296 H   0  0  0  0  0  0  0  0  0  0  0  0  # atno 10718 bound_to 10713
  153.4376  135.3773  155.2208 H   0  0  0  0  0  0  0  0  0  0  0  0  # atno 10763 bound_to 10752
  154.8752  135.3855  154.4192 H   0  0  0  0  0  0  0  0  0  0  0  0  # atno 10764 bound_to 10752
  153.4733  135.7087  153.6044 H   0  0  0  0  0  0  0  0  0  0  0  0  # atno 10765 bound_to 10752
  140.0217  134.6143  155.9631 H   0  0  0  0  0  0  0  0  0  0  0  0  # atno 11005 bound_to 11000
  145.6674  141.0225  143.1676 LP  0  0  0  0  0  0  0  0  0  0  0  0  # atno 17320 bound_to 7965
  144.7138  139.8271  143.7405 LP  0  0  0  0  0  0  0  0  0  0  0  0  # atno 17321 bound_to 7965
  140.7794  143.4842  150.9978 LP  0  0  0  0  0  0  0  0  0  0  0  0  # atno 17342 bound_to 10162
  139.8529  143.7414  152.3177 LP  0  0  0  0  0  0  0  0  0  0  0  0  # atno 17343 bound_to 10162
  156.8213  130.9359  151.3641 LP  0  0  0  0  0  0  0  0  0  0  0  0  # atno 17370 bound_to 10713
  157.6473  130.8855  149.9563 LP  0  0  0  0  0  0  0  0  0  0  0  0  # atno 17371 bound_to 10713
  141.1778  133.6542  156.4896 LP  0  0  0  0  0  0  0  0  0  0  0  0  # atno 17394 bound_to 11000
  140.4376  134.7045  157.4975 LP  0  0  0  0  0  0  0  0  0  0  0  0  # atno 17395 bound_to 11000

$$$$
