AV-unprocessed.smi:1738|AV-procd|sdf|6997|dock3
  -GOLD-   22720 8213D 1   1.00000     0.00000
 Structure written by MMmdl.
 46 48  0  0  0  0  0  0  0  0  2 V2000
  153.0448  137.9300  160.0947 C   0  0  0  0  0  0  0  0  0  0  0  0
  153.5345  138.7516  158.5242 S   0  0  0  0  0  0  0  0  0  0  0  0
  153.1458  140.1679  158.6154 O   0  0  0  0  0  0  0  0  0  0  0  0
  154.9337  138.4001  158.2358 O   0  0  0  0  0  0  0  0  0  0  0  0
  152.5039  137.9636  157.2917 C   0  0  0  0  0  0  0  0  0  0  0  0
  152.0402  138.6907  156.1773 C   0  0  0  0  0  0  0  0  0  0  0  0
  151.2043  138.0325  155.2551 C   0  0  0  0  0  0  0  0  0  0  0  0
  150.8515  136.6802  155.4927 C   0  0  0  0  0  0  0  0  0  0  0  0
  150.0299  135.8925  154.6395 N   0  0  0  0  0  0  0  0  0  0  0  0
  149.4762  134.6883  154.8649 C   0  0  0  0  0  0  0  0  0  0  0  0
  149.6111  134.0173  155.8870 O   0  0  0  0  0  0  0  0  0  0  0  0
  148.7470  134.2886  153.8133 N   0  0  0  0  0  0  0  0  0  0  0  0
  148.0116  133.0295  153.7290 C   0  0  2  0  0  0  0  0  0  0  0  0
  148.8935  131.8039  153.9373 C   0  0  0  0  0  0  0  0  0  0  0  0
  148.0436  130.6880  153.3267 C   0  0  0  0  0  0  0  0  0  0  0  0
  147.3096  131.3055  152.1978 N   0  3  1  0  0  0  0  0  0  0  0  0
  145.9413  130.7729  151.9868 C   0  0  0  0  0  0  0  0  0  0  0  0
  145.2685  131.4590  150.7834 C   0  0  0  0  0  0  0  0  0  0  0  0
  145.3600  132.9985  150.8351 C   0  0  0  0  0  0  0  0  0  0  0  0
  146.0553  133.5023  152.1093 C   0  0  0  0  0  0  0  0  0  0  0  0
  147.4069  132.7868  152.3355 C   0  0  1  0  0  0  0  0  0  0  0  0
  151.3712  136.0591  156.6492 C   0  0  0  0  0  0  0  0  0  0  0  0
  152.1723  136.6791  157.5403 N   0  0  0  0  0  0  0  0  0  0  0  0
  153.6261  138.3457  160.9173 H   0  0  0  0  0  0  0  0  0  0  0  0
  153.2353  136.8594  160.0206 H   0  0  0  0  0  0  0  0  0  0  0  0
  151.9839  138.0983  160.2775 H   0  0  0  0  0  0  0  0  0  0  0  0
  152.3187  139.7228  156.0246 H   0  0  0  0  0  0  0  0  0  0  0  0
  150.8644  138.5784  154.3899 H   0  0  0  0  0  0  0  0  0  0  0  0
  149.8639  136.2880  153.7256 H   0  0  0  0  0  0  0  0  0  0  0  0
  148.6971  134.9007  153.0118 H   0  0  0  0  0  0  0  0  0  0  0  0
  147.2228  133.0009  154.4843 H   0  0  0  0  0  0  0  0  0  0  0  0
  149.8291  131.9057  153.3851 H   0  0  0  0  0  0  0  0  0  0  0  0
  149.1349  131.6255  154.9857 H   0  0  0  0  0  0  0  0  0  0  0  0
  148.6426  129.8393  152.9956 H   0  0  0  0  0  0  0  0  0  0  0  0
  147.3377  130.3249  154.0757 H   0  0  0  0  0  0  0  0  0  0  0  0
  145.9908  129.6959  151.8223 H   0  0  0  0  0  0  0  0  0  0  0  0
  145.3441  130.9250  152.8873 H   0  0  0  0  0  0  0  0  0  0  0  0
  145.7330  131.1064  149.8617 H   0  0  0  0  0  0  0  0  0  0  0  0
  144.2240  131.1506  150.7285 H   0  0  0  0  0  0  0  0  0  0  0  0
  145.9121  133.3530  149.9639 H   0  0  0  0  0  0  0  0  0  0  0  0
  144.3643  133.4367  150.7590 H   0  0  0  0  0  0  0  0  0  0  0  0
  146.2060  134.5803  152.0459 H   0  0  0  0  0  0  0  0  0  0  0  0
  145.3978  133.3408  152.9648 H   0  0  0  0  0  0  0  0  0  0  0  0
  148.1144  133.1134  151.5713 H   0  0  0  0  0  0  0  0  0  0  0  0
  151.1333  135.0285  156.8700 H   0  0  0  0  0  0  0  0  0  0  0  0
  147.8294  131.0806  151.3615 H   0  0  0  0  0  0  0  0  0  0  0  0
  1  2  1  0  0  0  0
  1 24  1  0  0  0  0
  1 25  1  0  0  0  0
  1 26  1  0  0  0  0
  2  3  2  0  0  0  0
  2  4  2  0  0  0  0
  2  5  1  0  0  0  0
  5 23  1  0  0  0  0
  5  6  2  0  0  0  0
  6  7  1  0  0  0  0
  6 27  1  0  0  0  0
  7  8  2  0  0  0  0
  7 28  1  0  0  0  0
  8  9  1  0  0  0  0
  8 22  1  0  0  0  0
  9 10  1  0  0  0  0
  9 29  1  0  0  0  0
 10 11  2  0  0  0  0
 10 12  1  0  0  0  0
 12 13  1  0  0  0  0
 12 30  1  0  0  0  0
 13 21  1  0  0  0  0
 13 14  1  0  0  0  0
 13 31  1  0  0  0  0
 14 15  1  0  0  0  0
 14 32  1  0  0  0  0
 14 33  1  0  0  0  0
 15 16  1  0  0  0  0
 15 34  1  0  0  0  0
 15 35  1  0  0  0  0
 16 21  1  0  0  0  0
 16 17  1  0  0  0  0
 16 46  1  0  0  0  0
 17 18  1  0  0  0  0
 17 36  1  0  0  0  0
 17 37  1  0  0  0  0
 18 19  1  0  0  0  0
 18 38  1  0  0  0  0
 18 39  1  0  0  0  0
 19 20  1  0  0  0  0
 19 40  1  0  0  0  0
 19 41  1  0  0  0  0
 20 21  1  0  0  0  0
 20 42  1  0  0  0  0
 20 43  1  0  0  0  0
 21 44  1  0  0  0  0
 22 23  2  0  0  0  0
 22 45  1  0  0  0  0
M  CHG  1  16   1
M  END
> <s_m_source_file>
AV-unprocessed.smi

> <i_m_source_file_index>
1738

> <i_lp_mmshare_version>
43012

> <i_f3d_flags>
0

> <s_epik_input>
W0NIM11TKD1PKSg9TyljMVtjSF1bY0hdYyhbY0hdbjEpW05IXUMoPU8pW05IXVtDQEhdKFtDSDJdW0NIMl0yKVtDQEBIXShOMjMpW0NIMl1bQ0gyXVtDSDJdW0NIMl0z

> <s_epik_cmdline>
J2VwaWtfcHl0aG9uJywgJy1waCcsICc3LjAnLCAnLXRuJywgJzgnLCAnLW1hJywgJzIwMCcsICctbWV0YWxfYmluZGluZycsICctaW1hZScsICc8aW5maWxlLm1hZT4nLCAnLW9tYWUnLCAnPG91dGZpbGUubWFlPic=

> <r_epik_Ionization_Penalty>
0.00100042

> <r_epik_Ionization_Penalty_Charging>
0.000974069

> <r_epik_Ionization_Penalty_Neutral>
2.63543e-05

> <r_epik_State_Penalty>
0.000633842

> <r_epik_Charging_Adjusted_Penalty>
0.00160791

> <i_epik_Tot_Q>
1

> <i_epik_Tot_abs_Q>
1

> <r_epik_Metal_State_Penalty>
-0

> <b_epik_Metal_Only>
0

> <s_lp_Force_Field>
OPLS_2005

> <r_lp_Energy>
42.6432

> <b_lp_Chiralities_Consistent>
1

> <s_lp_Variant>
AV-unprocessed.smi:1738-1

> <Gold.Version>
5.8.1

> <Gold.Id.Protein>
6NUR|6NUR_protein|mol2

> <Gold.PLP.Fitness>
45.3970

> <Gold.PLP.PLP>
-34.5812

> <Gold.PLP.part.hbond>
-5.0294

> <Gold.PLP.part.metal>
0.0000

> <Gold.PLP.part.buried>
-3.5193

> <Gold.PLP.part.nonpolar>
-26.4318

> <Gold.PLP.part.repulsive>
0.0851

> <Gold.PLP.ligand.clash>
0.0000

> <Gold.PLP.ligand.torsion>
1.2348

> <Gold.PLP.Chemscore.Hbond>
3.7520

> <Gold.PLP.Chemscore.CHOScore>
0.0000

> <Gold.PLP.Chemscore.Metal>
0.0000

> <Gold.Chemscore.Hbonds>
donor molecule, donor type, donor heavy atom, donor atom, acceptor molecule, acceptor atom, score
      L1  H     9    29       P1  7948  0.99
      L1  H    12    30       P1  7948  1.00
      L1  H    16    46       P1 10747  1.00
      P1  H  7997  8008       L1     4  0.75

> <Gold.PLP.Chemscore.Internal.Correction>
2.0294

> <Gold.Rescore>
     Score         DG    S(hbond)    S(metal)    S(lipo)     H(rot)  DE(clash)    DE(int)     intcor
     18.75     -22.28       3.17        0.00      74.89       1.00       0.00       3.53       ----

> <Gold.Chemscore.Fitness>
18.7457

> <Gold.Chemscore.DG>
-22.2801

> <Gold.Chemscore.ZeroCoef>
-5.4800

> <Gold.Chemscore.Hbond>
3.1732

> <Gold.Chemscore.Metal>
0.0000

> <Gold.Chemscore.Lipo>
74.8857

> <Gold.Chemscore.Internal_Hbond>
0.0000

> <Gold.Chemscore.DEClash>
0.0000

> <Gold.Chemscore.DEInternal>
3.5344

> <Gold.Chemscore.Rot>
1.0000

> <Gold.Chemscore.Internal.Correction>
   9.000000E+99

> <Gold.Chemscore.Hbonds>
donor molecule, donor type, donor heavy atom, donor atom, acceptor molecule, acceptor atom, score
      L1  H     9    29       P1  7948  0.23
      L1  H    12    30       P1  7948  0.35
      L1  H    16    46       P1 10747  0.98
      P1  H  7997  8008       L1     4  0.19

> <Gold.Chemscore.Hbond.Weighted>
-10.5985

> <Gold.Chemscore.Metal.Weighted>
-0.0000

> <Gold.Chemscore.Lipo.Weighted>
-8.7616

> <Gold.Chemscore.Internal_Hbond.Weighted>
0.0000

> <Gold.Chemscore.DEClash.Weighted>
0.0000

> <Gold.Chemscore.DEInternal.Weighted>
3.5344

> <Gold.Chemscore.Rot.Weighted>
2.5600

> <Gold.Chemscore.Internal.Correction.Weighted>
   9.000000E+99

> <Gold.Protein.RotatedTorsions>
[ 6907 6896 6895 6894 ] final -131.13 input  -60.11 | X-H torsion
[ 7974 7965 7964 7962 ] final   36.53 input  175.53 | X-H torsion
[ 8008 7997 7996 7995 ] final -143.87 input   59.86 | X-H torsion
[ 10167 10162 10161 10158 ] final  105.13 input  -65.29 | X-H torsion
[ 10718 10713 10712 10709 ] final  -47.69 input   66.30 | X-H torsion
[ 10763 10752 10751 10750 ] final  -58.50 input  -60.55 | X-H torsion
[ 11005 11000 10999 10996 ] final   58.09 input  -57.11 | X-H torsion

> <Gold.Protein.ActiveResidues>
 VAL166  LYS551  ARG553  GLY616  TRP617  ASP618  TYR619  PRO620  LYS621  CYS622 
 ASP623  PHE694  ASN695  SER759  ASP760  ASP761  ALA762  ILE779  LEU786  VAL792 
 PHE793  MET794  SER795  GLU796  ALA797  LYS798  CYS799  TRP800  GLU811  SER814 

> <Gold.Protein.RotatedAtoms>
  150.9475  133.6587  159.2778 H   0  0  0  0  0  0  0  0  0  0  0  0  # atno 6907 bound_to 6896
  151.3955  135.0961  159.9549 H   0  0  0  0  0  0  0  0  0  0  0  0  # atno 6908 bound_to 6896
  152.5096  133.8980  159.7481 H   0  0  0  0  0  0  0  0  0  0  0  0  # atno 6909 bound_to 6896
  146.1204  139.6006  142.9293 H   0  0  0  0  0  0  0  0  0  0  0  0  # atno 7974 bound_to 7965
  155.5177  140.0589  157.2912 H   0  0  0  0  0  0  0  0  0  0  0  0  # atno 8008 bound_to 7997
  154.4529  140.1958  156.0413 H   0  0  0  0  0  0  0  0  0  0  0  0  # atno 8009 bound_to 7997
  156.0740  140.3256  155.7615 H   0  0  0  0  0  0  0  0  0  0  0  0  # atno 8010 bound_to 7997
  139.7118  144.7076  151.1014 H   0  0  0  0  0  0  0  0  0  0  0  0  # atno 10167 bound_to 10162
  156.2060  130.4158  149.9177 H   0  0  0  0  0  0  0  0  0  0  0  0  # atno 10718 bound_to 10713
  154.2391  135.6347  153.5201 H   0  0  0  0  0  0  0  0  0  0  0  0  # atno 10763 bound_to 10752
  152.9933  135.5538  154.5930 H   0  0  0  0  0  0  0  0  0  0  0  0  # atno 10764 bound_to 10752
  154.5431  135.2896  155.1052 H   0  0  0  0  0  0  0  0  0  0  0  0  # atno 10765 bound_to 10752
  140.0403  134.5882  155.9390 H   0  0  0  0  0  0  0  0  0  0  0  0  # atno 11005 bound_to 11000
  145.5477  141.0416  143.2296 LP  0  0  0  0  0  0  0  0  0  0  0  0  # atno 17320 bound_to 7965
  144.7592  139.6998  143.7241 LP  0  0  0  0  0  0  0  0  0  0  0  0  # atno 17321 bound_to 7965
  140.7735  143.5283  150.9454 LP  0  0  0  0  0  0  0  0  0  0  0  0  # atno 17342 bound_to 10162
  139.8968  143.6885  152.3137 LP  0  0  0  0  0  0  0  0  0  0  0  0  # atno 17343 bound_to 10162
  156.6871  130.8881  151.3583 LP  0  0  0  0  0  0  0  0  0  0  0  0  # atno 17370 bound_to 10713
  157.7012  130.9335  150.0792 LP  0  0  0  0  0  0  0  0  0  0  0  0  # atno 17371 bound_to 10713
  141.1879  133.6561  156.5304 LP  0  0  0  0  0  0  0  0  0  0  0  0  # atno 17394 bound_to 11000
  140.4079  134.7298  157.4819 LP  0  0  0  0  0  0  0  0  0  0  0  0  # atno 17395 bound_to 11000

$$$$
