AV-unprocessed.smi:2542|AV-procd|sdf|9992|dock6
  -GOLD-   2272014 43D 1   1.00000     0.00000
 Structure written by MMmdl.
 42 43  0  0  0  0  0  0  0  0  2 V2000
  153.3825  142.1491  161.6946 C   0  0  0  0  0  0  0  0  0  0  0  0
  153.1204  141.7369  160.2307 C   0  0  0  0  0  0  0  0  0  0  0  0
  154.4941  141.7168  159.5166 C   0  0  0  0  0  0  0  0  0  0  0  0
  152.5285  140.3011  160.2141 C   0  0  0  0  0  0  0  0  0  0  0  0
  152.5521  139.7021  158.8812 N   0  0  0  0  0  0  0  0  0  0  0  0
  151.5686  138.9804  158.3190 C   0  0  0  0  0  0  0  0  0  0  0  0
  150.4807  138.8036  158.8683 O   0  0  0  0  0  0  0  0  0  0  0  0
  151.8574  138.3503  156.9389 C   0  0  0  0  0  0  0  0  0  0  0  0
  152.9324  137.3376  157.0000 C   0  0  0  0  0  0  0  0  0  0  0  0
  153.7742  136.5437  157.0448 N   0  0  0  0  0  0  0  0  0  0  0  0
  150.5960  137.7166  156.3227 C   0  0  0  0  0  0  0  0  0  0  0  0
  150.8462  137.6926  154.8107 C   0  0  0  0  0  0  0  0  0  0  0  0
  151.8625  138.8079  154.5320 C   0  0  0  0  0  0  0  0  0  0  0  0
  152.2035  139.4251  155.8941 C   0  0  0  0  0  0  0  0  0  0  0  0
  152.1314  142.7289  159.5847 C   0  0  0  0  0  0  0  0  0  0  0  0
  152.3638  144.1286  159.5489 C   0  0  0  0  0  0  0  0  0  0  0  0
  151.4321  144.9783  158.9186 C   0  0  0  0  0  0  0  0  0  0  0  0
  150.3227  144.4607  158.3518 N   0  3  0  0  0  0  0  0  0  0  0  0
  150.0514  143.1393  158.3592 C   0  0  0  0  0  0  0  0  0  0  0  0
  150.9476  142.2429  158.9749 C   0  0  0  0  0  0  0  0  0  0  0  0
  154.0967  141.4777  162.1732 H   0  0  0  0  0  0  0  0  0  0  0  0
  152.4744  142.1288  162.2971 H   0  0  0  0  0  0  0  0  0  0  0  0
  153.7924  143.1581  161.7542 H   0  0  0  0  0  0  0  0  0  0  0  0
  155.1718  141.0033  159.9870 H   0  0  0  0  0  0  0  0  0  0  0  0
  154.9819  142.6915  159.5552 H   0  0  0  0  0  0  0  0  0  0  0  0
  154.4110  141.4276  158.4688 H   0  0  0  0  0  0  0  0  0  0  0  0
  153.0345  139.6668  160.9440 H   0  0  0  0  0  0  0  0  0  0  0  0
  151.4843  140.3230  160.5270 H   0  0  0  0  0  0  0  0  0  0  0  0
  153.4083  139.8101  158.3565 H   0  0  0  0  0  0  0  0  0  0  0  0
  150.3995  136.7179  156.7147 H   0  0  0  0  0  0  0  0  0  0  0  0
  149.7081  138.3190  156.5209 H   0  0  0  0  0  0  0  0  0  0  0  0
  151.2657  136.7302  154.5151 H   0  0  0  0  0  0  0  0  0  0  0  0
  149.9211  137.8318  154.2503 H   0  0  0  0  0  0  0  0  0  0  0  0
  152.7573  138.3856  154.0731 H   0  0  0  0  0  0  0  0  0  0  0  0
  151.4670  139.5574  153.8458 H   0  0  0  0  0  0  0  0  0  0  0  0
  151.5985  140.3218  156.0404 H   0  0  0  0  0  0  0  0  0  0  0  0
  153.2493  139.7312  155.9461 H   0  0  0  0  0  0  0  0  0  0  0  0
  153.2428  144.5745  159.9879 H   0  0  0  0  0  0  0  0  0  0  0  0
  151.5428  146.0507  158.8494 H   0  0  0  0  0  0  0  0  0  0  0  0
  149.1342  142.8405  157.8731 H   0  0  0  0  0  0  0  0  0  0  0  0
  150.7233  141.1866  158.9681 H   0  0  0  0  0  0  0  0  0  0  0  0
  149.6631  145.0939  157.8988 H   0  0  0  0  0  0  0  0  0  0  0  0
  1  2  1  0  0  0  0
  1 21  1  0  0  0  0
  1 22  1  0  0  0  0
  1 23  1  0  0  0  0
  2  3  1  0  0  0  0
  2  4  1  0  0  0  0
  2 15  1  0  0  0  0
  3 24  1  0  0  0  0
  3 25  1  0  0  0  0
  3 26  1  0  0  0  0
  4  5  1  0  0  0  0
  4 27  1  0  0  0  0
  4 28  1  0  0  0  0
  5  6  1  0  0  0  0
  5 29  1  0  0  0  0
  6  7  2  0  0  0  0
  6  8  1  0  0  0  0
  8 14  1  0  0  0  0
  8  9  1  0  0  0  0
  8 11  1  0  0  0  0
  9 10  3  0  0  0  0
 11 12  1  0  0  0  0
 11 30  1  0  0  0  0
 11 31  1  0  0  0  0
 12 13  1  0  0  0  0
 12 32  1  0  0  0  0
 12 33  1  0  0  0  0
 13 14  1  0  0  0  0
 13 34  1  0  0  0  0
 13 35  1  0  0  0  0
 14 36  1  0  0  0  0
 14 37  1  0  0  0  0
 15 20  1  0  0  0  0
 15 16  2  0  0  0  0
 16 17  1  0  0  0  0
 16 38  1  0  0  0  0
 17 18  2  0  0  0  0
 17 39  1  0  0  0  0
 18 19  1  0  0  0  0
 18 42  1  0  0  0  0
 19 20  2  0  0  0  0
 19 40  1  0  0  0  0
 20 41  1  0  0  0  0
M  CHG  1  18   1
M  END
> <s_m_source_file>
AV-unprocessed.smi

> <i_m_source_file_index>
2542

> <i_lp_mmshare_version>
43012

> <i_f3d_flags>
0

> <s_epik_input>
W2NIXTFbY0hdbltjSF1bY0hdYzFDKFtDSDNdKShbQ0gzXSlbQ0gyXVtOSF1DKD1PKUMyKEMjTilbQ0gyXVtDSDJdW0NIMl1bQ0gyXTI=

> <s_epik_cmdline>
J2VwaWtfcHl0aG9uJywgJy1waCcsICc3LjAnLCAnLXRuJywgJzgnLCAnLW1hJywgJzIwMCcsICctbWV0YWxfYmluZGluZycsICctaW1hZScsICc8aW5maWxlLm1hZT4nLCAnLW9tYWUnLCAnPG91dGZpbGUubWFlPic=

> <r_epik_Ionization_Penalty>
1.51272

> <r_epik_Ionization_Penalty_Charging>
1.51272

> <r_epik_Ionization_Penalty_Neutral>
6.26824e-07

> <r_epik_State_Penalty>
1.60388

> <r_epik_Charging_Adjusted_Penalty>
3.1166

> <i_epik_Tot_Q>
1

> <i_epik_Tot_abs_Q>
1

> <r_epik_Metal_State_Penalty>
1.64935

> <b_epik_Metal_Only>
0

> <s_lp_Force_Field>
OPLS_2005

> <r_lp_Energy>
37.2322

> <b_lp_Chiralities_Consistent>
1

> <s_lp_Variant>
AV-unprocessed.smi:2542-2

> <Gold.Version>
5.8.1

> <Gold.Id.Protein>
6NUR|6NUR_protein|mol2

> <Gold.PLP.Fitness>
42.9759

> <Gold.PLP.PLP>
-36.2467

> <Gold.PLP.part.hbond>
-3.1333

> <Gold.PLP.part.metal>
0.0000

> <Gold.PLP.part.buried>
-5.1255

> <Gold.PLP.part.nonpolar>
-29.5980

> <Gold.PLP.part.repulsive>
0.2242

> <Gold.PLP.ligand.clash>
0.0000

> <Gold.PLP.ligand.torsion>
0.4016

> <Gold.PLP.Chemscore.Hbond>
2.4869

> <Gold.PLP.Chemscore.CHOScore>
0.0000

> <Gold.PLP.Chemscore.Metal>
0.0000

> <Gold.Chemscore.Hbonds>
donor molecule, donor type, donor heavy atom, donor atom, acceptor molecule, acceptor atom, score
      L1  H    18    42       P1  8029  1.37
      P1  H 10752 10763       L1    10  0.98

> <Gold.PLP.Chemscore.Internal.Correction>
0.0718

> <Gold.Rescore>
     Score         DG    S(hbond)    S(metal)    S(lipo)     H(rot)  DE(clash)    DE(int)     intcor
     17.71     -20.66       1.67        0.00     116.19       1.56       1.75       1.20       ----

> <Gold.Chemscore.Fitness>
17.7147

> <Gold.Chemscore.DG>
-20.6617

> <Gold.Chemscore.ZeroCoef>
-5.4800

> <Gold.Chemscore.Hbond>
1.6747

> <Gold.Chemscore.Metal>
0.0000

> <Gold.Chemscore.Lipo>
116.1896

> <Gold.Chemscore.Internal_Hbond>
0.0000

> <Gold.Chemscore.DEClash>
1.7508

> <Gold.Chemscore.DEInternal>
1.1962

> <Gold.Chemscore.Rot>
1.5649

> <Gold.Chemscore.Internal.Correction>
   9.000000E+99

> <Gold.Chemscore.Hbonds>
donor molecule, donor type, donor heavy atom, donor atom, acceptor molecule, acceptor atom, score
      L1  H    18    42       P1  8029  0.07
      P1  H 10752 10763       L1    10  0.66

> <Gold.Chemscore.Hbond.Weighted>
-5.5936

> <Gold.Chemscore.Metal.Weighted>
-0.0000

> <Gold.Chemscore.Lipo.Weighted>
-13.5942

> <Gold.Chemscore.Internal_Hbond.Weighted>
0.0000

> <Gold.Chemscore.DEClash.Weighted>
1.7508

> <Gold.Chemscore.DEInternal.Weighted>
1.1962

> <Gold.Chemscore.Rot.Weighted>
4.0061

> <Gold.Chemscore.Internal.Correction.Weighted>
   9.000000E+99

> <Gold.Protein.RotatedTorsions>
[ 6907 6896 6895 6894 ] final -166.75 input  -60.11 | X-H torsion
[ 7974 7965 7964 7962 ] final  -16.31 input  175.53 | X-H torsion
[ 8008 7997 7996 7995 ] final  -37.16 input   59.86 | X-H torsion
[ 10167 10162 10161 10158 ] final -118.97 input  -65.29 | X-H torsion
[ 10718 10713 10712 10709 ] final  -32.49 input   66.30 | X-H torsion
[ 10763 10752 10751 10750 ] final  128.07 input  -60.55 | X-H torsion
[ 11005 11000 10999 10996 ] final   30.73 input  -57.11 | X-H torsion

> <Gold.Protein.ActiveResidues>
 VAL166  LYS551  ARG553  GLY616  TRP617  ASP618  TYR619  PRO620  LYS621  CYS622 
 ASP623  PHE694  ASN695  SER759  ASP760  ASP761  ALA762  ILE779  LEU786  VAL792 
 PHE793  MET794  SER795  GLU796  ALA797  LYS798  CYS799  TRP800  GLU811  SER814 

> <Gold.Protein.RotatedAtoms>
  151.4485  133.3624  159.2791 H   0  0  0  0  0  0  0  0  0  0  0  0  # atno 6907 bound_to 6896
  150.9107  134.8525  159.7434 H   0  0  0  0  0  0  0  0  0  0  0  0  # atno 6908 bound_to 6896
  152.4931  134.4415  159.9597 H   0  0  0  0  0  0  0  0  0  0  0  0  # atno 6909 bound_to 6896
  146.1993  140.3619  142.8429 H   0  0  0  0  0  0  0  0  0  0  0  0  # atno 7974 bound_to 7965
  154.4059  140.1611  156.2491 H   0  0  0  0  0  0  0  0  0  0  0  0  # atno 8008 bound_to 7997
  155.9134  140.3426  155.6094 H   0  0  0  0  0  0  0  0  0  0  0  0  # atno 8009 bound_to 7997
  155.7308  140.0780  157.2280 H   0  0  0  0  0  0  0  0  0  0  0  0  # atno 8010 bound_to 7997
  140.0517  143.5054  152.2078 H   0  0  0  0  0  0  0  0  0  0  0  0  # atno 10167 bound_to 10162
  156.3742  130.4345  149.7520 H   0  0  0  0  0  0  0  0  0  0  0  0  # atno 10718 bound_to 10713
  153.7196  135.3255  155.3264 H   0  0  0  0  0  0  0  0  0  0  0  0  # atno 10763 bound_to 10752
  154.8360  135.4496  154.1231 H   0  0  0  0  0  0  0  0  0  0  0  0  # atno 10764 bound_to 10752
  153.2347  135.6964  153.7929 H   0  0  0  0  0  0  0  0  0  0  0  0  # atno 10765 bound_to 10752
  140.2913  134.2861  155.7775 H   0  0  0  0  0  0  0  0  0  0  0  0  # atno 11005 bound_to 11000
  144.8648  140.7190  143.6084 LP  0  0  0  0  0  0  0  0  0  0  0  0  # atno 17320 bound_to 7965
  145.3538  139.1699  143.4420 LP  0  0  0  0  0  0  0  0  0  0  0  0  # atno 17321 bound_to 7965
  139.5949  144.7563  151.3310 LP  0  0  0  0  0  0  0  0  0  0  0  0  # atno 17342 bound_to 10162
  140.7214  143.7126  150.7758 LP  0  0  0  0  0  0  0  0  0  0  0  0  # atno 17343 bound_to 10162
  156.4636  130.7963  151.2983 LP  0  0  0  0  0  0  0  0  0  0  0  0  # atno 17370 bound_to 10713
  157.7487  131.0058  150.3127 LP  0  0  0  0  0  0  0  0  0  0  0  0  # atno 17371 bound_to 10713
  141.2146  133.7587  156.9628 LP  0  0  0  0  0  0  0  0  0  0  0  0  # atno 17394 bound_to 11000
  140.1193  134.9427  157.2180 LP  0  0  0  0  0  0  0  0  0  0  0  0  # atno 17395 bound_to 11000

$$$$
