AV-unprocessed.smi:898|AV-procd|sdf|4083|dock6
  -GOLD-   22720 1573D 1   1.00000     0.00000
 Structure written by MMmdl.
 34 36  0  0  0  0  0  0  0  0  1 V2000
  145.4232  129.0566  152.0818 O   0  0  0  0  0  0  0  0  0  0  0  0
  146.4693  129.4930  151.6013 C   0  0  0  0  0  0  0  0  0  0  0  0
  147.5847  128.7745  151.3834 N   0  0  0  0  0  0  0  0  0  0  0  0
  147.8082  127.3958  151.6403 C   0  0  0  0  0  0  0  0  0  0  0  0
  147.4071  126.7709  152.7560 N   0  0  0  0  0  0  0  0  0  0  0  0
  147.7514  125.4264  152.7488 N   0  0  0  0  0  0  0  0  0  0  0  0
  148.4010  125.0738  151.6329 C   0  0  0  0  0  0  0  0  0  0  0  0
  148.8706  123.6774  151.3928 C   0  0  0  0  0  0  0  0  0  0  0  0
  147.8826  122.5658  151.1231 C   0  0  0  0  0  0  0  0  0  0  0  0
  148.6598  122.5813  152.4146 C   0  0  0  0  0  0  0  0  0  0  0  0
  148.6504  126.3820  150.4812 S   0  0  0  0  0  0  0  0  0  0  0  0
  146.6325  130.7684  151.2194 N   0  0  0  0  0  0  0  0  0  0  0  0
  145.6166  131.8140  151.3088 C   0  0  2  0  0  0  0  0  0  0  0  0
  145.0492  132.1281  149.9083 C   0  0  0  0  0  0  0  0  0  0  0  0
  143.9363  133.1881  149.9445 C   0  0  0  0  0  0  0  0  0  0  0  0
  144.4226  134.5309  150.5079 C   0  0  0  0  0  0  0  0  0  0  0  0
  144.9866  134.3579  152.2224 S   0  0  0  0  0  0  0  0  0  0  0  0
  146.2299  133.0618  151.9681 C   0  0  0  0  0  0  0  0  0  0  0  0
  148.3638  129.2703  150.9769 H   0  0  0  0  0  0  0  0  0  0  0  0
  149.8038  123.6773  150.8330 H   0  0  0  0  0  0  0  0  0  0  0  0
  146.8225  122.8077  151.1730 H   0  0  0  0  0  0  0  0  0  0  0  0
  148.1568  121.8207  150.3792 H   0  0  0  0  0  0  0  0  0  0  0  0
  149.4529  121.8455  152.5313 H   0  0  0  0  0  0  0  0  0  0  0  0
  148.1099  122.8204  153.3226 H   0  0  0  0  0  0  0  0  0  0  0  0
  147.5261  131.0379  150.8353 H   0  0  0  0  0  0  0  0  0  0  0  0
  144.8057  131.4596  151.9485 H   0  0  0  0  0  0  0  0  0  0  0  0
  145.8510  132.4625  149.2485 H   0  0  0  0  0  0  0  0  0  0  0  0
  144.6484  131.2173  149.4616 H   0  0  0  0  0  0  0  0  0  0  0  0
  143.5540  133.3406  148.9347 H   0  0  0  0  0  0  0  0  0  0  0  0
  143.0966  132.8222  150.5365 H   0  0  0  0  0  0  0  0  0  0  0  0
  145.2394  134.9249  149.9025 H   0  0  0  0  0  0  0  0  0  0  0  0
  143.6183  135.2664  150.4776 H   0  0  0  0  0  0  0  0  0  0  0  0
  146.6606  132.8082  152.9374 H   0  0  0  0  0  0  0  0  0  0  0  0
  147.0372  133.4635  151.3543 H   0  0  0  0  0  0  0  0  0  0  0  0
  1  2  2  0  0  0  0
  2  3  1  0  0  0  0
  2 12  1  0  0  0  0
  3  4  1  0  0  0  0
  3 19  1  0  0  0  0
  4 11  1  0  0  0  0
  4  5  2  0  0  0  0
  5  6  1  0  0  0  0
  6  7  2  0  0  0  0
  7  8  1  0  0  0  0
  7 11  1  0  0  0  0
  8 10  1  0  0  0  0
  8  9  1  0  0  0  0
  8 20  1  0  0  0  0
  9 10  1  0  0  0  0
  9 21  1  0  0  0  0
  9 22  1  0  0  0  0
 10 23  1  0  0  0  0
 10 24  1  0  0  0  0
 12 13  1  0  0  0  0
 12 25  1  0  0  0  0
 13 18  1  0  0  0  0
 13 14  1  0  0  0  0
 13 26  1  0  0  0  0
 14 15  1  0  0  0  0
 14 27  1  0  0  0  0
 14 28  1  0  0  0  0
 15 16  1  0  0  0  0
 15 29  1  0  0  0  0
 15 30  1  0  0  0  0
 16 17  1  0  0  0  0
 16 31  1  0  0  0  0
 16 32  1  0  0  0  0
 17 18  1  0  0  0  0
 18 33  1  0  0  0  0
 18 34  1  0  0  0  0
M  END
> <s_m_source_file>
AV-unprocessed.smi

> <i_m_source_file_index>
898

> <i_lp_mmshare_version>
43012

> <i_f3d_flags>
0

> <s_epik_input>
W0NIMl0xU1tDSDJdW0NIMl1bQ0gyXVtDQEhdMVtOSF1DKD1PKVtOSF1jMm5uYyhzMilbQ0hdM1tDSDJdW0NIMl0z

> <s_epik_cmdline>
J2VwaWtfcHl0aG9uJywgJy1waCcsICc3LjAnLCAnLXRuJywgJzgnLCAnLW1hJywgJzIwMCcsICctbWV0YWxfYmluZGluZycsICctaW1hZScsICc8aW5maWxlLm1hZT4nLCAnLW9tYWUnLCAnPG91dGZpbGUubWFlPic=

> <r_lp_tautomer_probability>
1

> <r_epik_Ionization_Penalty>
0.000291725

> <r_epik_Ionization_Penalty_Charging>
0

> <r_epik_Ionization_Penalty_Neutral>
0.000291725

> <r_epik_State_Penalty>
-0

> <r_epik_Charging_Adjusted_Penalty>
0

> <i_epik_Tot_Q>
0

> <i_epik_Tot_abs_Q>
0

> <r_epik_Metal_State_Penalty>
0.160962

> <b_epik_Metal_Only>
0

> <s_lp_Force_Field>
OPLS_2005

> <r_lp_Energy>
2.16534

> <b_lp_Chiralities_Consistent>
1

> <s_lp_Variant>
AV-unprocessed.smi:898-1

> <Gold.Version>
5.8.1

> <Gold.Id.Protein>
6NUR|6NUR_protein|mol2

> <Gold.PLP.Fitness>
38.9467

> <Gold.PLP.PLP>
-34.6429

> <Gold.PLP.part.hbond>
-3.5122

> <Gold.PLP.part.metal>
0.0000

> <Gold.PLP.part.buried>
-5.6913

> <Gold.PLP.part.nonpolar>
-26.6221

> <Gold.PLP.part.repulsive>
0.2923

> <Gold.PLP.ligand.clash>
0.0000

> <Gold.PLP.ligand.torsion>
0.5863

> <Gold.PLP.Chemscore.Hbond>
1.7808

> <Gold.PLP.Chemscore.CHOScore>
0.0000

> <Gold.PLP.Chemscore.Metal>
0.0000

> <Gold.Chemscore.Hbonds>
donor molecule, donor type, donor heavy atom, donor atom, acceptor molecule, acceptor atom, score
      L1  H     3    19       P1 10747  0.78
      L1  H    12    25       P1 10747  1.00

> <Gold.PLP.Chemscore.Internal.Correction>
0.1339

> <Gold.Rescore>
     Score         DG    S(hbond)    S(metal)    S(lipo)     H(rot)  DE(clash)    DE(int)     intcor
     13.39     -15.17       1.48        0.00      66.81       1.20       1.18       0.59       ----

> <Gold.Chemscore.Fitness>
13.3936

> <Gold.Chemscore.DG>
-15.1688

> <Gold.Chemscore.ZeroCoef>
-5.4800

> <Gold.Chemscore.Hbond>
1.4839

> <Gold.Chemscore.Metal>
0.0000

> <Gold.Chemscore.Lipo>
66.8132

> <Gold.Chemscore.Internal_Hbond>
0.0000

> <Gold.Chemscore.DEClash>
1.1821

> <Gold.Chemscore.DEInternal>
0.5930

> <Gold.Chemscore.Rot>
1.2050

> <Gold.Chemscore.Internal.Correction>
   9.000000E+99

> <Gold.Chemscore.Hbonds>
donor molecule, donor type, donor heavy atom, donor atom, acceptor molecule, acceptor atom, score
      L1  H     3    19       P1 10747  0.11
      L1  H    12    25       P1 10747  0.95

> <Gold.Chemscore.Hbond.Weighted>
-4.9563

> <Gold.Chemscore.Metal.Weighted>
-0.0000

> <Gold.Chemscore.Lipo.Weighted>
-7.8171

> <Gold.Chemscore.Internal_Hbond.Weighted>
0.0000

> <Gold.Chemscore.DEClash.Weighted>
1.1821

> <Gold.Chemscore.DEInternal.Weighted>
0.5930

> <Gold.Chemscore.Rot.Weighted>
3.0847

> <Gold.Chemscore.Internal.Correction.Weighted>
   9.000000E+99

> <Gold.Protein.RotatedTorsions>
[ 6907 6896 6895 6894 ] final  155.08 input  -60.11 | X-H torsion
[ 7974 7965 7964 7962 ] final -166.19 input  175.53 | X-H torsion
[ 8008 7997 7996 7995 ] final -153.07 input   59.86 | X-H torsion
[ 10167 10162 10161 10158 ] final  -52.33 input  -65.29 | X-H torsion
[ 10718 10713 10712 10709 ] final  -49.10 input   66.30 | X-H torsion
[ 10763 10752 10751 10750 ] final  -56.44 input  -60.55 | X-H torsion
[ 11005 11000 10999 10996 ] final  -39.54 input  -57.11 | X-H torsion

> <Gold.Protein.ActiveResidues>
 VAL166  LYS551  ARG553  GLY616  TRP617  ASP618  TYR619  PRO620  LYS621  CYS622 
 ASP623  PHE694  ASN695  SER759  ASP760  ASP761  ALA762  ILE779  LEU786  VAL792 
 PHE793  MET794  SER795  GLU796  ALA797  LYS798  CYS799  TRP800  GLU811  SER814 

> <Gold.Protein.RotatedAtoms>
  152.0494  133.4012  159.4370 H   0  0  0  0  0  0  0  0  0  0  0  0  # atno 6907 bound_to 6896
  150.6871  134.3325  159.4842 H   0  0  0  0  0  0  0  0  0  0  0  0  # atno 6908 bound_to 6896
  152.1134  134.9258  160.0616 H   0  0  0  0  0  0  0  0  0  0  0  0  # atno 6909 bound_to 6896
  144.7251  140.2703  143.6251 H   0  0  0  0  0  0  0  0  0  0  0  0  # atno 7974 bound_to 7965
  155.6651  140.0727  157.2540 H   0  0  0  0  0  0  0  0  0  0  0  0  # atno 8008 bound_to 7997
  154.4134  140.1709  156.1870 H   0  0  0  0  0  0  0  0  0  0  0  0  # atno 8009 bound_to 7997
  155.9664  140.3365  155.6539 H   0  0  0  0  0  0  0  0  0  0  0  0  # atno 8010 bound_to 7997
  140.6543  143.2588  151.4632 H   0  0  0  0  0  0  0  0  0  0  0  0  # atno 10167 bound_to 10162
  156.1925  130.4153  149.9351 H   0  0  0  0  0  0  0  0  0  0  0  0  # atno 10718 bound_to 10713
  154.2066  135.6402  153.5103 H   0  0  0  0  0  0  0  0  0  0  0  0  # atno 10763 bound_to 10752
  152.9999  135.5464  154.6259 H   0  0  0  0  0  0  0  0  0  0  0  0  # atno 10764 bound_to 10752
  154.5685  135.2915  155.0823 H   0  0  0  0  0  0  0  0  0  0  0  0  # atno 10765 bound_to 10752
  141.0109  133.6908  156.2200 H   0  0  0  0  0  0  0  0  0  0  0  0  # atno 11005 bound_to 11000
  145.8049  139.1979  143.2026 LP  0  0  0  0  0  0  0  0  0  0  0  0  # atno 17320 bound_to 7965
  146.0645  140.7935  142.9718 LP  0  0  0  0  0  0  0  0  0  0  0  0  # atno 17321 bound_to 7965
  139.5763  144.1812  152.1907 LP  0  0  0  0  0  0  0  0  0  0  0  0  # atno 17342 bound_to 10162
  140.1123  144.5446  150.6916 LP  0  0  0  0  0  0  0  0  0  0  0  0  # atno 17343 bound_to 10162
  156.7087  130.8961  151.3607 LP  0  0  0  0  0  0  0  0  0  0  0  0  # atno 17370 bound_to 10713
  157.6938  130.9260  150.0586 LP  0  0  0  0  0  0  0  0  0  0  0  0  # atno 17371 bound_to 10713
  140.6735  134.4843  157.5588 LP  0  0  0  0  0  0  0  0  0  0  0  0  # atno 17394 bound_to 11000
  139.9089  134.8387  156.1600 LP  0  0  0  0  0  0  0  0  0  0  0  0  # atno 17395 bound_to 11000

$$$$
