AV-unprocessed.smi:278|AV-procd|sdf|2089|dock8
  -GOLD-   2262021363D 1   1.00000     0.00000
 Structure written by MMmdl.
 50 54  0  0  0  0  0  0  0  0  1 V2000
  149.6598  143.2893  159.9927 O   0  0  0  0  0  0  0  0  0  0  0  0
  150.8296  144.1699  159.8490 S   0  0  0  0  0  0  0  0  0  0  0  0
  150.6712  145.6238  159.6955 O   0  0  0  0  0  0  0  0  0  0  0  0
  152.0107  143.8134  161.1925 C   0  0  0  0  0  0  0  0  0  0  0  0
  152.6940  142.5086  160.7656 C   0  0  0  0  0  0  0  0  0  0  0  0
  152.8553  142.4861  159.2238 C   0  0  1  0  0  0  0  0  0  0  0  0
  152.4713  141.1549  158.5673 C   0  0  0  0  0  0  0  0  0  0  0  0
  151.9380  141.5095  157.2616 N   0  0  0  0  0  0  0  0  0  0  0  0
  151.2627  140.5244  156.6319 C   0  0  0  0  0  0  0  0  0  0  0  0
  150.7942  140.8010  155.3906 N   0  0  0  0  0  0  0  0  0  0  0  0
  150.1190  139.8707  154.7084 C   0  0  0  0  0  0  0  0  0  0  0  0
  149.8097  138.6249  155.0753 N   0  0  0  0  0  0  0  0  0  0  0  0
  150.2800  138.3453  156.3248 C   0  0  0  0  0  0  0  0  0  0  0  0
  151.0113  139.2285  157.1677 C   0  0  0  0  0  0  0  0  0  0  0  0
  151.3216  138.5918  158.3640 N   0  0  0  0  0  0  0  0  0  0  0  0
  150.8012  137.4015  158.2363 C   0  0  0  0  0  0  0  0  0  0  0  0
  150.1565  137.1695  157.0424 N   0  0  0  0  0  0  0  0  0  0  0  0
  149.4936  135.9446  156.6310 C   0  0  0  0  0  0  0  0  0  0  0  0
  150.4754  134.9116  156.0437 C   0  0  2  0  0  0  0  0  0  0  0  0
  151.2217  135.5178  155.0053 O   0  0  0  0  0  0  0  0  0  0  0  0
  149.7524  133.6737  155.4812 C   0  0  1  0  0  0  0  0  0  0  0  0
  148.9797  133.9244  154.1876 C   0  0  0  0  0  0  0  0  0  0  0  0
  148.8328  132.5247  153.6270 C   0  0  0  0  0  0  0  0  0  0  0  0
  150.0824  131.8051  154.1407 C   0  0  0  0  0  0  0  0  0  0  0  0
  150.6911  132.6846  155.0820 O   0  0  0  0  0  0  0  0  0  0  0  0
  151.2096  142.7596  157.4223 C   0  0  0  0  0  0  0  0  0  0  0  0
  151.9363  143.5140  158.5431 C   0  0  1  0  0  0  0  0  0  0  0  0
  153.8850  142.7306  158.9595 H   0  0  0  0  0  0  0  0  0  0  0  0
  152.5280  144.3405  158.1483 H   0  0  0  0  0  0  0  0  0  0  0  0
  152.7297  144.6317  161.2389 H   0  0  0  0  0  0  0  0  0  0  0  0
  151.4911  143.7400  162.1479 H   0  0  0  0  0  0  0  0  0  0  0  0
  153.6509  142.3751  161.2707 H   0  0  0  0  0  0  0  0  0  0  0  0
  152.0601  141.6801  161.0833 H   0  0  0  0  0  0  0  0  0  0  0  0
  153.3335  140.4941  158.4721 H   0  0  0  0  0  0  0  0  0  0  0  0
  151.7150  140.6339  159.1546 H   0  0  0  0  0  0  0  0  0  0  0  0
  149.7777  140.1670  153.7274 H   0  0  0  0  0  0  0  0  0  0  0  0
  150.8722  136.6569  159.0157 H   0  0  0  0  0  0  0  0  0  0  0  0
  148.9840  135.5303  157.5017 H   0  0  0  0  0  0  0  0  0  0  0  0
  148.7179  136.1921  155.9049 H   0  0  0  0  0  0  0  0  0  0  0  0
  151.1743  134.5966  156.8198 H   0  0  0  0  0  0  0  0  0  0  0  0
  150.6631  135.6090  154.2486 H   0  0  0  0  0  0  0  0  0  0  0  0
  149.0882  133.2410  156.2319 H   0  0  0  0  0  0  0  0  0  0  0  0
  148.0214  134.4184  154.3507 H   0  0  0  0  0  0  0  0  0  0  0  0
  149.5689  134.5385  153.5050 H   0  0  0  0  0  0  0  0  0  0  0  0
  147.9380  132.0517  154.0336 H   0  0  0  0  0  0  0  0  0  0  0  0
  148.7556  132.5145  152.5395 H   0  0  0  0  0  0  0  0  0  0  0  0
  149.8221  130.8608  154.6196 H   0  0  0  0  0  0  0  0  0  0  0  0
  150.7862  131.5940  153.3353 H   0  0  0  0  0  0  0  0  0  0  0  0
  151.2311  143.3291  156.4929 H   0  0  0  0  0  0  0  0  0  0  0  0
  150.1639  142.5797  157.6688 H   0  0  0  0  0  0  0  0  0  0  0  0
  1  2  2  0  0  0  0
  2 27  1  0  0  0  0
  2  3  2  0  0  0  0
  2  4  1  0  0  0  0
  4  5  1  0  0  0  0
  4 30  1  0  0  0  0
  4 31  1  0  0  0  0
  5  6  1  0  0  0  0
  5 32  1  0  0  0  0
  5 33  1  0  0  0  0
  6 28  1  0  0  0  0
  6 27  1  0  0  0  0
  6  7  1  0  0  0  0
  7  8  1  0  0  0  0
  7 34  1  0  0  0  0
  7 35  1  0  0  0  0
  8  9  1  0  0  0  0
  8 26  1  0  0  0  0
  9 14  1  0  0  0  0
  9 10  2  0  0  0  0
 10 11  1  0  0  0  0
 11 12  2  0  0  0  0
 11 36  1  0  0  0  0
 12 13  1  0  0  0  0
 13 17  1  0  0  0  0
 13 14  2  0  0  0  0
 14 15  1  0  0  0  0
 15 16  2  0  0  0  0
 16 17  1  0  0  0  0
 16 37  1  0  0  0  0
 17 18  1  0  0  0  0
 18 19  1  0  0  0  0
 18 38  1  0  0  0  0
 18 39  1  0  0  0  0
 19 20  1  0  0  0  0
 19 21  1  0  0  0  0
 19 40  1  0  0  0  0
 20 41  1  0  0  0  0
 21 25  1  0  0  0  0
 21 22  1  0  0  0  0
 21 42  1  0  0  0  0
 22 23  1  0  0  0  0
 22 43  1  0  0  0  0
 22 44  1  0  0  0  0
 23 24  1  0  0  0  0
 23 45  1  0  0  0  0
 23 46  1  0  0  0  0
 24 25  1  0  0  0  0
 24 47  1  0  0  0  0
 24 48  1  0  0  0  0
 26 27  1  0  0  0  0
 26 49  1  0  0  0  0
 26 50  1  0  0  0  0
 27 29  1  0  0  0  0
M  END
> <s_m_source_file>
AV-unprocessed.smi

> <i_m_source_file_index>
278

> <i_lp_mmshare_version>
43012

> <i_f3d_flags>
0

> <s_epik_input>
W0NIMl0xW0NIMl1TKD1PKSg9TylbQ0BASF0oW0NAQEhdMTIpW0NIMl1OKFtDSDJdMiljKG5bY0hdbjMpYyhjMzQpbltjSF1uNFtDSDJdW0NASF0oW09IXSlbQ0BASF01W0NIMl1bQ0gyXVtDSDJdTzU=

> <s_epik_cmdline>
J2VwaWtfcHl0aG9uJywgJy1waCcsICc3LjAnLCAnLXRuJywgJzgnLCAnLW1hJywgJzIwMCcsICctbWV0YWxfYmluZGluZycsICctaW1hZScsICc8aW5maWxlLm1hZT4nLCAnLW9tYWUnLCAnPG91dGZpbGUubWFlPic=

> <r_lp_tautomer_probability>
1

> <r_epik_Ionization_Penalty>
0.000636766

> <r_epik_Ionization_Penalty_Charging>
0

> <r_epik_Ionization_Penalty_Neutral>
0.000636766

> <r_epik_State_Penalty>
0.000329976

> <r_epik_Charging_Adjusted_Penalty>
0.000329976

> <i_epik_Tot_Q>
0

> <i_epik_Tot_abs_Q>
0

> <r_epik_Metal_State_Penalty>
-0

> <b_epik_Metal_Only>
0

> <s_lp_Force_Field>
OPLS_2005

> <r_lp_Energy>
53.1939

> <b_lp_Chiralities_Consistent>
1

> <s_lp_Variant>
AV-unprocessed.smi:278-3

> <Gold.Version>
5.8.1

> <Gold.Id.Protein>
6NUR|6NUR_protein|mol2

> <Gold.PLP.Fitness>
48.1595

> <Gold.PLP.PLP>
-42.6174

> <Gold.PLP.part.hbond>
-5.0000

> <Gold.PLP.part.metal>
0.0000

> <Gold.PLP.part.buried>
-2.0016

> <Gold.PLP.part.nonpolar>
-35.7432

> <Gold.PLP.part.repulsive>
0.5214

> <Gold.PLP.ligand.clash>
0.0000

> <Gold.PLP.ligand.torsion>
0.4454

> <Gold.PLP.Chemscore.Hbond>
1.1238

> <Gold.PLP.Chemscore.CHOScore>
1.0000

> <Gold.PLP.Chemscore.Metal>
0.0000

> <Gold.Chemscore.Hbonds>
donor molecule, donor type, donor heavy atom, donor atom, acceptor molecule, acceptor atom, score
      P1  H  6933  6944       L1     1  0.13
      P1  H 10752 10764       L1    20  1.00
      L1  C    11    36       P1  7957  0.89

> <Gold.PLP.Chemscore.Internal.Correction>
0.0617

> <Gold.Rescore>
     Score         DG    S(hbond)    S(metal)    S(lipo)     H(rot)  DE(clash)    DE(int)     intcor
     11.85     -13.66       1.07        0.00      93.30       2.46       0.06       1.75       ----

> <Gold.Chemscore.Fitness>
11.8542

> <Gold.Chemscore.DG>
-13.6594

> <Gold.Chemscore.ZeroCoef>
-5.4800

> <Gold.Chemscore.Hbond>
1.0690

> <Gold.Chemscore.Metal>
0.0000

> <Gold.Chemscore.Lipo>
93.2979

> <Gold.Chemscore.Internal_Hbond>
0.0000

> <Gold.Chemscore.DEClash>
0.0590

> <Gold.Chemscore.DEInternal>
1.7461

> <Gold.Chemscore.Rot>
2.4636

> <Gold.Chemscore.Internal.Correction>
   9.000000E+99

> <Gold.Chemscore.Hbonds>
donor molecule, donor type, donor heavy atom, donor atom, acceptor molecule, acceptor atom, score
      P1  H  6933  6944       L1     1  0.13
      P1  H 10752 10764       L1    20  0.87

> <Gold.Chemscore.Hbond.Weighted>
-3.5703

> <Gold.Chemscore.Metal.Weighted>
-0.0000

> <Gold.Chemscore.Lipo.Weighted>
-10.9159

> <Gold.Chemscore.Internal_Hbond.Weighted>
0.0000

> <Gold.Chemscore.DEClash.Weighted>
0.0590

> <Gold.Chemscore.DEInternal.Weighted>
1.7461

> <Gold.Chemscore.Rot.Weighted>
6.3068

> <Gold.Chemscore.Internal.Correction.Weighted>
   9.000000E+99

> <Gold.Protein.RotatedTorsions>
[ 6907 6896 6895 6894 ] final  123.66 input  -60.11 | X-H torsion
[ 7974 7965 7964 7962 ] final -137.30 input  175.53 | X-H torsion
[ 8008 7997 7996 7995 ] final   69.93 input   59.86 | X-H torsion
[ 10167 10162 10161 10158 ] final  -54.43 input  -65.29 | X-H torsion
[ 10718 10713 10712 10709 ] final   23.00 input   66.30 | X-H torsion
[ 10763 10752 10751 10750 ] final  -55.84 input  -60.55 | X-H torsion
[ 11005 11000 10999 10996 ] final -112.03 input  -57.11 | X-H torsion

> <Gold.Protein.ActiveResidues>
 VAL166  LYS551  ARG553  GLY616  TRP617  ASP618  TYR619  PRO620  LYS621  CYS622 
 ASP623  PHE694  ASN695  SER759  ASP760  ASP761  ALA762  ILE779  LEU786  VAL792 
 PHE793  MET794  SER795  GLU796  ALA797  LYS798  CYS799  TRP800  GLU811  SER814 

> <Gold.Protein.RotatedAtoms>
  152.4143  133.7013  159.6425 H   0  0  0  0  0  0  0  0  0  0  0  0  # atno 6907 bound_to 6896
  150.8021  133.8567  159.3229 H   0  0  0  0  0  0  0  0  0  0  0  0  # atno 6908 bound_to 6896
  151.6301  135.1025  160.0171 H   0  0  0  0  0  0  0  0  0  0  0  0  # atno 6909 bound_to 6896
  144.8853  140.6566  143.5180 H   0  0  0  0  0  0  0  0  0  0  0  0  # atno 7974 bound_to 7965
  155.7311  140.3492  155.5060 H   0  0  0  0  0  0  0  0  0  0  0  0  # atno 8008 bound_to 7997
  155.9182  140.1062  157.1249 H   0  0  0  0  0  0  0  0  0  0  0  0  # atno 8009 bound_to 7997
  154.4066  140.1255  156.4632 H   0  0  0  0  0  0  0  0  0  0  0  0  # atno 8010 bound_to 7997
  140.6431  143.2519  151.4934 H   0  0  0  0  0  0  0  0  0  0  0  0  # atno 10167 bound_to 10162
  157.1601  130.6713  149.6041 H   0  0  0  0  0  0  0  0  0  0  0  0  # atno 10718 bound_to 10713
  154.1971  135.6417  153.5076 H   0  0  0  0  0  0  0  0  0  0  0  0  # atno 10763 bound_to 10752
  153.0021  135.5442  154.6354 H   0  0  0  0  0  0  0  0  0  0  0  0  # atno 10764 bound_to 10752
  154.5758  135.2921  155.0755 H   0  0  0  0  0  0  0  0  0  0  0  0  # atno 10765 bound_to 10752
  141.0699  133.9396  157.2504 H   0  0  0  0  0  0  0  0  0  0  0  0  # atno 11005 bound_to 11000
  145.3880  139.1622  143.4245 LP  0  0  0  0  0  0  0  0  0  0  0  0  # atno 17320 bound_to 7965
  146.3020  140.3966  142.8700 LP  0  0  0  0  0  0  0  0  0  0  0  0  # atno 17321 bound_to 7965
  139.5641  144.2086  152.1737 LP  0  0  0  0  0  0  0  0  0  0  0  0  # atno 17342 bound_to 10162
  140.1362  144.5243  150.6772 LP  0  0  0  0  0  0  0  0  0  0  0  0  # atno 17343 bound_to 10162
  155.9755  130.4714  150.6465 LP  0  0  0  0  0  0  0  0  0  0  0  0  # atno 17370 bound_to 10713
  157.4140  131.0827  151.1194 LP  0  0  0  0  0  0  0  0  0  0  0  0  # atno 17371 bound_to 10713
  139.9513  135.0175  156.9003 LP  0  0  0  0  0  0  0  0  0  0  0  0  # atno 17394 bound_to 11000
  140.5694  134.0458  155.7425 LP  0  0  0  0  0  0  0  0  0  0  0  0  # atno 17395 bound_to 11000

$$$$
