AV-unprocessed.smi:2156|AV-procd|sdf|8779|dock5
  -GOLD-   2272011563D 1   1.00000     0.00000
 Structure written by MMmdl.
 34 34  0  0  0  0  0  0  0  0  1 V2000
  152.4605  144.3387  158.6515 C   0  0  0  0  0  0  0  0  0  0  0  0
  152.5876  143.4652  159.9043 C   0  0  0  0  0  0  0  0  0  0  0  0
  153.1550  142.0689  159.5946 C   0  0  0  0  0  0  0  0  0  0  0  0
  152.1261  141.0904  158.9929 C   0  0  2  0  0  0  0  0  0  0  0  0
  152.7179  139.6846  158.8218 C   0  0  0  0  0  0  0  0  0  0  0  0
  151.6523  141.5685  157.6949 N   0  0  0  0  0  0  0  0  0  0  0  0
  150.7194  140.9807  156.9290 C   0  0  0  0  0  0  0  0  0  0  0  0
  150.1307  139.9478  157.2515 O   0  0  0  0  0  0  0  0  0  0  0  0
  150.3896  141.6952  155.6106 C   0  0  0  0  0  0  0  0  0  0  0  0
  149.4394  140.9514  154.7708 N   0  0  0  0  0  0  0  0  0  0  0  0
  148.1700  141.4592  154.5327 C   0  0  0  0  0  0  0  0  0  0  0  0
  147.2420  140.8233  153.7792 C   0  0  0  0  0  0  0  0  0  0  0  0
  147.5454  139.5348  153.1658 C   0  0  0  0  0  0  0  0  0  0  0  0
  146.7732  138.8833  152.4661 O   0  0  0  0  0  0  0  0  0  0  0  0
  148.8309  139.0556  153.4315 N   0  0  0  0  0  0  0  0  0  0  0  0
  149.7914  139.7049  154.2086 C   0  0  0  0  0  0  0  0  0  0  0  0
  150.8955  139.1908  154.3842 O   0  0  0  0  0  0  0  0  0  0  0  0
  149.0854  138.1650  153.0300 H   0  0  0  0  0  0  0  0  0  0  0  0
  152.0621  145.3216  158.9030 H   0  0  0  0  0  0  0  0  0  0  0  0
  151.7898  143.8845  157.9218 H   0  0  0  0  0  0  0  0  0  0  0  0
  153.4289  144.4853  158.1723 H   0  0  0  0  0  0  0  0  0  0  0  0
  153.2298  143.9671  160.6288 H   0  0  0  0  0  0  0  0  0  0  0  0
  151.6066  143.3769  160.3712 H   0  0  0  0  0  0  0  0  0  0  0  0
  154.0072  142.1645  158.9202 H   0  0  0  0  0  0  0  0  0  0  0  0
  153.5480  141.6413  160.5181 H   0  0  0  0  0  0  0  0  0  0  0  0
  151.2899  141.0039  159.6890 H   0  0  0  0  0  0  0  0  0  0  0  0
  153.0539  139.2810  159.7775 H   0  0  0  0  0  0  0  0  0  0  0  0
  153.5733  139.6920  158.1454 H   0  0  0  0  0  0  0  0  0  0  0  0
  151.9777  138.9939  158.4170 H   0  0  0  0  0  0  0  0  0  0  0  0
  152.0725  142.4190  157.3487 H   0  0  0  0  0  0  0  0  0  0  0  0
  149.9866  142.6798  155.8515 H   0  0  0  0  0  0  0  0  0  0  0  0
  151.3109  141.8892  155.0575 H   0  0  0  0  0  0  0  0  0  0  0  0
  147.8993  142.4090  154.9714 H   0  0  0  0  0  0  0  0  0  0  0  0
  146.2694  141.2698  153.6308 H   0  0  0  0  0  0  0  0  0  0  0  0
  1  2  1  0  0  0  0
  1 19  1  0  0  0  0
  1 20  1  0  0  0  0
  1 21  1  0  0  0  0
  2  3  1  0  0  0  0
  2 22  1  0  0  0  0
  2 23  1  0  0  0  0
  3  4  1  0  0  0  0
  3 24  1  0  0  0  0
  3 25  1  0  0  0  0
  4  5  1  0  0  0  0
  4  6  1  0  0  0  0
  4 26  1  0  0  0  0
  5 27  1  0  0  0  0
  5 28  1  0  0  0  0
  5 29  1  0  0  0  0
  6  7  1  0  0  0  0
  6 30  1  0  0  0  0
  7  8  2  0  0  0  0
  7  9  1  0  0  0  0
  9 10  1  0  0  0  0
  9 31  1  0  0  0  0
  9 32  1  0  0  0  0
 10 16  1  0  0  0  0
 10 11  1  0  0  0  0
 11 12  2  0  0  0  0
 11 33  1  0  0  0  0
 12 13  1  0  0  0  0
 12 34  1  0  0  0  0
 13 14  2  0  0  0  0
 13 15  1  0  0  0  0
 15 18  1  0  0  0  0
 15 16  1  0  0  0  0
 16 17  2  0  0  0  0
M  END
> <s_m_source_file>
AV-unprocessed.smi

> <i_m_source_file_index>
2156

> <i_lp_mmshare_version>
43012

> <i_f3d_flags>
0

> <s_epik_input>
W0NIM11bQ0gyXVtDSDJdW0NASF0oW0NIM10pW05IXUMoPU8pW0NIMl1uMVtjSF1bY0hdYyg9TylbbkhdYzE9Tw==

> <s_epik_cmdline>
J2VwaWtfcHl0aG9uJywgJy1waCcsICc3LjAnLCAnLXRuJywgJzgnLCAnLW1hJywgJzIwMCcsICctbWV0YWxfYmluZGluZycsICctaW1hZScsICc8aW5maWxlLm1hZT4nLCAnLW9tYWUnLCAnPG91dGZpbGUubWFlPic=

> <r_lp_tautomer_probability>
0.999537

> <r_epik_Ionization_Penalty>
0.00324917

> <r_epik_Ionization_Penalty_Charging>
0.00324916

> <r_epik_Ionization_Penalty_Neutral>
1.93017e-08

> <r_epik_State_Penalty>
0.00229371

> <r_epik_Charging_Adjusted_Penalty>
0.00554286

> <i_epik_Tot_Q>
0

> <i_epik_Tot_abs_Q>
0

> <r_epik_Metal_State_Penalty>
0.364744

> <b_epik_Metal_Only>
0

> <s_lp_Force_Field>
OPLS_2005

> <r_lp_Energy>
3.31869

> <b_lp_Chiralities_Consistent>
1

> <s_lp_Variant>
AV-unprocessed.smi:2156-1

> <Gold.Version>
5.8.1

> <Gold.Id.Protein>
6NUR|6NUR_protein|mol2

> <Gold.PLP.Fitness>
40.7173

> <Gold.PLP.PLP>
-35.9425

> <Gold.PLP.part.hbond>
-2.1031

> <Gold.PLP.part.metal>
0.0000

> <Gold.PLP.part.buried>
-2.2060

> <Gold.PLP.part.nonpolar>
-31.4776

> <Gold.PLP.part.repulsive>
0.6003

> <Gold.PLP.ligand.clash>
0.0000

> <Gold.PLP.ligand.torsion>
0.1594

> <Gold.PLP.Chemscore.Hbond>
0.6874

> <Gold.PLP.Chemscore.CHOScore>
0.9995

> <Gold.PLP.Chemscore.Metal>
0.0000

> <Gold.Chemscore.Hbonds>
donor molecule, donor type, donor heavy atom, donor atom, acceptor molecule, acceptor atom, score
      L1  H    15    18       P1  7948  0.50
      P1  H  7989  7998       L1    17  0.30
      L1  C    11    33       P1  8028  0.88

> <Gold.PLP.Chemscore.Internal.Correction>
0.0328

> <Gold.Rescore>
     Score         DG    S(hbond)    S(metal)    S(lipo)     H(rot)  DE(clash)    DE(int)     intcor
     11.32     -11.88       0.99        0.00      74.43       2.19       0.23       0.32       ----

> <Gold.Chemscore.Fitness>
11.3224

> <Gold.Chemscore.DG>
-11.8803

> <Gold.Chemscore.ZeroCoef>
-5.4800

> <Gold.Chemscore.Hbond>
0.9914

> <Gold.Chemscore.Metal>
0.0000

> <Gold.Chemscore.Lipo>
74.4257

> <Gold.Chemscore.Internal_Hbond>
0.0000

> <Gold.Chemscore.DEClash>
0.2348

> <Gold.Chemscore.DEInternal>
0.3230

> <Gold.Chemscore.Rot>
2.1949

> <Gold.Chemscore.Internal.Correction>
   9.000000E+99

> <Gold.Chemscore.Hbonds>
donor molecule, donor type, donor heavy atom, donor atom, acceptor molecule, acceptor atom, score
      L1  H    15    18       P1  7948  0.49

> <Gold.Chemscore.Hbond.Weighted>
-3.3113

> <Gold.Chemscore.Metal.Weighted>
-0.0000

> <Gold.Chemscore.Lipo.Weighted>
-8.7078

> <Gold.Chemscore.Internal_Hbond.Weighted>
0.0000

> <Gold.Chemscore.DEClash.Weighted>
0.2348

> <Gold.Chemscore.DEInternal.Weighted>
0.3230

> <Gold.Chemscore.Rot.Weighted>
5.6188

> <Gold.Chemscore.Internal.Correction.Weighted>
   9.000000E+99

> <Gold.Protein.RotatedTorsions>
[ 6907 6896 6895 6894 ] final -171.83 input  -60.11 | X-H torsion
[ 7974 7965 7964 7962 ] final  -37.96 input  175.53 | X-H torsion
[ 8008 7997 7996 7995 ] final  100.78 input   59.86 | X-H torsion
[ 10167 10162 10161 10158 ] final -149.32 input  -65.29 | X-H torsion
[ 10718 10713 10712 10709 ] final  168.52 input   66.30 | X-H torsion
[ 10763 10752 10751 10750 ] final  -73.62 input  -60.55 | X-H torsion
[ 11005 11000 10999 10996 ] final  -51.90 input  -57.11 | X-H torsion

> <Gold.Protein.ActiveResidues>
 VAL166  LYS551  ARG553  GLY616  TRP617  ASP618  TYR619  PRO620  LYS621  CYS622 
 ASP623  PHE694  ASN695  SER759  ASP760  ASP761  ALA762  ILE779  LEU786  VAL792 
 PHE793  MET794  SER795  GLU796  ALA797  LYS798  CYS799  TRP800  GLU811  SER814 

> <Gold.Protein.RotatedAtoms>
  151.5301  133.3450  159.2916 H   0  0  0  0  0  0  0  0  0  0  0  0  # atno 6907 bound_to 6896
  150.8599  134.7950  159.7085 H   0  0  0  0  0  0  0  0  0  0  0  0  # atno 6908 bound_to 6896
  152.4621  134.5168  159.9822 H   0  0  0  0  0  0  0  0  0  0  0  0  # atno 6909 bound_to 6896
  146.0528  140.6457  142.9034 H   0  0  0  0  0  0  0  0  0  0  0  0  # atno 7974 bound_to 7965
  156.1236  140.3208  155.8244 H   0  0  0  0  0  0  0  0  0  0  0  0  # atno 8008 bound_to 7997
  155.4460  140.0529  157.3023 H   0  0  0  0  0  0  0  0  0  0  0  0  # atno 8009 bound_to 7997
  154.4846  140.2067  155.9699 H   0  0  0  0  0  0  0  0  0  0  0  0  # atno 8010 bound_to 7997
  139.7452  143.8601  152.2573 H   0  0  0  0  0  0  0  0  0  0  0  0  # atno 10167 bound_to 10162
  157.0359  131.0273  151.2729 H   0  0  0  0  0  0  0  0  0  0  0  0  # atno 10718 bound_to 10713
  154.4620  135.5891  153.6262 H   0  0  0  0  0  0  0  0  0  0  0  0  # atno 10763 bound_to 10752
  152.9824  135.6046  154.3474 H   0  0  0  0  0  0  0  0  0  0  0  0  # atno 10764 bound_to 10752
  154.3347  135.2842  155.2433 H   0  0  0  0  0  0  0  0  0  0  0  0  # atno 10765 bound_to 10752
  141.0896  133.6635  156.3946 H   0  0  0  0  0  0  0  0  0  0  0  0  # atno 11005 bound_to 11000
  144.7132  140.4115  143.7064 LP  0  0  0  0  0  0  0  0  0  0  0  0  # atno 17320 bound_to 7965
  145.6695  139.1596  143.2763 LP  0  0  0  0  0  0  0  0  0  0  0  0  # atno 17321 bound_to 7965
  139.8563  144.7139  150.9153 LP  0  0  0  0  0  0  0  0  0  0  0  0  # atno 17342 bound_to 10162
  140.7791  143.3856  151.1400 LP  0  0  0  0  0  0  0  0  0  0  0  0  # atno 17343 bound_to 10162
  157.5141  130.7957  149.7737 LP  0  0  0  0  0  0  0  0  0  0  0  0  # atno 17370 bound_to 10713
  156.0054  130.3858  150.2451 LP  0  0  0  0  0  0  0  0  0  0  0  0  # atno 17371 bound_to 10713
  140.5283  134.6237  157.5341 LP  0  0  0  0  0  0  0  0  0  0  0  0  # atno 17394 bound_to 11000
  139.9719  134.7278  156.0024 LP  0  0  0  0  0  0  0  0  0  0  0  0  # atno 17395 bound_to 11000

$$$$
