AV-unprocessed.smi:527|AV-procd|sdf|2820|dock9
  -GOLD-   2262023303D 1   1.00000     0.00000
 Structure written by MMmdl.
 42 43  0  0  0  0  0  0  0  0  1 V2000
  144.0278  132.9449  149.4165 C   0  0  0  0  0  0  0  0  0  0  0  0
  144.6269  132.8354  150.8311 C   0  0  1  0  0  0  0  0  0  0  0  0
  145.4334  131.5263  150.9472 C   0  0  0  0  0  0  0  0  0  0  0  0
  146.0285  131.3449  152.3476 C   0  0  0  0  0  0  0  0  0  0  0  0
  146.9159  132.5376  152.7145 C   0  0  0  0  0  0  0  0  0  0  0  0
  146.1371  133.8646  152.6261 C   0  0  1  0  0  0  0  0  0  0  0  0
  147.0344  134.9747  152.9446 N   0  0  0  0  0  0  0  0  0  0  0  0
  146.9404  135.7663  154.0232 C   0  0  0  0  0  0  0  0  0  0  0  0
  146.1980  135.5252  154.9776 O   0  0  0  0  0  0  0  0  0  0  0  0
  147.7530  136.8348  153.9093 N   0  0  0  0  0  0  0  0  0  0  0  0
  147.9222  137.8382  154.7946 C   0  0  0  0  0  0  0  0  0  0  0  0
  147.3440  137.9247  155.8812 O   0  0  0  0  0  0  0  0  0  0  0  0
  148.9162  138.9210  154.3530 C   0  0  0  0  0  0  0  0  0  0  0  0
  150.2948  138.5970  154.6793 N   0  0  0  0  0  0  0  0  0  0  0  0
  151.1902  139.3727  155.4054 C   0  0  0  0  0  0  0  0  0  0  0  0
  152.3678  138.6620  155.4641 C   0  0  0  0  0  0  0  0  0  0  0  0
  152.2218  137.4552  154.7842 N   0  0  0  0  0  0  0  0  0  0  0  0
  150.9688  137.4864  154.3493 C   0  0  0  0  0  0  0  0  0  0  0  0
  145.4935  134.0654  151.2267 C   0  0  2  0  0  0  0  0  0  0  0  0
  144.6867  135.3817  151.1728 C   0  0  0  0  0  0  0  0  0  0  0  0
  144.8040  133.0998  148.6666 H   0  0  0  0  0  0  0  0  0  0  0  0
  143.3144  133.7645  149.3375 H   0  0  0  0  0  0  0  0  0  0  0  0
  143.4888  132.0356  149.1495 H   0  0  0  0  0  0  0  0  0  0  0  0
  143.7944  132.7704  151.5334 H   0  0  0  0  0  0  0  0  0  0  0  0
  144.7952  130.6726  150.7161 H   0  0  0  0  0  0  0  0  0  0  0  0
  146.2353  131.5191  150.2076 H   0  0  0  0  0  0  0  0  0  0  0  0
  145.2268  131.2409  153.0798 H   0  0  0  0  0  0  0  0  0  0  0  0
  146.6092  130.4231  152.3893 H   0  0  0  0  0  0  0  0  0  0  0  0
  147.3103  132.3971  153.7216 H   0  0  0  0  0  0  0  0  0  0  0  0
  147.7782  132.5682  152.0467 H   0  0  0  0  0  0  0  0  0  0  0  0
  145.3307  133.8402  153.3623 H   0  0  0  0  0  0  0  0  0  0  0  0
  147.7735  135.1600  152.2825 H   0  0  0  0  0  0  0  0  0  0  0  0
  148.2955  136.8948  153.0604 H   0  0  0  0  0  0  0  0  0  0  0  0
  148.8387  139.0711  153.2752 H   0  0  0  0  0  0  0  0  0  0  0  0
  148.6577  139.8669  154.8306 H   0  0  0  0  0  0  0  0  0  0  0  0
  150.9218  140.3367  155.8123 H   0  0  0  0  0  0  0  0  0  0  0  0
  153.3009  138.9235  155.9408 H   0  0  0  0  0  0  0  0  0  0  0  0
  150.5307  136.6814  153.7776 H   0  0  0  0  0  0  0  0  0  0  0  0
  146.3023  134.1477  150.4986 H   0  0  0  0  0  0  0  0  0  0  0  0
  143.8300  135.3466  151.8463 H   0  0  0  0  0  0  0  0  0  0  0  0
  144.3159  135.5905  150.1703 H   0  0  0  0  0  0  0  0  0  0  0  0
  145.2918  136.2426  151.4560 H   0  0  0  0  0  0  0  0  0  0  0  0
  1  2  1  0  0  0  0
  1 21  1  0  0  0  0
  1 22  1  0  0  0  0
  1 23  1  0  0  0  0
  2 19  1  0  0  0  0
  2  3  1  0  0  0  0
  2 24  1  0  0  0  0
  3  4  1  0  0  0  0
  3 25  1  0  0  0  0
  3 26  1  0  0  0  0
  4  5  1  0  0  0  0
  4 27  1  0  0  0  0
  4 28  1  0  0  0  0
  5  6  1  0  0  0  0
  5 29  1  0  0  0  0
  5 30  1  0  0  0  0
  6  7  1  0  0  0  0
  6 19  1  0  0  0  0
  6 31  1  0  0  0  0
  7  8  1  0  0  0  0
  7 32  1  0  0  0  0
  8  9  2  0  0  0  0
  8 10  1  0  0  0  0
 10 11  1  0  0  0  0
 10 33  1  0  0  0  0
 11 12  2  0  0  0  0
 11 13  1  0  0  0  0
 13 14  1  0  0  0  0
 13 34  1  0  0  0  0
 13 35  1  0  0  0  0
 14 18  1  0  0  0  0
 14 15  1  0  0  0  0
 15 16  2  0  0  0  0
 15 36  1  0  0  0  0
 16 17  1  0  0  0  0
 16 37  1  0  0  0  0
 17 18  2  0  0  0  0
 18 38  1  0  0  0  0
 19 20  1  0  0  0  0
 19 39  1  0  0  0  0
 20 40  1  0  0  0  0
 20 41  1  0  0  0  0
 20 42  1  0  0  0  0
M  END
> <s_m_source_file>
AV-unprocessed.smi

> <i_m_source_file_index>
527

> <i_lp_mmshare_version>
43012

> <i_f3d_flags>
0

> <s_epik_input>
W0NIM11bQ0BASF0xW0NIMl1bQ0gyXVtDSDJdW0NASF0oW0NASF0xW0NIM10pW05IXUMoPU8pW05IXUMoPU8pW0NIMl1uMltjSF1bY0hdbltjSF0y

> <s_epik_cmdline>
J2VwaWtfcHl0aG9uJywgJy1waCcsICc3LjAnLCAnLXRuJywgJzgnLCAnLW1hJywgJzIwMCcsICctbWV0YWxfYmluZGluZycsICctaW1hZScsICc8aW5maWxlLm1hZT4nLCAnLW9tYWUnLCAnPG91dGZpbGUubWFlPic=

> <r_lp_tautomer_probability>
1

> <r_epik_Ionization_Penalty>
0.172132

> <r_epik_Ionization_Penalty_Charging>
0.172105

> <r_epik_Ionization_Penalty_Neutral>
2.71747e-05

> <r_epik_State_Penalty>
0.161503

> <r_epik_Charging_Adjusted_Penalty>
0.333607

> <i_epik_Tot_Q>
0

> <i_epik_Tot_abs_Q>
0

> <r_epik_Metal_State_Penalty>
0.124763

> <b_epik_Metal_Only>
0

> <s_lp_Force_Field>
OPLS_2005

> <r_lp_Energy>
15.9673

> <b_lp_Chiralities_Consistent>
1

> <s_lp_Variant>
AV-unprocessed.smi:527-6

> <Gold.Version>
5.8.1

> <Gold.Id.Protein>
6NUR|6NUR_protein|mol2

> <Gold.PLP.Fitness>
45.2988

> <Gold.PLP.PLP>
-35.0819

> <Gold.PLP.part.hbond>
-2.6980

> <Gold.PLP.part.metal>
0.0000

> <Gold.PLP.part.buried>
-4.4159

> <Gold.PLP.part.nonpolar>
-28.8037

> <Gold.PLP.part.repulsive>
0.1392

> <Gold.PLP.ligand.clash>
0.0000

> <Gold.PLP.ligand.torsion>
0.4392

> <Gold.PLP.Chemscore.Hbond>
2.6710

> <Gold.PLP.Chemscore.CHOScore>
1.0202

> <Gold.PLP.Chemscore.Metal>
0.0000

> <Gold.Chemscore.Hbonds>
donor molecule, donor type, donor heavy atom, donor atom, acceptor molecule, acceptor atom, score
      L1  H     7    32       P1  7948  0.93
      L1  H    10    33       P1  7948  0.96
      P1  H 10752 10765       L1    17  0.74
      L1  C    18    38       P1  7948  0.50
      L1  C    18    38       P1  7949  0.47

> <Gold.PLP.Chemscore.Internal.Correction>
0.0216

> <Gold.Rescore>
     Score         DG    S(hbond)    S(metal)    S(lipo)     H(rot)  DE(clash)    DE(int)     intcor
     17.34     -19.13       2.79        0.00      73.52       1.66       0.06       1.73       ----

> <Gold.Chemscore.Fitness>
17.3402

> <Gold.Chemscore.DG>
-19.1326

> <Gold.Chemscore.ZeroCoef>
-5.4800

> <Gold.Chemscore.Hbond>
2.7867

> <Gold.Chemscore.Metal>
0.0000

> <Gold.Chemscore.Lipo>
73.5212

> <Gold.Chemscore.Internal_Hbond>
0.0000

> <Gold.Chemscore.DEClash>
0.0605

> <Gold.Chemscore.DEInternal>
1.7319

> <Gold.Chemscore.Rot>
1.6629

> <Gold.Chemscore.Internal.Correction>
   9.000000E+99

> <Gold.Chemscore.Hbonds>
donor molecule, donor type, donor heavy atom, donor atom, acceptor molecule, acceptor atom, score
      L1  H     7    32       P1  7948  0.86
      L1  H    10    33       P1  7948  0.87
      P1  H 10752 10765       L1    17  0.54

> <Gold.Chemscore.Hbond.Weighted>
-9.3075

> <Gold.Chemscore.Metal.Weighted>
-0.0000

> <Gold.Chemscore.Lipo.Weighted>
-8.6020

> <Gold.Chemscore.Internal_Hbond.Weighted>
0.0000

> <Gold.Chemscore.DEClash.Weighted>
0.0605

> <Gold.Chemscore.DEInternal.Weighted>
1.7319

> <Gold.Chemscore.Rot.Weighted>
4.2569

> <Gold.Chemscore.Internal.Correction.Weighted>
   9.000000E+99

> <Gold.Protein.RotatedTorsions>
[ 6907 6896 6895 6894 ] final  162.42 input  -60.11 | X-H torsion
[ 7974 7965 7964 7962 ] final   79.16 input  175.53 | X-H torsion
[ 8008 7997 7996 7995 ] final  159.04 input   59.86 | X-H torsion
[ 10167 10162 10161 10158 ] final   83.05 input  -65.29 | X-H torsion
[ 10718 10713 10712 10709 ] final -163.71 input   66.30 | X-H torsion
[ 10763 10752 10751 10750 ] final  177.40 input  -60.55 | X-H torsion
[ 11005 11000 10999 10996 ] final   44.89 input  -57.11 | X-H torsion

> <Gold.Protein.ActiveResidues>
 VAL166  LYS551  ARG553  GLY616  TRP617  ASP618  TYR619  PRO620  LYS621  CYS622 
 ASP623  PHE694  ASN695  SER759  ASP760  ASP761  ALA762  ILE779  LEU786  VAL792 
 PHE793  MET794  SER795  GLU796  ALA797  LYS798  CYS799  TRP800  GLU811  SER814 

> <Gold.Protein.RotatedAtoms>
  151.9407  133.3637  159.3963 H   0  0  0  0  0  0  0  0  0  0  0  0  # atno 6907 bound_to 6896
  150.6999  134.4442  159.5315 H   0  0  0  0  0  0  0  0  0  0  0  0  # atno 6908 bound_to 6896
  152.2098  134.8511  160.0549 H   0  0  0  0  0  0  0  0  0  0  0  0  # atno 6909 bound_to 6896
  145.6677  139.2488  143.1886 H   0  0  0  0  0  0  0  0  0  0  0  0  # atno 7974 bound_to 7965
  156.2264  140.1842  156.7352 H   0  0  0  0  0  0  0  0  0  0  0  0  # atno 8008 bound_to 7997
  154.5949  140.0645  156.9317 H   0  0  0  0  0  0  0  0  0  0  0  0  # atno 8009 bound_to 7997
  155.2273  140.3312  155.4310 H   0  0  0  0  0  0  0  0  0  0  0  0  # atno 8010 bound_to 7997
  139.9224  144.6204  150.8426 H   0  0  0  0  0  0  0  0  0  0  0  0  # atno 10167 bound_to 10162
  156.6285  130.8920  151.2972 H   0  0  0  0  0  0  0  0  0  0  0  0  # atno 10718 bound_to 10713
  154.4939  135.2780  155.1474 H   0  0  0  0  0  0  0  0  0  0  0  0  # atno 10763 bound_to 10752
  154.3135  135.6224  153.5479 H   0  0  0  0  0  0  0  0  0  0  0  0  # atno 10764 bound_to 10752
  152.9892  135.5725  154.5367 H   0  0  0  0  0  0  0  0  0  0  0  0  # atno 10765 bound_to 10752
  140.1510  134.4462  155.8382 H   0  0  0  0  0  0  0  0  0  0  0  0  # atno 11005 bound_to 11000
  146.1071  140.7473  142.9521 LP  0  0  0  0  0  0  0  0  0  0  0  0  # atno 17320 bound_to 7965
  144.7067  140.3880  143.7112 LP  0  0  0  0  0  0  0  0  0  0  0  0  # atno 17321 bound_to 7965
  140.7659  143.3287  151.2458 LP  0  0  0  0  0  0  0  0  0  0  0  0  # atno 17342 bound_to 10162
  139.6850  143.9789  152.2829 LP  0  0  0  0  0  0  0  0  0  0  0  0  # atno 17343 bound_to 10162
  157.7207  130.9554  150.1427 LP  0  0  0  0  0  0  0  0  0  0  0  0  # atno 17370 bound_to 10713
  156.2253  130.3677  149.8507 LP  0  0  0  0  0  0  0  0  0  0  0  0  # atno 17371 bound_to 10713
  141.2199  133.6872  156.7421 LP  0  0  0  0  0  0  0  0  0  0  0  0  # atno 17394 bound_to 11000
  140.2605  134.8470  157.3754 LP  0  0  0  0  0  0  0  0  0  0  0  0  # atno 17395 bound_to 11000

$$$$
