AV-unprocessed.smi:3057|AV-procd|sdf|11661|dock9
  -GOLD-   2272017 63D 1   1.00000     0.00000
 Structure written by MMmdl.
 40 42  0  0  0  0  0  0  0  0  1 V2000
  149.8489  140.6634  158.3453 C   0  0  0  0  0  0  0  0  0  0  0  0
  151.1707  141.0044  157.6308 C   0  0  1  0  0  0  0  0  0  0  0  0
  151.9801  142.0541  158.4141 C   0  0  0  0  0  0  0  0  0  0  0  0
  152.9661  141.2308  159.2557 C   0  0  0  0  0  0  0  0  0  0  0  0
  153.0543  139.9294  158.4753 C   0  0  0  0  0  0  0  0  0  0  0  0
  153.9627  139.1133  158.6216 O   0  0  0  0  0  0  0  0  0  0  0  0
  152.0563  139.8565  157.5854 N   0  0  0  0  0  0  0  0  0  0  0  0
  151.9832  138.9732  156.4190 C   0  0  1  0  0  0  0  0  0  0  0  0
  151.4424  137.5907  156.8218 C   0  0  0  0  0  0  0  0  0  0  0  0
  151.9951  136.5588  156.4386 O   0  0  0  0  0  0  0  0  0  0  0  0
  150.3583  137.5913  157.6102 N   0  0  0  0  0  0  0  0  0  0  0  0
  149.6869  136.3941  158.0985 C   0  0  0  0  0  0  0  0  0  0  0  0
  148.2861  136.7391  158.6229 C   0  0  0  0  0  0  0  0  0  0  0  0
  148.0262  136.1602  160.0010 C   0  0  0  0  0  0  0  0  0  0  0  0
  148.0558  134.7653  160.2139 C   0  0  0  0  0  0  0  0  0  0  0  0
  147.8066  134.2795  161.5122 C   0  0  0  0  0  0  0  0  0  0  0  0
  147.5375  135.2018  162.5417 C   0  0  0  0  0  0  0  0  0  0  0  0
  147.5290  136.5751  162.2258 C   0  0  0  0  0  0  0  0  0  0  0  0
  147.7678  137.0514  160.9846 N   0  0  0  0  0  0  0  0  0  0  0  0
  151.0164  139.6507  155.4157 C   0  0  0  0  0  0  0  0  0  0  0  0
  150.8970  141.3968  155.8949 S   0  0  0  0  0  0  0  0  0  0  0  0
  150.0240  140.3093  159.3618 H   0  0  0  0  0  0  0  0  0  0  0  0
  149.2914  139.8890  157.8187 H   0  0  0  0  0  0  0  0  0  0  0  0
  149.2034  141.5399  158.4081 H   0  0  0  0  0  0  0  0  0  0  0  0
  152.5365  142.6983  157.7314 H   0  0  0  0  0  0  0  0  0  0  0  0
  151.3509  142.6995  159.0284 H   0  0  0  0  0  0  0  0  0  0  0  0
  153.9374  141.7169  159.3521 H   0  0  0  0  0  0  0  0  0  0  0  0
  152.5703  141.0277  160.2513 H   0  0  0  0  0  0  0  0  0  0  0  0
  152.9772  138.8873  155.9756 H   0  0  0  0  0  0  0  0  0  0  0  0
  149.9649  138.4812  157.8801 H   0  0  0  0  0  0  0  0  0  0  0  0
  149.6100  135.6556  157.2986 H   0  0  0  0  0  0  0  0  0  0  0  0
  150.2893  135.9495  158.8918 H   0  0  0  0  0  0  0  0  0  0  0  0
  148.1577  137.8218  158.6598 H   0  0  0  0  0  0  0  0  0  0  0  0
  147.5272  136.3636  157.9347 H   0  0  0  0  0  0  0  0  0  0  0  0
  148.2646  134.0824  159.4034 H   0  0  0  0  0  0  0  0  0  0  0  0
  147.8217  133.2187  161.7144 H   0  0  0  0  0  0  0  0  0  0  0  0
  147.3424  134.8651  163.5490 H   0  0  0  0  0  0  0  0  0  0  0  0
  147.3257  137.3102  162.9905 H   0  0  0  0  0  0  0  0  0  0  0  0
  151.3621  139.5567  154.3864 H   0  0  0  0  0  0  0  0  0  0  0  0
  150.0108  139.2293  155.4638 H   0  0  0  0  0  0  0  0  0  0  0  0
  1  2  1  0  0  0  0
  1 22  1  0  0  0  0
  1 23  1  0  0  0  0
  1 24  1  0  0  0  0
  2  7  1  0  0  0  0
  2 21  1  0  0  0  0
  2  3  1  0  0  0  0
  3  4  1  0  0  0  0
  3 25  1  0  0  0  0
  3 26  1  0  0  0  0
  4  5  1  0  0  0  0
  4 27  1  0  0  0  0
  4 28  1  0  0  0  0
  5  6  2  0  0  0  0
  5  7  1  0  0  0  0
  7  8  1  0  0  0  0
  8  9  1  0  0  0  0
  8 20  1  0  0  0  0
  8 29  1  0  0  0  0
  9 10  2  0  0  0  0
  9 11  1  0  0  0  0
 11 12  1  0  0  0  0
 11 30  1  0  0  0  0
 12 13  1  0  0  0  0
 12 31  1  0  0  0  0
 12 32  1  0  0  0  0
 13 14  1  0  0  0  0
 13 33  1  0  0  0  0
 13 34  1  0  0  0  0
 14 19  1  0  0  0  0
 14 15  2  0  0  0  0
 15 16  1  0  0  0  0
 15 35  1  0  0  0  0
 16 17  2  0  0  0  0
 16 36  1  0  0  0  0
 17 18  1  0  0  0  0
 17 37  1  0  0  0  0
 18 19  2  0  0  0  0
 18 38  1  0  0  0  0
 20 21  1  0  0  0  0
 20 39  1  0  0  0  0
 20 40  1  0  0  0  0
M  END
> <s_m_source_file>
AV-unprocessed.smi

> <i_m_source_file_index>
3057

> <i_lp_mmshare_version>
43012

> <i_f3d_flags>
0

> <s_epik_input>
W0NIMl0xW0NIMl1DKD1PKU4oW0NAQF0xMltDSDNdKVtDQEhdKFtDSDJdUzIpQyg9TylbTkhdW0NIMl1bQ0gyXWMzW2NIXVtjSF1bY0hdW2NIXW4z

> <s_epik_cmdline>
J2VwaWtfcHl0aG9uJywgJy1waCcsICc3LjAnLCAnLXRuJywgJzgnLCAnLW1hJywgJzIwMCcsICctbWV0YWxfYmluZGluZycsICctaW1hZScsICc8aW5maWxlLm1hZT4nLCAnLW9tYWUnLCAnPG91dGZpbGUubWFlPic=

> <r_epik_Ionization_Penalty>
0.0249631

> <r_epik_Ionization_Penalty_Charging>
0

> <r_epik_Ionization_Penalty_Neutral>
0.0249631

> <r_epik_State_Penalty>
0.0202943

> <r_epik_Charging_Adjusted_Penalty>
0.0202943

> <i_epik_Tot_Q>
0

> <i_epik_Tot_abs_Q>
0

> <r_epik_Metal_State_Penalty>
0.0194661

> <b_epik_Metal_Only>
0

> <s_lp_Force_Field>
OPLS_2005

> <r_lp_Energy>
25.4312

> <b_lp_Chiralities_Consistent>
1

> <s_lp_Variant>
AV-unprocessed.smi:3057-1

> <Gold.Version>
5.8.1

> <Gold.Id.Protein>
6NUR|6NUR_protein|mol2

> <Gold.PLP.Fitness>
41.6795

> <Gold.PLP.PLP>
-35.3784

> <Gold.PLP.part.hbond>
-3.8150

> <Gold.PLP.part.metal>
0.0000

> <Gold.PLP.part.buried>
-2.7382

> <Gold.PLP.part.nonpolar>
-27.5384

> <Gold.PLP.part.repulsive>
0.0423

> <Gold.PLP.ligand.clash>
0.0000

> <Gold.PLP.ligand.torsion>
0.7149

> <Gold.PLP.Chemscore.Hbond>
2.5730

> <Gold.PLP.Chemscore.CHOScore>
0.0000

> <Gold.PLP.Chemscore.Metal>
0.0000

> <Gold.Chemscore.Hbonds>
donor molecule, donor type, donor heavy atom, donor atom, acceptor molecule, acceptor atom, score
      P1  H  6931  6943       L1    19  0.24
      P1  H  6934  6947       L1    19  0.83
      P1  H  7997  8009       L1     6  0.66
      P1  H 10752 10763       L1    10  0.80

> <Gold.PLP.Chemscore.Internal.Correction>
0.0118

> <Gold.Rescore>
     Score         DG    S(hbond)    S(metal)    S(lipo)     H(rot)  DE(clash)    DE(int)     intcor
     16.43     -17.30       1.62        0.00      88.21       1.53       0.11       0.76       ----

> <Gold.Chemscore.Fitness>
16.4254

> <Gold.Chemscore.DG>
-17.2951

> <Gold.Chemscore.ZeroCoef>
-5.4800

> <Gold.Chemscore.Hbond>
1.6231

> <Gold.Chemscore.Metal>
0.0000

> <Gold.Chemscore.Lipo>
88.2114

> <Gold.Chemscore.Internal_Hbond>
0.0000

> <Gold.Chemscore.DEClash>
0.1065

> <Gold.Chemscore.DEInternal>
0.7631

> <Gold.Chemscore.Rot>
1.5339

> <Gold.Chemscore.Internal.Correction>
   9.000000E+99

> <Gold.Chemscore.Hbonds>
donor molecule, donor type, donor heavy atom, donor atom, acceptor molecule, acceptor atom, score
      P1  H  6934  6947       L1    19  0.51
      P1  H  7997  8009       L1     6  0.08
      P1  H 10752 10763       L1    10  0.78

> <Gold.Chemscore.Hbond.Weighted>
-5.4211

> <Gold.Chemscore.Metal.Weighted>
-0.0000

> <Gold.Chemscore.Lipo.Weighted>
-10.3207

> <Gold.Chemscore.Internal_Hbond.Weighted>
0.0000

> <Gold.Chemscore.DEClash.Weighted>
0.1065

> <Gold.Chemscore.DEInternal.Weighted>
0.7631

> <Gold.Chemscore.Rot.Weighted>
3.9267

> <Gold.Chemscore.Internal.Correction.Weighted>
   9.000000E+99

> <Gold.Protein.RotatedTorsions>
[ 6907 6896 6895 6894 ] final  107.88 input  -60.11 | X-H torsion
[ 7974 7965 7964 7962 ] final -106.35 input  175.53 | X-H torsion
[ 8008 7997 7996 7995 ] final  111.20 input   59.86 | X-H torsion
[ 10167 10162 10161 10158 ] final  -50.50 input  -65.29 | X-H torsion
[ 10718 10713 10712 10709 ] final  177.93 input   66.30 | X-H torsion
[ 10763 10752 10751 10750 ] final   82.37 input  -60.55 | X-H torsion
[ 11005 11000 10999 10996 ] final -134.35 input  -57.11 | X-H torsion

> <Gold.Protein.ActiveResidues>
 VAL166  LYS551  ARG553  GLY616  TRP617  ASP618  TYR619  PRO620  LYS621  CYS622 
 ASP623  PHE694  ASN695  SER759  ASP760  ASP761  ALA762  ILE779  LEU786  VAL792 
 PHE793  MET794  SER795  GLU796  ALA797  LYS798  CYS799  TRP800  GLU811  SER814 

> <Gold.Protein.RotatedAtoms>
  152.5136  133.9171  159.7515 H   0  0  0  0  0  0  0  0  0  0  0  0  # atno 6907 bound_to 6896
  150.9551  133.6498  159.2771 H   0  0  0  0  0  0  0  0  0  0  0  0  # atno 6908 bound_to 6896
  151.3763  135.0937  159.9534 H   0  0  0  0  0  0  0  0  0  0  0  0  # atno 6909 bound_to 6896
  145.2189  140.9126  143.3271 H   0  0  0  0  0  0  0  0  0  0  0  0  # atno 7974 bound_to 7965
  156.2107  140.3024  155.9727 H   0  0  0  0  0  0  0  0  0  0  0  0  # atno 8008 bound_to 7997
  155.2730  140.0434  157.3026 H   0  0  0  0  0  0  0  0  0  0  0  0  # atno 8009 bound_to 7997
  154.5696  140.2344  155.8220 H   0  0  0  0  0  0  0  0  0  0  0  0  # atno 8010 bound_to 7997
  140.6634  143.2655  151.4368 H   0  0  0  0  0  0  0  0  0  0  0  0  # atno 10167 bound_to 10162
  156.8981  130.9869  151.3040 H   0  0  0  0  0  0  0  0  0  0  0  0  # atno 10718 bound_to 10713
  153.1197  135.4731  154.9175 H   0  0  0  0  0  0  0  0  0  0  0  0  # atno 10763 bound_to 10752
  154.7563  135.3119  154.8465 H   0  0  0  0  0  0  0  0  0  0  0  0  # atno 10764 bound_to 10752
  153.9033  135.6873  153.4808 H   0  0  0  0  0  0  0  0  0  0  0  0  # atno 10765 bound_to 10752
  140.8998  134.1705  157.4468 H   0  0  0  0  0  0  0  0  0  0  0  0  # atno 11005 bound_to 11000
  144.9784  139.3808  143.6274 LP  0  0  0  0  0  0  0  0  0  0  0  0  # atno 17320 bound_to 7965
  146.3380  139.8914  142.8808 LP  0  0  0  0  0  0  0  0  0  0  0  0  # atno 17321 bound_to 7965
  139.5875  144.1572  152.2047 LP  0  0  0  0  0  0  0  0  0  0  0  0  # atno 17342 bound_to 10162
  140.0916  144.5616  150.7051 LP  0  0  0  0  0  0  0  0  0  0  0  0  # atno 17343 bound_to 10162
  157.6043  130.8535  149.8850 LP  0  0  0  0  0  0  0  0  0  0  0  0  # atno 17370 bound_to 10713
  156.0595  130.3702  150.1013 LP  0  0  0  0  0  0  0  0  0  0  0  0  # atno 17371 bound_to 10713
  139.8740  134.9893  156.5452 LP  0  0  0  0  0  0  0  0  0  0  0  0  # atno 17394 bound_to 11000
  140.8244  133.8328  155.8925 LP  0  0  0  0  0  0  0  0  0  0  0  0  # atno 17395 bound_to 11000

$$$$
