AV-unprocessed.smi:1149|AV-procd|sdf|4890|dock1
  -GOLD-   22720 3463D 1   1.00000     0.00000
 Structure written by MMmdl.
 51 52  0  0  0  0  0  0  0  0  2 V2000
  150.6986  142.4400  157.3919 C   0  0  0  0  0  0  0  0  0  0  0  0
  151.2690  141.6698  156.3395 O   0  0  0  0  0  0  0  0  0  0  0  0
  150.4497  140.8076  155.6403 C   0  0  0  0  0  0  0  0  0  0  0  0
  149.0539  140.9594  155.7590 C   0  0  0  0  0  0  0  0  0  0  0  0
  148.2101  140.0798  155.0545 C   0  0  0  0  0  0  0  0  0  0  0  0
  148.7921  139.0666  154.2562 C   0  0  0  0  0  0  0  0  0  0  0  0
  148.0494  138.1296  153.4883 N   0  0  0  0  0  0  0  0  0  0  0  0
  146.7148  137.9982  153.3972 C   0  0  0  0  0  0  0  0  0  0  0  0
  145.8901  138.6862  153.9980 O   0  0  0  0  0  0  0  0  0  0  0  0
  146.3827  136.9989  152.5676 N   0  0  0  0  0  0  0  0  0  0  0  0
  145.0199  136.5755  152.2426 C   0  0  0  0  0  0  0  0  0  0  0  0
  144.6431  135.1869  152.8420 C   0  0  0  0  0  0  0  0  0  0  0  0
  144.7534  135.2703  154.3831 C   0  0  0  0  0  0  0  0  0  0  0  0
  143.1668  134.8938  152.4714 C   0  0  0  0  0  0  0  0  0  0  0  0
  145.5197  134.1223  152.2821 N   0  0  0  0  0  0  0  0  0  0  0  0
  145.0859  133.5833  150.9821 C   0  0  0  0  0  0  0  0  0  0  0  0
  146.1852  132.6881  150.3759 C   0  0  0  0  0  0  0  0  0  0  0  0
  146.5268  131.5622  151.2744 N   0  3  0  0  0  0  0  0  0  0  0  0
  145.5284  130.4678  151.2728 C   0  0  0  0  0  0  0  0  0  0  0  0
  146.8608  132.0693  152.6249 C   0  0  0  0  0  0  0  0  0  0  0  0
  145.7444  132.9766  153.1795 C   0  0  0  0  0  0  0  0  0  0  0  0
  150.1995  139.0109  154.1899 C   0  0  0  0  0  0  0  0  0  0  0  0
  151.0143  139.8501  154.8635 N   0  0  0  0  0  0  0  0  0  0  0  0
  151.4676  143.0754  157.8311 H   0  0  0  0  0  0  0  0  0  0  0  0
  150.3048  141.8017  158.1842 H   0  0  0  0  0  0  0  0  0  0  0  0
  149.9027  143.0901  157.0256 H   0  0  0  0  0  0  0  0  0  0  0  0
  148.6362  141.7397  156.3779 H   0  0  0  0  0  0  0  0  0  0  0  0
  147.1417  140.2083  155.1306 H   0  0  0  0  0  0  0  0  0  0  0  0
  148.5994  137.4372  153.0013 H   0  0  0  0  0  0  0  0  0  0  0  0
  147.1304  136.4905  152.1195 H   0  0  0  0  0  0  0  0  0  0  0  0
  144.3374  137.3534  152.5829 H   0  0  0  0  0  0  0  0  0  0  0  0
  144.8792  136.5598  151.1602 H   0  0  0  0  0  0  0  0  0  0  0  0
  144.0912  136.0442  154.7733 H   0  0  0  0  0  0  0  0  0  0  0  0
  145.7600  135.5258  154.7140 H   0  0  0  0  0  0  0  0  0  0  0  0
  144.4666  134.3394  154.8719 H   0  0  0  0  0  0  0  0  0  0  0  0
  142.5333  135.7589  152.6707 H   0  0  0  0  0  0  0  0  0  0  0  0
  142.7435  134.0755  153.0535 H   0  0  0  0  0  0  0  0  0  0  0  0
  143.0531  134.6462  151.4153 H   0  0  0  0  0  0  0  0  0  0  0  0
  144.1540  133.0270  151.0847 H   0  0  0  0  0  0  0  0  0  0  0  0
  144.8987  134.3811  150.2667 H   0  0  0  0  0  0  0  0  0  0  0  0
  145.8749  132.3066  149.4025 H   0  0  0  0  0  0  0  0  0  0  0  0
  147.0841  133.2813  150.2008 H   0  0  0  0  0  0  0  0  0  0  0  0
  144.5620  130.7958  151.6557 H   0  0  0  0  0  0  0  0  0  0  0  0
  145.8726  129.6371  151.8894 H   0  0  0  0  0  0  0  0  0  0  0  0
  145.3807  130.0882  150.2613 H   0  0  0  0  0  0  0  0  0  0  0  0
  147.0467  131.2343  153.3012 H   0  0  0  0  0  0  0  0  0  0  0  0
  147.7940  132.6317  152.5673 H   0  0  0  0  0  0  0  0  0  0  0  0
  146.0618  133.3050  154.1665 H   0  0  0  0  0  0  0  0  0  0  0  0
  144.8253  132.4072  153.3181 H   0  0  0  0  0  0  0  0  0  0  0  0
  150.6902  138.2654  153.5810 H   0  0  0  0  0  0  0  0  0  0  0  0
  147.3732  131.1517  150.9066 H   0  0  0  0  0  0  0  0  0  0  0  0
  1  2  1  0  0  0  0
  1 24  1  0  0  0  0
  1 25  1  0  0  0  0
  1 26  1  0  0  0  0
  2  3  1  0  0  0  0
  3 23  1  0  0  0  0
  3  4  2  0  0  0  0
  4  5  1  0  0  0  0
  4 27  1  0  0  0  0
  5  6  2  0  0  0  0
  5 28  1  0  0  0  0
  6  7  1  0  0  0  0
  6 22  1  0  0  0  0
  7  8  1  0  0  0  0
  7 29  1  0  0  0  0
  8  9  2  0  0  0  0
  8 10  1  0  0  0  0
 10 11  1  0  0  0  0
 10 30  1  0  0  0  0
 11 12  1  0  0  0  0
 11 31  1  0  0  0  0
 11 32  1  0  0  0  0
 12 13  1  0  0  0  0
 12 14  1  0  0  0  0
 12 15  1  0  0  0  0
 13 33  1  0  0  0  0
 13 34  1  0  0  0  0
 13 35  1  0  0  0  0
 14 36  1  0  0  0  0
 14 37  1  0  0  0  0
 14 38  1  0  0  0  0
 15 21  1  0  0  0  0
 15 16  1  0  0  0  0
 16 17  1  0  0  0  0
 16 39  1  0  0  0  0
 16 40  1  0  0  0  0
 17 18  1  0  0  0  0
 17 41  1  0  0  0  0
 17 42  1  0  0  0  0
 18 19  1  0  0  0  0
 18 20  1  0  0  0  0
 18 51  1  0  0  0  0
 19 43  1  0  0  0  0
 19 44  1  0  0  0  0
 19 45  1  0  0  0  0
 20 21  1  0  0  0  0
 20 46  1  0  0  0  0
 20 47  1  0  0  0  0
 21 48  1  0  0  0  0
 21 49  1  0  0  0  0
 22 23  2  0  0  0  0
 22 50  1  0  0  0  0
M  CHG  1  18   1
M  END
> <s_m_source_file>
AV-unprocessed.smi

> <i_m_source_file_index>
1149

> <i_lp_mmshare_version>
43012

> <i_f3d_flags>
0

> <s_epik_input>
W0NIM11PYzFbY0hdW2NIXWMoW2NIXW4xKVtOSF1DKD1PKVtOSF1bQ0gyXUMoW0NIM10pKFtDSDNdKU4yW0NIMl1bQ0gyXU4oW0NIM10pW0NIMl1bQ0gyXTI=

> <s_epik_cmdline>
J2VwaWtfcHl0aG9uJywgJy1waCcsICc3LjAnLCAnLXRuJywgJzgnLCAnLW1hJywgJzIwMCcsICctbWV0YWxfYmluZGluZycsICctaW1hZScsICc8aW5maWxlLm1hZT4nLCAnLW9tYWUnLCAnPG91dGZpbGUubWFlPic=

> <r_lp_tautomer_probability>
1

> <r_epik_Ionization_Penalty>
0.0248754

> <r_epik_Ionization_Penalty_Charging>
0.0238192

> <r_epik_Ionization_Penalty_Neutral>
0.00105627

> <r_epik_State_Penalty>
0.139266

> <r_epik_Charging_Adjusted_Penalty>
0.163085

> <i_epik_Tot_Q>
1

> <i_epik_Tot_abs_Q>
1

> <r_epik_Metal_State_Penalty>
0.139265

> <b_epik_Metal_Only>
0

> <s_lp_Force_Field>
OPLS_2005

> <r_lp_Energy>
29.3026

> <b_lp_Chiralities_Consistent>
1

> <s_lp_Variant>
AV-unprocessed.smi:1149-1

> <Gold.Version>
5.8.1

> <Gold.Id.Protein>
6NUR|6NUR_protein|mol2

> <Gold.PLP.Fitness>
42.2040

> <Gold.PLP.PLP>
-32.5644

> <Gold.PLP.part.hbond>
-4.0000

> <Gold.PLP.part.metal>
0.0000

> <Gold.PLP.part.buried>
-5.9145

> <Gold.PLP.part.nonpolar>
-23.9778

> <Gold.PLP.part.repulsive>
0.4282

> <Gold.PLP.ligand.clash>
0.0000

> <Gold.PLP.ligand.torsion>
1.2117

> <Gold.PLP.Chemscore.Hbond>
4.0000

> <Gold.PLP.Chemscore.CHOScore>
0.0000

> <Gold.PLP.Chemscore.Metal>
0.0000

> <Gold.Chemscore.Hbonds>
donor molecule, donor type, donor heavy atom, donor atom, acceptor molecule, acceptor atom, score
      L1  H     7    29       P1  7948  1.00
      L1  H    10    30       P1  7948  1.00
      L1  H    18    51       P1 10747  1.00
      P1  H  7989  7998       L1    23  1.00

> <Gold.PLP.Chemscore.Internal.Correction>
0.0630

> <Gold.Rescore>
     Score         DG    S(hbond)    S(metal)    S(lipo)     H(rot)  DE(clash)    DE(int)     intcor
     19.02     -21.05       3.21        0.00      79.21       1.72       0.23       1.80       ----

> <Gold.Chemscore.Fitness>
19.0179

> <Gold.Chemscore.DG>
-21.0475

> <Gold.Chemscore.ZeroCoef>
-5.4800

> <Gold.Chemscore.Hbond>
3.2056

> <Gold.Chemscore.Metal>
0.0000

> <Gold.Chemscore.Lipo>
79.2074

> <Gold.Chemscore.Internal_Hbond>
0.0000

> <Gold.Chemscore.DEClash>
0.2317

> <Gold.Chemscore.DEInternal>
1.7978

> <Gold.Chemscore.Rot>
1.7213

> <Gold.Chemscore.Internal.Correction>
   9.000000E+99

> <Gold.Chemscore.Hbonds>
donor molecule, donor type, donor heavy atom, donor atom, acceptor molecule, acceptor atom, score
      L1  H     7    29       P1  7948  0.99
      L1  H    10    30       P1  7948  0.94
      L1  H    18    51       P1 10747  1.00
      P1  H  7989  7998       L1    23  0.07

> <Gold.Chemscore.Hbond.Weighted>
-10.7068

> <Gold.Chemscore.Metal.Weighted>
-0.0000

> <Gold.Chemscore.Lipo.Weighted>
-9.2673

> <Gold.Chemscore.Internal_Hbond.Weighted>
0.0000

> <Gold.Chemscore.DEClash.Weighted>
0.2317

> <Gold.Chemscore.DEInternal.Weighted>
1.7978

> <Gold.Chemscore.Rot.Weighted>
4.4066

> <Gold.Chemscore.Internal.Correction.Weighted>
   9.000000E+99

> <Gold.Protein.RotatedTorsions>
[ 6907 6896 6895 6894 ] final  150.06 input  -60.11 | X-H torsion
[ 7974 7965 7964 7962 ] final   23.20 input  175.53 | X-H torsion
[ 8008 7997 7996 7995 ] final  138.30 input   59.86 | X-H torsion
[ 10167 10162 10161 10158 ] final -172.96 input  -65.29 | X-H torsion
[ 10718 10713 10712 10709 ] final   -9.87 input   66.30 | X-H torsion
[ 10763 10752 10751 10750 ] final  -99.98 input  -60.55 | X-H torsion
[ 11005 11000 10999 10996 ] final -121.11 input  -57.11 | X-H torsion

> <Gold.Protein.ActiveResidues>
 VAL166  LYS551  ARG553  GLY616  TRP617  ASP618  TYR619  PRO620  LYS621  CYS622 
 ASP623  PHE694  ASN695  SER759  ASP760  ASP761  ALA762  ILE779  LEU786  VAL792 
 PHE793  MET794  SER795  GLU796  ALA797  LYS798  CYS799  TRP800  GLU811  SER814 

> <Gold.Protein.RotatedAtoms>
  152.1196  133.4346  159.4669 H   0  0  0  0  0  0  0  0  0  0  0  0  # atno 6907 bound_to 6896
  150.6871  134.2551  159.4535 H   0  0  0  0  0  0  0  0  0  0  0  0  # atno 6908 bound_to 6896
  152.0426  134.9702  160.0624 H   0  0  0  0  0  0  0  0  0  0  0  0  # atno 6909 bound_to 6896
  146.1995  139.7778  142.8772 H   0  0  0  0  0  0  0  0  0  0  0  0  # atno 7974 bound_to 7965
  156.2998  140.2397  156.4050 H   0  0  0  0  0  0  0  0  0  0  0  0  # atno 8008 bound_to 7997
  154.8492  140.0425  157.1613 H   0  0  0  0  0  0  0  0  0  0  0  0  # atno 8009 bound_to 7997
  154.9017  140.2978  155.5318 H   0  0  0  0  0  0  0  0  0  0  0  0  # atno 8010 bound_to 7997
  139.5715  144.1631  152.1390 H   0  0  0  0  0  0  0  0  0  0  0  0  # atno 10167 bound_to 10162
  156.6817  130.5039  149.5969 H   0  0  0  0  0  0  0  0  0  0  0  0  # atno 10718 bound_to 10713
  154.7542  135.4952  153.9345 H   0  0  0  0  0  0  0  0  0  0  0  0  # atno 10763 bound_to 10752
  153.1177  135.6724  153.9397 H   0  0  0  0  0  0  0  0  0  0  0  0  # atno 10764 bound_to 10752
  153.9137  135.3096  155.3427 H   0  0  0  0  0  0  0  0  0  0  0  0  # atno 10765 bound_to 10752
  141.0094  134.0286  157.3433 H   0  0  0  0  0  0  0  0  0  0  0  0  # atno 11005 bound_to 11000
  145.3532  141.0311  143.3327 LP  0  0  0  0  0  0  0  0  0  0  0  0  # atno 17320 bound_to 7965
  144.8652  139.5118  143.6793 LP  0  0  0  0  0  0  0  0  0  0  0  0  # atno 17321 bound_to 7965
  140.1164  144.5411  150.6891 LP  0  0  0  0  0  0  0  0  0  0  0  0  # atno 17342 bound_to 10162
  140.6999  143.2428  151.4894 LP  0  0  0  0  0  0  0  0  0  0  0  0  # atno 17343 bound_to 10162
  156.1862  130.6531  151.1009 LP  0  0  0  0  0  0  0  0  0  0  0  0  # atno 17370 bound_to 10713
  157.7041  131.0764  150.6725 LP  0  0  0  0  0  0  0  0  0  0  0  0  # atno 17371 bound_to 10713
  139.9081  135.0184  156.7576 LP  0  0  0  0  0  0  0  0  0  0  0  0  # atno 17394 bound_to 11000
  140.6758  133.9518  155.7882 LP  0  0  0  0  0  0  0  0  0  0  0  0  # atno 17395 bound_to 11000

$$$$
