AV-unprocessed.smi:1422|AV-procd|sdf|5793|dock5
  -GOLD-   22720 5443D 1   1.00000     0.00000
 Structure written by MMmdl.
 31 32  0  0  0  0  0  0  0  0  1 V2000
  150.9655  142.0353  156.6484 C   0  0  0  0  0  0  0  0  0  0  0  0
  150.6761  140.9226  155.7004 C   0  0  0  0  0  0  0  0  0  0  0  0
  149.5259  140.4779  155.1120 C   0  0  0  0  0  0  0  0  0  0  0  0
  149.9713  139.3814  154.3267 C   0  0  0  0  0  0  0  0  0  0  0  0
  149.0599  138.6316  153.5405 N   0  0  0  0  0  0  0  0  0  0  0  0
  147.7272  138.7853  153.4616 C   0  0  0  0  0  0  0  0  0  0  0  0
  147.0730  139.6276  154.0773 O   0  0  0  0  0  0  0  0  0  0  0  0
  147.1840  137.8943  152.6192 N   0  0  0  0  0  0  0  0  0  0  0  0
  145.7628  137.7846  152.3044 C   0  0  0  0  0  0  0  0  0  0  0  0
  145.3210  136.3180  152.1427 C   0  0  1  0  0  0  0  0  0  0  0  0
  143.8284  136.0738  152.2580 C   0  0  0  0  0  0  0  0  0  0  0  0
  143.6761  134.7118  151.5868 C   0  0  0  0  0  0  0  0  0  0  0  0
  144.7109  134.6378  150.6101 O   0  0  0  0  0  0  0  0  0  0  0  0
  145.5980  135.7425  150.7546 C   0  0  0  0  0  0  0  0  0  0  0  0
  151.2756  139.1752  154.4269 N   0  0  0  0  0  0  0  0  0  0  0  0
  151.7338  140.1617  155.3082 O   0  0  0  0  0  0  0  0  0  0  0  0
  150.1441  142.7517  156.6705 H   0  0  0  0  0  0  0  0  0  0  0  0
  151.8700  142.5692  156.3560 H   0  0  0  0  0  0  0  0  0  0  0  0
  151.1091  141.6531  157.6592 H   0  0  0  0  0  0  0  0  0  0  0  0
  148.5284  140.8751  155.2277 H   0  0  0  0  0  0  0  0  0  0  0  0
  149.4665  137.8998  152.9770 H   0  0  0  0  0  0  0  0  0  0  0  0
  147.7999  137.2402  152.1587 H   0  0  0  0  0  0  0  0  0  0  0  0
  145.1568  138.2897  153.0585 H   0  0  0  0  0  0  0  0  0  0  0  0
  145.5904  138.3191  151.3700 H   0  0  0  0  0  0  0  0  0  0  0  0
  145.8345  135.7003  152.8817 H   0  0  0  0  0  0  0  0  0  0  0  0
  143.4673  136.0804  153.2869 H   0  0  0  0  0  0  0  0  0  0  0  0
  143.2754  136.8296  151.6979 H   0  0  0  0  0  0  0  0  0  0  0  0
  143.8282  133.9114  152.3116 H   0  0  0  0  0  0  0  0  0  0  0  0
  142.6921  134.5787  151.1368 H   0  0  0  0  0  0  0  0  0  0  0  0
  145.3636  136.4738  149.9796 H   0  0  0  0  0  0  0  0  0  0  0  0
  146.6370  135.4378  150.6275 H   0  0  0  0  0  0  0  0  0  0  0  0
  1  2  1  0  0  0  0
  1 17  1  0  0  0  0
  1 18  1  0  0  0  0
  1 19  1  0  0  0  0
  2 16  1  0  0  0  0
  2  3  2  0  0  0  0
  3  4  1  0  0  0  0
  3 20  1  0  0  0  0
  4  5  1  0  0  0  0
  4 15  2  0  0  0  0
  5  6  1  0  0  0  0
  5 21  1  0  0  0  0
  6  7  2  0  0  0  0
  6  8  1  0  0  0  0
  8  9  1  0  0  0  0
  8 22  1  0  0  0  0
  9 10  1  0  0  0  0
  9 23  1  0  0  0  0
  9 24  1  0  0  0  0
 10 14  1  0  0  0  0
 10 11  1  0  0  0  0
 10 25  1  0  0  0  0
 11 12  1  0  0  0  0
 11 26  1  0  0  0  0
 11 27  1  0  0  0  0
 12 13  1  0  0  0  0
 12 28  1  0  0  0  0
 12 29  1  0  0  0  0
 13 14  1  0  0  0  0
 14 30  1  0  0  0  0
 14 31  1  0  0  0  0
 15 16  1  0  0  0  0
M  END
> <s_m_source_file>
AV-unprocessed.smi

> <i_m_source_file_index>
1422

> <i_lp_mmshare_version>
43012

> <i_f3d_flags>
0

> <s_epik_input>
W0NIM11jMVtjSF1jKG5vMSlbTkhdQyg9TylbTkhdW0NIMl1bQ0BASF0yW0NIMl1bQ0gyXU9bQ0gyXTI=

> <s_epik_cmdline>
J2VwaWtfcHl0aG9uJywgJy1waCcsICc3LjAnLCAnLXRuJywgJzgnLCAnLW1hJywgJzIwMCcsICctbWV0YWxfYmluZGluZycsICctaW1hZScsICc8aW5maWxlLm1hZT4nLCAnLW9tYWUnLCAnPG91dGZpbGUubWFlPic=

> <r_lp_tautomer_probability>
1

> <r_epik_Ionization_Penalty>
2.27275e-05

> <r_epik_Ionization_Penalty_Charging>
0

> <r_epik_Ionization_Penalty_Neutral>
2.27275e-05

> <r_epik_State_Penalty>
-0

> <r_epik_Charging_Adjusted_Penalty>
0

> <i_epik_Tot_Q>
0

> <i_epik_Tot_abs_Q>
0

> <r_epik_Metal_State_Penalty>
-0

> <b_epik_Metal_Only>
0

> <s_lp_Force_Field>
OPLS_2005

> <r_lp_Energy>
16.3124

> <b_lp_Chiralities_Consistent>
1

> <s_lp_Variant>
AV-unprocessed.smi:1422-2

> <Gold.Version>
5.8.1

> <Gold.Id.Protein>
6NUR|6NUR_protein|mol2

> <Gold.PLP.Fitness>
33.8228

> <Gold.PLP.PLP>
-28.8629

> <Gold.PLP.part.hbond>
-5.0000

> <Gold.PLP.part.metal>
0.0000

> <Gold.PLP.part.buried>
-2.4350

> <Gold.PLP.part.nonpolar>
-21.0223

> <Gold.PLP.part.repulsive>
0.6336

> <Gold.PLP.ligand.clash>
0.0000

> <Gold.PLP.ligand.torsion>
0.3667

> <Gold.PLP.Chemscore.Hbond>
1.8960

> <Gold.PLP.Chemscore.CHOScore>
0.0000

> <Gold.PLP.Chemscore.Metal>
0.0000

> <Gold.Chemscore.Hbonds>
donor molecule, donor type, donor heavy atom, donor atom, acceptor molecule, acceptor atom, score
      L1  H     5    21       P1  7948  0.86
      L1  H     8    22       P1  7948  1.00

> <Gold.PLP.Chemscore.Internal.Correction>
0.0054

> <Gold.Rescore>
     Score         DG    S(hbond)    S(metal)    S(lipo)     H(rot)  DE(clash)    DE(int)     intcor
     12.52     -14.23       1.94        0.00      47.80       1.30       0.05       1.66       ----

> <Gold.Chemscore.Fitness>
12.5178

> <Gold.Chemscore.DG>
-14.2308

> <Gold.Chemscore.ZeroCoef>
-5.4800

> <Gold.Chemscore.Hbond>
1.9394

> <Gold.Chemscore.Metal>
0.0000

> <Gold.Chemscore.Lipo>
47.7990

> <Gold.Chemscore.Internal_Hbond>
0.0000

> <Gold.Chemscore.DEClash>
0.0518

> <Gold.Chemscore.DEInternal>
1.6612

> <Gold.Chemscore.Rot>
1.2965

> <Gold.Chemscore.Internal.Correction>
   9.000000E+99

> <Gold.Chemscore.Hbonds>
donor molecule, donor type, donor heavy atom, donor atom, acceptor molecule, acceptor atom, score
      L1  H     5    21       P1  7948  0.69
      L1  H     8    22       P1  7948  0.94

> <Gold.Chemscore.Hbond.Weighted>
-6.4774

> <Gold.Chemscore.Metal.Weighted>
-0.0000

> <Gold.Chemscore.Lipo.Weighted>
-5.5925

> <Gold.Chemscore.Internal_Hbond.Weighted>
0.0000

> <Gold.Chemscore.DEClash.Weighted>
0.0518

> <Gold.Chemscore.DEInternal.Weighted>
1.6612

> <Gold.Chemscore.Rot.Weighted>
3.3192

> <Gold.Chemscore.Internal.Correction.Weighted>
   9.000000E+99

> <Gold.Protein.RotatedTorsions>
[ 6907 6896 6895 6894 ] final    5.93 input  -60.11 | X-H torsion
[ 7974 7965 7964 7962 ] final  134.74 input  175.53 | X-H torsion
[ 8008 7997 7996 7995 ] final  -71.28 input   59.86 | X-H torsion
[ 10167 10162 10161 10158 ] final  176.79 input  -65.29 | X-H torsion
[ 10718 10713 10712 10709 ] final  153.79 input   66.30 | X-H torsion
[ 10763 10752 10751 10750 ] final -119.37 input  -60.55 | X-H torsion
[ 11005 11000 10999 10996 ] final   -1.43 input  -57.11 | X-H torsion

> <Gold.Protein.ActiveResidues>
 VAL166  LYS551  ARG553  GLY616  TRP617  ASP618  TYR619  PRO620  LYS621  CYS622 
 ASP623  PHE694  ASN695  SER759  ASP760  ASP761  ALA762  ILE779  LEU786  VAL792 
 PHE793  MET794  SER795  GLU796  ALA797  LYS798  CYS799  TRP800  GLU811  SER814 

> <Gold.Protein.RotatedAtoms>
  151.6655  135.0983  160.0187 H   0  0  0  0  0  0  0  0  0  0  0  0  # atno 6907 bound_to 6896
  152.3922  133.6691  159.6255 H   0  0  0  0  0  0  0  0  0  0  0  0  # atno 6908 bound_to 6896
  150.7835  133.8852  159.3338 H   0  0  0  0  0  0  0  0  0  0  0  0  # atno 6909 bound_to 6896
  144.9733  139.4582  143.5422 H   0  0  0  0  0  0  0  0  0  0  0  0  # atno 7974 bound_to 7965
  154.5076  140.0818  156.7925 H   0  0  0  0  0  0  0  0  0  0  0  0  # atno 8008 bound_to 7997
  155.3858  140.3430  155.4231 H   0  0  0  0  0  0  0  0  0  0  0  0  # atno 8009 bound_to 7997
  156.1534  140.1565  156.8719 H   0  0  0  0  0  0  0  0  0  0  0  0  # atno 8010 bound_to 7997
  139.5228  144.2874  152.0494 H   0  0  0  0  0  0  0  0  0  0  0  0  # atno 10167 bound_to 10162
  157.2402  131.0757  151.1797 H   0  0  0  0  0  0  0  0  0  0  0  0  # atno 10718 bound_to 10713
  154.8615  135.4241  154.2288 H   0  0  0  0  0  0  0  0  0  0  0  0  # atno 10763 bound_to 10752
  153.3277  135.6986  153.6981 H   0  0  0  0  0  0  0  0  0  0  0  0  # atno 10764 bound_to 10752
  153.6010  135.3537  155.2919 H   0  0  0  0  0  0  0  0  0  0  0  0  # atno 10765 bound_to 10752
  140.6472  133.9436  155.8359 H   0  0  0  0  0  0  0  0  0  0  0  0  # atno 11005 bound_to 11000
  146.3388  139.8960  142.8802 LP  0  0  0  0  0  0  0  0  0  0  0  0  # atno 17320 bound_to 7965
  145.2527  141.0049  143.3872 LP  0  0  0  0  0  0  0  0  0  0  0  0  # atno 17321 bound_to 7965
  140.2326  144.4352  150.6293 LP  0  0  0  0  0  0  0  0  0  0  0  0  # atno 17342 bound_to 10162
  140.6345  143.2192  151.6425 LP  0  0  0  0  0  0  0  0  0  0  0  0  # atno 17343 bound_to 10162
  157.3387  130.7022  149.6368 LP  0  0  0  0  0  0  0  0  0  0  0  0  # atno 17370 bound_to 10713
  155.9670  130.4286  150.4796 LP  0  0  0  0  0  0  0  0  0  0  0  0  # atno 17371 bound_to 10713
  141.0563  134.0411  157.3718 LP  0  0  0  0  0  0  0  0  0  0  0  0  # atno 17394 bound_to 11000
  139.9058  135.0179  156.7481 LP  0  0  0  0  0  0  0  0  0  0  0  0  # atno 17395 bound_to 11000

$$$$
