AV-unprocessed.smi:92|AV-procd|sdf|843|dock1
  -GOLD-   2262017283D 1   1.00000     0.00000
 Structure written by MMmdl.
 61 64  0  0  0  0  0  0  0  0  2 V2000
  145.6059  143.4451  153.7880 C   0  0  0  0  0  0  0  0  0  0  0  0
  146.0510  142.1605  154.5008 C   0  0  0  0  0  0  0  0  0  0  0  0
  145.5392  142.0764  155.8952 N   0  3  2  0  0  0  0  0  0  0  0  0
  146.3793  141.2427  156.7879 C   0  0  0  0  0  0  0  0  0  0  0  0
  146.2137  139.7506  156.4703 C   0  0  0  0  0  0  0  0  0  0  0  0
  144.7394  139.2970  156.5888 C   0  0  2  0  0  0  0  0  0  0  0  0
  144.5907  137.8556  156.3261 N   0  0  0  0  0  0  0  0  0  0  0  0
  143.6621  137.0448  157.1041 C   0  0  0  0  0  0  0  0  0  0  0  0
  144.8518  137.3817  155.0856 C   0  0  0  0  0  0  0  0  0  0  0  0
  145.9542  137.8578  154.4544 N   0  0  0  0  0  0  0  0  0  0  0  0
  146.2590  137.4315  153.2252 C   0  0  0  0  0  0  0  0  0  0  0  0
  145.6078  136.5515  152.4623 N   0  0  0  0  0  0  0  0  0  0  0  0
  144.5046  136.0624  153.0980 C   0  0  0  0  0  0  0  0  0  0  0  0
  144.0627  136.4120  154.4054 C   0  0  0  0  0  0  0  0  0  0  0  0
  142.9150  135.6961  154.7219 N   0  0  0  0  0  0  0  0  0  0  0  0
  142.6940  134.9622  153.6661 C   0  0  0  0  0  0  0  0  0  0  0  0
  143.5790  135.1466  152.6281 N   0  0  0  0  0  0  0  0  0  0  0  0
  143.5846  134.4553  151.3720 C   0  0  0  0  0  0  0  0  0  0  0  0
  143.4987  132.9273  151.3146 C   0  0  0  0  0  0  0  0  0  0  0  0
  144.4684  132.9030  150.1129 C   0  0  0  0  0  0  0  0  0  0  0  0
  145.6032  131.8717  150.2115 C   0  0  0  0  0  0  0  0  0  0  0  0
  146.5510  132.0442  149.1773 O   0  0  0  0  0  0  0  0  0  0  0  0
  143.8429  132.7590  148.7076 C   0  0  0  0  0  0  0  0  0  0  0  0
  143.4841  133.9959  148.1260 O   0  0  0  0  0  0  0  0  0  0  0  0
  144.8672  134.3327  150.5423 C   0  0  0  0  0  0  0  0  0  0  0  0
  143.8238  140.2125  155.7221 C   0  0  1  0  0  0  0  0  0  0  0  0
  142.3198  139.9582  155.9348 C   0  0  0  0  0  0  0  0  0  0  0  0
  144.1046  141.7077  156.0159 C   0  0  0  0  0  0  0  0  0  0  0  0
  146.0760  143.5204  152.8072 H   0  0  0  0  0  0  0  0  0  0  0  0
  145.8891  144.3306  154.3576 H   0  0  0  0  0  0  0  0  0  0  0  0
  144.5281  143.4746  153.6308 H   0  0  0  0  0  0  0  0  0  0  0  0
  145.7591  141.2849  153.9213 H   0  0  0  0  0  0  0  0  0  0  0  0
  147.1414  142.1576  154.5251 H   0  0  0  0  0  0  0  0  0  0  0  0
  147.4261  141.5388  156.7082 H   0  0  0  0  0  0  0  0  0  0  0  0
  146.0870  141.4320  157.8217 H   0  0  0  0  0  0  0  0  0  0  0  0
  146.5994  139.5620  155.4684 H   0  0  0  0  0  0  0  0  0  0  0  0
  146.8334  139.1662  157.1514 H   0  0  0  0  0  0  0  0  0  0  0  0
  144.4512  139.4447  157.6305 H   0  0  0  0  0  0  0  0  0  0  0  0
  142.7642  136.7941  156.5398 H   0  0  0  0  0  0  0  0  0  0  0  0
  143.3579  137.5632  158.0135 H   0  0  0  0  0  0  0  0  0  0  0  0
  144.1438  136.1123  157.3988 H   0  0  0  0  0  0  0  0  0  0  0  0
  147.1497  137.8593  152.7889 H   0  0  0  0  0  0  0  0  0  0  0  0
  141.8668  134.2692  153.6129 H   0  0  0  0  0  0  0  0  0  0  0  0
  142.7859  134.9069  150.7825 H   0  0  0  0  0  0  0  0  0  0  0  0
  143.9176  132.4557  152.2052 H   0  0  0  0  0  0  0  0  0  0  0  0
  142.5006  132.5415  151.1046 H   0  0  0  0  0  0  0  0  0  0  0  0
  146.1128  131.9358  151.1735 H   0  0  0  0  0  0  0  0  0  0  0  0
  145.2136  130.8559  150.1366 H   0  0  0  0  0  0  0  0  0  0  0  0
  147.3568  131.6226  149.4340 H   0  0  0  0  0  0  0  0  0  0  0  0
  144.5335  132.2608  148.0264 H   0  0  0  0  0  0  0  0  0  0  0  0
  142.9428  132.1448  148.7428 H   0  0  0  0  0  0  0  0  0  0  0  0
  144.2655  134.4078  147.7900 H   0  0  0  0  0  0  0  0  0  0  0  0
  144.9446  135.0526  149.7269 H   0  0  0  0  0  0  0  0  0  0  0  0
  145.7653  134.3535  151.1621 H   0  0  0  0  0  0  0  0  0  0  0  0
  144.0423  140.0297  154.6704 H   0  0  0  0  0  0  0  0  0  0  0  0
  142.0449  140.0564  156.9855 H   0  0  0  0  0  0  0  0  0  0  0  0
  142.0161  138.9686  155.6013 H   0  0  0  0  0  0  0  0  0  0  0  0
  141.7196  140.6714  155.3691 H   0  0  0  0  0  0  0  0  0  0  0  0
  143.7903  141.9381  157.0350 H   0  0  0  0  0  0  0  0  0  0  0  0
  143.4984  142.3436  155.3717 H   0  0  0  0  0  0  0  0  0  0  0  0
  145.6178  143.0166  156.2566 H   0  0  0  0  0  0  0  0  0  0  0  0
  1  2  1  0  0  0  0
  1 29  1  0  0  0  0
  1 30  1  0  0  0  0
  1 31  1  0  0  0  0
  2  3  1  0  0  0  0
  2 32  1  0  0  0  0
  2 33  1  0  0  0  0
  3 28  1  0  0  0  0
  3  4  1  0  0  0  0
  3 61  1  0  0  0  0
  4  5  1  0  0  0  0
  4 34  1  0  0  0  0
  4 35  1  0  0  0  0
  5  6  1  0  0  0  0
  5 36  1  0  0  0  0
  5 37  1  0  0  0  0
  6  7  1  0  0  0  0
  6 26  1  0  0  0  0
  6 38  1  0  0  0  0
  7  8  1  0  0  0  0
  7  9  1  0  0  0  0
  8 39  1  0  0  0  0
  8 40  1  0  0  0  0
  8 41  1  0  0  0  0
  9 14  1  0  0  0  0
  9 10  2  0  0  0  0
 10 11  1  0  0  0  0
 11 12  2  0  0  0  0
 11 42  1  0  0  0  0
 12 13  1  0  0  0  0
 13 17  1  0  0  0  0
 13 14  2  0  0  0  0
 14 15  1  0  0  0  0
 15 16  2  0  0  0  0
 16 17  1  0  0  0  0
 16 43  1  0  0  0  0
 17 18  1  0  0  0  0
 18 25  1  0  0  0  0
 18 19  1  0  0  0  0
 18 44  1  0  0  0  0
 19 20  1  0  0  0  0
 19 45  1  0  0  0  0
 19 46  1  0  0  0  0
 20 21  1  0  0  0  0
 20 23  1  0  0  0  0
 20 25  1  0  0  0  0
 21 22  1  0  0  0  0
 21 47  1  0  0  0  0
 21 48  1  0  0  0  0
 22 49  1  0  0  0  0
 23 24  1  0  0  0  0
 23 50  1  0  0  0  0
 23 51  1  0  0  0  0
 24 52  1  0  0  0  0
 25 53  1  0  0  0  0
 25 54  1  0  0  0  0
 26 27  1  0  0  0  0
 26 28  1  0  0  0  0
 26 55  1  0  0  0  0
 27 56  1  0  0  0  0
 27 57  1  0  0  0  0
 27 58  1  0  0  0  0
 28 59  1  0  0  0  0
 28 60  1  0  0  0  0
M  CHG  1   3   1
M  END
> <s_m_source_file>
AV-unprocessed.smi

> <i_m_source_file_index>
92

> <i_lp_mmshare_version>
43012

> <i_f3d_flags>
0

> <s_epik_input>
W0NIM11bQ0gyXU4xW0NIMl1bQ0gyXVtDQEhdKFtDQEBIXShbQ0gzXSlbQ0gyXTEpTihbQ0gzXSljKG5bY0hdbjIpYyhjMjMpbltjSF1uM1tDSF0oW0NIMl00KVtDSDJdQzQoW0NIMl1bT0hdKVtDSDJdW09IXQ==

> <s_epik_cmdline>
J2VwaWtfcHl0aG9uJywgJy1waCcsICc3LjAnLCAnLXRuJywgJzgnLCAnLW1hJywgJzIwMCcsICctbWV0YWxfYmluZGluZycsICctaW1hZScsICc8aW5maWxlLm1hZT4nLCAnLW9tYWUnLCAnPG91dGZpbGUubWFlPic=

> <r_lp_tautomer_probability>
1

> <r_epik_Ionization_Penalty>
0.00235514

> <r_epik_Ionization_Penalty_Charging>
0.00137877

> <r_epik_Ionization_Penalty_Neutral>
0.000976366

> <r_epik_State_Penalty>
-0

> <r_epik_Charging_Adjusted_Penalty>
0.00137877

> <i_epik_Tot_Q>
1

> <i_epik_Tot_abs_Q>
1

> <r_epik_Metal_State_Penalty>
-0

> <b_epik_Metal_Only>
0

> <s_lp_Force_Field>
OPLS_2005

> <r_lp_Energy>
56.5643

> <b_lp_Chiralities_Consistent>
1

> <s_lp_Variant>
AV-unprocessed.smi:92-3

> <Gold.Version>
5.8.1

> <Gold.Id.Protein>
6NUR|6NUR_protein|mol2

> <Gold.PLP.Fitness>
44.9324

> <Gold.PLP.PLP>
-36.6935

> <Gold.PLP.part.hbond>
-4.6548

> <Gold.PLP.part.metal>
0.0000

> <Gold.PLP.part.buried>
-4.7217

> <Gold.PLP.part.nonpolar>
-27.4827

> <Gold.PLP.part.repulsive>
0.3217

> <Gold.PLP.ligand.clash>
0.0000

> <Gold.PLP.ligand.torsion>
2.1902

> <Gold.PLP.Chemscore.Hbond>
2.8288

> <Gold.PLP.Chemscore.CHOScore>
0.8967

> <Gold.PLP.Chemscore.Metal>
0.0000

> <Gold.Chemscore.Hbonds>
donor molecule, donor type, donor heavy atom, donor atom, acceptor molecule, acceptor atom, score
      L1  H    22    49       P1 10747  1.00
      L1  H    24    52       P1  7921  1.00
      P1  H 10192 10197       L1    24  0.80
      L1  C    11    42       P1  7948  0.66
      L1  C    16    43       P1 10957  0.10

> <Gold.PLP.Chemscore.Internal.Correction>
1.4430

> <Gold.Rescore>
     Score         DG    S(hbond)    S(metal)    S(lipo)     H(rot)  DE(clash)    DE(int)     intcor
      8.62     -14.80       2.72        0.00      72.63       3.22       0.25       5.94       ----

> <Gold.Chemscore.Fitness>
8.6183

> <Gold.Chemscore.DG>
-14.8037

> <Gold.Chemscore.ZeroCoef>
-5.4800

> <Gold.Chemscore.Hbond>
2.7170

> <Gold.Chemscore.Metal>
0.0000

> <Gold.Chemscore.Lipo>
72.6256

> <Gold.Chemscore.Internal_Hbond>
0.0000

> <Gold.Chemscore.DEClash>
0.2497

> <Gold.Chemscore.DEInternal>
5.9357

> <Gold.Chemscore.Rot>
3.2219

> <Gold.Chemscore.Internal.Correction>
   9.000000E+99

> <Gold.Chemscore.Hbonds>
donor molecule, donor type, donor heavy atom, donor atom, acceptor molecule, acceptor atom, score
      L1  H    22    49       P1 10747  0.99
      L1  H    24    52       P1  7921  0.99
      P1  H 10192 10197       L1    24  0.20

> <Gold.Chemscore.Hbond.Weighted>
-9.0747

> <Gold.Chemscore.Metal.Weighted>
-0.0000

> <Gold.Chemscore.Lipo.Weighted>
-8.4972

> <Gold.Chemscore.Internal_Hbond.Weighted>
0.0000

> <Gold.Chemscore.DEClash.Weighted>
0.2497

> <Gold.Chemscore.DEInternal.Weighted>
5.9357

> <Gold.Chemscore.Rot.Weighted>
8.2482

> <Gold.Chemscore.Internal.Correction.Weighted>
   9.000000E+99

> <Gold.Protein.RotatedTorsions>
[ 6907 6896 6895 6894 ] final    9.45 input  -60.11 | X-H torsion
[ 7974 7965 7964 7962 ] final  143.64 input  175.53 | X-H torsion
[ 8008 7997 7996 7995 ] final  -55.47 input   59.86 | X-H torsion
[ 10167 10162 10161 10158 ] final -161.93 input  -65.29 | X-H torsion
[ 10718 10713 10712 10709 ] final  -54.46 input   66.30 | X-H torsion
[ 10763 10752 10751 10750 ] final    3.75 input  -60.55 | X-H torsion
[ 11005 11000 10999 10996 ] final -127.72 input  -57.11 | X-H torsion

> <Gold.Protein.ActiveResidues>
 VAL166  LYS551  ARG553  GLY616  TRP617  ASP618  TYR619  PRO620  LYS621  CYS622 
 ASP623  PHE694  ASN695  SER759  ASP760  ASP761  ALA762  ILE779  LEU786  VAL792 
 PHE793  MET794  SER795  GLU796  ALA797  LYS798  CYS799  TRP800  GLU811  SER814 

> <Gold.Protein.RotatedAtoms>
  151.7224  135.0891  160.0286 H   0  0  0  0  0  0  0  0  0  0  0  0  # atno 6907 bound_to 6896
  152.3593  133.6273  159.6012 H   0  0  0  0  0  0  0  0  0  0  0  0  # atno 6908 bound_to 6896
  150.7593  133.9365  159.3484 H   0  0  0  0  0  0  0  0  0  0  0  0  # atno 6909 bound_to 6896
  144.8904  139.5567  143.5801 H   0  0  0  0  0  0  0  0  0  0  0  0  # atno 7974 bound_to 7965
  154.4196  140.1152  156.5482 H   0  0  0  0  0  0  0  0  0  0  0  0  # atno 8008 bound_to 7997
  155.6437  140.3496  155.4705 H   0  0  0  0  0  0  0  0  0  0  0  0  # atno 8009 bound_to 7997
  155.9849  140.1168  157.0682 H   0  0  0  0  0  0  0  0  0  0  0  0  # atno 8010 bound_to 7997
  139.6429  144.0226  152.2105 H   0  0  0  0  0  0  0  0  0  0  0  0  # atno 10167 bound_to 10162
  156.1449  130.4153  150.0041 H   0  0  0  0  0  0  0  0  0  0  0  0  # atno 10718 bound_to 10713
  153.2795  135.6939  153.7400 H   0  0  0  0  0  0  0  0  0  0  0  0  # atno 10763 bound_to 10752
  153.6392  135.3396  155.3067 H   0  0  0  0  0  0  0  0  0  0  0  0  # atno 10764 bound_to 10752
  154.8490  135.4427  154.1844 H   0  0  0  0  0  0  0  0  0  0  0  0  # atno 10765 bound_to 10752
  140.9576  134.0980  157.4000 H   0  0  0  0  0  0  0  0  0  0  0  0  # atno 11005 bound_to 11000
  146.3050  139.7550  142.9063 LP  0  0  0  0  0  0  0  0  0  0  0  0  # atno 17320 bound_to 7965
  145.3794  141.0356  143.3186 LP  0  0  0  0  0  0  0  0  0  0  0  0  # atno 17321 bound_to 7965
  139.9921  144.6354  150.7805 LP  0  0  0  0  0  0  0  0  0  0  0  0  # atno 17342 bound_to 10162
  140.7500  143.2948  151.3235 LP  0  0  0  0  0  0  0  0  0  0  0  0  # atno 17343 bound_to 10162
  156.7915  130.9258  151.3646 LP  0  0  0  0  0  0  0  0  0  0  0  0  # atno 17370 bound_to 10713
  157.6608  130.8964  149.9825 LP  0  0  0  0  0  0  0  0  0  0  0  0  # atno 17371 bound_to 10713
  139.8867  135.0084  156.6517 LP  0  0  0  0  0  0  0  0  0  0  0  0  # atno 17394 bound_to 11000
  140.7513  133.8894  155.8349 LP  0  0  0  0  0  0  0  0  0  0  0  0  # atno 17395 bound_to 11000

$$$$
