AV-unprocessed.smi:1723|AV-procd|sdf|6948|dock6
  -GOLD-   22720 8163D 1   1.00000     0.00000
 Structure written by MMmdl.
 37 37  0  0  0  0  0  0  0  0  2 V2000
  151.1425  134.9329  154.5221 C   0  0  0  0  0  0  0  0  0  0  0  0
  150.2906  136.1137  154.9999 C   0  0  0  0  0  0  0  0  0  0  0  0
  150.7822  137.4574  154.4435 C   0  0  0  0  0  0  0  0  0  0  0  0
  149.8472  138.6205  154.7940 C   0  0  0  0  0  0  0  0  0  0  0  0
  150.2764  139.7721  154.0830 O   0  0  0  0  0  0  0  0  0  0  0  0
  149.5260  140.9521  154.3444 C   0  0  1  0  0  0  0  0  0  0  0  0
  148.0331  140.7531  154.0130 C   0  0  0  0  0  0  0  0  0  0  0  0
  149.7344  141.3066  155.8220 C   0  0  0  0  0  0  0  0  0  0  0  0
  148.7624  141.3774  156.5746 O   0  0  0  0  0  0  0  0  0  0  0  0
  151.0137  141.5296  156.1827 N   0  0  0  0  0  0  0  0  0  0  0  0
  151.5443  141.8606  157.4414 C   0  0  0  0  0  0  0  0  0  0  0  0
  151.1462  142.9199  158.1993 C   0  0  0  0  0  0  0  0  0  0  0  0
  151.7291  143.2093  159.5035 C   0  0  0  0  0  0  0  0  0  0  0  0
  151.3877  144.4398  160.3250 C   0  0  0  0  0  0  0  0  0  0  0  0
  151.7477  145.5552  159.6899 F   0  0  0  0  0  0  0  0  0  0  0  0
  150.0793  144.5009  160.5736 F   0  0  0  0  0  0  0  0  0  0  0  0
  152.0308  144.4000  161.4909 F   0  0  0  0  0  0  0  0  0  0  0  0
  152.7075  142.2993  159.8536 C   0  0  0  0  0  0  0  0  0  0  0  0
  153.1367  141.2099  159.1795 N   0  5  0  0  0  0  0  0  0  0  0  0
  152.5865  140.9503  157.9599 C   0  0  0  0  0  0  0  0  0  0  0  0
  152.9376  139.9795  157.2882 O   0  0  0  0  0  0  0  0  0  0  0  0
  150.7704  133.9942  154.9324 H   0  0  0  0  0  0  0  0  0  0  0  0
  152.1811  135.0443  154.8350 H   0  0  0  0  0  0  0  0  0  0  0  0
  151.1267  134.8507  153.4351 H   0  0  0  0  0  0  0  0  0  0  0  0
  149.2540  135.9510  154.7031 H   0  0  0  0  0  0  0  0  0  0  0  0
  150.2982  136.1441  156.0898 H   0  0  0  0  0  0  0  0  0  0  0  0
  151.7797  137.6692  154.8300 H   0  0  0  0  0  0  0  0  0  0  0  0
  150.8797  137.3888  153.3594 H   0  0  0  0  0  0  0  0  0  0  0  0
  148.8217  138.3703  154.5184 H   0  0  0  0  0  0  0  0  0  0  0  0
  149.8679  138.7995  155.8689 H   0  0  0  0  0  0  0  0  0  0  0  0
  149.9157  141.7755  153.7422 H   0  0  0  0  0  0  0  0  0  0  0  0
  147.4365  141.5981  154.3591 H   0  0  0  0  0  0  0  0  0  0  0  0
  147.6371  139.8513  154.4813 H   0  0  0  0  0  0  0  0  0  0  0  0
  147.8688  140.6689  152.9393 H   0  0  0  0  0  0  0  0  0  0  0  0
  151.6975  141.4977  155.4404 H   0  0  0  0  0  0  0  0  0  0  0  0
  150.3617  143.5773  157.8629 H   0  0  0  0  0  0  0  0  0  0  0  0
  153.2290  142.4775  160.8182 H   0  0  0  0  0  0  0  0  0  0  0  0
  1  2  1  0  0  0  0
  1 22  1  0  0  0  0
  1 23  1  0  0  0  0
  1 24  1  0  0  0  0
  2  3  1  0  0  0  0
  2 25  1  0  0  0  0
  2 26  1  0  0  0  0
  3  4  1  0  0  0  0
  3 27  1  0  0  0  0
  3 28  1  0  0  0  0
  4  5  1  0  0  0  0
  4 29  1  0  0  0  0
  4 30  1  0  0  0  0
  5  6  1  0  0  0  0
  6  7  1  0  0  0  0
  6  8  1  0  0  0  0
  6 31  1  0  0  0  0
  7 32  1  0  0  0  0
  7 33  1  0  0  0  0
  7 34  1  0  0  0  0
  8  9  2  0  0  0  0
  8 10  1  0  0  0  0
 10 11  1  0  0  0  0
 10 35  1  0  0  0  0
 11 20  1  0  0  0  0
 11 12  2  0  0  0  0
 12 13  1  0  0  0  0
 12 36  1  0  0  0  0
 13 14  1  0  0  0  0
 13 18  2  0  0  0  0
 14 15  1  0  0  0  0
 14 16  1  0  0  0  0
 14 17  1  0  0  0  0
 18 19  1  0  0  0  0
 18 37  1  0  0  0  0
 19 20  1  0  0  0  0
 20 21  2  0  0  0  0
M  CHG  1  19  -1
M  END
> <s_m_source_file>
AV-unprocessed.smi

> <i_m_source_file_index>
1723

> <i_lp_mmshare_version>
43012

> <i_f3d_flags>
0

> <s_epik_input>
W0NIM11bQ0gyXVtDSDJdW0NIMl1PW0NASF0oW0NIM10pQyg9TylbTkhdYzFbY0hdYyhDKEYpKEYpRilbY0hdW25IXWMxPU8=

> <s_epik_cmdline>
J2VwaWtfcHl0aG9uJywgJy1waCcsICc3LjAnLCAnLXRuJywgJzgnLCAnLW1hJywgJzIwMCcsICctbWV0YWxfYmluZGluZycsICctaW1hZScsICc8aW5maWxlLm1hZT4nLCAnLW9tYWUnLCAnPG91dGZpbGUubWFlPic=

> <r_lp_tautomer_probability>
0.999

> <r_epik_Ionization_Penalty>
2.64397

> <r_epik_Ionization_Penalty_Charging>
0.0618254

> <r_epik_Ionization_Penalty_Neutral>
2.58215

> <r_epik_State_Penalty>
2.58023

> <r_epik_Charging_Adjusted_Penalty>
2.64205

> <i_epik_Tot_Q>
-1

> <i_epik_Tot_abs_Q>
1

> <r_epik_Metal_State_Penalty>
0.429101

> <b_epik_Metal_Only>
1

> <s_lp_Force_Field>
OPLS_2005

> <r_lp_Energy>
21.9007

> <b_lp_Chiralities_Consistent>
1

> <s_lp_Variant>
AV-unprocessed.smi:1723-4

> <Gold.Version>
5.8.1

> <Gold.Id.Protein>
6NUR|6NUR_protein|mol2

> <Gold.PLP.Fitness>
42.9153

> <Gold.PLP.PLP>
-41.2037

> <Gold.PLP.part.hbond>
-1.9069

> <Gold.PLP.part.metal>
0.0000

> <Gold.PLP.part.buried>
-5.7270

> <Gold.PLP.part.nonpolar>
-34.0919

> <Gold.PLP.part.repulsive>
0.3885

> <Gold.PLP.ligand.clash>
0.0714

> <Gold.PLP.ligand.torsion>
0.6622

> <Gold.PLP.Chemscore.Hbond>
1.0000

> <Gold.PLP.Chemscore.CHOScore>
0.0000

> <Gold.PLP.Chemscore.Metal>
0.0000

> <Gold.Chemscore.Hbonds>
donor molecule, donor type, donor heavy atom, donor atom, acceptor molecule, acceptor atom, score
      P1  H  7989  7998       L1     5  0.35
      P1  H  7997  8009       L1    21  1.00

> <Gold.PLP.Chemscore.Internal.Correction>
0.1074

> <Gold.Rescore>
     Score         DG    S(hbond)    S(metal)    S(lipo)     H(rot)  DE(clash)    DE(int)     intcor
     12.13     -13.05       0.90        0.00      81.77       1.95       0.35       0.57       ----

> <Gold.Chemscore.Fitness>
12.1320

> <Gold.Chemscore.DG>
-13.0468

> <Gold.Chemscore.ZeroCoef>
-5.4800

> <Gold.Chemscore.Hbond>
0.8963

> <Gold.Chemscore.Metal>
0.0000

> <Gold.Chemscore.Lipo>
81.7699

> <Gold.Chemscore.Internal_Hbond>
0.0000

> <Gold.Chemscore.DEClash>
0.3496

> <Gold.Chemscore.DEInternal>
0.5652

> <Gold.Chemscore.Rot>
1.9507

> <Gold.Chemscore.Internal.Correction>
   9.000000E+99

> <Gold.Chemscore.Hbonds>
donor molecule, donor type, donor heavy atom, donor atom, acceptor molecule, acceptor atom, score
      P1  H  7989  7998       L1     5  0.01
      P1  H  7997  8009       L1    21  0.78

> <Gold.Chemscore.Hbond.Weighted>
-2.9936

> <Gold.Chemscore.Metal.Weighted>
-0.0000

> <Gold.Chemscore.Lipo.Weighted>
-9.5671

> <Gold.Chemscore.Internal_Hbond.Weighted>
0.0000

> <Gold.Chemscore.DEClash.Weighted>
0.3496

> <Gold.Chemscore.DEInternal.Weighted>
0.5652

> <Gold.Chemscore.Rot.Weighted>
4.9939

> <Gold.Chemscore.Internal.Correction.Weighted>
   9.000000E+99

> <Gold.Protein.RotatedTorsions>
[ 6907 6896 6895 6894 ] final  155.74 input  -60.11 | X-H torsion
[ 7974 7965 7964 7962 ] final  -84.03 input  175.53 | X-H torsion
[ 8008 7997 7996 7995 ] final  164.35 input   59.86 | X-H torsion
[ 10167 10162 10161 10158 ] final   55.55 input  -65.29 | X-H torsion
[ 10718 10713 10712 10709 ] final   51.44 input   66.30 | X-H torsion
[ 10763 10752 10751 10750 ] final   30.90 input  -60.55 | X-H torsion
[ 11005 11000 10999 10996 ] final   60.79 input  -57.11 | X-H torsion

> <Gold.Protein.ActiveResidues>
 VAL166  LYS551  ARG553  GLY616  TRP617  ASP618  TYR619  PRO620  LYS621  CYS622 
 ASP623  PHE694  ASN695  SER759  ASP760  ASP761  ALA762  ILE779  LEU786  VAL792 
 PHE793  MET794  SER795  GLU796  ALA797  LYS798  CYS799  TRP800  GLU811  SER814 

> <Gold.Protein.RotatedAtoms>
  152.0398  133.3972  159.4331 H   0  0  0  0  0  0  0  0  0  0  0  0  # atno 6907 bound_to 6896
  150.6876  134.3428  159.4884 H   0  0  0  0  0  0  0  0  0  0  0  0  # atno 6908 bound_to 6896
  152.1225  134.9195  160.0613 H   0  0  0  0  0  0  0  0  0  0  0  0  # atno 6909 bound_to 6896
  145.5121  140.9539  143.1701 H   0  0  0  0  0  0  0  0  0  0  0  0  # atno 7974 bound_to 7965
  156.1886  140.1699  156.8136 H   0  0  0  0  0  0  0  0  0  0  0  0  # atno 8008 bound_to 7997
  154.5444  140.0730  156.8596 H   0  0  0  0  0  0  0  0  0  0  0  0  # atno 8009 bound_to 7997
  155.3151  140.3370  155.4245 H   0  0  0  0  0  0  0  0  0  0  0  0  # atno 8010 bound_to 7997
  140.2183  144.3816  150.6461 H   0  0  0  0  0  0  0  0  0  0  0  0  # atno 10167 bound_to 10162
  157.4981  130.8420  149.8283 H   0  0  0  0  0  0  0  0  0  0  0  0  # atno 10718 bound_to 10713
  153.0346  135.6452  154.1115 H   0  0  0  0  0  0  0  0  0  0  0  0  # atno 10763 bound_to 10752
  154.0832  135.2872  155.3288 H   0  0  0  0  0  0  0  0  0  0  0  0  # atno 10764 bound_to 10752
  154.6515  135.5424  153.7972 H   0  0  0  0  0  0  0  0  0  0  0  0  # atno 10765 bound_to 10752
  140.0207  134.6157  155.9644 H   0  0  0  0  0  0  0  0  0  0  0  0  # atno 11005 bound_to 11000
  144.7722  139.6710  143.7190 LP  0  0  0  0  0  0  0  0  0  0  0  0  # atno 17320 bound_to 7965
  146.2160  139.5550  142.9650 LP  0  0  0  0  0  0  0  0  0  0  0  0  # atno 17321 bound_to 7965
  140.6274  143.2183  151.6568 LP  0  0  0  0  0  0  0  0  0  0  0  0  # atno 17342 bound_to 10162
  139.5154  144.3381  152.0765 LP  0  0  0  0  0  0  0  0  0  0  0  0  # atno 17343 bound_to 10162
  156.0212  130.3795  150.1955 LP  0  0  0  0  0  0  0  0  0  0  0  0  # atno 17370 bound_to 10713
  157.0145  130.9961  151.3357 LP  0  0  0  0  0  0  0  0  0  0  0  0  # atno 17371 bound_to 10713
  141.1772  133.6541  156.4874 LP  0  0  0  0  0  0  0  0  0  0  0  0  # atno 17394 bound_to 11000
  140.4392  134.7031  157.4983 LP  0  0  0  0  0  0  0  0  0  0  0  0  # atno 17395 bound_to 11000

$$$$
