AV-unprocessed.smi:1701|AV-procd|sdf|6829|dock3
  -GOLD-   22720 8 03D 1   1.00000     0.00000
 Structure written by MMmdl.
 54 56  0  0  0  0  0  0  0  0  2 V2000
  143.9521  132.9871  147.9742 C   0  0  0  0  0  0  0  0  0  0  0  0
  143.8047  132.5845  149.4482 C   0  0  0  0  0  0  0  0  0  0  0  0
  144.9289  133.0190  150.2775 N   0  0  0  0  0  0  0  0  0  0  0  0
  146.1611  132.2266  150.2802 C   0  0  0  0  0  0  0  0  0  0  0  0
  145.9298  130.7566  150.6631 C   0  0  0  0  0  0  0  0  0  0  0  0
  144.8901  134.2669  150.9479 C   0  0  0  0  0  0  0  0  0  0  0  0
  143.6678  134.9324  151.2187 C   0  0  0  0  0  0  0  0  0  0  0  0
  143.6856  136.1692  151.8912 C   0  0  0  0  0  0  0  0  0  0  0  0
  144.9270  136.7221  152.2784 C   0  0  0  0  0  0  0  0  0  0  0  0
  145.0671  137.9452  152.9866 N   0  0  0  0  0  0  0  0  0  0  0  0
  145.9321  138.2402  153.9767 C   0  0  0  0  0  0  0  0  0  0  0  0
  146.6859  137.4291  154.5094 O   0  0  0  0  0  0  0  0  0  0  0  0
  145.8849  139.5191  154.3898 N   0  0  0  0  0  0  0  0  0  0  0  0
  146.6833  140.1591  155.4363 C   0  0  2  0  0  0  0  0  0  0  0  0
  145.8501  140.8286  156.5435 C   0  0  0  0  0  0  0  0  0  0  0  0
  146.5806  142.1457  156.8710 C   0  0  0  0  0  0  0  0  0  0  0  0
  147.8235  142.1534  156.0665 N   0  3  1  0  0  0  0  0  0  0  0  0
  149.0015  141.6916  156.8510 C   0  0  0  0  0  0  0  0  0  0  0  0
  150.2352  141.4732  155.9659 C   0  0  0  0  0  0  0  0  0  0  0  0
  149.9225  140.4561  154.8658 C   0  0  0  0  0  0  0  0  0  0  0  0
  148.7416  140.9575  154.0274 C   0  0  0  0  0  0  0  0  0  0  0  0
  147.5051  141.3260  154.8779 C   0  0  1  0  0  0  0  0  0  0  0  0
  146.0887  135.9845  151.9812 C   0  0  0  0  0  0  0  0  0  0  0  0
  146.0753  134.8014  151.3331 N   0  0  0  0  0  0  0  0  0  0  0  0
  143.0689  132.6930  147.4071 H   0  0  0  0  0  0  0  0  0  0  0  0
  144.8107  132.5011  147.5128 H   0  0  0  0  0  0  0  0  0  0  0  0
  144.0738  134.0644  147.8613 H   0  0  0  0  0  0  0  0  0  0  0  0
  142.8651  132.9573  149.8551 H   0  0  0  0  0  0  0  0  0  0  0  0
  143.7268  131.4988  149.5115 H   0  0  0  0  0  0  0  0  0  0  0  0
  146.6509  132.2900  149.3083 H   0  0  0  0  0  0  0  0  0  0  0  0
  146.8634  132.6679  150.9879 H   0  0  0  0  0  0  0  0  0  0  0  0
  146.8717  130.2081  150.6612 H   0  0  0  0  0  0  0  0  0  0  0  0
  145.2600  130.2604  149.9607 H   0  0  0  0  0  0  0  0  0  0  0  0
  145.4982  130.6622  151.6587 H   0  0  0  0  0  0  0  0  0  0  0  0
  142.7136  134.5258  150.9216 H   0  0  0  0  0  0  0  0  0  0  0  0
  142.7492  136.6590  152.1092 H   0  0  0  0  0  0  0  0  0  0  0  0
  144.4167  138.6728  152.7290 H   0  0  0  0  0  0  0  0  0  0  0  0
  145.1803  140.0998  153.9580 H   0  0  0  0  0  0  0  0  0  0  0  0
  147.3584  139.4272  155.8827 H   0  0  0  0  0  0  0  0  0  0  0  0
  144.8339  141.0421  156.2084 H   0  0  0  0  0  0  0  0  0  0  0  0
  145.7759  140.1819  157.4186 H   0  0  0  0  0  0  0  0  0  0  0  0
  145.9660  142.9908  156.5588 H   0  0  0  0  0  0  0  0  0  0  0  0
  146.7712  142.2636  157.9389 H   0  0  0  0  0  0  0  0  0  0  0  0
  149.2255  142.4302  157.6216 H   0  0  0  0  0  0  0  0  0  0  0  0
  148.7613  140.7627  157.3712 H   0  0  0  0  0  0  0  0  0  0  0  0
  150.5498  142.4192  155.5232 H   0  0  0  0  0  0  0  0  0  0  0  0
  151.0697  141.1200  156.5724 H   0  0  0  0  0  0  0  0  0  0  0  0
  150.7962  140.3081  154.2306 H   0  0  0  0  0  0  0  0  0  0  0  0
  149.6897  139.4860  155.3060 H   0  0  0  0  0  0  0  0  0  0  0  0
  149.0619  141.8430  153.4766 H   0  0  0  0  0  0  0  0  0  0  0  0
  148.4745  140.2167  153.2731 H   0  0  0  0  0  0  0  0  0  0  0  0
  146.8447  141.9284  154.2502 H   0  0  0  0  0  0  0  0  0  0  0  0
  147.0622  136.3549  152.2686 H   0  0  0  0  0  0  0  0  0  0  0  0
  148.0192  143.0964  155.7615 H   0  0  0  0  0  0  0  0  0  0  0  0
  1  2  1  0  0  0  0
  1 25  1  0  0  0  0
  1 26  1  0  0  0  0
  1 27  1  0  0  0  0
  2  3  1  0  0  0  0
  2 28  1  0  0  0  0
  2 29  1  0  0  0  0
  3  4  1  0  0  0  0
  3  6  1  0  0  0  0
  4  5  1  0  0  0  0
  4 30  1  0  0  0  0
  4 31  1  0  0  0  0
  5 32  1  0  0  0  0
  5 33  1  0  0  0  0
  5 34  1  0  0  0  0
  6 24  1  0  0  0  0
  6  7  2  0  0  0  0
  7  8  1  0  0  0  0
  7 35  1  0  0  0  0
  8  9  2  0  0  0  0
  8 36  1  0  0  0  0
  9 10  1  0  0  0  0
  9 23  1  0  0  0  0
 10 11  1  0  0  0  0
 10 37  1  0  0  0  0
 11 12  2  0  0  0  0
 11 13  1  0  0  0  0
 13 14  1  0  0  0  0
 13 38  1  0  0  0  0
 14 22  1  0  0  0  0
 14 15  1  0  0  0  0
 14 39  1  0  0  0  0
 15 16  1  0  0  0  0
 15 40  1  0  0  0  0
 15 41  1  0  0  0  0
 16 17  1  0  0  0  0
 16 42  1  0  0  0  0
 16 43  1  0  0  0  0
 17 22  1  0  0  0  0
 17 18  1  0  0  0  0
 17 54  1  0  0  0  0
 18 19  1  0  0  0  0
 18 44  1  0  0  0  0
 18 45  1  0  0  0  0
 19 20  1  0  0  0  0
 19 46  1  0  0  0  0
 19 47  1  0  0  0  0
 20 21  1  0  0  0  0
 20 48  1  0  0  0  0
 20 49  1  0  0  0  0
 21 22  1  0  0  0  0
 21 50  1  0  0  0  0
 21 51  1  0  0  0  0
 22 52  1  0  0  0  0
 23 24  2  0  0  0  0
 23 53  1  0  0  0  0
M  CHG  1  17   1
M  END
> <s_m_source_file>
AV-unprocessed.smi

> <i_m_source_file_index>
1701

> <i_lp_mmshare_version>
43012

> <i_f3d_flags>
0

> <s_epik_input>
W0NIM11bQ0gyXU4oW0NIMl1bQ0gzXSljMVtjSF1bY0hdYyhbY0hdbjEpW05IXUMoPU8pW05IXVtDQEhdKFtDSDJdW0NIMl0yKVtDQEBIXShOMjMpW0NIMl1bQ0gyXVtDSDJdW0NIMl0z

> <s_epik_cmdline>
J2VwaWtfcHl0aG9uJywgJy1waCcsICc3LjAnLCAnLXRuJywgJzgnLCAnLW1hJywgJzIwMCcsICctbWV0YWxfYmluZGluZycsICctaW1hZScsICc8aW5maWxlLm1hZT4nLCAnLW9tYWUnLCAnPG91dGZpbGUubWFlPic=

> <r_lp_tautomer_probability>
1

> <r_epik_Ionization_Penalty>
0.56662

> <r_epik_Ionization_Penalty_Charging>
0.000974069

> <r_epik_Ionization_Penalty_Neutral>
0.565646

> <r_epik_State_Penalty>
2.0247

> <r_epik_Charging_Adjusted_Penalty>
2.02568

> <i_epik_Tot_Q>
1

> <i_epik_Tot_abs_Q>
1

> <r_epik_Metal_State_Penalty>
1.51504

> <b_epik_Metal_Only>
0

> <s_lp_Force_Field>
OPLS_2005

> <r_lp_Energy>
57.8718

> <b_lp_Chiralities_Consistent>
1

> <s_lp_Variant>
AV-unprocessed.smi:1701-9

> <Gold.Version>
5.8.1

> <Gold.Id.Protein>
6NUR|6NUR_protein|mol2

> <Gold.PLP.Fitness>
51.8757

> <Gold.PLP.PLP>
-38.6708

> <Gold.PLP.part.hbond>
-3.0000

> <Gold.PLP.part.metal>
0.0000

> <Gold.PLP.part.buried>
-2.2476

> <Gold.PLP.part.nonpolar>
-33.4425

> <Gold.PLP.part.repulsive>
0.2398

> <Gold.PLP.ligand.clash>
0.0000

> <Gold.PLP.ligand.torsion>
0.8243

> <Gold.PLP.Chemscore.Hbond>
3.9100

> <Gold.PLP.Chemscore.CHOScore>
1.0000

> <Gold.PLP.Chemscore.Metal>
0.0000

> <Gold.Chemscore.Hbonds>
donor molecule, donor type, donor heavy atom, donor atom, acceptor molecule, acceptor atom, score
      L1  H    10    37       P1 10175  1.00
      L1  H    13    38       P1 10175  0.73
      L1  H    17    54       P1  8028  2.00
      L1  C    23    53       P1  7948  0.73

> <Gold.PLP.Chemscore.Internal.Correction>
0.1236

> <Gold.Rescore>
     Score         DG    S(hbond)    S(metal)    S(lipo)     H(rot)  DE(clash)    DE(int)     intcor
     20.22     -22.46       2.83        0.00      92.56       1.28       0.08       2.16       ----

> <Gold.Chemscore.Fitness>
20.2244

> <Gold.Chemscore.DG>
-22.4648

> <Gold.Chemscore.ZeroCoef>
-5.4800

> <Gold.Chemscore.Hbond>
2.8270

> <Gold.Chemscore.Metal>
0.0000

> <Gold.Chemscore.Lipo>
92.5560

> <Gold.Chemscore.Internal_Hbond>
0.0000

> <Gold.Chemscore.DEClash>
0.0803

> <Gold.Chemscore.DEInternal>
2.1600

> <Gold.Chemscore.Rot>
1.2838

> <Gold.Chemscore.Internal.Correction>
   9.000000E+99

> <Gold.Chemscore.Hbonds>
donor molecule, donor type, donor heavy atom, donor atom, acceptor molecule, acceptor atom, score
      L1  H    10    37       P1 10175  0.99
      L1  H    13    38       P1 10175  0.71
      L1  H    17    54       P1  8028  0.70

> <Gold.Chemscore.Hbond.Weighted>
-9.4423

> <Gold.Chemscore.Metal.Weighted>
-0.0000

> <Gold.Chemscore.Lipo.Weighted>
-10.8291

> <Gold.Chemscore.Internal_Hbond.Weighted>
0.0000

> <Gold.Chemscore.DEClash.Weighted>
0.0803

> <Gold.Chemscore.DEInternal.Weighted>
2.1600

> <Gold.Chemscore.Rot.Weighted>
3.2865

> <Gold.Chemscore.Internal.Correction.Weighted>
   9.000000E+99

> <Gold.Protein.RotatedTorsions>
[ 6907 6896 6895 6894 ] final  170.51 input  -60.11 | X-H torsion
[ 7974 7965 7964 7962 ] final -107.41 input  175.53 | X-H torsion
[ 8008 7997 7996 7995 ] final  -72.75 input   59.86 | X-H torsion
[ 10167 10162 10161 10158 ] final -150.41 input  -65.29 | X-H torsion
[ 10718 10713 10712 10709 ] final   74.17 input   66.30 | X-H torsion
[ 10763 10752 10751 10750 ] final -152.10 input  -60.55 | X-H torsion
[ 11005 11000 10999 10996 ] final   32.52 input  -57.11 | X-H torsion

> <Gold.Protein.ActiveResidues>
 VAL166  LYS551  ARG553  GLY616  TRP617  ASP618  TYR619  PRO620  LYS621  CYS622 
 ASP623  PHE694  ASN695  SER759  ASP760  ASP761  ALA762  ILE779  LEU786  VAL792 
 PHE793  MET794  SER795  GLU796  ALA797  LYS798  CYS799  TRP800  GLU811  SER814 

> <Gold.Protein.RotatedAtoms>
  151.8150  133.3387  159.3566 H   0  0  0  0  0  0  0  0  0  0  0  0  # atno 6907 bound_to 6896
  150.7313  134.5628  159.5860 H   0  0  0  0  0  0  0  0  0  0  0  0  # atno 6908 bound_to 6896
  152.3047  134.7570  160.0401 H   0  0  0  0  0  0  0  0  0  0  0  0  # atno 6909 bound_to 6896
  145.2056  140.9075  143.3344 H   0  0  0  0  0  0  0  0  0  0  0  0  # atno 7974 bound_to 7965
  154.5191  140.0791  156.8138 H   0  0  0  0  0  0  0  0  0  0  0  0  # atno 8008 bound_to 7997
  155.3615  140.3418  155.4223 H   0  0  0  0  0  0  0  0  0  0  0  0  # atno 8009 bound_to 7997
  156.1661  140.1604  156.8516 H   0  0  0  0  0  0  0  0  0  0  0  0  # atno 8010 bound_to 7997
  139.7357  143.8739  152.2548 H   0  0  0  0  0  0  0  0  0  0  0  0  # atno 10167 bound_to 10162
  157.6580  130.9665  150.1173 H   0  0  0  0  0  0  0  0  0  0  0  0  # atno 10718 bound_to 10713
  154.8016  135.3244  154.7536 H   0  0  0  0  0  0  0  0  0  0  0  0  # atno 10763 bound_to 10752
  153.8202  135.6888  153.4832 H   0  0  0  0  0  0  0  0  0  0  0  0  # atno 10764 bound_to 10752
  153.1736  135.4613  154.9879 H   0  0  0  0  0  0  0  0  0  0  0  0  # atno 10765 bound_to 10752
  140.2726  134.3064  155.7823 H   0  0  0  0  0  0  0  0  0  0  0  0  # atno 11005 bound_to 11000
  144.9905  139.3694  143.6217 LP  0  0  0  0  0  0  0  0  0  0  0  0  # atno 17320 bound_to 7965
  146.3408  139.9085  142.8784 LP  0  0  0  0  0  0  0  0  0  0  0  0  # atno 17321 bound_to 7965
  139.8675  144.7085  150.9026 LP  0  0  0  0  0  0  0  0  0  0  0  0  # atno 17342 bound_to 10162
  140.7778  143.3765  151.1553 LP  0  0  0  0  0  0  0  0  0  0  0  0  # atno 17343 bound_to 10162
  156.2054  130.3663  149.8736 LP  0  0  0  0  0  0  0  0  0  0  0  0  # atno 17370 bound_to 10713
  156.6629  130.8789  151.3550 LP  0  0  0  0  0  0  0  0  0  0  0  0  # atno 17371 bound_to 10713
  141.2175  133.7476  156.9358 LP  0  0  0  0  0  0  0  0  0  0  0  0  # atno 17394 bound_to 11000
  140.1358  134.9326  157.2400 LP  0  0  0  0  0  0  0  0  0  0  0  0  # atno 17395 bound_to 11000

$$$$
