AV-unprocessed.smi:1125|AV-procd|sdf|4834|dock3
  -GOLD-   22720 3393D 1   1.00000     0.00000
 Structure written by MMmdl.
 46 47  0  0  0  0  0  0  0  0  2 V2000
  143.7511  132.6205  148.3432 C   0  0  0  0  0  0  0  0  0  0  0  0
  144.7795  133.1231  149.2795 N   0  3  2  0  0  0  0  0  0  0  0  0
  145.7783  132.0832  149.6318 C   0  0  0  0  0  0  0  0  0  0  0  0
  146.8996  132.6663  150.5086 C   0  0  0  0  0  0  0  0  0  0  0  0
  146.3261  133.3225  151.7752 C   0  0  1  0  0  0  0  0  0  0  0  0
  147.4036  133.9225  152.5548 N   0  0  0  0  0  0  0  0  0  0  0  0
  147.6350  133.6966  153.8581 C   0  0  0  0  0  0  0  0  0  0  0  0
  146.9195  132.9813  154.5591 O   0  0  0  0  0  0  0  0  0  0  0  0
  148.8616  134.3809  154.4635 C   0  0  0  0  0  0  0  0  0  0  0  0
  149.7348  133.3669  155.1440 C   0  0  0  0  0  0  0  0  0  0  0  0
  150.6450  133.6011  156.1436 C   0  0  0  0  0  0  0  0  0  0  0  0
  151.4273  132.1359  156.6638 S   0  0  0  0  0  0  0  0  0  0  0  0
  150.4774  131.2307  155.4795 C   0  0  0  0  0  0  0  0  0  0  0  0
  150.5667  129.7406  155.2544 C   0  0  0  0  0  0  0  0  0  0  0  0
  149.6710  129.3364  154.0669 C   0  0  0  0  0  0  0  0  0  0  0  0
  150.0787  128.9557  156.4913 C   0  0  0  0  0  0  0  0  0  0  0  0
  152.0309  129.3395  154.9922 C   0  0  0  0  0  0  0  0  0  0  0  0
  149.6595  132.0206  154.7738 N   0  0  0  0  0  0  0  0  0  0  0  0
  145.2738  134.3745  151.3777 C   0  0  0  0  0  0  0  0  0  0  0  0
  144.1860  133.7559  150.4837 C   0  0  0  0  0  0  0  0  0  0  0  0
  143.1628  131.8232  148.7992 H   0  0  0  0  0  0  0  0  0  0  0  0
  144.2139  132.2290  147.4367 H   0  0  0  0  0  0  0  0  0  0  0  0
  143.0721  133.4218  148.0496 H   0  0  0  0  0  0  0  0  0  0  0  0
  145.2831  131.2625  150.1534 H   0  0  0  0  0  0  0  0  0  0  0  0
  146.2085  131.6661  148.7205 H   0  0  0  0  0  0  0  0  0  0  0  0
  147.6025  131.8775  150.7803 H   0  0  0  0  0  0  0  0  0  0  0  0
  147.4662  133.3994  149.9326 H   0  0  0  0  0  0  0  0  0  0  0  0
  145.8468  132.5465  152.3754 H   0  0  0  0  0  0  0  0  0  0  0  0
  148.0476  134.5245  152.0615 H   0  0  0  0  0  0  0  0  0  0  0  0
  149.4063  134.9026  153.6752 H   0  0  0  0  0  0  0  0  0  0  0  0
  148.5387  135.1443  155.1723 H   0  0  0  0  0  0  0  0  0  0  0  0
  150.8960  134.5429  156.6090 H   0  0  0  0  0  0  0  0  0  0  0  0
  149.7024  128.2602  153.8931 H   0  0  0  0  0  0  0  0  0  0  0  0
  149.9871  129.8225  153.1432 H   0  0  0  0  0  0  0  0  0  0  0  0
  148.6305  129.6117  154.2434 H   0  0  0  0  0  0  0  0  0  0  0  0
  149.0392  129.1854  156.7289 H   0  0  0  0  0  0  0  0  0  0  0  0
  150.6800  129.1785  157.3735 H   0  0  0  0  0  0  0  0  0  0  0  0
  150.1398  127.8795  156.3264 H   0  0  0  0  0  0  0  0  0  0  0  0
  152.1288  128.2640  154.8401 H   0  0  0  0  0  0  0  0  0  0  0  0
  152.6723  129.6133  155.8308 H   0  0  0  0  0  0  0  0  0  0  0  0
  152.4265  129.8303  154.1024 H   0  0  0  0  0  0  0  0  0  0  0  0
  144.8130  134.8047  152.2676 H   0  0  0  0  0  0  0  0  0  0  0  0
  145.7537  135.1994  150.8491 H   0  0  0  0  0  0  0  0  0  0  0  0
  143.4812  134.5310  150.1802 H   0  0  0  0  0  0  0  0  0  0  0  0
  143.6177  133.0123  151.0448 H   0  0  0  0  0  0  0  0  0  0  0  0
  145.2807  133.8506  148.7899 H   0  0  0  0  0  0  0  0  0  0  0  0
  1  2  1  0  0  0  0
  1 21  1  0  0  0  0
  1 22  1  0  0  0  0
  1 23  1  0  0  0  0
  2 20  1  0  0  0  0
  2  3  1  0  0  0  0
  2 46  1  0  0  0  0
  3  4  1  0  0  0  0
  3 24  1  0  0  0  0
  3 25  1  0  0  0  0
  4  5  1  0  0  0  0
  4 26  1  0  0  0  0
  4 27  1  0  0  0  0
  5  6  1  0  0  0  0
  5 19  1  0  0  0  0
  5 28  1  0  0  0  0
  6  7  1  0  0  0  0
  6 29  1  0  0  0  0
  7  8  2  0  0  0  0
  7  9  1  0  0  0  0
  9 10  1  0  0  0  0
  9 30  1  0  0  0  0
  9 31  1  0  0  0  0
 10 18  1  0  0  0  0
 10 11  2  0  0  0  0
 11 12  1  0  0  0  0
 11 32  1  0  0  0  0
 12 13  1  0  0  0  0
 13 14  1  0  0  0  0
 13 18  2  0  0  0  0
 14 15  1  0  0  0  0
 14 16  1  0  0  0  0
 14 17  1  0  0  0  0
 15 33  1  0  0  0  0
 15 34  1  0  0  0  0
 15 35  1  0  0  0  0
 16 36  1  0  0  0  0
 16 37  1  0  0  0  0
 16 38  1  0  0  0  0
 17 39  1  0  0  0  0
 17 40  1  0  0  0  0
 17 41  1  0  0  0  0
 19 20  1  0  0  0  0
 19 42  1  0  0  0  0
 19 43  1  0  0  0  0
 20 44  1  0  0  0  0
 20 45  1  0  0  0  0
M  CHG  1   2   1
M  END
> <s_m_source_file>
AV-unprocessed.smi

> <i_m_source_file_index>
1125

> <i_lp_mmshare_version>
43012

> <i_f3d_flags>
0

> <s_epik_input>
W0NIM11OMVtDSDJdW0NIMl1bQ0hdKFtDSDJdW0NIMl0xKVtOSF1DKD1PKVtDSDJdYzJbY0hdc2MobjIpQyhbQ0gzXSkoW0NIM10pW0NIM10=

> <s_epik_cmdline>
J2VwaWtfcHl0aG9uJywgJy1waCcsICc3LjAnLCAnLXRuJywgJzgnLCAnLW1hJywgJzIwMCcsICctbWV0YWxfYmluZGluZycsICctaW1hZScsICc8aW5maWxlLm1hZT4nLCAnLW9tYWUnLCAnPG91dGZpbGUubWFlPic=

> <r_epik_Ionization_Penalty>
0.00829478

> <r_epik_Ionization_Penalty_Charging>
0.0082618

> <r_epik_Ionization_Penalty_Neutral>
3.29858e-05

> <r_epik_State_Penalty>
0.00621662

> <r_epik_Charging_Adjusted_Penalty>
0.0144784

> <i_epik_Tot_Q>
1

> <i_epik_Tot_abs_Q>
1

> <r_epik_Metal_State_Penalty>
0.00621672

> <b_epik_Metal_Only>
0

> <s_lp_Force_Field>
OPLS_2005

> <r_lp_Energy>
7.4161

> <b_lp_Chiralities_Consistent>
1

> <s_lp_Variant>
AV-unprocessed.smi:1125-1

> <Gold.Version>
5.8.1

> <Gold.Id.Protein>
6NUR|6NUR_protein|mol2

> <Gold.PLP.Fitness>
40.7052

> <Gold.PLP.PLP>
-36.1597

> <Gold.PLP.part.hbond>
-2.0000

> <Gold.PLP.part.metal>
0.0000

> <Gold.PLP.part.buried>
-1.9705

> <Gold.PLP.part.nonpolar>
-32.9001

> <Gold.PLP.part.repulsive>
0.2294

> <Gold.PLP.ligand.clash>
0.0000

> <Gold.PLP.ligand.torsion>
0.5116

> <Gold.PLP.Chemscore.Hbond>
1.8500

> <Gold.PLP.Chemscore.CHOScore>
0.0000

> <Gold.PLP.Chemscore.Metal>
0.0000

> <Gold.Chemscore.Hbonds>
donor molecule, donor type, donor heavy atom, donor atom, acceptor molecule, acceptor atom, score
      L1  H     2    46       P1  7921  1.00
      L1  H     6    29       P1  7948  0.85

> <Gold.PLP.Chemscore.Internal.Correction>
0.0185

> <Gold.Rescore>
     Score         DG    S(hbond)    S(metal)    S(lipo)     H(rot)  DE(clash)    DE(int)     intcor
     16.94     -18.71       1.79        0.00      92.63       1.40       0.06       1.71       ----

> <Gold.Chemscore.Fitness>
16.9390

> <Gold.Chemscore.DG>
-18.7077

> <Gold.Chemscore.ZeroCoef>
-5.4800

> <Gold.Chemscore.Hbond>
1.7909

> <Gold.Chemscore.Metal>
0.0000

> <Gold.Chemscore.Lipo>
92.6315

> <Gold.Chemscore.Internal_Hbond>
0.0000

> <Gold.Chemscore.DEClash>
0.0580

> <Gold.Chemscore.DEInternal>
1.7107

> <Gold.Chemscore.Rot>
1.4030

> <Gold.Chemscore.Internal.Correction>
   9.000000E+99

> <Gold.Chemscore.Hbonds>
donor molecule, donor type, donor heavy atom, donor atom, acceptor molecule, acceptor atom, score
      L1  H     2    46       P1  7921  0.82
      L1  H     6    29       P1  7948  0.14

> <Gold.Chemscore.Hbond.Weighted>
-5.9816

> <Gold.Chemscore.Metal.Weighted>
-0.0000

> <Gold.Chemscore.Lipo.Weighted>
-10.8379

> <Gold.Chemscore.Internal_Hbond.Weighted>
0.0000

> <Gold.Chemscore.DEClash.Weighted>
0.0580

> <Gold.Chemscore.DEInternal.Weighted>
1.7107

> <Gold.Chemscore.Rot.Weighted>
3.5917

> <Gold.Chemscore.Internal.Correction.Weighted>
   9.000000E+99

> <Gold.Protein.RotatedTorsions>
[ 6907 6896 6895 6894 ] final  -43.92 input  -60.11 | X-H torsion
[ 7974 7965 7964 7962 ] final   97.75 input  175.53 | X-H torsion
[ 8008 7997 7996 7995 ] final    6.71 input   59.86 | X-H torsion
[ 10167 10162 10161 10158 ] final  137.43 input  -65.29 | X-H torsion
[ 10718 10713 10712 10709 ] final -114.21 input   66.30 | X-H torsion
[ 10763 10752 10751 10750 ] final  146.48 input  -60.55 | X-H torsion
[ 11005 11000 10999 10996 ] final  127.65 input  -57.11 | X-H torsion

> <Gold.Protein.ActiveResidues>
 VAL166  LYS551  ARG553  GLY616  TRP617  ASP618  TYR619  PRO620  LYS621  CYS622 
 ASP623  PHE694  ASN695  SER759  ASP760  ASP761  ALA762  ILE779  LEU786  VAL792 
 PHE793  MET794  SER795  GLU796  ALA797  LYS798  CYS799  TRP800  GLU811  SER814 

> <Gold.Protein.RotatedAtoms>
  150.9386  134.8796  159.7597 H   0  0  0  0  0  0  0  0  0  0  0  0  # atno 6907 bound_to 6896
  152.5070  134.3975  159.9415 H   0  0  0  0  0  0  0  0  0  0  0  0  # atno 6908 bound_to 6896
  151.3997  133.3721  159.2765 H   0  0  0  0  0  0  0  0  0  0  0  0  # atno 6909 bound_to 6896
  145.4214  139.2321  143.3194 H   0  0  0  0  0  0  0  0  0  0  0  0  # atno 7974 bound_to 7965
  154.7445  140.2755  155.6345 H   0  0  0  0  0  0  0  0  0  0  0  0  # atno 8008 bound_to 7997
  156.2881  140.2690  156.2107 H   0  0  0  0  0  0  0  0  0  0  0  0  # atno 8009 bound_to 7997
  155.0216  140.0371  157.2429 H   0  0  0  0  0  0  0  0  0  0  0  0  # atno 8010 bound_to 7997
  139.5144  144.6410  151.5569 H   0  0  0  0  0  0  0  0  0  0  0  0  # atno 10167 bound_to 10162
  156.0815  130.6014  150.8744 H   0  0  0  0  0  0  0  0  0  0  0  0  # atno 10718 bound_to 10713
  154.0226  135.2904  155.3379 H   0  0  0  0  0  0  0  0  0  0  0  0  # atno 10763 bound_to 10752
  154.7037  135.5178  153.8566 H   0  0  0  0  0  0  0  0  0  0  0  0  # atno 10764 bound_to 10752
  153.0674  135.6636  154.0447 H   0  0  0  0  0  0  0  0  0  0  0  0  # atno 10765 bound_to 10752
  139.9519  134.9620  156.8886 H   0  0  0  0  0  0  0  0  0  0  0  0  # atno 11005 bound_to 11000
  146.2655  140.4939  142.8836 LP  0  0  0  0  0  0  0  0  0  0  0  0  # atno 17320 bound_to 7965
  144.8243  140.6602  143.6332 LP  0  0  0  0  0  0  0  0  0  0  0  0  # atno 17321 bound_to 7965
  140.6177  143.9318  150.6501 LP  0  0  0  0  0  0  0  0  0  0  0  0  # atno 17342 bound_to 10162
  140.2581  143.3544  152.1347 LP  0  0  0  0  0  0  0  0  0  0  0  0  # atno 17343 bound_to 10162
  157.5934  131.0944  150.9081 LP  0  0  0  0  0  0  0  0  0  0  0  0  # atno 17370 bound_to 10713
  156.9253  130.5330  149.5279 LP  0  0  0  0  0  0  0  0  0  0  0  0  # atno 17371 bound_to 10713
  140.5700  134.0452  155.7427 LP  0  0  0  0  0  0  0  0  0  0  0  0  # atno 17394 bound_to 11000
  141.1183  133.9504  157.2780 LP  0  0  0  0  0  0  0  0  0  0  0  0  # atno 17395 bound_to 11000

$$$$
