AV-unprocessed.smi:1288|AV-procd|sdf|5384|dock10
  -GOLD-   22720 4533D 1   1.00000     0.00000
 Structure written by MMmdl.
 43 45  0  0  0  0  0  0  0  0  2 V2000
  149.7947  140.6832  155.3996 C   0  0  0  0  0  0  0  0  0  0  0  0
  150.4994  141.3195  156.5502 C   0  0  0  0  0  0  0  0  0  0  0  0
  150.6046  142.6577  156.7854 N   0  3  0  0  0  0  0  0  0  0  0  0
  151.3351  142.8755  157.9543 C   0  0  0  0  0  0  0  0  0  0  0  0
  151.7005  144.0569  158.5923 C   0  0  0  0  0  0  0  0  0  0  0  0
  152.4558  143.9293  159.7762 C   0  0  0  0  0  0  0  0  0  0  0  0
  152.8196  142.6643  160.2820 C   0  0  0  0  0  0  0  0  0  0  0  0
  152.4426  141.4737  159.6266 C   0  0  0  0  0  0  0  0  0  0  0  0
  151.6938  141.6077  158.4574 C   0  0  0  0  0  0  0  0  0  0  0  0
  151.1549  140.6780  157.5591 N   0  0  0  0  0  0  0  0  0  0  0  0
  151.3464  139.2372  157.7927 C   0  0  0  0  0  0  0  0  0  0  0  0
  150.1649  138.5886  158.5415 C   0  0  1  0  0  0  0  0  0  0  0  0
  148.9748  139.2859  158.2312 O   0  0  0  0  0  0  0  0  0  0  0  0
  149.9782  137.1147  158.1498 C   0  0  0  0  0  0  0  0  0  0  0  0
  149.6726  136.3655  159.3143 O   0  0  0  0  0  0  0  0  0  0  0  0
  148.3839  136.6511  159.8311 C   0  0  0  0  0  0  0  0  0  0  0  0
  147.8550  135.4947  160.6566 C   0  0  0  0  0  0  0  0  0  0  0  0
  147.8297  134.1938  160.1109 C   0  0  0  0  0  0  0  0  0  0  0  0
  147.3452  133.1141  160.8747 C   0  0  0  0  0  0  0  0  0  0  0  0
  146.8838  133.3310  162.1872 C   0  0  0  0  0  0  0  0  0  0  0  0
  146.9097  134.6274  162.7364 C   0  0  0  0  0  0  0  0  0  0  0  0
  147.3957  135.7083  161.9747 C   0  0  0  0  0  0  0  0  0  0  0  0
  147.4210  136.9501  162.5155 F   0  0  0  0  0  0  0  0  0  0  0  0
  149.3979  141.4423  154.7249 H   0  0  0  0  0  0  0  0  0  0  0  0
  148.9673  140.0708  155.7581 H   0  0  0  0  0  0  0  0  0  0  0  0
  150.4824  140.0486  154.8406 H   0  0  0  0  0  0  0  0  0  0  0  0
  151.4248  145.0271  158.2056 H   0  0  0  0  0  0  0  0  0  0  0  0
  152.7636  144.8193  160.3060 H   0  0  0  0  0  0  0  0  0  0  0  0
  153.4013  142.6055  161.1903 H   0  0  0  0  0  0  0  0  0  0  0  0
  152.7336  140.5109  160.0196 H   0  0  0  0  0  0  0  0  0  0  0  0
  151.5372  138.7374  156.8428 H   0  0  0  0  0  0  0  0  0  0  0  0
  152.2602  139.1281  158.3779 H   0  0  0  0  0  0  0  0  0  0  0  0
  150.3445  138.6597  159.6151 H   0  0  0  0  0  0  0  0  0  0  0  0
  148.3840  138.6872  157.7991 H   0  0  0  0  0  0  0  0  0  0  0  0
  149.2053  137.0029  157.3872 H   0  0  0  0  0  0  0  0  0  0  0  0
  150.9069  136.7268  157.7280 H   0  0  0  0  0  0  0  0  0  0  0  0
  148.4184  137.5496  160.4492 H   0  0  0  0  0  0  0  0  0  0  0  0
  147.6914  136.8561  159.0131 H   0  0  0  0  0  0  0  0  0  0  0  0
  148.1835  134.0199  159.1052 H   0  0  0  0  0  0  0  0  0  0  0  0
  147.3285  132.1194  160.4540 H   0  0  0  0  0  0  0  0  0  0  0  0
  146.5117  132.5034  162.7729 H   0  0  0  0  0  0  0  0  0  0  0  0
  146.5577  134.7932  163.7439 H   0  0  0  0  0  0  0  0  0  0  0  0
  150.2050  143.3692  156.1872 H   0  0  0  0  0  0  0  0  0  0  0  0
  1  2  1  0  0  0  0
  1 24  1  0  0  0  0
  1 25  1  0  0  0  0
  1 26  1  0  0  0  0
  2 10  1  0  0  0  0
  2  3  2  0  0  0  0
  3  4  1  0  0  0  0
  3 43  1  0  0  0  0
  4  9  2  0  0  0  0
  4  5  1  0  0  0  0
  5  6  2  0  0  0  0
  5 27  1  0  0  0  0
  6  7  1  0  0  0  0
  6 28  1  0  0  0  0
  7  8  2  0  0  0  0
  7 29  1  0  0  0  0
  8  9  1  0  0  0  0
  8 30  1  0  0  0  0
  9 10  1  0  0  0  0
 10 11  1  0  0  0  0
 11 12  1  0  0  0  0
 11 31  1  0  0  0  0
 11 32  1  0  0  0  0
 12 13  1  0  0  0  0
 12 14  1  0  0  0  0
 12 33  1  0  0  0  0
 13 34  1  0  0  0  0
 14 15  1  0  0  0  0
 14 35  1  0  0  0  0
 14 36  1  0  0  0  0
 15 16  1  0  0  0  0
 16 17  1  0  0  0  0
 16 37  1  0  0  0  0
 16 38  1  0  0  0  0
 17 22  1  0  0  0  0
 17 18  2  0  0  0  0
 18 19  1  0  0  0  0
 18 39  1  0  0  0  0
 19 20  2  0  0  0  0
 19 40  1  0  0  0  0
 20 21  1  0  0  0  0
 20 41  1  0  0  0  0
 21 22  2  0  0  0  0
 21 42  1  0  0  0  0
 22 23  1  0  0  0  0
M  CHG  1   3   1
M  END
> <s_m_source_file>
AV-unprocessed.smi

> <i_m_source_file_index>
1288

> <i_lp_mmshare_version>
43012

> <i_f3d_flags>
0

> <s_epik_input>
W2NIXTFbY0hdW2NIXVtjSF1jKGMxMiluKGMobjIpW0NIM10pW0NIMl1bQ0BIXShbT0hdKVtDSDJdT1tDSDJdYzNbY0hdW2NIXVtjSF1bY0hdYzNG

> <s_epik_cmdline>
J2VwaWtfcHl0aG9uJywgJy1waCcsICc3LjAnLCAnLXRuJywgJzgnLCAnLW1hJywgJzIwMCcsICctbWV0YWxfYmluZGluZycsICctaW1hZScsICc8aW5maWxlLm1hZT4nLCAnLW9tYWUnLCAnPG91dGZpbGUubWFlPic=

> <r_epik_Ionization_Penalty>
0.952

> <r_epik_Ionization_Penalty_Charging>
0.951999

> <r_epik_Ionization_Penalty_Neutral>
1.07667e-06

> <r_epik_State_Penalty>
0.996343

> <r_epik_Charging_Adjusted_Penalty>
1.94834

> <i_epik_Tot_Q>
1

> <i_epik_Tot_abs_Q>
1

> <r_epik_Metal_State_Penalty>
4.96724

> <b_epik_Metal_Only>
0

> <s_lp_Force_Field>
OPLS_2005

> <r_lp_Energy>
19.2213

> <b_lp_Chiralities_Consistent>
1

> <s_lp_Variant>
AV-unprocessed.smi:1288-4

> <Gold.Version>
5.8.1

> <Gold.Id.Protein>
6NUR|6NUR_protein|mol2

> <Gold.PLP.Fitness>
59.1911

> <Gold.PLP.PLP>
-53.1725

> <Gold.PLP.part.hbond>
-2.5085

> <Gold.PLP.part.metal>
0.0000

> <Gold.PLP.part.buried>
-5.6844

> <Gold.PLP.part.nonpolar>
-46.1254

> <Gold.PLP.part.repulsive>
0.0356

> <Gold.PLP.ligand.clash>
0.0000

> <Gold.PLP.ligand.torsion>
1.5047

> <Gold.PLP.Chemscore.Hbond>
3.0000

> <Gold.PLP.Chemscore.CHOScore>
0.0000

> <Gold.PLP.Chemscore.Metal>
0.0000

> <Gold.Chemscore.Hbonds>
donor molecule, donor type, donor heavy atom, donor atom, acceptor molecule, acceptor atom, score
      L1  H     3    43       P1  8028  2.00
      P1  H  6896  6909       L1    15  1.00

> <Gold.PLP.Chemscore.Internal.Correction>
0.0280

> <Gold.Rescore>
     Score         DG    S(hbond)    S(metal)    S(lipo)     H(rot)  DE(clash)    DE(int)     intcor
     19.32     -21.04       1.97        0.00     128.81       2.38       0.22       1.50       ----

> <Gold.Chemscore.Fitness>
19.3200

> <Gold.Chemscore.DG>
-21.0397

> <Gold.Chemscore.ZeroCoef>
-5.4800

> <Gold.Chemscore.Hbond>
1.9711

> <Gold.Chemscore.Metal>
0.0000

> <Gold.Chemscore.Lipo>
128.8141

> <Gold.Chemscore.Internal_Hbond>
0.0000

> <Gold.Chemscore.DEClash>
0.2238

> <Gold.Chemscore.DEInternal>
1.4959

> <Gold.Chemscore.Rot>
2.3809

> <Gold.Chemscore.Internal.Correction>
   9.000000E+99

> <Gold.Chemscore.Hbonds>
donor molecule, donor type, donor heavy atom, donor atom, acceptor molecule, acceptor atom, score
      L1  H     3    43       P1  8028  0.97
      P1  H  6896  6909       L1    15  0.89

> <Gold.Chemscore.Hbond.Weighted>
-6.5835

> <Gold.Chemscore.Metal.Weighted>
-0.0000

> <Gold.Chemscore.Lipo.Weighted>
-15.0713

> <Gold.Chemscore.Internal_Hbond.Weighted>
0.0000

> <Gold.Chemscore.DEClash.Weighted>
0.2238

> <Gold.Chemscore.DEInternal.Weighted>
1.4959

> <Gold.Chemscore.Rot.Weighted>
6.0951

> <Gold.Chemscore.Internal.Correction.Weighted>
   9.000000E+99

> <Gold.Protein.RotatedTorsions>
[ 6907 6896 6895 6894 ] final   55.83 input  -60.11 | X-H torsion
[ 7974 7965 7964 7962 ] final  152.06 input  175.53 | X-H torsion
[ 8008 7997 7996 7995 ] final  -87.56 input   59.86 | X-H torsion
[ 10167 10162 10161 10158 ] final  176.27 input  -65.29 | X-H torsion
[ 10718 10713 10712 10709 ] final  122.35 input   66.30 | X-H torsion
[ 10763 10752 10751 10750 ] final   88.71 input  -60.55 | X-H torsion
[ 11005 11000 10999 10996 ] final   50.93 input  -57.11 | X-H torsion

> <Gold.Protein.ActiveResidues>
 VAL166  LYS551  ARG553  GLY616  TRP617  ASP618  TYR619  PRO620  LYS621  CYS622 
 ASP623  PHE694  ASN695  SER759  ASP760  ASP761  ALA762  ILE779  LEU786  VAL792 
 PHE793  MET794  SER795  GLU796  ALA797  LYS798  CYS799  TRP800  GLU811  SER814 

> <Gold.Protein.RotatedAtoms>
  152.3577  134.6917  160.0216 H   0  0  0  0  0  0  0  0  0  0  0  0  # atno 6907 bound_to 6896
  151.7250  133.3310  159.3333 H   0  0  0  0  0  0  0  0  0  0  0  0  # atno 6908 bound_to 6896
  150.7583  134.6348  159.6250 H   0  0  0  0  0  0  0  0  0  0  0  0  # atno 6909 bound_to 6896
  144.8249  139.6618  143.6084 H   0  0  0  0  0  0  0  0  0  0  0  0  # atno 7974 bound_to 7965
  154.6647  140.0564  157.0100 H   0  0  0  0  0  0  0  0  0  0  0  0  # atno 8008 bound_to 7997
  155.1177  140.3244  155.4487 H   0  0  0  0  0  0  0  0  0  0  0  0  # atno 8009 bound_to 7997
  156.2633  140.2003  156.6300 H   0  0  0  0  0  0  0  0  0  0  0  0  # atno 8010 bound_to 7997
  139.5208  144.2934  152.0443 H   0  0  0  0  0  0  0  0  0  0  0  0  # atno 10167 bound_to 10162
  157.5749  131.1080  150.8298 H   0  0  0  0  0  0  0  0  0  0  0  0  # atno 10718 bound_to 10713
  153.1796  135.4497  155.0011 H   0  0  0  0  0  0  0  0  0  0  0  0  # atno 10763 bound_to 10752
  154.8021  135.3260  154.7526 H   0  0  0  0  0  0  0  0  0  0  0  0  # atno 10764 bound_to 10752
  153.7992  135.6964  153.4913 H   0  0  0  0  0  0  0  0  0  0  0  0  # atno 10765 bound_to 10752
  140.0975  134.5125  155.8793 H   0  0  0  0  0  0  0  0  0  0  0  0  # atno 11005 bound_to 11000
  146.2554  139.6291  142.9398 LP  0  0  0  0  0  0  0  0  0  0  0  0  # atno 17320 bound_to 7965
  145.5023  141.0437  143.2534 LP  0  0  0  0  0  0  0  0  0  0  0  0  # atno 17321 bound_to 7965
  140.2384  144.4295  150.6270 LP  0  0  0  0  0  0  0  0  0  0  0  0  # atno 17342 bound_to 10162
  140.6307  143.2187  151.6501 LP  0  0  0  0  0  0  0  0  0  0  0  0  # atno 17343 bound_to 10162
  156.8760  130.5162  149.5294 LP  0  0  0  0  0  0  0  0  0  0  0  0  # atno 17370 bound_to 10713
  156.0793  130.5808  150.9534 LP  0  0  0  0  0  0  0  0  0  0  0  0  # atno 17371 bound_to 10713
  141.2096  133.6686  156.6452 LP  0  0  0  0  0  0  0  0  0  0  0  0  # atno 17394 bound_to 11000
  140.3265  134.7964  157.4293 LP  0  0  0  0  0  0  0  0  0  0  0  0  # atno 17395 bound_to 11000

$$$$
