AV-unprocessed.smi:561|AV-procd|sdf|2940|dock1
  -GOLD-   2262023433D 1   1.00000     0.00000
 Structure written by MMmdl.
 36 37  0  0  0  0  0  0  0  0  3 V2000
  150.5326  137.6471  154.4581 C   0  0  0  0  0  0  0  0  0  0  0  0
  149.7676  138.8839  154.9487 C   0  0  2  0  0  0  0  0  0  0  0  0
  149.7811  140.0100  153.8830 C   0  0  0  0  0  0  0  0  0  0  0  0
  148.5105  140.7479  153.7586 N   0  0  0  0  0  0  0  0  0  0  0  0
  148.3067  142.0890  153.9729 C   0  0  0  0  0  0  0  0  0  0  0  0
  146.9768  142.3269  153.7419 C   0  0  0  0  0  0  0  0  0  0  0  0
  146.4246  141.1263  153.3843 N   0  3  0  0  0  0  0  0  0  0  0  0
  147.3582  140.1696  153.3873 C   0  0  0  0  0  0  0  0  0  0  0  0
  150.3851  139.3541  156.1938 N   0  5  0  0  0  0  0  0  0  0  0  0
  151.5426  140.0782  156.2849 C   0  0  0  0  0  0  0  0  0  0  0  0
  152.4901  140.0377  155.4903 O   0  0  0  0  0  0  0  0  0  0  0  0
  151.7271  140.9959  157.4483 C   0  0  0  0  0  0  0  0  0  0  0  0
  151.8755  142.2677  157.2438 N   0  0  0  0  0  0  0  0  0  0  0  0
  152.0302  143.1675  158.2781 N   0  0  0  0  0  0  0  0  0  0  0  0
  151.9234  144.5720  157.8886 C   0  0  0  0  0  0  0  0  0  0  0  0
  152.3007  142.8268  159.5623 C   0  0  0  0  0  0  0  0  0  0  0  0
  152.4219  143.6428  160.4762 O   0  0  0  0  0  0  0  0  0  0  0  0
  152.4922  141.3348  159.8462 C   0  0  0  0  0  0  0  0  0  0  0  0
  151.7035  140.4465  158.8640 C   0  0  0  0  0  0  0  0  0  0  0  0
  150.0948  137.2556  153.5397 H   0  0  0  0  0  0  0  0  0  0  0  0
  150.5062  136.8473  155.1991 H   0  0  0  0  0  0  0  0  0  0  0  0
  151.5787  137.8789  154.2542 H   0  0  0  0  0  0  0  0  0  0  0  0
  148.7309  138.5788  155.0998 H   0  0  0  0  0  0  0  0  0  0  0  0
  150.5676  140.7348  154.0999 H   0  0  0  0  0  0  0  0  0  0  0  0
  150.0089  139.5923  152.9013 H   0  0  0  0  0  0  0  0  0  0  0  0
  149.1036  142.7507  154.2806 H   0  0  0  0  0  0  0  0  0  0  0  0
  146.3976  143.2364  153.8050 H   0  0  0  0  0  0  0  0  0  0  0  0
  147.2099  139.1307  153.1520 H   0  0  0  0  0  0  0  0  0  0  0  0
  152.8693  145.0881  158.0585 H   0  0  0  0  0  0  0  0  0  0  0  0
  151.1488  145.0762  158.4681 H   0  0  0  0  0  0  0  0  0  0  0  0
  151.6702  144.6856  156.8334 H   0  0  0  0  0  0  0  0  0  0  0  0
  153.5578  141.1204  159.7583 H   0  0  0  0  0  0  0  0  0  0  0  0
  152.2095  141.1079  160.8747 H   0  0  0  0  0  0  0  0  0  0  0  0
  150.6687  140.3511  159.1951 H   0  0  0  0  0  0  0  0  0  0  0  0
  152.1319  139.4444  158.8982 H   0  0  0  0  0  0  0  0  0  0  0  0
  145.4500  140.9792  153.1547 H   0  0  0  0  0  0  0  0  0  0  0  0
  1  2  1  0  0  0  0
  1 20  1  0  0  0  0
  1 21  1  0  0  0  0
  1 22  1  0  0  0  0
  2  3  1  0  0  0  0
  2  9  1  0  0  0  0
  2 23  1  0  0  0  0
  3  4  1  0  0  0  0
  3 24  1  0  0  0  0
  3 25  1  0  0  0  0
  4  8  1  0  0  0  0
  4  5  1  0  0  0  0
  5  6  2  0  0  0  0
  5 26  1  0  0  0  0
  6  7  1  0  0  0  0
  6 27  1  0  0  0  0
  7  8  2  0  0  0  0
  7 36  1  0  0  0  0
  8 28  1  0  0  0  0
  9 10  1  0  0  0  0
 10 11  2  0  0  0  0
 10 12  1  0  0  0  0
 12 19  1  0  0  0  0
 12 13  2  0  0  0  0
 13 14  1  0  0  0  0
 14 15  1  0  0  0  0
 14 16  1  0  0  0  0
 15 29  1  0  0  0  0
 15 30  1  0  0  0  0
 15 31  1  0  0  0  0
 16 17  2  0  0  0  0
 16 18  1  0  0  0  0
 18 19  1  0  0  0  0
 18 32  1  0  0  0  0
 18 33  1  0  0  0  0
 19 34  1  0  0  0  0
 19 35  1  0  0  0  0
M  CHG  1   7   1
M  CHG  1   9  -1
M  END
> <s_m_source_file>
AV-unprocessed.smi

> <i_m_source_file_index>
561

> <i_lp_mmshare_version>
43012

> <i_f3d_flags>
0

> <s_epik_input>
W2NIXTFuW2NIXVtjSF1uMVtDSDJdW0NAQEhdKFtDSDNdKVtOSF1DKD1PKUMyPU5OKFtDSDNdKUMoPU8pW0NIMl1bQ0gyXTI=

> <s_epik_cmdline>
J2VwaWtfcHl0aG9uJywgJy1waCcsICc3LjAnLCAnLXRuJywgJzgnLCAnLW1hJywgJzIwMCcsICctbWV0YWxfYmluZGluZycsICctaW1hZScsICc8aW5maWxlLm1hZT4nLCAnLW9tYWUnLCAnPG91dGZpbGUubWFlPic=

> <r_lp_tautomer_probability>
1

> <r_epik_Ionization_Penalty>
5.37239

> <r_epik_Ionization_Penalty_Charging>
5.18263

> <r_epik_Ionization_Penalty_Neutral>
0.189756

> <r_epik_State_Penalty>
5.53772

> <r_epik_Charging_Adjusted_Penalty>
10.7204

> <i_epik_Tot_Q>
0

> <i_epik_Tot_abs_Q>
2

> <r_epik_Metal_State_Penalty>
1.80836

> <b_epik_Metal_Only>
1

> <s_epik_Chemistry_Notes>
This compound has an imine and may undergo hydrolysis.

> <s_lp_Force_Field>
OPLS_2005

> <r_lp_Energy>
20.2917

> <b_lp_Chiralities_Consistent>
1

> <s_lp_Variant>
AV-unprocessed.smi:561-5

> <Gold.Version>
5.8.1

> <Gold.Id.Protein>
6NUR|6NUR_protein|mol2

> <Gold.PLP.Fitness>
44.9683

> <Gold.PLP.PLP>
-35.9264

> <Gold.PLP.part.hbond>
-3.0000

> <Gold.PLP.part.metal>
0.0000

> <Gold.PLP.part.buried>
4.0846

> <Gold.PLP.part.nonpolar>
-35.8283

> <Gold.PLP.part.repulsive>
0.1032

> <Gold.PLP.ligand.clash>
0.0000

> <Gold.PLP.ligand.torsion>
2.0872

> <Gold.PLP.Chemscore.Hbond>
3.3640

> <Gold.PLP.Chemscore.CHOScore>
1.0000

> <Gold.PLP.Chemscore.Metal>
0.0000

> <Gold.Chemscore.Hbonds>
donor molecule, donor type, donor heavy atom, donor atom, acceptor molecule, acceptor atom, score
      L1  H     7    36       P1 10175  2.00
      P1  H  7989  7998       L1    11  0.20
      P1  H  7997  8009       L1    11  1.00
      L1  C     5    26       P1  8028  0.93

> <Gold.PLP.Chemscore.Internal.Correction>
0.1243

> <Gold.Rescore>
     Score         DG    S(hbond)    S(metal)    S(lipo)     H(rot)  DE(clash)    DE(int)     intcor
     11.65     -15.69       2.09        0.00      65.50       1.73       1.82       2.22       ----

> <Gold.Chemscore.Fitness>
11.6492

> <Gold.Chemscore.DG>
-15.6881

> <Gold.Chemscore.ZeroCoef>
-5.4800

> <Gold.Chemscore.Hbond>
2.0878

> <Gold.Chemscore.Metal>
0.0000

> <Gold.Chemscore.Lipo>
65.5001

> <Gold.Chemscore.Internal_Hbond>
0.0000

> <Gold.Chemscore.DEClash>
1.8218

> <Gold.Chemscore.DEInternal>
2.2171

> <Gold.Chemscore.Rot>
1.7299

> <Gold.Chemscore.Internal.Correction>
   9.000000E+99

> <Gold.Chemscore.Hbonds>
donor molecule, donor type, donor heavy atom, donor atom, acceptor molecule, acceptor atom, score
      L1  H     7    36       P1 10175  0.44
      P1  H  7989  7998       L1    11  0.11
      P1  H  7997  8009       L1    11  0.94

> <Gold.Chemscore.Hbond.Weighted>
-6.9732

> <Gold.Chemscore.Metal.Weighted>
-0.0000

> <Gold.Chemscore.Lipo.Weighted>
-7.6635

> <Gold.Chemscore.Internal_Hbond.Weighted>
0.0000

> <Gold.Chemscore.DEClash.Weighted>
1.8218

> <Gold.Chemscore.DEInternal.Weighted>
2.2171

> <Gold.Chemscore.Rot.Weighted>
4.4286

> <Gold.Chemscore.Internal.Correction.Weighted>
   9.000000E+99

> <Gold.Protein.RotatedTorsions>
[ 6907 6896 6895 6894 ] final   95.76 input  -60.11 | X-H torsion
[ 7974 7965 7964 7962 ] final  -58.65 input  175.53 | X-H torsion
[ 8008 7997 7996 7995 ] final -154.97 input   59.86 | X-H torsion
[ 10167 10162 10161 10158 ] final  132.82 input  -65.29 | X-H torsion
[ 10718 10713 10712 10709 ] final -143.60 input   66.30 | X-H torsion
[ 10763 10752 10751 10750 ] final   95.29 input  -60.55 | X-H torsion
[ 11005 11000 10999 10996 ] final -177.39 input  -57.11 | X-H torsion

> <Gold.Protein.ActiveResidues>
 VAL166  LYS551  ARG553  GLY616  TRP617  ASP618  TYR619  PRO620  LYS621  CYS622 
 ASP623  PHE694  ASN695  SER759  ASP760  ASP761  ALA762  ILE779  LEU786  VAL792 
 PHE793  MET794  SER795  GLU796  ALA797  LYS798  CYS799  TRP800  GLU811  SER814 

> <Gold.Protein.RotatedAtoms>
  152.5441  134.0991  159.8309 H   0  0  0  0  0  0  0  0  0  0  0  0  # atno 6907 bound_to 6896
  151.1071  133.5193  159.2614 H   0  0  0  0  0  0  0  0  0  0  0  0  # atno 6908 bound_to 6896
  151.1926  135.0418  159.8893 H   0  0  0  0  0  0  0  0  0  0  0  0  # atno 6909 bound_to 6896
  145.8368  140.8443  143.0055 H   0  0  0  0  0  0  0  0  0  0  0  0  # atno 7974 bound_to 7965
  155.6946  140.0759  157.2434 H   0  0  0  0  0  0  0  0  0  0  0  0  # atno 8008 bound_to 7997
  154.4083  140.1658  156.2177 H   0  0  0  0  0  0  0  0  0  0  0  0  # atno 8009 bound_to 7997
  155.9421  140.3383  155.6339 H   0  0  0  0  0  0  0  0  0  0  0  0  # atno 8010 bound_to 7997
  139.5323  144.6644  151.4907 H   0  0  0  0  0  0  0  0  0  0  0  0  # atno 10167 bound_to 10162
  156.3599  130.7732  151.1898 H   0  0  0  0  0  0  0  0  0  0  0  0  # atno 10718 bound_to 10713
  153.2515  135.4259  155.0802 H   0  0  0  0  0  0  0  0  0  0  0  0  # atno 10763 bound_to 10752
  154.8383  135.3427  154.6506 H   0  0  0  0  0  0  0  0  0  0  0  0  # atno 10764 bound_to 10752
  153.6927  135.7033  153.5142 H   0  0  0  0  0  0  0  0  0  0  0  0  # atno 10765 bound_to 10752
  140.4414  134.6428  157.4759 H   0  0  0  0  0  0  0  0  0  0  0  0  # atno 11005 bound_to 11000
  144.6736  140.0754  143.7471 LP  0  0  0  0  0  0  0  0  0  0  0  0  # atno 17320 bound_to 7965
  145.9509  139.2733  143.1213 LP  0  0  0  0  0  0  0  0  0  0  0  0  # atno 17321 bound_to 7965
  140.6509  143.8699  150.6784 LP  0  0  0  0  0  0  0  0  0  0  0  0  # atno 17342 bound_to 10162
  140.2063  143.3919  152.1752 LP  0  0  0  0  0  0  0  0  0  0  0  0  # atno 17343 bound_to 10162
  157.7472  131.0403  150.4592 LP  0  0  0  0  0  0  0  0  0  0  0  0  # atno 17370 bound_to 10713
  156.4801  130.4072  149.6467 LP  0  0  0  0  0  0  0  0  0  0  0  0  # atno 17371 bound_to 10713
  140.0067  134.6753  155.9444 LP  0  0  0  0  0  0  0  0  0  0  0  0  # atno 17394 bound_to 11000
  141.1704  133.6537  156.4630 LP  0  0  0  0  0  0  0  0  0  0  0  0  # atno 17395 bound_to 11000

$$$$
