AV-unprocessed.smi:389|AV-procd|sdf|2477|dock4
  -GOLD-   2262022413D 1   1.00000     0.00000
 Structure written by MMmdl.
 33 33  0  0  0  0  0  0  0  0  2 V2000
  151.9634  144.2916  159.1741 C   0  0  0  0  0  0  0  0  0  0  0  0
  152.3316  143.2389  160.2333 C   0  0  0  0  0  0  0  0  0  0  0  0
  152.1603  143.8191  161.6456 C   0  0  0  0  0  0  0  0  0  0  0  0
  153.7567  142.6816  160.0409 C   0  0  0  0  0  0  0  0  0  0  0  0
  154.0200  141.3624  160.7920 C   0  0  0  0  0  0  0  0  0  0  0  0
  153.2583  140.2571  160.2229 N   0  0  0  0  0  0  0  0  0  0  0  0
  153.7391  139.3557  159.3533 C   0  0  0  0  0  0  0  0  0  0  0  0
  154.8936  139.3835  158.9239 O   0  0  0  0  0  0  0  0  0  0  0  0
  152.7485  138.2812  158.8835 C   0  0  0  0  0  0  0  0  0  0  0  0
  152.1331  138.5883  157.5822 N   0  0  0  0  0  0  0  0  0  0  0  0
  151.4648  139.8183  157.4504 C   0  0  0  0  0  0  0  0  0  0  0  0
  150.8763  140.1872  156.2968 C   0  0  0  0  0  0  0  0  0  0  0  0
  150.9444  139.2724  155.1640 C   0  0  0  0  0  0  0  0  0  0  0  0
  150.4081  139.5904  154.1043 O   0  0  0  0  0  0  0  0  0  0  0  0
  151.6093  138.0930  155.3398 N   0  5  0  0  0  0  0  0  0  0  0  0
  152.2066  137.7327  156.5182 C   0  0  0  0  0  0  0  0  0  0  0  0
  152.8057  136.6653  156.6540 O   0  0  0  0  0  0  0  0  0  0  0  0
  152.6599  145.1305  159.1912 H   0  0  0  0  0  0  0  0  0  0  0  0
  150.9630  144.6890  159.3482 H   0  0  0  0  0  0  0  0  0  0  0  0
  151.9690  143.8721  158.1685 H   0  0  0  0  0  0  0  0  0  0  0  0
  151.6300  142.4090  160.1398 H   0  0  0  0  0  0  0  0  0  0  0  0
  152.8339  144.6601  161.8139 H   0  0  0  0  0  0  0  0  0  0  0  0
  152.3682  143.0683  162.4085 H   0  0  0  0  0  0  0  0  0  0  0  0
  151.1410  144.1721  161.8048 H   0  0  0  0  0  0  0  0  0  0  0  0
  153.9595  142.5474  158.9774 H   0  0  0  0  0  0  0  0  0  0  0  0
  154.4714  143.4283  160.3897 H   0  0  0  0  0  0  0  0  0  0  0  0
  155.0847  141.1224  160.7862 H   0  0  0  0  0  0  0  0  0  0  0  0
  153.7268  141.4543  161.8372 H   0  0  0  0  0  0  0  0  0  0  0  0
  152.2985  140.1611  160.5219 H   0  0  0  0  0  0  0  0  0  0  0  0
  153.2519  137.3133  158.8423 H   0  0  0  0  0  0  0  0  0  0  0  0
  151.9791  138.1707  159.6487 H   0  0  0  0  0  0  0  0  0  0  0  0
  151.4673  140.4396  158.3340 H   0  0  0  0  0  0  0  0  0  0  0  0
  150.3703  141.1376  156.2109 H   0  0  0  0  0  0  0  0  0  0  0  0
  1  2  1  0  0  0  0
  1 18  1  0  0  0  0
  1 19  1  0  0  0  0
  1 20  1  0  0  0  0
  2  3  1  0  0  0  0
  2  4  1  0  0  0  0
  2 21  1  0  0  0  0
  3 22  1  0  0  0  0
  3 23  1  0  0  0  0
  3 24  1  0  0  0  0
  4  5  1  0  0  0  0
  4 25  1  0  0  0  0
  4 26  1  0  0  0  0
  5  6  1  0  0  0  0
  5 27  1  0  0  0  0
  5 28  1  0  0  0  0
  6  7  1  0  0  0  0
  6 29  1  0  0  0  0
  7  8  2  0  0  0  0
  7  9  1  0  0  0  0
  9 10  1  0  0  0  0
  9 30  1  0  0  0  0
  9 31  1  0  0  0  0
 10 16  1  0  0  0  0
 10 11  1  0  0  0  0
 11 12  2  0  0  0  0
 11 32  1  0  0  0  0
 12 13  1  0  0  0  0
 12 33  1  0  0  0  0
 13 14  2  0  0  0  0
 13 15  1  0  0  0  0
 15 16  1  0  0  0  0
 16 17  2  0  0  0  0
M  CHG  1  15  -1
M  END
> <s_m_source_file>
AV-unprocessed.smi

> <i_m_source_file_index>
389

> <i_lp_mmshare_version>
43012

> <i_f3d_flags>
0

> <s_epik_input>
W0NIM11bQ0hdKFtDSDNdKVtDSDJdW0NIMl1bTkhdQyg9TylbQ0gyXW4xW2NIXVtjSF1jKD1PKVtuSF1jMT1P

> <s_epik_cmdline>
J2VwaWtfcHl0aG9uJywgJy1waCcsICc3LjAnLCAnLXRuJywgJzgnLCAnLW1hJywgJzIwMCcsICctbWV0YWxfYmluZGluZycsICctaW1hZScsICc8aW5maWxlLm1hZT4nLCAnLW9tYWUnLCAnPG91dGZpbGUubWFlPic=

> <r_lp_tautomer_probability>
0.999537

> <r_epik_Ionization_Penalty>
3.12283

> <r_epik_Ionization_Penalty_Charging>
2.83566e-08

> <r_epik_Ionization_Penalty_Neutral>
3.12283

> <r_epik_State_Penalty>
3.12192

> <r_epik_Charging_Adjusted_Penalty>
3.12192

> <i_epik_Tot_Q>
-1

> <i_epik_Tot_abs_Q>
1

> <r_epik_Metal_State_Penalty>
0.463748

> <b_epik_Metal_Only>
1

> <s_lp_Force_Field>
OPLS_2005

> <r_lp_Energy>
12.9702

> <b_lp_Chiralities_Consistent>
1

> <s_lp_Variant>
AV-unprocessed.smi:389-2

> <Gold.Version>
5.8.1

> <Gold.Id.Protein>
6NUR|6NUR_protein|mol2

> <Gold.PLP.Fitness>
39.9650

> <Gold.PLP.PLP>
-32.1729

> <Gold.PLP.part.hbond>
-3.0000

> <Gold.PLP.part.metal>
0.0000

> <Gold.PLP.part.buried>
-4.9451

> <Gold.PLP.part.nonpolar>
-25.2508

> <Gold.PLP.part.repulsive>
0.8360

> <Gold.PLP.ligand.clash>
0.0000

> <Gold.PLP.ligand.torsion>
0.6095

> <Gold.PLP.Chemscore.Hbond>
3.0000

> <Gold.PLP.Chemscore.CHOScore>
0.0000

> <Gold.PLP.Chemscore.Metal>
0.0000

> <Gold.Chemscore.Hbonds>
donor molecule, donor type, donor heavy atom, donor atom, acceptor molecule, acceptor atom, score
      P1  H  7989  7998       L1    14  1.00
      P1  H  7997  8010       L1     8  1.00
      P1  H 10752 10765       L1    17  1.00

> <Gold.PLP.Chemscore.Internal.Correction>
0.0110

> <Gold.Rescore>
     Score         DG    S(hbond)    S(metal)    S(lipo)     H(rot)  DE(clash)    DE(int)     intcor
     15.95     -16.68       2.45        0.00      73.53       2.18       0.10       0.62       ----

> <Gold.Chemscore.Fitness>
15.9541

> <Gold.Chemscore.DG>
-16.6783

> <Gold.Chemscore.ZeroCoef>
-5.4800

> <Gold.Chemscore.Hbond>
2.4505

> <Gold.Chemscore.Metal>
0.0000

> <Gold.Chemscore.Lipo>
73.5318

> <Gold.Chemscore.Internal_Hbond>
0.0000

> <Gold.Chemscore.DEClash>
0.0998

> <Gold.Chemscore.DEInternal>
0.6244

> <Gold.Chemscore.Rot>
2.1834

> <Gold.Chemscore.Internal.Correction>
   9.000000E+99

> <Gold.Chemscore.Hbonds>
donor molecule, donor type, donor heavy atom, donor atom, acceptor molecule, acceptor atom, score
      P1  H  7989  7998       L1    14  0.30
      P1  H  7997  8010       L1     8  0.91
      P1  H 10752 10765       L1    17  0.95

> <Gold.Chemscore.Hbond.Weighted>
-8.1845

> <Gold.Chemscore.Metal.Weighted>
-0.0000

> <Gold.Chemscore.Lipo.Weighted>
-8.6032

> <Gold.Chemscore.Internal_Hbond.Weighted>
0.0000

> <Gold.Chemscore.DEClash.Weighted>
0.0998

> <Gold.Chemscore.DEInternal.Weighted>
0.6244

> <Gold.Chemscore.Rot.Weighted>
5.5895

> <Gold.Chemscore.Internal.Correction.Weighted>
   9.000000E+99

> <Gold.Protein.RotatedTorsions>
[ 6907 6896 6895 6894 ] final  150.31 input  -60.11 | X-H torsion
[ 7974 7965 7964 7962 ] final  -49.52 input  175.53 | X-H torsion
[ 8008 7997 7996 7995 ] final    3.82 input   59.86 | X-H torsion
[ 10167 10162 10161 10158 ] final   -5.28 input  -65.29 | X-H torsion
[ 10718 10713 10712 10709 ] final   39.12 input   66.30 | X-H torsion
[ 10763 10752 10751 10750 ] final -125.85 input  -60.55 | X-H torsion
[ 11005 11000 10999 10996 ] final   17.47 input  -57.11 | X-H torsion

> <Gold.Protein.ActiveResidues>
 VAL166  LYS551  ARG553  GLY616  TRP617  ASP618  TYR619  PRO620  LYS621  CYS622 
 ASP623  PHE694  ASN695  SER759  ASP760  ASP761  ALA762  ILE779  LEU786  VAL792 
 PHE793  MET794  SER795  GLU796  ALA797  LYS798  CYS799  TRP800  GLU811  SER814 

> <Gold.Protein.RotatedAtoms>
  152.1161  133.4327  159.4653 H   0  0  0  0  0  0  0  0  0  0  0  0  # atno 6907 bound_to 6896
  150.6869  134.2591  159.4551 H   0  0  0  0  0  0  0  0  0  0  0  0  # atno 6908 bound_to 6896
  152.0463  134.9680  160.0625 H   0  0  0  0  0  0  0  0  0  0  0  0  # atno 6909 bound_to 6896
  145.9397  140.7673  142.9558 H   0  0  0  0  0  0  0  0  0  0  0  0  # atno 7974 bound_to 7965
  154.7083  140.2687  155.6653 H   0  0  0  0  0  0  0  0  0  0  0  0  # atno 8008 bound_to 7997
  156.2787  140.2758  156.1640 H   0  0  0  0  0  0  0  0  0  0  0  0  # atno 8009 bound_to 7997
  155.0670  140.0372  157.2586 H   0  0  0  0  0  0  0  0  0  0  0  0  # atno 8010 bound_to 7997
  140.6957  143.6326  150.8508 H   0  0  0  0  0  0  0  0  0  0  0  0  # atno 10167 bound_to 10162
  157.3668  130.7679  149.7089 H   0  0  0  0  0  0  0  0  0  0  0  0  # atno 10718 bound_to 10713
  154.8740  135.4015  154.3335 H   0  0  0  0  0  0  0  0  0  0  0  0  # atno 10763 bound_to 10752
  153.4145  135.7021  153.6341 H   0  0  0  0  0  0  0  0  0  0  0  0  # atno 10764 bound_to 10752
  153.5030  135.3723  155.2519 H   0  0  0  0  0  0  0  0  0  0  0  0  # atno 10765 bound_to 10752
  140.4355  134.1375  155.7685 H   0  0  0  0  0  0  0  0  0  0  0  0  # atno 11005 bound_to 11000
  144.6777  140.2260  143.7361 LP  0  0  0  0  0  0  0  0  0  0  0  0  # atno 17320 bound_to 7965
  145.8316  139.2088  143.1879 LP  0  0  0  0  0  0  0  0  0  0  0  0  # atno 17321 bound_to 7965
  140.0044  143.5709  152.2863 LP  0  0  0  0  0  0  0  0  0  0  0  0  # atno 17342 bound_to 10162
  139.6410  144.7654  151.2338 LP  0  0  0  0  0  0  0  0  0  0  0  0  # atno 17343 bound_to 10162
  155.9748  130.4098  150.3898 LP  0  0  0  0  0  0  0  0  0  0  0  0  # atno 17370 bound_to 10713
  157.1984  131.0432  151.2663 LP  0  0  0  0  0  0  0  0  0  0  0  0  # atno 17371 bound_to 10713
  141.1727  133.8576  157.1519 LP  0  0  0  0  0  0  0  0  0  0  0  0  # atno 17394 bound_to 11000
  140.0105  134.9990  157.0384 LP  0  0  0  0  0  0  0  0  0  0  0  0  # atno 17395 bound_to 11000

$$$$
