AV-unprocessed.smi:2547|AV-procd|sdf|10003|dock6
  -GOLD-   2272014 53D 1   1.00000     0.00000
 Structure written by MMmdl.
 45 46  0  0  0  0  0  0  0  0  3 V2000
  144.6470  131.2333  151.5361 C   0  0  0  0  0  0  0  0  0  0  0  0
  144.8493  132.6910  151.6789 N   0  3  2  0  0  0  0  0  0  0  0  0
  143.5689  133.4414  151.6807 C   0  0  0  0  0  0  0  0  0  0  0  0
  143.8037  134.9365  151.9559 C   0  0  0  0  0  0  0  0  0  0  0  0
  144.7876  135.5399  150.9400 C   0  0  1  0  0  0  0  0  0  0  0  0
  145.0533  136.9364  151.2741 N   0  0  0  0  0  0  0  0  0  0  0  0
  145.7789  137.3529  152.3221 C   0  0  0  0  0  0  0  0  0  0  0  0
  146.3018  136.5875  153.1318 O   0  0  0  0  0  0  0  0  0  0  0  0
  145.8350  138.6950  152.3761 N   0  0  0  0  0  0  0  0  0  0  0  0
  146.5031  139.5046  153.3324 C   0  0  0  0  0  0  0  0  0  0  0  0
  147.7257  139.1553  153.9540 C   0  0  0  0  0  0  0  0  0  0  0  0
  148.3095  140.0442  154.8769 C   0  0  0  0  0  0  0  0  0  0  0  0
  147.6725  141.2683  155.1603 C   0  0  0  0  0  0  0  0  0  0  0  0
  146.4576  141.5931  154.5095 C   0  0  0  0  0  0  0  0  0  0  0  0
  145.7597  142.7996  154.7341 N   0  0  0  0  0  0  0  0  0  0  0  0
  145.3530  143.6229  153.6026 C   0  0  0  0  0  0  0  0  0  0  0  0
  145.3775  143.1731  156.0913 C   0  0  0  0  0  0  0  0  0  0  0  0
  145.9425  140.6988  153.6292 N   0  3  0  0  0  0  0  0  0  0  0  0
  146.0910  134.7192  150.9339 C   0  0  0  0  0  0  0  0  0  0  0  0
  145.8073  133.2289  150.6811 C   0  0  0  0  0  0  0  0  0  0  0  0
  144.1887  130.9938  150.5756 H   0  0  0  0  0  0  0  0  0  0  0  0
  143.9996  130.8554  152.3281 H   0  0  0  0  0  0  0  0  0  0  0  0
  145.5978  130.7036  151.6037 H   0  0  0  0  0  0  0  0  0  0  0  0
  143.0664  133.3108  150.7208 H   0  0  0  0  0  0  0  0  0  0  0  0
  142.9058  133.0313  152.4435 H   0  0  0  0  0  0  0  0  0  0  0  0
  142.8535  135.4706  151.9196 H   0  0  0  0  0  0  0  0  0  0  0  0
  144.1906  135.0616  152.9685 H   0  0  0  0  0  0  0  0  0  0  0  0
  144.3297  135.4894  149.9499 H   0  0  0  0  0  0  0  0  0  0  0  0
  144.6572  137.6348  150.6617 H   0  0  0  0  0  0  0  0  0  0  0  0
  145.2823  139.1920  151.6929 H   0  0  0  0  0  0  0  0  0  0  0  0
  148.2320  138.2280  153.7312 H   0  0  0  0  0  0  0  0  0  0  0  0
  149.2412  139.7907  155.3607 H   0  0  0  0  0  0  0  0  0  0  0  0
  148.1307  141.9395  155.8712 H   0  0  0  0  0  0  0  0  0  0  0  0
  144.7073  143.0577  152.9299 H   0  0  0  0  0  0  0  0  0  0  0  0
  146.2247  143.9656  153.0443 H   0  0  0  0  0  0  0  0  0  0  0  0
  144.8019  144.5041  153.9311 H   0  0  0  0  0  0  0  0  0  0  0  0
  146.2586  143.2622  156.7278 H   0  0  0  0  0  0  0  0  0  0  0  0
  144.7121  142.4244  156.5220 H   0  0  0  0  0  0  0  0  0  0  0  0
  144.8574  144.1311  156.1082 H   0  0  0  0  0  0  0  0  0  0  0  0
  146.7722  135.0957  150.1697 H   0  0  0  0  0  0  0  0  0  0  0  0
  146.6060  134.8329  151.8893 H   0  0  0  0  0  0  0  0  0  0  0  0
  146.7414  132.6682  150.7314 H   0  0  0  0  0  0  0  0  0  0  0  0
  145.4062  133.0884  149.6761 H   0  0  0  0  0  0  0  0  0  0  0  0
  145.2690  132.8334  152.5866 H   0  0  0  0  0  0  0  0  0  0  0  0
  145.0676  140.9422  153.1651 H   0  0  0  0  0  0  0  0  0  0  0  0
  1  2  1  0  0  0  0
  1 21  1  0  0  0  0
  1 22  1  0  0  0  0
  1 23  1  0  0  0  0
  2 20  1  0  0  0  0
  2  3  1  0  0  0  0
  2 44  1  0  0  0  0
  3  4  1  0  0  0  0
  3 24  1  0  0  0  0
  3 25  1  0  0  0  0
  4  5  1  0  0  0  0
  4 26  1  0  0  0  0
  4 27  1  0  0  0  0
  5  6  1  0  0  0  0
  5 19  1  0  0  0  0
  5 28  1  0  0  0  0
  6  7  1  0  0  0  0
  6 29  1  0  0  0  0
  7  8  2  0  0  0  0
  7  9  1  0  0  0  0
  9 10  1  0  0  0  0
  9 30  1  0  0  0  0
 10 18  1  0  0  0  0
 10 11  2  0  0  0  0
 11 12  1  0  0  0  0
 11 31  1  0  0  0  0
 12 13  2  0  0  0  0
 12 32  1  0  0  0  0
 13 14  1  0  0  0  0
 13 33  1  0  0  0  0
 14 15  1  0  0  0  0
 14 18  2  0  0  0  0
 15 16  1  0  0  0  0
 15 17  1  0  0  0  0
 16 34  1  0  0  0  0
 16 35  1  0  0  0  0
 16 36  1  0  0  0  0
 17 37  1  0  0  0  0
 17 38  1  0  0  0  0
 17 39  1  0  0  0  0
 18 45  1  0  0  0  0
 19 20  1  0  0  0  0
 19 40  1  0  0  0  0
 19 41  1  0  0  0  0
 20 42  1  0  0  0  0
 20 43  1  0  0  0  0
M  CHG  1   2   1
M  CHG  1  18   1
M  END
> <s_m_source_file>
AV-unprocessed.smi

> <i_m_source_file_index>
2547

> <i_lp_mmshare_version>
43012

> <i_f3d_flags>
0

> <s_epik_input>
W0NIM11OMVtDSDJdW0NIMl1bQ0hdKFtDSDJdW0NIMl0xKVtOSF1DKD1PKVtOSF1jMltjSF1bY0hdW2NIXWMobjIpTihbQ0gzXSlbQ0gzXQ==

> <s_epik_cmdline>
J2VwaWtfcHl0aG9uJywgJy1waCcsICc3LjAnLCAnLXRuJywgJzgnLCAnLW1hJywgJzIwMCcsICctbWV0YWxfYmluZGluZycsICctaW1hZScsICc8aW5maWxlLm1hZT4nLCAnLW9tYWUnLCAnPG91dGZpbGUubWFlPic=

> <r_lp_tautomer_probability>
0.999994

> <r_epik_Ionization_Penalty>
2.17028

> <r_epik_Ionization_Penalty_Charging>
2.10368

> <r_epik_Ionization_Penalty_Neutral>
0.0666017

> <r_epik_State_Penalty>
2.2357

> <r_epik_Charging_Adjusted_Penalty>
4.33938

> <i_epik_Tot_Q>
2

> <i_epik_Tot_abs_Q>
2

> <r_epik_Metal_State_Penalty>
2.25749

> <b_epik_Metal_Only>
0

> <s_lp_Force_Field>
OPLS_2005

> <r_lp_Energy>
26.2357

> <b_lp_Chiralities_Consistent>
1

> <s_lp_Variant>
AV-unprocessed.smi:2547-3

> <Gold.Version>
5.8.1

> <Gold.Id.Protein>
6NUR|6NUR_protein|mol2

> <Gold.PLP.Fitness>
42.4610

> <Gold.PLP.PLP>
-35.7651

> <Gold.PLP.part.hbond>
-3.2592

> <Gold.PLP.part.metal>
0.0000

> <Gold.PLP.part.buried>
-6.2634

> <Gold.PLP.part.nonpolar>
-29.3850

> <Gold.PLP.part.repulsive>
2.9023

> <Gold.PLP.ligand.clash>
0.0000

> <Gold.PLP.ligand.torsion>
1.2974

> <Gold.PLP.Chemscore.Hbond>
3.0953

> <Gold.PLP.Chemscore.CHOScore>
0.0000

> <Gold.PLP.Chemscore.Metal>
0.0000

> <Gold.Chemscore.Hbonds>
donor molecule, donor type, donor heavy atom, donor atom, acceptor molecule, acceptor atom, score
      L1  H     6    29       P1 10171  0.93
      L1  H     9    30       P1 10175  0.23
      L1  H    18    45       P1 10175  2.00

> <Gold.PLP.Chemscore.Internal.Correction>
0.0049

> <Gold.Rescore>
     Score         DG    S(hbond)    S(metal)    S(lipo)     H(rot)  DE(clash)    DE(int)     intcor
     15.04     -18.47       2.52        0.00      60.86       1.00       1.15       2.28       ----

> <Gold.Chemscore.Fitness>
15.0371

> <Gold.Chemscore.DG>
-18.4703

> <Gold.Chemscore.ZeroCoef>
-5.4800

> <Gold.Chemscore.Hbond>
2.5239

> <Gold.Chemscore.Metal>
0.0000

> <Gold.Chemscore.Lipo>
60.8579

> <Gold.Chemscore.Internal_Hbond>
0.0000

> <Gold.Chemscore.DEClash>
1.1531

> <Gold.Chemscore.DEInternal>
2.2801

> <Gold.Chemscore.Rot>
1.0000

> <Gold.Chemscore.Internal.Correction>
   9.000000E+99

> <Gold.Chemscore.Hbonds>
donor molecule, donor type, donor heavy atom, donor atom, acceptor molecule, acceptor atom, score
      L1  H     6    29       P1 10171  0.89
      L1  H     9    30       P1 10175  0.22
      L1  H    18    45       P1 10175  0.47

> <Gold.Chemscore.Hbond.Weighted>
-8.4299

> <Gold.Chemscore.Metal.Weighted>
-0.0000

> <Gold.Chemscore.Lipo.Weighted>
-7.1204

> <Gold.Chemscore.Internal_Hbond.Weighted>
0.0000

> <Gold.Chemscore.DEClash.Weighted>
1.1531

> <Gold.Chemscore.DEInternal.Weighted>
2.2801

> <Gold.Chemscore.Rot.Weighted>
2.5600

> <Gold.Chemscore.Internal.Correction.Weighted>
   9.000000E+99

> <Gold.Protein.RotatedTorsions>
[ 6907 6896 6895 6894 ] final   86.46 input  -60.11 | X-H torsion
[ 7974 7965 7964 7962 ] final   26.93 input  175.53 | X-H torsion
[ 8008 7997 7996 7995 ] final   60.58 input   59.86 | X-H torsion
[ 10167 10162 10161 10158 ] final   27.86 input  -65.29 | X-H torsion
[ 10718 10713 10712 10709 ] final  146.02 input   66.30 | X-H torsion
[ 10763 10752 10751 10750 ] final   35.48 input  -60.55 | X-H torsion
[ 11005 11000 10999 10996 ] final  -39.90 input  -57.11 | X-H torsion

> <Gold.Protein.ActiveResidues>
 VAL166  LYS551  ARG553  GLY616  TRP617  ASP618  TYR619  PRO620  LYS621  CYS622 
 ASP623  PHE694  ASN695  SER759  ASP760  ASP761  ALA762  ILE779  LEU786  VAL792 
 PHE793  MET794  SER795  GLU796  ALA797  LYS798  CYS799  TRP800  GLU811  SER814 

> <Gold.Protein.RotatedAtoms>
  152.5394  134.2428  159.8868 H   0  0  0  0  0  0  0  0  0  0  0  0  # atno 6907 bound_to 6896
  151.2395  133.4400  159.2614 H   0  0  0  0  0  0  0  0  0  0  0  0  # atno 6908 bound_to 6896
  151.0640  134.9769  159.8331 H   0  0  0  0  0  0  0  0  0  0  0  0  # atno 6909 bound_to 6896
  146.1811  139.7260  142.8899 H   0  0  0  0  0  0  0  0  0  0  0  0  # atno 7974 bound_to 7965
  155.5847  140.3492  155.4550 H   0  0  0  0  0  0  0  0  0  0  0  0  # atno 8008 bound_to 7997
  156.0347  140.1282  157.0245 H   0  0  0  0  0  0  0  0  0  0  0  0  # atno 8009 bound_to 7997
  154.4366  140.1036  156.6136 H   0  0  0  0  0  0  0  0  0  0  0  0  # atno 8010 bound_to 7997
  140.4902  144.0479  150.6294 H   0  0  0  0  0  0  0  0  0  0  0  0  # atno 10167 bound_to 10162
  157.3382  131.0931  151.1105 H   0  0  0  0  0  0  0  0  0  0  0  0  # atno 10718 bound_to 10713
  153.0117  135.6332  154.1834 H   0  0  0  0  0  0  0  0  0  0  0  0  # atno 10763 bound_to 10752
  154.1575  135.2825  155.3119 H   0  0  0  0  0  0  0  0  0  0  0  0  # atno 10764 bound_to 10752
  154.6006  135.5588  153.7431 H   0  0  0  0  0  0  0  0  0  0  0  0  # atno 10765 bound_to 10752
  141.0135  133.6896  156.2248 H   0  0  0  0  0  0  0  0  0  0  0  0  # atno 11005 bound_to 11000
  145.4073  141.0392  143.3037 LP  0  0  0  0  0  0  0  0  0  0  0  0  # atno 17320 bound_to 7965
  144.8317  139.5617  143.6941 LP  0  0  0  0  0  0  0  0  0  0  0  0  # atno 17321 bound_to 7965
  140.3746  143.2836  152.0240 LP  0  0  0  0  0  0  0  0  0  0  0  0  # atno 17342 bound_to 10162
  139.4850  144.6203  151.7267 LP  0  0  0  0  0  0  0  0  0  0  0  0  # atno 17343 bound_to 10162
  157.2327  130.6532  149.5856 LP  0  0  0  0  0  0  0  0  0  0  0  0  # atno 17370 bound_to 10713
  155.9704  130.4593  150.6033 LP  0  0  0  0  0  0  0  0  0  0  0  0  # atno 17371 bound_to 10713
  140.6693  134.4884  157.5586 LP  0  0  0  0  0  0  0  0  0  0  0  0  # atno 17394 bound_to 11000
  139.9103  134.8358  156.1551 LP  0  0  0  0  0  0  0  0  0  0  0  0  # atno 17395 bound_to 11000

$$$$
