AV-unprocessed.smi:1903|AV-procd|sdf|7722|dock10
  -GOLD-   22720 9463D 1   1.00000     0.00000
 Structure written by MMmdl.
 47 48  0  0  0  0  0  0  0  0  2 V2000
  152.8799  138.2599  154.6984 C   0  0  0  0  0  0  0  0  0  0  0  0
  152.2887  139.1883  155.7208 C   0  0  0  0  0  0  0  0  0  0  0  0
  152.8344  139.2630  156.9232 N   0  0  0  0  0  0  0  0  0  0  0  0
  152.0842  140.1654  157.5862 N   0  0  0  0  0  0  0  0  0  0  0  0
  152.4152  140.4944  158.9592 C   0  0  0  0  0  0  0  0  0  0  0  0
  151.0624  140.6625  156.8010 C   0  0  0  0  0  0  0  0  0  0  0  0
  150.0950  141.6821  157.3102 C   0  0  0  0  0  0  0  0  0  0  0  0
  151.1625  140.0512  155.5792 C   0  0  0  0  0  0  0  0  0  0  0  0
  150.2990  140.2311  154.3561 C   0  0  0  0  0  0  0  0  0  0  0  0
  148.9171  139.6266  154.6054 C   0  0  0  0  0  0  0  0  0  0  0  0
  148.6061  139.2416  155.7323 O   0  0  0  0  0  0  0  0  0  0  0  0
  148.0964  139.5472  153.5463 N   0  0  0  0  0  0  0  0  0  0  0  0
  146.7544  138.9783  153.5682 C   0  0  0  0  0  0  0  0  0  0  0  0
  146.7629  137.5247  154.0800 C   0  0  0  0  0  0  0  0  0  0  0  0
  146.6057  136.5358  152.9835 N   0  3  0  0  0  0  0  0  0  0  0  0
  146.3467  135.1650  153.4978 C   0  0  0  0  0  0  0  0  0  0  0  0
  146.3220  134.1347  152.3561 C   0  0  0  0  0  0  0  0  0  0  0  0
  145.2877  134.5188  151.2909 C   0  0  0  0  0  0  0  0  0  0  0  0
  145.5551  135.9455  150.7957 C   0  0  0  0  0  0  0  0  0  0  0  0
  145.5943  136.9388  151.9693 C   0  0  0  0  0  0  0  0  0  0  0  0
  153.0774  138.7847  153.7637 H   0  0  0  0  0  0  0  0  0  0  0  0
  152.1978  137.4383  154.4798 H   0  0  0  0  0  0  0  0  0  0  0  0
  153.8216  137.8279  155.0389 H   0  0  0  0  0  0  0  0  0  0  0  0
  151.5413  140.3456  159.5939 H   0  0  0  0  0  0  0  0  0  0  0  0
  152.7277  141.5370  159.0200 H   0  0  0  0  0  0  0  0  0  0  0  0
  153.2251  139.8607  159.3230 H   0  0  0  0  0  0  0  0  0  0  0  0
  149.3689  141.9587  156.5461 H   0  0  0  0  0  0  0  0  0  0  0  0
  150.6158  142.5888  157.6183 H   0  0  0  0  0  0  0  0  0  0  0  0
  149.5450  141.2986  158.1698 H   0  0  0  0  0  0  0  0  0  0  0  0
  150.1834  141.2867  154.1071 H   0  0  0  0  0  0  0  0  0  0  0  0
  150.7431  139.7646  153.4762 H   0  0  0  0  0  0  0  0  0  0  0  0
  148.4378  139.8838  152.6574 H   0  0  0  0  0  0  0  0  0  0  0  0
  146.1481  139.6148  154.2113 H   0  0  0  0  0  0  0  0  0  0  0  0
  146.3116  139.0316  152.5720 H   0  0  0  0  0  0  0  0  0  0  0  0
  147.7144  137.3451  154.5824 H   0  0  0  0  0  0  0  0  0  0  0  0
  145.9862  137.3720  154.8310 H   0  0  0  0  0  0  0  0  0  0  0  0
  147.1238  134.8855  154.2106 H   0  0  0  0  0  0  0  0  0  0  0  0
  145.3993  135.1509  154.0394 H   0  0  0  0  0  0  0  0  0  0  0  0
  147.3107  134.0692  151.9000 H   0  0  0  0  0  0  0  0  0  0  0  0
  146.0979  133.1437  152.7524 H   0  0  0  0  0  0  0  0  0  0  0  0
  145.3237  133.8162  150.4578 H   0  0  0  0  0  0  0  0  0  0  0  0
  144.2829  134.4556  151.7107 H   0  0  0  0  0  0  0  0  0  0  0  0
  146.5036  135.9755  150.2582 H   0  0  0  0  0  0  0  0  0  0  0  0
  144.7864  136.2424  150.0820 H   0  0  0  0  0  0  0  0  0  0  0  0
  144.6116  137.0014  152.4392 H   0  0  0  0  0  0  0  0  0  0  0  0
  145.8200  137.9305  151.5794 H   0  0  0  0  0  0  0  0  0  0  0  0
  147.4970  136.4918  152.5101 H   0  0  0  0  0  0  0  0  0  0  0  0
  1  2  1  0  0  0  0
  1 21  1  0  0  0  0
  1 22  1  0  0  0  0
  1 23  1  0  0  0  0
  2  8  1  0  0  0  0
  2  3  2  0  0  0  0
  3  4  1  0  0  0  0
  4  5  1  0  0  0  0
  4  6  1  0  0  0  0
  5 24  1  0  0  0  0
  5 25  1  0  0  0  0
  5 26  1  0  0  0  0
  6  7  1  0  0  0  0
  6  8  2  0  0  0  0
  7 27  1  0  0  0  0
  7 28  1  0  0  0  0
  7 29  1  0  0  0  0
  8  9  1  0  0  0  0
  9 10  1  0  0  0  0
  9 30  1  0  0  0  0
  9 31  1  0  0  0  0
 10 11  2  0  0  0  0
 10 12  1  0  0  0  0
 12 13  1  0  0  0  0
 12 32  1  0  0  0  0
 13 14  1  0  0  0  0
 13 33  1  0  0  0  0
 13 34  1  0  0  0  0
 14 15  1  0  0  0  0
 14 35  1  0  0  0  0
 14 36  1  0  0  0  0
 15 20  1  0  0  0  0
 15 16  1  0  0  0  0
 15 47  1  0  0  0  0
 16 17  1  0  0  0  0
 16 37  1  0  0  0  0
 16 38  1  0  0  0  0
 17 18  1  0  0  0  0
 17 39  1  0  0  0  0
 17 40  1  0  0  0  0
 18 19  1  0  0  0  0
 18 41  1  0  0  0  0
 18 42  1  0  0  0  0
 19 20  1  0  0  0  0
 19 43  1  0  0  0  0
 19 44  1  0  0  0  0
 20 45  1  0  0  0  0
 20 46  1  0  0  0  0
M  CHG  1  15   1
M  END
> <s_m_source_file>
AV-unprocessed.smi

> <i_m_source_file_index>
1903

> <i_lp_mmshare_version>
43012

> <i_f3d_flags>
0

> <s_epik_input>
W0NIM11jMW5uKFtDSDNdKWMoW0NIM10pYzFbQ0gyXUMoPU8pW05IXVtDSDJdW0NIMl1OMltDSDJdW0NIMl1bQ0gyXVtDSDJdW0NIMl0y

> <s_epik_cmdline>
J2VwaWtfcHl0aG9uJywgJy1waCcsICc3LjAnLCAnLXRuJywgJzgnLCAnLW1hJywgJzIwMCcsICctbWV0YWxfYmluZGluZycsICctaW1hZScsICc8aW5maWxlLm1hZT4nLCAnLW9tYWUnLCAnPG91dGZpbGUubWFlPic=

> <r_lp_tautomer_probability>
1

> <r_epik_Ionization_Penalty>
0.00456445

> <r_epik_Ionization_Penalty_Charging>
0.00240401

> <r_epik_Ionization_Penalty_Neutral>
0.00216044

> <r_epik_State_Penalty>
-0

> <r_epik_Charging_Adjusted_Penalty>
0.00240401

> <i_epik_Tot_Q>
1

> <i_epik_Tot_abs_Q>
1

> <r_epik_Metal_State_Penalty>
-0

> <b_epik_Metal_Only>
0

> <s_lp_Force_Field>
OPLS_2005

> <r_lp_Energy>
10.8117

> <b_lp_Chiralities_Consistent>
1

> <s_lp_Variant>
AV-unprocessed.smi:1903-1

> <Gold.Version>
5.8.1

> <Gold.Id.Protein>
6NUR|6NUR_protein|mol2

> <Gold.PLP.Fitness>
45.1983

> <Gold.PLP.PLP>
-34.3517

> <Gold.PLP.part.hbond>
-3.0000

> <Gold.PLP.part.metal>
0.0000

> <Gold.PLP.part.buried>
0.1399

> <Gold.PLP.part.nonpolar>
-30.7009

> <Gold.PLP.part.repulsive>
0.0699

> <Gold.PLP.ligand.clash>
0.0000

> <Gold.PLP.ligand.torsion>
0.6019

> <Gold.PLP.Chemscore.Hbond>
4.0000

> <Gold.PLP.Chemscore.CHOScore>
0.0000

> <Gold.PLP.Chemscore.Metal>
0.0000

> <Gold.Chemscore.Hbonds>
donor molecule, donor type, donor heavy atom, donor atom, acceptor molecule, acceptor atom, score
      L1  H    12    32       P1  7957  1.00
      L1  H    15    47       P1  7948  2.00
      P1  H  7997  8009       L1     3  1.00

> <Gold.PLP.Chemscore.Internal.Correction>
0.0504

> <Gold.Rescore>
     Score         DG    S(hbond)    S(metal)    S(lipo)     H(rot)  DE(clash)    DE(int)     intcor
     16.81     -19.81       2.60        0.00      84.31       1.65       1.47       1.52       ----

> <Gold.Chemscore.Fitness>
16.8115

> <Gold.Chemscore.DG>
-19.8061

> <Gold.Chemscore.ZeroCoef>
-5.4800

> <Gold.Chemscore.Hbond>
2.5981

> <Gold.Chemscore.Metal>
0.0000

> <Gold.Chemscore.Lipo>
84.3065

> <Gold.Chemscore.Internal_Hbond>
0.0000

> <Gold.Chemscore.DEClash>
1.4730

> <Gold.Chemscore.DEInternal>
1.5217

> <Gold.Chemscore.Rot>
1.6467

> <Gold.Chemscore.Internal.Correction>
   9.000000E+99

> <Gold.Chemscore.Hbonds>
donor molecule, donor type, donor heavy atom, donor atom, acceptor molecule, acceptor atom, score
      L1  H    12    32       P1  7957  0.99
      L1  H    15    47       P1  7948  0.99
      P1  H  7997  8009       L1     3  0.35

> <Gold.Chemscore.Hbond.Weighted>
-8.6778

> <Gold.Chemscore.Metal.Weighted>
-0.0000

> <Gold.Chemscore.Lipo.Weighted>
-9.8639

> <Gold.Chemscore.Internal_Hbond.Weighted>
0.0000

> <Gold.Chemscore.DEClash.Weighted>
1.4730

> <Gold.Chemscore.DEInternal.Weighted>
1.5217

> <Gold.Chemscore.Rot.Weighted>
4.2155

> <Gold.Chemscore.Internal.Correction.Weighted>
   9.000000E+99

> <Gold.Protein.RotatedTorsions>
[ 6907 6896 6895 6894 ] final   75.91 input  -60.11 | X-H torsion
[ 7974 7965 7964 7962 ] final   84.10 input  175.53 | X-H torsion
[ 8008 7997 7996 7995 ] final  165.94 input   59.86 | X-H torsion
[ 10167 10162 10161 10158 ] final   94.05 input  -65.29 | X-H torsion
[ 10718 10713 10712 10709 ] final  -55.13 input   66.30 | X-H torsion
[ 10763 10752 10751 10750 ] final   15.78 input  -60.55 | X-H torsion
[ 11005 11000 10999 10996 ] final   18.69 input  -57.11 | X-H torsion

> <Gold.Protein.ActiveResidues>
 VAL166  LYS551  ARG553  GLY616  TRP617  ASP618  TYR619  PRO620  LYS621  CYS622 
 ASP623  PHE694  ASN695  SER759  ASP760  ASP761  ALA762  ILE779  LEU786  VAL792 
 PHE793  MET794  SER795  GLU796  ALA797  LYS798  CYS799  TRP800  GLU811  SER814 

> <Gold.Protein.RotatedAtoms>
  152.5048  134.4049  159.9428 H   0  0  0  0  0  0  0  0  0  0  0  0  # atno 6907 bound_to 6896
  151.4014  133.3750  159.2740 H   0  0  0  0  0  0  0  0  0  0  0  0  # atno 6908 bound_to 6896
  150.9358  134.8792  159.7640 H   0  0  0  0  0  0  0  0  0  0  0  0  # atno 6909 bound_to 6896
  145.6032  139.2356  143.2234 H   0  0  0  0  0  0  0  0  0  0  0  0  # atno 7974 bound_to 7965
  156.1759  140.1656  156.8363 H   0  0  0  0  0  0  0  0  0  0  0  0  # atno 8008 bound_to 7997
  154.5307  140.0757  156.8373 H   0  0  0  0  0  0  0  0  0  0  0  0  # atno 8009 bound_to 7997
  155.3413  140.3385  155.4241 H   0  0  0  0  0  0  0  0  0  0  0  0  # atno 8010 bound_to 7997
  139.8120  144.6769  150.9628 H   0  0  0  0  0  0  0  0  0  0  0  0  # atno 10167 bound_to 10162
  156.1393  130.4155  150.0130 H   0  0  0  0  0  0  0  0  0  0  0  0  # atno 10718 bound_to 10713
  153.1492  135.6775  153.8907 H   0  0  0  0  0  0  0  0  0  0  0  0  # atno 10763 bound_to 10752
  153.8339  135.3114  155.3422 H   0  0  0  0  0  0  0  0  0  0  0  0  # atno 10764 bound_to 10752
  154.7849  135.4867  154.0011 H   0  0  0  0  0  0  0  0  0  0  0  0  # atno 10765 bound_to 10752
  140.4220  134.1508  155.7673 H   0  0  0  0  0  0  0  0  0  0  0  0  # atno 11005 bound_to 11000
  146.1560  140.6857  142.9299 LP  0  0  0  0  0  0  0  0  0  0  0  0  # atno 17320 bound_to 7965
  144.7301  140.4645  143.6944 LP  0  0  0  0  0  0  0  0  0  0  0  0  # atno 17321 bound_to 7965
  140.7817  143.4175  151.0894 LP  0  0  0  0  0  0  0  0  0  0  0  0  # atno 17342 bound_to 10162
  139.7841  143.8313  152.3142 LP  0  0  0  0  0  0  0  0  0  0  0  0  # atno 17343 bound_to 10162
  156.8020  130.9294  151.3646 LP  0  0  0  0  0  0  0  0  0  0  0  0  # atno 17370 bound_to 10713
  157.6561  130.8926  149.9733 LP  0  0  0  0  0  0  0  0  0  0  0  0  # atno 17371 bound_to 10713
  141.1780  133.8474  157.1356 LP  0  0  0  0  0  0  0  0  0  0  0  0  # atno 17394 bound_to 11000
  140.0193  134.9953  157.0559 LP  0  0  0  0  0  0  0  0  0  0  0  0  # atno 17395 bound_to 11000

$$$$
