AV-unprocessed.smi:2190|AV-procd|sdf|8891|dock5
  -GOLD-   2272012 93D 1   1.00000     0.00000
 Structure written by MMmdl.
 47 49  0  0  0  0  0  0  0  0  2 V2000
  152.0742  145.2562  157.1094 C   0  0  0  0  0  0  0  0  0  0  0  0
  152.1540  144.4294  158.3763 C   0  0  0  0  0  0  0  0  0  0  0  0
  152.1598  145.0587  159.6357 C   0  0  0  0  0  0  0  0  0  0  0  0
  152.2367  144.2844  160.8072 C   0  0  0  0  0  0  0  0  0  0  0  0
  152.3092  142.8783  160.7277 C   0  0  0  0  0  0  0  0  0  0  0  0
  152.3925  142.0594  162.0022 C   0  0  0  0  0  0  0  0  0  0  0  0
  152.3050  142.2329  159.4691 C   0  0  0  0  0  0  0  0  0  0  0  0
  152.3783  140.8549  159.4612 O   0  0  0  0  0  0  0  0  0  0  0  0
  152.7335  140.2009  158.2503 C   0  0  0  0  0  0  0  0  0  0  0  0
  151.4581  139.9480  157.4317 C   0  0  1  0  0  0  0  0  0  0  0  0
  150.3386  140.2200  158.2517 O   0  0  0  0  0  0  0  0  0  0  0  0
  151.3966  140.8424  156.1776 C   0  0  0  0  0  0  0  0  0  0  0  0
  150.6297  140.2344  155.0767 N   0  0  0  0  0  0  0  0  0  0  0  0
  150.8604  139.0873  154.3739 C   0  0  0  0  0  0  0  0  0  0  0  0
  151.9861  138.1243  154.5635 C   0  0  0  0  0  0  0  0  0  0  0  0
  151.7744  136.9121  153.8748 O   0  0  0  0  0  0  0  0  0  0  0  0
  149.8563  138.9636  153.4611 N   0  3  0  0  0  0  0  0  0  0  0  0
  148.9734  140.0370  153.5805 C   0  0  0  0  0  0  0  0  0  0  0  0
  147.8122  140.3419  152.8769 C   0  0  0  0  0  0  0  0  0  0  0  0
  147.1343  141.5192  153.2546 C   0  0  0  0  0  0  0  0  0  0  0  0
  147.6140  142.3401  154.2956 C   0  0  0  0  0  0  0  0  0  0  0  0
  148.7933  142.0212  155.0004 C   0  0  0  0  0  0  0  0  0  0  0  0
  149.4609  140.8569  154.6191 C   0  0  0  0  0  0  0  0  0  0  0  0
  152.2278  143.0243  158.2943 C   0  0  0  0  0  0  0  0  0  0  0  0
  151.7623  146.2791  157.3228 H   0  0  0  0  0  0  0  0  0  0  0  0
  151.3555  144.8219  156.4139 H   0  0  0  0  0  0  0  0  0  0  0  0
  153.0482  145.2899  156.6210 H   0  0  0  0  0  0  0  0  0  0  0  0
  152.1063  146.1352  159.7084 H   0  0  0  0  0  0  0  0  0  0  0  0
  152.2400  144.7765  161.7688 H   0  0  0  0  0  0  0  0  0  0  0  0
  151.5488  141.3717  162.0665 H   0  0  0  0  0  0  0  0  0  0  0  0
  152.3788  142.6955  162.8877 H   0  0  0  0  0  0  0  0  0  0  0  0
  153.3138  141.4767  162.0185 H   0  0  0  0  0  0  0  0  0  0  0  0
  153.4549  140.7820  157.6726 H   0  0  0  0  0  0  0  0  0  0  0  0
  153.1970  139.2450  158.5002 H   0  0  0  0  0  0  0  0  0  0  0  0
  151.4236  138.9026  157.1231 H   0  0  0  0  0  0  0  0  0  0  0  0
  150.6299  140.2548  159.1503 H   0  0  0  0  0  0  0  0  0  0  0  0
  150.9816  141.8223  156.4128 H   0  0  0  0  0  0  0  0  0  0  0  0
  152.4037  141.0301  155.8047 H   0  0  0  0  0  0  0  0  0  0  0  0
  152.9120  138.5769  154.2080 H   0  0  0  0  0  0  0  0  0  0  0  0
  152.1211  137.9148  155.6243 H   0  0  0  0  0  0  0  0  0  0  0  0
  151.6375  137.1053  152.9597 H   0  0  0  0  0  0  0  0  0  0  0  0
  147.4407  139.7123  152.0818 H   0  0  0  0  0  0  0  0  0  0  0  0
  146.2268  141.7964  152.7377 H   0  0  0  0  0  0  0  0  0  0  0  0
  147.0656  143.2323  154.5611 H   0  0  0  0  0  0  0  0  0  0  0  0
  149.1453  142.6553  155.8004 H   0  0  0  0  0  0  0  0  0  0  0  0
  152.2246  142.5744  157.3133 H   0  0  0  0  0  0  0  0  0  0  0  0
  149.7798  138.1938  152.8089 H   0  0  0  0  0  0  0  0  0  0  0  0
  1  2  1  0  0  0  0
  1 25  1  0  0  0  0
  1 26  1  0  0  0  0
  1 27  1  0  0  0  0
  2 24  1  0  0  0  0
  2  3  2  0  0  0  0
  3  4  1  0  0  0  0
  3 28  1  0  0  0  0
  4  5  2  0  0  0  0
  4 29  1  0  0  0  0
  5  6  1  0  0  0  0
  5  7  1  0  0  0  0
  6 30  1  0  0  0  0
  6 31  1  0  0  0  0
  6 32  1  0  0  0  0
  7  8  1  0  0  0  0
  7 24  2  0  0  0  0
  8  9  1  0  0  0  0
  9 10  1  0  0  0  0
  9 33  1  0  0  0  0
  9 34  1  0  0  0  0
 10 11  1  0  0  0  0
 10 12  1  0  0  0  0
 10 35  1  0  0  0  0
 11 36  1  0  0  0  0
 12 13  1  0  0  0  0
 12 37  1  0  0  0  0
 12 38  1  0  0  0  0
 13 23  1  0  0  0  0
 13 14  1  0  0  0  0
 14 15  1  0  0  0  0
 14 17  2  0  0  0  0
 15 16  1  0  0  0  0
 15 39  1  0  0  0  0
 15 40  1  0  0  0  0
 16 41  1  0  0  0  0
 17 18  1  0  0  0  0
 17 47  1  0  0  0  0
 18 23  2  0  0  0  0
 18 19  1  0  0  0  0
 19 20  2  0  0  0  0
 19 42  1  0  0  0  0
 20 21  1  0  0  0  0
 20 43  1  0  0  0  0
 21 22  2  0  0  0  0
 21 44  1  0  0  0  0
 22 23  1  0  0  0  0
 22 45  1  0  0  0  0
 24 46  1  0  0  0  0
M  CHG  1  17   1
M  END
> <s_m_source_file>
AV-unprocessed.smi

> <i_m_source_file_index>
2190

> <i_lp_mmshare_version>
43012

> <i_f3d_flags>
0

> <s_epik_input>
W0NIM11jMVtjSF1bY0hdYyhbQ0gzXSljKFtjSF0xKU9bQ0gyXVtDQEhdKFtPSF0pW0NIMl1uKGMobjIpW0NIMl1bT0hdKWMoYzIzKVtjSF1bY0hdW2NIXVtjSF0z

> <s_epik_cmdline>
J2VwaWtfcHl0aG9uJywgJy1waCcsICc3LjAnLCAnLXRuJywgJzgnLCAnLW1hJywgJzIwMCcsICctbWV0YWxfYmluZGluZycsICctaW1hZScsICc8aW5maWxlLm1hZT4nLCAnLW9tYWUnLCAnPG91dGZpbGUubWFlPic=

> <r_lp_tautomer_probability>
1

> <r_epik_Ionization_Penalty>
1.43125

> <r_epik_Ionization_Penalty_Charging>
1.43039

> <r_epik_Ionization_Penalty_Neutral>
0.000858184

> <r_epik_State_Penalty>
1.51493

> <r_epik_Charging_Adjusted_Penalty>
2.94531

> <i_epik_Tot_Q>
1

> <i_epik_Tot_abs_Q>
1

> <r_epik_Metal_State_Penalty>
5.5599

> <b_epik_Metal_Only>
0

> <s_lp_Force_Field>
OPLS_2005

> <r_lp_Energy>
19.5123

> <b_lp_Chiralities_Consistent>
1

> <s_lp_Variant>
AV-unprocessed.smi:2190-4

> <Gold.Version>
5.8.1

> <Gold.Id.Protein>
6NUR|6NUR_protein|mol2

> <Gold.PLP.Fitness>
60.8517

> <Gold.PLP.PLP>
-53.7147

> <Gold.PLP.part.hbond>
-4.0000

> <Gold.PLP.part.metal>
0.0000

> <Gold.PLP.part.buried>
-0.1722

> <Gold.PLP.part.nonpolar>
-50.0868

> <Gold.PLP.part.repulsive>
0.0701

> <Gold.PLP.ligand.clash>
1.7904

> <Gold.PLP.ligand.torsion>
1.5637

> <Gold.PLP.Chemscore.Hbond>
3.9920

> <Gold.PLP.Chemscore.CHOScore>
0.0000

> <Gold.PLP.Chemscore.Metal>
0.0000

> <Gold.Chemscore.Hbonds>
donor molecule, donor type, donor heavy atom, donor atom, acceptor molecule, acceptor atom, score
      L1  H    16    41       P1  7949  0.64
      L1  H    17    47       P1  7948  0.75
      P1  H 10752 10765       L1    16  0.80

> <Gold.PLP.Chemscore.Internal.Correction>
0.0789

> <Gold.Rescore>
     Score         DG    S(hbond)    S(metal)    S(lipo)     H(rot)  DE(clash)    DE(int)     intcor
     20.36     -24.83       2.44        0.00     162.56       3.05       2.82       1.65       ----

> <Gold.Chemscore.Fitness>
20.3637

> <Gold.Chemscore.DG>
-24.8331

> <Gold.Chemscore.ZeroCoef>
-5.4800

> <Gold.Chemscore.Hbond>
2.4356

> <Gold.Chemscore.Metal>
0.0000

> <Gold.Chemscore.Lipo>
162.5636

> <Gold.Chemscore.Internal_Hbond>
0.0000

> <Gold.Chemscore.DEClash>
2.8177

> <Gold.Chemscore.DEInternal>
1.6517

> <Gold.Chemscore.Rot>
3.0476

> <Gold.Chemscore.Internal.Correction>
   9.000000E+99

> <Gold.Chemscore.Hbonds>
donor molecule, donor type, donor heavy atom, donor atom, acceptor molecule, acceptor atom, score
      L1  H    16    41       P1  7949  0.62
      L1  H    17    47       P1  7948  0.20
      P1  H 10752 10765       L1    16  0.56

> <Gold.Chemscore.Hbond.Weighted>
-8.1349

> <Gold.Chemscore.Metal.Weighted>
-0.0000

> <Gold.Chemscore.Lipo.Weighted>
-19.0199

> <Gold.Chemscore.Internal_Hbond.Weighted>
0.0000

> <Gold.Chemscore.DEClash.Weighted>
2.8177

> <Gold.Chemscore.DEInternal.Weighted>
1.6517

> <Gold.Chemscore.Rot.Weighted>
7.8018

> <Gold.Chemscore.Internal.Correction.Weighted>
   9.000000E+99

> <Gold.Protein.RotatedTorsions>
[ 6907 6896 6895 6894 ] final -116.16 input  -60.11 | X-H torsion
[ 7974 7965 7964 7962 ] final   93.21 input  175.53 | X-H torsion
[ 8008 7997 7996 7995 ] final  170.07 input   59.86 | X-H torsion
[ 10167 10162 10161 10158 ] final  -18.80 input  -65.29 | X-H torsion
[ 10718 10713 10712 10709 ] final  -82.01 input   66.30 | X-H torsion
[ 10763 10752 10751 10750 ] final  178.56 input  -60.55 | X-H torsion
[ 11005 11000 10999 10996 ] final -177.27 input  -57.11 | X-H torsion

> <Gold.Protein.ActiveResidues>
 VAL166  LYS551  ARG553  GLY616  TRP617  ASP618  TYR619  PRO620  LYS621  CYS622 
 ASP623  PHE694  ASN695  SER759  ASP760  ASP761  ALA762  ILE779  LEU786  VAL792 
 PHE793  MET794  SER795  GLU796  ALA797  LYS798  CYS799  TRP800  GLU811  SER814 

> <Gold.Protein.RotatedAtoms>
  150.8034  133.8556  159.3217 H   0  0  0  0  0  0  0  0  0  0  0  0  # atno 6907 bound_to 6896
  151.6362  135.1016  160.0141 H   0  0  0  0  0  0  0  0  0  0  0  0  # atno 6908 bound_to 6896
  152.4123  133.6943  159.6443 H   0  0  0  0  0  0  0  0  0  0  0  0  # atno 6909 bound_to 6896
  145.4820  139.2278  143.2877 H   0  0  0  0  0  0  0  0  0  0  0  0  # atno 7974 bound_to 7965
  156.1399  140.1547  156.8936 H   0  0  0  0  0  0  0  0  0  0  0  0  # atno 8008 bound_to 7997
  154.4979  140.0833  156.7774 H   0  0  0  0  0  0  0  0  0  0  0  0  # atno 8009 bound_to 7997
  155.4098  140.3418  155.4265 H   0  0  0  0  0  0  0  0  0  0  0  0  # atno 8010 bound_to 7997
  140.7262  143.4881  151.0028 H   0  0  0  0  0  0  0  0  0  0  0  0  # atno 10167 bound_to 10162
  156.0040  130.4621  150.4040 H   0  0  0  0  0  0  0  0  0  0  0  0  # atno 10718 bound_to 10713
  154.5092  135.2787  155.1357 H   0  0  0  0  0  0  0  0  0  0  0  0  # atno 10763 bound_to 10752
  154.2959  135.6258  153.5408 H   0  0  0  0  0  0  0  0  0  0  0  0  # atno 10764 bound_to 10752
  152.9915  135.5685  154.5553 H   0  0  0  0  0  0  0  0  0  0  0  0  # atno 10765 bound_to 10752
  140.4428  134.6416  157.4765 H   0  0  0  0  0  0  0  0  0  0  0  0  # atno 11005 bound_to 11000
  146.2335  140.5608  142.8965 LP  0  0  0  0  0  0  0  0  0  0  0  0  # atno 17320 bound_to 7965
  144.7883  140.5981  143.6559 LP  0  0  0  0  0  0  0  0  0  0  0  0  # atno 17321 bound_to 7965
  139.8584  143.7347  152.3175 LP  0  0  0  0  0  0  0  0  0  0  0  0  # atno 17342 bound_to 10162
  139.7553  144.7522  151.0444 LP  0  0  0  0  0  0  0  0  0  0  0  0  # atno 17343 bound_to 10162
  157.2107  131.0460  151.2600 LP  0  0  0  0  0  0  0  0  0  0  0  0  # atno 17370 bound_to 10713
  157.3891  130.7272  149.6684 LP  0  0  0  0  0  0  0  0  0  0  0  0  # atno 17371 bound_to 10713
  140.0058  134.6765  155.9457 LP  0  0  0  0  0  0  0  0  0  0  0  0  # atno 17394 bound_to 11000
  141.1698  133.6537  156.4610 LP  0  0  0  0  0  0  0  0  0  0  0  0  # atno 17395 bound_to 11000

$$$$
