AV-unprocessed.smi:1351|AV-procd|sdf|5526|dock4
  -GOLD-   22720 5113D 1   1.00000     0.00000
 Structure written by MMmdl.
 35 36  0  0  0  0  0  0  0  0  2 V2000
  154.1486  141.4104  161.1259 C   0  0  0  0  0  0  0  0  0  0  0  0
  152.9923  142.2717  160.9040 N   0  0  0  0  0  0  0  0  0  0  0  0
  152.7104  143.3720  161.8166 C   0  0  0  0  0  0  0  0  0  0  0  0
  152.2149  142.1134  159.7360 C   0  0  0  0  0  0  0  0  0  0  0  0
  152.4394  141.0851  158.7878 C   0  0  0  0  0  0  0  0  0  0  0  0
  151.6148  140.9891  157.6479 C   0  0  0  0  0  0  0  0  0  0  0  0
  150.5775  141.9239  157.4505 C   0  0  0  0  0  0  0  0  0  0  0  0
  149.7584  141.7737  156.2991 N   0  0  0  0  0  0  0  0  0  0  0  0
  149.9662  141.0103  155.2092 C   0  0  0  0  0  0  0  0  0  0  0  0
  150.9123  140.2340  155.0787 O   0  0  0  0  0  0  0  0  0  0  0  0
  148.9076  141.0989  154.0987 C   0  0  2  0  0  0  0  0  0  0  0  0
  147.7481  142.0669  154.4063 C   0  0  0  0  0  0  0  0  0  0  0  0
  146.5048  141.1988  154.3126 C   0  0  0  0  0  0  0  0  0  0  0  0
  146.9693  140.0412  153.4404 C   0  0  0  0  0  0  0  0  0  0  0  0
  148.2920  139.8259  153.9008 O   0  0  0  0  0  0  0  0  0  0  0  0
  150.3885  142.9286  158.4288 C   0  0  0  0  0  0  0  0  0  0  0  0
  151.1995  142.9819  159.5073 N   0  3  0  0  0  0  0  0  0  0  0  0
  154.8758  141.5310  160.3222 H   0  0  0  0  0  0  0  0  0  0  0  0
  153.8455  140.3638  161.1669 H   0  0  0  0  0  0  0  0  0  0  0  0
  154.6466  141.6489  162.0658 H   0  0  0  0  0  0  0  0  0  0  0  0
  151.7046  143.2807  162.2272 H   0  0  0  0  0  0  0  0  0  0  0  0
  152.7922  144.3290  161.3005 H   0  0  0  0  0  0  0  0  0  0  0  0
  153.4104  143.3838  162.6521 H   0  0  0  0  0  0  0  0  0  0  0  0
  153.2315  140.3627  158.9164 H   0  0  0  0  0  0  0  0  0  0  0  0
  151.7839  140.2010  156.9286 H   0  0  0  0  0  0  0  0  0  0  0  0
  148.8902  142.2902  156.3097 H   0  0  0  0  0  0  0  0  0  0  0  0
  149.3965  141.3945  153.1693 H   0  0  0  0  0  0  0  0  0  0  0  0
  147.8155  142.5468  155.3838 H   0  0  0  0  0  0  0  0  0  0  0  0
  147.7174  142.8577  153.6559 H   0  0  0  0  0  0  0  0  0  0  0  0
  146.2350  140.8281  155.3024 H   0  0  0  0  0  0  0  0  0  0  0  0
  145.6446  141.7263  153.8999 H   0  0  0  0  0  0  0  0  0  0  0  0
  146.3506  139.1509  153.5544 H   0  0  0  0  0  0  0  0  0  0  0  0
  146.9852  140.3231  152.3865 H   0  0  0  0  0  0  0  0  0  0  0  0
  149.6168  143.6830  158.4061 H   0  0  0  0  0  0  0  0  0  0  0  0
  151.0338  143.7187  160.1930 H   0  0  0  0  0  0  0  0  0  0  0  0
  1  2  1  0  0  0  0
  1 18  1  0  0  0  0
  1 19  1  0  0  0  0
  1 20  1  0  0  0  0
  2  3  1  0  0  0  0
  2  4  1  0  0  0  0
  3 21  1  0  0  0  0
  3 22  1  0  0  0  0
  3 23  1  0  0  0  0
  4 17  1  0  0  0  0
  4  5  2  0  0  0  0
  5  6  1  0  0  0  0
  5 24  1  0  0  0  0
  6  7  2  0  0  0  0
  6 25  1  0  0  0  0
  7  8  1  0  0  0  0
  7 16  1  0  0  0  0
  8  9  1  0  0  0  0
  8 26  1  0  0  0  0
  9 10  2  0  0  0  0
  9 11  1  0  0  0  0
 11 15  1  0  0  0  0
 11 12  1  0  0  0  0
 11 27  1  0  0  0  0
 12 13  1  0  0  0  0
 12 28  1  0  0  0  0
 12 29  1  0  0  0  0
 13 14  1  0  0  0  0
 13 30  1  0  0  0  0
 13 31  1  0  0  0  0
 14 15  1  0  0  0  0
 14 32  1  0  0  0  0
 14 33  1  0  0  0  0
 16 17  2  0  0  0  0
 16 34  1  0  0  0  0
 17 35  1  0  0  0  0
M  CHG  1  17   1
M  END
> <s_m_source_file>
AV-unprocessed.smi

> <i_m_source_file_index>
1351

> <i_lp_mmshare_version>
43012

> <i_f3d_flags>
0

> <s_epik_input>
W0NIM11OKFtDSDNdKWMxW2NIXVtjSF1jKFtjSF1uMSlbTkhdQyg9TylbQ0BASF0yW0NIMl1bQ0gyXVtDSDJdTzI=

> <s_epik_cmdline>
J2VwaWtfcHl0aG9uJywgJy1waCcsICc3LjAnLCAnLXRuJywgJzgnLCAnLW1hJywgJzIwMCcsICctbWV0YWxfYmluZGluZycsICctaW1hZScsICc8aW5maWxlLm1hZT4nLCAnLW9tYWUnLCAnPG91dGZpbGUubWFlPic=

> <r_lp_tautomer_probability>
0.999994

> <r_epik_Ionization_Penalty>
0.682441

> <r_epik_Ionization_Penalty_Charging>
0.68244

> <r_epik_Ionization_Penalty_Neutral>
1.70545e-06

> <r_epik_State_Penalty>
0.703594

> <r_epik_Charging_Adjusted_Penalty>
1.38603

> <i_epik_Tot_Q>
1

> <i_epik_Tot_abs_Q>
1

> <r_epik_Metal_State_Penalty>
0.869714

> <b_epik_Metal_Only>
0

> <s_lp_Force_Field>
OPLS_2005

> <r_lp_Energy>
29.3142

> <b_lp_Chiralities_Consistent>
1

> <s_lp_Variant>
AV-unprocessed.smi:1351-3

> <Gold.Version>
5.8.1

> <Gold.Id.Protein>
6NUR|6NUR_protein|mol2

> <Gold.PLP.Fitness>
39.1703

> <Gold.PLP.PLP>
-36.2426

> <Gold.PLP.part.hbond>
-1.6264

> <Gold.PLP.part.metal>
0.0000

> <Gold.PLP.part.buried>
-3.0644

> <Gold.PLP.part.nonpolar>
-32.1616

> <Gold.PLP.part.repulsive>
0.9209

> <Gold.PLP.ligand.clash>
0.0000

> <Gold.PLP.ligand.torsion>
0.0463

> <Gold.PLP.Chemscore.Hbond>
1.0000

> <Gold.PLP.Chemscore.CHOScore>
0.0000

> <Gold.PLP.Chemscore.Metal>
0.0000

> <Gold.Chemscore.Hbonds>
donor molecule, donor type, donor heavy atom, donor atom, acceptor molecule, acceptor atom, score
      P1  H  7989  7998       L1    10  1.00

> <Gold.PLP.Chemscore.Internal.Correction>
0.0203

> <Gold.Rescore>
     Score         DG    S(hbond)    S(metal)    S(lipo)     H(rot)  DE(clash)    DE(int)     intcor
     12.87     -14.82       0.82        0.00      78.24       1.00       0.48       1.47       ----

> <Gold.Chemscore.Fitness>
12.8670

> <Gold.Chemscore.DG>
-14.8218

> <Gold.Chemscore.ZeroCoef>
-5.4800

> <Gold.Chemscore.Hbond>
0.8227

> <Gold.Chemscore.Metal>
0.0000

> <Gold.Chemscore.Lipo>
78.2398

> <Gold.Chemscore.Internal_Hbond>
0.0000

> <Gold.Chemscore.DEClash>
0.4820

> <Gold.Chemscore.DEInternal>
1.4728

> <Gold.Chemscore.Rot>
1.0000

> <Gold.Chemscore.Internal.Correction>
   9.000000E+99

> <Gold.Chemscore.Hbonds>
donor molecule, donor type, donor heavy atom, donor atom, acceptor molecule, acceptor atom, score
      P1  H  7989  7998       L1    10  0.25

> <Gold.Chemscore.Hbond.Weighted>
-2.7477

> <Gold.Chemscore.Metal.Weighted>
-0.0000

> <Gold.Chemscore.Lipo.Weighted>
-9.1541

> <Gold.Chemscore.Internal_Hbond.Weighted>
0.0000

> <Gold.Chemscore.DEClash.Weighted>
0.4820

> <Gold.Chemscore.DEInternal.Weighted>
1.4728

> <Gold.Chemscore.Rot.Weighted>
2.5600

> <Gold.Chemscore.Internal.Correction.Weighted>
   9.000000E+99

> <Gold.Protein.RotatedTorsions>
[ 6907 6896 6895 6894 ] final  152.60 input  -60.11 | X-H torsion
[ 7974 7965 7964 7962 ] final  171.50 input  175.53 | X-H torsion
[ 8008 7997 7996 7995 ] final  137.63 input   59.86 | X-H torsion
[ 10167 10162 10161 10158 ] final    6.22 input  -65.29 | X-H torsion
[ 10718 10713 10712 10709 ] final  165.68 input   66.30 | X-H torsion
[ 10763 10752 10751 10750 ] final   69.32 input  -60.55 | X-H torsion
[ 11005 11000 10999 10996 ] final  127.91 input  -57.11 | X-H torsion

> <Gold.Protein.ActiveResidues>
 VAL166  LYS551  ARG553  GLY616  TRP617  ASP618  TYR619  PRO620  LYS621  CYS622 
 ASP623  PHE694  ASN695  SER759  ASP760  ASP761  ALA762  ILE779  LEU786  VAL792 
 PHE793  MET794  SER795  GLU796  ALA797  LYS798  CYS799  TRP800  GLU811  SER814 

> <Gold.Protein.RotatedAtoms>
  152.0844  133.4169  159.4515 H   0  0  0  0  0  0  0  0  0  0  0  0  # atno 6907 bound_to 6896
  150.6862  134.2944  159.4689 H   0  0  0  0  0  0  0  0  0  0  0  0  # atno 6908 bound_to 6896
  152.0789  134.9483  160.0624 H   0  0  0  0  0  0  0  0  0  0  0  0  # atno 6909 bound_to 6896
  144.7293  139.9359  143.6426 H   0  0  0  0  0  0  0  0  0  0  0  0  # atno 7974 bound_to 7965
  156.3001  140.2414  156.3941 H   0  0  0  0  0  0  0  0  0  0  0  0  # atno 8008 bound_to 7997
  154.8587  140.0421  157.1671 H   0  0  0  0  0  0  0  0  0  0  0  0  # atno 8009 bound_to 7997
  154.8919  140.2964  155.5369 H   0  0  0  0  0  0  0  0  0  0  0  0  # atno 8010 bound_to 7997
  140.6439  143.7708  150.7470 H   0  0  0  0  0  0  0  0  0  0  0  0  # atno 10167 bound_to 10162
  157.0767  131.0381  151.2591 H   0  0  0  0  0  0  0  0  0  0  0  0  # atno 10718 bound_to 10713
  153.0281  135.5215  154.7271 H   0  0  0  0  0  0  0  0  0  0  0  0  # atno 10763 bound_to 10752
  154.6309  135.2900  155.0219 H   0  0  0  0  0  0  0  0  0  0  0  0  # atno 10764 bound_to 10752
  154.1172  135.6613  153.4948 H   0  0  0  0  0  0  0  0  0  0  0  0  # atno 10765 bound_to 10752
  139.9532  134.9618  156.8924 H   0  0  0  0  0  0  0  0  0  0  0  0  # atno 11005 bound_to 11000
  146.0822  139.3810  143.0457 LP  0  0  0  0  0  0  0  0  0  0  0  0  # atno 17320 bound_to 7965
  145.7825  140.9850  143.1091 LP  0  0  0  0  0  0  0  0  0  0  0  0  # atno 17321 bound_to 7965
  140.1345  143.4496  152.2233 LP  0  0  0  0  0  0  0  0  0  0  0  0  # atno 17342 bound_to 10162
  139.5649  144.7429  151.4050 LP  0  0  0  0  0  0  0  0  0  0  0  0  # atno 17343 bound_to 10162
  157.4834  130.7778  149.7436 LP  0  0  0  0  0  0  0  0  0  0  0  0  # atno 17370 bound_to 10713
  155.9935  130.3924  150.2898 LP  0  0  0  0  0  0  0  0  0  0  0  0  # atno 17371 bound_to 10713
  140.5669  134.0481  155.7417 LP  0  0  0  0  0  0  0  0  0  0  0  0  # atno 17394 bound_to 11000
  141.1199  133.9478  157.2749 LP  0  0  0  0  0  0  0  0  0  0  0  0  # atno 17395 bound_to 11000

$$$$
