AV-unprocessed.smi:1542|AV-procd|sdf|6203|dock4
  -GOLD-   22720 6373D 1   1.00000     0.00000
 Structure written by MMmdl.
 45 47  0  0  0  0  0  0  0  0  1 V2000
  149.3592  136.1227  159.0443 O   0  0  0  0  0  0  0  0  0  0  0  0
  150.1794  136.8243  158.1351 C   0  0  0  0  0  0  0  0  0  0  0  0
  150.2736  138.2991  158.5471 C   0  0  0  0  0  0  0  0  0  0  0  0
  151.3855  139.0456  157.7961 C   0  0  0  0  0  0  0  0  0  0  0  0
  151.4804  140.4883  158.1966 C   0  0  0  0  0  0  0  0  0  0  0  0
  151.7842  140.8371  159.4471 N   0  0  0  0  0  0  0  0  0  0  0  0
  151.8473  142.2135  159.3737 C   0  0  0  0  0  0  0  0  0  0  0  0
  152.1361  143.1715  160.3718 C   0  0  0  0  0  0  0  0  0  0  0  0
  152.1615  144.5456  160.0565 C   0  0  0  0  0  0  0  0  0  0  0  0
  151.9037  144.9795  158.7404 C   0  0  0  0  0  0  0  0  0  0  0  0
  151.6133  144.0411  157.7317 C   0  0  0  0  0  0  0  0  0  0  0  0
  151.5785  142.6700  158.0524 C   0  0  0  0  0  0  0  0  0  0  0  0
  151.3205  141.5135  157.3185 N   0  0  0  0  0  0  0  0  0  0  0  0
  150.9909  141.4485  155.8960 C   0  0  0  0  0  0  0  0  0  0  0  0
  149.5920  140.8526  155.5739 C   0  0  0  0  0  0  0  0  0  0  0  0
  148.7615  141.0274  156.7072 O   0  0  0  0  0  0  0  0  0  0  0  0
  148.9047  141.5528  154.3751 C   0  0  0  0  0  0  0  0  0  0  0  0
  147.5851  140.8801  153.9557 C   0  0  0  0  0  0  0  0  0  0  0  0
  147.7844  139.3855  153.6709 C   0  0  0  0  0  0  0  0  0  0  0  0
  148.3984  138.6748  154.8843 C   0  0  0  0  0  0  0  0  0  0  0  0
  149.7236  139.3342  155.3077 C   0  0  0  0  0  0  0  0  0  0  0  0
  148.4822  136.0878  158.6938 H   0  0  0  0  0  0  0  0  0  0  0  0
  151.1677  136.3640  158.1199 H   0  0  0  0  0  0  0  0  0  0  0  0
  149.7589  136.7313  157.1333 H   0  0  0  0  0  0  0  0  0  0  0  0
  149.3171  138.7895  158.3603 H   0  0  0  0  0  0  0  0  0  0  0  0
  150.4527  138.3679  159.6209 H   0  0  0  0  0  0  0  0  0  0  0  0
  152.3376  138.5425  157.9499 H   0  0  0  0  0  0  0  0  0  0  0  0
  151.1962  139.0004  156.7228 H   0  0  0  0  0  0  0  0  0  0  0  0
  152.3423  142.8477  161.3811 H   0  0  0  0  0  0  0  0  0  0  0  0
  152.3842  145.2693  160.8269 H   0  0  0  0  0  0  0  0  0  0  0  0
  151.9293  146.0334  158.5053 H   0  0  0  0  0  0  0  0  0  0  0  0
  151.4202  144.3741  156.7234 H   0  0  0  0  0  0  0  0  0  0  0  0
  151.0557  142.4602  155.4940 H   0  0  0  0  0  0  0  0  0  0  0  0
  151.7705  140.8866  155.3810 H   0  0  0  0  0  0  0  0  0  0  0  0
  147.8677  141.1106  156.4116 H   0  0  0  0  0  0  0  0  0  0  0  0
  148.7120  142.6021  154.6006 H   0  0  0  0  0  0  0  0  0  0  0  0
  149.5810  141.5407  153.5202 H   0  0  0  0  0  0  0  0  0  0  0  0
  146.8380  141.0075  154.7400 H   0  0  0  0  0  0  0  0  0  0  0  0
  147.1850  141.3743  153.0700 H   0  0  0  0  0  0  0  0  0  0  0  0
  146.8304  138.9251  153.4124 H   0  0  0  0  0  0  0  0  0  0  0  0
  148.4342  139.2603  152.8038 H   0  0  0  0  0  0  0  0  0  0  0  0
  147.6925  138.6923  155.7153 H   0  0  0  0  0  0  0  0  0  0  0  0
  148.5681  137.6236  154.6501 H   0  0  0  0  0  0  0  0  0  0  0  0
  150.4581  139.1725  154.5175 H   0  0  0  0  0  0  0  0  0  0  0  0
  150.1169  138.8287  156.1911 H   0  0  0  0  0  0  0  0  0  0  0  0
  1  2  1  0  0  0  0
  1 22  1  0  0  0  0
  2  3  1  0  0  0  0
  2 23  1  0  0  0  0
  2 24  1  0  0  0  0
  3  4  1  0  0  0  0
  3 25  1  0  0  0  0
  3 26  1  0  0  0  0
  4  5  1  0  0  0  0
  4 27  1  0  0  0  0
  4 28  1  0  0  0  0
  5 13  1  0  0  0  0
  5  6  2  0  0  0  0
  6  7  1  0  0  0  0
  7 12  2  0  0  0  0
  7  8  1  0  0  0  0
  8  9  2  0  0  0  0
  8 29  1  0  0  0  0
  9 10  1  0  0  0  0
  9 30  1  0  0  0  0
 10 11  2  0  0  0  0
 10 31  1  0  0  0  0
 11 12  1  0  0  0  0
 11 32  1  0  0  0  0
 12 13  1  0  0  0  0
 13 14  1  0  0  0  0
 14 15  1  0  0  0  0
 14 33  1  0  0  0  0
 14 34  1  0  0  0  0
 15 21  1  0  0  0  0
 15 16  1  0  0  0  0
 15 17  1  0  0  0  0
 16 35  1  0  0  0  0
 17 18  1  0  0  0  0
 17 36  1  0  0  0  0
 17 37  1  0  0  0  0
 18 19  1  0  0  0  0
 18 38  1  0  0  0  0
 18 39  1  0  0  0  0
 19 20  1  0  0  0  0
 19 40  1  0  0  0  0
 19 41  1  0  0  0  0
 20 21  1  0  0  0  0
 20 42  1  0  0  0  0
 20 43  1  0  0  0  0
 21 44  1  0  0  0  0
 21 45  1  0  0  0  0
M  END
> <s_m_source_file>
AV-unprocessed.smi

> <i_m_source_file_index>
1542

> <i_lp_mmshare_version>
43012

> <i_f3d_flags>
0

> <s_epik_input>
W09IXVtDSDJdW0NIMl1bQ0gyXWMobjEpbihjKGMxMilbY0hdW2NIXVtjSF1bY0hdMilbQ0gyXUMzKFtPSF0pW0NIMl1bQ0gyXVtDSDJdW0NIMl1bQ0gyXTM=

> <s_epik_cmdline>
J2VwaWtfcHl0aG9uJywgJy1waCcsICc3LjAnLCAnLXRuJywgJzgnLCAnLW1hJywgJzIwMCcsICctbWV0YWxfYmluZGluZycsICctaW1hZScsICc8aW5maWxlLm1hZT4nLCAnLW9tYWUnLCAnPG91dGZpbGUubWFlPic=

> <r_epik_Ionization_Penalty>
0.294093

> <r_epik_Ionization_Penalty_Charging>
0

> <r_epik_Ionization_Penalty_Neutral>
0.294093

> <r_epik_State_Penalty>
0.287281

> <r_epik_Charging_Adjusted_Penalty>
0.287281

> <i_epik_Tot_Q>
0

> <i_epik_Tot_abs_Q>
0

> <r_epik_Metal_State_Penalty>
0.000369578

> <b_epik_Metal_Only>
0

> <s_lp_Force_Field>
OPLS_2005

> <r_lp_Energy>
13.7601

> <b_lp_Chiralities_Consistent>
1

> <s_lp_Variant>
AV-unprocessed.smi:1542-1

> <Gold.Version>
5.8.1

> <Gold.Id.Protein>
6NUR|6NUR_protein|mol2

> <Gold.PLP.Fitness>
44.8383

> <Gold.PLP.PLP>
-42.9795

> <Gold.PLP.part.hbond>
-1.0000

> <Gold.PLP.part.metal>
0.0000

> <Gold.PLP.part.buried>
-4.9609

> <Gold.PLP.part.nonpolar>
-36.1477

> <Gold.PLP.part.repulsive>
0.0000

> <Gold.PLP.ligand.clash>
0.0000

> <Gold.PLP.ligand.torsion>
0.7703

> <Gold.PLP.Chemscore.Hbond>
1.0000

> <Gold.PLP.Chemscore.CHOScore>
0.0000

> <Gold.PLP.Chemscore.Metal>
0.0000

> <Gold.Chemscore.Hbonds>
donor molecule, donor type, donor heavy atom, donor atom, acceptor molecule, acceptor atom, score
      P1  H  6896  6909       L1     1  0.85

> <Gold.PLP.Chemscore.Internal.Correction>
0.3995

> <Gold.Rescore>
     Score         DG    S(hbond)    S(metal)    S(lipo)     H(rot)  DE(clash)    DE(int)     intcor
     15.00     -16.03       0.98        0.00     122.18       2.74       0.16       0.87       ----

> <Gold.Chemscore.Fitness>
14.9989

> <Gold.Chemscore.DG>
-16.0340

> <Gold.Chemscore.ZeroCoef>
-5.4800

> <Gold.Chemscore.Hbond>
0.9837

> <Gold.Chemscore.Metal>
0.0000

> <Gold.Chemscore.Lipo>
122.1834

> <Gold.Chemscore.Internal_Hbond>
0.0000

> <Gold.Chemscore.DEClash>
0.1610

> <Gold.Chemscore.DEInternal>
0.8741

> <Gold.Chemscore.Rot>
2.7449

> <Gold.Chemscore.Internal.Correction>
   9.000000E+99

> <Gold.Chemscore.Hbonds>
donor molecule, donor type, donor heavy atom, donor atom, acceptor molecule, acceptor atom, score
      P1  H  6896  6909       L1     1  0.16

> <Gold.Chemscore.Hbond.Weighted>
-3.2855

> <Gold.Chemscore.Metal.Weighted>
-0.0000

> <Gold.Chemscore.Lipo.Weighted>
-14.2955

> <Gold.Chemscore.Internal_Hbond.Weighted>
0.0000

> <Gold.Chemscore.DEClash.Weighted>
0.1610

> <Gold.Chemscore.DEInternal.Weighted>
0.8741

> <Gold.Chemscore.Rot.Weighted>
7.0269

> <Gold.Chemscore.Internal.Correction.Weighted>
   9.000000E+99

> <Gold.Protein.RotatedTorsions>
[ 6907 6896 6895 6894 ] final   55.49 input  -60.11 | X-H torsion
[ 7974 7965 7964 7962 ] final   47.67 input  175.53 | X-H torsion
[ 8008 7997 7996 7995 ] final  -23.99 input   59.86 | X-H torsion
[ 10167 10162 10161 10158 ] final -105.99 input  -65.29 | X-H torsion
[ 10718 10713 10712 10709 ] final   42.37 input   66.30 | X-H torsion
[ 10763 10752 10751 10750 ] final  163.74 input  -60.55 | X-H torsion
[ 11005 11000 10999 10996 ] final  126.59 input  -57.11 | X-H torsion

> <Gold.Protein.ActiveResidues>
 VAL166  LYS551  ARG553  GLY616  TRP617  ASP618  TYR619  PRO620  LYS621  CYS622 
 ASP623  PHE694  ASN695  SER759  ASP760  ASP761  ALA762  ILE779  LEU786  VAL792 
 PHE793  MET794  SER795  GLU796  ALA797  LYS798  CYS799  TRP800  GLU811  SER814 

> <Gold.Protein.RotatedAtoms>
  152.3544  134.6961  160.0226 H   0  0  0  0  0  0  0  0  0  0  0  0  # atno 6907 bound_to 6896
  151.7305  133.3312  159.3347 H   0  0  0  0  0  0  0  0  0  0  0  0  # atno 6908 bound_to 6896
  150.7561  134.6301  159.6226 H   0  0  0  0  0  0  0  0  0  0  0  0  # atno 6909 bound_to 6896
  146.0276  139.4725  142.9858 H   0  0  0  0  0  0  0  0  0  0  0  0  # atno 7974 bound_to 7965
  154.4554  140.1965  156.0396 H   0  0  0  0  0  0  0  0  0  0  0  0  # atno 8008 bound_to 7997
  156.0734  140.3281  155.7576 H   0  0  0  0  0  0  0  0  0  0  0  0  # atno 8009 bound_to 7997
  155.5226  140.0571  157.2894 H   0  0  0  0  0  0  0  0  0  0  0  0  # atno 8010 bound_to 7997
  140.1925  143.3880  152.1194 H   0  0  0  0  0  0  0  0  0  0  0  0  # atno 10167 bound_to 10162
  157.4041  130.7877  149.7374 H   0  0  0  0  0  0  0  0  0  0  0  0  # atno 10718 bound_to 10713
  154.2984  135.2759  155.2622 H   0  0  0  0  0  0  0  0  0  0  0  0  # atno 10763 bound_to 10752
  154.5071  135.5792  153.6579 H   0  0  0  0  0  0  0  0  0  0  0  0  # atno 10764 bound_to 10752
  152.9904  135.6172  154.3153 H   0  0  0  0  0  0  0  0  0  0  0  0  # atno 10765 bound_to 10752
  139.9464  134.9629  156.8729 H   0  0  0  0  0  0  0  0  0  0  0  0  # atno 11005 bound_to 11000
  145.7092  141.0111  143.1462 LP  0  0  0  0  0  0  0  0  0  0  0  0  # atno 17320 bound_to 7965
  144.7016  139.8737  143.7442 LP  0  0  0  0  0  0  0  0  0  0  0  0  # atno 17321 bound_to 7965
  139.5250  144.7090  151.5264 LP  0  0  0  0  0  0  0  0  0  0  0  0  # atno 17342 bound_to 10162
  140.6446  143.8821  150.6724 LP  0  0  0  0  0  0  0  0  0  0  0  0  # atno 17343 bound_to 10162
  155.9831  130.4003  150.3379 LP  0  0  0  0  0  0  0  0  0  0  0  0  # atno 17370 bound_to 10713
  157.1510  131.0321  151.2885 LP  0  0  0  0  0  0  0  0  0  0  0  0  # atno 17371 bound_to 10713
  140.5825  134.0339  155.7469 LP  0  0  0  0  0  0  0  0  0  0  0  0  # atno 17394 bound_to 11000
  141.1115  133.9609  157.2901 LP  0  0  0  0  0  0  0  0  0  0  0  0  # atno 17395 bound_to 11000

$$$$
