AV-unprocessed.smi:1724|AV-procd|sdf|6952|dock2
  -GOLD-   22720 8163D 1   1.00000     0.00000
 Structure written by MMmdl.
 37 38  0  0  0  0  0  0  0  0  2 V2000
  147.9616  136.0519  156.3006 O   0  0  0  0  0  0  0  0  0  0  0  0
  148.2949  135.9504  155.1203 C   0  0  0  0  0  0  0  0  0  0  0  0
  147.9158  136.8210  154.1734 N   0  0  0  0  0  0  0  0  0  0  0  0
  147.0772  137.9975  154.3845 C   0  0  0  0  0  0  0  0  0  0  0  0
  147.8390  139.3152  154.1346 C   0  0  1  0  0  0  0  0  0  0  0  0
  147.1818  140.5326  154.8126 C   0  0  0  0  0  0  0  0  0  0  0  0
  148.0404  141.7850  154.6034 C   0  0  0  0  0  0  0  0  0  0  0  0
  149.4873  141.5243  155.0472 C   0  0  0  0  0  0  0  0  0  0  0  0
  150.0113  140.4059  154.3407 O   0  0  0  0  0  0  0  0  0  0  0  0
  149.3032  139.1991  154.6050 C   0  0  0  0  0  0  0  0  0  0  0  0
  149.0715  134.9863  154.5928 N   0  0  0  0  0  0  0  0  0  0  0  0
  149.6841  133.8783  155.2055 C   0  0  0  0  0  0  0  0  0  0  0  0
  149.7269  132.6179  154.6898 C   0  0  0  0  0  0  0  0  0  0  0  0
  150.3842  131.5154  155.3815 C   0  0  0  0  0  0  0  0  0  0  0  0
  150.4596  130.0951  154.8522 C   0  0  0  0  0  0  0  0  0  0  0  0
  149.9529  129.2436  155.7433 F   0  0  0  0  0  0  0  0  0  0  0  0
  149.7520  129.9849  153.7285 F   0  0  0  0  0  0  0  0  0  0  0  0
  151.7172  129.7356  154.5944 F   0  0  0  0  0  0  0  0  0  0  0  0
  150.9432  131.9054  156.5818 C   0  0  0  0  0  0  0  0  0  0  0  0
  150.9497  133.1258  157.1603 N   0  5  0  0  0  0  0  0  0  0  0  0
  150.3306  134.1494  156.5073 C   0  0  0  0  0  0  0  0  0  0  0  0
  150.3006  135.2872  156.9782 O   0  0  0  0  0  0  0  0  0  0  0  0
  148.2384  136.6599  153.2304 H   0  0  0  0  0  0  0  0  0  0  0  0
  146.1771  137.9561  153.7686 H   0  0  0  0  0  0  0  0  0  0  0  0
  146.7343  137.9666  155.4190 H   0  0  0  0  0  0  0  0  0  0  0  0
  147.8529  139.4959  153.0584 H   0  0  0  0  0  0  0  0  0  0  0  0
  146.1820  140.7076  154.4146 H   0  0  0  0  0  0  0  0  0  0  0  0
  147.0646  140.3427  155.8804 H   0  0  0  0  0  0  0  0  0  0  0  0
  148.0282  142.0659  153.5495 H   0  0  0  0  0  0  0  0  0  0  0  0
  147.6216  142.6260  155.1566 H   0  0  0  0  0  0  0  0  0  0  0  0
  150.1075  142.3957  154.8371 H   0  0  0  0  0  0  0  0  0  0  0  0
  149.5397  141.3475  156.1226 H   0  0  0  0  0  0  0  0  0  0  0  0
  149.3547  138.9628  155.6691 H   0  0  0  0  0  0  0  0  0  0  0  0
  149.8035  138.3869  154.0769 H   0  0  0  0  0  0  0  0  0  0  0  0
  149.2663  135.0652  153.6054 H   0  0  0  0  0  0  0  0  0  0  0  0
  149.2773  132.3909  153.7387 H   0  0  0  0  0  0  0  0  0  0  0  0
  151.4636  131.1147  157.1636 H   0  0  0  0  0  0  0  0  0  0  0  0
  1  2  2  0  0  0  0
  2  3  1  0  0  0  0
  2 11  1  0  0  0  0
  3  4  1  0  0  0  0
  3 23  1  0  0  0  0
  4  5  1  0  0  0  0
  4 24  1  0  0  0  0
  4 25  1  0  0  0  0
  5 10  1  0  0  0  0
  5  6  1  0  0  0  0
  5 26  1  0  0  0  0
  6  7  1  0  0  0  0
  6 27  1  0  0  0  0
  6 28  1  0  0  0  0
  7  8  1  0  0  0  0
  7 29  1  0  0  0  0
  7 30  1  0  0  0  0
  8  9  1  0  0  0  0
  8 31  1  0  0  0  0
  8 32  1  0  0  0  0
  9 10  1  0  0  0  0
 10 33  1  0  0  0  0
 10 34  1  0  0  0  0
 11 12  1  0  0  0  0
 11 35  1  0  0  0  0
 12 21  1  0  0  0  0
 12 13  2  0  0  0  0
 13 14  1  0  0  0  0
 13 36  1  0  0  0  0
 14 15  1  0  0  0  0
 14 19  2  0  0  0  0
 15 16  1  0  0  0  0
 15 17  1  0  0  0  0
 15 18  1  0  0  0  0
 19 20  1  0  0  0  0
 19 37  1  0  0  0  0
 20 21  1  0  0  0  0
 21 22  2  0  0  0  0
M  CHG  1  20  -1
M  END
> <s_m_source_file>
AV-unprocessed.smi

> <i_m_source_file_index>
1724

> <i_lp_mmshare_version>
43012

> <i_f3d_flags>
0

> <s_epik_input>
Tz1jMVtuSF1bY0hdYyhDKEYpKEYpRilbY0hdYzFbTkhdQyg9TylbTkhdW0NIMl1bQ0BASF0yW0NIMl1bQ0gyXVtDSDJdT1tDSDJdMg==

> <s_epik_cmdline>
J2VwaWtfcHl0aG9uJywgJy1waCcsICc3LjAnLCAnLXRuJywgJzgnLCAnLW1hJywgJzIwMCcsICctbWV0YWxfYmluZGluZycsICctaW1hZScsICc8aW5maWxlLm1hZT4nLCAnLW9tYWUnLCAnPG91dGZpbGUubWFlPic=

> <r_lp_tautomer_probability>
1

> <r_epik_Ionization_Penalty>
3.16025

> <r_epik_Ionization_Penalty_Charging>
0.171172

> <r_epik_Ionization_Penalty_Neutral>
2.98908

> <r_epik_State_Penalty>
2.98521

> <r_epik_Charging_Adjusted_Penalty>
3.15638

> <i_epik_Tot_Q>
-1

> <i_epik_Tot_abs_Q>
1

> <r_epik_Metal_State_Penalty>
0.452642

> <b_epik_Metal_Only>
1

> <s_lp_Force_Field>
OPLS_2005

> <r_lp_Energy>
24.0618

> <b_lp_Chiralities_Consistent>
1

> <s_lp_Variant>
AV-unprocessed.smi:1724-4

> <Gold.Version>
5.8.1

> <Gold.Id.Protein>
6NUR|6NUR_protein|mol2

> <Gold.PLP.Fitness>
44.2412

> <Gold.PLP.PLP>
-32.1854

> <Gold.PLP.part.hbond>
-3.9660

> <Gold.PLP.part.metal>
0.0000

> <Gold.PLP.part.buried>
-4.2501

> <Gold.PLP.part.nonpolar>
-25.1820

> <Gold.PLP.part.repulsive>
0.8969

> <Gold.PLP.ligand.clash>
0.0000

> <Gold.PLP.ligand.torsion>
0.6539

> <Gold.PLP.Chemscore.Hbond>
4.4473

> <Gold.PLP.Chemscore.CHOScore>
0.0000

> <Gold.PLP.Chemscore.Metal>
0.0000

> <Gold.Chemscore.Hbonds>
donor molecule, donor type, donor heavy atom, donor atom, acceptor molecule, acceptor atom, score
      L1  H     3    23       P1  7948  1.00
      L1  H    11    35       P1  7948  0.73
      P1  H  6896  6907       L1    20  1.63
      P1  H  7989  7998       L1     9  0.88

> <Gold.PLP.Chemscore.Internal.Correction>
0.0215

> <Gold.Rescore>
     Score         DG    S(hbond)    S(metal)    S(lipo)     H(rot)  DE(clash)    DE(int)     intcor
     14.36     -18.04       2.85        0.00      55.03       1.32       0.15       3.52       ----

> <Gold.Chemscore.Fitness>
14.3644

> <Gold.Chemscore.DG>
-18.0372

> <Gold.Chemscore.ZeroCoef>
-5.4800

> <Gold.Chemscore.Hbond>
2.8473

> <Gold.Chemscore.Metal>
0.0000

> <Gold.Chemscore.Lipo>
55.0322

> <Gold.Chemscore.Internal_Hbond>
0.0000

> <Gold.Chemscore.DEClash>
0.1499

> <Gold.Chemscore.DEInternal>
3.5228

> <Gold.Chemscore.Rot>
1.3248

> <Gold.Chemscore.Internal.Correction>
   9.000000E+99

> <Gold.Chemscore.Hbonds>
donor molecule, donor type, donor heavy atom, donor atom, acceptor molecule, acceptor atom, score
      L1  H     3    23       P1  7948  0.99
      L1  H    11    35       P1  7948  0.14
      P1  H  6896  6907       L1    20  0.66
      P1  H  7989  7998       L1     9  0.64

> <Gold.Chemscore.Hbond.Weighted>
-9.5099

> <Gold.Chemscore.Metal.Weighted>
-0.0000

> <Gold.Chemscore.Lipo.Weighted>
-6.4388

> <Gold.Chemscore.Internal_Hbond.Weighted>
0.0000

> <Gold.Chemscore.DEClash.Weighted>
0.1499

> <Gold.Chemscore.DEInternal.Weighted>
3.5228

> <Gold.Chemscore.Rot.Weighted>
3.3915

> <Gold.Chemscore.Internal.Correction.Weighted>
   9.000000E+99

> <Gold.Protein.RotatedTorsions>
[ 6907 6896 6895 6894 ] final -148.58 input  -60.11 | X-H torsion
[ 7974 7965 7964 7962 ] final  -35.85 input  175.53 | X-H torsion
[ 8008 7997 7996 7995 ] final -140.04 input   59.86 | X-H torsion
[ 10167 10162 10161 10158 ] final -114.28 input  -65.29 | X-H torsion
[ 10718 10713 10712 10709 ] final   88.63 input   66.30 | X-H torsion
[ 10763 10752 10751 10750 ] final -157.84 input  -60.55 | X-H torsion
[ 11005 11000 10999 10996 ] final  -21.17 input  -57.11 | X-H torsion

> <Gold.Protein.ActiveResidues>
 VAL166  LYS551  ARG553  GLY616  TRP617  ASP618  TYR619  PRO620  LYS621  CYS622 
 ASP623  PHE694  ASN695  SER759  ASP760  ASP761  ALA762  ILE779  LEU786  VAL792 
 PHE793  MET794  SER795  GLU796  ALA797  LYS798  CYS799  TRP800  GLU811  SER814 

> <Gold.Protein.RotatedAtoms>
  151.1718  133.4779  159.2593 H   0  0  0  0  0  0  0  0  0  0  0  0  # atno 6907 bound_to 6896
  151.1348  135.0149  159.8609 H   0  0  0  0  0  0  0  0  0  0  0  0  # atno 6908 bound_to 6896
  152.5461  134.1618  159.8614 H   0  0  0  0  0  0  0  0  0  0  0  0  # atno 6909 bound_to 6896
  146.0711  140.6209  142.8952 H   0  0  0  0  0  0  0  0  0  0  0  0  # atno 7974 bound_to 7965
  155.4548  140.0541  157.2997 H   0  0  0  0  0  0  0  0  0  0  0  0  # atno 8008 bound_to 7997
  154.4762  140.2062  155.9829 H   0  0  0  0  0  0  0  0  0  0  0  0  # atno 8009 bound_to 7997
  156.1135  140.3200  155.8111 H   0  0  0  0  0  0  0  0  0  0  0  0  # atno 8010 bound_to 7997
  140.1027  143.4598  152.1802 H   0  0  0  0  0  0  0  0  0  0  0  0  # atno 10167 bound_to 10162
  157.6950  131.0302  150.3303 H   0  0  0  0  0  0  0  0  0  0  0  0  # atno 10718 bound_to 10713
  154.7604  135.3116  154.8388 H   0  0  0  0  0  0  0  0  0  0  0  0  # atno 10763 bound_to 10752
  153.9151  135.6801  153.4754 H   0  0  0  0  0  0  0  0  0  0  0  0  # atno 10764 bound_to 10752
  153.1205  135.4825  154.9118 H   0  0  0  0  0  0  0  0  0  0  0  0  # atno 10765 bound_to 10752
  140.8535  133.7839  155.9993 H   0  0  0  0  0  0  0  0  0  0  0  0  # atno 11005 bound_to 11000
  144.7232  140.4442  143.6992 LP  0  0  0  0  0  0  0  0  0  0  0  0  # atno 17320 bound_to 7965
  145.6389  139.1547  143.2927 LP  0  0  0  0  0  0  0  0  0  0  0  0  # atno 17321 bound_to 7965
  139.5662  144.7436  151.4015 LP  0  0  0  0  0  0  0  0  0  0  0  0  # atno 17342 bound_to 10162
  140.6969  143.7727  150.7341 LP  0  0  0  0  0  0  0  0  0  0  0  0  # atno 17343 bound_to 10162
  156.3778  130.3875  149.7125 LP  0  0  0  0  0  0  0  0  0  0  0  0  # atno 17370 bound_to 10713
  156.4518  130.7910  151.2931 LP  0  0  0  0  0  0  0  0  0  0  0  0  # atno 17371 bound_to 10713
  140.8763  134.2665  157.5166 LP  0  0  0  0  0  0  0  0  0  0  0  0  # atno 17394 bound_to 11000
  139.8704  134.9593  156.4327 LP  0  0  0  0  0  0  0  0  0  0  0  0  # atno 17395 bound_to 11000

$$$$
