AV-unprocessed.smi:44|AV-procd|sdf|403|dock10
  -GOLD-   2262016253D 1   1.00000     0.00000
 Structure written by MMmdl.
 28 30  0  0  0  0  0  0  0  0  2 V2000
  153.3962  138.8775  155.2440 O   0  0  0  0  0  0  0  0  0  0  0  0
  152.2199  138.5565  155.0866 C   0  0  0  0  0  0  0  0  0  0  0  0
  151.7776  137.2961  154.7770 N   0  5  0  0  0  0  0  0  0  0  0  0
  150.4125  137.0629  154.6228 C   0  0  0  0  0  0  0  0  0  0  0  0
  149.4499  137.9133  154.7386 N   0  0  0  0  0  0  0  0  0  0  0  0
  149.8683  139.1897  155.0527 C   0  0  0  0  0  0  0  0  0  0  0  0
  151.1623  139.5956  155.2376 C   0  0  0  0  0  0  0  0  0  0  0  0
  151.2258  140.9502  155.5394 N   0  0  0  0  0  0  0  0  0  0  0  0
  149.9396  141.3005  155.5222 C   0  0  0  0  0  0  0  0  0  0  0  0
  149.0669  140.3071  155.2484 N   0  0  0  0  0  0  0  0  0  0  0  0
  147.5731  140.3708  155.1559 C   0  0  1  0  0  0  0  0  0  0  0  0
  147.1645  141.5148  154.2272 C   0  0  0  0  0  0  0  0  0  0  0  0
  147.1751  140.8212  152.8836 C   0  0  0  0  0  0  0  0  0  0  0  0
  146.6075  139.4497  153.2493 C   0  0  1  0  0  0  0  0  0  0  0  0
  147.0143  138.3395  152.2686 C   0  0  0  0  0  0  0  0  0  0  0  0
  146.6583  138.7021  150.9522 O   0  0  0  0  0  0  0  0  0  0  0  0
  147.1191  139.1892  154.5587 O   0  0  0  0  0  0  0  0  0  0  0  0
  147.2351  140.4778  156.1872 H   0  0  0  0  0  0  0  0  0  0  0  0
  145.5206  139.5312  153.3116 H   0  0  0  0  0  0  0  0  0  0  0  0
  150.2047  136.0185  154.3767 H   0  0  0  0  0  0  0  0  0  0  0  0
  149.6283  142.3151  155.7160 H   0  0  0  0  0  0  0  0  0  0  0  0
  146.1559  141.8372  154.4887 H   0  0  0  0  0  0  0  0  0  0  0  0
  147.8399  142.3685  154.2949 H   0  0  0  0  0  0  0  0  0  0  0  0
  146.5815  141.3399  152.1305 H   0  0  0  0  0  0  0  0  0  0  0  0
  148.1975  140.7340  152.5123 H   0  0  0  0  0  0  0  0  0  0  0  0
  148.0961  138.2039  152.2872 H   0  0  0  0  0  0  0  0  0  0  0  0
  146.5650  137.3829  152.5341 H   0  0  0  0  0  0  0  0  0  0  0  0
  145.7195  138.6377  150.8658 H   0  0  0  0  0  0  0  0  0  0  0  0
  1  2  2  0  0  0  0
  2  7  1  0  0  0  0
  2  3  1  0  0  0  0
  3  4  1  0  0  0  0
  4  5  2  0  0  0  0
  4 20  1  0  0  0  0
  5  6  1  0  0  0  0
  6 10  1  0  0  0  0
  6  7  2  0  0  0  0
  7  8  1  0  0  0  0
  8  9  2  0  0  0  0
  9 10  1  0  0  0  0
  9 21  1  0  0  0  0
 10 11  1  0  0  0  0
 11 18  1  0  0  0  0
 11 17  1  0  0  0  0
 11 12  1  0  0  0  0
 12 13  1  0  0  0  0
 12 22  1  0  0  0  0
 12 23  1  0  0  0  0
 13 14  1  0  0  0  0
 13 24  1  0  0  0  0
 13 25  1  0  0  0  0
 14 19  1  0  0  0  0
 14 15  1  0  0  0  0
 14 17  1  0  0  0  0
 15 16  1  0  0  0  0
 15 26  1  0  0  0  0
 15 27  1  0  0  0  0
 16 28  1  0  0  0  0
M  CHG  1   3  -1
M  END
> <s_m_source_file>
AV-unprocessed.smi

> <i_m_source_file_index>
44

> <i_lp_mmshare_version>
43012

> <i_f3d_flags>
0

> <s_epik_input>
bjFbY0hdW25IXWMoPU8pYyhjMTIpbltjSF1uMltDQEhdM1tDSDJdW0NIMl1bQ0BIXShPMylbQ0gyXVtPSF0=

> <s_epik_cmdline>
J2VwaWtfcHl0aG9uJywgJy1waCcsICc3LjAnLCAnLXRuJywgJzgnLCAnLW1hJywgJzIwMCcsICctbWV0YWxfYmluZGluZycsICctaW1hZScsICc8aW5maWxlLm1hZT4nLCAnLW9tYWUnLCAnPG91dGZpbGUubWFlPic=

> <r_lp_tautomer_probability>
0.85571

> <r_epik_Ionization_Penalty>
2.55863

> <r_epik_Ionization_Penalty_Charging>
1.36424e-10

> <r_epik_Ionization_Penalty_Neutral>
2.55863

> <r_epik_State_Penalty>
2.63326

> <r_epik_Charging_Adjusted_Penalty>
2.63326

> <i_epik_Tot_Q>
-1

> <i_epik_Tot_abs_Q>
1

> <r_epik_Metal_State_Penalty>
0.475154

> <b_epik_Metal_Only>
1

> <s_epik_Chemistry_Notes>
This compound contains an acetal/aminal-like group ( X-CH(R)-Y where X, Y are N, S, or O) that may be acid/base labile, releasing an aldehyde.

> <s_lp_Force_Field>
OPLS_2005

> <r_lp_Energy>
44.8595

> <b_lp_Chiralities_Consistent>
1

> <s_lp_Variant>
AV-unprocessed.smi:44-9

> <Gold.Version>
5.8.1

> <Gold.Id.Protein>
6NUR|6NUR_protein|mol2

> <Gold.PLP.Fitness>
43.8020

> <Gold.PLP.PLP>
-26.6591

> <Gold.PLP.part.hbond>
-5.4873

> <Gold.PLP.part.metal>
0.0000

> <Gold.PLP.part.buried>
1.9807

> <Gold.PLP.part.nonpolar>
-23.7203

> <Gold.PLP.part.repulsive>
0.4573

> <Gold.PLP.ligand.clash>
0.0000

> <Gold.PLP.ligand.torsion>
0.2418

> <Gold.PLP.Chemscore.Hbond>
4.6608

> <Gold.PLP.Chemscore.CHOScore>
1.2082

> <Gold.PLP.Chemscore.Metal>
0.0000

> <Gold.Chemscore.Hbonds>
donor molecule, donor type, donor heavy atom, donor atom, acceptor molecule, acceptor atom, score
      L1  H    16    28       P1 10171  0.80
      P1  H  7954  7966       L1    16  0.93
      P1  H  7997  8009       L1     1  1.00
      P1  H 10752 10763       L1     3  1.90
      L1  C     4    20       P1  7948  0.14
      L1  C     9    21       P1  8028  1.00

> <Gold.PLP.Chemscore.Internal.Correction>
0.0196

> <Gold.Rescore>
     Score         DG    S(hbond)    S(metal)    S(lipo)     H(rot)  DE(clash)    DE(int)     intcor
     10.90     -12.90       2.69        0.00      35.96       2.26       0.09       1.92       ----

> <Gold.Chemscore.Fitness>
10.8964

> <Gold.Chemscore.DG>
-12.9007

> <Gold.Chemscore.ZeroCoef>
-5.4800

> <Gold.Chemscore.Hbond>
2.6933

> <Gold.Chemscore.Metal>
0.0000

> <Gold.Chemscore.Lipo>
35.9614

> <Gold.Chemscore.Internal_Hbond>
0.0000

> <Gold.Chemscore.DEClash>
0.0887

> <Gold.Chemscore.DEInternal>
1.9157

> <Gold.Chemscore.Rot>
2.2588

> <Gold.Chemscore.Internal.Correction>
   9.000000E+99

> <Gold.Chemscore.Hbonds>
donor molecule, donor type, donor heavy atom, donor atom, acceptor molecule, acceptor atom, score
      L1  H    16    28       P1 10171  0.77
      P1  H  7954  7966       L1    16  0.30
      P1  H  7997  8009       L1     1  0.96
      P1  H 10752 10763       L1     3  0.76

> <Gold.Chemscore.Hbond.Weighted>
-8.9957

> <Gold.Chemscore.Metal.Weighted>
-0.0000

> <Gold.Chemscore.Lipo.Weighted>
-4.2075

> <Gold.Chemscore.Internal_Hbond.Weighted>
0.0000

> <Gold.Chemscore.DEClash.Weighted>
0.0887

> <Gold.Chemscore.DEInternal.Weighted>
1.9157

> <Gold.Chemscore.Rot.Weighted>
5.7825

> <Gold.Chemscore.Internal.Correction.Weighted>
   9.000000E+99

> <Gold.Protein.RotatedTorsions>
[ 6907 6896 6895 6894 ] final  -55.50 input  -60.11 | X-H torsion
[ 7974 7965 7964 7962 ] final -130.68 input  175.53 | X-H torsion
[ 8008 7997 7996 7995 ] final -135.00 input   59.86 | X-H torsion
[ 10167 10162 10161 10158 ] final  148.29 input  -65.29 | X-H torsion
[ 10718 10713 10712 10709 ] final -142.98 input   66.30 | X-H torsion
[ 10763 10752 10751 10750 ] final   50.34 input  -60.55 | X-H torsion
[ 11005 11000 10999 10996 ] final -106.26 input  -57.11 | X-H torsion

> <Gold.Protein.ActiveResidues>
 VAL166  LYS551  ARG553  GLY616  TRP617  ASP618  TYR619  PRO620  LYS621  CYS622 
 ASP623  PHE694  ASN695  SER759  ASP760  ASP761  ALA762  ILE779  LEU786  VAL792 
 PHE793  MET794  SER795  GLU796  ALA797  LYS798  CYS799  TRP800  GLU811  SER814 

> <Gold.Protein.RotatedAtoms>
  150.8247  134.7471  159.6801 H   0  0  0  0  0  0  0  0  0  0  0  0  # atno 6907 bound_to 6896
  152.4359  134.5685  159.9924 H   0  0  0  0  0  0  0  0  0  0  0  0  # atno 6908 bound_to 6896
  151.5860  133.3334  159.3054 H   0  0  0  0  0  0  0  0  0  0  0  0  # atno 6909 bound_to 6896
  144.9451  140.7283  143.4822 H   0  0  0  0  0  0  0  0  0  0  0  0  # atno 7974 bound_to 7965
  155.3714  140.0488  157.3045 H   0  0  0  0  0  0  0  0  0  0  0  0  # atno 8008 bound_to 7997
  154.5128  140.2197  155.9086 H   0  0  0  0  0  0  0  0  0  0  0  0  # atno 8009 bound_to 7997
  156.1602  140.3118  155.8800 H   0  0  0  0  0  0  0  0  0  0  0  0  # atno 8010 bound_to 7997
  139.4877  144.5691  151.7089 H   0  0  0  0  0  0  0  0  0  0  0  0  # atno 10167 bound_to 10162
  156.3524  130.7695  151.1850 H   0  0  0  0  0  0  0  0  0  0  0  0  # atno 10718 bound_to 10713
  152.9785  135.5882  154.4237 H   0  0  0  0  0  0  0  0  0  0  0  0  # atno 10763 bound_to 10752
  154.3858  135.2767  155.2186 H   0  0  0  0  0  0  0  0  0  0  0  0  # atno 10764 bound_to 10752
  154.4080  135.6088  153.5990 H   0  0  0  0  0  0  0  0  0  0  0  0  # atno 10765 bound_to 10752
  141.1013  133.8878  157.1834 H   0  0  0  0  0  0  0  0  0  0  0  0  # atno 11005 bound_to 11000
  145.2930  139.1877  143.4730 LP  0  0  0  0  0  0  0  0  0  0  0  0  # atno 17320 bound_to 7965
  146.3300  140.2910  142.8615 LP  0  0  0  0  0  0  0  0  0  0  0  0  # atno 17321 bound_to 7965
  140.5274  144.0783  150.6042 LP  0  0  0  0  0  0  0  0  0  0  0  0  # atno 17342 bound_to 10162
  140.3762  143.2827  152.0222 LP  0  0  0  0  0  0  0  0  0  0  0  0  # atno 17343 bound_to 10162
  157.7463  131.0423  150.4690 LP  0  0  0  0  0  0  0  0  0  0  0  0  # atno 17370 bound_to 10713
  156.4888  130.4090  149.6419 LP  0  0  0  0  0  0  0  0  0  0  0  0  # atno 17371 bound_to 10713
  139.9866  135.0080  156.9876 LP  0  0  0  0  0  0  0  0  0  0  0  0  # atno 17394 bound_to 11000
  140.5014  134.1093  155.7251 LP  0  0  0  0  0  0  0  0  0  0  0  0  # atno 17395 bound_to 11000

$$$$
