AV-unprocessed.smi:2304|AV-procd|sdf|9244|dock7
  -GOLD-   2272012463D 1   1.00000     0.00000
 Structure written by MMmdl.
 37 38  0  0  0  0  0  0  0  0  1 V2000
  152.3835  139.0841  155.0969 C   0  0  0  0  0  0  0  0  0  0  0  0
  151.4924  140.1583  154.8550 O   0  0  0  0  0  0  0  0  0  0  0  0
  150.1433  139.7341  154.7434 C   0  0  0  0  0  0  0  0  0  0  0  0
  149.2059  140.9471  154.6099 C   0  0  2  0  0  0  0  0  0  0  0  0
  149.7356  142.0325  155.4304 N   0  0  0  0  0  0  0  0  0  0  0  0
  150.2442  141.9008  156.6642 C   0  0  0  0  0  0  0  0  0  0  0  0
  150.3132  140.8259  157.2609 O   0  0  0  0  0  0  0  0  0  0  0  0
  150.6601  143.0856  157.1456 N   0  0  0  0  0  0  0  0  0  0  0  0
  151.2556  143.3613  158.4054 C   0  0  0  0  0  0  0  0  0  0  0  0
  151.0111  144.6573  158.9130 C   0  0  0  0  0  0  0  0  0  0  0  0
  151.5576  145.0287  160.1567 C   0  0  0  0  0  0  0  0  0  0  0  0
  152.3354  144.0938  160.8629 C   0  0  0  0  0  0  0  0  0  0  0  0
  152.5312  142.8233  160.2869 C   0  0  0  0  0  0  0  0  0  0  0  0
  153.3587  141.7680  160.9902 C   0  0  0  0  0  0  0  0  0  0  0  0
  152.0079  142.4672  159.0942 N   0  0  0  0  0  0  0  0  0  0  0  0
  147.7646  140.5899  154.9431 C   0  0  0  0  0  0  0  0  0  0  0  0
  146.8120  140.0774  153.8878 C   0  0  0  0  0  0  0  0  0  0  0  0
  146.6142  141.4532  154.4802 C   0  0  0  0  0  0  0  0  0  0  0  0
  153.4020  139.4650  155.1729 H   0  0  0  0  0  0  0  0  0  0  0  0
  152.3556  138.3571  154.2841 H   0  0  0  0  0  0  0  0  0  0  0  0
  152.1437  138.5752  156.0314 H   0  0  0  0  0  0  0  0  0  0  0  0
  150.0398  139.0876  153.8701 H   0  0  0  0  0  0  0  0  0  0  0  0
  149.8668  139.1443  155.6191 H   0  0  0  0  0  0  0  0  0  0  0  0
  149.2346  141.2563  153.5630 H   0  0  0  0  0  0  0  0  0  0  0  0
  149.7190  142.9551  155.0214 H   0  0  0  0  0  0  0  0  0  0  0  0
  150.5383  143.8833  156.5396 H   0  0  0  0  0  0  0  0  0  0  0  0
  150.4108  145.3638  158.3579 H   0  0  0  0  0  0  0  0  0  0  0  0
  151.3824  146.0146  160.5611 H   0  0  0  0  0  0  0  0  0  0  0  0
  152.7685  144.3478  161.8192 H   0  0  0  0  0  0  0  0  0  0  0  0
  153.6444  142.0913  161.9917 H   0  0  0  0  0  0  0  0  0  0  0  0
  154.2685  141.5628  160.4253 H   0  0  0  0  0  0  0  0  0  0  0  0
  152.7938  140.8399  161.0818 H   0  0  0  0  0  0  0  0  0  0  0  0
  147.6500  140.1442  155.9295 H   0  0  0  0  0  0  0  0  0  0  0  0
  147.1714  140.0214  152.8620 H   0  0  0  0  0  0  0  0  0  0  0  0
  146.1127  139.2970  154.1803 H   0  0  0  0  0  0  0  0  0  0  0  0
  145.7832  141.5917  155.1687 H   0  0  0  0  0  0  0  0  0  0  0  0
  146.8391  142.3064  153.8433 H   0  0  0  0  0  0  0  0  0  0  0  0
  1  2  1  0  0  0  0
  1 19  1  0  0  0  0
  1 20  1  0  0  0  0
  1 21  1  0  0  0  0
  2  3  1  0  0  0  0
  3  4  1  0  0  0  0
  3 22  1  0  0  0  0
  3 23  1  0  0  0  0
  4  5  1  0  0  0  0
  4 16  1  0  0  0  0
  4 24  1  0  0  0  0
  5  6  1  0  0  0  0
  5 25  1  0  0  0  0
  6  7  2  0  0  0  0
  6  8  1  0  0  0  0
  8  9  1  0  0  0  0
  8 26  1  0  0  0  0
  9 15  1  0  0  0  0
  9 10  2  0  0  0  0
 10 11  1  0  0  0  0
 10 27  1  0  0  0  0
 11 12  2  0  0  0  0
 11 28  1  0  0  0  0
 12 13  1  0  0  0  0
 12 29  1  0  0  0  0
 13 14  1  0  0  0  0
 13 15  2  0  0  0  0
 14 30  1  0  0  0  0
 14 31  1  0  0  0  0
 14 32  1  0  0  0  0
 16 18  1  0  0  0  0
 16 17  1  0  0  0  0
 16 33  1  0  0  0  0
 17 18  1  0  0  0  0
 17 34  1  0  0  0  0
 17 35  1  0  0  0  0
 18 36  1  0  0  0  0
 18 37  1  0  0  0  0
M  END
> <s_m_source_file>
AV-unprocessed.smi

> <i_m_source_file_index>
2304

> <i_lp_mmshare_version>
43012

> <i_f3d_flags>
0

> <s_epik_input>
W0NIM11PW0NIMl1bQ0BASF0oW0NIXTFbQ0gyXVtDSDJdMSlbTkhdQyg9TylbTkhdYzJbY0hdW2NIXVtjSF1jKG4yKVtDSDNd

> <s_epik_cmdline>
J2VwaWtfcHl0aG9uJywgJy1waCcsICc3LjAnLCAnLXRuJywgJzgnLCAnLW1hJywgJzIwMCcsICctbWV0YWxfYmluZGluZycsICctaW1hZScsICc8aW5maWxlLm1hZT4nLCAnLW9tYWUnLCAnPG91dGZpbGUubWFlPic=

> <r_lp_tautomer_probability>
1

> <r_epik_Ionization_Penalty>
8.58396e-05

> <r_epik_Ionization_Penalty_Charging>
0

> <r_epik_Ionization_Penalty_Neutral>
8.58396e-05

> <r_epik_State_Penalty>
-0

> <r_epik_Charging_Adjusted_Penalty>
0

> <i_epik_Tot_Q>
0

> <i_epik_Tot_abs_Q>
0

> <r_epik_Metal_State_Penalty>
-0

> <b_epik_Metal_Only>
0

> <s_lp_Force_Field>
OPLS_2005

> <r_lp_Energy>
16.2574

> <b_lp_Chiralities_Consistent>
1

> <s_lp_Variant>
AV-unprocessed.smi:2304-1

> <Gold.Version>
5.8.1

> <Gold.Id.Protein>
6NUR|6NUR_protein|mol2

> <Gold.PLP.Fitness>
47.1521

> <Gold.PLP.PLP>
-41.5805

> <Gold.PLP.part.hbond>
-2.8517

> <Gold.PLP.part.metal>
0.0000

> <Gold.PLP.part.buried>
-6.7614

> <Gold.PLP.part.nonpolar>
-33.5745

> <Gold.PLP.part.repulsive>
0.2813

> <Gold.PLP.ligand.clash>
0.0247

> <Gold.PLP.ligand.torsion>
1.2203

> <Gold.PLP.Chemscore.Hbond>
2.3221

> <Gold.PLP.Chemscore.CHOScore>
0.0000

> <Gold.PLP.Chemscore.Metal>
0.0000

> <Gold.Chemscore.Hbonds>
donor molecule, donor type, donor heavy atom, donor atom, acceptor molecule, acceptor atom, score
      L1  H     5    25       P1  8028  0.64
      L1  H     8    26       P1  8028  0.67
      P1  H  7989  7998       L1     2  1.00

> <Gold.PLP.Chemscore.Internal.Correction>
1.0706

> <Gold.Rescore>
     Score         DG    S(hbond)    S(metal)    S(lipo)     H(rot)  DE(clash)    DE(int)     intcor
     17.39     -21.31       2.83        0.00      89.72       1.61       0.00       3.92       ----

> <Gold.Chemscore.Fitness>
17.3907

> <Gold.Chemscore.DG>
-21.3120

> <Gold.Chemscore.ZeroCoef>
-5.4800

> <Gold.Chemscore.Hbond>
2.8345

> <Gold.Chemscore.Metal>
0.0000

> <Gold.Chemscore.Lipo>
89.7193

> <Gold.Chemscore.Internal_Hbond>
0.0000

> <Gold.Chemscore.DEClash>
0.0000

> <Gold.Chemscore.DEInternal>
3.9213

> <Gold.Chemscore.Rot>
1.6142

> <Gold.Chemscore.Internal.Correction>
   9.000000E+99

> <Gold.Chemscore.Hbonds>
donor molecule, donor type, donor heavy atom, donor atom, acceptor molecule, acceptor atom, score
      L1  H     5    25       P1  8028  0.60
      L1  H     8    26       P1  8028  0.63
      P1  H  7989  7998       L1     2  0.22

> <Gold.Chemscore.Hbond.Weighted>
-9.4672

> <Gold.Chemscore.Metal.Weighted>
-0.0000

> <Gold.Chemscore.Lipo.Weighted>
-10.4972

> <Gold.Chemscore.Internal_Hbond.Weighted>
0.0000

> <Gold.Chemscore.DEClash.Weighted>
0.0000

> <Gold.Chemscore.DEInternal.Weighted>
3.9213

> <Gold.Chemscore.Rot.Weighted>
4.1323

> <Gold.Chemscore.Internal.Correction.Weighted>
   9.000000E+99

> <Gold.Protein.RotatedTorsions>
[ 6907 6896 6895 6894 ] final  139.99 input  -60.11 | X-H torsion
[ 7974 7965 7964 7962 ] final -160.03 input  175.53 | X-H torsion
[ 8008 7997 7996 7995 ] final  -75.29 input   59.86 | X-H torsion
[ 10167 10162 10161 10158 ] final  -17.73 input  -65.29 | X-H torsion
[ 10718 10713 10712 10709 ] final -115.71 input   66.30 | X-H torsion
[ 10763 10752 10751 10750 ] final -137.93 input  -60.55 | X-H torsion
[ 11005 11000 10999 10996 ] final  -54.83 input  -57.11 | X-H torsion

> <Gold.Protein.ActiveResidues>
 VAL166  LYS551  ARG553  GLY616  TRP617  ASP618  TYR619  PRO620  LYS621  CYS622 
 ASP623  PHE694  ASN695  SER759  ASP760  ASP761  ALA762  ILE779  LEU786  VAL792 
 PHE793  MET794  SER795  GLU796  ALA797  LYS798  CYS799  TRP800  GLU811  SER814 

> <Gold.Protein.RotatedAtoms>
  152.2484  133.5194  159.5310 H   0  0  0  0  0  0  0  0  0  0  0  0  # atno 6907 bound_to 6896
  150.7086  134.0994  159.3969 H   0  0  0  0  0  0  0  0  0  0  0  0  # atno 6908 bound_to 6896
  151.8914  135.0415  160.0549 H   0  0  0  0  0  0  0  0  0  0  0  0  # atno 6909 bound_to 6896
  144.7442  140.3600  143.6098 H   0  0  0  0  0  0  0  0  0  0  0  0  # atno 7974 bound_to 7965
  154.5404  140.0746  156.8499 H   0  0  0  0  0  0  0  0  0  0  0  0  # atno 8008 bound_to 7997
  155.3193  140.3395  155.4223 H   0  0  0  0  0  0  0  0  0  0  0  0  # atno 8009 bound_to 7997
  156.1868  140.1672  156.8155 H   0  0  0  0  0  0  0  0  0  0  0  0  # atno 8010 bound_to 7997
  140.7250  143.4987  150.9898 H   0  0  0  0  0  0  0  0  0  0  0  0  # atno 10167 bound_to 10162
  156.0914  130.6095  150.8941 H   0  0  0  0  0  0  0  0  0  0  0  0  # atno 10718 bound_to 10713
  154.8649  135.3627  154.5303 H   0  0  0  0  0  0  0  0  0  0  0  0  # atno 10763 bound_to 10752
  153.5929  135.7015  153.5420 H   0  0  0  0  0  0  0  0  0  0  0  0  # atno 10764 bound_to 10752
  153.3357  135.4112  155.1493 H   0  0  0  0  0  0  0  0  0  0  0  0  # atno 10765 bound_to 10752
  141.1045  133.6614  156.4379 H   0  0  0  0  0  0  0  0  0  0  0  0  # atno 11005 bound_to 11000
  145.7187  139.1704  143.2497 LP  0  0  0  0  0  0  0  0  0  0  0  0  # atno 17320 bound_to 7965
  146.1293  140.7206  142.9420 LP  0  0  0  0  0  0  0  0  0  0  0  0  # atno 17321 bound_to 7965
  139.8695  143.7211  152.3167 LP  0  0  0  0  0  0  0  0  0  0  0  0  # atno 17342 bound_to 10162
  139.7455  144.7548  151.0587 LP  0  0  0  0  0  0  0  0  0  0  0  0  # atno 17343 bound_to 10162
  157.6064  131.0939  150.8872 LP  0  0  0  0  0  0  0  0  0  0  0  0  # atno 17370 bound_to 10713
  156.9020  130.5250  149.5282 LP  0  0  0  0  0  0  0  0  0  0  0  0  # atno 17371 bound_to 10713
  140.4938  134.6550  157.5221 LP  0  0  0  0  0  0  0  0  0  0  0  0  # atno 17394 bound_to 11000
  139.9909  134.6987  155.9692 LP  0  0  0  0  0  0  0  0  0  0  0  0  # atno 17395 bound_to 11000

$$$$
