AV-unprocessed.smi:842|AV-procd|sdf|3919|dock1
  -GOLD-   22720 1383D 1   1.00000     0.00000
 Structure written by MMmdl.
 43 44  0  0  0  0  0  0  0  0  2 V2000
  143.6383  137.0589  152.5794 C   0  0  0  0  0  0  0  0  0  0  0  0
  145.0420  137.4960  153.0247 C   0  0  0  0  0  0  0  0  0  0  0  0
  145.9761  137.8741  151.8574 C   0  0  2  0  0  0  0  0  0  0  0  0
  146.1026  136.7169  150.8429 C   0  0  0  0  0  0  0  0  0  0  0  0
  146.5311  135.5361  151.4880 O   0  0  0  0  0  0  0  0  0  0  0  0
  147.2944  138.2152  152.3914 N   0  0  0  0  0  0  0  0  0  0  0  0
  147.5310  139.1334  153.3390 C   0  0  0  0  0  0  0  0  0  0  0  0
  146.6475  139.8063  153.8685 O   0  0  0  0  0  0  0  0  0  0  0  0
  148.8444  139.2224  153.6122 N   0  0  0  0  0  0  0  0  0  0  0  0
  149.5011  140.0638  154.5514 C   0  0  0  0  0  0  0  0  0  0  0  0
  150.7103  139.6006  155.1140 C   0  0  0  0  0  0  0  0  0  0  0  0
  151.3947  140.3945  156.0571 C   0  0  0  0  0  0  0  0  0  0  0  0
  150.8523  141.6450  156.4347 C   0  0  0  0  0  0  0  0  0  0  0  0
  151.4537  142.5137  157.3561 N   0  0  0  0  0  0  0  0  0  0  0  0
  151.8653  143.8017  156.8249 C   0  0  0  0  0  0  0  0  0  0  0  0
  152.1191  144.6779  158.0522 C   0  0  0  0  0  0  0  0  0  0  0  0
  151.2478  144.0646  159.1544 C   0  0  0  0  0  0  0  0  0  0  0  0
  150.6454  142.8012  158.5296 C   0  0  0  0  0  0  0  0  0  0  0  0
  149.6881  142.0488  155.8822 N   0  3  0  0  0  0  0  0  0  0  0  0
  149.0017  141.3199  154.9757 C   0  0  0  0  0  0  0  0  0  0  0  0
  143.0409  136.7483  153.4367 H   0  0  0  0  0  0  0  0  0  0  0  0
  143.6902  136.2165  151.8891 H   0  0  0  0  0  0  0  0  0  0  0  0
  143.1027  137.8678  152.0825 H   0  0  0  0  0  0  0  0  0  0  0  0
  144.9567  138.3338  153.7181 H   0  0  0  0  0  0  0  0  0  0  0  0
  145.4897  136.6788  153.5914 H   0  0  0  0  0  0  0  0  0  0  0  0
  145.5321  138.7421  151.3652 H   0  0  0  0  0  0  0  0  0  0  0  0
  145.1681  136.5391  150.3091 H   0  0  0  0  0  0  0  0  0  0  0  0
  146.8551  136.9505  150.0890 H   0  0  0  0  0  0  0  0  0  0  0  0
  147.4027  135.6752  151.8256 H   0  0  0  0  0  0  0  0  0  0  0  0
  148.0807  137.7097  152.0102 H   0  0  0  0  0  0  0  0  0  0  0  0
  149.4518  138.6463  153.0480 H   0  0  0  0  0  0  0  0  0  0  0  0
  151.1183  138.6439  154.8218 H   0  0  0  0  0  0  0  0  0  0  0  0
  152.3252  140.0432  156.4785 H   0  0  0  0  0  0  0  0  0  0  0  0
  152.7599  143.7057  156.2087 H   0  0  0  0  0  0  0  0  0  0  0  0
  151.0766  144.2375  156.2109 H   0  0  0  0  0  0  0  0  0  0  0  0
  153.1695  144.6224  158.3406 H   0  0  0  0  0  0  0  0  0  0  0  0
  151.8811  145.7250  157.8629 H   0  0  0  0  0  0  0  0  0  0  0  0
  151.8605  143.8131  160.0210 H   0  0  0  0  0  0  0  0  0  0  0  0
  150.4673  144.7493  159.4878 H   0  0  0  0  0  0  0  0  0  0  0  0
  149.6073  142.9801  158.2454 H   0  0  0  0  0  0  0  0  0  0  0  0
  150.6621  141.9639  159.2280 H   0  0  0  0  0  0  0  0  0  0  0  0
  148.0810  141.7726  154.6405 H   0  0  0  0  0  0  0  0  0  0  0  0
  149.3047  142.9509  156.1657 H   0  0  0  0  0  0  0  0  0  0  0  0
  1  2  1  0  0  0  0
  1 21  1  0  0  0  0
  1 22  1  0  0  0  0
  1 23  1  0  0  0  0
  2  3  1  0  0  0  0
  2 24  1  0  0  0  0
  2 25  1  0  0  0  0
  3  4  1  0  0  0  0
  3  6  1  0  0  0  0
  3 26  1  0  0  0  0
  4  5  1  0  0  0  0
  4 27  1  0  0  0  0
  4 28  1  0  0  0  0
  5 29  1  0  0  0  0
  6  7  1  0  0  0  0
  6 30  1  0  0  0  0
  7  8  2  0  0  0  0
  7  9  1  0  0  0  0
  9 10  1  0  0  0  0
  9 31  1  0  0  0  0
 10 20  1  0  0  0  0
 10 11  2  0  0  0  0
 11 12  1  0  0  0  0
 11 32  1  0  0  0  0
 12 13  2  0  0  0  0
 12 33  1  0  0  0  0
 13 14  1  0  0  0  0
 13 19  1  0  0  0  0
 14 18  1  0  0  0  0
 14 15  1  0  0  0  0
 15 16  1  0  0  0  0
 15 34  1  0  0  0  0
 15 35  1  0  0  0  0
 16 17  1  0  0  0  0
 16 36  1  0  0  0  0
 16 37  1  0  0  0  0
 17 18  1  0  0  0  0
 17 38  1  0  0  0  0
 17 39  1  0  0  0  0
 18 40  1  0  0  0  0
 18 41  1  0  0  0  0
 19 20  2  0  0  0  0
 19 43  1  0  0  0  0
 20 42  1  0  0  0  0
M  CHG  1  19   1
M  END
> <s_m_source_file>
AV-unprocessed.smi

> <i_m_source_file_index>
842

> <i_lp_mmshare_version>
43012

> <i_f3d_flags>
0

> <s_epik_input>
W0NIM11bQ0gyXVtDQEhdKFtDSDJdW09IXSlbTkhdQyg9TylbTkhdYzFbY0hdW2NIXWMobltjSF0xKU4yW0NIMl1bQ0gyXVtDSDJdW0NIMl0y

> <s_epik_cmdline>
J2VwaWtfcHl0aG9uJywgJy1waCcsICc3LjAnLCAnLXRuJywgJzgnLCAnLW1hJywgJzIwMCcsICctbWV0YWxfYmluZGluZycsICctaW1hZScsICc8aW5maWxlLm1hZT4nLCAnLW9tYWUnLCAnPG91dGZpbGUubWFlPic=

> <r_lp_tautomer_probability>
0.999994

> <r_epik_Ionization_Penalty>
1.10848

> <r_epik_Ionization_Penalty_Charging>
1.10846

> <r_epik_Ionization_Penalty_Neutral>
2.01032e-05

> <r_epik_State_Penalty>
1.16624

> <r_epik_Charging_Adjusted_Penalty>
2.2747

> <i_epik_Tot_Q>
1

> <i_epik_Tot_abs_Q>
1

> <r_epik_Metal_State_Penalty>
1.25257

> <b_epik_Metal_Only>
0

> <s_lp_Force_Field>
OPLS_2005

> <r_lp_Energy>
41.2931

> <b_lp_Chiralities_Consistent>
1

> <s_lp_Variant>
AV-unprocessed.smi:842-3

> <Gold.Version>
5.8.1

> <Gold.Id.Protein>
6NUR|6NUR_protein|mol2

> <Gold.PLP.Fitness>
49.0250

> <Gold.PLP.PLP>
-37.4346

> <Gold.PLP.part.hbond>
-4.3778

> <Gold.PLP.part.metal>
0.0000

> <Gold.PLP.part.buried>
0.0240

> <Gold.PLP.part.nonpolar>
-33.6250

> <Gold.PLP.part.repulsive>
0.4929

> <Gold.PLP.ligand.clash>
0.0000

> <Gold.PLP.ligand.torsion>
0.2173

> <Gold.PLP.Chemscore.Hbond>
3.9840

> <Gold.PLP.Chemscore.CHOScore>
0.0000

> <Gold.PLP.Chemscore.Metal>
0.0000

> <Gold.Chemscore.Hbonds>
donor molecule, donor type, donor heavy atom, donor atom, acceptor molecule, acceptor atom, score
      L1  H     5    29       P1  7948  1.00
      L1  H     6    30       P1  7948  1.00
      L1  H    19    43       P1  8028  1.89

> <Gold.PLP.Chemscore.Internal.Correction>
0.0730

> <Gold.Rescore>
     Score         DG    S(hbond)    S(metal)    S(lipo)     H(rot)  DE(clash)    DE(int)     intcor
     16.65     -20.62       2.93        0.00      95.35       2.27       1.71       2.27       ----

> <Gold.Chemscore.Fitness>
16.6460

> <Gold.Chemscore.DG>
-20.6225

> <Gold.Chemscore.ZeroCoef>
-5.4800

> <Gold.Chemscore.Hbond>
2.9324

> <Gold.Chemscore.Metal>
0.0000

> <Gold.Chemscore.Lipo>
95.3508

> <Gold.Chemscore.Internal_Hbond>
0.0000

> <Gold.Chemscore.DEClash>
1.7098

> <Gold.Chemscore.DEInternal>
2.2668

> <Gold.Chemscore.Rot>
2.2687

> <Gold.Chemscore.Internal.Correction>
   9.000000E+99

> <Gold.Chemscore.Hbonds>
donor molecule, donor type, donor heavy atom, donor atom, acceptor molecule, acceptor atom, score
      L1  H     5    29       P1  7948  0.98
      L1  H     6    30       P1  7948  0.95
      L1  H     9    31       P1  7957  0.01
      L1  H    19    43       P1  8028  0.91

> <Gold.Chemscore.Hbond.Weighted>
-9.7943

> <Gold.Chemscore.Metal.Weighted>
-0.0000

> <Gold.Chemscore.Lipo.Weighted>
-11.1560

> <Gold.Chemscore.Internal_Hbond.Weighted>
0.0000

> <Gold.Chemscore.DEClash.Weighted>
1.7098

> <Gold.Chemscore.DEInternal.Weighted>
2.2668

> <Gold.Chemscore.Rot.Weighted>
5.8078

> <Gold.Chemscore.Internal.Correction.Weighted>
   9.000000E+99

> <Gold.Protein.RotatedTorsions>
[ 6907 6896 6895 6894 ] final  -86.11 input  -60.11 | X-H torsion
[ 7974 7965 7964 7962 ] final   11.06 input  175.53 | X-H torsion
[ 8008 7997 7996 7995 ] final -148.64 input   59.86 | X-H torsion
[ 10167 10162 10161 10158 ] final  -25.09 input  -65.29 | X-H torsion
[ 10718 10713 10712 10709 ] final -139.14 input   66.30 | X-H torsion
[ 10763 10752 10751 10750 ] final    7.96 input  -60.55 | X-H torsion
[ 11005 11000 10999 10996 ] final -120.12 input  -57.11 | X-H torsion

> <Gold.Protein.ActiveResidues>
 VAL166  LYS551  ARG553  GLY616  TRP617  ASP618  TYR619  PRO620  LYS621  CYS622 
 ASP623  PHE694  ASN695  SER759  ASP760  ASP761  ALA762  ILE779  LEU786  VAL792 
 PHE793  MET794  SER795  GLU796  ALA797  LYS798  CYS799  TRP800  GLU811  SER814 

> <Gold.Protein.RotatedAtoms>
  150.6868  134.3100  159.4742 H   0  0  0  0  0  0  0  0  0  0  0  0  # atno 6907 bound_to 6896
  152.0987  134.9354  160.0579 H   0  0  0  0  0  0  0  0  0  0  0  0  # atno 6908 bound_to 6896
  152.0642  133.4041  159.4468 H   0  0  0  0  0  0  0  0  0  0  0  0  # atno 6909 bound_to 6896
  146.2378  139.9542  142.8466 H   0  0  0  0  0  0  0  0  0  0  0  0  # atno 7974 bound_to 7965
  155.5949  140.0656  157.2748 H   0  0  0  0  0  0  0  0  0  0  0  0  # atno 8008 bound_to 7997
  154.4295  140.1828  156.1160 H   0  0  0  0  0  0  0  0  0  0  0  0  # atno 8009 bound_to 7997
  156.0204  140.3317  155.7036 H   0  0  0  0  0  0  0  0  0  0  0  0  # atno 8010 bound_to 7997
  140.7287  143.4295  151.0824 H   0  0  0  0  0  0  0  0  0  0  0  0  # atno 10167 bound_to 10162
  156.3074  130.7462  151.1530 H   0  0  0  0  0  0  0  0  0  0  0  0  # atno 10718 bound_to 10713
  153.2304  135.6892  153.7896 H   0  0  0  0  0  0  0  0  0  0  0  0  # atno 10763 bound_to 10752
  153.7062  135.3289  155.3237 H   0  0  0  0  0  0  0  0  0  0  0  0  # atno 10764 bound_to 10752
  154.8311  135.4579  154.1187 H   0  0  0  0  0  0  0  0  0  0  0  0  # atno 10765 bound_to 10752
  141.0166  134.0186  157.3341 H   0  0  0  0  0  0  0  0  0  0  0  0  # atno 11005 bound_to 11000
  145.1832  140.9777  143.4254 LP  0  0  0  0  0  0  0  0  0  0  0  0  # atno 17320 bound_to 7965
  144.9923  139.3677  143.6209 LP  0  0  0  0  0  0  0  0  0  0  0  0  # atno 17321 bound_to 7965
  139.7950  143.8164  152.3156 LP  0  0  0  0  0  0  0  0  0  0  0  0  # atno 17342 bound_to 10162
  139.8161  144.7315  150.9633 LP  0  0  0  0  0  0  0  0  0  0  0  0  # atno 17343 bound_to 10162
  157.7383  131.0542  150.5304 LP  0  0  0  0  0  0  0  0  0  0  0  0  # atno 17370 bound_to 10713
  156.5439  130.4215  149.6140 LP  0  0  0  0  0  0  0  0  0  0  0  0  # atno 17371 bound_to 10713
  139.9121  135.0191  156.7733 LP  0  0  0  0  0  0  0  0  0  0  0  0  # atno 17394 bound_to 11000
  140.6644  133.9616  155.7822 LP  0  0  0  0  0  0  0  0  0  0  0  0  # atno 17395 bound_to 11000

$$$$
