AV-unprocessed.smi:1645|AV-procd|sdf|6622|dock7
  -GOLD-   22720 7323D 1   1.00000     0.00000
 Structure written by MMmdl.
 55 58  0  0  0  0  0  0  0  0  4 V2000
  149.2889  137.3466  155.7960 O   0  0  0  0  0  0  0  0  0  0  0  0
  148.3749  137.9111  155.1852 C   0  0  0  0  0  0  0  0  0  0  0  0
  148.2299  139.2462  155.2562 N   0  0  0  0  0  0  0  0  0  0  0  0
  148.9578  140.1901  156.0300 C   0  0  0  0  0  0  0  0  0  0  0  0
  149.6687  139.7099  157.1504 C   0  0  0  0  0  0  0  0  0  0  0  0
  150.4275  140.6034  157.9334 C   0  0  0  0  0  0  0  0  0  0  0  0
  150.4734  141.9699  157.5743 C   0  0  0  0  0  0  0  0  0  0  0  0
  151.2049  142.9298  158.2857 N   0  0  0  0  0  0  0  0  0  0  0  0
  150.4290  144.1306  158.5846 C   0  0  0  0  0  0  0  0  0  0  0  0
  151.3236  145.2220  159.1975 C   0  0  0  0  0  0  0  0  0  0  0  0
  152.0748  144.6886  160.4281 C   0  0  0  0  0  0  0  0  0  0  0  0
  152.8488  143.4106  160.0662 C   0  0  0  0  0  0  0  0  0  0  0  0
  151.9168  142.3650  159.4293 C   0  0  0  0  0  0  0  0  0  0  0  0
  149.7911  142.3898  156.4869 N   0  3  0  0  0  0  0  0  0  0  0  0
  149.0510  141.5671  155.7123 C   0  0  0  0  0  0  0  0  0  0  0  0
  147.4360  137.3377  154.3849 N   0  5  0  0  0  0  0  0  0  0  0  0
  146.5161  136.2691  154.8012 C   0  0  2  0  0  0  0  0  0  0  0  0
  147.3350  135.0600  155.2923 C   0  0  0  0  0  0  0  0  0  0  0  0
  147.5398  134.1527  154.0607 C   0  0  0  0  0  0  0  0  0  0  0  0
  146.7903  134.7939  152.9617 N   0  3  1  0  0  0  0  0  0  0  0  0
  146.2255  133.9046  151.9221 C   0  0  0  0  0  0  0  0  0  0  0  0
  145.5378  134.7531  150.8333 C   0  0  0  0  0  0  0  0  0  0  0  0
  144.4940  135.7176  151.4322 C   0  0  0  0  0  0  0  0  0  0  0  0
  145.1153  136.5802  152.5469 C   0  0  0  0  0  0  0  0  0  0  0  0
  145.7804  135.6587  153.5939 C   0  0  2  0  0  0  0  0  0  0  0  0
  147.5271  139.6352  154.6449 H   0  0  0  0  0  0  0  0  0  0  0  0
  149.6316  138.6625  157.4125 H   0  0  0  0  0  0  0  0  0  0  0  0
  150.9681  140.2387  158.7943 H   0  0  0  0  0  0  0  0  0  0  0  0
  149.9626  144.5033  157.6714 H   0  0  0  0  0  0  0  0  0  0  0  0
  149.6236  143.8826  159.2774 H   0  0  0  0  0  0  0  0  0  0  0  0
  152.0417  145.5674  158.4525 H   0  0  0  0  0  0  0  0  0  0  0  0
  150.7213  146.0885  159.4719 H   0  0  0  0  0  0  0  0  0  0  0  0
  152.7573  145.4473  160.8123 H   0  0  0  0  0  0  0  0  0  0  0  0
  151.3642  144.4737  161.2272 H   0  0  0  0  0  0  0  0  0  0  0  0
  153.6529  143.6551  159.3707 H   0  0  0  0  0  0  0  0  0  0  0  0
  153.3240  142.9956  160.9554 H   0  0  0  0  0  0  0  0  0  0  0  0
  151.1970  142.0125  160.1694 H   0  0  0  0  0  0  0  0  0  0  0  0
  152.4969  141.4984  159.1097 H   0  0  0  0  0  0  0  0  0  0  0  0
  148.5798  142.0428  154.8653 H   0  0  0  0  0  0  0  0  0  0  0  0
  145.8101  136.5925  155.5673 H   0  0  0  0  0  0  0  0  0  0  0  0
  148.2792  135.3450  155.7591 H   0  0  0  0  0  0  0  0  0  0  0  0
  146.7622  134.5171  156.0452 H   0  0  0  0  0  0  0  0  0  0  0  0
  148.5918  134.0615  153.7875 H   0  0  0  0  0  0  0  0  0  0  0  0
  147.1560  133.1507  154.2609 H   0  0  0  0  0  0  0  0  0  0  0  0
  147.0225  133.3031  151.4838 H   0  0  0  0  0  0  0  0  0  0  0  0
  145.5109  133.2150  152.3744 H   0  0  0  0  0  0  0  0  0  0  0  0
  146.2916  135.3298  150.2955 H   0  0  0  0  0  0  0  0  0  0  0  0
  145.0650  134.1025  150.0972 H   0  0  0  0  0  0  0  0  0  0  0  0
  144.0806  136.3560  150.6510 H   0  0  0  0  0  0  0  0  0  0  0  0
  143.6596  135.1442  151.8381 H   0  0  0  0  0  0  0  0  0  0  0  0
  145.8427  137.2609  152.1006 H   0  0  0  0  0  0  0  0  0  0  0  0
  144.3458  137.2012  153.0084 H   0  0  0  0  0  0  0  0  0  0  0  0
  145.0011  135.0084  153.9976 H   0  0  0  0  0  0  0  0  0  0  0  0
  147.4383  135.4240  152.5103 H   0  0  0  0  0  0  0  0  0  0  0  0
  149.8394  143.3771  156.2345 H   0  0  0  0  0  0  0  0  0  0  0  0
  1  2  2  0  0  0  0
  2  3  1  0  0  0  0
  2 16  1  0  0  0  0
  3  4  1  0  0  0  0
  3 26  1  0  0  0  0
  4 15  1  0  0  0  0
  4  5  2  0  0  0  0
  5  6  1  0  0  0  0
  5 27  1  0  0  0  0
  6  7  2  0  0  0  0
  6 28  1  0  0  0  0
  7  8  1  0  0  0  0
  7 14  1  0  0  0  0
  8 13  1  0  0  0  0
  8  9  1  0  0  0  0
  9 10  1  0  0  0  0
  9 29  1  0  0  0  0
  9 30  1  0  0  0  0
 10 11  1  0  0  0  0
 10 31  1  0  0  0  0
 10 32  1  0  0  0  0
 11 12  1  0  0  0  0
 11 33  1  0  0  0  0
 11 34  1  0  0  0  0
 12 13  1  0  0  0  0
 12 35  1  0  0  0  0
 12 36  1  0  0  0  0
 13 37  1  0  0  0  0
 13 38  1  0  0  0  0
 14 15  2  0  0  0  0
 14 55  1  0  0  0  0
 15 39  1  0  0  0  0
 16 17  1  0  0  0  0
 17 25  1  0  0  0  0
 17 18  1  0  0  0  0
 17 40  1  0  0  0  0
 18 19  1  0  0  0  0
 18 41  1  0  0  0  0
 18 42  1  0  0  0  0
 19 20  1  0  0  0  0
 19 43  1  0  0  0  0
 19 44  1  0  0  0  0
 20 25  1  0  0  0  0
 20 21  1  0  0  0  0
 20 54  1  0  0  0  0
 21 22  1  0  0  0  0
 21 45  1  0  0  0  0
 21 46  1  0  0  0  0
 22 23  1  0  0  0  0
 22 47  1  0  0  0  0
 22 48  1  0  0  0  0
 23 24  1  0  0  0  0
 23 49  1  0  0  0  0
 23 50  1  0  0  0  0
 24 25  1  0  0  0  0
 24 51  1  0  0  0  0
 24 52  1  0  0  0  0
 25 53  1  0  0  0  0
M  CHG  1  14   1
M  CHG  1  16  -1
M  CHG  1  20   1
M  END
> <s_m_source_file>
AV-unprocessed.smi

> <i_m_source_file_index>
1645

> <i_lp_mmshare_version>
43012

> <i_f3d_flags>
0

> <s_epik_input>
W0NIMl0xW0NIMl1bQ0gyXVtDSDJdW0NASF0oTjEyKVtDQEBIXShbQ0gyXVtDSDJdMilbTkhdQyg9TylbTkhdYzNbY0hdW2NIXWMobltjSF0zKU40W0NIMl1bQ0gyXVtDSDJdW0NIMl1bQ0gyXTQ=

> <s_epik_cmdline>
J2VwaWtfcHl0aG9uJywgJy1waCcsICc3LjAnLCAnLXRuJywgJzgnLCAnLW1hJywgJzIwMCcsICctbWV0YWxfYmluZGluZycsICctaW1hZScsICc8aW5maWxlLm1hZT4nLCAnLW9tYWUnLCAnPG91dGZpbGUubWFlPic=

> <r_lp_tautomer_probability>
0.999994

> <r_epik_Ionization_Penalty>
8.55589

> <r_epik_Ionization_Penalty_Charging>
8.55589

> <r_epik_Ionization_Penalty_Neutral>
3.8092e-06

> <r_epik_State_Penalty>
8.15703

> <r_epik_Charging_Adjusted_Penalty>
16.7129

> <i_epik_Tot_Q>
1

> <i_epik_Tot_abs_Q>
3

> <r_epik_Metal_State_Penalty>
4.13781

> <b_epik_Metal_Only>
1

> <s_lp_Force_Field>
OPLS_2005

> <r_lp_Energy>
55.4093

> <b_lp_Chiralities_Consistent>
1

> <s_lp_Variant>
AV-unprocessed.smi:1645-23

> <Gold.Version>
5.8.1

> <Gold.Id.Protein>
6NUR|6NUR_protein|mol2

> <Gold.PLP.Fitness>
46.4266

> <Gold.PLP.PLP>
-35.9975

> <Gold.PLP.part.hbond>
-2.0000

> <Gold.PLP.part.metal>
0.0000

> <Gold.PLP.part.buried>
-6.5664

> <Gold.PLP.part.nonpolar>
-29.3991

> <Gold.PLP.part.repulsive>
1.7709

> <Gold.PLP.ligand.clash>
0.0256

> <Gold.PLP.ligand.torsion>
0.7995

> <Gold.PLP.Chemscore.Hbond>
3.9520

> <Gold.PLP.Chemscore.CHOScore>
0.0000

> <Gold.PLP.Chemscore.Metal>
0.0000

> <Gold.Chemscore.Hbonds>
donor molecule, donor type, donor heavy atom, donor atom, acceptor molecule, acceptor atom, score
      L1  H    14    55       P1  8028  1.76
      L1  H    20    54       P1  7948  2.00

> <Gold.PLP.Chemscore.Internal.Correction>
0.1977

> <Gold.Rescore>
     Score         DG    S(hbond)    S(metal)    S(lipo)     H(rot)  DE(clash)    DE(int)     intcor
     18.52     -21.01       1.98        0.00     101.77       1.17       0.30       2.20       ----

> <Gold.Chemscore.Fitness>
18.5167

> <Gold.Chemscore.DG>
-21.0109

> <Gold.Chemscore.ZeroCoef>
-5.4800

> <Gold.Chemscore.Hbond>
1.9840

> <Gold.Chemscore.Metal>
0.0000

> <Gold.Chemscore.Lipo>
101.7748

> <Gold.Chemscore.Internal_Hbond>
0.0000

> <Gold.Chemscore.DEClash>
0.2984

> <Gold.Chemscore.DEInternal>
2.1958

> <Gold.Chemscore.Rot>
1.1731

> <Gold.Chemscore.Internal.Correction>
   9.000000E+99

> <Gold.Chemscore.Hbonds>
donor molecule, donor type, donor heavy atom, donor atom, acceptor molecule, acceptor atom, score
      L1  H    14    55       P1  8028  0.87
      L1  H    20    54       P1  7948  1.00

> <Gold.Chemscore.Hbond.Weighted>
-6.6265

> <Gold.Chemscore.Metal.Weighted>
-0.0000

> <Gold.Chemscore.Lipo.Weighted>
-11.9077

> <Gold.Chemscore.Internal_Hbond.Weighted>
0.0000

> <Gold.Chemscore.DEClash.Weighted>
0.2984

> <Gold.Chemscore.DEInternal.Weighted>
2.1958

> <Gold.Chemscore.Rot.Weighted>
3.0032

> <Gold.Chemscore.Internal.Correction.Weighted>
   9.000000E+99

> <Gold.Protein.RotatedTorsions>
[ 6907 6896 6895 6894 ] final   25.69 input  -60.11 | X-H torsion
[ 7974 7965 7964 7962 ] final -143.36 input  175.53 | X-H torsion
[ 8008 7997 7996 7995 ] final  158.78 input   59.86 | X-H torsion
[ 10167 10162 10161 10158 ] final -140.74 input  -65.29 | X-H torsion
[ 10718 10713 10712 10709 ] final  -21.67 input   66.30 | X-H torsion
[ 10763 10752 10751 10750 ] final  125.13 input  -60.55 | X-H torsion
[ 11005 11000 10999 10996 ] final  -13.54 input  -57.11 | X-H torsion

> <Gold.Protein.ActiveResidues>
 VAL166  LYS551  ARG553  GLY616  TRP617  ASP618  TYR619  PRO620  LYS621  CYS622 
 ASP623  PHE694  ASN695  SER759  ASP760  ASP761  ALA762  ILE779  LEU786  VAL792 
 PHE793  MET794  SER795  GLU796  ALA797  LYS798  CYS799  TRP800  GLU811  SER814 

> <Gold.Protein.RotatedAtoms>
  151.9763  135.0051  160.0555 H   0  0  0  0  0  0  0  0  0  0  0  0  # atno 6907 bound_to 6896
  152.1737  133.4656  159.4930 H   0  0  0  0  0  0  0  0  0  0  0  0  # atno 6908 bound_to 6896
  150.6906  134.1838  159.4302 H   0  0  0  0  0  0  0  0  0  0  0  0  # atno 6909 bound_to 6896
  144.8375  140.5845  143.5474 H   0  0  0  0  0  0  0  0  0  0  0  0  # atno 7974 bound_to 7965
  156.2281  140.1849  156.7312 H   0  0  0  0  0  0  0  0  0  0  0  0  # atno 8008 bound_to 7997
  154.5975  140.0641  156.9351 H   0  0  0  0  0  0  0  0  0  0  0  0  # atno 8009 bound_to 7997
  155.2231  140.3309  155.4315 H   0  0  0  0  0  0  0  0  0  0  0  0  # atno 8010 bound_to 7997
  139.8252  143.7520  152.2666 H   0  0  0  0  0  0  0  0  0  0  0  0  # atno 10167 bound_to 10162
  156.5150  130.4619  149.6627 H   0  0  0  0  0  0  0  0  0  0  0  0  # atno 10718 bound_to 10713
  153.6724  135.3328  155.3157 H   0  0  0  0  0  0  0  0  0  0  0  0  # atno 10763 bound_to 10752
  154.8487  135.4389  154.1691 H   0  0  0  0  0  0  0  0  0  0  0  0  # atno 10764 bound_to 10752
  153.2686  135.6998  153.7580 H   0  0  0  0  0  0  0  0  0  0  0  0  # atno 10765 bound_to 10752
  140.7771  133.8392  155.9259 H   0  0  0  0  0  0  0  0  0  0  0  0  # atno 11005 bound_to 11000
  145.4763  139.1499  143.3786 LP  0  0  0  0  0  0  0  0  0  0  0  0  # atno 17320 bound_to 7965
  146.2672  140.4898  142.8829 LP  0  0  0  0  0  0  0  0  0  0  0  0  # atno 17321 bound_to 7965
  139.7711  144.7476  151.0224 LP  0  0  0  0  0  0  0  0  0  0  0  0  # atno 17342 bound_to 10162
  140.7810  143.4644  151.0232 LP  0  0  0  0  0  0  0  0  0  0  0  0  # atno 17343 bound_to 10162
  156.3203  130.7277  151.2188 LP  0  0  0  0  0  0  0  0  0  0  0  0  # atno 17370 bound_to 10713
  157.7445  131.0457  150.4858 LP  0  0  0  0  0  0  0  0  0  0  0  0  # atno 17371 bound_to 10713
  140.9518  134.1769  157.4722 LP  0  0  0  0  0  0  0  0  0  0  0  0  # atno 17394 bound_to 11000
  139.8747  134.9912  156.5537 LP  0  0  0  0  0  0  0  0  0  0  0  0  # atno 17395 bound_to 11000

$$$$
