AV-unprocessed.smi:3078|AV-procd|sdf|11735|dock3
  -GOLD-   2272017133D 1   1.00000     0.00000
 Structure written by MMmdl.
 24 24  0  0  0  0  0  0  0  0  3 V2000
  146.3896  128.9452  151.7843 C   0  0  0  0  0  0  0  0  0  0  0  0
  145.8560  130.2452  151.4372 N   0  0  0  0  0  0  0  0  0  0  0  0
  144.7009  130.5466  150.7491 C   0  0  0  0  0  0  0  0  0  0  0  0
  144.6165  131.9098  150.6617 C   0  0  0  0  0  0  0  0  0  0  0  0
  143.5563  132.7650  150.0143 C   0  0  2  0  0  0  0  0  0  0  0  0
  142.2491  132.4794  150.6330 N   0  3  0  0  0  0  0  0  0  0  0  0
  143.4925  132.5742  148.4858 C   0  0  0  0  0  0  0  0  0  0  0  0
  142.1118  132.6675  147.9751 N   0  3  0  0  0  0  0  0  0  0  0  0
  145.7865  132.3535  151.3431 C   0  0  0  0  0  0  0  0  0  0  0  0
  146.5254  131.3574  151.8007 N   0  0  0  0  0  0  0  0  0  0  0  0
  145.6589  128.1676  151.5591 H   0  0  0  0  0  0  0  0  0  0  0  0
  146.6234  128.9122  152.8491 H   0  0  0  0  0  0  0  0  0  0  0  0
  147.2981  128.7555  151.2121 H   0  0  0  0  0  0  0  0  0  0  0  0
  144.0423  129.7724  150.3832 H   0  0  0  0  0  0  0  0  0  0  0  0
  143.7589  133.8182  150.2143 H   0  0  0  0  0  0  0  0  0  0  0  0
  141.6201  133.2513  150.4608 H   0  0  0  0  0  0  0  0  0  0  0  0
  142.3617  132.3594  151.6296 H   0  0  0  0  0  0  0  0  0  0  0  0
  144.1094  133.3147  147.9752 H   0  0  0  0  0  0  0  0  0  0  0  0
  143.8851  131.5938  148.2135 H   0  0  0  0  0  0  0  0  0  0  0  0
  141.5944  131.8428  148.2452 H   0  0  0  0  0  0  0  0  0  0  0  0
  142.1270  132.7366  146.9671 H   0  0  0  0  0  0  0  0  0  0  0  0
  146.1204  133.3663  151.5152 H   0  0  0  0  0  0  0  0  0  0  0  0
  141.6596  133.4852  148.3592 H   0  0  0  0  0  0  0  0  0  0  0  0
  141.8592  131.6369  150.2347 H   0  0  0  0  0  0  0  0  0  0  0  0
  1  2  1  0  0  0  0
  1 11  1  0  0  0  0
  1 12  1  0  0  0  0
  1 13  1  0  0  0  0
  2 10  1  0  0  0  0
  2  3  1  0  0  0  0
  3  4  2  0  0  0  0
  3 14  1  0  0  0  0
  4  5  1  0  0  0  0
  4  9  1  0  0  0  0
  5  6  1  0  0  0  0
  5  7  1  0  0  0  0
  5 15  1  0  0  0  0
  6 16  1  0  0  0  0
  6 17  1  0  0  0  0
  6 24  1  0  0  0  0
  7  8  1  0  0  0  0
  7 18  1  0  0  0  0
  7 19  1  0  0  0  0
  8 20  1  0  0  0  0
  8 21  1  0  0  0  0
  8 23  1  0  0  0  0
  9 10  2  0  0  0  0
  9 22  1  0  0  0  0
M  CHG  1   6   1
M  CHG  1   8   1
M  END
> <s_m_source_file>
AV-unprocessed.smi

> <i_m_source_file_index>
3078

> <i_lp_mmshare_version>
43012

> <i_f3d_flags>
0

> <s_epik_input>
W0NIM11uMVtjSF1jKFtjSF1uMSlbQ0BIXShbTkgyXSlbQ0gyXVtOSDJd

> <s_epik_cmdline>
J2VwaWtfcHl0aG9uJywgJy1waCcsICc3LjAnLCAnLXRuJywgJzgnLCAnLW1hJywgJzIwMCcsICctbWV0YWxfYmluZGluZycsICctaW1hZScsICc8aW5maWxlLm1hZT4nLCAnLW9tYWUnLCAnPG91dGZpbGUubWFlPic=

> <r_lp_tautomer_probability>
1

> <r_epik_Ionization_Penalty>
2.39325

> <r_epik_Ionization_Penalty_Charging>
2.39325

> <r_epik_Ionization_Penalty_Neutral>
1.68997e-07

> <r_epik_State_Penalty>
1.77229

> <r_epik_Charging_Adjusted_Penalty>
4.16555

> <i_epik_Tot_Q>
2

> <i_epik_Tot_abs_Q>
2

> <r_epik_Metal_State_Penalty>
1.77233

> <b_epik_Metal_Only>
0

> <s_lp_Force_Field>
OPLS_2005

> <r_lp_Energy>
8.51806

> <b_lp_Chiralities_Consistent>
1

> <s_lp_Variant>
AV-unprocessed.smi:3078-5

> <Gold.Version>
5.8.1

> <Gold.Id.Protein>
6NUR|6NUR_protein|mol2

> <Gold.PLP.Fitness>
44.9230

> <Gold.PLP.PLP>
-25.0183

> <Gold.PLP.part.hbond>
-5.0000

> <Gold.PLP.part.metal>
0.0000

> <Gold.PLP.part.buried>
-4.7089

> <Gold.PLP.part.nonpolar>
-17.8355

> <Gold.PLP.part.repulsive>
0.9287

> <Gold.PLP.ligand.clash>
0.0000

> <Gold.PLP.ligand.torsion>
0.5310

> <Gold.PLP.Chemscore.Hbond>
6.9833

> <Gold.PLP.Chemscore.CHOScore>
0.0000

> <Gold.PLP.Chemscore.Metal>
0.0000

> <Gold.Chemscore.Hbonds>
donor molecule, donor type, donor heavy atom, donor atom, acceptor molecule, acceptor atom, score
      L1  H     6    16       P1 10186  2.00
      L1  H     6    24       P1 10952  1.00
      L1  H     8    20       P1 10952  0.80
      L1  H     8    21       P1 10195  0.99
      L1  H     8    23       P1 10186  2.00

> <Gold.PLP.Chemscore.Internal.Correction>
0.0171

> <Gold.Rescore>
     Score         DG    S(hbond)    S(metal)    S(lipo)     H(rot)  DE(clash)    DE(int)     intcor
     21.28     -22.15       4.00        0.00      59.66       1.43       0.16       0.71       ----

> <Gold.Chemscore.Fitness>
21.2808

> <Gold.Chemscore.DG>
-22.1542

> <Gold.Chemscore.ZeroCoef>
-5.4800

> <Gold.Chemscore.Hbond>
3.9987

> <Gold.Chemscore.Metal>
0.0000

> <Gold.Chemscore.Lipo>
59.6621

> <Gold.Chemscore.Internal_Hbond>
0.0000

> <Gold.Chemscore.DEClash>
0.1613

> <Gold.Chemscore.DEInternal>
0.7120

> <Gold.Chemscore.Rot>
1.4304

> <Gold.Chemscore.Internal.Correction>
   9.000000E+99

> <Gold.Chemscore.Hbonds>
donor molecule, donor type, donor heavy atom, donor atom, acceptor molecule, acceptor atom, score
      L1  H     6    16       P1 10186  0.93
      L1  H     6    24       P1 10952  0.55
      L1  H     8    20       P1 10952  0.78
      L1  H     8    21       P1 10195  0.92
      L1  H     8    23       P1 10186  0.98

> <Gold.Chemscore.Hbond.Weighted>
-13.3555

> <Gold.Chemscore.Metal.Weighted>
-0.0000

> <Gold.Chemscore.Lipo.Weighted>
-6.9805

> <Gold.Chemscore.Internal_Hbond.Weighted>
0.0000

> <Gold.Chemscore.DEClash.Weighted>
0.1613

> <Gold.Chemscore.DEInternal.Weighted>
0.7120

> <Gold.Chemscore.Rot.Weighted>
3.6618

> <Gold.Chemscore.Internal.Correction.Weighted>
   9.000000E+99

> <Gold.Protein.RotatedTorsions>
[ 6907 6896 6895 6894 ] final   98.95 input  -60.11 | X-H torsion
[ 7974 7965 7964 7962 ] final -126.45 input  175.53 | X-H torsion
[ 8008 7997 7996 7995 ] final   61.37 input   59.86 | X-H torsion
[ 10167 10162 10161 10158 ] final   22.35 input  -65.29 | X-H torsion
[ 10718 10713 10712 10709 ] final  120.49 input   66.30 | X-H torsion
[ 10763 10752 10751 10750 ] final  -12.00 input  -60.55 | X-H torsion
[ 11005 11000 10999 10996 ] final -124.60 input  -57.11 | X-H torsion

> <Gold.Protein.ActiveResidues>
 VAL166  LYS551  ARG553  GLY616  TRP617  ASP618  TYR619  PRO620  LYS621  CYS622 
 ASP623  PHE694  ASN695  SER759  ASP760  ASP761  ALA762  ILE779  LEU786  VAL792 
 PHE793  MET794  SER795  GLU796  ALA797  LYS798  CYS799  TRP800  GLU811  SER814 

> <Gold.Protein.RotatedAtoms>
  152.5400  134.0502  159.8106 H   0  0  0  0  0  0  0  0  0  0  0  0  # atno 6907 bound_to 6896
  151.0645  133.5509  159.2639 H   0  0  0  0  0  0  0  0  0  0  0  0  # atno 6908 bound_to 6896
  151.2395  135.0592  159.9073 H   0  0  0  0  0  0  0  0  0  0  0  0  # atno 6909 bound_to 6896
  144.9871  140.7697  143.4576 H   0  0  0  0  0  0  0  0  0  0  0  0  # atno 7974 bound_to 7965
  155.5973  140.3493  155.4583 H   0  0  0  0  0  0  0  0  0  0  0  0  # atno 8008 bound_to 7997
  156.0255  140.1263  157.0337 H   0  0  0  0  0  0  0  0  0  0  0  0  # atno 8009 bound_to 7997
  154.4332  140.1054  156.6011 H   0  0  0  0  0  0  0  0  0  0  0  0  # atno 8010 bound_to 7997
  140.5355  143.9767  150.6489 H   0  0  0  0  0  0  0  0  0  0  0  0  # atno 10167 bound_to 10162
  157.5887  131.1067  150.8042 H   0  0  0  0  0  0  0  0  0  0  0  0  # atno 10718 bound_to 10713
  153.4921  135.7017  153.5879 H   0  0  0  0  0  0  0  0  0  0  0  0  # atno 10763 bound_to 10752
  153.4047  135.3863  155.2011 H   0  0  0  0  0  0  0  0  0  0  0  0  # atno 10764 bound_to 10752
  154.8716  135.3890  154.4382 H   0  0  0  0  0  0  0  0  0  0  0  0  # atno 10765 bound_to 10752
  140.9828  134.0649  157.3745 H   0  0  0  0  0  0  0  0  0  0  0  0  # atno 11005 bound_to 11000
  145.2338  139.2103  143.5029 LP  0  0  0  0  0  0  0  0  0  0  0  0  # atno 17320 bound_to 7965
  146.3422  140.2220  142.8591 LP  0  0  0  0  0  0  0  0  0  0  0  0  # atno 17321 bound_to 7965
  140.3154  143.3171  152.0837 LP  0  0  0  0  0  0  0  0  0  0  0  0  # atno 17342 bound_to 10162
  139.4969  144.6609  151.6467 LP  0  0  0  0  0  0  0  0  0  0  0  0  # atno 17343 bound_to 10162
  156.8470  130.5067  149.5315 LP  0  0  0  0  0  0  0  0  0  0  0  0  # atno 17370 bound_to 10713
  156.0939  130.5917  150.9780 LP  0  0  0  0  0  0  0  0  0  0  0  0  # atno 17371 bound_to 10713
  139.8957  135.0142  156.7017 LP  0  0  0  0  0  0  0  0  0  0  0  0  # atno 17394 bound_to 11000
  140.7160  133.9182  155.8115 LP  0  0  0  0  0  0  0  0  0  0  0  0  # atno 17395 bound_to 11000

$$$$
