AV-unprocessed.smi:193|AV-procd|sdf|1510|dock2
  -GOLD-   2262019343D 1   1.00000     0.00000
 Structure written by MMmdl.
 62 66  0  0  0  0  0  0  0  0  2 V2000
  152.2161  139.9974  155.7818 C   0  0  0  0  0  0  0  0  0  0  0  0
  151.0047  140.6072  156.5047 C   0  0  2  0  0  0  0  0  0  0  0  0
  149.7145  139.9475  155.9744 C   0  0  0  0  0  0  0  0  0  0  0  0
  148.5209  140.2615  156.7548 N   0  0  0  0  0  0  0  0  0  0  0  0
  147.4615  139.5146  156.3791 C   0  0  0  0  0  0  0  0  0  0  0  0
  146.6330  139.0678  157.3540 N   0  0  0  0  0  0  0  0  0  0  0  0
  145.5703  138.3225  157.0335 C   0  0  0  0  0  0  0  0  0  0  0  0
  145.1654  137.9195  155.8265 N   0  0  0  0  0  0  0  0  0  0  0  0
  146.0009  138.3684  154.8458 C   0  0  0  0  0  0  0  0  0  0  0  0
  147.1638  139.1661  155.0327 C   0  0  0  0  0  0  0  0  0  0  0  0
  147.7649  139.4285  153.8076 N   0  0  0  0  0  0  0  0  0  0  0  0
  146.9986  138.8197  152.9437 C   0  0  0  0  0  0  0  0  0  0  0  0
  145.9123  138.1651  153.4798 N   0  0  0  0  0  0  0  0  0  0  0  0
  144.8999  137.4172  152.7503 C   0  0  0  0  0  0  0  0  0  0  0  0
  145.4416  136.1412  152.0601 C   0  0  0  0  0  0  0  0  0  0  0  0
  146.3814  136.5494  151.0804 O   0  0  0  0  0  0  0  0  0  0  0  0
  146.1642  135.2409  153.0819 C   0  0  0  0  0  0  0  0  0  0  0  0
  146.5743  133.8877  152.4739 C   0  0  0  0  0  0  0  0  0  0  0  0
  145.4360  133.2352  151.9245 O   0  0  0  0  0  0  0  0  0  0  0  0
  144.8445  133.9651  150.8564 C   0  0  0  0  0  0  0  0  0  0  0  0
  144.3312  135.3245  151.3631 C   0  0  0  0  0  0  0  0  0  0  0  0
  148.1782  141.6620  156.9832 C   0  0  0  0  0  0  0  0  0  0  0  0
  149.1275  142.3083  158.0035 C   0  0  0  0  0  0  0  0  0  0  0  0
  150.3449  142.9111  157.4021 N   0  3  1  0  0  0  0  0  0  0  0  0
  151.3228  143.3077  158.4408 C   0  0  1  0  0  0  0  0  0  0  0  0
  152.3945  144.2451  157.9344 C   0  0  0  0  0  0  0  0  0  0  0  0
  151.2761  144.7756  158.8055 C   0  0  2  0  0  0  0  0  0  0  0  0
  151.5629  145.2261  160.2209 C   0  0  0  0  0  0  0  0  0  0  0  0
  150.9822  142.1403  156.2993 C   0  0  0  0  0  0  0  0  0  0  0  0
  152.1778  140.1914  154.7091 H   0  0  0  0  0  0  0  0  0  0  0  0
  152.2571  138.9170  155.9230 H   0  0  0  0  0  0  0  0  0  0  0  0
  153.1516  140.4092  156.1620 H   0  0  0  0  0  0  0  0  0  0  0  0
  151.1253  140.3749  157.5637 H   0  0  0  0  0  0  0  0  0  0  0  0
  149.5561  140.2269  154.9317 H   0  0  0  0  0  0  0  0  0  0  0  0
  149.8443  138.8638  155.9836 H   0  0  0  0  0  0  0  0  0  0  0  0
  144.9560  138.0025  157.8625 H   0  0  0  0  0  0  0  0  0  0  0  0
  147.2010  138.8361  151.8824 H   0  0  0  0  0  0  0  0  0  0  0  0
  144.0978  137.1623  153.4447 H   0  0  0  0  0  0  0  0  0  0  0  0
  144.4566  138.0827  152.0086 H   0  0  0  0  0  0  0  0  0  0  0  0
  147.2335  136.2246  151.3287 H   0  0  0  0  0  0  0  0  0  0  0  0
  147.0390  135.7491  153.4900 H   0  0  0  0  0  0  0  0  0  0  0  0
  145.5011  135.0506  153.9269 H   0  0  0  0  0  0  0  0  0  0  0  0
  147.3403  134.0154  151.7076 H   0  0  0  0  0  0  0  0  0  0  0  0
  147.0051  133.2490  153.2450 H   0  0  0  0  0  0  0  0  0  0  0  0
  145.5645  134.0942  150.0469 H   0  0  0  0  0  0  0  0  0  0  0  0
  144.0166  133.3831  150.4510 H   0  0  0  0  0  0  0  0  0  0  0  0
  143.5201  135.1464  152.0704 H   0  0  0  0  0  0  0  0  0  0  0  0
  143.8967  135.8834  150.5336 H   0  0  0  0  0  0  0  0  0  0  0  0
  148.1615  142.2197  156.0461 H   0  0  0  0  0  0  0  0  0  0  0  0
  147.1645  141.7092  157.3859 H   0  0  0  0  0  0  0  0  0  0  0  0
  148.5944  143.1097  158.5160 H   0  0  0  0  0  0  0  0  0  0  0  0
  149.3957  141.5870  158.7777 H   0  0  0  0  0  0  0  0  0  0  0  0
  151.5617  142.5545  159.1901 H   0  0  0  0  0  0  0  0  0  0  0  0
  153.3838  144.1609  158.3798 H   0  0  0  0  0  0  0  0  0  0  0  0
  152.3828  144.5214  156.8815 H   0  0  0  0  0  0  0  0  0  0  0  0
  150.5313  145.3866  158.2981 H   0  0  0  0  0  0  0  0  0  0  0  0
  152.3109  144.5840  160.6873 H   0  0  0  0  0  0  0  0  0  0  0  0
  150.6509  145.1871  160.8171 H   0  0  0  0  0  0  0  0  0  0  0  0
  151.9359  146.2504  160.2203 H   0  0  0  0  0  0  0  0  0  0  0  0
  151.9962  142.5176  156.1592 H   0  0  0  0  0  0  0  0  0  0  0  0
  150.4672  142.3787  155.3679 H   0  0  0  0  0  0  0  0  0  0  0  0
  150.0418  143.7742  156.9739 H   0  0  0  0  0  0  0  0  0  0  0  0
  1  2  1  0  0  0  0
  1 30  1  0  0  0  0
  1 31  1  0  0  0  0
  1 32  1  0  0  0  0
  2 29  1  0  0  0  0
  2  3  1  0  0  0  0
  2 33  1  0  0  0  0
  3  4  1  0  0  0  0
  3 34  1  0  0  0  0
  3 35  1  0  0  0  0
  4  5  1  0  0  0  0
  4 22  1  0  0  0  0
  5 10  1  0  0  0  0
  5  6  2  0  0  0  0
  6  7  1  0  0  0  0
  7  8  2  0  0  0  0
  7 36  1  0  0  0  0
  8  9  1  0  0  0  0
  9 13  1  0  0  0  0
  9 10  2  0  0  0  0
 10 11  1  0  0  0  0
 11 12  2  0  0  0  0
 12 13  1  0  0  0  0
 12 37  1  0  0  0  0
 13 14  1  0  0  0  0
 14 15  1  0  0  0  0
 14 38  1  0  0  0  0
 14 39  1  0  0  0  0
 15 21  1  0  0  0  0
 15 16  1  0  0  0  0
 15 17  1  0  0  0  0
 16 40  1  0  0  0  0
 17 18  1  0  0  0  0
 17 41  1  0  0  0  0
 17 42  1  0  0  0  0
 18 19  1  0  0  0  0
 18 43  1  0  0  0  0
 18 44  1  0  0  0  0
 19 20  1  0  0  0  0
 20 21  1  0  0  0  0
 20 45  1  0  0  0  0
 20 46  1  0  0  0  0
 21 47  1  0  0  0  0
 21 48  1  0  0  0  0
 22 23  1  0  0  0  0
 22 49  1  0  0  0  0
 22 50  1  0  0  0  0
 23 24  1  0  0  0  0
 23 51  1  0  0  0  0
 23 52  1  0  0  0  0
 24 25  1  0  0  0  0
 24 29  1  0  0  0  0
 24 62  1  0  0  0  0
 25 27  1  0  0  0  0
 25 26  1  0  0  0  0
 25 53  1  0  0  0  0
 26 27  1  0  0  0  0
 26 54  1  0  0  0  0
 26 55  1  0  0  0  0
 27 28  1  0  0  0  0
 27 56  1  0  0  0  0
 28 57  1  0  0  0  0
 28 58  1  0  0  0  0
 28 59  1  0  0  0  0
 29 60  1  0  0  0  0
 29 61  1  0  0  0  0
M  CHG  1  24   1
M  END
> <s_m_source_file>
AV-unprocessed.smi

> <i_m_source_file_index>
193

> <i_lp_mmshare_version>
43012

> <i_f3d_flags>
0

> <s_epik_input>
W0NIM11bQ0BASF0xW0NIMl1bQ0BIXTFOKFtDSDJdMilbQ0gyXVtDSDJdTihbQ0gyXVtDQEhdMltDSDNdKWMobltjSF1uMyljKGMzNCluW2NIXW40W0NIMl1DNShbT0hdKVtDSDJdW0NIMl1PW0NIMl1bQ0gyXTU=

> <s_epik_cmdline>
J2VwaWtfcHl0aG9uJywgJy1waCcsICc3LjAnLCAnLXRuJywgJzgnLCAnLW1hJywgJzIwMCcsICctbWV0YWxfYmluZGluZycsICctaW1hZScsICc8aW5maWxlLm1hZT4nLCAnLW9tYWUnLCAnPG91dGZpbGUubWFlPic=

> <r_lp_tautomer_probability>
1

> <r_epik_Ionization_Penalty>
0.0540825

> <r_epik_Ionization_Penalty_Charging>
0.0538476

> <r_epik_Ionization_Penalty_Neutral>
0.000234891

> <r_epik_State_Penalty>
0.0200719

> <r_epik_Charging_Adjusted_Penalty>
0.0739194

> <i_epik_Tot_Q>
1

> <i_epik_Tot_abs_Q>
1

> <r_epik_Metal_State_Penalty>
0.0199414

> <b_epik_Metal_Only>
0

> <s_lp_Force_Field>
OPLS_2005

> <r_lp_Energy>
55.8923

> <b_lp_Chiralities_Consistent>
1

> <s_lp_Variant>
AV-unprocessed.smi:193-15

> <Gold.Version>
5.8.1

> <Gold.Id.Protein>
6NUR|6NUR_protein|mol2

> <Gold.PLP.Fitness>
50.1056

> <Gold.PLP.PLP>
-40.7597

> <Gold.PLP.part.hbond>
-2.0482

> <Gold.PLP.part.metal>
0.0000

> <Gold.PLP.part.buried>
-3.8375

> <Gold.PLP.part.nonpolar>
-34.3573

> <Gold.PLP.part.repulsive>
0.3455

> <Gold.PLP.ligand.clash>
0.0000

> <Gold.PLP.ligand.torsion>
1.3350

> <Gold.PLP.Chemscore.Hbond>
3.0000

> <Gold.PLP.Chemscore.CHOScore>
0.4807

> <Gold.PLP.Chemscore.Metal>
0.0000

> <Gold.Chemscore.Hbonds>
donor molecule, donor type, donor heavy atom, donor atom, acceptor molecule, acceptor atom, score
      L1  H    16    40       P1  7948  1.00
      L1  H    24    62       P1  8028  2.00
      L1  C    12    37       P1  7957  0.33

> <Gold.PLP.Chemscore.Internal.Correction>
1.5738

> <Gold.Rescore>
     Score         DG    S(hbond)    S(metal)    S(lipo)     H(rot)  DE(clash)    DE(int)     intcor
     16.66     -19.08       1.94        0.00     109.02       2.20       0.12       2.31       ----

> <Gold.Chemscore.Fitness>
16.6581

> <Gold.Chemscore.DG>
-19.0845

> <Gold.Chemscore.ZeroCoef>
-5.4800

> <Gold.Chemscore.Hbond>
1.9419

> <Gold.Chemscore.Metal>
0.0000

> <Gold.Chemscore.Lipo>
109.0176

> <Gold.Chemscore.Internal_Hbond>
0.0000

> <Gold.Chemscore.DEClash>
0.1168

> <Gold.Chemscore.DEInternal>
2.3096

> <Gold.Chemscore.Rot>
2.2018

> <Gold.Chemscore.Internal.Correction>
   9.000000E+99

> <Gold.Chemscore.Hbonds>
donor molecule, donor type, donor heavy atom, donor atom, acceptor molecule, acceptor atom, score
      L1  H    16    40       P1  7948  1.00
      L1  H    24    62       P1  8028  0.92

> <Gold.Chemscore.Hbond.Weighted>
-6.4860

> <Gold.Chemscore.Metal.Weighted>
-0.0000

> <Gold.Chemscore.Lipo.Weighted>
-12.7551

> <Gold.Chemscore.Internal_Hbond.Weighted>
0.0000

> <Gold.Chemscore.DEClash.Weighted>
0.1168

> <Gold.Chemscore.DEInternal.Weighted>
2.3096

> <Gold.Chemscore.Rot.Weighted>
5.6366

> <Gold.Chemscore.Internal.Correction.Weighted>
   9.000000E+99

> <Gold.Protein.RotatedTorsions>
[ 6907 6896 6895 6894 ] final   -7.05 input  -60.11 | X-H torsion
[ 7974 7965 7964 7962 ] final   -1.22 input  175.53 | X-H torsion
[ 8008 7997 7996 7995 ] final  123.83 input   59.86 | X-H torsion
[ 10167 10162 10161 10158 ] final  134.29 input  -65.29 | X-H torsion
[ 10718 10713 10712 10709 ] final  -22.58 input   66.30 | X-H torsion
[ 10763 10752 10751 10750 ] final  168.39 input  -60.55 | X-H torsion
[ 11005 11000 10999 10996 ] final  -66.73 input  -57.11 | X-H torsion

> <Gold.Protein.ActiveResidues>
 VAL166  LYS551  ARG553  GLY616  TRP617  ASP618  TYR619  PRO620  LYS621  CYS622 
 ASP623  PHE694  ASN695  SER759  ASP760  ASP761  ALA762  ILE779  LEU786  VAL792 
 PHE793  MET794  SER795  GLU796  ALA797  LYS798  CYS799  TRP800  GLU811  SER814 

> <Gold.Protein.RotatedAtoms>
  151.4558  135.1034  159.9710 H   0  0  0  0  0  0  0  0  0  0  0  0  # atno 6907 bound_to 6896
  152.4871  133.8398  159.7157 H   0  0  0  0  0  0  0  0  0  0  0  0  # atno 6908 bound_to 6896
  150.8991  133.7082  159.2911 H   0  0  0  0  0  0  0  0  0  0  0  0  # atno 6909 bound_to 6896
  146.2419  140.1388  142.8336 H   0  0  0  0  0  0  0  0  0  0  0  0  # atno 7974 bound_to 7965
  156.2780  140.2754  156.1690 H   0  0  0  0  0  0  0  0  0  0  0  0  # atno 8008 bound_to 7997
  155.0674  140.0387  157.2615 H   0  0  0  0  0  0  0  0  0  0  0  0  # atno 8009 bound_to 7997
  154.7067  140.2660  155.6673 H   0  0  0  0  0  0  0  0  0  0  0  0  # atno 8010 bound_to 7997
  139.5262  144.6574  151.5119 H   0  0  0  0  0  0  0  0  0  0  0  0  # atno 10167 bound_to 10162
  156.5027  130.4591  149.6692 H   0  0  0  0  0  0  0  0  0  0  0  0  # atno 10718 bound_to 10713
  154.3678  135.2753  155.2283 H   0  0  0  0  0  0  0  0  0  0  0  0  # atno 10763 bound_to 10752
  154.4444  135.5946  153.6153 H   0  0  0  0  0  0  0  0  0  0  0  0  # atno 10764 bound_to 10752
  152.9840  135.6026  154.3906 H   0  0  0  0  0  0  0  0  0  0  0  0  # atno 10765 bound_to 10752
  141.1490  133.6705  156.6184 H   0  0  0  0  0  0  0  0  0  0  0  0  # atno 11005 bound_to 11000
  145.0264  140.8835  143.5136 LP  0  0  0  0  0  0  0  0  0  0  0  0  # atno 17320 bound_to 7965
  145.1445  139.2552  143.5473 LP  0  0  0  0  0  0  0  0  0  0  0  0  # atno 17321 bound_to 7965
  140.6406  143.8896  150.6688 LP  0  0  0  0  0  0  0  0  0  0  0  0  # atno 17342 bound_to 10162
  140.2229  143.3795  152.1628 LP  0  0  0  0  0  0  0  0  0  0  0  0  # atno 17343 bound_to 10162
  156.3317  130.7335  151.2265 LP  0  0  0  0  0  0  0  0  0  0  0  0  # atno 17370 bound_to 10713
  157.7461  131.0428  150.4712 LP  0  0  0  0  0  0  0  0  0  0  0  0  # atno 17371 bound_to 10713
  140.3560  134.7728  157.4500 LP  0  0  0  0  0  0  0  0  0  0  0  0  # atno 17394 bound_to 11000
  140.0823  134.5714  155.8528 LP  0  0  0  0  0  0  0  0  0  0  0  0  # atno 17395 bound_to 11000

$$$$
