AV-unprocessed.smi:236|AV-procd|sdf|1811|dock4
  -GOLD-   2262020393D 1   1.00000     0.00000
 Structure written by MMmdl.
 58 62  0  0  0  0  0  0  0  0  1 V2000
  146.4282  129.5642  152.1362 C   0  0  0  0  0  0  0  0  0  0  0  0
  145.9781  131.0020  152.4404 C   0  0  2  0  0  0  0  0  0  0  0  0
  145.2016  131.4968  151.3556 O   0  0  0  0  0  0  0  0  0  0  0  0
  145.2780  132.9106  151.3750 C   0  0  0  0  0  0  0  0  0  0  0  0
  146.7533  133.1476  151.6566 C   0  0  0  0  0  0  0  0  0  0  0  0
  147.0977  132.0544  152.6724 C   0  0  2  0  0  0  0  0  0  0  0  0
  148.3857  131.5504  152.3590 O   0  0  0  0  0  0  0  0  0  0  0  0
  147.1049  132.5430  154.1444 C   0  0  0  0  0  0  0  0  0  0  0  0
  147.9748  133.6830  154.3954 N   0  0  0  0  0  0  0  0  0  0  0  0
  149.3518  133.6928  154.3752 C   0  0  0  0  0  0  0  0  0  0  0  0
  149.9050  134.8439  154.6443 N   0  0  0  0  0  0  0  0  0  0  0  0
  148.8282  135.6896  154.8826 C   0  0  0  0  0  0  0  0  0  0  0  0
  148.6980  137.0629  155.2341 C   0  0  0  0  0  0  0  0  0  0  0  0
  149.7286  137.9115  155.4275 N   0  0  0  0  0  0  0  0  0  0  0  0
  150.6897  137.9210  154.3329 C   0  0  0  0  0  0  0  0  0  0  0  0
  151.8959  138.7973  154.7071 C   0  0  0  0  0  0  0  0  0  0  0  0
  151.4424  140.1007  155.0608 O   0  0  0  0  0  0  0  0  0  0  0  0
  150.5746  140.0884  156.1934 C   0  0  1  0  0  0  0  0  0  0  0  0
  150.2060  141.5383  156.5329 C   0  0  0  0  0  0  0  0  0  0  0  0
  151.2753  142.1338  157.2489 O   0  0  0  0  0  0  0  0  0  0  0  0
  150.8498  143.2012  158.0783 C   0  0  0  0  0  0  0  0  0  0  0  0
  152.0641  143.9638  158.5643 C   0  0  0  0  0  0  0  0  0  0  0  0
  152.7103  143.6324  159.8910 C   0  0  0  0  0  0  0  0  0  0  0  0
  151.9435  144.9199  159.7294 C   0  0  0  0  0  0  0  0  0  0  0  0
  149.3296  139.2502  155.8426 C   0  0  0  0  0  0  0  0  0  0  0  0
  147.4492  137.5633  155.3982 N   0  0  0  0  0  0  0  0  0  0  0  0
  146.3858  136.7720  155.2282 C   0  0  0  0  0  0  0  0  0  0  0  0
  146.3505  135.4783  154.9010 N   0  0  0  0  0  0  0  0  0  0  0  0
  147.6073  134.9734  154.7356 C   0  0  0  0  0  0  0  0  0  0  0  0
  147.0257  129.1585  152.9530 H   0  0  0  0  0  0  0  0  0  0  0  0
  147.0232  129.5159  151.2239 H   0  0  0  0  0  0  0  0  0  0  0  0
  145.5666  128.9104  152.0010 H   0  0  0  0  0  0  0  0  0  0  0  0
  145.3163  130.9761  153.3076 H   0  0  0  0  0  0  0  0  0  0  0  0
  144.9533  133.3463  150.4300 H   0  0  0  0  0  0  0  0  0  0  0  0
  144.6539  133.3085  152.1769 H   0  0  0  0  0  0  0  0  0  0  0  0
  147.3070  132.9986  150.7279 H   0  0  0  0  0  0  0  0  0  0  0  0
  146.9580  134.1626  151.9924 H   0  0  0  0  0  0  0  0  0  0  0  0
  148.4966  131.5765  151.4211 H   0  0  0  0  0  0  0  0  0  0  0  0
  146.0947  132.8140  154.4540 H   0  0  0  0  0  0  0  0  0  0  0  0
  147.4151  131.7317  154.8045 H   0  0  0  0  0  0  0  0  0  0  0  0
  149.9377  132.8132  154.1507 H   0  0  0  0  0  0  0  0  0  0  0  0
  151.0183  136.9034  154.1164 H   0  0  0  0  0  0  0  0  0  0  0  0
  150.2185  138.3087  153.4286 H   0  0  0  0  0  0  0  0  0  0  0  0
  152.4563  138.3578  155.5337 H   0  0  0  0  0  0  0  0  0  0  0  0
  152.5810  138.8753  153.8628 H   0  0  0  0  0  0  0  0  0  0  0  0
  151.0854  139.6396  157.0476 H   0  0  0  0  0  0  0  0  0  0  0  0
  149.9849  142.0987  155.6229 H   0  0  0  0  0  0  0  0  0  0  0  0
  149.3104  141.5561  157.1559 H   0  0  0  0  0  0  0  0  0  0  0  0
  150.2080  143.8816  157.5166 H   0  0  0  0  0  0  0  0  0  0  0  0
  150.2796  142.8272  158.9303 H   0  0  0  0  0  0  0  0  0  0  0  0
  152.7319  144.2822  157.7659 H   0  0  0  0  0  0  0  0  0  0  0  0
  152.2564  142.8508  160.4969 H   0  0  0  0  0  0  0  0  0  0  0  0
  153.7950  143.6965  159.9499 H   0  0  0  0  0  0  0  0  0  0  0  0
  152.5163  145.8438  159.6819 H   0  0  0  0  0  0  0  0  0  0  0  0
  150.9784  144.9953  160.2263 H   0  0  0  0  0  0  0  0  0  0  0  0
  148.7705  139.7370  155.0427 H   0  0  0  0  0  0  0  0  0  0  0  0
  148.6665  139.1834  156.7062 H   0  0  0  0  0  0  0  0  0  0  0  0
  145.4252  137.2423  155.3779 H   0  0  0  0  0  0  0  0  0  0  0  0
  1  2  1  0  0  0  0
  1 30  1  0  0  0  0
  1 31  1  0  0  0  0
  1 32  1  0  0  0  0
  2  6  1  0  0  0  0
  2  3  1  0  0  0  0
  2 33  1  0  0  0  0
  3  4  1  0  0  0  0
  4  5  1  0  0  0  0
  4 34  1  0  0  0  0
  4 35  1  0  0  0  0
  5  6  1  0  0  0  0
  5 36  1  0  0  0  0
  5 37  1  0  0  0  0
  6  7  1  0  0  0  0
  6  8  1  0  0  0  0
  7 38  1  0  0  0  0
  8  9  1  0  0  0  0
  8 39  1  0  0  0  0
  8 40  1  0  0  0  0
  9 29  1  0  0  0  0
  9 10  1  0  0  0  0
 10 11  2  0  0  0  0
 10 41  1  0  0  0  0
 11 12  1  0  0  0  0
 12 29  2  0  0  0  0
 12 13  1  0  0  0  0
 13 14  1  0  0  0  0
 13 26  2  0  0  0  0
 14 25  1  0  0  0  0
 14 15  1  0  0  0  0
 15 16  1  0  0  0  0
 15 42  1  0  0  0  0
 15 43  1  0  0  0  0
 16 17  1  0  0  0  0
 16 44  1  0  0  0  0
 16 45  1  0  0  0  0
 17 18  1  0  0  0  0
 18 19  1  0  0  0  0
 18 25  1  0  0  0  0
 18 46  1  0  0  0  0
 19 20  1  0  0  0  0
 19 47  1  0  0  0  0
 19 48  1  0  0  0  0
 20 21  1  0  0  0  0
 21 22  1  0  0  0  0
 21 49  1  0  0  0  0
 21 50  1  0  0  0  0
 22 24  1  0  0  0  0
 22 23  1  0  0  0  0
 22 51  1  0  0  0  0
 23 24  1  0  0  0  0
 23 52  1  0  0  0  0
 23 53  1  0  0  0  0
 24 54  1  0  0  0  0
 24 55  1  0  0  0  0
 25 56  1  0  0  0  0
 25 57  1  0  0  0  0
 26 27  1  0  0  0  0
 27 28  2  0  0  0  0
 27 58  1  0  0  0  0
 28 29  1  0  0  0  0
M  END
> <s_m_source_file>
AV-unprocessed.smi

> <i_m_source_file_index>
236

> <i_lp_mmshare_version>
43012

> <i_f3d_flags>
0

> <s_epik_input>
W0NIMl0xW0NIMl1PW0NAQEhdKFtDSDNdKVtDQEBdMShbT0hdKVtDSDJdbihbY0hdbjIpYyhjMjMpbltjSF1uYzNONFtDSDJdW0NIMl1PW0NASF0oW0NIMl00KVtDSDJdT1tDSDJdW0NIXTVbQ0gyXVtDSDJdNQ==

> <s_epik_cmdline>
J2VwaWtfcHl0aG9uJywgJy1waCcsICc3LjAnLCAnLXRuJywgJzgnLCAnLW1hJywgJzIwMCcsICctbWV0YWxfYmluZGluZycsICctaW1hZScsICc8aW5maWxlLm1hZT4nLCAnLW9tYWUnLCAnPG91dGZpbGUubWFlPic=

> <r_lp_tautomer_probability>
1

> <r_epik_Ionization_Penalty>
7.21838e-05

> <r_epik_Ionization_Penalty_Charging>
0

> <r_epik_Ionization_Penalty_Neutral>
7.21838e-05

> <r_epik_State_Penalty>
-0

> <r_epik_Charging_Adjusted_Penalty>
0

> <i_epik_Tot_Q>
0

> <i_epik_Tot_abs_Q>
0

> <r_epik_Metal_State_Penalty>
-0

> <b_epik_Metal_Only>
0

> <s_lp_Force_Field>
OPLS_2005

> <r_lp_Energy>
49.5811

> <b_lp_Chiralities_Consistent>
1

> <s_lp_Variant>
AV-unprocessed.smi:236-3

> <Gold.Version>
5.8.1

> <Gold.Id.Protein>
6NUR|6NUR_protein|mol2

> <Gold.PLP.Fitness>
51.8238

> <Gold.PLP.PLP>
-46.5982

> <Gold.PLP.part.hbond>
-1.8550

> <Gold.PLP.part.metal>
0.0000

> <Gold.PLP.part.buried>
-5.1088

> <Gold.PLP.part.nonpolar>
-41.4499

> <Gold.PLP.part.repulsive>
0.5816

> <Gold.PLP.ligand.clash>
0.0000

> <Gold.PLP.ligand.torsion>
0.8255

> <Gold.PLP.Chemscore.Hbond>
2.0000

> <Gold.PLP.Chemscore.CHOScore>
0.0000

> <Gold.PLP.Chemscore.Metal>
0.0000

> <Gold.Chemscore.Hbonds>
donor molecule, donor type, donor heavy atom, donor atom, acceptor molecule, acceptor atom, score
      L1  H     7    38       P1 10747  0.66
      P1  H  7989  7998       L1    17  0.90

> <Gold.PLP.Chemscore.Internal.Correction>
0.8767

> <Gold.Rescore>
     Score         DG    S(hbond)    S(metal)    S(lipo)     H(rot)  DE(clash)    DE(int)     intcor
     17.31     -18.49       1.91        0.00     119.35       2.87       0.08       1.10       ----

> <Gold.Chemscore.Fitness>
17.3125

> <Gold.Chemscore.DG>
-18.4873

> <Gold.Chemscore.ZeroCoef>
-5.4800

> <Gold.Chemscore.Hbond>
1.9098

> <Gold.Chemscore.Metal>
0.0000

> <Gold.Chemscore.Lipo>
119.3529

> <Gold.Chemscore.Internal_Hbond>
0.0000

> <Gold.Chemscore.DEClash>
0.0757

> <Gold.Chemscore.DEInternal>
1.0991

> <Gold.Chemscore.Rot>
2.8655

> <Gold.Chemscore.Internal.Correction>
   9.000000E+99

> <Gold.Chemscore.Hbonds>
donor molecule, donor type, donor heavy atom, donor atom, acceptor molecule, acceptor atom, score
      L1  H     7    38       P1 10747  0.63
      P1  H  7989  7998       L1    17  0.18

> <Gold.Chemscore.Hbond.Weighted>
-6.3788

> <Gold.Chemscore.Metal.Weighted>
-0.0000

> <Gold.Chemscore.Lipo.Weighted>
-13.9643

> <Gold.Chemscore.Internal_Hbond.Weighted>
0.0000

> <Gold.Chemscore.DEClash.Weighted>
0.0757

> <Gold.Chemscore.DEInternal.Weighted>
1.0991

> <Gold.Chemscore.Rot.Weighted>
7.3358

> <Gold.Chemscore.Internal.Correction.Weighted>
   9.000000E+99

> <Gold.Protein.RotatedTorsions>
[ 6907 6896 6895 6894 ] final   40.12 input  -60.11 | X-H torsion
[ 7974 7965 7964 7962 ] final   29.74 input  175.53 | X-H torsion
[ 8008 7997 7996 7995 ] final   71.42 input   59.86 | X-H torsion
[ 10167 10162 10161 10158 ] final   79.00 input  -65.29 | X-H torsion
[ 10718 10713 10712 10709 ] final  105.48 input   66.30 | X-H torsion
[ 10763 10752 10751 10750 ] final -124.23 input  -60.55 | X-H torsion
[ 11005 11000 10999 10996 ] final -164.61 input  -57.11 | X-H torsion

> <Gold.Protein.ActiveResidues>
 VAL166  LYS551  ARG553  GLY616  TRP617  ASP618  TYR619  PRO620  LYS621  CYS622 
 ASP623  PHE694  ASN695  SER759  ASP760  ASP761  ALA762  ILE779  LEU786  VAL792 
 PHE793  MET794  SER795  GLU796  ALA797  LYS798  CYS799  TRP800  GLU811  SER814 

> <Gold.Protein.RotatedAtoms>
  152.1784  134.8775  160.0528 H   0  0  0  0  0  0  0  0  0  0  0  0  # atno 6907 bound_to 6896
  151.9709  133.3720  159.4079 H   0  0  0  0  0  0  0  0  0  0  0  0  # atno 6908 bound_to 6896
  150.6913  134.4064  159.5186 H   0  0  0  0  0  0  0  0  0  0  0  0  # atno 6909 bound_to 6896
  146.1654  139.6882  142.9005 H   0  0  0  0  0  0  0  0  0  0  0  0  # atno 7974 bound_to 7965
  155.7536  140.3488  155.5162 H   0  0  0  0  0  0  0  0  0  0  0  0  # atno 8008 bound_to 7997
  155.8981  140.1029  157.1391 H   0  0  0  0  0  0  0  0  0  0  0  0  # atno 8009 bound_to 7997
  154.4041  140.1291  156.4388 H   0  0  0  0  0  0  0  0  0  0  0  0  # atno 8010 bound_to 7997
  139.9649  144.5935  150.8038 H   0  0  0  0  0  0  0  0  0  0  0  0  # atno 10167 bound_to 10162
  157.6704  131.0829  150.5864 H   0  0  0  0  0  0  0  0  0  0  0  0  # atno 10718 bound_to 10713
  154.8720  135.4071  154.3071 H   0  0  0  0  0  0  0  0  0  0  0  0  # atno 10763 bound_to 10752
  153.3921  135.7015  153.6492 H   0  0  0  0  0  0  0  0  0  0  0  0  # atno 10764 bound_to 10752
  153.5271  135.3675  155.2630 H   0  0  0  0  0  0  0  0  0  0  0  0  # atno 10765 bound_to 10752
  140.5849  134.5104  157.5184 H   0  0  0  0  0  0  0  0  0  0  0  0  # atno 11005 bound_to 11000
  145.4482  141.0427  143.2819 LP  0  0  0  0  0  0  0  0  0  0  0  0  # atno 17320 bound_to 7965
  144.8084  139.6007  143.7040 LP  0  0  0  0  0  0  0  0  0  0  0  0  # atno 17321 bound_to 7965
  140.7541  143.3020  151.3055 LP  0  0  0  0  0  0  0  0  0  0  0  0  # atno 17342 bound_to 10162
  139.6525  144.0336  152.2636 LP  0  0  0  0  0  0  0  0  0  0  0  0  # atno 17343 bound_to 10162
  156.6164  130.4394  149.5839 LP  0  0  0  0  0  0  0  0  0  0  0  0  # atno 17370 bound_to 10713
  156.2390  130.6840  151.1537 LP  0  0  0  0  0  0  0  0  0  0  0  0  # atno 17371 bound_to 10713
  139.9300  134.7982  156.0958 LP  0  0  0  0  0  0  0  0  0  0  0  0  # atno 17394 bound_to 11000
  141.0972  133.6691  156.2672 LP  0  0  0  0  0  0  0  0  0  0  0  0  # atno 17395 bound_to 11000

$$$$
