AV-unprocessed.smi:2656|AV-procd|sdf|10306|dock1
  -GOLD-   2272014323D 1   1.00000     0.00000
 Structure written by MMmdl.
 44 45  0  0  0  0  0  0  0  0  2 V2000
  152.3245  130.8804  155.6208 C   0  0  0  0  0  0  0  0  0  0  0  0
  151.6507  131.6435  156.6752 N   0  0  0  0  0  0  0  0  0  0  0  0
  152.4925  131.8849  157.8532 C   0  0  0  0  0  0  0  0  0  0  0  0
  150.3714  132.1078  156.6609 C   0  0  0  0  0  0  0  0  0  0  0  0
  149.9537  132.7717  157.6130 O   0  0  0  0  0  0  0  0  0  0  0  0
  149.3833  131.8141  155.4779 C   0  0  0  0  0  0  0  0  0  0  0  0
  149.7512  132.5674  154.1601 C   0  0  0  0  0  0  0  0  0  0  0  0
  148.8170  132.3170  153.0614 N   0  0  0  0  0  0  0  0  0  0  0  0
  147.7439  133.0626  152.7623 C   0  0  0  0  0  0  0  0  0  0  0  0
  147.4341  134.0856  153.3721 O   0  0  0  0  0  0  0  0  0  0  0  0
  147.0532  132.5313  151.7388 N   0  0  0  0  0  0  0  0  0  0  0  0
  145.8448  132.9988  151.1540 C   0  0  0  0  0  0  0  0  0  0  0  0
  145.0945  132.0837  150.3826 C   0  0  0  0  0  0  0  0  0  0  0  0
  143.8946  132.5062  149.7750 C   0  0  0  0  0  0  0  0  0  0  0  0
  143.4779  133.7818  149.9248 N   0  3  0  0  0  0  0  0  0  0  0  0
  144.1691  134.6967  150.6380 C   0  0  0  0  0  0  0  0  0  0  0  0
  145.3760  134.3325  151.2691 C   0  0  0  0  0  0  0  0  0  0  0  0
  149.3213  130.2898  155.1735 C   0  0  0  0  0  0  0  0  0  0  0  0
  148.3609  129.6537  156.1858 C   0  0  0  0  0  0  0  0  0  0  0  0
  147.4752  130.7965  156.6868 C   0  0  0  0  0  0  0  0  0  0  0  0
  147.9166  132.0449  155.9124 C   0  0  0  0  0  0  0  0  0  0  0  0
  151.9964  131.1339  154.6171 H   0  0  0  0  0  0  0  0  0  0  0  0
  152.1687  129.8126  155.7759 H   0  0  0  0  0  0  0  0  0  0  0  0
  153.4006  131.0575  155.6271 H   0  0  0  0  0  0  0  0  0  0  0  0
  152.7166  132.9482  157.9487 H   0  0  0  0  0  0  0  0  0  0  0  0
  153.4422  131.3504  157.8119 H   0  0  0  0  0  0  0  0  0  0  0  0
  151.9905  131.5591  158.7660 H   0  0  0  0  0  0  0  0  0  0  0  0
  149.8175  133.6409  154.3452 H   0  0  0  0  0  0  0  0  0  0  0  0
  150.7498  132.3122  153.8154 H   0  0  0  0  0  0  0  0  0  0  0  0
  148.9919  131.4946  152.5028 H   0  0  0  0  0  0  0  0  0  0  0  0
  147.3892  131.6450  151.3917 H   0  0  0  0  0  0  0  0  0  0  0  0
  145.4285  131.0630  150.2623 H   0  0  0  0  0  0  0  0  0  0  0  0
  143.2609  131.8670  149.1775 H   0  0  0  0  0  0  0  0  0  0  0  0
  143.7420  135.6882  150.6786 H   0  0  0  0  0  0  0  0  0  0  0  0
  145.9223  135.0844  151.8180 H   0  0  0  0  0  0  0  0  0  0  0  0
  148.9076  130.1249  154.1777 H   0  0  0  0  0  0  0  0  0  0  0  0
  150.2966  129.8010  155.1724 H   0  0  0  0  0  0  0  0  0  0  0  0
  147.7756  128.8561  155.7269 H   0  0  0  0  0  0  0  0  0  0  0  0
  148.9127  129.2149  157.0177 H   0  0  0  0  0  0  0  0  0  0  0  0
  146.4149  130.5883  156.5405 H   0  0  0  0  0  0  0  0  0  0  0  0
  147.6346  130.9426  157.7560 H   0  0  0  0  0  0  0  0  0  0  0  0
  147.7608  132.9346  156.5195 H   0  0  0  0  0  0  0  0  0  0  0  0
  147.2872  132.1569  155.0283 H   0  0  0  0  0  0  0  0  0  0  0  0
  142.6067  134.0676  149.4765 H   0  0  0  0  0  0  0  0  0  0  0  0
  1  2  1  0  0  0  0
  1 22  1  0  0  0  0
  1 23  1  0  0  0  0
  1 24  1  0  0  0  0
  2  3  1  0  0  0  0
  2  4  1  0  0  0  0
  3 25  1  0  0  0  0
  3 26  1  0  0  0  0
  3 27  1  0  0  0  0
  4  5  2  0  0  0  0
  4  6  1  0  0  0  0
  6 21  1  0  0  0  0
  6  7  1  0  0  0  0
  6 18  1  0  0  0  0
  7  8  1  0  0  0  0
  7 28  1  0  0  0  0
  7 29  1  0  0  0  0
  8  9  1  0  0  0  0
  8 30  1  0  0  0  0
  9 10  2  0  0  0  0
  9 11  1  0  0  0  0
 11 12  1  0  0  0  0
 11 31  1  0  0  0  0
 12 17  1  0  0  0  0
 12 13  2  0  0  0  0
 13 14  1  0  0  0  0
 13 32  1  0  0  0  0
 14 15  2  0  0  0  0
 14 33  1  0  0  0  0
 15 16  1  0  0  0  0
 15 44  1  0  0  0  0
 16 17  2  0  0  0  0
 16 34  1  0  0  0  0
 17 35  1  0  0  0  0
 18 19  1  0  0  0  0
 18 36  1  0  0  0  0
 18 37  1  0  0  0  0
 19 20  1  0  0  0  0
 19 38  1  0  0  0  0
 19 39  1  0  0  0  0
 20 21  1  0  0  0  0
 20 40  1  0  0  0  0
 20 41  1  0  0  0  0
 21 42  1  0  0  0  0
 21 43  1  0  0  0  0
M  CHG  1  15   1
M  END
> <s_m_source_file>
AV-unprocessed.smi

> <i_m_source_file_index>
2656

> <i_lp_mmshare_version>
43012

> <i_f3d_flags>
0

> <s_epik_input>
W0NIMl0xW0NIMl1bQ0gyXVtDSDJdQzEoQyg9TylOKFtDSDNdKVtDSDNdKVtDSDJdW05IXUMoPU8pW05IXWMyW2NIXVtjSF1uW2NIXVtjSF0y

> <s_epik_cmdline>
J2VwaWtfcHl0aG9uJywgJy1waCcsICc3LjAnLCAnLXRuJywgJzgnLCAnLW1hJywgJzIwMCcsICctbWV0YWxfYmluZGluZycsICctaW1hZScsICc8aW5maWxlLm1hZT4nLCAnLW9tYWUnLCAnPG91dGZpbGUubWFlPic=

> <r_epik_Ionization_Penalty>
1.05774

> <r_epik_Ionization_Penalty_Charging>
1.05772

> <r_epik_Ionization_Penalty_Neutral>
1.88023e-05

> <r_epik_State_Penalty>
1.11116

> <r_epik_Charging_Adjusted_Penalty>
2.16887

> <i_epik_Tot_Q>
1

> <i_epik_Tot_abs_Q>
1

> <r_epik_Metal_State_Penalty>
1.20442

> <b_epik_Metal_Only>
0

> <s_lp_Force_Field>
OPLS_2005

> <r_lp_Energy>
45.9804

> <b_lp_Chiralities_Consistent>
1

> <s_lp_Variant>
AV-unprocessed.smi:2656-2

> <Gold.Version>
5.8.1

> <Gold.Id.Protein>
6NUR|6NUR_protein|mol2

> <Gold.PLP.Fitness>
41.3899

> <Gold.PLP.PLP>
-30.1689

> <Gold.PLP.part.hbond>
-3.5506

> <Gold.PLP.part.metal>
0.0000

> <Gold.PLP.part.buried>
-4.9782

> <Gold.PLP.part.nonpolar>
-21.2593

> <Gold.PLP.part.repulsive>
0.8617

> <Gold.PLP.ligand.clash>
0.0000

> <Gold.PLP.ligand.torsion>
0.6845

> <Gold.PLP.Chemscore.Hbond>
4.1396

> <Gold.PLP.Chemscore.CHOScore>
0.0000

> <Gold.PLP.Chemscore.Metal>
0.0000

> <Gold.Chemscore.Hbonds>
donor molecule, donor type, donor heavy atom, donor atom, acceptor molecule, acceptor atom, score
      L1  H     8    30       P1 10747  0.29
      L1  H    11    31       P1 10747  0.68
      L1  H    15    44       P1 10186  2.00
      P1  H  6896  6908       L1     5  0.93

> <Gold.PLP.Chemscore.Internal.Correction>
0.1714

> <Gold.Rescore>
     Score         DG    S(hbond)    S(metal)    S(lipo)     H(rot)  DE(clash)    DE(int)     intcor
     17.50     -19.12       2.90        0.00      67.55       1.54       0.05       1.57       ----

> <Gold.Chemscore.Fitness>
17.5014

> <Gold.Chemscore.DG>
-19.1225

> <Gold.Chemscore.ZeroCoef>
-5.4800

> <Gold.Chemscore.Hbond>
2.8993

> <Gold.Chemscore.Metal>
0.0000

> <Gold.Chemscore.Lipo>
67.5457

> <Gold.Chemscore.Internal_Hbond>
0.0000

> <Gold.Chemscore.DEClash>
0.0506

> <Gold.Chemscore.DEInternal>
1.5705

> <Gold.Chemscore.Rot>
1.5406

> <Gold.Chemscore.Internal.Correction>
   9.000000E+99

> <Gold.Chemscore.Hbonds>
donor molecule, donor type, donor heavy atom, donor atom, acceptor molecule, acceptor atom, score
      L1  H     8    30       P1 10747  0.18
      L1  H    11    31       P1 10747  0.65
      L1  H    15    44       P1 10186  0.96
      P1  H  6896  6908       L1     5  0.89

> <Gold.Chemscore.Hbond.Weighted>
-9.6836

> <Gold.Chemscore.Metal.Weighted>
-0.0000

> <Gold.Chemscore.Lipo.Weighted>
-7.9028

> <Gold.Chemscore.Internal_Hbond.Weighted>
0.0000

> <Gold.Chemscore.DEClash.Weighted>
0.0506

> <Gold.Chemscore.DEInternal.Weighted>
1.5705

> <Gold.Chemscore.Rot.Weighted>
3.9440

> <Gold.Chemscore.Internal.Correction.Weighted>
   9.000000E+99

> <Gold.Protein.RotatedTorsions>
[ 6907 6896 6895 6894 ] final  102.04 input  -60.11 | X-H torsion
[ 7974 7965 7964 7962 ] final -160.04 input  175.53 | X-H torsion
[ 8008 7997 7996 7995 ] final  156.46 input   59.86 | X-H torsion
[ 10167 10162 10161 10158 ] final  105.49 input  -65.29 | X-H torsion
[ 10718 10713 10712 10709 ] final -129.11 input   66.30 | X-H torsion
[ 10763 10752 10751 10750 ] final   26.15 input  -60.55 | X-H torsion
[ 11005 11000 10999 10996 ] final   39.76 input  -57.11 | X-H torsion

> <Gold.Protein.ActiveResidues>
 VAL166  LYS551  ARG553  GLY616  TRP617  ASP618  TYR619  PRO620  LYS621  CYS622 
 ASP623  PHE694  ASN695  SER759  ASP760  ASP761  ALA762  ILE779  LEU786  VAL792 
 PHE793  MET794  SER795  GLU796  ALA797  LYS798  CYS799  TRP800  GLU811  SER814 

> <Gold.Protein.RotatedAtoms>
  152.5334  134.0035  159.7905 H   0  0  0  0  0  0  0  0  0  0  0  0  # atno 6907 bound_to 6896
  151.0250  133.5834  159.2674 H   0  0  0  0  0  0  0  0  0  0  0  0  # atno 6908 bound_to 6896
  151.2860  135.0735  159.9240 H   0  0  0  0  0  0  0  0  0  0  0  0  # atno 6909 bound_to 6896
  144.7442  140.3598  143.6098 H   0  0  0  0  0  0  0  0  0  0  0  0  # atno 7974 bound_to 7965
  156.2421  140.1912  156.6959 H   0  0  0  0  0  0  0  0  0  0  0  0  # atno 8008 bound_to 7997
  154.6218  140.0607  156.9650 H   0  0  0  0  0  0  0  0  0  0  0  0  # atno 8009 bound_to 7997
  155.1850  140.3279  155.4371 H   0  0  0  0  0  0  0  0  0  0  0  0  # atno 8010 bound_to 7997
  139.7089  144.7081  151.1061 H   0  0  0  0  0  0  0  0  0  0  0  0  # atno 10167 bound_to 10162
  156.2015  130.6860  151.0545 H   0  0  0  0  0  0  0  0  0  0  0  0  # atno 10718 bound_to 10713
  153.0642  135.6567  154.0392 H   0  0  0  0  0  0  0  0  0  0  0  0  # atno 10763 bound_to 10752
  154.0053  135.2933  155.3400 H   0  0  0  0  0  0  0  0  0  0  0  0  # atno 10764 bound_to 10752
  154.6993  135.5251  153.8572 H   0  0  0  0  0  0  0  0  0  0  0  0  # atno 10765 bound_to 10752
  140.1997  134.3886  155.8103 H   0  0  0  0  0  0  0  0  0  0  0  0  # atno 11005 bound_to 11000
  145.7189  139.1704  143.2496 LP  0  0  0  0  0  0  0  0  0  0  0  0  # atno 17320 bound_to 7965
  146.1292  140.7208  142.9420 LP  0  0  0  0  0  0  0  0  0  0  0  0  # atno 17321 bound_to 7965
  140.7728  143.5321  150.9411 LP  0  0  0  0  0  0  0  0  0  0  0  0  # atno 17342 bound_to 10162
  139.9005  143.6842  152.3132 LP  0  0  0  0  0  0  0  0  0  0  0  0  # atno 17343 bound_to 10162
  157.6988  131.0784  150.6884 LP  0  0  0  0  0  0  0  0  0  0  0  0  # atno 17370 bound_to 10713
  156.6942  130.4604  149.5591 LP  0  0  0  0  0  0  0  0  0  0  0  0  # atno 17371 bound_to 10713
  141.2227  133.7087  156.8236 LP  0  0  0  0  0  0  0  0  0  0  0  0  # atno 17394 bound_to 11000
  140.2068  134.8856  157.3231 LP  0  0  0  0  0  0  0  0  0  0  0  0  # atno 17395 bound_to 11000

$$$$
