AV-unprocessed.smi:2054|AV-procd|sdf|8333|dock10
  -GOLD-   2272011 03D 1   1.00000     0.00000
 Structure written by MMmdl.
 43 44  0  0  0  0  0  0  0  0  2 V2000
  150.6149  132.2635  155.2403 C   0  0  0  0  0  0  0  0  0  0  0  0
  149.6304  133.3182  156.3829 S   0  0  0  0  0  0  0  0  0  0  0  0
  148.2513  133.3589  155.8722 O   0  0  0  0  0  0  0  0  0  0  0  0
  149.8880  132.8991  157.7691 O   0  0  0  0  0  0  0  0  0  0  0  0
  150.3264  134.8930  156.1674 N   0  0  0  0  0  0  0  0  0  0  0  0
  150.1064  135.5603  154.8685 C   0  0  0  0  0  0  0  0  0  0  0  0
  150.4104  137.0654  154.9455 C   0  0  0  0  0  0  0  0  0  0  0  0
  151.8345  137.3190  155.4662 C   0  0  0  0  0  0  0  0  0  0  0  0
  152.1397  138.8202  155.5545 C   0  0  0  0  0  0  0  0  0  0  0  0
  153.2544  139.2482  155.2525 O   0  0  0  0  0  0  0  0  0  0  0  0
  151.1391  139.6121  155.9704 N   0  0  0  0  0  0  0  0  0  0  0  0
  151.2239  141.0613  156.1078 C   0  0  0  0  0  0  0  0  0  0  0  0
  150.2787  141.5846  157.2024 C   0  0  0  0  0  0  0  0  0  0  0  0
  150.9229  142.6671  158.0461 C   0  0  0  0  0  0  0  0  0  0  0  0
  152.0061  142.4013  158.9117 C   0  0  0  0  0  0  0  0  0  0  0  0
  152.5523  143.4548  159.6745 C   0  0  0  0  0  0  0  0  0  0  0  0
  152.0047  144.7490  159.5560 C   0  0  0  0  0  0  0  0  0  0  0  0
  150.9225  144.9578  158.6768 C   0  0  0  0  0  0  0  0  0  0  0  0
  150.4265  143.9229  157.9636 N   0  3  0  0  0  0  0  0  0  0  0  0
  151.9709  136.6429  156.8394 C   0  0  0  0  0  0  0  0  0  0  0  0
  151.6570  135.1398  156.7589 C   0  0  0  0  0  0  0  0  0  0  0  0
  150.2028  131.2549  155.2397 H   0  0  0  0  0  0  0  0  0  0  0  0
  151.6529  132.2226  155.5666 H   0  0  0  0  0  0  0  0  0  0  0  0
  150.5642  132.6740  154.2321 H   0  0  0  0  0  0  0  0  0  0  0  0
  150.7379  135.0854  154.1166 H   0  0  0  0  0  0  0  0  0  0  0  0
  149.0758  135.4155  154.5476 H   0  0  0  0  0  0  0  0  0  0  0  0
  150.2856  137.5112  153.9579 H   0  0  0  0  0  0  0  0  0  0  0  0
  149.6770  137.5459  155.5955 H   0  0  0  0  0  0  0  0  0  0  0  0
  152.5446  136.8574  154.7775 H   0  0  0  0  0  0  0  0  0  0  0  0
  150.2543  139.1806  156.1963 H   0  0  0  0  0  0  0  0  0  0  0  0
  152.2544  141.3536  156.3163 H   0  0  0  0  0  0  0  0  0  0  0  0
  150.9631  141.5077  155.1478 H   0  0  0  0  0  0  0  0  0  0  0  0
  149.3666  141.9777  156.7513 H   0  0  0  0  0  0  0  0  0  0  0  0
  149.9700  140.7704  157.8596 H   0  0  0  0  0  0  0  0  0  0  0  0
  152.4134  141.4041  158.9935 H   0  0  0  0  0  0  0  0  0  0  0  0
  153.3811  143.2718  160.3429 H   0  0  0  0  0  0  0  0  0  0  0  0
  152.4086  145.5693  160.1317 H   0  0  0  0  0  0  0  0  0  0  0  0
  150.4426  145.9134  158.5236 H   0  0  0  0  0  0  0  0  0  0  0  0
  152.9803  136.7819  157.2282 H   0  0  0  0  0  0  0  0  0  0  0  0
  151.2972  137.1105  157.5594 H   0  0  0  0  0  0  0  0  0  0  0  0
  151.7023  134.7155  157.7615 H   0  0  0  0  0  0  0  0  0  0  0  0
  152.4104  134.6241  156.1621 H   0  0  0  0  0  0  0  0  0  0  0  0
  149.6427  144.0967  157.3335 H   0  0  0  0  0  0  0  0  0  0  0  0
  1  2  1  0  0  0  0
  1 22  1  0  0  0  0
  1 23  1  0  0  0  0
  1 24  1  0  0  0  0
  2  3  2  0  0  0  0
  2  4  2  0  0  0  0
  2  5  1  0  0  0  0
  5 21  1  0  0  0  0
  5  6  1  0  0  0  0
  6  7  1  0  0  0  0
  6 25  1  0  0  0  0
  6 26  1  0  0  0  0
  7  8  1  0  0  0  0
  7 27  1  0  0  0  0
  7 28  1  0  0  0  0
  8  9  1  0  0  0  0
  8 20  1  0  0  0  0
  8 29  1  0  0  0  0
  9 10  2  0  0  0  0
  9 11  1  0  0  0  0
 11 12  1  0  0  0  0
 11 30  1  0  0  0  0
 12 13  1  0  0  0  0
 12 31  1  0  0  0  0
 12 32  1  0  0  0  0
 13 14  1  0  0  0  0
 13 33  1  0  0  0  0
 13 34  1  0  0  0  0
 14 19  1  0  0  0  0
 14 15  2  0  0  0  0
 15 16  1  0  0  0  0
 15 35  1  0  0  0  0
 16 17  2  0  0  0  0
 16 36  1  0  0  0  0
 17 18  1  0  0  0  0
 17 37  1  0  0  0  0
 18 19  2  0  0  0  0
 18 38  1  0  0  0  0
 19 43  1  0  0  0  0
 20 21  1  0  0  0  0
 20 39  1  0  0  0  0
 20 40  1  0  0  0  0
 21 41  1  0  0  0  0
 21 42  1  0  0  0  0
M  CHG  1  19   1
M  END
> <s_m_source_file>
AV-unprocessed.smi

> <i_m_source_file_index>
2054

> <i_lp_mmshare_version>
43012

> <i_f3d_flags>
0

> <s_epik_input>
W0NIM11TKD1PKSg9TylOMVtDSDJdW0NIMl1bQ0hdKFtDSDJdW0NIMl0xKUMoPU8pW05IXVtDSDJdW0NIMl1jMltjSF1bY0hdW2NIXVtjSF1uMg==

> <s_epik_cmdline>
J2VwaWtfcHl0aG9uJywgJy1waCcsICc3LjAnLCAnLXRuJywgJzgnLCAnLW1hJywgJzIwMCcsICctbWV0YWxfYmluZGluZycsICctaW1hZScsICc8aW5maWxlLm1hZT4nLCAnLW9tYWUnLCAnPG91dGZpbGUubWFlPic=

> <r_epik_Ionization_Penalty>
1.82741

> <r_epik_Ionization_Penalty_Charging>
1.82741

> <r_epik_Ionization_Penalty_Neutral>
1.85342e-08

> <r_epik_State_Penalty>
1.94311

> <r_epik_Charging_Adjusted_Penalty>
3.77052

> <i_epik_Tot_Q>
1

> <i_epik_Tot_abs_Q>
1

> <r_epik_Metal_State_Penalty>
1.96983

> <b_epik_Metal_Only>
0

> <s_lp_Force_Field>
OPLS_2005

> <r_lp_Energy>
8.70127

> <b_lp_Chiralities_Consistent>
1

> <s_lp_Variant>
AV-unprocessed.smi:2054-2

> <Gold.Version>
5.8.1

> <Gold.Id.Protein>
6NUR|6NUR_protein|mol2

> <Gold.PLP.Fitness>
47.5559

> <Gold.PLP.PLP>
-37.8529

> <Gold.PLP.part.hbond>
-4.1581

> <Gold.PLP.part.metal>
0.0000

> <Gold.PLP.part.buried>
-4.6156

> <Gold.PLP.part.nonpolar>
-30.0151

> <Gold.PLP.part.repulsive>
0.1795

> <Gold.PLP.ligand.clash>
0.0000

> <Gold.PLP.ligand.torsion>
1.5235

> <Gold.PLP.Chemscore.Hbond>
4.0000

> <Gold.PLP.Chemscore.CHOScore>
0.0000

> <Gold.PLP.Chemscore.Metal>
0.0000

> <Gold.Chemscore.Hbonds>
donor molecule, donor type, donor heavy atom, donor atom, acceptor molecule, acceptor atom, score
      L1  H    19    43       P1  8028  2.00
      P1  H  6896  6907       L1     4  1.00
      P1  H  7997  8009       L1    10  1.00

> <Gold.PLP.Chemscore.Internal.Correction>
0.7500

> <Gold.Rescore>
     Score         DG    S(hbond)    S(metal)    S(lipo)     H(rot)  DE(clash)    DE(int)     intcor
     20.32     -22.11       2.94        0.00     100.77       1.95       0.18       1.61       ----

> <Gold.Chemscore.Fitness>
20.3229

> <Gold.Chemscore.DG>
-22.1117

> <Gold.Chemscore.ZeroCoef>
-5.4800

> <Gold.Chemscore.Hbond>
2.9415

> <Gold.Chemscore.Metal>
0.0000

> <Gold.Chemscore.Lipo>
100.7725

> <Gold.Chemscore.Internal_Hbond>
0.0000

> <Gold.Chemscore.DEClash>
0.1832

> <Gold.Chemscore.DEInternal>
1.6055

> <Gold.Chemscore.Rot>
1.9466

> <Gold.Chemscore.Internal.Correction>
   9.000000E+99

> <Gold.Chemscore.Hbonds>
donor molecule, donor type, donor heavy atom, donor atom, acceptor molecule, acceptor atom, score
      L1  H    19    43       P1  8028  0.38
      P1  H  6896  6907       L1     4  1.00
      P1  H  7997  8009       L1    10  1.00

> <Gold.Chemscore.Hbond.Weighted>
-9.8245

> <Gold.Chemscore.Metal.Weighted>
-0.0000

> <Gold.Chemscore.Lipo.Weighted>
-11.7904

> <Gold.Chemscore.Internal_Hbond.Weighted>
0.0000

> <Gold.Chemscore.DEClash.Weighted>
0.1832

> <Gold.Chemscore.DEInternal.Weighted>
1.6055

> <Gold.Chemscore.Rot.Weighted>
4.9832

> <Gold.Chemscore.Internal.Correction.Weighted>
   9.000000E+99

> <Gold.Protein.RotatedTorsions>
[ 6907 6896 6895 6894 ] final -132.23 input  -60.11 | X-H torsion
[ 7974 7965 7964 7962 ] final -163.20 input  175.53 | X-H torsion
[ 8008 7997 7996 7995 ] final -138.58 input   59.86 | X-H torsion
[ 10167 10162 10161 10158 ] final -161.80 input  -65.29 | X-H torsion
[ 10718 10713 10712 10709 ] final   31.80 input   66.30 | X-H torsion
[ 10763 10752 10751 10750 ] final   72.95 input  -60.55 | X-H torsion
[ 11005 11000 10999 10996 ] final   26.79 input  -57.11 | X-H torsion

> <Gold.Protein.ActiveResidues>
 VAL166  LYS551  ARG553  GLY616  TRP617  ASP618  TYR619  PRO620  LYS621  CYS622 
 ASP623  PHE694  ASN695  SER759  ASP760  ASP761  ALA762  ILE779  LEU786  VAL792 
 PHE793  MET794  SER795  GLU796  ALA797  LYS798  CYS799  TRP800  GLU811  SER814 

> <Gold.Protein.RotatedAtoms>
  150.9600  133.6456  159.2756 H   0  0  0  0  0  0  0  0  0  0  0  0  # atno 6907 bound_to 6896
  151.3782  135.0934  159.9497 H   0  0  0  0  0  0  0  0  0  0  0  0  # atno 6908 bound_to 6896
  152.5144  133.9140  159.7556 H   0  0  0  0  0  0  0  0  0  0  0  0  # atno 6909 bound_to 6896
  144.7333  140.3142  143.6182 H   0  0  0  0  0  0  0  0  0  0  0  0  # atno 7974 bound_to 7965
  155.4307  140.0525  157.3018 H   0  0  0  0  0  0  0  0  0  0  0  0  # atno 8008 bound_to 7997
  154.4861  140.2101  155.9610 H   0  0  0  0  0  0  0  0  0  0  0  0  # atno 8009 bound_to 7997
  156.1276  140.3177  155.8306 H   0  0  0  0  0  0  0  0  0  0  0  0  # atno 8010 bound_to 7997
  139.6439  144.0209  152.2112 H   0  0  0  0  0  0  0  0  0  0  0  0  # atno 10167 bound_to 10162
  157.2771  130.7236  149.6536 H   0  0  0  0  0  0  0  0  0  0  0  0  # atno 10718 bound_to 10713
  153.0491  135.5081  154.7821 H   0  0  0  0  0  0  0  0  0  0  0  0  # atno 10763 bound_to 10752
  154.6698  135.2951  154.9759 H   0  0  0  0  0  0  0  0  0  0  0  0  # atno 10764 bound_to 10752
  154.0582  135.6694  153.4861 H   0  0  0  0  0  0  0  0  0  0  0  0  # atno 10765 bound_to 10752
  140.3332  134.2414  155.7699 H   0  0  0  0  0  0  0  0  0  0  0  0  # atno 11005 bound_to 11000
  145.7634  139.1832  143.2254 LP  0  0  0  0  0  0  0  0  0  0  0  0  # atno 17320 bound_to 7965
  146.0968  140.7591  142.9568 LP  0  0  0  0  0  0  0  0  0  0  0  0  # atno 17321 bound_to 7965
  139.9906  144.6364  150.7818 LP  0  0  0  0  0  0  0  0  0  0  0  0  # atno 17342 bound_to 10162
  140.7504  143.2956  151.3215 LP  0  0  0  0  0  0  0  0  0  0  0  0  # atno 17343 bound_to 10162
  155.9664  130.4349  150.5071 LP  0  0  0  0  0  0  0  0  0  0  0  0  # atno 17370 bound_to 10713
  157.3007  131.0644  151.2070 LP  0  0  0  0  0  0  0  0  0  0  0  0  # atno 17371 bound_to 10713
  141.2058  133.7851  157.0213 LP  0  0  0  0  0  0  0  0  0  0  0  0  # atno 17394 bound_to 11000
  140.0843  134.9630  157.1674 LP  0  0  0  0  0  0  0  0  0  0  0  0  # atno 17395 bound_to 11000

$$$$
