AV-unprocessed.smi:1005|AV-procd|sdf|4382|dock5
  -GOLD-   22720 2303D 1   1.00000     0.00000
 Structure written by MMmdl.
 58 60  0  0  0  0  0  0  0  0  4 V2000
  152.5003  144.9315  160.1401 C   0  0  0  0  0  0  0  0  0  0  0  0
  152.0983  143.7016  159.3443 C   0  0  0  0  0  0  0  0  0  0  0  0
  151.2385  143.8673  158.2350 C   0  0  0  0  0  0  0  0  0  0  0  0
  150.8910  142.7241  157.5253 C   0  0  0  0  0  0  0  0  0  0  0  0
  150.0774  142.5545  156.4030 N   0  3  0  0  0  0  0  0  0  0  0  0
  150.0386  141.2360  156.0643 C   0  0  0  0  0  0  0  0  0  0  0  0
  150.8185  140.5612  156.9528 N   0  0  0  0  0  0  0  0  0  0  0  0
  151.1270  139.1278  157.0444 C   0  0  0  0  0  0  0  0  0  0  0  0
  149.8789  138.2616  157.3072 C   0  0  2  0  0  0  0  0  0  0  0  0
  149.2679  138.6781  158.5133 O   0  0  0  0  0  0  0  0  0  0  0  0
  150.2282  136.7639  157.4146 C   0  0  0  0  0  0  0  0  0  0  0  0
  150.3800  136.1215  156.0807 N   0  3  1  0  0  0  0  0  0  0  0  0
  151.1644  134.8602  156.0842 C   0  0  0  0  0  0  0  0  0  0  0  0
  150.3192  133.6707  156.5769 C   0  0  0  0  0  0  0  0  0  0  0  0
  149.1326  133.5684  155.7994 O   0  0  0  0  0  0  0  0  0  0  0  0
  148.3083  134.7255  155.8994 C   0  0  2  0  0  0  0  0  0  0  0  0
  147.0313  134.4662  155.0781 C   0  0  0  0  0  0  0  0  0  0  0  0
  147.3108  134.2400  153.6365 N   0  3  0  0  0  0  0  0  0  0  0  0
  147.9881  132.9510  153.3645 C   0  0  0  0  0  0  0  0  0  0  0  0
  146.1003  134.4027  152.8013 C   0  0  0  0  0  0  0  0  0  0  0  0
  149.0991  135.9347  155.3548 C   0  0  0  0  0  0  0  0  0  0  0  0
  151.3668  141.4485  157.8852 C   0  0  0  0  0  0  0  0  0  0  0  0
  152.2115  141.2664  158.9774 C   0  0  0  0  0  0  0  0  0  0  0  0
  152.5783  142.4174  159.7110 C   0  0  0  0  0  0  0  0  0  0  0  0
  153.5027  142.2514  160.9052 C   0  0  0  0  0  0  0  0  0  0  0  0
  152.0629  145.8385  159.7216 H   0  0  0  0  0  0  0  0  0  0  0  0
  153.5838  145.0527  160.1371 H   0  0  0  0  0  0  0  0  0  0  0  0
  152.1638  144.8454  161.1736 H   0  0  0  0  0  0  0  0  0  0  0  0
  150.8687  144.8417  157.9507 H   0  0  0  0  0  0  0  0  0  0  0  0
  149.4911  140.8056  155.2381 H   0  0  0  0  0  0  0  0  0  0  0  0
  151.6251  138.8265  156.1218 H   0  0  0  0  0  0  0  0  0  0  0  0
  151.8559  138.9996  157.8461 H   0  0  0  0  0  0  0  0  0  0  0  0
  149.1661  138.4237  156.4998 H   0  0  0  0  0  0  0  0  0  0  0  0
  148.8717  137.9278  158.9300 H   0  0  0  0  0  0  0  0  0  0  0  0
  151.1408  136.6301  157.9955 H   0  0  0  0  0  0  0  0  0  0  0  0
  149.4389  136.2653  157.9793 H   0  0  0  0  0  0  0  0  0  0  0  0
  151.4928  134.6645  155.0626 H   0  0  0  0  0  0  0  0  0  0  0  0
  152.0711  134.9568  156.6800 H   0  0  0  0  0  0  0  0  0  0  0  0
  150.8850  132.7447  156.4733 H   0  0  0  0  0  0  0  0  0  0  0  0
  150.0692  133.7666  157.6340 H   0  0  0  0  0  0  0  0  0  0  0  0
  148.0501  134.9046  156.9434 H   0  0  0  0  0  0  0  0  0  0  0  0
  146.4829  133.6116  155.4779 H   0  0  0  0  0  0  0  0  0  0  0  0
  146.3734  135.3295  155.1906 H   0  0  0  0  0  0  0  0  0  0  0  0
  147.3635  132.1096  153.6679 H   0  0  0  0  0  0  0  0  0  0  0  0
  148.9389  132.8780  153.8909 H   0  0  0  0  0  0  0  0  0  0  0  0
  148.2000  132.8472  152.2996 H   0  0  0  0  0  0  0  0  0  0  0  0
  145.3430  133.6619  153.0607 H   0  0  0  0  0  0  0  0  0  0  0  0
  146.3418  134.2898  151.7438 H   0  0  0  0  0  0  0  0  0  0  0  0
  145.6687  135.3954  152.9339 H   0  0  0  0  0  0  0  0  0  0  0  0
  148.5008  136.8454  155.3986 H   0  0  0  0  0  0  0  0  0  0  0  0
  149.3286  135.7741  154.3003 H   0  0  0  0  0  0  0  0  0  0  0  0
  152.5763  140.2896  159.2568 H   0  0  0  0  0  0  0  0  0  0  0  0
  153.7664  141.2053  161.0640 H   0  0  0  0  0  0  0  0  0  0  0  0
  153.0243  142.6152  161.8147 H   0  0  0  0  0  0  0  0  0  0  0  0
  154.4276  142.8084  160.7530 H   0  0  0  0  0  0  0  0  0  0  0  0
  147.9436  134.9726  153.3469 H   0  0  0  0  0  0  0  0  0  0  0  0
  150.9092  136.7881  155.5352 H   0  0  0  0  0  0  0  0  0  0  0  0
  149.5844  143.2831  155.9025 H   0  0  0  0  0  0  0  0  0  0  0  0
  1  2  1  0  0  0  0
  1 26  1  0  0  0  0
  1 27  1  0  0  0  0
  1 28  1  0  0  0  0
  2 24  1  0  0  0  0
  2  3  2  0  0  0  0
  3  4  1  0  0  0  0
  3 29  1  0  0  0  0
  4 22  2  0  0  0  0
  4  5  1  0  0  0  0
  5  6  2  0  0  0  0
  5 58  1  0  0  0  0
  6  7  1  0  0  0  0
  6 30  1  0  0  0  0
  7  8  1  0  0  0  0
  7 22  1  0  0  0  0
  8  9  1  0  0  0  0
  8 31  1  0  0  0  0
  8 32  1  0  0  0  0
  9 10  1  0  0  0  0
  9 11  1  0  0  0  0
  9 33  1  0  0  0  0
 10 34  1  0  0  0  0
 11 12  1  0  0  0  0
 11 35  1  0  0  0  0
 11 36  1  0  0  0  0
 12 21  1  0  0  0  0
 12 13  1  0  0  0  0
 12 57  1  0  0  0  0
 13 14  1  0  0  0  0
 13 37  1  0  0  0  0
 13 38  1  0  0  0  0
 14 15  1  0  0  0  0
 14 39  1  0  0  0  0
 14 40  1  0  0  0  0
 15 16  1  0  0  0  0
 16 17  1  0  0  0  0
 16 21  1  0  0  0  0
 16 41  1  0  0  0  0
 17 18  1  0  0  0  0
 17 42  1  0  0  0  0
 17 43  1  0  0  0  0
 18 19  1  0  0  0  0
 18 20  1  0  0  0  0
 18 56  1  0  0  0  0
 19 44  1  0  0  0  0
 19 45  1  0  0  0  0
 19 46  1  0  0  0  0
 20 47  1  0  0  0  0
 20 48  1  0  0  0  0
 20 49  1  0  0  0  0
 21 50  1  0  0  0  0
 21 51  1  0  0  0  0
 22 23  1  0  0  0  0
 23 24  2  0  0  0  0
 23 52  1  0  0  0  0
 24 25  1  0  0  0  0
 25 53  1  0  0  0  0
 25 54  1  0  0  0  0
 25 55  1  0  0  0  0
M  CHG  1   5   1
M  CHG  1  12   1
M  CHG  1  18   1
M  END
> <s_m_source_file>
AV-unprocessed.smi

> <i_m_source_file_index>
1005

> <i_lp_mmshare_version>
43012

> <i_f3d_flags>
0

> <s_epik_input>
W0NIM11jKFtjSF0xKWMoW0NIM10pW2NIXWMoYzEyKW4oW2NIXW4yKVtDSDJdW0NASF0oW09IXSlbQ0gyXU4zW0NIMl1bQ0gyXU9bQ0BIXShbQ0gyXTMpW0NIMl1OKFtDSDNdKVtDSDNd

> <s_epik_cmdline>
J2VwaWtfcHl0aG9uJywgJy1waCcsICc3LjAnLCAnLXRuJywgJzgnLCAnLW1hJywgJzIwMCcsICctbWV0YWxfYmluZGluZycsICctaW1hZScsICc8aW5maWxlLm1hZT4nLCAnLW9tYWUnLCAnPG91dGZpbGUubWFlPic=

> <r_epik_Ionization_Penalty>
2.30802

> <r_epik_Ionization_Penalty_Charging>
2.30798

> <r_epik_Ionization_Penalty_Neutral>
3.4851e-05

> <r_epik_State_Penalty>
2.52618

> <r_epik_Charging_Adjusted_Penalty>
4.83416

> <i_epik_Tot_Q>
3

> <i_epik_Tot_abs_Q>
3

> <r_epik_Metal_State_Penalty>
6.53149

> <b_epik_Metal_Only>
0

> <s_lp_Force_Field>
OPLS_2005

> <r_lp_Energy>
46.1367

> <b_lp_Chiralities_Consistent>
1

> <s_lp_Variant>
AV-unprocessed.smi:1005-21

> <Gold.Version>
5.8.1

> <Gold.Id.Protein>
6NUR|6NUR_protein|mol2

> <Gold.PLP.Fitness>
52.0285

> <Gold.PLP.PLP>
-40.8282

> <Gold.PLP.part.hbond>
-2.0000

> <Gold.PLP.part.metal>
0.0000

> <Gold.PLP.part.buried>
-5.0044

> <Gold.PLP.part.nonpolar>
-34.0989

> <Gold.PLP.part.repulsive>
0.1945

> <Gold.PLP.ligand.clash>
0.0000

> <Gold.PLP.ligand.torsion>
0.4548

> <Gold.PLP.Chemscore.Hbond>
3.9840

> <Gold.PLP.Chemscore.CHOScore>
0.0000

> <Gold.PLP.Chemscore.Metal>
0.0000

> <Gold.Chemscore.Hbonds>
donor molecule, donor type, donor heavy atom, donor atom, acceptor molecule, acceptor atom, score
      L1  H     5    58       P1  8028  2.00
      L1  H    18    56       P1  7948  1.30

> <Gold.PLP.Chemscore.Internal.Correction>
0.1580

> <Gold.Rescore>
     Score         DG    S(hbond)    S(metal)    S(lipo)     H(rot)  DE(clash)    DE(int)     intcor
     16.58     -18.60       1.89        0.00     114.02       2.56       0.20       1.82       ----

> <Gold.Chemscore.Fitness>
16.5752

> <Gold.Chemscore.DG>
-18.5968

> <Gold.Chemscore.ZeroCoef>
-5.4800

> <Gold.Chemscore.Hbond>
1.8927

> <Gold.Chemscore.Metal>
0.0000

> <Gold.Chemscore.Lipo>
114.0188

> <Gold.Chemscore.Internal_Hbond>
0.0000

> <Gold.Chemscore.DEClash>
0.1971

> <Gold.Chemscore.DEInternal>
1.8246

> <Gold.Chemscore.Rot>
2.5566

> <Gold.Chemscore.Internal.Correction>
   9.000000E+99

> <Gold.Chemscore.Hbonds>
donor molecule, donor type, donor heavy atom, donor atom, acceptor molecule, acceptor atom, score
      L1  H     5    58       P1  8028  0.98
      L1  H    18    56       P1  7948  0.62

> <Gold.Chemscore.Hbond.Weighted>
-6.3216

> <Gold.Chemscore.Metal.Weighted>
-0.0000

> <Gold.Chemscore.Lipo.Weighted>
-13.3402

> <Gold.Chemscore.Internal_Hbond.Weighted>
0.0000

> <Gold.Chemscore.DEClash.Weighted>
0.1971

> <Gold.Chemscore.DEInternal.Weighted>
1.8246

> <Gold.Chemscore.Rot.Weighted>
6.5450

> <Gold.Chemscore.Internal.Correction.Weighted>
   9.000000E+99

> <Gold.Protein.RotatedTorsions>
[ 6907 6896 6895 6894 ] final  -53.57 input  -60.11 | X-H torsion
[ 7974 7965 7964 7962 ] final  -92.12 input  175.53 | X-H torsion
[ 8008 7997 7996 7995 ] final  109.30 input   59.86 | X-H torsion
[ 10167 10162 10161 10158 ] final -101.88 input  -65.29 | X-H torsion
[ 10718 10713 10712 10709 ] final  124.25 input   66.30 | X-H torsion
[ 10763 10752 10751 10750 ] final  170.79 input  -60.55 | X-H torsion
[ 11005 11000 10999 10996 ] final   17.88 input  -57.11 | X-H torsion

> <Gold.Protein.ActiveResidues>
 VAL166  LYS551  ARG553  GLY616  TRP617  ASP618  TYR619  PRO620  LYS621  CYS622 
 ASP623  PHE694  ASN695  SER759  ASP760  ASP761  ALA762  ILE779  LEU786  VAL792 
 PHE793  MET794  SER795  GLU796  ALA797  LYS798  CYS799  TRP800  GLU811  SER814 

> <Gold.Protein.RotatedAtoms>
  150.8415  134.7708  159.6935 H   0  0  0  0  0  0  0  0  0  0  0  0  # atno 6907 bound_to 6896
  152.4501  134.5408  159.9848 H   0  0  0  0  0  0  0  0  0  0  0  0  # atno 6908 bound_to 6896
  151.5547  133.3374  159.2995 H   0  0  0  0  0  0  0  0  0  0  0  0  # atno 6909 bound_to 6896
  145.4040  140.9540  143.2271 H   0  0  0  0  0  0  0  0  0  0  0  0  # atno 7974 bound_to 7965
  156.1969  140.3060  155.9446 H   0  0  0  0  0  0  0  0  0  0  0  0  # atno 8008 bound_to 7997
  155.3045  140.0448  157.3048 H   0  0  0  0  0  0  0  0  0  0  0  0  # atno 8009 bound_to 7997
  154.5521  140.2294  155.8478 H   0  0  0  0  0  0  0  0  0  0  0  0  # atno 8010 bound_to 7997
  140.2366  143.3568  152.0839 H   0  0  0  0  0  0  0  0  0  0  0  0  # atno 10167 bound_to 10162
  157.5600  131.1090  150.8555 H   0  0  0  0  0  0  0  0  0  0  0  0  # atno 10718 bound_to 10713
  154.4026  135.2755  155.2087 H   0  0  0  0  0  0  0  0  0  0  0  0  # atno 10763 bound_to 10752
  154.4106  135.6023  153.5954 H   0  0  0  0  0  0  0  0  0  0  0  0  # atno 10764 bound_to 10752
  152.9831  135.5948  154.4296 H   0  0  0  0  0  0  0  0  0  0  0  0  # atno 10765 bound_to 10752
  140.4310  134.1420  155.7680 H   0  0  0  0  0  0  0  0  0  0  0  0  # atno 11005 bound_to 11000
  144.8354  139.5559  143.6924 LP  0  0  0  0  0  0  0  0  0  0  0  0  # atno 17320 bound_to 7965
  146.2738  139.6700  142.9277 LP  0  0  0  0  0  0  0  0  0  0  0  0  # atno 17321 bound_to 7965
  139.5091  144.6862  151.5880 LP  0  0  0  0  0  0  0  0  0  0  0  0  # atno 17342 bound_to 10162
  140.6145  143.9374  150.6478 LP  0  0  0  0  0  0  0  0  0  0  0  0  # atno 17343 bound_to 10162
  156.9056  130.5262  149.5281 LP  0  0  0  0  0  0  0  0  0  0  0  0  # atno 17370 bound_to 10713
  156.0654  130.5698  150.9277 LP  0  0  0  0  0  0  0  0  0  0  0  0  # atno 17371 bound_to 10713
  141.1745  133.8541  157.1464 LP  0  0  0  0  0  0  0  0  0  0  0  0  # atno 17394 bound_to 11000
  140.0134  134.9978  157.0443 LP  0  0  0  0  0  0  0  0  0  0  0  0  # atno 17395 bound_to 11000

$$$$
