AV-unprocessed.smi:2302|AV-procd|sdf|9237|dock2
  -GOLD-   2272012453D 1   1.00000     0.00000
 Structure written by MMmdl.
 40 41  0  0  0  0  0  0  0  0  2 V2000
  153.8228  140.9537  159.8554 C   0  0  0  0  0  0  0  0  0  0  0  0
  153.0310  142.1667  159.4138 C   0  0  0  0  0  0  0  0  0  0  0  0
  153.2318  143.4218  160.0205 C   0  0  0  0  0  0  0  0  0  0  0  0
  152.4623  144.5080  159.5670 C   0  0  0  0  0  0  0  0  0  0  0  0
  151.5285  144.2954  158.5345 C   0  0  0  0  0  0  0  0  0  0  0  0
  151.3867  143.0032  157.9807 C   0  0  0  0  0  0  0  0  0  0  0  0
  150.4183  142.8927  156.9473 N   0  0  0  0  0  0  0  0  0  0  0  0
  150.3236  141.9464  155.9968 C   0  0  0  0  0  0  0  0  0  0  0  0
  151.0888  140.9909  155.8615 O   0  0  0  0  0  0  0  0  0  0  0  0
  149.2751  142.1666  155.1905 N   0  0  0  0  0  0  0  0  0  0  0  0
  148.8906  141.3117  154.0721 C   0  0  0  0  0  0  0  0  0  0  0  0
  148.1630  140.0390  154.5412 C   0  0  1  0  0  0  0  0  0  0  0  0
  148.1362  138.9578  153.4397 C   0  0  0  0  0  0  0  0  0  0  0  0
  147.5263  137.6974  153.9278 N   0  3  2  0  0  0  0  0  0  0  0  0
  146.0465  137.7335  153.9877 C   0  0  0  0  0  0  0  0  0  0  0  0
  148.1637  137.2484  155.1882 C   0  0  0  0  0  0  0  0  0  0  0  0
  148.2044  138.3813  156.2305 C   0  0  0  0  0  0  0  0  0  0  0  0
  148.8525  139.5190  155.6744 O   0  0  0  0  0  0  0  0  0  0  0  0
  152.1354  141.9624  158.4238 N   0  0  0  0  0  0  0  0  0  0  0  0
  154.7065  141.2468  160.4231 H   0  0  0  0  0  0  0  0  0  0  0  0
  154.1528  140.3738  158.9928 H   0  0  0  0  0  0  0  0  0  0  0  0
  153.2072  140.3121  160.4862 H   0  0  0  0  0  0  0  0  0  0  0  0
  153.9547  143.5510  160.8128 H   0  0  0  0  0  0  0  0  0  0  0  0
  152.5848  145.4879  160.0041 H   0  0  0  0  0  0  0  0  0  0  0  0
  150.9282  145.1189  158.1759 H   0  0  0  0  0  0  0  0  0  0  0  0
  149.7132  143.6147  156.9355 H   0  0  0  0  0  0  0  0  0  0  0  0
  148.6970  142.9754  155.3665 H   0  0  0  0  0  0  0  0  0  0  0  0
  148.2581  141.8782  153.3864 H   0  0  0  0  0  0  0  0  0  0  0  0
  149.7896  141.0469  153.5148 H   0  0  0  0  0  0  0  0  0  0  0  0
  147.1413  140.2959  154.8250 H   0  0  0  0  0  0  0  0  0  0  0  0
  147.6031  139.3146  152.5575 H   0  0  0  0  0  0  0  0  0  0  0  0
  149.1556  138.7400  153.1181 H   0  0  0  0  0  0  0  0  0  0  0  0
  145.6849  138.4577  154.7176 H   0  0  0  0  0  0  0  0  0  0  0  0
  145.6524  136.7540  154.2595 H   0  0  0  0  0  0  0  0  0  0  0  0
  145.6308  137.9964  153.0145 H   0  0  0  0  0  0  0  0  0  0  0  0
  147.6487  136.3726  155.5852 H   0  0  0  0  0  0  0  0  0  0  0  0
  149.1827  136.9320  154.9613 H   0  0  0  0  0  0  0  0  0  0  0  0
  147.2024  138.6465  156.5704 H   0  0  0  0  0  0  0  0  0  0  0  0
  148.7592  138.0578  157.1114 H   0  0  0  0  0  0  0  0  0  0  0  0
  147.7427  136.9937  153.2359 H   0  0  0  0  0  0  0  0  0  0  0  0
  1  2  1  0  0  0  0
  1 20  1  0  0  0  0
  1 21  1  0  0  0  0
  1 22  1  0  0  0  0
  2 19  1  0  0  0  0
  2  3  2  0  0  0  0
  3  4  1  0  0  0  0
  3 23  1  0  0  0  0
  4  5  2  0  0  0  0
  4 24  1  0  0  0  0
  5  6  1  0  0  0  0
  5 25  1  0  0  0  0
  6  7  1  0  0  0  0
  6 19  2  0  0  0  0
  7  8  1  0  0  0  0
  7 26  1  0  0  0  0
  8  9  2  0  0  0  0
  8 10  1  0  0  0  0
 10 11  1  0  0  0  0
 10 27  1  0  0  0  0
 11 12  1  0  0  0  0
 11 28  1  0  0  0  0
 11 29  1  0  0  0  0
 12 18  1  0  0  0  0
 12 13  1  0  0  0  0
 12 30  1  0  0  0  0
 13 14  1  0  0  0  0
 13 31  1  0  0  0  0
 13 32  1  0  0  0  0
 14 15  1  0  0  0  0
 14 16  1  0  0  0  0
 14 40  1  0  0  0  0
 15 33  1  0  0  0  0
 15 34  1  0  0  0  0
 15 35  1  0  0  0  0
 16 17  1  0  0  0  0
 16 36  1  0  0  0  0
 16 37  1  0  0  0  0
 17 18  1  0  0  0  0
 17 38  1  0  0  0  0
 17 39  1  0  0  0  0
M  CHG  1  14   1
M  END
> <s_m_source_file>
AV-unprocessed.smi

> <i_m_source_file_index>
2302

> <i_lp_mmshare_version>
43012

> <i_f3d_flags>
0

> <s_epik_input>
W0NIM11jMVtjSF1bY0hdW2NIXWMobjEpW05IXUMoPU8pW05IXVtDSDJdW0NAQEhdMltDSDJdTihbQ0gzXSlbQ0gyXVtDSDJdTzI=

> <s_epik_cmdline>
J2VwaWtfcHl0aG9uJywgJy1waCcsICc3LjAnLCAnLXRuJywgJzgnLCAnLW1hJywgJzIwMCcsICctbWV0YWxfYmluZGluZycsICctaW1hZScsICc8aW5maWxlLm1hZT4nLCAnLW9tYWUnLCAnPG91dGZpbGUubWFlPic=

> <r_epik_Ionization_Penalty>
0.204647

> <r_epik_Ionization_Penalty_Charging>
0.204578

> <r_epik_Ionization_Penalty_Neutral>
6.91954e-05

> <r_epik_State_Penalty>
0.194513

> <r_epik_Charging_Adjusted_Penalty>
0.399091

> <i_epik_Tot_Q>
1

> <i_epik_Tot_abs_Q>
1

> <r_epik_Metal_State_Penalty>
0.194515

> <b_epik_Metal_Only>
0

> <s_lp_Force_Field>
OPLS_2005

> <r_lp_Energy>
17.5871

> <b_lp_Chiralities_Consistent>
1

> <s_lp_Variant>
AV-unprocessed.smi:2302-2

> <Gold.Version>
5.8.1

> <Gold.Id.Protein>
6NUR|6NUR_protein|mol2

> <Gold.PLP.Fitness>
42.4143

> <Gold.PLP.PLP>
-31.9300

> <Gold.PLP.part.hbond>
-3.0329

> <Gold.PLP.part.metal>
0.0000

> <Gold.PLP.part.buried>
-0.0209

> <Gold.PLP.part.nonpolar>
-28.6756

> <Gold.PLP.part.repulsive>
0.2729

> <Gold.PLP.ligand.clash>
0.0000

> <Gold.PLP.ligand.torsion>
0.3521

> <Gold.PLP.Chemscore.Hbond>
3.7280

> <Gold.PLP.Chemscore.CHOScore>
0.0000

> <Gold.PLP.Chemscore.Metal>
0.0000

> <Gold.Chemscore.Hbonds>
donor molecule, donor type, donor heavy atom, donor atom, acceptor molecule, acceptor atom, score
      L1  H     7    26       P1  8028  0.77
      L1  H    10    27       P1  8028  0.80
      L1  H    14    40       P1  7948  2.00
      P1  H  7989  7998       L1     9  0.03

> <Gold.PLP.Chemscore.Internal.Correction>
0.0043

> <Gold.Rescore>
     Score         DG    S(hbond)    S(metal)    S(lipo)     H(rot)  DE(clash)    DE(int)     intcor
     15.83     -20.78       2.62        0.00      83.91       1.27       0.72       4.24       ----

> <Gold.Chemscore.Fitness>
15.8253

> <Gold.Chemscore.DG>
-20.7842

> <Gold.Chemscore.ZeroCoef>
-5.4800

> <Gold.Chemscore.Hbond>
2.6187

> <Gold.Chemscore.Metal>
0.0000

> <Gold.Chemscore.Lipo>
83.9134

> <Gold.Chemscore.Internal_Hbond>
0.0000

> <Gold.Chemscore.DEClash>
0.7206

> <Gold.Chemscore.DEInternal>
4.2382

> <Gold.Chemscore.Rot>
1.2736

> <Gold.Chemscore.Internal.Correction>
   9.000000E+99

> <Gold.Chemscore.Hbonds>
donor molecule, donor type, donor heavy atom, donor atom, acceptor molecule, acceptor atom, score
      L1  H     7    26       P1  8028  0.74
      L1  H    10    27       P1  8028  0.80
      L1  H    14    40       P1  7948  0.93
      P1  H  7989  7998       L1     9  0.03

> <Gold.Chemscore.Hbond.Weighted>
-8.7466

> <Gold.Chemscore.Metal.Weighted>
-0.0000

> <Gold.Chemscore.Lipo.Weighted>
-9.8179

> <Gold.Chemscore.Internal_Hbond.Weighted>
0.0000

> <Gold.Chemscore.DEClash.Weighted>
0.7206

> <Gold.Chemscore.DEInternal.Weighted>
4.2382

> <Gold.Chemscore.Rot.Weighted>
3.2603

> <Gold.Chemscore.Internal.Correction.Weighted>
   9.000000E+99

> <Gold.Protein.RotatedTorsions>
[ 6907 6896 6895 6894 ] final  123.25 input  -60.11 | X-H torsion
[ 7974 7965 7964 7962 ] final  -17.35 input  175.53 | X-H torsion
[ 8008 7997 7996 7995 ] final  105.85 input   59.86 | X-H torsion
[ 10167 10162 10161 10158 ] final   53.82 input  -65.29 | X-H torsion
[ 10718 10713 10712 10709 ] final   60.94 input   66.30 | X-H torsion
[ 10763 10752 10751 10750 ] final -178.13 input  -60.55 | X-H torsion
[ 11005 11000 10999 10996 ] final   94.17 input  -57.11 | X-H torsion

> <Gold.Protein.ActiveResidues>
 VAL166  LYS551  ARG553  GLY616  TRP617  ASP618  TYR619  PRO620  LYS621  CYS622 
 ASP623  PHE694  ASN695  SER759  ASP760  ASP761  ALA762  ILE779  LEU786  VAL792 
 PHE793  MET794  SER795  GLU796  ALA797  LYS798  CYS799  TRP800  GLU811  SER814 

> <Gold.Protein.RotatedAtoms>
  152.4177  133.7064  159.6453 H   0  0  0  0  0  0  0  0  0  0  0  0  # atno 6907 bound_to 6896
  150.8053  133.8510  159.3214 H   0  0  0  0  0  0  0  0  0  0  0  0  # atno 6908 bound_to 6896
  151.6236  135.1031  160.0158 H   0  0  0  0  0  0  0  0  0  0  0  0  # atno 6909 bound_to 6896
  146.1945  140.3766  142.8446 H   0  0  0  0  0  0  0  0  0  0  0  0  # atno 7974 bound_to 7965
  156.1694  140.3123  155.8947 H   0  0  0  0  0  0  0  0  0  0  0  0  # atno 8008 bound_to 7997
  155.3618  140.0477  157.3063 H   0  0  0  0  0  0  0  0  0  0  0  0  # atno 8009 bound_to 7997
  154.5225  140.2203  155.8959 H   0  0  0  0  0  0  0  0  0  0  0  0  # atno 8010 bound_to 7997
  140.2367  144.3628  150.6395 H   0  0  0  0  0  0  0  0  0  0  0  0  # atno 10167 bound_to 10162
  157.5791  130.8967  149.9399 H   0  0  0  0  0  0  0  0  0  0  0  0  # atno 10718 bound_to 10713
  154.5516  135.2813  155.1003 H   0  0  0  0  0  0  0  0  0  0  0  0  # atno 10763 bound_to 10752
  154.2447  135.6350  153.5223 H   0  0  0  0  0  0  0  0  0  0  0  0  # atno 10764 bound_to 10752
  153.0004  135.5568  154.6083 H   0  0  0  0  0  0  0  0  0  0  0  0  # atno 10765 bound_to 10752
  139.8801  134.8831  156.3825 H   0  0  0  0  0  0  0  0  0  0  0  0  # atno 11005 bound_to 11000
  144.8552  140.7060  143.6142 LP  0  0  0  0  0  0  0  0  0  0  0  0  # atno 17320 bound_to 7965
  145.3687  139.1664  143.4343 LP  0  0  0  0  0  0  0  0  0  0  0  0  # atno 17321 bound_to 7965
  140.6145  143.2171  151.6820 LP  0  0  0  0  0  0  0  0  0  0  0  0  # atno 17342 bound_to 10162
  139.5091  144.3587  152.0583 LP  0  0  0  0  0  0  0  0  0  0  0  0  # atno 17343 bound_to 10162
  156.0836  130.3670  150.0531 LP  0  0  0  0  0  0  0  0  0  0  0  0  # atno 17370 bound_to 10713
  156.8673  130.9512  151.3612 LP  0  0  0  0  0  0  0  0  0  0  0  0  # atno 17371 bound_to 10713
  140.9389  133.7528  156.0120 LP  0  0  0  0  0  0  0  0  0  0  0  0  # atno 17394 bound_to 11000
  140.8243  134.3252  157.5371 LP  0  0  0  0  0  0  0  0  0  0  0  0  # atno 17395 bound_to 11000

$$$$
