AV-unprocessed.smi:1023|AV-procd|sdf|4463|dock3
  -GOLD-   22720 2433D 1   1.00000     0.00000
 Structure written by MMmdl.
 31 32  0  0  0  0  0  0  0  0  2 V2000
  152.8603  143.0708  160.7788 C   0  0  0  0  0  0  0  0  0  0  0  0
  152.6431  143.1957  159.2638 C   0  0  0  0  0  0  0  0  0  0  0  0
  152.4254  144.6663  158.8639 C   0  0  0  0  0  0  0  0  0  0  0  0
  151.4919  142.2820  158.7999 C   0  0  0  0  0  0  0  0  0  0  0  0
  151.8710  141.5129  157.6222 N   0  0  0  0  0  0  0  0  0  0  0  0
  152.1821  140.2038  157.5996 C   0  0  0  0  0  0  0  0  0  0  0  0
  152.1872  139.5762  158.6578 O   0  0  0  0  0  0  0  0  0  0  0  0
  152.4735  139.6438  156.3956 N   0  5  0  0  0  0  0  0  0  0  0  0
  151.9399  138.4738  155.9972 C   0  0  0  0  0  0  0  0  0  0  0  0
  152.2918  137.8739  154.8513 N   0  0  0  0  0  0  0  0  0  0  0  0
  151.6014  136.6931  154.6209 N   0  0  0  0  0  0  0  0  0  0  0  0
  150.7440  136.4104  155.6044 C   0  0  0  0  0  0  0  0  0  0  0  0
  149.8762  135.1969  155.5837 C   0  0  0  0  0  0  0  0  0  0  0  0
  150.4791  133.8161  155.7014 C   0  0  0  0  0  0  0  0  0  0  0  0
  149.8571  134.2543  154.4001 C   0  0  0  0  0  0  0  0  0  0  0  0
  150.7255  137.5818  156.9130 S   0  0  0  0  0  0  0  0  0  0  0  0
  151.9826  143.4040  161.3334 H   0  0  0  0  0  0  0  0  0  0  0  0
  153.7090  143.6724  161.1055 H   0  0  0  0  0  0  0  0  0  0  0  0
  153.0614  142.0377  161.0633 H   0  0  0  0  0  0  0  0  0  0  0  0
  153.5564  142.8540  158.7747 H   0  0  0  0  0  0  0  0  0  0  0  0
  151.5073  145.0618  159.2991 H   0  0  0  0  0  0  0  0  0  0  0  0
  152.3588  144.7852  157.7819 H   0  0  0  0  0  0  0  0  0  0  0  0
  153.2510  145.2911  159.2051 H   0  0  0  0  0  0  0  0  0  0  0  0
  151.2163  141.5932  159.6000 H   0  0  0  0  0  0  0  0  0  0  0  0
  150.6069  142.8772  158.5698 H   0  0  0  0  0  0  0  0  0  0  0  0
  151.8853  142.0087  156.7431 H   0  0  0  0  0  0  0  0  0  0  0  0
  148.9366  135.3883  156.0983 H   0  0  0  0  0  0  0  0  0  0  0  0
  151.5641  133.7394  155.7373 H   0  0  0  0  0  0  0  0  0  0  0  0
  149.9390  133.0823  156.2963 H   0  0  0  0  0  0  0  0  0  0  0  0
  148.9009  133.8134  154.1264 H   0  0  0  0  0  0  0  0  0  0  0  0
  150.5320  134.4535  153.5701 H   0  0  0  0  0  0  0  0  0  0  0  0
  1  2  1  0  0  0  0
  1 17  1  0  0  0  0
  1 18  1  0  0  0  0
  1 19  1  0  0  0  0
  2  3  1  0  0  0  0
  2  4  1  0  0  0  0
  2 20  1  0  0  0  0
  3 21  1  0  0  0  0
  3 22  1  0  0  0  0
  3 23  1  0  0  0  0
  4  5  1  0  0  0  0
  4 24  1  0  0  0  0
  4 25  1  0  0  0  0
  5  6  1  0  0  0  0
  5 26  1  0  0  0  0
  6  7  2  0  0  0  0
  6  8  1  0  0  0  0
  8  9  1  0  0  0  0
  9 16  1  0  0  0  0
  9 10  2  0  0  0  0
 10 11  1  0  0  0  0
 11 12  2  0  0  0  0
 12 13  1  0  0  0  0
 12 16  1  0  0  0  0
 13 15  1  0  0  0  0
 13 14  1  0  0  0  0
 13 27  1  0  0  0  0
 14 15  1  0  0  0  0
 14 28  1  0  0  0  0
 14 29  1  0  0  0  0
 15 30  1  0  0  0  0
 15 31  1  0  0  0  0
M  CHG  1   8  -1
M  END
> <s_m_source_file>
AV-unprocessed.smi

> <i_m_source_file_index>
1023

> <i_lp_mmshare_version>
43012

> <i_f3d_flags>
0

> <s_epik_input>
W0NIM11bQ0hdKFtDSDNdKVtDSDJdW05IXUMoPU8pW05IXWMxbm5jKHMxKVtDSF0yW0NIMl1bQ0gyXTI=

> <s_epik_cmdline>
J2VwaWtfcHl0aG9uJywgJy1waCcsICc3LjAnLCAnLXRuJywgJzgnLCAnLW1hJywgJzIwMCcsICctbWV0YWxfYmluZGluZycsICctaW1hZScsICc8aW5maWxlLm1hZT4nLCAnLW9tYWUnLCAnPG91dGZpbGUubWFlPic=

> <r_lp_tautomer_probability>
1

> <r_epik_Ionization_Penalty>
3.99087

> <r_epik_Ionization_Penalty_Charging>
3.83446

> <r_epik_Ionization_Penalty_Neutral>
0.156418

> <r_epik_State_Penalty>
3.83354

> <r_epik_Charging_Adjusted_Penalty>
7.668

> <i_epik_Tot_Q>
-1

> <i_epik_Tot_abs_Q>
1

> <r_epik_Metal_State_Penalty>
0.575872

> <b_epik_Metal_Only>
1

> <s_lp_Force_Field>
OPLS_2005

> <r_lp_Energy>
2.18617

> <b_lp_Chiralities_Consistent>
1

> <s_lp_Variant>
AV-unprocessed.smi:1023-2

> <Gold.Version>
5.8.1

> <Gold.Id.Protein>
6NUR|6NUR_protein|mol2

> <Gold.PLP.Fitness>
35.9102

> <Gold.PLP.PLP>
-29.1358

> <Gold.PLP.part.hbond>
-2.7366

> <Gold.PLP.part.metal>
0.0000

> <Gold.PLP.part.buried>
-4.2519

> <Gold.PLP.part.nonpolar>
-22.0716

> <Gold.PLP.part.repulsive>
0.2898

> <Gold.PLP.ligand.clash>
0.0000

> <Gold.PLP.ligand.torsion>
1.2066

> <Gold.PLP.Chemscore.Hbond>
3.0000

> <Gold.PLP.Chemscore.CHOScore>
0.0000

> <Gold.PLP.Chemscore.Metal>
0.0000

> <Gold.Chemscore.Hbonds>
donor molecule, donor type, donor heavy atom, donor atom, acceptor molecule, acceptor atom, score
      P1  H  7997  8009       L1     8  2.00
      P1  H 10752 10765       L1    11  0.95

> <Gold.PLP.Chemscore.Internal.Correction>
0.1877

> <Gold.Rescore>
     Score         DG    S(hbond)    S(metal)    S(lipo)     H(rot)  DE(clash)    DE(int)     intcor
     13.87     -15.32       1.55        0.00      70.19       1.39       0.08       1.36       ----

> <Gold.Chemscore.Fitness>
13.8687

> <Gold.Chemscore.DG>
-15.3157

> <Gold.Chemscore.ZeroCoef>
-5.4800

> <Gold.Chemscore.Hbond>
1.5524

> <Gold.Chemscore.Metal>
0.0000

> <Gold.Chemscore.Lipo>
70.1865

> <Gold.Chemscore.Internal_Hbond>
0.0000

> <Gold.Chemscore.DEClash>
0.0830

> <Gold.Chemscore.DEInternal>
1.3640

> <Gold.Chemscore.Rot>
1.3911

> <Gold.Chemscore.Internal.Correction>
   9.000000E+99

> <Gold.Chemscore.Hbonds>
donor molecule, donor type, donor heavy atom, donor atom, acceptor molecule, acceptor atom, score
      P1  H  7997  8009       L1     8  0.36
      P1  H 10752 10765       L1    11  0.18

> <Gold.Chemscore.Hbond.Weighted>
-5.1850

> <Gold.Chemscore.Metal.Weighted>
-0.0000

> <Gold.Chemscore.Lipo.Weighted>
-8.2118

> <Gold.Chemscore.Internal_Hbond.Weighted>
0.0000

> <Gold.Chemscore.DEClash.Weighted>
0.0830

> <Gold.Chemscore.DEInternal.Weighted>
1.3640

> <Gold.Chemscore.Rot.Weighted>
3.5612

> <Gold.Chemscore.Internal.Correction.Weighted>
   9.000000E+99

> <Gold.Protein.RotatedTorsions>
[ 6907 6896 6895 6894 ] final  105.92 input  -60.11 | X-H torsion
[ 7974 7965 7964 7962 ] final   48.63 input  175.53 | X-H torsion
[ 8008 7997 7996 7995 ] final -146.02 input   59.86 | X-H torsion
[ 10167 10162 10161 10158 ] final  166.18 input  -65.29 | X-H torsion
[ 10718 10713 10712 10709 ] final  112.15 input   66.30 | X-H torsion
[ 10763 10752 10751 10750 ] final  177.87 input  -60.55 | X-H torsion
[ 11005 11000 10999 10996 ] final -151.79 input  -57.11 | X-H torsion

> <Gold.Protein.ActiveResidues>
 VAL166  LYS551  ARG553  GLY616  TRP617  ASP618  TYR619  PRO620  LYS621  CYS622 
 ASP623  PHE694  ASN695  SER759  ASP760  ASP761  ALA762  ILE779  LEU786  VAL792 
 PHE793  MET794  SER795  GLU796  ALA797  LYS798  CYS799  TRP800  GLU811  SER814 

> <Gold.Protein.RotatedAtoms>
  152.5213  133.9458  159.7647 H   0  0  0  0  0  0  0  0  0  0  0  0  # atno 6907 bound_to 6896
  150.9778  133.6268  159.2734 H   0  0  0  0  0  0  0  0  0  0  0  0  # atno 6908 bound_to 6896
  151.3456  135.0879  159.9439 H   0  0  0  0  0  0  0  0  0  0  0  0  # atno 6909 bound_to 6896
  146.0186  139.4625  142.9911 H   0  0  0  0  0  0  0  0  0  0  0  0  # atno 7974 bound_to 7965
  155.5526  140.0618  157.2846 H   0  0  0  0  0  0  0  0  0  0  0  0  # atno 8008 bound_to 7997
  154.4416  140.1900  156.0746 H   0  0  0  0  0  0  0  0  0  0  0  0  # atno 8009 bound_to 7997
  156.0505  140.3285  155.7350 H   0  0  0  0  0  0  0  0  0  0  0  0  # atno 8010 bound_to 7997
  139.4919  144.4055  151.9360 H   0  0  0  0  0  0  0  0  0  0  0  0  # atno 10167 bound_to 10162
  157.6407  131.0963  150.6854 H   0  0  0  0  0  0  0  0  0  0  0  0  # atno 10718 bound_to 10713
  154.5002  135.2783  155.1426 H   0  0  0  0  0  0  0  0  0  0  0  0  # atno 10763 bound_to 10752
  154.3063  135.6238  153.5450 H   0  0  0  0  0  0  0  0  0  0  0  0  # atno 10764 bound_to 10752
  152.9901  135.5709  154.5443 H   0  0  0  0  0  0  0  0  0  0  0  0  # atno 10765 bound_to 10752
  140.7258  134.3676  157.5175 H   0  0  0  0  0  0  0  0  0  0  0  0  # atno 11005 bound_to 11000
  145.7229  141.0069  143.1393 LP  0  0  0  0  0  0  0  0  0  0  0  0  # atno 17320 bound_to 7965
  144.6981  139.8892  143.7452 LP  0  0  0  0  0  0  0  0  0  0  0  0  # atno 17321 bound_to 7965
  140.3495  144.3106  150.5952 LP  0  0  0  0  0  0  0  0  0  0  0  0  # atno 17342 bound_to 10162
  140.5497  143.2208  151.7947 LP  0  0  0  0  0  0  0  0  0  0  0  0  # atno 17343 bound_to 10162
  156.7178  130.4671  149.5530 LP  0  0  0  0  0  0  0  0  0  0  0  0  # atno 17370 bound_to 10713
  156.1686  130.6422  151.0809 LP  0  0  0  0  0  0  0  0  0  0  0  0  # atno 17371 bound_to 10713
  139.8837  134.8986  156.2747 LP  0  0  0  0  0  0  0  0  0  0  0  0  # atno 17394 bound_to 11000
  140.9964  133.7178  156.0892 LP  0  0  0  0  0  0  0  0  0  0  0  0  # atno 17395 bound_to 11000

$$$$
