AV-unprocessed.smi:2740|AV-procd|sdf|10555|dock7
  -GOLD-   2272015 03D 1   1.00000     0.00000
 Structure written by MMmdl.
 31 32  0  0  0  0  0  0  0  0  1 V2000
  146.3057  138.7302  152.4206 C   0  0  0  0  0  0  0  0  0  0  0  0
  147.3665  139.3024  153.2988 C   0  0  0  0  0  0  0  0  0  0  0  0
  148.4106  138.6376  153.8955 C   0  0  0  0  0  0  0  0  0  0  0  0
  149.2413  139.4595  154.6611 N   0  0  0  0  0  0  0  0  0  0  0  0
  148.8354  140.7337  154.6483 C   0  0  0  0  0  0  0  0  0  0  0  0
  149.4908  141.7911  155.3326 N   0  0  0  0  0  0  0  0  0  0  0  0
  150.5992  141.7289  156.0911 C   0  0  0  0  0  0  0  0  0  0  0  0
  151.2378  140.7047  156.3343 O   0  0  0  0  0  0  0  0  0  0  0  0
  150.9313  142.9389  156.5643 N   0  0  0  0  0  0  0  0  0  0  0  0
  152.0774  143.2267  157.4213 C   0  0  0  0  0  0  0  0  0  0  0  0
  151.6453  143.6205  158.8441 C   0  0  1  0  0  0  0  0  0  0  0  0
  152.5884  143.1653  159.9587 C   0  0  0  0  0  0  0  0  0  0  0  0
  152.2807  144.1681  161.0465 C   0  0  0  0  0  0  0  0  0  0  0  0
  152.0816  145.4481  160.2405 C   0  0  0  0  0  0  0  0  0  0  0  0
  151.5909  145.0396  158.9657 O   0  0  0  0  0  0  0  0  0  0  0  0
  147.3892  141.0039  153.6883 S   0  0  0  0  0  0  0  0  0  0  0  0
  146.5791  137.7334  152.0737 H   0  0  0  0  0  0  0  0  0  0  0  0
  146.1474  139.3580  151.5434 H   0  0  0  0  0  0  0  0  0  0  0  0
  145.3601  138.6532  152.9573 H   0  0  0  0  0  0  0  0  0  0  0  0
  148.6386  137.5840  153.8279 H   0  0  0  0  0  0  0  0  0  0  0  0
  149.0710  142.7025  155.2253 H   0  0  0  0  0  0  0  0  0  0  0  0
  150.3484  143.7235  156.3124 H   0  0  0  0  0  0  0  0  0  0  0  0
  152.7683  142.3825  157.4512 H   0  0  0  0  0  0  0  0  0  0  0  0
  152.6278  144.0522  156.9693 H   0  0  0  0  0  0  0  0  0  0  0  0
  150.6427  143.2403  159.0467 H   0  0  0  0  0  0  0  0  0  0  0  0
  152.4182  142.1332  160.2666 H   0  0  0  0  0  0  0  0  0  0  0  0
  153.6293  143.2632  159.6474 H   0  0  0  0  0  0  0  0  0  0  0  0
  151.3557  143.8956  161.5563 H   0  0  0  0  0  0  0  0  0  0  0  0
  153.0725  144.2509  161.7915 H   0  0  0  0  0  0  0  0  0  0  0  0
  151.3962  146.1420  160.7277 H   0  0  0  0  0  0  0  0  0  0  0  0
  153.0344  145.9588  160.0963 H   0  0  0  0  0  0  0  0  0  0  0  0
  1  2  1  0  0  0  0
  1 17  1  0  0  0  0
  1 18  1  0  0  0  0
  1 19  1  0  0  0  0
  2 16  1  0  0  0  0
  2  3  2  0  0  0  0
  3  4  1  0  0  0  0
  3 20  1  0  0  0  0
  4  5  2  0  0  0  0
  5  6  1  0  0  0  0
  5 16  1  0  0  0  0
  6  7  1  0  0  0  0
  6 21  1  0  0  0  0
  7  8  2  0  0  0  0
  7  9  1  0  0  0  0
  9 10  1  0  0  0  0
  9 22  1  0  0  0  0
 10 11  1  0  0  0  0
 10 23  1  0  0  0  0
 10 24  1  0  0  0  0
 11 15  1  0  0  0  0
 11 12  1  0  0  0  0
 11 25  1  0  0  0  0
 12 13  1  0  0  0  0
 12 26  1  0  0  0  0
 12 27  1  0  0  0  0
 13 14  1  0  0  0  0
 13 28  1  0  0  0  0
 13 29  1  0  0  0  0
 14 15  1  0  0  0  0
 14 30  1  0  0  0  0
 14 31  1  0  0  0  0
M  END
> <s_m_source_file>
AV-unprocessed.smi

> <i_m_source_file_index>
2740

> <i_lp_mmshare_version>
43012

> <i_f3d_flags>
0

> <s_epik_input>
W0NIM11jMVtjSF1uYyhzMSlbTkhdQyg9TylbTkhdW0NIMl1bQ0BASF0yW0NIMl1bQ0gyXVtDSDJdTzI=

> <s_epik_cmdline>
J2VwaWtfcHl0aG9uJywgJy1waCcsICc3LjAnLCAnLXRuJywgJzgnLCAnLW1hJywgJzIwMCcsICctbWV0YWxfYmluZGluZycsICctaW1hZScsICc8aW5maWxlLm1hZT4nLCAnLW9tYWUnLCAnPG91dGZpbGUubWFlPic=

> <r_lp_tautomer_probability>
0.999

> <r_epik_Ionization_Penalty>
0.000387528

> <r_epik_Ionization_Penalty_Charging>
0

> <r_epik_Ionization_Penalty_Neutral>
0.000387528

> <r_epik_State_Penalty>
0.000177984

> <r_epik_Charging_Adjusted_Penalty>
0.000177984

> <i_epik_Tot_Q>
0

> <i_epik_Tot_abs_Q>
0

> <r_epik_Metal_State_Penalty>
0.00626158

> <b_epik_Metal_Only>
0

> <s_lp_Force_Field>
OPLS_2005

> <r_lp_Energy>
15.3507

> <b_lp_Chiralities_Consistent>
1

> <s_lp_Variant>
AV-unprocessed.smi:2740-2

> <Gold.Version>
5.8.1

> <Gold.Id.Protein>
6NUR|6NUR_protein|mol2

> <Gold.PLP.Fitness>
42.6049

> <Gold.PLP.PLP>
-34.8303

> <Gold.PLP.part.hbond>
-2.6973

> <Gold.PLP.part.metal>
0.0000

> <Gold.PLP.part.buried>
-3.4581

> <Gold.PLP.part.nonpolar>
-28.5914

> <Gold.PLP.part.repulsive>
0.5171

> <Gold.PLP.ligand.clash>
0.0000

> <Gold.PLP.ligand.torsion>
0.5110

> <Gold.PLP.Chemscore.Hbond>
2.0000

> <Gold.PLP.Chemscore.CHOScore>
0.9316

> <Gold.PLP.Chemscore.Metal>
0.0000

> <Gold.Chemscore.Hbonds>
donor molecule, donor type, donor heavy atom, donor atom, acceptor molecule, acceptor atom, score
      L1  H     6    21       P1  8028  0.91
      L1  H     9    22       P1  8028  1.00
      L1  C     3    20       P1  7948  0.97

> <Gold.PLP.Chemscore.Internal.Correction>
0.0016

> <Gold.Rescore>
     Score         DG    S(hbond)    S(metal)    S(lipo)     H(rot)  DE(clash)    DE(int)     intcor
     16.31     -18.75       1.95        0.00      85.44       1.27       0.56       1.88       ----

> <Gold.Chemscore.Fitness>
16.3103

> <Gold.Chemscore.DG>
-18.7542

> <Gold.Chemscore.ZeroCoef>
-5.4800

> <Gold.Chemscore.Hbond>
1.9531

> <Gold.Chemscore.Metal>
0.0000

> <Gold.Chemscore.Lipo>
85.4386

> <Gold.Chemscore.Internal_Hbond>
0.0000

> <Gold.Chemscore.DEClash>
0.5646

> <Gold.Chemscore.DEInternal>
1.8794

> <Gold.Chemscore.Rot>
1.2678

> <Gold.Chemscore.Internal.Correction>
   9.000000E+99

> <Gold.Chemscore.Hbonds>
donor molecule, donor type, donor heavy atom, donor atom, acceptor molecule, acceptor atom, score
      L1  H     6    21       P1  8028  0.86
      L1  H     9    22       P1  8028  1.00

> <Gold.Chemscore.Hbond.Weighted>
-6.5234

> <Gold.Chemscore.Metal.Weighted>
-0.0000

> <Gold.Chemscore.Lipo.Weighted>
-9.9963

> <Gold.Chemscore.Internal_Hbond.Weighted>
0.0000

> <Gold.Chemscore.DEClash.Weighted>
0.5646

> <Gold.Chemscore.DEInternal.Weighted>
1.8794

> <Gold.Chemscore.Rot.Weighted>
3.2455

> <Gold.Chemscore.Internal.Correction.Weighted>
   9.000000E+99

> <Gold.Protein.RotatedTorsions>
[ 6907 6896 6895 6894 ] final  174.10 input  -60.11 | X-H torsion
[ 7974 7965 7964 7962 ] final  -30.81 input  175.53 | X-H torsion
[ 8008 7997 7996 7995 ] final -159.25 input   59.86 | X-H torsion
[ 10167 10162 10161 10158 ] final  174.94 input  -65.29 | X-H torsion
[ 10718 10713 10712 10709 ] final  -60.64 input   66.30 | X-H torsion
[ 10763 10752 10751 10750 ] final -142.27 input  -60.55 | X-H torsion
[ 11005 11000 10999 10996 ] final   89.36 input  -57.11 | X-H torsion

> <Gold.Protein.ActiveResidues>
 VAL166  LYS551  ARG553  GLY616  TRP617  ASP618  TYR619  PRO620  LYS621  CYS622 
 ASP623  PHE694  ASN695  SER759  ASP760  ASP761  ALA762  ILE779  LEU786  VAL792 
 PHE793  MET794  SER795  GLU796  ALA797  LYS798  CYS799  TRP800  GLU811  SER814 

> <Gold.Protein.RotatedAtoms>
  151.7577  133.3331  159.3408 H   0  0  0  0  0  0  0  0  0  0  0  0  # atno 6907 bound_to 6896
  150.7510  134.6135  159.6108 H   0  0  0  0  0  0  0  0  0  0  0  0  # atno 6908 bound_to 6896
  152.3426  134.7115  160.0311 H   0  0  0  0  0  0  0  0  0  0  0  0  # atno 6909 bound_to 6896
  146.1115  140.5587  142.8776 H   0  0  0  0  0  0  0  0  0  0  0  0  # atno 7974 bound_to 7965
  155.7598  140.0837  157.2161 H   0  0  0  0  0  0  0  0  0  0  0  0  # atno 8008 bound_to 7997
  154.4004  140.1545  156.2876 H   0  0  0  0  0  0  0  0  0  0  0  0  # atno 8009 bound_to 7997
  155.8850  140.3418  155.5918 H   0  0  0  0  0  0  0  0  0  0  0  0  # atno 8010 bound_to 7997
  139.5159  144.3089  152.0310 H   0  0  0  0  0  0  0  0  0  0  0  0  # atno 10167 bound_to 10162
  156.0977  130.4190  150.0882 H   0  0  0  0  0  0  0  0  0  0  0  0  # atno 10718 bound_to 10713
  154.8515  135.3500  154.6002 H   0  0  0  0  0  0  0  0  0  0  0  0  # atno 10763 bound_to 10752
  153.6610  135.6989  153.5182 H   0  0  0  0  0  0  0  0  0  0  0  0  # atno 10764 bound_to 10752
  153.2817  135.4261  155.1042 H   0  0  0  0  0  0  0  0  0  0  0  0  # atno 10765 bound_to 10752
  139.8877  134.8546  156.3131 H   0  0  0  0  0  0  0  0  0  0  0  0  # atno 11005 bound_to 11000
  144.7516  140.5204  143.6798 LP  0  0  0  0  0  0  0  0  0  0  0  0  # atno 17320 bound_to 7965
  145.5654  139.1481  143.3318 LP  0  0  0  0  0  0  0  0  0  0  0  0  # atno 17321 bound_to 7965
  140.2534  144.4145  150.6213 LP  0  0  0  0  0  0  0  0  0  0  0  0  # atno 17342 bound_to 10162
  140.6209  143.2176  151.6697 LP  0  0  0  0  0  0  0  0  0  0  0  0  # atno 17343 bound_to 10162
  156.8877  130.9578  151.3592 LP  0  0  0  0  0  0  0  0  0  0  0  0  # atno 17370 bound_to 10713
  157.6141  130.8605  149.8999 LP  0  0  0  0  0  0  0  0  0  0  0  0  # atno 17371 bound_to 10713
  140.9837  133.7251  156.0710 LP  0  0  0  0  0  0  0  0  0  0  0  0  # atno 17394 bound_to 11000
  140.7716  134.3826  157.5506 LP  0  0  0  0  0  0  0  0  0  0  0  0  # atno 17395 bound_to 11000

$$$$
