AV-unprocessed.smi:367|AV-procd|sdf|2433|dock7
  -GOLD-   2262022373D 1   1.00000     0.00000
 Structure written by MMmdl.
 21 21  0  0  0  0  0  0  0  0  3 V2000
  151.8489  143.3201  159.1916 C   0  0  0  0  0  0  0  0  0  0  0  0
  151.7674  142.0059  158.4447 C   0  0  0  0  0  0  0  0  0  0  0  0
  152.1529  140.9331  159.0230 N   0  0  0  0  0  0  0  0  0  0  0  0
  152.0846  139.7117  158.3307 C   0  0  0  0  0  0  0  0  0  0  0  0
  152.5794  138.4921  159.0885 C   0  0  0  0  0  0  0  0  0  0  0  0
  151.6078  139.6482  157.0543 C   0  0  0  0  0  0  0  0  0  0  0  0
  151.5356  138.3459  156.2512 C   0  0  0  0  0  0  0  0  0  0  0  0
  152.3108  138.3520  154.9280 C   0  0  0  0  0  0  0  0  0  0  0  0
  153.1455  139.2711  154.7771 O   0  0  0  0  0  0  0  0  0  0  0  0
  152.0681  137.4564  154.0884 O   0  5  0  0  0  0  0  0  0  0  0  0
  151.1649  140.9073  156.4275 C   0  0  0  0  0  0  0  0  0  0  0  0
  150.7147  140.9081  155.2823 O   0  0  0  0  0  0  0  0  0  0  0  0
  151.2752  142.0532  157.1601 N   0  5  0  0  0  0  0  0  0  0  0  0
  152.1807  143.1687  160.2197 H   0  0  0  0  0  0  0  0  0  0  0  0
  150.8721  143.8039  159.2159 H   0  0  0  0  0  0  0  0  0  0  0  0
  152.5548  143.9896  158.6993 H   0  0  0  0  0  0  0  0  0  0  0  0
  153.4567  138.0688  158.5992 H   0  0  0  0  0  0  0  0  0  0  0  0
  151.8037  137.7276  159.1340 H   0  0  0  0  0  0  0  0  0  0  0  0
  152.8555  138.7478  160.1120 H   0  0  0  0  0  0  0  0  0  0  0  0
  151.8761  137.4995  156.8481 H   0  0  0  0  0  0  0  0  0  0  0  0
  150.4899  138.1313  156.0306 H   0  0  0  0  0  0  0  0  0  0  0  0
  1  2  1  0  0  0  0
  1 14  1  0  0  0  0
  1 15  1  0  0  0  0
  1 16  1  0  0  0  0
  2 13  1  0  0  0  0
  2  3  2  0  0  0  0
  3  4  1  0  0  0  0
  4  5  1  0  0  0  0
  4  6  2  0  0  0  0
  5 17  1  0  0  0  0
  5 18  1  0  0  0  0
  5 19  1  0  0  0  0
  6  7  1  0  0  0  0
  6 11  1  0  0  0  0
  7  8  1  0  0  0  0
  7 20  1  0  0  0  0
  7 21  1  0  0  0  0
  8  9  2  0  0  0  0
  8 10  1  0  0  0  0
 11 12  2  0  0  0  0
 11 13  1  0  0  0  0
M  CHG  1  10  -1
M  CHG  1  13  -1
M  END
> <s_m_source_file>
AV-unprocessed.smi

> <i_m_source_file_index>
367

> <i_lp_mmshare_version>
43012

> <i_f3d_flags>
0

> <s_epik_input>
W0NIM11jMW5jKFtDSDNdKWMoYyg9TylbbkhdMSlbQ0gyXUMoPU8pW09IXQ==

> <s_epik_cmdline>
J2VwaWtfcHl0aG9uJywgJy1waCcsICc3LjAnLCAnLXRuJywgJzgnLCAnLW1hJywgJzIwMCcsICctbWV0YWxfYmluZGluZycsICctaW1hZScsICc8aW5maWxlLm1hZT4nLCAnLW9tYWUnLCAnPG91dGZpbGUubWFlPic=

> <r_lp_tautomer_probability>
0.839158

> <r_epik_Ionization_Penalty>
8.1762

> <r_epik_Ionization_Penalty_Charging>
0.00175347

> <r_epik_Ionization_Penalty_Neutral>
8.17445

> <r_epik_State_Penalty>
5.46366

> <r_epik_Charging_Adjusted_Penalty>
5.46542

> <i_epik_Tot_Q>
-2

> <i_epik_Tot_abs_Q>
2

> <r_epik_Metal_State_Penalty>
1.48615

> <b_epik_Metal_Only>
1

> <s_lp_Force_Field>
OPLS_2005

> <r_lp_Energy>
12.8552

> <b_lp_Chiralities_Consistent>
1

> <s_lp_Variant>
AV-unprocessed.smi:367-3

> <Gold.Version>
5.8.1

> <Gold.Id.Protein>
6NUR|6NUR_protein|mol2

> <Gold.PLP.Fitness>
34.5950

> <Gold.PLP.PLP>
-21.1199

> <Gold.PLP.part.hbond>
-3.6760

> <Gold.PLP.part.metal>
0.0000

> <Gold.PLP.part.buried>
-4.0028

> <Gold.PLP.part.nonpolar>
-14.0010

> <Gold.PLP.part.repulsive>
0.4780

> <Gold.PLP.ligand.clash>
0.0000

> <Gold.PLP.ligand.torsion>
0.1988

> <Gold.PLP.Chemscore.Hbond>
4.6240

> <Gold.PLP.Chemscore.CHOScore>
0.0000

> <Gold.PLP.Chemscore.Metal>
0.0000

> <Gold.Chemscore.Hbonds>
donor molecule, donor type, donor heavy atom, donor atom, acceptor molecule, acceptor atom, score
      P1  H  7989  7998       L1    12  0.77
      P1  H  7997  8009       L1     9  2.00
      P1  H 10752 10763       L1    10  1.82

> <Gold.PLP.Chemscore.Internal.Correction>
0.0007

> <Gold.Rescore>
     Score         DG    S(hbond)    S(metal)    S(lipo)     H(rot)  DE(clash)    DE(int)     intcor
     14.19     -14.46       2.76        0.00      31.42       1.53       0.02       0.25       ----

> <Gold.Chemscore.Fitness>
14.1889

> <Gold.Chemscore.DG>
-14.4625

> <Gold.Chemscore.ZeroCoef>
-5.4800

> <Gold.Chemscore.Hbond>
2.7596

> <Gold.Chemscore.Metal>
0.0000

> <Gold.Chemscore.Lipo>
31.4223

> <Gold.Chemscore.Internal_Hbond>
0.0000

> <Gold.Chemscore.DEClash>
0.0234

> <Gold.Chemscore.DEInternal>
0.2502

> <Gold.Chemscore.Rot>
1.5278

> <Gold.Chemscore.Internal.Correction>
   9.000000E+99

> <Gold.Chemscore.Hbonds>
donor molecule, donor type, donor heavy atom, donor atom, acceptor molecule, acceptor atom, score
      P1  H  7989  7998       L1    12  0.73
      P1  H  7997  8009       L1     9  0.94
      P1  H 10752 10763       L1    10  0.85

> <Gold.Chemscore.Hbond.Weighted>
-9.2172

> <Gold.Chemscore.Metal.Weighted>
-0.0000

> <Gold.Chemscore.Lipo.Weighted>
-3.6764

> <Gold.Chemscore.Internal_Hbond.Weighted>
0.0000

> <Gold.Chemscore.DEClash.Weighted>
0.0234

> <Gold.Chemscore.DEInternal.Weighted>
0.2502

> <Gold.Chemscore.Rot.Weighted>
3.9111

> <Gold.Chemscore.Internal.Correction.Weighted>
   9.000000E+99

> <Gold.Protein.RotatedTorsions>
[ 6907 6896 6895 6894 ] final  166.32 input  -60.11 | X-H torsion
[ 7974 7965 7964 7962 ] final  113.37 input  175.53 | X-H torsion
[ 8008 7997 7996 7995 ] final -147.97 input   59.86 | X-H torsion
[ 10167 10162 10161 10158 ] final -174.83 input  -65.29 | X-H torsion
[ 10718 10713 10712 10709 ] final   80.00 input   66.30 | X-H torsion
[ 10763 10752 10751 10750 ] final   31.95 input  -60.55 | X-H torsion
[ 11005 11000 10999 10996 ] final   97.16 input  -57.11 | X-H torsion

> <Gold.Protein.ActiveResidues>
 VAL166  LYS551  ARG553  GLY616  TRP617  ASP618  TYR619  PRO620  LYS621  CYS622 
 ASP623  PHE694  ASN695  SER759  ASP760  ASP761  ALA762  ILE779  LEU786  VAL792 
 PHE793  MET794  SER795  GLU796  ALA797  LYS798  CYS799  TRP800  GLU811  SER814 

> <Gold.Protein.RotatedAtoms>
  151.8807  133.3494  159.3765 H   0  0  0  0  0  0  0  0  0  0  0  0  # atno 6907 bound_to 6896
  150.7128  134.5021  159.5576 H   0  0  0  0  0  0  0  0  0  0  0  0  # atno 6908 bound_to 6896
  152.2572  134.8072  160.0487 H   0  0  0  0  0  0  0  0  0  0  0  0  # atno 6909 bound_to 6896
  145.2178  139.2876  143.4234 H   0  0  0  0  0  0  0  0  0  0  0  0  # atno 7974 bound_to 7965
  155.5841  140.0646  157.2775 H   0  0  0  0  0  0  0  0  0  0  0  0  # atno 8008 bound_to 7997
  154.4324  140.1847  156.1053 H   0  0  0  0  0  0  0  0  0  0  0  0  # atno 8009 bound_to 7997
  156.0282  140.3309  155.7115 H   0  0  0  0  0  0  0  0  0  0  0  0  # atno 8010 bound_to 7997
  139.5613  144.1863  152.1243 H   0  0  0  0  0  0  0  0  0  0  0  0  # atno 10167 bound_to 10162
  157.6793  130.9940  150.2015 H   0  0  0  0  0  0  0  0  0  0  0  0  # atno 10718 bound_to 10713
  153.0288  135.6426  154.1279 H   0  0  0  0  0  0  0  0  0  0  0  0  # atno 10763 bound_to 10752
  154.1004  135.2860  155.3254 H   0  0  0  0  0  0  0  0  0  0  0  0  # atno 10764 bound_to 10752
  154.6403  135.5462  153.7844 H   0  0  0  0  0  0  0  0  0  0  0  0  # atno 10765 bound_to 10752
  139.8777  134.8987  156.4265 H   0  0  0  0  0  0  0  0  0  0  0  0  # atno 11005 bound_to 11000
  146.3383  140.2475  142.8597 LP  0  0  0  0  0  0  0  0  0  0  0  0  # atno 17320 bound_to 7965
  144.9794  140.8445  143.5407 LP  0  0  0  0  0  0  0  0  0  0  0  0  # atno 17321 bound_to 7965
  140.1377  144.5230  150.6763 LP  0  0  0  0  0  0  0  0  0  0  0  0  # atno 17342 bound_to 10162
  140.6893  143.2367  151.5176 LP  0  0  0  0  0  0  0  0  0  0  0  0  # atno 17343 bound_to 10162
  156.2705  130.3721  149.8036 LP  0  0  0  0  0  0  0  0  0  0  0  0  # atno 17370 bound_to 10713
  156.5754  130.8443  151.3368 LP  0  0  0  0  0  0  0  0  0  0  0  0  # atno 17371 bound_to 10713
  140.9096  133.7721  155.9776 LP  0  0  0  0  0  0  0  0  0  0  0  0  # atno 17394 bound_to 11000
  140.8560  134.2897  157.5255 LP  0  0  0  0  0  0  0  0  0  0  0  0  # atno 17395 bound_to 11000

$$$$
