AV-unprocessed.smi:2562|AV-procd|sdf|10042|dock4
  -GOLD-   2272014 83D 1   1.00000     0.00000
 Structure written by MMmdl.
 31 32  0  0  0  0  0  0  0  0  2 V2000
  152.3675  144.1358  160.0717 C   0  0  0  0  0  0  0  0  0  0  0  0
  152.4109  143.2187  158.8446 C   0  0  0  0  0  0  0  0  0  0  0  0
  151.3058  143.5409  157.8287 C   0  0  0  0  0  0  0  0  0  0  0  0
  151.0319  142.4038  156.8996 C   0  0  0  0  0  0  0  0  0  0  0  0
  150.1522  142.4952  155.9000 N   0  0  0  0  0  0  0  0  0  0  0  0
  150.1219  141.3276  155.2232 N   0  0  0  0  0  0  0  0  0  0  0  0
  151.0333  140.6052  155.8734 C   0  0  0  0  0  0  0  0  0  0  0  0
  151.3099  139.1877  155.4792 C   0  0  2  0  0  0  0  0  0  0  0  0
  150.3955  138.7115  154.3347 C   0  0  0  0  0  0  0  0  0  0  0  0
  150.6419  137.2833  154.0563 N   0  3  0  0  0  0  0  0  0  0  0  0
  150.4936  136.4612  155.2740 C   0  0  0  0  0  0  0  0  0  0  0  0
  151.3916  137.0091  156.3977 C   0  0  0  0  0  0  0  0  0  0  0  0
  151.0864  138.3800  156.6331 O   0  0  0  0  0  0  0  0  0  0  0  0
  151.6279  141.2171  156.9435 N   0  0  0  0  0  0  0  0  0  0  0  0
  149.5768  143.2898  155.6581 H   0  0  0  0  0  0  0  0  0  0  0  0
  153.1603  143.8808  160.7752 H   0  0  0  0  0  0  0  0  0  0  0  0
  151.4158  144.0464  160.5961 H   0  0  0  0  0  0  0  0  0  0  0  0
  152.4982  145.1805  159.7878 H   0  0  0  0  0  0  0  0  0  0  0  0
  153.3862  143.3074  158.3649 H   0  0  0  0  0  0  0  0  0  0  0  0
  152.3187  142.1815  159.1690 H   0  0  0  0  0  0  0  0  0  0  0  0
  150.3815  143.7927  158.3502 H   0  0  0  0  0  0  0  0  0  0  0  0
  151.5801  144.4188  157.2420 H   0  0  0  0  0  0  0  0  0  0  0  0
  152.3575  139.1051  155.1822 H   0  0  0  0  0  0  0  0  0  0  0  0
  149.3463  138.8461  154.6027 H   0  0  0  0  0  0  0  0  0  0  0  0
  150.5742  139.2926  153.4296 H   0  0  0  0  0  0  0  0  0  0  0  0
  149.9937  136.9609  153.3518 H   0  0  0  0  0  0  0  0  0  0  0  0
  149.4491  136.4712  155.5887 H   0  0  0  0  0  0  0  0  0  0  0  0
  150.7510  135.4267  155.0459 H   0  0  0  0  0  0  0  0  0  0  0  0
  151.2280  136.4470  157.3172 H   0  0  0  0  0  0  0  0  0  0  0  0
  152.4467  136.8995  156.1418 H   0  0  0  0  0  0  0  0  0  0  0  0
  151.5849  137.1801  153.7091 H   0  0  0  0  0  0  0  0  0  0  0  0
  1  2  1  0  0  0  0
  1 16  1  0  0  0  0
  1 17  1  0  0  0  0
  1 18  1  0  0  0  0
  2  3  1  0  0  0  0
  2 19  1  0  0  0  0
  2 20  1  0  0  0  0
  3 21  1  0  0  0  0
  3 22  1  0  0  0  0
  3  4  1  0  0  0  0
  4 14  2  0  0  0  0
  4  5  1  0  0  0  0
  5  6  1  0  0  0  0
  5 15  1  0  0  0  0
  6  7  2  0  0  0  0
  7 14  1  0  0  0  0
  7  8  1  0  0  0  0
  8 13  1  0  0  0  0
  8  9  1  0  0  0  0
  8 23  1  0  0  0  0
  9 10  1  0  0  0  0
  9 24  1  0  0  0  0
  9 25  1  0  0  0  0
 10 11  1  0  0  0  0
 10 26  1  0  0  0  0
 10 31  1  0  0  0  0
 11 12  1  0  0  0  0
 11 27  1  0  0  0  0
 11 28  1  0  0  0  0
 12 13  1  0  0  0  0
 12 29  1  0  0  0  0
 12 30  1  0  0  0  0
M  CHG  1  10   1
M  END
> <s_m_source_file>
AV-unprocessed.smi

> <i_m_source_file_index>
2562

> <i_lp_mmshare_version>
43012

> <i_f3d_flags>
0

> <s_epik_input>
W0NIM11bQ0gyXVtDSDJdYzFuW25IXWMobjEpW0NAQEhdMltDSDJdW05IXVtDSDJdW0NIMl1PMg==

> <s_epik_cmdline>
J2VwaWtfcHl0aG9uJywgJy1waCcsICc3LjAnLCAnLXRuJywgJzgnLCAnLW1hJywgJzIwMCcsICctbWV0YWxfYmluZGluZycsICctaW1hZScsICc8aW5maWxlLm1hZT4nLCAnLW9tYWUnLCAnPG91dGZpbGUubWFlPic=

> <r_lp_tautomer_probability>
0.948284

> <r_epik_Ionization_Penalty>
0.10647

> <r_epik_Ionization_Penalty_Charging>
0.100865

> <r_epik_Ionization_Penalty_Neutral>
0.0056057

> <r_epik_State_Penalty>
0.375056

> <r_epik_Charging_Adjusted_Penalty>
0.47592

> <i_epik_Tot_Q>
1

> <i_epik_Tot_abs_Q>
1

> <r_epik_Metal_State_Penalty>
0.497514

> <b_epik_Metal_Only>
0

> <s_lp_Force_Field>
OPLS_2005

> <r_lp_Energy>
10.3016

> <b_lp_Chiralities_Consistent>
1

> <s_lp_Variant>
AV-unprocessed.smi:2562-1

> <Gold.Version>
5.8.1

> <Gold.Id.Protein>
6NUR|6NUR_protein|mol2

> <Gold.PLP.Fitness>
36.4206

> <Gold.PLP.PLP>
-27.6828

> <Gold.PLP.part.hbond>
-3.8506

> <Gold.PLP.part.metal>
0.0000

> <Gold.PLP.part.buried>
-3.1477

> <Gold.PLP.part.nonpolar>
-21.7708

> <Gold.PLP.part.repulsive>
0.3458

> <Gold.PLP.ligand.clash>
0.0000

> <Gold.PLP.ligand.torsion>
0.1477

> <Gold.PLP.Chemscore.Hbond>
3.0061

> <Gold.PLP.Chemscore.CHOScore>
0.0000

> <Gold.PLP.Chemscore.Metal>
0.0000

> <Gold.Chemscore.Hbonds>
donor molecule, donor type, donor heavy atom, donor atom, acceptor molecule, acceptor atom, score
      L1  H     5    15       P1  8028  1.00
      L1  H    10    26       P1  7948  1.90

> <Gold.PLP.Chemscore.Internal.Correction>
0.0148

> <Gold.Rescore>
     Score         DG    S(hbond)    S(metal)    S(lipo)     H(rot)  DE(clash)    DE(int)     intcor
     14.59     -14.73       1.87        0.00      58.87       1.51       0.01       0.13       ----

> <Gold.Chemscore.Fitness>
14.5911

> <Gold.Chemscore.DG>
-14.7340

> <Gold.Chemscore.ZeroCoef>
-5.4800

> <Gold.Chemscore.Hbond>
1.8669

> <Gold.Chemscore.Metal>
0.0000

> <Gold.Chemscore.Lipo>
58.8734

> <Gold.Chemscore.Internal_Hbond>
0.0000

> <Gold.Chemscore.DEClash>
0.0101

> <Gold.Chemscore.DEInternal>
0.1329

> <Gold.Chemscore.Rot>
1.5115

> <Gold.Chemscore.Internal.Correction>
   9.000000E+99

> <Gold.Chemscore.Hbonds>
donor molecule, donor type, donor heavy atom, donor atom, acceptor molecule, acceptor atom, score
      L1  H     5    15       P1  8028  0.98
      L1  H    10    26       P1  7948  0.21

> <Gold.Chemscore.Hbond.Weighted>
-6.2353

> <Gold.Chemscore.Metal.Weighted>
-0.0000

> <Gold.Chemscore.Lipo.Weighted>
-6.8882

> <Gold.Chemscore.Internal_Hbond.Weighted>
0.0000

> <Gold.Chemscore.DEClash.Weighted>
0.0101

> <Gold.Chemscore.DEInternal.Weighted>
0.1329

> <Gold.Chemscore.Rot.Weighted>
3.8695

> <Gold.Chemscore.Internal.Correction.Weighted>
   9.000000E+99

> <Gold.Protein.RotatedTorsions>
[ 6907 6896 6895 6894 ] final  -49.51 input  -60.11 | X-H torsion
[ 7974 7965 7964 7962 ] final  138.06 input  175.53 | X-H torsion
[ 8008 7997 7996 7995 ] final -115.61 input   59.86 | X-H torsion
[ 10167 10162 10161 10158 ] final -168.06 input  -65.29 | X-H torsion
[ 10718 10713 10712 10709 ] final   21.14 input   66.30 | X-H torsion
[ 10763 10752 10751 10750 ] final  144.33 input  -60.55 | X-H torsion
[ 11005 11000 10999 10996 ] final  -23.35 input  -57.11 | X-H torsion

> <Gold.Protein.ActiveResidues>
 VAL166  LYS551  ARG553  GLY616  TRP617  ASP618  TYR619  PRO620  LYS621  CYS622 
 ASP623  PHE694  ASN695  SER759  ASP760  ASP761  ALA762  ILE779  LEU786  VAL792 
 PHE793  MET794  SER795  GLU796  ALA797  LYS798  CYS799  TRP800  GLU811  SER814 

> <Gold.Protein.RotatedAtoms>
  150.8798  134.8187  159.7216 H   0  0  0  0  0  0  0  0  0  0  0  0  # atno 6907 bound_to 6896
  152.4770  134.4814  159.9676 H   0  0  0  0  0  0  0  0  0  0  0  0  # atno 6908 bound_to 6896
  151.4891  133.3490  159.2886 H   0  0  0  0  0  0  0  0  0  0  0  0  # atno 6909 bound_to 6896
  144.9409  139.4932  143.5572 H   0  0  0  0  0  0  0  0  0  0  0  0  # atno 7974 bound_to 7965
  155.0547  140.0393  157.2556 H   0  0  0  0  0  0  0  0  0  0  0  0  # atno 8008 bound_to 7997
  154.7109  140.2692  155.6606 H   0  0  0  0  0  0  0  0  0  0  0  0  # atno 8009 bound_to 7997
  156.2789  140.2722  156.1750 H   0  0  0  0  0  0  0  0  0  0  0  0  # atno 8010 bound_to 7997
  139.6009  144.1012  152.1742 H   0  0  0  0  0  0  0  0  0  0  0  0  # atno 10167 bound_to 10162
  157.1343  130.6604  149.5961 H   0  0  0  0  0  0  0  0  0  0  0  0  # atno 10718 bound_to 10713
  153.9871  135.2935  155.3415 H   0  0  0  0  0  0  0  0  0  0  0  0  # atno 10763 bound_to 10752
  154.7235  135.5098  153.8853 H   0  0  0  0  0  0  0  0  0  0  0  0  # atno 10764 bound_to 10752
  153.0827  135.6684  154.0128 H   0  0  0  0  0  0  0  0  0  0  0  0  # atno 10765 bound_to 10752
  140.8743  133.7698  156.0224 H   0  0  0  0  0  0  0  0  0  0  0  0  # atno 11005 bound_to 11000
  146.3285  139.8427  142.8887 LP  0  0  0  0  0  0  0  0  0  0  0  0  # atno 17320 bound_to 7965
  145.2993  141.0190  143.3618 LP  0  0  0  0  0  0  0  0  0  0  0  0  # atno 17321 bound_to 7965
  140.0608  144.5858  150.7264 LP  0  0  0  0  0  0  0  0  0  0  0  0  # atno 17342 bound_to 10162
  140.7249  143.2626  151.4154 LP  0  0  0  0  0  0  0  0  0  0  0  0  # atno 17343 bound_to 10162
  155.9801  130.4800  150.6755 LP  0  0  0  0  0  0  0  0  0  0  0  0  # atno 17370 bound_to 10713
  157.4364  131.0856  151.0987 LP  0  0  0  0  0  0  0  0  0  0  0  0  # atno 17371 bound_to 10713
  140.8536  134.2924  157.5265 LP  0  0  0  0  0  0  0  0  0  0  0  0  # atno 17394 bound_to 11000
  139.8714  134.9481  156.3986 LP  0  0  0  0  0  0  0  0  0  0  0  0  # atno 17395 bound_to 11000

$$$$
