AV-unprocessed.smi:212|AV-procd|sdf|1619|dock3
  -GOLD-   2262019553D 1   1.00000     0.00000
 Structure written by MMmdl.
 65 68  0  0  0  0  0  0  0  0  2 V2000
  147.1266  130.1761  155.6623 C   0  0  0  0  0  0  0  0  0  0  0  0
  147.0979  131.7109  155.7586 C   0  0  2  0  0  0  0  0  0  0  0  0
  146.0416  132.3336  154.8207 C   0  0  0  0  0  0  0  0  0  0  0  0
  146.4529  132.2467  153.3926 N   0  3  1  0  0  0  0  0  0  0  0  0
  145.4266  132.7440  152.4355 C   0  0  0  0  0  0  0  0  0  0  0  0
  145.4470  132.0450  151.0506 C   0  0  0  0  0  0  0  0  0  0  0  0
  145.5825  130.5237  151.2367 C   0  0  0  0  0  0  0  0  0  0  0  0
  144.2043  132.3655  150.1986 C   0  0  0  0  0  0  0  0  0  0  0  0
  146.5965  132.4440  150.3322 O   0  0  0  0  0  0  0  0  0  0  0  0
  147.7823  132.8711  153.1656 C   0  0  0  0  0  0  0  0  0  0  0  0
  148.8514  132.2745  154.0993 C   0  0  0  0  0  0  0  0  0  0  0  0
  148.4147  132.2939  155.4951 N   0  0  0  0  0  0  0  0  0  0  0  0
  148.7500  133.3568  156.2704 C   0  0  0  0  0  0  0  0  0  0  0  0
  148.3941  133.3834  157.5820 N   0  0  0  0  0  0  0  0  0  0  0  0
  148.7381  134.4198  158.3519 C   0  0  0  0  0  0  0  0  0  0  0  0
  149.4246  135.5140  158.0187 N   0  0  0  0  0  0  0  0  0  0  0  0
  149.7813  135.4973  156.7031 C   0  0  0  0  0  0  0  0  0  0  0  0
  149.4820  134.4681  155.7667 C   0  0  0  0  0  0  0  0  0  0  0  0
  149.9851  134.8033  154.5163 N   0  0  0  0  0  0  0  0  0  0  0  0
  150.5509  135.9640  154.7032 C   0  0  0  0  0  0  0  0  0  0  0  0
  150.4958  136.4479  155.9921 N   0  0  0  0  0  0  0  0  0  0  0  0
  151.0493  137.7070  156.4747 C   0  0  0  0  0  0  0  0  0  0  0  0
  150.3093  138.9697  155.9581 C   0  0  2  0  0  0  0  0  0  0  0  0
  150.2624  138.9796  154.4110 C   0  0  0  0  0  0  0  0  0  0  0  0
  149.2897  139.8759  153.9163 O   0  0  0  0  0  0  0  0  0  0  0  0
  150.9079  140.2754  156.5520 C   0  0  2  0  0  0  0  0  0  0  0  0
  150.9824  140.2971  158.0705 C   0  0  0  0  0  0  0  0  0  0  0  0
  151.1709  141.7803  158.3724 C   0  0  0  0  0  0  0  0  0  0  0  0
  150.5326  142.4774  157.3082 O   0  0  0  0  0  0  0  0  0  0  0  0
  150.0919  141.5510  156.3220 C   0  0  0  0  0  0  0  0  0  0  0  0
  146.1545  129.7526  155.9162 H   0  0  0  0  0  0  0  0  0  0  0  0
  147.8568  129.7577  156.3558 H   0  0  0  0  0  0  0  0  0  0  0  0
  147.3823  129.8311  154.6605 H   0  0  0  0  0  0  0  0  0  0  0  0
  146.7915  131.9488  156.7776 H   0  0  0  0  0  0  0  0  0  0  0  0
  145.0887  131.8355  154.9862 H   0  0  0  0  0  0  0  0  0  0  0  0
  145.8924  133.3827  155.0814 H   0  0  0  0  0  0  0  0  0  0  0  0
  144.4345  132.7003  152.8883 H   0  0  0  0  0  0  0  0  0  0  0  0
  145.6198  133.8033  152.2589 H   0  0  0  0  0  0  0  0  0  0  0  0
  144.7237  130.1127  151.7687 H   0  0  0  0  0  0  0  0  0  0  0  0
  146.4751  130.2698  151.8100 H   0  0  0  0  0  0  0  0  0  0  0  0
  145.6494  130.0069  150.2783 H   0  0  0  0  0  0  0  0  0  0  0  0
  143.2871  132.0939  150.7223 H   0  0  0  0  0  0  0  0  0  0  0  0
  144.2182  131.8171  149.2559 H   0  0  0  0  0  0  0  0  0  0  0  0
  144.1436  133.4259  149.9506 H   0  0  0  0  0  0  0  0  0  0  0  0
  147.2650  131.7844  150.4411 H   0  0  0  0  0  0  0  0  0  0  0  0
  148.0934  132.7215  152.1311 H   0  0  0  0  0  0  0  0  0  0  0  0
  147.7023  133.9482  153.3183 H   0  0  0  0  0  0  0  0  0  0  0  0
  149.0503  131.2405  153.8165 H   0  0  0  0  0  0  0  0  0  0  0  0
  149.7997  132.8007  153.9806 H   0  0  0  0  0  0  0  0  0  0  0  0
  148.4203  134.3634  159.3826 H   0  0  0  0  0  0  0  0  0  0  0  0
  151.0321  136.4994  153.8977 H   0  0  0  0  0  0  0  0  0  0  0  0
  151.0216  137.6866  157.5647 H   0  0  0  0  0  0  0  0  0  0  0  0
  152.1063  137.7464  156.2113 H   0  0  0  0  0  0  0  0  0  0  0  0
  149.2801  138.8829  156.3109 H   0  0  0  0  0  0  0  0  0  0  0  0
  151.2365  139.2294  153.9892 H   0  0  0  0  0  0  0  0  0  0  0  0
  149.9933  137.9924  154.0345 H   0  0  0  0  0  0  0  0  0  0  0  0
  149.4417  140.0062  152.9925 H   0  0  0  0  0  0  0  0  0  0  0  0
  151.9070  140.4404  156.1463 H   0  0  0  0  0  0  0  0  0  0  0  0
  150.0422  139.9492  158.5005 H   0  0  0  0  0  0  0  0  0  0  0  0
  151.7836  139.6869  158.4839 H   0  0  0  0  0  0  0  0  0  0  0  0
  150.7548  142.0623  159.3398 H   0  0  0  0  0  0  0  0  0  0  0  0
  152.2304  142.0397  158.3699 H   0  0  0  0  0  0  0  0  0  0  0  0
  150.2223  141.9592  155.3195 H   0  0  0  0  0  0  0  0  0  0  0  0
  149.0286  141.3645  156.4796 H   0  0  0  0  0  0  0  0  0  0  0  0
  146.5730  131.2650  153.1886 H   0  0  0  0  0  0  0  0  0  0  0  0
  1  2  1  0  0  0  0
  1 31  1  0  0  0  0
  1 32  1  0  0  0  0
  1 33  1  0  0  0  0
  2 12  1  0  0  0  0
  2  3  1  0  0  0  0
  2 34  1  0  0  0  0
  3  4  1  0  0  0  0
  3 35  1  0  0  0  0
  3 36  1  0  0  0  0
  4  5  1  0  0  0  0
  4 10  1  0  0  0  0
  4 65  1  0  0  0  0
  5  6  1  0  0  0  0
  5 37  1  0  0  0  0
  5 38  1  0  0  0  0
  6  7  1  0  0  0  0
  6  8  1  0  0  0  0
  6  9  1  0  0  0  0
  7 39  1  0  0  0  0
  7 40  1  0  0  0  0
  7 41  1  0  0  0  0
  8 42  1  0  0  0  0
  8 43  1  0  0  0  0
  8 44  1  0  0  0  0
  9 45  1  0  0  0  0
 10 11  1  0  0  0  0
 10 46  1  0  0  0  0
 10 47  1  0  0  0  0
 11 12  1  0  0  0  0
 11 48  1  0  0  0  0
 11 49  1  0  0  0  0
 12 13  1  0  0  0  0
 13 18  1  0  0  0  0
 13 14  2  0  0  0  0
 14 15  1  0  0  0  0
 15 16  2  0  0  0  0
 15 50  1  0  0  0  0
 16 17  1  0  0  0  0
 17 21  1  0  0  0  0
 17 18  2  0  0  0  0
 18 19  1  0  0  0  0
 19 20  2  0  0  0  0
 20 21  1  0  0  0  0
 20 51  1  0  0  0  0
 21 22  1  0  0  0  0
 22 23  1  0  0  0  0
 22 52  1  0  0  0  0
 22 53  1  0  0  0  0
 23 24  1  0  0  0  0
 23 26  1  0  0  0  0
 23 54  1  0  0  0  0
 24 25  1  0  0  0  0
 24 55  1  0  0  0  0
 24 56  1  0  0  0  0
 25 57  1  0  0  0  0
 26 30  1  0  0  0  0
 26 27  1  0  0  0  0
 26 58  1  0  0  0  0
 27 28  1  0  0  0  0
 27 59  1  0  0  0  0
 27 60  1  0  0  0  0
 28 29  1  0  0  0  0
 28 61  1  0  0  0  0
 28 62  1  0  0  0  0
 29 30  1  0  0  0  0
 30 63  1  0  0  0  0
 30 64  1  0  0  0  0
M  CHG  1   4   1
M  END
> <s_m_source_file>
AV-unprocessed.smi

> <i_m_source_file_index>
212

> <i_lp_mmshare_version>
43012

> <i_f3d_flags>
0

> <s_epik_input>
W0NIM11bQ0BASF0xW0NIMl1OKFtDSDJdQyhbQ0gzXSkoW0NIM10pW09IXSlbQ0gyXVtDSDJdTjFjKG5bY0hdbjIpYyhjMjMpbltjSF1uM1tDSDJdW0NASF0oW0NIMl1bT0hdKVtDQEBIXTRbQ0gyXVtDSDJdT1tDSDJdNA==

> <s_epik_cmdline>
J2VwaWtfcHl0aG9uJywgJy1waCcsICc3LjAnLCAnLXRuJywgJzgnLCAnLW1hJywgJzIwMCcsICctbWV0YWxfYmluZGluZycsICctaW1hZScsICc8aW5maWxlLm1hZT4nLCAnLW9tYWUnLCAnPG91dGZpbGUubWFlPic=

> <r_lp_tautomer_probability>
1

> <r_epik_Ionization_Penalty>
0.00182193

> <r_epik_Ionization_Penalty_Charging>
0.00173996

> <r_epik_Ionization_Penalty_Neutral>
8.19718e-05

> <r_epik_State_Penalty>
-0

> <r_epik_Charging_Adjusted_Penalty>
0.00173996

> <i_epik_Tot_Q>
1

> <i_epik_Tot_abs_Q>
1

> <r_epik_Metal_State_Penalty>
-0

> <b_epik_Metal_Only>
0

> <s_lp_Force_Field>
OPLS_2005

> <r_lp_Energy>
58.2747

> <b_lp_Chiralities_Consistent>
1

> <s_lp_Variant>
AV-unprocessed.smi:212-3

> <Gold.Version>
5.8.1

> <Gold.Id.Protein>
6NUR|6NUR_protein|mol2

> <Gold.PLP.Fitness>
48.3719

> <Gold.PLP.PLP>
-40.6119

> <Gold.PLP.part.hbond>
-2.6794

> <Gold.PLP.part.metal>
0.0000

> <Gold.PLP.part.buried>
-7.2699

> <Gold.PLP.part.nonpolar>
-30.7799

> <Gold.PLP.part.repulsive>
0.2910

> <Gold.PLP.ligand.clash>
0.0000

> <Gold.PLP.ligand.torsion>
0.9649

> <Gold.PLP.Chemscore.Hbond>
2.0000

> <Gold.PLP.Chemscore.CHOScore>
1.0000

> <Gold.PLP.Chemscore.Metal>
0.0000

> <Gold.Chemscore.Hbonds>
donor molecule, donor type, donor heavy atom, donor atom, acceptor molecule, acceptor atom, score
      L1  H     9    45       P1 10747  1.00
      L1  H    25    57       P1  7957  1.00
      L1  C    20    51       P1  7948  0.01
      L1  C    20    51       P1  7949  1.00

> <Gold.PLP.Chemscore.Internal.Correction>
0.6898

> <Gold.Rescore>
     Score         DG    S(hbond)    S(metal)    S(lipo)     H(rot)  DE(clash)    DE(int)     intcor
     12.17     -15.25       2.00        0.00     100.77       3.40       0.37       2.71       ----

> <Gold.Chemscore.Fitness>
12.1653

> <Gold.Chemscore.DG>
-15.2454

> <Gold.Chemscore.ZeroCoef>
-5.4800

> <Gold.Chemscore.Hbond>
1.9987

> <Gold.Chemscore.Metal>
0.0000

> <Gold.Chemscore.Lipo>
100.7725

> <Gold.Chemscore.Internal_Hbond>
0.0000

> <Gold.Chemscore.DEClash>
0.3686

> <Gold.Chemscore.DEInternal>
2.7116

> <Gold.Chemscore.Rot>
3.3986

> <Gold.Chemscore.Internal.Correction>
   9.000000E+99

> <Gold.Chemscore.Hbonds>
donor molecule, donor type, donor heavy atom, donor atom, acceptor molecule, acceptor atom, score
      L1  H     9    45       P1 10747  0.98
      L1  H    25    57       P1  7957  1.00

> <Gold.Chemscore.Hbond.Weighted>
-6.6755

> <Gold.Chemscore.Metal.Weighted>
-0.0000

> <Gold.Chemscore.Lipo.Weighted>
-11.7904

> <Gold.Chemscore.Internal_Hbond.Weighted>
0.0000

> <Gold.Chemscore.DEClash.Weighted>
0.3686

> <Gold.Chemscore.DEInternal.Weighted>
2.7116

> <Gold.Chemscore.Rot.Weighted>
8.7005

> <Gold.Chemscore.Internal.Correction.Weighted>
   9.000000E+99

> <Gold.Protein.RotatedTorsions>
[ 6907 6896 6895 6894 ] final  134.02 input  -60.11 | X-H torsion
[ 7974 7965 7964 7962 ] final   74.73 input  175.53 | X-H torsion
[ 8008 7997 7996 7995 ] final  152.99 input   59.86 | X-H torsion
[ 10167 10162 10161 10158 ] final   53.52 input  -65.29 | X-H torsion
[ 10718 10713 10712 10709 ] final -149.54 input   66.30 | X-H torsion
[ 10763 10752 10751 10750 ] final  120.06 input  -60.55 | X-H torsion
[ 11005 11000 10999 10996 ] final   76.17 input  -57.11 | X-H torsion

> <Gold.Protein.ActiveResidues>
 VAL166  LYS551  ARG553  GLY616  TRP617  ASP618  TYR619  PRO620  LYS621  CYS622 
 ASP623  PHE694  ASN695  SER759  ASP760  ASP761  ALA762  ILE779  LEU786  VAL792 
 PHE793  MET794  SER795  GLU796  ALA797  LYS798  CYS799  TRP800  GLU811  SER814 

> <Gold.Protein.RotatedAtoms>
  152.3158  133.5801  159.5710 H   0  0  0  0  0  0  0  0  0  0  0  0  # atno 6907 bound_to 6896
  150.7346  134.0085  159.3670 H   0  0  0  0  0  0  0  0  0  0  0  0  # atno 6908 bound_to 6896
  151.7973  135.0719  160.0446 H   0  0  0  0  0  0  0  0  0  0  0  0  # atno 6909 bound_to 6896
  145.7246  139.2661  143.1576 H   0  0  0  0  0  0  0  0  0  0  0  0  # atno 7974 bound_to 7965
  156.2603  140.2006  156.6420 H   0  0  0  0  0  0  0  0  0  0  0  0  # atno 8008 bound_to 7997
  154.6602  140.0561  157.0078 H   0  0  0  0  0  0  0  0  0  0  0  0  # atno 8009 bound_to 7997
  155.1287  140.3231  155.4482 H   0  0  0  0  0  0  0  0  0  0  0  0  # atno 8010 bound_to 7997
  140.2399  144.3595  150.6384 H   0  0  0  0  0  0  0  0  0  0  0  0  # atno 10167 bound_to 10162
  156.4345  130.8091  151.2319 H   0  0  0  0  0  0  0  0  0  0  0  0  # atno 10718 bound_to 10713
  153.5926  135.3463  155.2916 H   0  0  0  0  0  0  0  0  0  0  0  0  # atno 10763 bound_to 10752
  154.8650  135.4208  154.2500 H   0  0  0  0  0  0  0  0  0  0  0  0  # atno 10764 bound_to 10752
  153.3310  135.7044  153.7018 H   0  0  0  0  0  0  0  0  0  0  0  0  # atno 10765 bound_to 10752
  139.9310  134.7579  156.1362 H   0  0  0  0  0  0  0  0  0  0  0  0  # atno 11005 bound_to 11000
  146.0594  140.7986  142.9742 LP  0  0  0  0  0  0  0  0  0  0  0  0  # atno 17320 bound_to 7965
  144.6908  140.3174  143.7238 LP  0  0  0  0  0  0  0  0  0  0  0  0  # atno 17321 bound_to 7965
  140.6121  143.2170  151.6865 LP  0  0  0  0  0  0  0  0  0  0  0  0  # atno 17342 bound_to 10162
  139.5081  144.3624  152.0549 LP  0  0  0  0  0  0  0  0  0  0  0  0  # atno 17343 bound_to 10162
  157.7507  131.0188  150.3640 LP  0  0  0  0  0  0  0  0  0  0  0  0  # atno 17370 bound_to 10713
  156.3984  130.3911  149.6977 LP  0  0  0  0  0  0  0  0  0  0  0  0  # atno 17371 bound_to 10713
  141.0899  133.6719  156.2517 LP  0  0  0  0  0  0  0  0  0  0  0  0  # atno 17394 bound_to 11000
  140.6202  134.5369  157.5546 LP  0  0  0  0  0  0  0  0  0  0  0  0  # atno 17395 bound_to 11000

$$$$
