AV-unprocessed.smi:189|AV-procd|sdf|1484|dock2
  -GOLD-   2262019303D 1   1.00000     0.00000
 Structure written by MMmdl.
 53 57  0  0  0  0  0  0  0  0  1 V2000
  147.1717  141.9296  154.6204 C   0  0  0  0  0  0  0  0  0  0  0  0
  148.6260  141.4277  154.5362 C   0  0  1  0  0  0  0  0  0  0  0  0
  149.4006  141.4214  155.8590 C   0  0  0  0  0  0  0  0  0  0  0  0
  150.6003  140.5123  155.5521 C   0  0  1  0  0  0  0  0  0  0  0  0
  150.9764  139.5318  156.6769 C   0  0  0  0  0  0  0  0  0  0  0  0
  152.1186  138.5811  156.2567 C   0  0  0  0  0  0  0  0  0  0  0  0
  152.0536  138.1405  154.7760 C   0  0  0  0  0  0  0  0  0  0  0  0
  150.6472  138.3001  154.1822 C   0  0  0  0  0  0  0  0  0  0  0  0
  150.2184  139.7899  154.2388 C   0  0  1  0  0  0  0  0  0  0  0  0
  148.8100  140.0934  153.9634 N   0  0  0  0  0  0  0  0  0  0  0  0
  147.9100  139.1232  154.2655 C   0  0  0  0  0  0  0  0  0  0  0  0
  147.8254  138.6052  155.5201 N   0  0  0  0  0  0  0  0  0  0  0  0
  146.9553  137.6258  155.7833 C   0  0  0  0  0  0  0  0  0  0  0  0
  146.1018  137.0223  154.9532 N   0  0  0  0  0  0  0  0  0  0  0  0
  146.1956  137.5306  153.6909 C   0  0  0  0  0  0  0  0  0  0  0  0
  147.0623  138.5759  153.2676 C   0  0  0  0  0  0  0  0  0  0  0  0
  146.8816  138.8295  151.9142 N   0  0  0  0  0  0  0  0  0  0  0  0
  145.9597  137.9784  151.5553 C   0  0  0  0  0  0  0  0  0  0  0  0
  145.5000  137.1512  152.5561 N   0  0  0  0  0  0  0  0  0  0  0  0
  144.4951  136.1072  152.4306 C   0  0  0  0  0  0  0  0  0  0  0  0
  144.7487  135.1529  151.2397 C   0  0  2  0  0  0  0  0  0  0  0  0
  144.4999  135.8456  150.0290 O   0  0  0  0  0  0  0  0  0  0  0  0
  143.8911  133.8899  151.2579 C   0  0  0  0  0  0  0  0  0  0  0  0
  144.8037  132.8491  150.6250 C   0  0  0  0  0  0  0  0  0  0  0  0
  146.0686  133.1805  151.1706 O   0  0  0  0  0  0  0  0  0  0  0  0
  146.1872  134.5993  151.1982 C   0  0  0  0  0  0  0  0  0  0  0  0
  147.1456  142.9710  154.9405 H   0  0  0  0  0  0  0  0  0  0  0  0
  146.5747  141.3602  155.3323 H   0  0  0  0  0  0  0  0  0  0  0  0
  146.6806  141.8718  153.6487 H   0  0  0  0  0  0  0  0  0  0  0  0
  149.1448  142.1055  153.8562 H   0  0  0  0  0  0  0  0  0  0  0  0
  149.7034  142.4231  156.1649 H   0  0  0  0  0  0  0  0  0  0  0  0
  148.7907  141.0035  156.6606 H   0  0  0  0  0  0  0  0  0  0  0  0
  151.4686  141.1405  155.3476 H   0  0  0  0  0  0  0  0  0  0  0  0
  151.2551  140.0745  157.5807 H   0  0  0  0  0  0  0  0  0  0  0  0
  150.0999  138.9377  156.9392 H   0  0  0  0  0  0  0  0  0  0  0  0
  153.0814  139.0605  156.4374 H   0  0  0  0  0  0  0  0  0  0  0  0
  152.0967  137.7036  156.9035 H   0  0  0  0  0  0  0  0  0  0  0  0
  152.7490  138.7433  154.1908 H   0  0  0  0  0  0  0  0  0  0  0  0
  152.3931  137.1089  154.6793 H   0  0  0  0  0  0  0  0  0  0  0  0
  150.6208  137.9421  153.1524 H   0  0  0  0  0  0  0  0  0  0  0  0
  149.9747  137.6575  154.7510 H   0  0  0  0  0  0  0  0  0  0  0  0
  150.7693  140.2899  153.4405 H   0  0  0  0  0  0  0  0  0  0  0  0
  146.9447  137.2727  156.8038 H   0  0  0  0  0  0  0  0  0  0  0  0
  145.5931  137.9252  150.5406 H   0  0  0  0  0  0  0  0  0  0  0  0
  144.4587  135.5468  153.3657 H   0  0  0  0  0  0  0  0  0  0  0  0
  143.5216  136.5875  152.3242 H   0  0  0  0  0  0  0  0  0  0  0  0
  144.4482  136.7703  150.2165 H   0  0  0  0  0  0  0  0  0  0  0  0
  143.6827  133.5902  152.2856 H   0  0  0  0  0  0  0  0  0  0  0  0
  142.9352  133.9959  150.7428 H   0  0  0  0  0  0  0  0  0  0  0  0
  144.5134  131.8269  150.8688 H   0  0  0  0  0  0  0  0  0  0  0  0
  144.8294  132.9546  149.5394 H   0  0  0  0  0  0  0  0  0  0  0  0
  146.7316  134.9346  150.3136 H   0  0  0  0  0  0  0  0  0  0  0  0
  146.7721  134.8924  152.0706 H   0  0  0  0  0  0  0  0  0  0  0  0
  1  2  1  0  0  0  0
  1 27  1  0  0  0  0
  1 28  1  0  0  0  0
  1 29  1  0  0  0  0
  2 10  1  0  0  0  0
  2  3  1  0  0  0  0
  2 30  1  0  0  0  0
  3  4  1  0  0  0  0
  3 31  1  0  0  0  0
  3 32  1  0  0  0  0
  4  9  1  0  0  0  0
  4  5  1  0  0  0  0
  4 33  1  0  0  0  0
  5  6  1  0  0  0  0
  5 34  1  0  0  0  0
  5 35  1  0  0  0  0
  6  7  1  0  0  0  0
  6 36  1  0  0  0  0
  6 37  1  0  0  0  0
  7  8  1  0  0  0  0
  7 38  1  0  0  0  0
  7 39  1  0  0  0  0
  8  9  1  0  0  0  0
  8 40  1  0  0  0  0
  8 41  1  0  0  0  0
  9 10  1  0  0  0  0
  9 42  1  0  0  0  0
 10 11  1  0  0  0  0
 11 16  1  0  0  0  0
 11 12  2  0  0  0  0
 12 13  1  0  0  0  0
 13 14  2  0  0  0  0
 13 43  1  0  0  0  0
 14 15  1  0  0  0  0
 15 19  1  0  0  0  0
 15 16  2  0  0  0  0
 16 17  1  0  0  0  0
 17 18  2  0  0  0  0
 18 19  1  0  0  0  0
 18 44  1  0  0  0  0
 19 20  1  0  0  0  0
 20 21  1  0  0  0  0
 20 45  1  0  0  0  0
 20 46  1  0  0  0  0
 21 26  1  0  0  0  0
 21 22  1  0  0  0  0
 21 23  1  0  0  0  0
 22 47  1  0  0  0  0
 23 24  1  0  0  0  0
 23 48  1  0  0  0  0
 23 49  1  0  0  0  0
 24 25  1  0  0  0  0
 24 50  1  0  0  0  0
 24 51  1  0  0  0  0
 25 26  1  0  0  0  0
 26 52  1  0  0  0  0
 26 53  1  0  0  0  0
M  END
> <s_m_source_file>
AV-unprocessed.smi

> <i_m_source_file_index>
189

> <i_lp_mmshare_version>
43012

> <i_f3d_flags>
0

> <s_epik_input>
W0NIMl0xW0NIMl1bQ0gyXVtDSDJdW0NASF0oW0NASF0xMilOKFtDQEhdKFtDSDNdKVtDSDJdMiljKG5bY0hdbjMpYyhjMzQpbltjSF1uNFtDSDJdW0NAQF01KFtPSF0pW0NIMl1bQ0gyXU9bQ0gyXTU=

> <s_epik_cmdline>
J2VwaWtfcHl0aG9uJywgJy1waCcsICc3LjAnLCAnLXRuJywgJzgnLCAnLW1hJywgJzIwMCcsICctbWV0YWxfYmluZGluZycsICctaW1hZScsICc8aW5maWxlLm1hZT4nLCAnLW9tYWUnLCAnPG91dGZpbGUubWFlPic=

> <r_lp_tautomer_probability>
1

> <r_epik_Ionization_Penalty>
0.00594261

> <r_epik_Ionization_Penalty_Charging>
0

> <r_epik_Ionization_Penalty_Neutral>
0.00594261

> <r_epik_State_Penalty>
0.00429776

> <r_epik_Charging_Adjusted_Penalty>
0.00429776

> <i_epik_Tot_Q>
0

> <i_epik_Tot_abs_Q>
0

> <r_epik_Metal_State_Penalty>
-0

> <b_epik_Metal_Only>
0

> <s_lp_Force_Field>
OPLS_2005

> <r_lp_Energy>
66.1404

> <b_lp_Chiralities_Consistent>
1

> <s_lp_Variant>
AV-unprocessed.smi:189-10

> <Gold.Version>
5.8.1

> <Gold.Id.Protein>
6NUR|6NUR_protein|mol2

> <Gold.PLP.Fitness>
44.0381

> <Gold.PLP.PLP>
-38.6330

> <Gold.PLP.part.hbond>
-1.8408

> <Gold.PLP.part.metal>
0.0000

> <Gold.PLP.part.buried>
-3.6887

> <Gold.PLP.part.nonpolar>
-37.1329

> <Gold.PLP.part.repulsive>
2.4617

> <Gold.PLP.ligand.clash>
0.0000

> <Gold.PLP.ligand.torsion>
0.2624

> <Gold.PLP.Chemscore.Hbond>
0.9913

> <Gold.PLP.Chemscore.CHOScore>
0.9659

> <Gold.PLP.Chemscore.Metal>
0.0000

> <Gold.Chemscore.Hbonds>
donor molecule, donor type, donor heavy atom, donor atom, acceptor molecule, acceptor atom, score
      L1  H    22    47       P1 10171  1.00
      L1  C    18    44       P1 10171  0.85

> <Gold.PLP.Chemscore.Internal.Correction>
0.0585

> <Gold.Rescore>
     Score         DG    S(hbond)    S(metal)    S(lipo)     H(rot)  DE(clash)    DE(int)     intcor
     12.40     -13.91       0.90        0.00      90.71       2.03       0.96       0.54       ----

> <Gold.Chemscore.Fitness>
12.4040

> <Gold.Chemscore.DG>
-13.9094

> <Gold.Chemscore.ZeroCoef>
-5.4800

> <Gold.Chemscore.Hbond>
0.9018

> <Gold.Chemscore.Metal>
0.0000

> <Gold.Chemscore.Lipo>
90.7134

> <Gold.Chemscore.Internal_Hbond>
0.0000

> <Gold.Chemscore.DEClash>
0.9616

> <Gold.Chemscore.DEInternal>
0.5438

> <Gold.Chemscore.Rot>
2.0297

> <Gold.Chemscore.Internal.Correction>
   9.000000E+99

> <Gold.Chemscore.Hbonds>
donor molecule, donor type, donor heavy atom, donor atom, acceptor molecule, acceptor atom, score
      L1  H    22    47       P1 10171  0.95

> <Gold.Chemscore.Hbond.Weighted>
-3.0120

> <Gold.Chemscore.Metal.Weighted>
-0.0000

> <Gold.Chemscore.Lipo.Weighted>
-10.6135

> <Gold.Chemscore.Internal_Hbond.Weighted>
0.0000

> <Gold.Chemscore.DEClash.Weighted>
0.9616

> <Gold.Chemscore.DEInternal.Weighted>
0.5438

> <Gold.Chemscore.Rot.Weighted>
5.1960

> <Gold.Chemscore.Internal.Correction.Weighted>
   9.000000E+99

> <Gold.Protein.RotatedTorsions>
[ 6907 6896 6895 6894 ] final   94.02 input  -60.11 | X-H torsion
[ 7974 7965 7964 7962 ] final  -80.38 input  175.53 | X-H torsion
[ 8008 7997 7996 7995 ] final -130.51 input   59.86 | X-H torsion
[ 10167 10162 10161 10158 ] final  -71.01 input  -65.29 | X-H torsion
[ 10718 10713 10712 10709 ] final -169.95 input   66.30 | X-H torsion
[ 10763 10752 10751 10750 ] final   98.01 input  -60.55 | X-H torsion
[ 11005 11000 10999 10996 ] final  107.73 input  -57.11 | X-H torsion

> <Gold.Protein.ActiveResidues>
 VAL166  LYS551  ARG553  GLY616  TRP617  ASP618  TYR619  PRO620  LYS621  CYS622 
 ASP623  PHE694  ASN695  SER759  ASP760  ASP761  ALA762  ILE779  LEU786  VAL792 
 PHE793  MET794  SER795  GLU796  ALA797  LYS798  CYS799  TRP800  GLU811  SER814 

> <Gold.Protein.RotatedAtoms>
  152.5451  134.1258  159.8418 H   0  0  0  0  0  0  0  0  0  0  0  0  # atno 6907 bound_to 6896
  151.1309  133.5030  159.2606 H   0  0  0  0  0  0  0  0  0  0  0  0  # atno 6908 bound_to 6896
  151.1676  135.0313  159.8792 H   0  0  0  0  0  0  0  0  0  0  0  0  # atno 6909 bound_to 6896
  145.5607  140.9482  143.1448 H   0  0  0  0  0  0  0  0  0  0  0  0  # atno 7974 bound_to 7965
  155.2969  140.0451  157.3027 H   0  0  0  0  0  0  0  0  0  0  0  0  # atno 8008 bound_to 7997
  154.5509  140.2317  155.8454 H   0  0  0  0  0  0  0  0  0  0  0  0  # atno 8009 bound_to 7997
  156.1966  140.3037  155.9446 H   0  0  0  0  0  0  0  0  0  0  0  0  # atno 8010 bound_to 7997
  140.5307  143.2322  151.7266 H   0  0  0  0  0  0  0  0  0  0  0  0  # atno 10167 bound_to 10162
  156.7190  130.9262  151.3096 H   0  0  0  0  0  0  0  0  0  0  0  0  # atno 10718 bound_to 10713
  153.2838  135.4163  155.1103 H   0  0  0  0  0  0  0  0  0  0  0  0  # atno 10763 bound_to 10752
  154.8498  135.3502  154.6075 H   0  0  0  0  0  0  0  0  0  0  0  0  # atno 10764 bound_to 10752
  153.6496  135.7053  153.5271 H   0  0  0  0  0  0  0  0  0  0  0  0  # atno 10765 bound_to 10752
  139.8832  134.9409  156.5864 H   0  0  0  0  0  0  0  0  0  0  0  0  # atno 11005 bound_to 11000
  144.7484  139.7258  143.7283 LP  0  0  0  0  0  0  0  0  0  0  0  0  # atno 17320 bound_to 7965
  146.1853  139.5065  142.9840 LP  0  0  0  0  0  0  0  0  0  0  0  0  # atno 17321 bound_to 7965
  139.4953  144.4118  152.0072 LP  0  0  0  0  0  0  0  0  0  0  0  0  # atno 17342 bound_to 10162
  140.3220  144.3417  150.6007 LP  0  0  0  0  0  0  0  0  0  0  0  0  # atno 17343 bound_to 10162
  157.6906  130.9229  150.0503 LP  0  0  0  0  0  0  0  0  0  0  0  0  # atno 17370 bound_to 10713
  156.1608  130.3644  149.9302 LP  0  0  0  0  0  0  0  0  0  0  0  0  # atno 17371 bound_to 10713
  140.7988  133.8522  155.8709 LP  0  0  0  0  0  0  0  0  0  0  0  0  # atno 17394 bound_to 11000
  140.9611  134.1655  157.4653 LP  0  0  0  0  0  0  0  0  0  0  0  0  # atno 17395 bound_to 11000

$$$$
