AV-unprocessed.smi:3068|AV-procd|sdf|11705|dock4
  -GOLD-   2272017103D 1   1.00000     0.00000
 Structure written by MMmdl.
 40 42  0  0  0  0  0  0  0  0  2 V2000
  150.1135  134.6680  157.5857 N   0  0  0  0  0  0  0  0  0  0  0  0
  150.1973  135.5459  156.8362 C   0  0  0  0  0  0  0  0  0  0  0  0
  150.3011  136.6511  155.8920 C   0  0  0  0  0  0  0  0  0  0  0  0
  151.4570  136.7487  155.1952 N   0  0  0  0  0  0  0  0  0  0  0  0
  151.5671  137.7702  154.3197 C   0  0  0  0  0  0  0  0  0  0  0  0
  150.5252  138.6999  154.1366 C   0  0  0  0  0  0  0  0  0  0  0  0
  149.3692  138.6110  154.8281 N   0  0  0  0  0  0  0  0  0  0  0  0
  149.2446  137.5882  155.7107 C   0  0  0  0  0  0  0  0  0  0  0  0
  148.0440  137.4795  156.4372 N   0  0  0  0  0  0  0  0  0  0  0  0
  146.7398  137.6340  155.8038 C   0  0  0  0  0  0  0  0  0  0  0  0
  146.7257  137.1181  154.3549 C   0  0  1  0  0  0  0  0  0  0  0  0
  146.5501  135.5898  154.2992 C   0  0  0  0  0  0  0  0  0  0  0  0
  146.4667  135.1259  152.8953 N   0  3  1  0  0  0  0  0  0  0  0  0
  146.3400  133.6501  152.7934 C   0  0  0  0  0  0  0  0  0  0  0  0
  146.3517  133.1943  151.3258 C   0  0  0  0  0  0  0  0  0  0  0  0
  145.2484  133.9000  150.5267 C   0  0  0  0  0  0  0  0  0  0  0  0
  145.3860  135.4217  150.6710 C   0  0  0  0  0  0  0  0  0  0  0  0
  145.3951  135.8446  152.1534 C   0  0  2  0  0  0  0  0  0  0  0  0
  145.5850  137.3671  152.3007 C   0  0  0  0  0  0  0  0  0  0  0  0
  145.6265  137.7183  153.6779 O   0  0  0  0  0  0  0  0  0  0  0  0
  152.4900  137.8466  153.7640 H   0  0  0  0  0  0  0  0  0  0  0  0
  150.6194  139.5155  153.4350 H   0  0  0  0  0  0  0  0  0  0  0  0
  148.0806  137.3918  157.4432 H   0  0  0  0  0  0  0  0  0  0  0  0
  145.9846  137.1189  156.3987 H   0  0  0  0  0  0  0  0  0  0  0  0
  146.4705  138.6903  155.8233 H   0  0  0  0  0  0  0  0  0  0  0  0
  147.6582  137.3907  153.8574 H   0  0  0  0  0  0  0  0  0  0  0  0
  147.3915  135.1022  154.7932 H   0  0  0  0  0  0  0  0  0  0  0  0
  145.6472  135.2941  154.8361 H   0  0  0  0  0  0  0  0  0  0  0  0
  147.1636  133.1757  153.3285 H   0  0  0  0  0  0  0  0  0  0  0  0
  145.4175  133.3273  153.2789 H   0  0  0  0  0  0  0  0  0  0  0  0
  147.3241  133.4120  150.8819 H   0  0  0  0  0  0  0  0  0  0  0  0
  146.2203  132.1133  151.2694 H   0  0  0  0  0  0  0  0  0  0  0  0
  145.3031  133.6145  149.4758 H   0  0  0  0  0  0  0  0  0  0  0  0
  144.2695  133.5814  150.8872 H   0  0  0  0  0  0  0  0  0  0  0  0
  146.3070  135.7499  150.1867 H   0  0  0  0  0  0  0  0  0  0  0  0
  144.5683  135.9159  150.1450 H   0  0  0  0  0  0  0  0  0  0  0  0
  144.4359  135.5745  152.5993 H   0  0  0  0  0  0  0  0  0  0  0  0
  146.4967  137.7019  151.8028 H   0  0  0  0  0  0  0  0  0  0  0  0
  144.7555  137.8972  151.8322 H   0  0  0  0  0  0  0  0  0  0  0  0
  147.3411  135.3740  152.4548 H   0  0  0  0  0  0  0  0  0  0  0  0
  1  2  3  0  0  0  0
  2  3  1  0  0  0  0
  3  8  1  0  0  0  0
  3  4  2  0  0  0  0
  4  5  1  0  0  0  0
  5  6  2  0  0  0  0
  5 21  1  0  0  0  0
  6  7  1  0  0  0  0
  6 22  1  0  0  0  0
  7  8  2  0  0  0  0
  8  9  1  0  0  0  0
  9 10  1  0  0  0  0
  9 23  1  0  0  0  0
 10 11  1  0  0  0  0
 10 24  1  0  0  0  0
 10 25  1  0  0  0  0
 11 20  1  0  0  0  0
 11 12  1  0  0  0  0
 11 26  1  0  0  0  0
 12 13  1  0  0  0  0
 12 27  1  0  0  0  0
 12 28  1  0  0  0  0
 13 18  1  0  0  0  0
 13 14  1  0  0  0  0
 13 40  1  0  0  0  0
 14 15  1  0  0  0  0
 14 29  1  0  0  0  0
 14 30  1  0  0  0  0
 15 16  1  0  0  0  0
 15 31  1  0  0  0  0
 15 32  1  0  0  0  0
 16 17  1  0  0  0  0
 16 33  1  0  0  0  0
 16 34  1  0  0  0  0
 17 18  1  0  0  0  0
 17 35  1  0  0  0  0
 17 36  1  0  0  0  0
 18 19  1  0  0  0  0
 18 37  1  0  0  0  0
 19 20  1  0  0  0  0
 19 38  1  0  0  0  0
 19 39  1  0  0  0  0
M  CHG  1  13   1
M  END
> <s_m_source_file>
AV-unprocessed.smi

> <i_m_source_file_index>
3068

> <i_lp_mmshare_version>
43012

> <i_f3d_flags>
0

> <s_epik_input>
TiNDYzFuW2NIXVtjSF1uYzFbTkhdW0NIMl1bQ0BIXShbQ0gyXTIpT1tDSDJdW0NAQEhdKE4yMylbQ0gyXVtDSDJdW0NIMl1bQ0gyXTM=

> <s_epik_cmdline>
J2VwaWtfcHl0aG9uJywgJy1waCcsICc3LjAnLCAnLXRuJywgJzgnLCAnLW1hJywgJzIwMCcsICctbWV0YWxfYmluZGluZycsICctaW1hZScsICc8aW5maWxlLm1hZT4nLCAnLW9tYWUnLCAnPG91dGZpbGUubWFlPic=

> <r_epik_Ionization_Penalty>
0.0804321

> <r_epik_Ionization_Penalty_Charging>
0.0803403

> <r_epik_Ionization_Penalty_Neutral>
9.17277e-05

> <r_epik_State_Penalty>
0.0711481

> <r_epik_Charging_Adjusted_Penalty>
0.151488

> <i_epik_Tot_Q>
1

> <i_epik_Tot_abs_Q>
1

> <r_epik_Metal_State_Penalty>
0.0711481

> <b_epik_Metal_Only>
0

> <s_lp_Force_Field>
OPLS_2005

> <r_lp_Energy>
36.4506

> <b_lp_Chiralities_Consistent>
1

> <s_lp_Variant>
AV-unprocessed.smi:3068-8

> <Gold.Version>
5.8.1

> <Gold.Id.Protein>
6NUR|6NUR_protein|mol2

> <Gold.PLP.Fitness>
37.3182

> <Gold.PLP.PLP>
-24.4316

> <Gold.PLP.part.hbond>
-3.0000

> <Gold.PLP.part.metal>
0.0000

> <Gold.PLP.part.buried>
-3.3315

> <Gold.PLP.part.nonpolar>
-19.1122

> <Gold.PLP.part.repulsive>
0.3994

> <Gold.PLP.ligand.clash>
0.0000

> <Gold.PLP.ligand.torsion>
0.7587

> <Gold.PLP.Chemscore.Hbond>
3.8000

> <Gold.PLP.Chemscore.CHOScore>
1.0000

> <Gold.PLP.Chemscore.Metal>
0.0000

> <Gold.Chemscore.Hbonds>
donor molecule, donor type, donor heavy atom, donor atom, acceptor molecule, acceptor atom, score
      L1  H    13    40       P1  7948  2.00
      P1  H  6896  6908       L1     1  0.80
      P1  H 10752 10765       L1     4  1.00
      L1  C     6    22       P1  7957  1.00

> <Gold.PLP.Chemscore.Internal.Correction>
0.0040

> <Gold.Rescore>
     Score         DG    S(hbond)    S(metal)    S(lipo)     H(rot)  DE(clash)    DE(int)     intcor
     16.16     -16.92       2.47        0.00      56.20       1.32       0.00       0.77       ----

> <Gold.Chemscore.Fitness>
16.1554

> <Gold.Chemscore.DG>
-16.9243

> <Gold.Chemscore.ZeroCoef>
-5.4800

> <Gold.Chemscore.Hbond>
2.4688

> <Gold.Chemscore.Metal>
0.0000

> <Gold.Chemscore.Lipo>
56.2045

> <Gold.Chemscore.Internal_Hbond>
0.0000

> <Gold.Chemscore.DEClash>
0.0000

> <Gold.Chemscore.DEInternal>
0.7688

> <Gold.Chemscore.Rot>
1.3193

> <Gold.Chemscore.Internal.Correction>
   9.000000E+99

> <Gold.Chemscore.Hbonds>
donor molecule, donor type, donor heavy atom, donor atom, acceptor molecule, acceptor atom, score
      L1  H    13    40       P1  7948  1.00
      P1  H  6896  6908       L1     1  0.79
      P1  H 10752 10765       L1     4  0.43

> <Gold.Chemscore.Hbond.Weighted>
-8.2457

> <Gold.Chemscore.Metal.Weighted>
-0.0000

> <Gold.Chemscore.Lipo.Weighted>
-6.5759

> <Gold.Chemscore.Internal_Hbond.Weighted>
0.0000

> <Gold.Chemscore.DEClash.Weighted>
0.0000

> <Gold.Chemscore.DEInternal.Weighted>
0.7688

> <Gold.Chemscore.Rot.Weighted>
3.3774

> <Gold.Chemscore.Internal.Correction.Weighted>
   9.000000E+99

> <Gold.Protein.RotatedTorsions>
[ 6907 6896 6895 6894 ] final  142.35 input  -60.11 | X-H torsion
[ 7974 7965 7964 7962 ] final   43.88 input  175.53 | X-H torsion
[ 8008 7997 7996 7995 ] final  131.80 input   59.86 | X-H torsion
[ 10167 10162 10161 10158 ] final  -16.35 input  -65.29 | X-H torsion
[ 10718 10713 10712 10709 ] final  -80.19 input   66.30 | X-H torsion
[ 10763 10752 10751 10750 ] final -169.20 input  -60.55 | X-H torsion
[ 11005 11000 10999 10996 ] final   35.12 input  -57.11 | X-H torsion

> <Gold.Protein.ActiveResidues>
 VAL166  LYS551  ARG553  GLY616  TRP617  ASP618  TYR619  PRO620  LYS621  CYS622 
 ASP623  PHE694  ASN695  SER759  ASP760  ASP761  ALA762  ILE779  LEU786  VAL792 
 PHE793  MET794  SER795  GLU796  ALA797  LYS798  CYS799  TRP800  GLU811  SER814 

> <Gold.Protein.RotatedAtoms>
  152.2198  133.4974  159.5155 H   0  0  0  0  0  0  0  0  0  0  0  0  # atno 6907 bound_to 6896
  150.7010  134.1358  159.4095 H   0  0  0  0  0  0  0  0  0  0  0  0  # atno 6908 bound_to 6896
  151.9278  135.0269  160.0577 H   0  0  0  0  0  0  0  0  0  0  0  0  # atno 6909 bound_to 6896
  146.0617  139.5137  142.9654 H   0  0  0  0  0  0  0  0  0  0  0  0  # atno 7974 bound_to 7965
  156.2975  140.2562  156.2984 H   0  0  0  0  0  0  0  0  0  0  0  0  # atno 8008 bound_to 7997
  154.9441  140.0395  157.2130 H   0  0  0  0  0  0  0  0  0  0  0  0  # atno 8009 bound_to 7997
  154.8098  140.2842  155.5866 H   0  0  0  0  0  0  0  0  0  0  0  0  # atno 8010 bound_to 7997
  140.7232  143.5125  150.9733 H   0  0  0  0  0  0  0  0  0  0  0  0  # atno 10167 bound_to 10162
  156.0076  130.4567  150.3762 H   0  0  0  0  0  0  0  0  0  0  0  0  # atno 10718 bound_to 10713
  154.6549  135.2916  154.9941 H   0  0  0  0  0  0  0  0  0  0  0  0  # atno 10763 bound_to 10752
  154.1021  135.6575  153.4874 H   0  0  0  0  0  0  0  0  0  0  0  0  # atno 10764 bound_to 10752
  153.0396  135.5245  154.7473 H   0  0  0  0  0  0  0  0  0  0  0  0  # atno 10765 bound_to 10752
  140.2459  134.3360  155.7908 H   0  0  0  0  0  0  0  0  0  0  0  0  # atno 11005 bound_to 11000
  145.6548  141.0254  143.1740 LP  0  0  0  0  0  0  0  0  0  0  0  0  # atno 17320 bound_to 7965
  144.7179  139.8133  143.7392 LP  0  0  0  0  0  0  0  0  0  0  0  0  # atno 17321 bound_to 7965
  139.8839  143.7038  152.3154 LP  0  0  0  0  0  0  0  0  0  0  0  0  # atno 17342 bound_to 10162
  139.7329  144.7578  151.0773 LP  0  0  0  0  0  0  0  0  0  0  0  0  # atno 17343 bound_to 10162
  157.1844  131.0400  151.2732 LP  0  0  0  0  0  0  0  0  0  0  0  0  # atno 17370 bound_to 10713
  157.4117  130.7389  149.6844 LP  0  0  0  0  0  0  0  0  0  0  0  0  # atno 17371 bound_to 10713
  141.2206  133.7325  156.8960 LP  0  0  0  0  0  0  0  0  0  0  0  0  # atno 17394 bound_to 11000
  140.1606  134.9168  157.2710 LP  0  0  0  0  0  0  0  0  0  0  0  0  # atno 17395 bound_to 11000

$$$$
