AV-unprocessed.smi:21|AV-procd|sdf|143|dock1
  -GOLD-   2262015353D 1   1.00000     0.00000
 Structure written by MMmdl.
 62 65  0  0  0  0  0  0  0  0  2 V2000
  144.2018  132.2016  151.2374 C   0  0  0  0  0  0  0  0  0  0  0  0
  144.3303  133.6044  151.4074 O   0  0  0  0  0  0  0  0  0  0  0  0
  145.5961  134.1165  151.0118 C   0  0  1  0  0  0  0  0  0  0  0  0
  145.5122  135.6371  150.9914 C   0  0  0  0  0  0  0  0  0  0  0  0
  145.7554  136.0344  152.4505 C   0  0  2  0  0  0  0  0  0  0  0  0
  146.2721  137.4773  152.6330 C   0  0  0  0  0  0  0  0  0  0  0  0
  146.3347  137.8850  154.0370 N   0  0  0  0  0  0  0  0  0  0  0  0
  145.0966  138.2607  154.7074 C   0  0  0  0  0  0  0  0  0  0  0  0
  147.5207  138.3339  154.5274 C   0  0  0  0  0  0  0  0  0  0  0  0
  148.4909  137.4159  154.7766 N   0  0  0  0  0  0  0  0  0  0  0  0
  149.6813  137.7958  155.2476 C   0  0  0  0  0  0  0  0  0  0  0  0
  150.1129  139.0262  155.5230 N   0  0  0  0  0  0  0  0  0  0  0  0
  149.1534  139.9591  155.2639 C   0  0  0  0  0  0  0  0  0  0  0  0
  147.8380  139.7029  154.7787 C   0  0  0  0  0  0  0  0  0  0  0  0
  147.1546  140.9051  154.6363 N   0  0  0  0  0  0  0  0  0  0  0  0
  148.0083  141.8122  155.0217 C   0  0  0  0  0  0  0  0  0  0  0  0
  149.2441  141.3352  155.3951 N   0  0  0  0  0  0  0  0  0  0  0  0
  150.3828  142.1208  155.8515 C   0  0  0  0  0  0  0  0  0  0  0  0
  150.7655  141.8950  157.3410 C   0  0  1  0  0  0  0  0  0  0  0  0
  151.2618  140.4539  157.6052 C   0  0  0  0  0  0  0  0  0  0  0  0
  152.5226  140.2387  157.0063 O   0  0  0  0  0  0  0  0  0  0  0  0
  151.7815  142.9479  157.8581 C   0  0  2  0  0  0  0  0  0  0  0  0
  151.9664  142.9804  159.3665 C   0  0  0  0  0  0  0  0  0  0  0  0
  152.5841  144.3564  159.5993 C   0  0  0  0  0  0  0  0  0  0  0  0
  152.1170  145.1813  158.5376 O   0  0  0  0  0  0  0  0  0  0  0  0
  151.3636  144.4021  157.6166 C   0  0  0  0  0  0  0  0  0  0  0  0
  146.7318  135.0401  152.9520 N   0  3  1  0  0  0  0  0  0  0  0  0
  146.6055  134.7416  154.3955 C   0  0  0  0  0  0  0  0  0  0  0  0
  146.6574  133.8375  152.0871 C   0  0  0  0  0  0  0  0  0  0  0  0
  145.8800  133.7299  150.0312 H   0  0  0  0  0  0  0  0  0  0  0  0
  144.8205  135.9020  152.9984 H   0  0  0  0  0  0  0  0  0  0  0  0
  143.2139  131.8846  151.5712 H   0  0  0  0  0  0  0  0  0  0  0  0
  144.9423  131.6515  151.8181 H   0  0  0  0  0  0  0  0  0  0  0  0
  144.3047  131.9221  150.1881 H   0  0  0  0  0  0  0  0  0  0  0  0
  146.3054  136.0357  150.3572 H   0  0  0  0  0  0  0  0  0  0  0  0
  144.5607  136.0009  150.6022 H   0  0  0  0  0  0  0  0  0  0  0  0
  147.2807  137.5543  152.2265 H   0  0  0  0  0  0  0  0  0  0  0  0
  145.6708  138.1694  152.0430 H   0  0  0  0  0  0  0  0  0  0  0  0
  145.2047  138.2021  155.7910 H   0  0  0  0  0  0  0  0  0  0  0  0
  144.2890  137.5873  154.4198 H   0  0  0  0  0  0  0  0  0  0  0  0
  144.8017  139.2753  154.4382 H   0  0  0  0  0  0  0  0  0  0  0  0
  150.3902  137.0006  155.4264 H   0  0  0  0  0  0  0  0  0  0  0  0
  147.7564  142.8620  155.0331 H   0  0  0  0  0  0  0  0  0  0  0  0
  151.2305  141.8959  155.2042 H   0  0  0  0  0  0  0  0  0  0  0  0
  150.1605  143.1740  155.6770 H   0  0  0  0  0  0  0  0  0  0  0  0
  149.8513  142.0256  157.9223 H   0  0  0  0  0  0  0  0  0  0  0  0
  151.3184  140.2403  158.6724 H   0  0  0  0  0  0  0  0  0  0  0  0
  150.5817  139.7202  157.1744 H   0  0  0  0  0  0  0  0  0  0  0  0
  152.7376  139.3212  157.0765 H   0  0  0  0  0  0  0  0  0  0  0  0
  152.7586  142.7779  157.4039 H   0  0  0  0  0  0  0  0  0  0  0  0
  151.0003  142.9160  159.8696 H   0  0  0  0  0  0  0  0  0  0  0  0
  152.6006  142.1769  159.7423 H   0  0  0  0  0  0  0  0  0  0  0  0
  152.3159  144.7701  160.5718 H   0  0  0  0  0  0  0  0  0  0  0  0
  153.6718  144.3022  159.5421 H   0  0  0  0  0  0  0  0  0  0  0  0
  151.5379  144.7351  156.5944 H   0  0  0  0  0  0  0  0  0  0  0  0
  150.3042  144.5400  157.8369 H   0  0  0  0  0  0  0  0  0  0  0  0
  145.6364  134.2937  154.6199 H   0  0  0  0  0  0  0  0  0  0  0  0
  146.7092  135.6495  154.9897 H   0  0  0  0  0  0  0  0  0  0  0  0
  147.3845  134.0461  154.7092 H   0  0  0  0  0  0  0  0  0  0  0  0
  146.4497  132.9274  152.6509 H   0  0  0  0  0  0  0  0  0  0  0  0
  147.6343  133.7079  151.6205 H   0  0  0  0  0  0  0  0  0  0  0  0
  147.6493  135.4360  152.8050 H   0  0  0  0  0  0  0  0  0  0  0  0
  1  2  1  0  0  0  0
  1 32  1  0  0  0  0
  1 33  1  0  0  0  0
  1 34  1  0  0  0  0
  2  3  1  0  0  0  0
  3 30  1  0  0  0  0
  3 29  1  0  0  0  0
  3  4  1  0  0  0  0
  4  5  1  0  0  0  0
  4 35  1  0  0  0  0
  4 36  1  0  0  0  0
  5 31  1  0  0  0  0
  5  6  1  0  0  0  0
  5 27  1  0  0  0  0
  6  7  1  0  0  0  0
  6 37  1  0  0  0  0
  6 38  1  0  0  0  0
  7  8  1  0  0  0  0
  7  9  1  0  0  0  0
  8 39  1  0  0  0  0
  8 40  1  0  0  0  0
  8 41  1  0  0  0  0
  9 14  1  0  0  0  0
  9 10  2  0  0  0  0
 10 11  1  0  0  0  0
 11 12  2  0  0  0  0
 11 42  1  0  0  0  0
 12 13  1  0  0  0  0
 13 17  1  0  0  0  0
 13 14  2  0  0  0  0
 14 15  1  0  0  0  0
 15 16  2  0  0  0  0
 16 17  1  0  0  0  0
 16 43  1  0  0  0  0
 17 18  1  0  0  0  0
 18 19  1  0  0  0  0
 18 44  1  0  0  0  0
 18 45  1  0  0  0  0
 19 20  1  0  0  0  0
 19 22  1  0  0  0  0
 19 46  1  0  0  0  0
 20 21  1  0  0  0  0
 20 47  1  0  0  0  0
 20 48  1  0  0  0  0
 21 49  1  0  0  0  0
 22 26  1  0  0  0  0
 22 23  1  0  0  0  0
 22 50  1  0  0  0  0
 23 24  1  0  0  0  0
 23 51  1  0  0  0  0
 23 52  1  0  0  0  0
 24 25  1  0  0  0  0
 24 53  1  0  0  0  0
 24 54  1  0  0  0  0
 25 26  1  0  0  0  0
 26 55  1  0  0  0  0
 26 56  1  0  0  0  0
 27 28  1  0  0  0  0
 27 29  1  0  0  0  0
 27 62  1  0  0  0  0
 28 57  1  0  0  0  0
 28 58  1  0  0  0  0
 28 59  1  0  0  0  0
 29 60  1  0  0  0  0
 29 61  1  0  0  0  0
M  CHG  1  27   1
M  END
> <s_m_source_file>
AV-unprocessed.smi

> <i_m_source_file_index>
21

> <i_lp_mmshare_version>
43012

> <i_f3d_flags>
0

> <s_epik_input>
W0NIM11PW0NASF0xW0NIMl1bQ0BIXShOKFtDSDNdKVtDSDJdMSlbQ0gyXU4oW0NIM10pYyhuW2NIXW4yKWMoYzIzKW5bY0hdbjNbQ0gyXVtDQEhdKFtDSDJdW09IXSlbQ0BASF00W0NIMl1bQ0gyXU9bQ0gyXTQ=

> <s_epik_cmdline>
J2VwaWtfcHl0aG9uJywgJy1waCcsICc3LjAnLCAnLXRuJywgJzgnLCAnLW1hJywgJzIwMCcsICctbWV0YWxfYmluZGluZycsICctaW1hZScsICc8aW5maWxlLm1hZT4nLCAnLW9tYWUnLCAnPG91dGZpbGUubWFlPic=

> <r_lp_tautomer_probability>
1

> <r_epik_Ionization_Penalty>
0.0157465

> <r_epik_Ionization_Penalty_Charging>
0.015354

> <r_epik_Ionization_Penalty_Neutral>
0.000392529

> <r_epik_State_Penalty>
0.0120612

> <r_epik_Charging_Adjusted_Penalty>
0.0274152

> <i_epik_Tot_Q>
1

> <i_epik_Tot_abs_Q>
1

> <r_epik_Metal_State_Penalty>
0.0121253

> <b_epik_Metal_Only>
0

> <s_lp_Force_Field>
OPLS_2005

> <r_lp_Energy>
58.9185

> <b_lp_Chiralities_Consistent>
1

> <s_lp_Variant>
AV-unprocessed.smi:21-23

> <Gold.Version>
5.8.1

> <Gold.Id.Protein>
6NUR|6NUR_protein|mol2

> <Gold.PLP.Fitness>
50.2330

> <Gold.PLP.PLP>
-43.5307

> <Gold.PLP.part.hbond>
-2.0000

> <Gold.PLP.part.metal>
0.0000

> <Gold.PLP.part.buried>
-7.3380

> <Gold.PLP.part.nonpolar>
-36.0442

> <Gold.PLP.part.repulsive>
0.9433

> <Gold.PLP.ligand.clash>
0.0000

> <Gold.PLP.ligand.torsion>
1.6254

> <Gold.PLP.Chemscore.Hbond>
2.0043

> <Gold.PLP.Chemscore.CHOScore>
1.0000

> <Gold.PLP.Chemscore.Metal>
0.0000

> <Gold.Chemscore.Hbonds>
donor molecule, donor type, donor heavy atom, donor atom, acceptor molecule, acceptor atom, score
      L1  H    27    62       P1  7948  2.00
      L1  C    16    43       P1  8028  1.00

> <Gold.PLP.Chemscore.Internal.Correction>
0.9402

> <Gold.Rescore>
     Score         DG    S(hbond)    S(metal)    S(lipo)     H(rot)  DE(clash)    DE(int)     intcor
     11.25     -13.26       1.00        0.00     105.29       3.08       0.02       1.99       ----

> <Gold.Chemscore.Fitness>
11.2483

> <Gold.Chemscore.DG>
-13.2582

> <Gold.Chemscore.ZeroCoef>
-5.4800

> <Gold.Chemscore.Hbond>
0.9979

> <Gold.Chemscore.Metal>
0.0000

> <Gold.Chemscore.Lipo>
105.2931

> <Gold.Chemscore.Internal_Hbond>
0.0000

> <Gold.Chemscore.DEClash>
0.0191

> <Gold.Chemscore.DEInternal>
1.9907

> <Gold.Chemscore.Rot>
3.0758

> <Gold.Chemscore.Internal.Correction>
   9.000000E+99

> <Gold.Chemscore.Hbonds>
donor molecule, donor type, donor heavy atom, donor atom, acceptor molecule, acceptor atom, score
      L1  H    27    62       P1  7948  0.98

> <Gold.Chemscore.Hbond.Weighted>
-3.3330

> <Gold.Chemscore.Metal.Weighted>
-0.0000

> <Gold.Chemscore.Lipo.Weighted>
-12.3193

> <Gold.Chemscore.Internal_Hbond.Weighted>
0.0000

> <Gold.Chemscore.DEClash.Weighted>
0.0191

> <Gold.Chemscore.DEInternal.Weighted>
1.9907

> <Gold.Chemscore.Rot.Weighted>
7.8741

> <Gold.Chemscore.Internal.Correction.Weighted>
   9.000000E+99

> <Gold.Protein.RotatedTorsions>
[ 6907 6896 6895 6894 ] final  116.61 input  -60.11 | X-H torsion
[ 7974 7965 7964 7962 ] final   -2.48 input  175.53 | X-H torsion
[ 8008 7997 7996 7995 ] final    9.60 input   59.86 | X-H torsion
[ 10167 10162 10161 10158 ] final   16.93 input  -65.29 | X-H torsion
[ 10718 10713 10712 10709 ] final   -3.75 input   66.30 | X-H torsion
[ 10763 10752 10751 10750 ] final  127.95 input  -60.55 | X-H torsion
[ 11005 11000 10999 10996 ] final  -98.62 input  -57.11 | X-H torsion

> <Gold.Protein.ActiveResidues>
 VAL166  LYS551  ARG553  GLY616  TRP617  ASP618  TYR619  PRO620  LYS621  CYS622 
 ASP623  PHE694  ASN695  SER759  ASP760  ASP761  ALA762  ILE779  LEU786  VAL792 
 PHE793  MET794  SER795  GLU796  ALA797  LYS798  CYS799  TRP800  GLU811  SER814 

> <Gold.Protein.RotatedAtoms>
  152.4667  133.7938  159.6915 H   0  0  0  0  0  0  0  0  0  0  0  0  # atno 6907 bound_to 6896
  150.8635  133.7599  159.2991 H   0  0  0  0  0  0  0  0  0  0  0  0  # atno 6908 bound_to 6896
  151.5157  135.1069  159.9917 H   0  0  0  0  0  0  0  0  0  0  0  0  # atno 6909 bound_to 6896
  146.2404  140.1577  142.8333 H   0  0  0  0  0  0  0  0  0  0  0  0  # atno 7974 bound_to 7965
  154.7822  140.2821  155.6055 H   0  0  0  0  0  0  0  0  0  0  0  0  # atno 8008 bound_to 7997
  156.2951  140.2621  156.2578 H   0  0  0  0  0  0  0  0  0  0  0  0  # atno 8009 bound_to 7997
  154.9771  140.0375  157.2250 H   0  0  0  0  0  0  0  0  0  0  0  0  # atno 8010 bound_to 7997
  140.5762  143.9067  150.6752 H   0  0  0  0  0  0  0  0  0  0  0  0  # atno 10167 bound_to 10162
  156.7714  130.5301  149.5767 H   0  0  0  0  0  0  0  0  0  0  0  0  # atno 10718 bound_to 10713
  153.7177  135.3258  155.3260 H   0  0  0  0  0  0  0  0  0  0  0  0  # atno 10763 bound_to 10752
  154.8365  135.4492  154.1249 H   0  0  0  0  0  0  0  0  0  0  0  0  # atno 10764 bound_to 10752
  153.2361  135.6965  153.7915 H   0  0  0  0  0  0  0  0  0  0  0  0  # atno 10765 bound_to 10752
  141.1338  133.8259  157.0863 H   0  0  0  0  0  0  0  0  0  0  0  0  # atno 11005 bound_to 11000
  145.0115  140.8718  143.5221 LP  0  0  0  0  0  0  0  0  0  0  0  0  # atno 17320 bound_to 7965
  145.1611  139.2458  143.5391 LP  0  0  0  0  0  0  0  0  0  0  0  0  # atno 17321 bound_to 7965
  140.2555  143.3562  152.1368 LP  0  0  0  0  0  0  0  0  0  0  0  0  # atno 17342 bound_to 10162
  139.5144  144.6947  151.5662 LP  0  0  0  0  0  0  0  0  0  0  0  0  # atno 17343 bound_to 10162
  156.1275  130.6154  151.0285 LP  0  0  0  0  0  0  0  0  0  0  0  0  # atno 17370 bound_to 10713
  157.6689  131.0866  150.7661 LP  0  0  0  0  0  0  0  0  0  0  0  0  # atno 17371 bound_to 10713
  140.0420  134.9849  157.0979 LP  0  0  0  0  0  0  0  0  0  0  0  0  # atno 17394 bound_to 11000
  140.4121  134.1970  155.7163 LP  0  0  0  0  0  0  0  0  0  0  0  0  # atno 17395 bound_to 11000

$$$$
