AV-unprocessed.smi:2873|AV-procd|sdf|11037|dock3
  -GOLD-   2272015503D 1   1.00000     0.00000
 Structure written by MMmdl.
 40 42  0  0  0  0  0  0  0  0  1 V2000
  144.9753  135.8080  150.5460 C   0  0  0  0  0  0  0  0  0  0  0  0
  145.0895  134.8418  151.7433 C   0  0  2  0  0  0  0  0  0  0  0  0
  145.2860  135.6251  153.0637 C   0  0  0  0  0  0  0  0  0  0  0  0
  146.5145  136.4166  153.0788 N   0  0  0  0  0  0  0  0  0  0  0  0
  146.8933  137.2566  154.0519 C   0  0  0  0  0  0  0  0  0  0  0  0
  146.2187  137.4865  155.0548 O   0  0  0  0  0  0  0  0  0  0  0  0
  148.0872  137.8064  153.7740 N   0  0  0  0  0  0  0  0  0  0  0  0
  148.8613  138.6968  154.5657 C   0  0  0  0  0  0  0  0  0  0  0  0
  149.9466  139.3690  153.9659 C   0  0  0  0  0  0  0  0  0  0  0  0
  150.7370  140.2161  154.6586 N   0  0  0  0  0  0  0  0  0  0  0  0
  150.4417  140.3963  155.9489 C   0  0  0  0  0  0  0  0  0  0  0  0
  151.3445  141.3047  156.7245 C   0  0  0  0  0  0  0  0  0  0  0  0
  151.2067  141.4381  158.2274 C   0  0  0  0  0  0  0  0  0  0  0  0
  150.8160  142.5852  157.3380 C   0  0  0  0  0  0  0  0  0  0  0  0
  149.4586  139.8019  156.6306 N   0  0  0  0  0  0  0  0  0  0  0  0
  148.6623  138.9531  155.9452 C   0  0  0  0  0  0  0  0  0  0  0  0
  146.2230  133.8202  151.5073 C   0  0  0  0  0  0  0  0  0  0  0  0
  145.6611  132.6719  150.6677 C   0  0  0  0  0  0  0  0  0  0  0  0
  144.3082  132.3199  151.2812 C   0  0  0  0  0  0  0  0  0  0  0  0
  143.5565  133.8676  151.8437 S   0  0  0  0  0  0  0  0  0  0  0  0
  145.8966  136.3698  150.3905 H   0  0  0  0  0  0  0  0  0  0  0  0
  144.1713  136.5289  150.6977 H   0  0  0  0  0  0  0  0  0  0  0  0
  144.7617  135.2757  149.6188 H   0  0  0  0  0  0  0  0  0  0  0  0
  144.4545  136.3162  153.2052 H   0  0  0  0  0  0  0  0  0  0  0  0
  145.2534  134.9465  153.9180 H   0  0  0  0  0  0  0  0  0  0  0  0
  147.1338  136.2981  152.2905 H   0  0  0  0  0  0  0  0  0  0  0  0
  148.4844  137.5713  152.8763 H   0  0  0  0  0  0  0  0  0  0  0  0
  150.1857  139.2263  152.9221 H   0  0  0  0  0  0  0  0  0  0  0  0
  152.3476  141.3201  156.3024 H   0  0  0  0  0  0  0  0  0  0  0  0
  150.4044  140.8882  158.7155 H   0  0  0  0  0  0  0  0  0  0  0  0
  152.1217  141.5400  158.8073 H   0  0  0  0  0  0  0  0  0  0  0  0
  151.4696  143.4549  157.3217 H   0  0  0  0  0  0  0  0  0  0  0  0
  149.7539  142.7985  157.2336 H   0  0  0  0  0  0  0  0  0  0  0  0
  147.8881  138.4771  156.5255 H   0  0  0  0  0  0  0  0  0  0  0  0
  147.0973  134.2739  151.0393 H   0  0  0  0  0  0  0  0  0  0  0  0
  146.5565  133.4097  152.4613 H   0  0  0  0  0  0  0  0  0  0  0  0
  145.5274  132.9975  149.6357 H   0  0  0  0  0  0  0  0  0  0  0  0
  146.3328  131.8132  150.6512 H   0  0  0  0  0  0  0  0  0  0  0  0
  143.6587  131.7989  150.5774 H   0  0  0  0  0  0  0  0  0  0  0  0
  144.4479  131.6745  152.1489 H   0  0  0  0  0  0  0  0  0  0  0  0
  1  2  1  0  0  0  0
  1 21  1  0  0  0  0
  1 22  1  0  0  0  0
  1 23  1  0  0  0  0
  2 20  1  0  0  0  0
  2  3  1  0  0  0  0
  2 17  1  0  0  0  0
  3  4  1  0  0  0  0
  3 24  1  0  0  0  0
  3 25  1  0  0  0  0
  4  5  1  0  0  0  0
  4 26  1  0  0  0  0
  5  6  2  0  0  0  0
  5  7  1  0  0  0  0
  7  8  1  0  0  0  0
  7 27  1  0  0  0  0
  8 16  1  0  0  0  0
  8  9  2  0  0  0  0
  9 10  1  0  0  0  0
  9 28  1  0  0  0  0
 10 11  2  0  0  0  0
 11 12  1  0  0  0  0
 11 15  1  0  0  0  0
 12 14  1  0  0  0  0
 12 13  1  0  0  0  0
 12 29  1  0  0  0  0
 13 14  1  0  0  0  0
 13 30  1  0  0  0  0
 13 31  1  0  0  0  0
 14 32  1  0  0  0  0
 14 33  1  0  0  0  0
 15 16  2  0  0  0  0
 16 34  1  0  0  0  0
 17 18  1  0  0  0  0
 17 35  1  0  0  0  0
 17 36  1  0  0  0  0
 18 19  1  0  0  0  0
 18 37  1  0  0  0  0
 18 38  1  0  0  0  0
 19 20  1  0  0  0  0
 19 39  1  0  0  0  0
 19 40  1  0  0  0  0
M  END
> <s_m_source_file>
AV-unprocessed.smi

> <i_m_source_file_index>
2873

> <i_lp_mmshare_version>
43012

> <i_f3d_flags>
0

> <s_epik_input>
UzFbQ0gyXVtDSDJdW0NIMl1bQ0BAXTEoW0NIM10pW0NIMl1bTkhdQyg9TylbTkhdYzJbY0hdbmMobltjSF0yKVtDSF0zW0NIMl1bQ0gyXTM=

> <s_epik_cmdline>
J2VwaWtfcHl0aG9uJywgJy1waCcsICc3LjAnLCAnLXRuJywgJzgnLCAnLW1hJywgJzIwMCcsICctbWV0YWxfYmluZGluZycsICctaW1hZScsICc8aW5maWxlLm1hZT4nLCAnLW9tYWUnLCAnPG91dGZpbGUubWFlPic=

> <r_lp_tautomer_probability>
1

> <r_epik_Ionization_Penalty>
2.48741e-05

> <r_epik_Ionization_Penalty_Charging>
0

> <r_epik_Ionization_Penalty_Neutral>
2.48741e-05

> <r_epik_State_Penalty>
-0

> <r_epik_Charging_Adjusted_Penalty>
0

> <i_epik_Tot_Q>
0

> <i_epik_Tot_abs_Q>
0

> <r_epik_Metal_State_Penalty>
-0

> <b_epik_Metal_Only>
0

> <s_lp_Force_Field>
OPLS_2005

> <r_lp_Energy>
11.3468

> <b_lp_Chiralities_Consistent>
1

> <s_lp_Variant>
AV-unprocessed.smi:2873-2

> <Gold.Version>
5.8.1

> <Gold.Id.Protein>
6NUR|6NUR_protein|mol2

> <Gold.PLP.Fitness>
42.6647

> <Gold.PLP.PLP>
-30.9033

> <Gold.PLP.part.hbond>
-3.0000

> <Gold.PLP.part.metal>
0.0000

> <Gold.PLP.part.buried>
-3.1803

> <Gold.PLP.part.nonpolar>
-24.6167

> <Gold.PLP.part.repulsive>
0.1186

> <Gold.PLP.ligand.clash>
0.0000

> <Gold.PLP.ligand.torsion>
0.1192

> <Gold.PLP.Chemscore.Hbond>
2.9600

> <Gold.PLP.Chemscore.CHOScore>
0.9973

> <Gold.PLP.Chemscore.Metal>
0.0000

> <Gold.Chemscore.Hbonds>
donor molecule, donor type, donor heavy atom, donor atom, acceptor molecule, acceptor atom, score
      L1  H     4    26       P1  7948  0.85
      L1  H     7    27       P1  7948  0.90
      P1  H  7989  7998       L1    10  1.00
      L1  C     9    28       P1  7957  0.95

> <Gold.PLP.Chemscore.Internal.Correction>
0.1279

> <Gold.Rescore>
     Score         DG    S(hbond)    S(metal)    S(lipo)     H(rot)  DE(clash)    DE(int)     intcor
     17.66     -19.40       2.57        0.00      75.17       1.35       0.49       1.25       ----

> <Gold.Chemscore.Fitness>
17.6601

> <Gold.Chemscore.DG>
-19.3956

> <Gold.Chemscore.ZeroCoef>
-5.4800

> <Gold.Chemscore.Hbond>
2.5678

> <Gold.Chemscore.Metal>
0.0000

> <Gold.Chemscore.Lipo>
75.1738

> <Gold.Chemscore.Internal_Hbond>
0.0000

> <Gold.Chemscore.DEClash>
0.4856

> <Gold.Chemscore.DEInternal>
1.2499

> <Gold.Chemscore.Rot>
1.3501

> <Gold.Chemscore.Internal.Correction>
   9.000000E+99

> <Gold.Chemscore.Hbonds>
donor molecule, donor type, donor heavy atom, donor atom, acceptor molecule, acceptor atom, score
      L1  H     4    26       P1  7948  0.85
      L1  H     7    27       P1  7948  0.88
      P1  H  7989  7998       L1    10  0.34

> <Gold.Chemscore.Hbond.Weighted>
-8.5765

> <Gold.Chemscore.Metal.Weighted>
-0.0000

> <Gold.Chemscore.Lipo.Weighted>
-8.7953

> <Gold.Chemscore.Internal_Hbond.Weighted>
0.0000

> <Gold.Chemscore.DEClash.Weighted>
0.4856

> <Gold.Chemscore.DEInternal.Weighted>
1.2499

> <Gold.Chemscore.Rot.Weighted>
3.4563

> <Gold.Chemscore.Internal.Correction.Weighted>
   9.000000E+99

> <Gold.Protein.RotatedTorsions>
[ 6907 6896 6895 6894 ] final    3.77 input  -60.11 | X-H torsion
[ 7974 7965 7964 7962 ] final -177.40 input  175.53 | X-H torsion
[ 8008 7997 7996 7995 ] final   32.75 input   59.86 | X-H torsion
[ 10167 10162 10161 10158 ] final  150.78 input  -65.29 | X-H torsion
[ 10718 10713 10712 10709 ] final  177.20 input   66.30 | X-H torsion
[ 10763 10752 10751 10750 ] final  -40.11 input  -60.55 | X-H torsion
[ 11005 11000 10999 10996 ] final  -79.94 input  -57.11 | X-H torsion

> <Gold.Protein.ActiveResidues>
 VAL166  LYS551  ARG553  GLY616  TRP617  ASP618  TYR619  PRO620  LYS621  CYS622 
 ASP623  PHE694  ASN695  SER759  ASP760  ASP761  ALA762  ILE779  LEU786  VAL792 
 PHE793  MET794  SER795  GLU796  ALA797  LYS798  CYS799  TRP800  GLU811  SER814 

> <Gold.Protein.RotatedAtoms>
  151.6305  135.1023  160.0120 H   0  0  0  0  0  0  0  0  0  0  0  0  # atno 6907 bound_to 6896
  152.4109  133.6957  159.6405 H   0  0  0  0  0  0  0  0  0  0  0  0  # atno 6908 bound_to 6896
  150.7999  133.8543  159.3255 H   0  0  0  0  0  0  0  0  0  0  0  0  # atno 6909 bound_to 6896
  144.7127  140.1025  143.6415 H   0  0  0  0  0  0  0  0  0  0  0  0  # atno 7974 bound_to 7965
  155.1275  140.3254  155.4482 H   0  0  0  0  0  0  0  0  0  0  0  0  # atno 8008 bound_to 7997
  156.2644  140.2016  156.6343 H   0  0  0  0  0  0  0  0  0  0  0  0  # atno 8009 bound_to 7997
  154.6638  140.0544  157.0078 H   0  0  0  0  0  0  0  0  0  0  0  0  # atno 8010 bound_to 7997
  139.4847  144.5494  151.7426 H   0  0  0  0  0  0  0  0  0  0  0  0  # atno 10167 bound_to 10162
  156.9088  130.9903  151.3024 H   0  0  0  0  0  0  0  0  0  0  0  0  # atno 10718 bound_to 10713
  153.9406  135.6762  153.4744 H   0  0  0  0  0  0  0  0  0  0  0  0  # atno 10763 bound_to 10752
  153.0934  135.4863  154.8729 H   0  0  0  0  0  0  0  0  0  0  0  0  # atno 10764 bound_to 10752
  154.7379  135.3153  154.8737 H   0  0  0  0  0  0  0  0  0  0  0  0  # atno 10765 bound_to 10752
  141.1668  133.7128  156.8198 H   0  0  0  0  0  0  0  0  0  0  0  0  # atno 11005 bound_to 11000
  145.9525  139.2743  143.1204 LP  0  0  0  0  0  0  0  0  0  0  0  0  # atno 17320 bound_to 7965
  145.9308  140.9050  143.0357 LP  0  0  0  0  0  0  0  0  0  0  0  0  # atno 17321 bound_to 7965
  140.5046  144.1117  150.5979 LP  0  0  0  0  0  0  0  0  0  0  0  0  # atno 17342 bound_to 10162
  140.4022  143.2698  151.9934 LP  0  0  0  0  0  0  0  0  0  0  0  0  # atno 17343 bound_to 10162
  157.5980  130.8492  149.8759 LP  0  0  0  0  0  0  0  0  0  0  0  0  # atno 17370 bound_to 10713
  156.0546  130.3711  150.1121 LP  0  0  0  0  0  0  0  0  0  0  0  0  # atno 17371 bound_to 10713
  140.2128  134.8815  157.3293 LP  0  0  0  0  0  0  0  0  0  0  0  0  # atno 17394 bound_to 11000
  140.2069  134.4186  155.7633 LP  0  0  0  0  0  0  0  0  0  0  0  0  # atno 17395 bound_to 11000

$$$$
