AV-unprocessed.smi:1217|AV-procd|sdf|5102|dock8
  -GOLD-   22720 4153D 1   1.00000     0.00000
 Structure written by MMmdl.
 34 35  0  0  0  0  0  0  0  0  1 V2000
  145.7539  138.4471  154.8182 C   0  0  0  0  0  0  0  0  0  0  0  0
  146.1928  138.7240  153.3722 C   0  0  2  0  0  0  0  0  0  0  0  0
  146.4960  137.4487  152.7260 N   0  0  0  0  0  0  0  0  0  0  0  0
  145.5937  136.5359  152.3357 C   0  0  0  0  0  0  0  0  0  0  0  0
  144.3787  136.6713  152.4830 O   0  0  0  0  0  0  0  0  0  0  0  0
  146.1929  135.4756  151.7657 N   0  0  0  0  0  0  0  0  0  0  0  0
  145.5914  134.2868  151.2731 C   0  0  0  0  0  0  0  0  0  0  0  0
  146.4978  133.2881  150.8506 C   0  0  0  0  0  0  0  0  0  0  0  0
  146.0017  132.0683  150.3512 C   0  0  0  0  0  0  0  0  0  0  0  0
  144.6101  131.8767  150.2898 C   0  0  0  0  0  0  0  0  0  0  0  0
  143.7770  132.9211  150.7316 C   0  0  0  0  0  0  0  0  0  0  0  0
  144.2504  134.0915  151.2092 N   0  0  0  0  0  0  0  0  0  0  0  0
  147.4233  139.6511  153.3025 C   0  0  2  0  0  0  0  0  0  0  0  0
  148.6401  139.1599  154.0896 C   0  0  0  0  0  0  0  0  0  0  0  0
  149.3969  140.4361  154.4270 C   0  0  0  0  0  0  0  0  0  0  0  0
  148.4037  141.5555  154.1066 C   0  0  0  0  0  0  0  0  0  0  0  0
  147.1583  140.8979  153.9274 O   0  0  0  0  0  0  0  0  0  0  0  0
  145.4700  139.3662  155.3308 H   0  0  0  0  0  0  0  0  0  0  0  0
  146.5531  137.9786  155.3937 H   0  0  0  0  0  0  0  0  0  0  0  0
  144.8903  137.7816  154.8445 H   0  0  0  0  0  0  0  0  0  0  0  0
  145.3584  139.2084  152.8615 H   0  0  0  0  0  0  0  0  0  0  0  0
  147.4712  137.2504  152.5580 H   0  0  0  0  0  0  0  0  0  0  0  0
  147.1980  135.5178  151.6871 H   0  0  0  0  0  0  0  0  0  0  0  0
  147.5643  133.4514  150.9061 H   0  0  0  0  0  0  0  0  0  0  0  0
  146.6782  131.2933  150.0222 H   0  0  0  0  0  0  0  0  0  0  0  0
  144.1919  130.9545  149.9145 H   0  0  0  0  0  0  0  0  0  0  0  0
  142.7029  132.8140  150.7022 H   0  0  0  0  0  0  0  0  0  0  0  0
  147.7045  139.8330  152.2632 H   0  0  0  0  0  0  0  0  0  0  0  0
  148.3214  138.6739  155.0129 H   0  0  0  0  0  0  0  0  0  0  0  0
  149.2439  138.4473  153.5271 H   0  0  0  0  0  0  0  0  0  0  0  0
  149.6856  140.4465  155.4784 H   0  0  0  0  0  0  0  0  0  0  0  0
  150.3026  140.5392  153.8284 H   0  0  0  0  0  0  0  0  0  0  0  0
  148.3451  142.3047  154.8964 H   0  0  0  0  0  0  0  0  0  0  0  0
  148.6791  142.0593  153.1788 H   0  0  0  0  0  0  0  0  0  0  0  0
  1  2  1  0  0  0  0
  1 18  1  0  0  0  0
  1 19  1  0  0  0  0
  1 20  1  0  0  0  0
  2  3  1  0  0  0  0
  2 13  1  0  0  0  0
  2 21  1  0  0  0  0
  3  4  1  0  0  0  0
  3 22  1  0  0  0  0
  4  5  2  0  0  0  0
  4  6  1  0  0  0  0
  6  7  1  0  0  0  0
  6 23  1  0  0  0  0
  7 12  1  0  0  0  0
  7  8  2  0  0  0  0
  8  9  1  0  0  0  0
  8 24  1  0  0  0  0
  9 10  2  0  0  0  0
  9 25  1  0  0  0  0
 10 11  1  0  0  0  0
 10 26  1  0  0  0  0
 11 12  2  0  0  0  0
 11 27  1  0  0  0  0
 13 17  1  0  0  0  0
 13 14  1  0  0  0  0
 13 28  1  0  0  0  0
 14 15  1  0  0  0  0
 14 29  1  0  0  0  0
 14 30  1  0  0  0  0
 15 16  1  0  0  0  0
 15 31  1  0  0  0  0
 15 32  1  0  0  0  0
 16 17  1  0  0  0  0
 16 33  1  0  0  0  0
 16 34  1  0  0  0  0
M  END
> <s_m_source_file>
AV-unprocessed.smi

> <i_m_source_file_index>
1217

> <i_lp_mmshare_version>
43012

> <i_f3d_flags>
0

> <s_epik_input>
TzFbQ0gyXVtDSDJdW0NIMl1bQ0BIXTFbQ0BIXShbQ0gzXSlbTkhdQyg9TylbTkhdYzJbY0hdW2NIXVtjSF1bY0hdbjI=

> <s_epik_cmdline>
J2VwaWtfcHl0aG9uJywgJy1waCcsICc3LjAnLCAnLXRuJywgJzgnLCAnLW1hJywgJzIwMCcsICctbWV0YWxfYmluZGluZycsICctaW1hZScsICc8aW5maWxlLm1hZT4nLCAnLW9tYWUnLCAnPG91dGZpbGUubWFlPic=

> <r_lp_tautomer_probability>
1

> <r_epik_Ionization_Penalty>
4.51768e-05

> <r_epik_Ionization_Penalty_Charging>
0

> <r_epik_Ionization_Penalty_Neutral>
4.51768e-05

> <r_epik_State_Penalty>
-0

> <r_epik_Charging_Adjusted_Penalty>
0

> <i_epik_Tot_Q>
0

> <i_epik_Tot_abs_Q>
0

> <r_epik_Metal_State_Penalty>
-0

> <b_epik_Metal_Only>
0

> <s_lp_Force_Field>
OPLS_2005

> <r_lp_Energy>
20.7335

> <b_lp_Chiralities_Consistent>
1

> <s_lp_Variant>
AV-unprocessed.smi:1217-1

> <Gold.Version>
5.8.1

> <Gold.Id.Protein>
6NUR|6NUR_protein|mol2

> <Gold.PLP.Fitness>
37.7353

> <Gold.PLP.PLP>
-29.1114

> <Gold.PLP.part.hbond>
-2.0000

> <Gold.PLP.part.metal>
0.0000

> <Gold.PLP.part.buried>
-2.1662

> <Gold.PLP.part.nonpolar>
-25.5516

> <Gold.PLP.part.repulsive>
0.5729

> <Gold.PLP.ligand.clash>
0.0000

> <Gold.PLP.ligand.torsion>
0.1951

> <Gold.PLP.Chemscore.Hbond>
2.0000

> <Gold.PLP.Chemscore.CHOScore>
0.9977

> <Gold.PLP.Chemscore.Metal>
0.0000

> <Gold.Chemscore.Hbonds>
donor molecule, donor type, donor heavy atom, donor atom, acceptor molecule, acceptor atom, score
      L1  H     3    22       P1  7948  1.00
      L1  H     6    23       P1  7948  1.00
      L1  C    11    27       P1 10186  0.78

> <Gold.PLP.Chemscore.Internal.Correction>
0.0210

> <Gold.Rescore>
     Score         DG    S(hbond)    S(metal)    S(lipo)     H(rot)  DE(clash)    DE(int)     intcor
     15.91     -17.37       1.96        0.00      73.14       1.25       0.04       1.42       ----

> <Gold.Chemscore.Fitness>
15.9085

> <Gold.Chemscore.DG>
-17.3684

> <Gold.Chemscore.ZeroCoef>
-5.4800

> <Gold.Chemscore.Hbond>
1.9559

> <Gold.Chemscore.Metal>
0.0000

> <Gold.Chemscore.Lipo>
73.1408

> <Gold.Chemscore.Internal_Hbond>
0.0000

> <Gold.Chemscore.DEClash>
0.0449

> <Gold.Chemscore.DEInternal>
1.4151

> <Gold.Chemscore.Rot>
1.2506

> <Gold.Chemscore.Internal.Correction>
   9.000000E+99

> <Gold.Chemscore.Hbonds>
donor molecule, donor type, donor heavy atom, donor atom, acceptor molecule, acceptor atom, score
      L1  H     3    22       P1  7948  0.98
      L1  H     6    23       P1  7948  0.99

> <Gold.Chemscore.Hbond.Weighted>
-6.5326

> <Gold.Chemscore.Metal.Weighted>
-0.0000

> <Gold.Chemscore.Lipo.Weighted>
-8.5575

> <Gold.Chemscore.Internal_Hbond.Weighted>
0.0000

> <Gold.Chemscore.DEClash.Weighted>
0.0449

> <Gold.Chemscore.DEInternal.Weighted>
1.4151

> <Gold.Chemscore.Rot.Weighted>
3.2016

> <Gold.Chemscore.Internal.Correction.Weighted>
   9.000000E+99

> <Gold.Protein.RotatedTorsions>
[ 6907 6896 6895 6894 ] final   -7.21 input  -60.11 | X-H torsion
[ 7974 7965 7964 7962 ] final  -31.99 input  175.53 | X-H torsion
[ 8008 7997 7996 7995 ] final  170.25 input   59.86 | X-H torsion
[ 10167 10162 10161 10158 ] final -135.04 input  -65.29 | X-H torsion
[ 10718 10713 10712 10709 ] final -172.62 input   66.30 | X-H torsion
[ 10763 10752 10751 10750 ] final  157.14 input  -60.55 | X-H torsion
[ 11005 11000 10999 10996 ] final   40.31 input  -57.11 | X-H torsion

> <Gold.Protein.ActiveResidues>
 VAL166  LYS551  ARG553  GLY616  TRP617  ASP618  TYR619  PRO620  LYS621  CYS622 
 ASP623  PHE694  ASN695  SER759  ASP760  ASP761  ALA762  ILE779  LEU786  VAL792 
 PHE793  MET794  SER795  GLU796  ALA797  LYS798  CYS799  TRP800  GLU811  SER814 

> <Gold.Protein.RotatedAtoms>
  151.4532  135.1032  159.9703 H   0  0  0  0  0  0  0  0  0  0  0  0  # atno 6907 bound_to 6896
  152.4880  133.8421  159.7168 H   0  0  0  0  0  0  0  0  0  0  0  0  # atno 6908 bound_to 6896
  150.9008  133.7062  159.2907 H   0  0  0  0  0  0  0  0  0  0  0  0  # atno 6909 bound_to 6896
  146.1025  140.5736  142.8814 H   0  0  0  0  0  0  0  0  0  0  0  0  # atno 7974 bound_to 7965
  156.1383  140.1543  156.8961 H   0  0  0  0  0  0  0  0  0  0  0  0  # atno 8008 bound_to 7997
  154.4965  140.0836  156.7747 H   0  0  0  0  0  0  0  0  0  0  0  0  # atno 8009 bound_to 7997
  155.4127  140.3419  155.4267 H   0  0  0  0  0  0  0  0  0  0  0  0  # atno 8010 bound_to 7997
  139.8819  143.6829  152.2626 H   0  0  0  0  0  0  0  0  0  0  0  0  # atno 10167 bound_to 10162
  156.7582  130.9403  151.3117 H   0  0  0  0  0  0  0  0  0  0  0  0  # atno 10718 bound_to 10713
  154.1956  135.2793  155.3008 H   0  0  0  0  0  0  0  0  0  0  0  0  # atno 10763 bound_to 10752
  154.5895  135.5564  153.7267 H   0  0  0  0  0  0  0  0  0  0  0  0  # atno 10764 bound_to 10752
  153.0101  135.6364  154.2094 H   0  0  0  0  0  0  0  0  0  0  0  0  # atno 10765 bound_to 10752
  140.1943  134.3948  155.8130 H   0  0  0  0  0  0  0  0  0  0  0  0  # atno 11005 bound_to 11000
  144.7444  140.5029  143.6846 LP  0  0  0  0  0  0  0  0  0  0  0  0  # atno 17320 bound_to 7965
  145.5826  139.1490  143.3227 LP  0  0  0  0  0  0  0  0  0  0  0  0  # atno 17321 bound_to 7965
  139.7188  144.7606  151.0989 LP  0  0  0  0  0  0  0  0  0  0  0  0  # atno 17342 bound_to 10162
  140.7743  143.5234  150.9509 LP  0  0  0  0  0  0  0  0  0  0  0  0  # atno 17343 bound_to 10162
  157.6746  130.9083  150.0121 LP  0  0  0  0  0  0  0  0  0  0  0  0  # atno 17370 bound_to 10713
  156.1356  130.3643  149.9662 LP  0  0  0  0  0  0  0  0  0  0  0  0  # atno 17371 bound_to 10713
  141.2227  133.7062  156.8149 LP  0  0  0  0  0  0  0  0  0  0  0  0  # atno 17394 bound_to 11000
  140.2125  134.8817  157.3290 LP  0  0  0  0  0  0  0  0  0  0  0  0  # atno 17395 bound_to 11000

$$$$
