AV-unprocessed.smi:1986|AV-procd|sdf|8048|dock10
  -GOLD-   2272010253D 1   1.00000     0.00000
 Structure written by MMmdl.
 47 48  0  0  0  0  0  0  0  0  3 V2000
  150.0180  134.4812  155.6724 C   0  0  0  0  0  0  0  0  0  0  0  0
  148.8001  134.8917  154.8257 C   0  0  0  0  0  0  0  0  0  0  0  0
  147.9635  133.7255  154.2174 C   0  0  1  0  0  0  0  0  0  0  0  0
  148.9019  132.5416  153.8627 C   0  0  0  0  0  0  0  0  0  0  0  0
  146.9474  133.1947  155.2723 C   0  0  0  0  0  0  0  0  0  0  0  0
  147.6034  132.9215  156.5467 N   0  0  0  0  0  0  0  0  0  0  0  0
  147.3189  133.4736  157.7352 C   0  0  0  0  0  0  0  0  0  0  0  0
  146.3577  134.2174  157.9260 O   0  0  0  0  0  0  0  0  0  0  0  0
  148.3023  133.1785  158.8784 C   0  0  0  0  0  0  0  0  0  0  0  0
  147.9267  133.8211  160.1503 N   0  0  0  0  0  0  0  0  0  0  0  0
  147.8193  135.2761  160.0784 N   0  5  0  0  0  0  0  0  0  0  0  0
  147.5116  135.9735  161.2040 C   0  0  0  0  0  0  0  0  0  0  0  0
  147.4185  137.1980  161.2241 O   0  0  0  0  0  0  0  0  0  0  0  0
  147.2628  135.2265  162.4254 C   0  0  0  0  0  0  0  0  0  0  0  0
  147.3232  133.8808  162.4514 C   0  0  0  0  0  0  0  0  0  0  0  0
  147.6567  133.0932  161.2715 C   0  0  0  0  0  0  0  0  0  0  0  0
  147.6906  131.8631  161.2834 O   0  0  0  0  0  0  0  0  0  0  0  0
  147.2240  134.1750  152.9779 N   0  3  0  0  0  0  0  0  0  0  0  0
  146.6890  133.0827  152.1161 C   0  0  0  0  0  0  0  0  0  0  0  0
  146.1505  133.6508  150.7939 C   0  0  0  0  0  0  0  0  0  0  0  0
  145.1369  134.6070  151.0679 O   0  0  0  0  0  0  0  0  0  0  0  0
  145.6415  135.7047  151.8145 C   0  0  0  0  0  0  0  0  0  0  0  0
  146.1753  135.2161  153.1722 C   0  0  0  0  0  0  0  0  0  0  0  0
  150.5255  135.3655  156.0584 H   0  0  0  0  0  0  0  0  0  0  0  0
  150.7504  133.9226  155.0902 H   0  0  0  0  0  0  0  0  0  0  0  0
  149.7325  133.8753  156.5317 H   0  0  0  0  0  0  0  0  0  0  0  0
  148.1660  135.5137  155.4570 H   0  0  0  0  0  0  0  0  0  0  0  0
  149.1599  135.5437  154.0303 H   0  0  0  0  0  0  0  0  0  0  0  0
  149.2686  132.0345  154.7556 H   0  0  0  0  0  0  0  0  0  0  0  0
  149.7833  132.8656  153.3093 H   0  0  0  0  0  0  0  0  0  0  0  0
  148.3901  131.7878  153.2633 H   0  0  0  0  0  0  0  0  0  0  0  0
  146.1292  133.9031  155.4077 H   0  0  0  0  0  0  0  0  0  0  0  0
  146.4714  132.2749  154.9335 H   0  0  0  0  0  0  0  0  0  0  0  0
  148.4034  132.3047  156.5216 H   0  0  0  0  0  0  0  0  0  0  0  0
  148.3848  132.0985  159.0136 H   0  0  0  0  0  0  0  0  0  0  0  0
  149.2943  133.5102  158.5673 H   0  0  0  0  0  0  0  0  0  0  0  0
  147.0161  135.7620  163.3304 H   0  0  0  0  0  0  0  0  0  0  0  0
  147.1255  133.3662  163.3800 H   0  0  0  0  0  0  0  0  0  0  0  0
  147.4559  132.3474  151.8801 H   0  0  0  0  0  0  0  0  0  0  0  0
  145.8836  132.5562  152.6286 H   0  0  0  0  0  0  0  0  0  0  0  0
  146.9509  134.1010  150.2070 H   0  0  0  0  0  0  0  0  0  0  0  0
  145.7248  132.8513  150.1877 H   0  0  0  0  0  0  0  0  0  0  0  0
  146.4221  136.2155  151.2499 H   0  0  0  0  0  0  0  0  0  0  0  0
  144.8376  136.4252  151.9649 H   0  0  0  0  0  0  0  0  0  0  0  0
  145.3519  134.8171  153.7645 H   0  0  0  0  0  0  0  0  0  0  0  0
  146.5631  136.0849  153.7006 H   0  0  0  0  0  0  0  0  0  0  0  0
  147.9328  134.6280  152.4175 H   0  0  0  0  0  0  0  0  0  0  0  0
  1  2  1  0  0  0  0
  1 24  1  0  0  0  0
  1 25  1  0  0  0  0
  1 26  1  0  0  0  0
  2  3  1  0  0  0  0
  2 27  1  0  0  0  0
  2 28  1  0  0  0  0
  3  4  1  0  0  0  0
  3  5  1  0  0  0  0
  3 18  1  0  0  0  0
  4 29  1  0  0  0  0
  4 30  1  0  0  0  0
  4 31  1  0  0  0  0
  5  6  1  0  0  0  0
  5 32  1  0  0  0  0
  5 33  1  0  0  0  0
  6  7  1  0  0  0  0
  6 34  1  0  0  0  0
  7  8  2  0  0  0  0
  7  9  1  0  0  0  0
  9 35  1  0  0  0  0
  9 36  1  0  0  0  0
  9 10  1  0  0  0  0
 10 11  1  0  0  0  0
 10 16  1  0  0  0  0
 11 12  1  0  0  0  0
 12 13  2  0  0  0  0
 12 14  1  0  0  0  0
 14 37  1  0  0  0  0
 14 15  2  0  0  0  0
 15 38  1  0  0  0  0
 15 16  1  0  0  0  0
 16 17  2  0  0  0  0
 18 23  1  0  0  0  0
 18 19  1  0  0  0  0
 18 47  1  0  0  0  0
 19 20  1  0  0  0  0
 19 39  1  0  0  0  0
 19 40  1  0  0  0  0
 20 21  1  0  0  0  0
 20 41  1  0  0  0  0
 20 42  1  0  0  0  0
 21 22  1  0  0  0  0
 22 23  1  0  0  0  0
 22 43  1  0  0  0  0
 22 44  1  0  0  0  0
 23 45  1  0  0  0  0
 23 46  1  0  0  0  0
M  CHG  1  11  -1
M  CHG  1  18   1
M  END
> <s_m_source_file>
AV-unprocessed.smi

> <i_m_source_file_index>
1986

> <i_lp_mmshare_version>
43012

> <i_f3d_flags>
0

> <s_epik_input>
W0NIMl0xW0NIMl1PW0NIMl1bQ0gyXU4xW0NAQF0oW0NIM10pKFtDSDJdW0NIM10pW0NIMl1bTkhdQyg9TylbQ0gyXW4yW25IXWMoPU8pW2NIXVtjSF1jMj1P

> <s_epik_cmdline>
J2VwaWtfcHl0aG9uJywgJy1waCcsICc3LjAnLCAnLXRuJywgJzgnLCAnLW1hJywgJzIwMCcsICctbWV0YWxfYmluZGluZycsICctaW1hZScsICc8aW5maWxlLm1hZT4nLCAnLW9tYWUnLCAnPG91dGZpbGUubWFlPic=

> <r_lp_tautomer_probability>
1

> <r_epik_Ionization_Penalty>
0.604767

> <r_epik_Ionization_Penalty_Charging>
0.604766

> <r_epik_Ionization_Penalty_Neutral>
8.70177e-08

> <r_epik_State_Penalty>
0.54579

> <r_epik_Charging_Adjusted_Penalty>
1.15056

> <i_epik_Tot_Q>
0

> <i_epik_Tot_abs_Q>
2

> <r_epik_Metal_State_Penalty>
0.54579

> <b_epik_Metal_Only>
0

> <s_lp_Force_Field>
OPLS_2005

> <r_lp_Energy>
39.3648

> <b_lp_Chiralities_Consistent>
1

> <s_lp_Variant>
AV-unprocessed.smi:1986-3

> <Gold.Version>
5.8.1

> <Gold.Id.Protein>
6NUR|6NUR_protein|mol2

> <Gold.PLP.Fitness>
45.3228

> <Gold.PLP.PLP>
-34.9684

> <Gold.PLP.part.hbond>
-3.0000

> <Gold.PLP.part.metal>
0.0000

> <Gold.PLP.part.buried>
-4.1058

> <Gold.PLP.part.nonpolar>
-27.8403

> <Gold.PLP.part.repulsive>
0.1793

> <Gold.PLP.ligand.clash>
0.0000

> <Gold.PLP.ligand.torsion>
0.6713

> <Gold.PLP.Chemscore.Hbond>
3.8560

> <Gold.PLP.Chemscore.CHOScore>
0.0000

> <Gold.PLP.Chemscore.Metal>
0.0000

> <Gold.Chemscore.Hbonds>
donor molecule, donor type, donor heavy atom, donor atom, acceptor molecule, acceptor atom, score
      L1  H    18    47       P1  7948  2.00
      P1  H  6931  6943       L1    13  0.86
      P1  H  6934  6947       L1    13  0.98

> <Gold.PLP.Chemscore.Internal.Correction>
0.1290

> <Gold.Rescore>
     Score         DG    S(hbond)    S(metal)    S(lipo)     H(rot)  DE(clash)    DE(int)     intcor
     12.99     -15.36       2.76        0.00      60.19       2.50       0.11       2.25       ----

> <Gold.Chemscore.Fitness>
12.9941

> <Gold.Chemscore.DG>
-15.3580

> <Gold.Chemscore.ZeroCoef>
-5.4800

> <Gold.Chemscore.Hbond>
2.7631

> <Gold.Chemscore.Metal>
0.0000

> <Gold.Chemscore.Lipo>
60.1897

> <Gold.Chemscore.Internal_Hbond>
0.0000

> <Gold.Chemscore.DEClash>
0.1112

> <Gold.Chemscore.DEInternal>
2.2527

> <Gold.Chemscore.Rot>
2.4973

> <Gold.Chemscore.Internal.Correction>
   9.000000E+99

> <Gold.Chemscore.Hbonds>
donor molecule, donor type, donor heavy atom, donor atom, acceptor molecule, acceptor atom, score
      L1  H    18    47       P1  7948  0.53
      P1  H  6931  6943       L1    13  0.76
      P1  H  6934  6947       L1    13  0.93

> <Gold.Chemscore.Hbond.Weighted>
-9.2288

> <Gold.Chemscore.Metal.Weighted>
-0.0000

> <Gold.Chemscore.Lipo.Weighted>
-7.0422

> <Gold.Chemscore.Internal_Hbond.Weighted>
0.0000

> <Gold.Chemscore.DEClash.Weighted>
0.1112

> <Gold.Chemscore.DEInternal.Weighted>
2.2527

> <Gold.Chemscore.Rot.Weighted>
6.3930

> <Gold.Chemscore.Internal.Correction.Weighted>
   9.000000E+99

> <Gold.Protein.RotatedTorsions>
[ 6907 6896 6895 6894 ] final -167.06 input  -60.11 | X-H torsion
[ 7974 7965 7964 7962 ] final -148.65 input  175.53 | X-H torsion
[ 8008 7997 7996 7995 ] final -109.15 input   59.86 | X-H torsion
[ 10167 10162 10161 10158 ] final  -65.77 input  -65.29 | X-H torsion
[ 10718 10713 10712 10709 ] final   80.17 input   66.30 | X-H torsion
[ 10763 10752 10751 10750 ] final   42.23 input  -60.55 | X-H torsion
[ 11005 11000 10999 10996 ] final  -63.79 input  -57.11 | X-H torsion

> <Gold.Protein.ActiveResidues>
 VAL166  LYS551  ARG553  GLY616  TRP617  ASP618  TYR619  PRO620  LYS621  CYS622 
 ASP623  PHE694  ASN695  SER759  ASP760  ASP761  ALA762  ILE779  LEU786  VAL792 
 PHE793  MET794  SER795  GLU796  ALA797  LYS798  CYS799  TRP800  GLU811  SER814 

> <Gold.Protein.RotatedAtoms>
  151.4536  133.3611  159.2798 H   0  0  0  0  0  0  0  0  0  0  0  0  # atno 6907 bound_to 6896
  150.9074  134.8491  159.7413 H   0  0  0  0  0  0  0  0  0  0  0  0  # atno 6908 bound_to 6896
  152.4913  134.4462  159.9611 H   0  0  0  0  0  0  0  0  0  0  0  0  # atno 6909 bound_to 6896
  144.8016  140.5168  143.5703 H   0  0  0  0  0  0  0  0  0  0  0  0  # atno 7974 bound_to 7965
  154.9550  140.0400  157.2162 H   0  0  0  0  0  0  0  0  0  0  0  0  # atno 8008 bound_to 7997
  154.7943  140.2841  155.5946 H   0  0  0  0  0  0  0  0  0  0  0  0  # atno 8009 bound_to 7997
  156.2953  140.2567  156.2797 H   0  0  0  0  0  0  0  0  0  0  0  0  # atno 8010 bound_to 7997
  140.5705  143.2317  151.6547 H   0  0  0  0  0  0  0  0  0  0  0  0  # atno 10167 bound_to 10162
  157.6798  130.9947  150.2040 H   0  0  0  0  0  0  0  0  0  0  0  0  # atno 10718 bound_to 10713
  152.9888  135.6138  154.2915 H   0  0  0  0  0  0  0  0  0  0  0  0  # atno 10763 bound_to 10752
  154.2640  135.2781  155.2768 H   0  0  0  0  0  0  0  0  0  0  0  0  # atno 10764 bound_to 10752
  154.5181  135.5822  153.6715 H   0  0  0  0  0  0  0  0  0  0  0  0  # atno 10765 bound_to 10752
  141.1404  133.6657  156.5735 H   0  0  0  0  0  0  0  0  0  0  0  0  # atno 11005 bound_to 11000
  145.5540  139.1477  143.3378 LP  0  0  0  0  0  0  0  0  0  0  0  0  # atno 17320 bound_to 7965
  146.2298  140.5677  142.8980 LP  0  0  0  0  0  0  0  0  0  0  0  0  # atno 17321 bound_to 7965
  139.5115  144.3506  152.0655 LP  0  0  0  0  0  0  0  0  0  0  0  0  # atno 17342 bound_to 10162
  140.2643  144.4033  150.6174 LP  0  0  0  0  0  0  0  0  0  0  0  0  # atno 17343 bound_to 10162
  156.2725  130.3723  149.8017 LP  0  0  0  0  0  0  0  0  0  0  0  0  # atno 17370 bound_to 10713
  156.5729  130.8433  151.3362 LP  0  0  0  0  0  0  0  0  0  0  0  0  # atno 17371 bound_to 10713
  140.3894  134.7453  157.4712 LP  0  0  0  0  0  0  0  0  0  0  0  0  # atno 17394 bound_to 11000
  140.0577  134.6040  155.8785 LP  0  0  0  0  0  0  0  0  0  0  0  0  # atno 17395 bound_to 11000

$$$$
