AV-unprocessed.smi:3308|AV-procd|sdf|12709|dock3
  -GOLD-   2272019 43D 1   1.00000     0.00000
 Structure written by MMmdl.
 41 42  0  0  0  0  0  0  0  0  2 V2000
  150.2339  140.7556  155.5551 C   0  0  0  0  0  0  0  0  0  0  0  0
  149.2058  141.4105  156.4953 C   0  0  1  0  0  0  0  0  0  0  0  0
  149.8332  142.5845  157.1427 N   0  3  0  0  0  0  0  0  0  0  0  0
  151.2546  142.4095  157.5118 C   0  0  0  0  0  0  0  0  0  0  0  0
  151.7537  143.5134  158.4545 C   0  0  0  0  0  0  0  0  0  0  0  0
  151.7032  144.6909  158.0954 O   0  0  0  0  0  0  0  0  0  0  0  0
  152.2363  143.1509  159.6608 N   0  0  0  0  0  0  0  0  0  0  0  0
  152.7251  144.1037  160.6556 C   0  0  0  0  0  0  0  0  0  0  0  0
  152.9172  143.2981  161.9408 C   0  0  0  0  0  0  0  0  0  0  0  0
  153.1506  141.8741  161.4559 C   0  0  0  0  0  0  0  0  0  0  0  0
  152.3401  141.7807  160.1623 C   0  0  0  0  0  0  0  0  0  0  0  0
  147.8956  141.8255  155.7721 C   0  0  2  0  0  0  0  0  0  0  0  0
  146.8815  142.5062  156.7113 C   0  0  0  0  0  0  0  0  0  0  0  0
  147.2651  140.7028  155.0889 N   0  0  0  0  0  0  0  0  0  0  0  0
  147.7660  139.9444  154.0507 C   0  0  0  0  0  0  0  0  0  0  0  0
  146.8219  139.0103  153.7343 C   0  0  0  0  0  0  0  0  0  0  0  0
  145.7617  139.2791  154.6436 C   0  0  0  0  0  0  0  0  0  0  0  0
  146.0286  140.2923  155.4519 N   0  0  0  0  0  0  0  0  0  0  0  0
  149.8584  139.8259  155.1270 H   0  0  0  0  0  0  0  0  0  0  0  0
  151.1521  140.5105  156.0899 H   0  0  0  0  0  0  0  0  0  0  0  0
  150.4966  141.4195  154.7309 H   0  0  0  0  0  0  0  0  0  0  0  0
  148.9609  140.6722  157.2613 H   0  0  0  0  0  0  0  0  0  0  0  0
  149.7737  143.3688  156.5089 H   0  0  0  0  0  0  0  0  0  0  0  0
  151.3846  141.4400  157.9939 H   0  0  0  0  0  0  0  0  0  0  0  0
  151.8579  142.4125  156.6029 H   0  0  0  0  0  0  0  0  0  0  0  0
  153.6767  144.5148  160.3154 H   0  0  0  0  0  0  0  0  0  0  0  0
  152.0325  144.9332  160.8077 H   0  0  0  0  0  0  0  0  0  0  0  0
  153.7334  143.6748  162.5581 H   0  0  0  0  0  0  0  0  0  0  0  0
  152.0038  143.3348  162.5361 H   0  0  0  0  0  0  0  0  0  0  0  0
  154.2097  141.7348  161.2351 H   0  0  0  0  0  0  0  0  0  0  0  0
  152.8619  141.1234  162.1922 H   0  0  0  0  0  0  0  0  0  0  0  0
  151.3391  141.3992  160.3684 H   0  0  0  0  0  0  0  0  0  0  0  0
  152.8217  141.1109  159.4487 H   0  0  0  0  0  0  0  0  0  0  0  0
  148.1577  142.5486  154.9981 H   0  0  0  0  0  0  0  0  0  0  0  0
  147.2737  143.4385  157.1175 H   0  0  0  0  0  0  0  0  0  0  0  0
  146.6180  141.8623  157.5510 H   0  0  0  0  0  0  0  0  0  0  0  0
  145.9610  142.7512  156.1801 H   0  0  0  0  0  0  0  0  0  0  0  0
  148.7421  140.1293  153.6269 H   0  0  0  0  0  0  0  0  0  0  0  0
  146.8787  138.2509  152.9685 H   0  0  0  0  0  0  0  0  0  0  0  0
  144.8129  138.7720  154.7389 H   0  0  0  0  0  0  0  0  0  0  0  0
  149.3093  142.8117  157.9759 H   0  0  0  0  0  0  0  0  0  0  0  0
  1  2  1  0  0  0  0
  1 19  1  0  0  0  0
  1 20  1  0  0  0  0
  1 21  1  0  0  0  0
  2  3  1  0  0  0  0
  2 12  1  0  0  0  0
  2 22  1  0  0  0  0
  3  4  1  0  0  0  0
  3 23  1  0  0  0  0
  3 41  1  0  0  0  0
  4  5  1  0  0  0  0
  4 24  1  0  0  0  0
  4 25  1  0  0  0  0
  5  6  2  0  0  0  0
  5  7  1  0  0  0  0
  7 11  1  0  0  0  0
  7  8  1  0  0  0  0
  8  9  1  0  0  0  0
  8 26  1  0  0  0  0
  8 27  1  0  0  0  0
  9 10  1  0  0  0  0
  9 28  1  0  0  0  0
  9 29  1  0  0  0  0
 10 11  1  0  0  0  0
 10 30  1  0  0  0  0
 10 31  1  0  0  0  0
 11 32  1  0  0  0  0
 11 33  1  0  0  0  0
 12 13  1  0  0  0  0
 12 14  1  0  0  0  0
 12 34  1  0  0  0  0
 13 35  1  0  0  0  0
 13 36  1  0  0  0  0
 13 37  1  0  0  0  0
 14 18  1  0  0  0  0
 14 15  1  0  0  0  0
 15 16  2  0  0  0  0
 15 38  1  0  0  0  0
 16 17  1  0  0  0  0
 16 39  1  0  0  0  0
 17 18  2  0  0  0  0
 17 40  1  0  0  0  0
M  CHG  1   3   1
M  END
> <s_m_source_file>
AV-unprocessed.smi

> <i_m_source_file_index>
3308

> <i_lp_mmshare_version>
43012

> <i_f3d_flags>
0

> <s_epik_input>
bjFbY0hdW2NIXVtjSF1uMVtDQEBIXShbQ0gzXSlbQ0BIXShbQ0gzXSlbTkhdW0NIMl1DKD1PKU4yW0NIMl1bQ0gyXVtDSDJdW0NIMl0y

> <s_epik_cmdline>
J2VwaWtfcHl0aG9uJywgJy1waCcsICc3LjAnLCAnLXRuJywgJzgnLCAnLW1hJywgJzIwMCcsICctbWV0YWxfYmluZGluZycsICctaW1hZScsICc8aW5maWxlLm1hZT4nLCAnLW9tYWUnLCAnPG91dGZpbGUubWFlPic=

> <r_lp_tautomer_probability>
1

> <r_epik_Ionization_Penalty>
0.141739

> <r_epik_Ionization_Penalty_Charging>
0.141731

> <r_epik_Ionization_Penalty_Neutral>
8.82171e-06

> <r_epik_State_Penalty>
0.131043

> <r_epik_Charging_Adjusted_Penalty>
0.272773

> <i_epik_Tot_Q>
1

> <i_epik_Tot_abs_Q>
1

> <r_epik_Metal_State_Penalty>
0.131385

> <b_epik_Metal_Only>
0

> <s_lp_Force_Field>
OPLS_2005

> <r_lp_Energy>
34.0204

> <b_lp_Chiralities_Consistent>
1

> <s_lp_Variant>
AV-unprocessed.smi:3308-2

> <Gold.Version>
5.8.1

> <Gold.Id.Protein>
6NUR|6NUR_protein|mol2

> <Gold.PLP.Fitness>
43.3070

> <Gold.PLP.PLP>
-35.6791

> <Gold.PLP.part.hbond>
-1.0000

> <Gold.PLP.part.metal>
0.0000

> <Gold.PLP.part.buried>
-3.6199

> <Gold.PLP.part.nonpolar>
-30.9048

> <Gold.PLP.part.repulsive>
0.2427

> <Gold.PLP.ligand.clash>
0.0000

> <Gold.PLP.ligand.torsion>
0.3144

> <Gold.PLP.Chemscore.Hbond>
2.0000

> <Gold.PLP.Chemscore.CHOScore>
0.7203

> <Gold.PLP.Chemscore.Metal>
0.0000

> <Gold.Chemscore.Hbonds>
donor molecule, donor type, donor heavy atom, donor atom, acceptor molecule, acceptor atom, score
      L1  H     3    23       P1  8028  2.00
      L1  C    15    38       P1  7957  0.79

> <Gold.PLP.Chemscore.Internal.Correction>
0.0958

> <Gold.Rescore>
     Score         DG    S(hbond)    S(metal)    S(lipo)     H(rot)  DE(clash)    DE(int)     intcor
     13.56     -13.96       1.00        0.00      83.08       1.78       0.03       0.37       ----

> <Gold.Chemscore.Fitness>
13.5555

> <Gold.Chemscore.DG>
-13.9588

> <Gold.Chemscore.ZeroCoef>
-5.4800

> <Gold.Chemscore.Hbond>
0.9954

> <Gold.Chemscore.Metal>
0.0000

> <Gold.Chemscore.Lipo>
83.0773

> <Gold.Chemscore.Internal_Hbond>
0.0000

> <Gold.Chemscore.DEClash>
0.0326

> <Gold.Chemscore.DEInternal>
0.3706

> <Gold.Chemscore.Rot>
1.7836

> <Gold.Chemscore.Internal.Correction>
   9.000000E+99

> <Gold.Chemscore.Hbonds>
donor molecule, donor type, donor heavy atom, donor atom, acceptor molecule, acceptor atom, score
      L1  H     3    23       P1  8028  0.98

> <Gold.Chemscore.Hbond.Weighted>
-3.3247

> <Gold.Chemscore.Metal.Weighted>
-0.0000

> <Gold.Chemscore.Lipo.Weighted>
-9.7200

> <Gold.Chemscore.Internal_Hbond.Weighted>
0.0000

> <Gold.Chemscore.DEClash.Weighted>
0.0326

> <Gold.Chemscore.DEInternal.Weighted>
0.3706

> <Gold.Chemscore.Rot.Weighted>
4.5660

> <Gold.Chemscore.Internal.Correction.Weighted>
   9.000000E+99

> <Gold.Protein.RotatedTorsions>
[ 6907 6896 6895 6894 ] final  149.87 input  -60.11 | X-H torsion
[ 7974 7965 7964 7962 ] final  -78.96 input  175.53 | X-H torsion
[ 8008 7997 7996 7995 ] final   25.53 input   59.86 | X-H torsion
[ 10167 10162 10161 10158 ] final  -39.37 input  -65.29 | X-H torsion
[ 10718 10713 10712 10709 ] final   92.69 input   66.30 | X-H torsion
[ 10763 10752 10751 10750 ] final   95.79 input  -60.55 | X-H torsion
[ 11005 11000 10999 10996 ] final -115.10 input  -57.11 | X-H torsion

> <Gold.Protein.ActiveResidues>
 VAL166  LYS551  ARG553  GLY616  TRP617  ASP618  TYR619  PRO620  LYS621  CYS622 
 ASP623  PHE694  ASN695  SER759  ASP760  ASP761  ALA762  ILE779  LEU786  VAL792 
 PHE793  MET794  SER795  GLU796  ALA797  LYS798  CYS799  TRP800  GLU811  SER814 

> <Gold.Protein.RotatedAtoms>
  152.1221  133.4359  159.4680 H   0  0  0  0  0  0  0  0  0  0  0  0  # atno 6907 bound_to 6896
  150.6872  134.2522  159.4524 H   0  0  0  0  0  0  0  0  0  0  0  0  # atno 6908 bound_to 6896
  152.0400  134.9717  160.0624 H   0  0  0  0  0  0  0  0  0  0  0  0  # atno 6909 bound_to 6896
  145.5795  140.9451  143.1351 H   0  0  0  0  0  0  0  0  0  0  0  0  # atno 7974 bound_to 7965
  155.0132  140.3139  155.4821 H   0  0  0  0  0  0  0  0  0  0  0  0  # atno 8008 bound_to 7997
  156.2905  140.2211  156.5189 H   0  0  0  0  0  0  0  0  0  0  0  0  # atno 8009 bound_to 7997
  154.7516  140.0466  157.0886 H   0  0  0  0  0  0  0  0  0  0  0  0  # atno 8010 bound_to 7997
  140.7066  143.3218  151.2773 H   0  0  0  0  0  0  0  0  0  0  0  0  # atno 10167 bound_to 10162
  157.6958  131.0452  150.3920 H   0  0  0  0  0  0  0  0  0  0  0  0  # atno 10718 bound_to 10713
  153.2574  135.4241  155.0859 H   0  0  0  0  0  0  0  0  0  0  0  0  # atno 10763 bound_to 10752
  154.8406  135.3440  154.6427 H   0  0  0  0  0  0  0  0  0  0  0  0  # atno 10764 bound_to 10752
  153.6847  135.7037  153.5164 H   0  0  0  0  0  0  0  0  0  0  0  0  # atno 10765 bound_to 10752
  141.0509  133.9688  157.2837 H   0  0  0  0  0  0  0  0  0  0  0  0  # atno 11005 bound_to 11000
  144.7400  139.7475  143.7314 LP  0  0  0  0  0  0  0  0  0  0  0  0  # atno 17320 bound_to 7965
  146.1726  139.4883  142.9917 LP  0  0  0  0  0  0  0  0  0  0  0  0  # atno 17321 bound_to 7965
  139.6675  144.0079  152.2732 LP  0  0  0  0  0  0  0  0  0  0  0  0  # atno 17342 bound_to 10162
  139.9667  144.6521  150.8028 LP  0  0  0  0  0  0  0  0  0  0  0  0  # atno 17343 bound_to 10162
  156.4323  130.3974  149.6752 LP  0  0  0  0  0  0  0  0  0  0  0  0  # atno 17370 bound_to 10713
  156.3965  130.7653  151.2658 LP  0  0  0  0  0  0  0  0  0  0  0  0  # atno 17371 bound_to 10713
  139.9350  135.0197  156.8525 LP  0  0  0  0  0  0  0  0  0  0  0  0  # atno 17394 bound_to 11000
  140.6057  134.0130  155.7555 LP  0  0  0  0  0  0  0  0  0  0  0  0  # atno 17395 bound_to 11000

$$$$
