AV-unprocessed.smi:1261|AV-procd|sdf|5308|dock4
  -GOLD-   22720 4433D 1   1.00000     0.00000
 Structure written by MMmdl.
 50 51  0  0  0  0  0  0  0  0  2 V2000
  153.1619  142.1034  161.6858 C   0  0  0  0  0  0  0  0  0  0  0  0
  152.2203  142.5255  160.5490 C   0  0  1  0  0  0  0  0  0  0  0  0
  152.3649  144.0245  160.2301 C   0  0  0  0  0  0  0  0  0  0  0  0
  151.4726  144.4437  159.0472 C   0  0  2  0  0  0  0  0  0  0  0  0
  149.9810  144.5201  159.4193 C   0  0  0  0  0  0  0  0  0  0  0  0
  151.7240  143.5293  157.8318 C   0  0  0  0  0  0  0  0  0  0  0  0
  151.5475  142.0949  158.1781 N   0  3  1  0  0  0  0  0  0  0  0  0
  151.6354  141.2131  156.9864 C   0  0  0  0  0  0  0  0  0  0  0  0
  150.5071  140.1693  156.9481 C   0  0  0  0  0  0  0  0  0  0  0  0
  150.2528  139.5311  158.3233 C   0  0  0  0  0  0  0  0  0  0  0  0
  149.3163  138.4191  158.2249 N   0  0  0  0  0  0  0  0  0  0  0  0
  149.4919  137.2060  158.7766 C   0  0  0  0  0  0  0  0  0  0  0  0
  150.4997  136.9074  159.4164 O   0  0  0  0  0  0  0  0  0  0  0  0
  148.3763  136.1594  158.6079 C   0  0  0  0  0  0  0  0  0  0  0  0
  147.9834  135.4620  159.8436 N   0  0  0  0  0  0  0  0  0  0  0  0
  148.2458  134.1004  159.8335 N   0  0  0  0  0  0  0  0  0  0  0  0
  147.9502  133.3787  160.8614 C   0  0  0  0  0  0  0  0  0  0  0  0
  148.2239  132.0339  160.8076 O   0  0  0  0  0  0  0  0  0  0  0  0
  147.3468  133.9644  162.0385 C   0  0  0  0  0  0  0  0  0  0  0  0
  147.0924  135.2913  162.0381 C   0  0  0  0  0  0  0  0  0  0  0  0
  147.4091  136.1377  160.8863 C   0  0  0  0  0  0  0  0  0  0  0  0
  147.1718  137.3449  160.8514 O   0  0  0  0  0  0  0  0  0  0  0  0
  152.4574  141.6835  159.2803 C   0  0  0  0  0  0  0  0  0  0  0  0
  148.3148  131.8314  159.8893 H   0  0  0  0  0  0  0  0  0  0  0  0
  154.2067  142.2583  161.4149 H   0  0  0  0  0  0  0  0  0  0  0  0
  153.0347  141.0485  161.9303 H   0  0  0  0  0  0  0  0  0  0  0  0
  152.9649  142.6766  162.5924 H   0  0  0  0  0  0  0  0  0  0  0  0
  151.2009  142.3423  160.8908 H   0  0  0  0  0  0  0  0  0  0  0  0
  152.1315  144.6251  161.1101 H   0  0  0  0  0  0  0  0  0  0  0  0
  153.4055  144.2401  159.9829 H   0  0  0  0  0  0  0  0  0  0  0  0
  151.7680  145.4543  158.7622 H   0  0  0  0  0  0  0  0  0  0  0  0
  149.5748  143.5440  159.6839 H   0  0  0  0  0  0  0  0  0  0  0  0
  149.3910  144.9058  158.5876 H   0  0  0  0  0  0  0  0  0  0  0  0
  149.8218  145.1864  160.2677 H   0  0  0  0  0  0  0  0  0  0  0  0
  151.0455  143.8066  157.0238 H   0  0  0  0  0  0  0  0  0  0  0  0
  152.7367  143.6817  157.4543 H   0  0  0  0  0  0  0  0  0  0  0  0
  151.5583  141.8201  156.0831 H   0  0  0  0  0  0  0  0  0  0  0  0
  152.6138  140.7313  156.9499 H   0  0  0  0  0  0  0  0  0  0  0  0
  149.5840  140.6267  156.5933 H   0  0  0  0  0  0  0  0  0  0  0  0
  150.7599  139.3883  156.2296 H   0  0  0  0  0  0  0  0  0  0  0  0
  151.1868  139.1498  158.7367 H   0  0  0  0  0  0  0  0  0  0  0  0
  149.8803  140.2749  159.0298 H   0  0  0  0  0  0  0  0  0  0  0  0
  148.4626  138.5834  157.7105 H   0  0  0  0  0  0  0  0  0  0  0  0
  147.5097  136.6638  158.1765 H   0  0  0  0  0  0  0  0  0  0  0  0
  148.6892  135.4349  157.8541 H   0  0  0  0  0  0  0  0  0  0  0  0
  147.1091  133.3486  162.8935 H   0  0  0  0  0  0  0  0  0  0  0  0
  146.6430  135.7417  162.9110 H   0  0  0  0  0  0  0  0  0  0  0  0
  153.4934  141.7792  158.9504 H   0  0  0  0  0  0  0  0  0  0  0  0
  152.3021  140.6327  159.5222 H   0  0  0  0  0  0  0  0  0  0  0  0
  150.6036  142.0075  158.5271 H   0  0  0  0  0  0  0  0  0  0  0  0
  1  2  1  0  0  0  0
  1 25  1  0  0  0  0
  1 26  1  0  0  0  0
  1 27  1  0  0  0  0
  2 23  1  0  0  0  0
  2  3  1  0  0  0  0
  2 28  1  0  0  0  0
  3  4  1  0  0  0  0
  3 29  1  0  0  0  0
  3 30  1  0  0  0  0
  4  5  1  0  0  0  0
  4  6  1  0  0  0  0
  4 31  1  0  0  0  0
  5 32  1  0  0  0  0
  5 33  1  0  0  0  0
  5 34  1  0  0  0  0
  6  7  1  0  0  0  0
  6 35  1  0  0  0  0
  6 36  1  0  0  0  0
  7  8  1  0  0  0  0
  7 23  1  0  0  0  0
  7 50  1  0  0  0  0
  8  9  1  0  0  0  0
  8 37  1  0  0  0  0
  8 38  1  0  0  0  0
  9 10  1  0  0  0  0
  9 39  1  0  0  0  0
  9 40  1  0  0  0  0
 10 11  1  0  0  0  0
 10 41  1  0  0  0  0
 10 42  1  0  0  0  0
 11 12  1  0  0  0  0
 11 43  1  0  0  0  0
 12 13  2  0  0  0  0
 12 14  1  0  0  0  0
 14 44  1  0  0  0  0
 14 45  1  0  0  0  0
 14 15  1  0  0  0  0
 15 16  1  0  0  0  0
 15 21  1  0  0  0  0
 16 17  2  0  0  0  0
 17 18  1  0  0  0  0
 17 19  1  0  0  0  0
 18 24  1  0  0  0  0
 19 46  1  0  0  0  0
 19 20  2  0  0  0  0
 20 47  1  0  0  0  0
 20 21  1  0  0  0  0
 21 22  2  0  0  0  0
 23 48  1  0  0  0  0
 23 49  1  0  0  0  0
M  CHG  1   7   1
M  END
> <s_m_source_file>
AV-unprocessed.smi

> <i_m_source_file_index>
1261

> <i_lp_mmshare_version>
43012

> <i_f3d_flags>
0

> <s_epik_input>
W0NIM11bQ0BASF0xW0NIMl1bQ0BASF0oW0NIM10pW0NIMl1OKFtDSDJdMSlbQ0gyXVtDSDJdW0NIMl1bTkhdQyg9TylbQ0gyXW4yW25IXWMoPU8pW2NIXVtjSF1jMj1P

> <s_epik_cmdline>
J2VwaWtfcHl0aG9uJywgJy1waCcsICc3LjAnLCAnLXRuJywgJzgnLCAnLW1hJywgJzIwMCcsICctbWV0YWxfYmluZGluZycsICctaW1hZScsICc8aW5maWxlLm1hZT4nLCAnLW9tYWUnLCAnPG91dGZpbGUubWFlPic=

> <r_lp_tautomer_probability>
0.9996

> <r_epik_Ionization_Penalty>
2.1425

> <r_epik_Ionization_Penalty_Charging>
0.000312112

> <r_epik_Ionization_Penalty_Neutral>
2.14218

> <r_epik_State_Penalty>
1.71978

> <r_epik_Charging_Adjusted_Penalty>
1.72009

> <i_epik_Tot_Q>
1

> <i_epik_Tot_abs_Q>
1

> <r_epik_Metal_State_Penalty>
1.71978

> <b_epik_Metal_Only>
0

> <s_lp_Force_Field>
OPLS_2005

> <r_lp_Energy>
29.1446

> <b_lp_Chiralities_Consistent>
1

> <s_lp_Variant>
AV-unprocessed.smi:1261-8

> <Gold.Version>
5.8.1

> <Gold.Id.Protein>
6NUR|6NUR_protein|mol2

> <Gold.PLP.Fitness>
54.7076

> <Gold.PLP.PLP>
-48.3508

> <Gold.PLP.part.hbond>
-2.9996

> <Gold.PLP.part.metal>
0.0000

> <Gold.PLP.part.buried>
-6.6104

> <Gold.PLP.part.nonpolar>
-39.3236

> <Gold.PLP.part.repulsive>
0.2434

> <Gold.PLP.ligand.clash>
0.0000

> <Gold.PLP.ligand.torsion>
0.9121

> <Gold.PLP.Chemscore.Hbond>
2.7120

> <Gold.PLP.Chemscore.CHOScore>
0.0000

> <Gold.PLP.Chemscore.Metal>
0.0000

> <Gold.Chemscore.Hbonds>
donor molecule, donor type, donor heavy atom, donor atom, acceptor molecule, acceptor atom, score
      P1  H  6896  6908       L1    13  0.86
      P1  H  6931  6943       L1    22  0.21
      P1  H  6934  6947       L1    22  1.00

> <Gold.PLP.Chemscore.Internal.Correction>
0.0449

> <Gold.Rescore>
     Score         DG    S(hbond)    S(metal)    S(lipo)     H(rot)  DE(clash)    DE(int)     intcor
     17.78     -18.67       2.58        0.00     107.60       3.14       0.00       0.89       ----

> <Gold.Chemscore.Fitness>
17.7790

> <Gold.Chemscore.DG>
-18.6725

> <Gold.Chemscore.ZeroCoef>
-5.4800

> <Gold.Chemscore.Hbond>
2.5837

> <Gold.Chemscore.Metal>
0.0000

> <Gold.Chemscore.Lipo>
107.5989

> <Gold.Chemscore.Internal_Hbond>
0.0000

> <Gold.Chemscore.DEClash>
0.0038

> <Gold.Chemscore.DEInternal>
0.8896

> <Gold.Chemscore.Rot>
3.1352

> <Gold.Chemscore.Internal.Correction>
   9.000000E+99

> <Gold.Chemscore.Hbonds>
donor molecule, donor type, donor heavy atom, donor atom, acceptor molecule, acceptor atom, score
      P1  H  6896  6908       L1    13  0.74
      P1  H  6931  6943       L1    22  0.08
      P1  H  6934  6947       L1    22  1.00

> <Gold.Chemscore.Hbond.Weighted>
-8.6294

> <Gold.Chemscore.Metal.Weighted>
-0.0000

> <Gold.Chemscore.Lipo.Weighted>
-12.5891

> <Gold.Chemscore.Internal_Hbond.Weighted>
0.0000

> <Gold.Chemscore.DEClash.Weighted>
0.0038

> <Gold.Chemscore.DEInternal.Weighted>
0.8896

> <Gold.Chemscore.Rot.Weighted>
8.0260

> <Gold.Chemscore.Internal.Correction.Weighted>
   9.000000E+99

> <Gold.Protein.RotatedTorsions>
[ 6907 6896 6895 6894 ] final -169.70 input  -60.11 | X-H torsion
[ 7974 7965 7964 7962 ] final   28.60 input  175.53 | X-H torsion
[ 8008 7997 7996 7995 ] final -144.53 input   59.86 | X-H torsion
[ 10167 10162 10161 10158 ] final  169.54 input  -65.29 | X-H torsion
[ 10718 10713 10712 10709 ] final  146.28 input   66.30 | X-H torsion
[ 10763 10752 10751 10750 ] final  -14.61 input  -60.55 | X-H torsion
[ 11005 11000 10999 10996 ] final  -87.48 input  -57.11 | X-H torsion

> <Gold.Protein.ActiveResidues>
 VAL166  LYS551  ARG553  GLY616  TRP617  ASP618  TYR619  PRO620  LYS621  CYS622 
 ASP623  PHE694  ASN695  SER759  ASP760  ASP761  ALA762  ILE779  LEU786  VAL792 
 PHE793  MET794  SER795  GLU796  ALA797  LYS798  CYS799  TRP800  GLU811  SER814 

> <Gold.Protein.RotatedAtoms>
  151.4959  133.3515  159.2860 H   0  0  0  0  0  0  0  0  0  0  0  0  # atno 6907 bound_to 6896
  150.8805  134.8197  159.7232 H   0  0  0  0  0  0  0  0  0  0  0  0  # atno 6908 bound_to 6896
  152.4759  134.4855  159.9731 H   0  0  0  0  0  0  0  0  0  0  0  0  # atno 6909 bound_to 6896
  146.1719  139.7034  142.8961 H   0  0  0  0  0  0  0  0  0  0  0  0  # atno 7974 bound_to 7965
  155.5284  140.0597  157.2893 H   0  0  0  0  0  0  0  0  0  0  0  0  # atno 8008 bound_to 7997
  154.4493  140.1940  156.0514 H   0  0  0  0  0  0  0  0  0  0  0  0  # atno 8009 bound_to 7997
  156.0670  140.3265  155.7533 H   0  0  0  0  0  0  0  0  0  0  0  0  # atno 8010 bound_to 7997
  139.4995  144.3695  151.9740 H   0  0  0  0  0  0  0  0  0  0  0  0  # atno 10167 bound_to 10162
  157.3351  131.0926  151.1130 H   0  0  0  0  0  0  0  0  0  0  0  0  # atno 10718 bound_to 10713
  153.5309  135.7014  153.5684 H   0  0  0  0  0  0  0  0  0  0  0  0  # atno 10763 bound_to 10752
  153.3691  135.3949  155.1775 H   0  0  0  0  0  0  0  0  0  0  0  0  # atno 10764 bound_to 10752
  154.8685  135.3807  154.4806 H   0  0  0  0  0  0  0  0  0  0  0  0  # atno 10765 bound_to 10752
  141.1616  133.7513  156.9312 H   0  0  0  0  0  0  0  0  0  0  0  0  # atno 11005 bound_to 11000
  145.4316  141.0415  143.2907 LP  0  0  0  0  0  0  0  0  0  0  0  0  # atno 17320 bound_to 7965
  144.8177  139.5848  143.7001 LP  0  0  0  0  0  0  0  0  0  0  0  0  # atno 17321 bound_to 7965
  140.3131  144.3515  150.6028 LP  0  0  0  0  0  0  0  0  0  0  0  0  # atno 17342 bound_to 10162
  140.5783  143.2174  151.7475 LP  0  0  0  0  0  0  0  0  0  0  0  0  # atno 17343 bound_to 10162
  157.2364  130.6549  149.5871 LP  0  0  0  0  0  0  0  0  0  0  0  0  # atno 17370 bound_to 10713
  155.9700  130.4582  150.5992 LP  0  0  0  0  0  0  0  0  0  0  0  0  # atno 17371 bound_to 10713
  140.1385  134.9309  157.2434 LP  0  0  0  0  0  0  0  0  0  0  0  0  # atno 17394 bound_to 11000
  140.2866  134.3289  155.7327 LP  0  0  0  0  0  0  0  0  0  0  0  0  # atno 17395 bound_to 11000

$$$$
