AV-unprocessed.smi:2458|AV-procd|sdf|9709|dock4
  -GOLD-   2272013353D 1   1.00000     0.00000
 Structure written by MMmdl.
 47 48  0  0  0  0  0  0  0  0  1 V2000
  152.2358  144.9449  158.9668 C   0  0  0  0  0  0  0  0  0  0  0  0
  151.9379  143.5271  159.4919 C   0  0  0  0  0  0  0  0  0  0  0  0
  152.8753  143.2323  160.6791 C   0  0  0  0  0  0  0  0  0  0  0  0
  152.0195  142.4421  158.3778 C   0  0  1  0  0  0  0  0  0  0  0  0
  151.9639  141.0043  158.9510 C   0  0  0  0  0  0  0  0  0  0  0  0
  152.0265  139.9294  157.8539 C   0  0  0  0  0  0  0  0  0  0  0  0
  150.8967  140.1125  156.8245 C   0  0  2  0  0  0  0  0  0  0  0  0
  150.9637  139.0479  155.7220 C   0  0  0  0  0  0  0  0  0  0  0  0
  151.1587  139.3742  154.5507 O   0  0  0  0  0  0  0  0  0  0  0  0
  150.7787  137.7768  156.1087 N   0  0  0  0  0  0  0  0  0  0  0  0
  150.7239  136.6262  155.2119 C   0  0  0  0  0  0  0  0  0  0  0  0
  149.3609  135.8980  155.2493 C   0  0  1  0  0  0  0  0  0  0  0  0
  148.4713  136.5714  154.3829 O   0  0  0  0  0  0  0  0  0  0  0  0
  149.4689  134.4150  154.9200 C   0  0  0  0  0  0  0  0  0  0  0  0
  150.2705  133.5593  155.7050 C   0  0  0  0  0  0  0  0  0  0  0  0
  150.3641  132.1997  155.3520 C   0  0  0  0  0  0  0  0  0  0  0  0
  149.6487  131.7492  154.2250 C   0  0  0  0  0  0  0  0  0  0  0  0
  148.8785  132.5567  153.4650 N   0  0  0  0  0  0  0  0  0  0  0  0
  148.7950  133.8596  153.8100 C   0  0  0  0  0  0  0  0  0  0  0  0
  150.9724  141.5261  156.2210 C   0  0  0  0  0  0  0  0  0  0  0  0
  150.9078  142.6065  157.3119 C   0  0  0  0  0  0  0  0  0  0  0  0
  152.9795  142.5575  157.8717 H   0  0  0  0  0  0  0  0  0  0  0  0
  149.9419  140.0112  157.3440 H   0  0  0  0  0  0  0  0  0  0  0  0
  153.2044  144.9879  158.4678 H   0  0  0  0  0  0  0  0  0  0  0  0
  152.2517  145.6704  159.7806 H   0  0  0  0  0  0  0  0  0  0  0  0
  151.4772  145.2892  158.2649 H   0  0  0  0  0  0  0  0  0  0  0  0
  150.9187  143.5366  159.8807 H   0  0  0  0  0  0  0  0  0  0  0  0
  153.9066  143.1060  160.3485 H   0  0  0  0  0  0  0  0  0  0  0  0
  152.5808  142.3339  161.2203 H   0  0  0  0  0  0  0  0  0  0  0  0
  152.8594  144.0459  161.4047 H   0  0  0  0  0  0  0  0  0  0  0  0
  152.7945  140.8286  159.6333 H   0  0  0  0  0  0  0  0  0  0  0  0
  151.0510  140.8756  159.5344 H   0  0  0  0  0  0  0  0  0  0  0  0
  152.9992  139.9781  157.3618 H   0  0  0  0  0  0  0  0  0  0  0  0
  151.9611  138.9406  158.3101 H   0  0  0  0  0  0  0  0  0  0  0  0
  150.6245  137.5969  157.0902 H   0  0  0  0  0  0  0  0  0  0  0  0
  150.9756  136.9258  154.1932 H   0  0  0  0  0  0  0  0  0  0  0  0
  151.5116  135.9443  155.5348 H   0  0  0  0  0  0  0  0  0  0  0  0
  148.9457  135.9909  156.2537 H   0  0  0  0  0  0  0  0  0  0  0  0
  148.7219  136.3838  153.4912 H   0  0  0  0  0  0  0  0  0  0  0  0
  150.8141  133.9378  156.5584 H   0  0  0  0  0  0  0  0  0  0  0  0
  150.9718  131.5189  155.9295 H   0  0  0  0  0  0  0  0  0  0  0  0
  149.6983  130.7129  153.9252 H   0  0  0  0  0  0  0  0  0  0  0  0
  148.1774  134.4787  153.1759 H   0  0  0  0  0  0  0  0  0  0  0  0
  151.8959  141.6448  155.6516 H   0  0  0  0  0  0  0  0  0  0  0  0
  150.1546  141.6762  155.5150 H   0  0  0  0  0  0  0  0  0  0  0  0
  149.9292  142.5792  157.7932 H   0  0  0  0  0  0  0  0  0  0  0  0
  150.9838  143.5755  156.8204 H   0  0  0  0  0  0  0  0  0  0  0  0
  1  2  1  0  0  0  0
  1 24  1  0  0  0  0
  1 25  1  0  0  0  0
  1 26  1  0  0  0  0
  2  3  1  0  0  0  0
  2  4  1  0  0  0  0
  2 27  1  0  0  0  0
  3 28  1  0  0  0  0
  3 29  1  0  0  0  0
  3 30  1  0  0  0  0
  4 22  1  0  0  0  0
  4 21  1  0  0  0  0
  4  5  1  0  0  0  0
  5  6  1  0  0  0  0
  5 31  1  0  0  0  0
  5 32  1  0  0  0  0
  6  7  1  0  0  0  0
  6 33  1  0  0  0  0
  6 34  1  0  0  0  0
  7 23  1  0  0  0  0
  7  8  1  0  0  0  0
  7 20  1  0  0  0  0
  8  9  2  0  0  0  0
  8 10  1  0  0  0  0
 10 11  1  0  0  0  0
 10 35  1  0  0  0  0
 11 12  1  0  0  0  0
 11 36  1  0  0  0  0
 11 37  1  0  0  0  0
 12 13  1  0  0  0  0
 12 14  1  0  0  0  0
 12 38  1  0  0  0  0
 13 39  1  0  0  0  0
 14 19  1  0  0  0  0
 14 15  2  0  0  0  0
 15 16  1  0  0  0  0
 15 40  1  0  0  0  0
 16 17  2  0  0  0  0
 16 41  1  0  0  0  0
 17 18  1  0  0  0  0
 17 42  1  0  0  0  0
 18 19  2  0  0  0  0
 19 43  1  0  0  0  0
 20 21  1  0  0  0  0
 20 44  1  0  0  0  0
 20 45  1  0  0  0  0
 21 46  1  0  0  0  0
 21 47  1  0  0  0  0
M  END
> <s_m_source_file>
AV-unprocessed.smi

> <i_m_source_file_index>
2458

> <i_lp_mmshare_version>
43012

> <i_f3d_flags>
0

> <s_epik_input>
W0NIM11bQ0hdKFtDSDNdKVtDQEhdMVtDSDJdW0NIMl1bQ0BASF0oW0NIMl1bQ0gyXTEpQyg9TylbTkhdW0NIMl1bQ0BIXShbT0hdKWMyW2NIXVtjSF1bY0hdbltjSF0y

> <s_epik_cmdline>
J2VwaWtfcHl0aG9uJywgJy1waCcsICc3LjAnLCAnLXRuJywgJzgnLCAnLW1hJywgJzIwMCcsICctbWV0YWxfYmluZGluZycsICctaW1hZScsICc8aW5maWxlLm1hZT4nLCAnLW9tYWUnLCAnPG91dGZpbGUubWFlPic=

> <r_epik_Ionization_Penalty>
0.00169206

> <r_epik_Ionization_Penalty_Charging>
0

> <r_epik_Ionization_Penalty_Neutral>
0.00169206

> <r_epik_State_Penalty>
0.0011427

> <r_epik_Charging_Adjusted_Penalty>
0.0011427

> <i_epik_Tot_Q>
0

> <i_epik_Tot_abs_Q>
0

> <r_epik_Metal_State_Penalty>
-0

> <b_epik_Metal_Only>
0

> <s_lp_Force_Field>
OPLS_2005

> <r_lp_Energy>
14.1606

> <b_lp_Chiralities_Consistent>
1

> <s_lp_Variant>
AV-unprocessed.smi:2458-2

> <Gold.Version>
5.8.1

> <Gold.Id.Protein>
6NUR|6NUR_protein|mol2

> <Gold.PLP.Fitness>
50.5930

> <Gold.PLP.PLP>
-42.4419

> <Gold.PLP.part.hbond>
-2.0000

> <Gold.PLP.part.metal>
0.0000

> <Gold.PLP.part.buried>
-5.5780

> <Gold.PLP.part.nonpolar>
-35.2910

> <Gold.PLP.part.repulsive>
0.2737

> <Gold.PLP.ligand.clash>
0.0000

> <Gold.PLP.ligand.torsion>
0.4547

> <Gold.PLP.Chemscore.Hbond>
2.0000

> <Gold.PLP.Chemscore.CHOScore>
1.0000

> <Gold.PLP.Chemscore.Metal>
0.0000

> <Gold.Chemscore.Hbonds>
donor molecule, donor type, donor heavy atom, donor atom, acceptor molecule, acceptor atom, score
      L1  H    13    39       P1  7948  1.00
      P1  H  7989  7998       L1     9  1.00
      L1  C    19    43       P1  7948  0.89

> <Gold.PLP.Chemscore.Internal.Correction>
0.0605

> <Gold.Rescore>
     Score         DG    S(hbond)    S(metal)    S(lipo)     H(rot)  DE(clash)    DE(int)     intcor
     20.17     -20.69       2.00        0.00     118.05       2.06       0.04       0.47       ----

> <Gold.Chemscore.Fitness>
20.1700

> <Gold.Chemscore.DG>
-20.6852

> <Gold.Chemscore.ZeroCoef>
-5.4800

> <Gold.Chemscore.Hbond>
1.9952

> <Gold.Chemscore.Metal>
0.0000

> <Gold.Chemscore.Lipo>
118.0490

> <Gold.Chemscore.Internal_Hbond>
0.0000

> <Gold.Chemscore.DEClash>
0.0421

> <Gold.Chemscore.DEInternal>
0.4730

> <Gold.Chemscore.Rot>
2.0588

> <Gold.Chemscore.Internal.Correction>
   9.000000E+99

> <Gold.Chemscore.Hbonds>
donor molecule, donor type, donor heavy atom, donor atom, acceptor molecule, acceptor atom, score
      L1  H    13    39       P1  7948  1.00
      P1  H  7989  7998       L1     9  1.00

> <Gold.Chemscore.Hbond.Weighted>
-6.6640

> <Gold.Chemscore.Metal.Weighted>
-0.0000

> <Gold.Chemscore.Lipo.Weighted>
-13.8117

> <Gold.Chemscore.Internal_Hbond.Weighted>
0.0000

> <Gold.Chemscore.DEClash.Weighted>
0.0421

> <Gold.Chemscore.DEInternal.Weighted>
0.4730

> <Gold.Chemscore.Rot.Weighted>
5.2705

> <Gold.Chemscore.Internal.Correction.Weighted>
   9.000000E+99

> <Gold.Protein.RotatedTorsions>
[ 6907 6896 6895 6894 ] final  119.78 input  -60.11 | X-H torsion
[ 7974 7965 7964 7962 ] final  135.78 input  175.53 | X-H torsion
[ 8008 7997 7996 7995 ] final  119.20 input   59.86 | X-H torsion
[ 10167 10162 10161 10158 ] final  -50.32 input  -65.29 | X-H torsion
[ 10718 10713 10712 10709 ] final   62.19 input   66.30 | X-H torsion
[ 10763 10752 10751 10750 ] final   47.74 input  -60.55 | X-H torsion
[ 11005 11000 10999 10996 ] final  -40.94 input  -57.11 | X-H torsion

> <Gold.Protein.ActiveResidues>
 VAL166  LYS551  ARG553  GLY616  TRP617  ASP618  TYR619  PRO620  LYS621  CYS622 
 ASP623  PHE694  ASN695  SER759  ASP760  ASP761  ALA762  ILE779  LEU786  VAL792 
 PHE793  MET794  SER795  GLU796  ALA797  LYS798  CYS799  TRP800  GLU811  SER814 

> <Gold.Protein.RotatedAtoms>
  152.4447  133.7514  159.6695 H   0  0  0  0  0  0  0  0  0  0  0  0  # atno 6907 bound_to 6896
  150.8344  133.8027  159.3091 H   0  0  0  0  0  0  0  0  0  0  0  0  # atno 6908 bound_to 6896
  151.5671  135.1066  160.0038 H   0  0  0  0  0  0  0  0  0  0  0  0  # atno 6909 bound_to 6896
  144.9630  139.4689  143.5470 H   0  0  0  0  0  0  0  0  0  0  0  0  # atno 7974 bound_to 7965
  156.2584  140.2858  156.0954 H   0  0  0  0  0  0  0  0  0  0  0  0  # atno 8008 bound_to 7997
  155.1418  140.0395  157.2817 H   0  0  0  0  0  0  0  0  0  0  0  0  # atno 8009 bound_to 7997
  154.6524  140.2548  155.7205 H   0  0  0  0  0  0  0  0  0  0  0  0  # atno 8010 bound_to 7997
  140.6643  143.2662  151.4342 H   0  0  0  0  0  0  0  0  0  0  0  0  # atno 10167 bound_to 10162
  157.5883  130.9036  149.9556 H   0  0  0  0  0  0  0  0  0  0  0  0  # atno 10718 bound_to 10713
  152.9797  135.5966  154.3813 H   0  0  0  0  0  0  0  0  0  0  0  0  # atno 10763 bound_to 10752
  154.3477  135.2767  155.2391 H   0  0  0  0  0  0  0  0  0  0  0  0  # atno 10764 bound_to 10752
  154.4444  135.6005  153.6205 H   0  0  0  0  0  0  0  0  0  0  0  0  # atno 10765 bound_to 10752
  141.0210  133.6862  156.2389 H   0  0  0  0  0  0  0  0  0  0  0  0  # atno 11005 bound_to 11000
  146.3359  139.8792  142.8827 LP  0  0  0  0  0  0  0  0  0  0  0  0  # atno 17320 bound_to 7965
  145.2672  141.0096  143.3793 LP  0  0  0  0  0  0  0  0  0  0  0  0  # atno 17321 bound_to 7965
  139.5887  144.1547  152.2061 LP  0  0  0  0  0  0  0  0  0  0  0  0  # atno 17342 bound_to 10162
  140.0895  144.5633  150.7065 LP  0  0  0  0  0  0  0  0  0  0  0  0  # atno 17343 bound_to 10162
  156.0934  130.3661  150.0352 LP  0  0  0  0  0  0  0  0  0  0  0  0  # atno 17370 bound_to 10713
  156.8479  130.9448  151.3627 LP  0  0  0  0  0  0  0  0  0  0  0  0  # atno 17371 bound_to 10713
  140.6572  134.5005  157.5581 LP  0  0  0  0  0  0  0  0  0  0  0  0  # atno 17394 bound_to 11000
  139.9146  134.8272  156.1409 LP  0  0  0  0  0  0  0  0  0  0  0  0  # atno 17395 bound_to 11000

$$$$
