AV-unprocessed.smi:1531|AV-procd|sdf|6158|dock4
  -GOLD-   22720 6303D 1   1.00000     0.00000
 Structure written by MMmdl.
 44 45  0  0  0  0  0  0  0  0  1 V2000
  148.8693  133.1432  153.1372 C   0  0  0  0  0  0  0  0  0  0  0  0
  147.5421  132.4563  153.4870 C   0  0  0  0  0  0  0  0  0  0  0  0
  146.3199  133.0149  152.7226 C   0  0  2  0  0  0  0  0  0  0  0  0
  146.6284  133.1457  151.2150 C   0  0  0  0  0  0  0  0  0  0  0  0
  145.4119  133.6485  150.4222 C   0  0  0  0  0  0  0  0  0  0  0  0
  144.9011  134.9853  150.9769 C   0  0  0  0  0  0  0  0  0  0  0  0
  144.5769  134.8731  152.4756 C   0  0  0  0  0  0  0  0  0  0  0  0
  145.7742  134.3505  153.2960 C   0  0  2  0  0  0  0  0  0  0  0  0
  146.8241  135.3683  153.3671 N   0  0  0  0  0  0  0  0  0  0  0  0
  146.9153  136.3411  154.2849 C   0  0  0  0  0  0  0  0  0  0  0  0
  146.1040  136.5012  155.1970 O   0  0  0  0  0  0  0  0  0  0  0  0
  147.9969  137.1084  154.0723 N   0  0  0  0  0  0  0  0  0  0  0  0
  148.4422  138.2019  154.8569 C   0  0  0  0  0  0  0  0  0  0  0  0
  148.1879  138.3615  156.2438 C   0  0  0  0  0  0  0  0  0  0  0  0
  148.7223  139.4829  156.7028 N   0  0  0  0  0  0  0  0  0  0  0  0
  149.3194  140.0554  155.6273 N   0  0  0  0  0  0  0  0  0  0  0  0
  150.0126  141.3225  155.7783 C   0  0  0  0  0  0  0  0  0  0  0  0
  150.1049  141.7344  157.2486 C   0  0  0  0  0  0  0  0  0  0  0  0
  149.5430  142.8964  157.5937 N   0  0  0  0  0  0  0  0  0  0  0  0
  150.6721  141.0108  158.0643 O   0  0  0  0  0  0  0  0  0  0  0  0
  149.1658  139.2984  154.4822 C   0  0  0  0  0  0  0  0  0  0  0  0
  149.6742  132.7708  153.7712 H   0  0  0  0  0  0  0  0  0  0  0  0
  148.8063  134.2220  153.2815 H   0  0  0  0  0  0  0  0  0  0  0  0
  149.1580  132.9565  152.1030 H   0  0  0  0  0  0  0  0  0  0  0  0
  147.6351  131.3822  153.3237 H   0  0  0  0  0  0  0  0  0  0  0  0
  147.3717  132.5780  154.5574 H   0  0  0  0  0  0  0  0  0  0  0  0
  145.5221  132.2765  152.8173 H   0  0  0  0  0  0  0  0  0  0  0  0
  147.4674  133.8260  151.0644 H   0  0  0  0  0  0  0  0  0  0  0  0
  146.9434  132.1812  150.8150 H   0  0  0  0  0  0  0  0  0  0  0  0
  145.6739  133.7594  149.3696 H   0  0  0  0  0  0  0  0  0  0  0  0
  144.6144  132.9056  150.4654 H   0  0  0  0  0  0  0  0  0  0  0  0
  145.6515  135.7604  150.8166 H   0  0  0  0  0  0  0  0  0  0  0  0
  144.0130  135.2994  150.4281 H   0  0  0  0  0  0  0  0  0  0  0  0
  144.2479  135.8394  152.8600 H   0  0  0  0  0  0  0  0  0  0  0  0
  143.7329  134.1945  152.6052 H   0  0  0  0  0  0  0  0  0  0  0  0
  145.4031  134.1503  154.3022 H   0  0  0  0  0  0  0  0  0  0  0  0
  147.5399  135.3226  152.6568 H   0  0  0  0  0  0  0  0  0  0  0  0
  148.5660  136.8822  153.2697 H   0  0  0  0  0  0  0  0  0  0  0  0
  147.6460  137.7155  156.9189 H   0  0  0  0  0  0  0  0  0  0  0  0
  151.0119  141.2305  155.3506 H   0  0  0  0  0  0  0  0  0  0  0  0
  149.4906  142.0921  155.2073 H   0  0  0  0  0  0  0  0  0  0  0  0
  149.5752  143.2089  158.5535 H   0  0  0  0  0  0  0  0  0  0  0  0
  149.0837  143.4574  156.8910 H   0  0  0  0  0  0  0  0  0  0  0  0
  149.5762  139.6070  153.5320 H   0  0  0  0  0  0  0  0  0  0  0  0
  1  2  1  0  0  0  0
  1 22  1  0  0  0  0
  1 23  1  0  0  0  0
  1 24  1  0  0  0  0
  2  3  1  0  0  0  0
  2 25  1  0  0  0  0
  2 26  1  0  0  0  0
  3  8  1  0  0  0  0
  3  4  1  0  0  0  0
  3 27  1  0  0  0  0
  4  5  1  0  0  0  0
  4 28  1  0  0  0  0
  4 29  1  0  0  0  0
  5  6  1  0  0  0  0
  5 30  1  0  0  0  0
  5 31  1  0  0  0  0
  6  7  1  0  0  0  0
  6 32  1  0  0  0  0
  6 33  1  0  0  0  0
  7  8  1  0  0  0  0
  7 34  1  0  0  0  0
  7 35  1  0  0  0  0
  8  9  1  0  0  0  0
  8 36  1  0  0  0  0
  9 10  1  0  0  0  0
  9 37  1  0  0  0  0
 10 11  2  0  0  0  0
 10 12  1  0  0  0  0
 12 13  1  0  0  0  0
 12 38  1  0  0  0  0
 13 21  2  0  0  0  0
 13 14  1  0  0  0  0
 14 15  2  0  0  0  0
 14 39  1  0  0  0  0
 15 16  1  0  0  0  0
 16 17  1  0  0  0  0
 16 21  1  0  0  0  0
 17 18  1  0  0  0  0
 17 40  1  0  0  0  0
 17 41  1  0  0  0  0
 18 19  1  0  0  0  0
 18 20  2  0  0  0  0
 19 42  1  0  0  0  0
 19 43  1  0  0  0  0
 21 44  1  0  0  0  0
M  END
> <s_m_source_file>
AV-unprocessed.smi

> <i_m_source_file_index>
1531

> <i_lp_mmshare_version>
43012

> <i_f3d_flags>
0

> <s_epik_input>
W0NIM11bQ0gyXVtDQEBIXTFbQ0gyXVtDSDJdW0NIMl1bQ0gyXVtDQEhdMVtOSF1DKD1PKVtOSF1jMltjSF1ubihbY0hdMilbQ0gyXUMoPU8pW05IMl0=

> <s_epik_cmdline>
J2VwaWtfcHl0aG9uJywgJy1waCcsICc3LjAnLCAnLXRuJywgJzgnLCAnLW1hJywgJzIwMCcsICctbWV0YWxfYmluZGluZycsICctaW1hZScsICc8aW5maWxlLm1hZT4nLCAnLW9tYWUnLCAnPG91dGZpbGUubWFlPic=

> <r_lp_tautomer_probability>
1

> <r_epik_Ionization_Penalty>
4.83437e-05

> <r_epik_Ionization_Penalty_Charging>
0

> <r_epik_Ionization_Penalty_Neutral>
4.83437e-05

> <r_epik_State_Penalty>
-0

> <r_epik_Charging_Adjusted_Penalty>
0

> <i_epik_Tot_Q>
0

> <i_epik_Tot_abs_Q>
0

> <r_epik_Metal_State_Penalty>
-0

> <b_epik_Metal_Only>
0

> <s_lp_Force_Field>
OPLS_2005

> <r_lp_Energy>
15.1652

> <b_lp_Chiralities_Consistent>
1

> <s_lp_Variant>
AV-unprocessed.smi:1531-3

> <Gold.Version>
5.8.1

> <Gold.Id.Protein>
6NUR|6NUR_protein|mol2

> <Gold.PLP.Fitness>
38.7160

> <Gold.PLP.PLP>
-28.2572

> <Gold.PLP.part.hbond>
-3.0000

> <Gold.PLP.part.metal>
0.0000

> <Gold.PLP.part.buried>
-2.4735

> <Gold.PLP.part.nonpolar>
-21.9100

> <Gold.PLP.part.repulsive>
0.0528

> <Gold.PLP.ligand.clash>
0.0000

> <Gold.PLP.ligand.torsion>
0.7054

> <Gold.PLP.Chemscore.Hbond>
2.9440

> <Gold.PLP.Chemscore.CHOScore>
1.0000

> <Gold.PLP.Chemscore.Metal>
0.0000

> <Gold.Chemscore.Hbonds>
donor molecule, donor type, donor heavy atom, donor atom, acceptor molecule, acceptor atom, score
      L1  H     9    37       P1  7948  0.93
      L1  H    12    38       P1  7948  1.00
      L1  H    19    43       P1  8028  1.00
      L1  C    21    44       P1  7957  1.00

> <Gold.PLP.Chemscore.Internal.Correction>
0.0376

> <Gold.Rescore>
     Score         DG    S(hbond)    S(metal)    S(lipo)     H(rot)  DE(clash)    DE(int)     intcor
     13.21     -16.05       2.84        0.00      56.12       2.13       0.01       2.83       ----

> <Gold.Chemscore.Fitness>
13.2083

> <Gold.Chemscore.DG>
-16.0542

> <Gold.Chemscore.ZeroCoef>
-5.4800

> <Gold.Chemscore.Hbond>
2.8353

> <Gold.Chemscore.Metal>
0.0000

> <Gold.Chemscore.Lipo>
56.1211

> <Gold.Chemscore.Internal_Hbond>
0.0000

> <Gold.Chemscore.DEClash>
0.0123

> <Gold.Chemscore.DEInternal>
2.8336

> <Gold.Chemscore.Rot>
2.1335

> <Gold.Chemscore.Internal.Correction>
   9.000000E+99

> <Gold.Chemscore.Hbonds>
donor molecule, donor type, donor heavy atom, donor atom, acceptor molecule, acceptor atom, score
      L1  H     9    37       P1  7948  0.90
      L1  H    12    38       P1  7948  0.98
      L1  H    19    43       P1  8028  0.81

> <Gold.Chemscore.Hbond.Weighted>
-9.4699

> <Gold.Chemscore.Metal.Weighted>
-0.0000

> <Gold.Chemscore.Lipo.Weighted>
-6.5662

> <Gold.Chemscore.Internal_Hbond.Weighted>
0.0000

> <Gold.Chemscore.DEClash.Weighted>
0.0123

> <Gold.Chemscore.DEInternal.Weighted>
2.8336

> <Gold.Chemscore.Rot.Weighted>
5.4618

> <Gold.Chemscore.Internal.Correction.Weighted>
   9.000000E+99

> <Gold.Protein.RotatedTorsions>
[ 6907 6896 6895 6894 ] final -153.63 input  -60.11 | X-H torsion
[ 7974 7965 7964 7962 ] final    0.47 input  175.53 | X-H torsion
[ 8008 7997 7996 7995 ] final  -94.91 input   59.86 | X-H torsion
[ 10167 10162 10161 10158 ] final  103.88 input  -65.29 | X-H torsion
[ 10718 10713 10712 10709 ] final  139.34 input   66.30 | X-H torsion
[ 10763 10752 10751 10750 ] final   78.06 input  -60.55 | X-H torsion
[ 11005 11000 10999 10996 ] final  170.27 input  -57.11 | X-H torsion

> <Gold.Protein.ActiveResidues>
 VAL166  LYS551  ARG553  GLY616  TRP617  ASP618  TYR619  PRO620  LYS621  CYS622 
 ASP623  PHE694  ASN695  SER759  ASP760  ASP761  ALA762  ILE779  LEU786  VAL792 
 PHE793  MET794  SER795  GLU796  ALA797  LYS798  CYS799  TRP800  GLU811  SER814 

> <Gold.Protein.RotatedAtoms>
  151.2454  133.4378  159.2608 H   0  0  0  0  0  0  0  0  0  0  0  0  # atno 6907 bound_to 6896
  151.0667  134.9772  159.8298 H   0  0  0  0  0  0  0  0  0  0  0  0  # atno 6908 bound_to 6896
  152.5406  134.2401  159.8911 H   0  0  0  0  0  0  0  0  0  0  0  0  # atno 6909 bound_to 6896
  146.2434  140.1133  142.8343 H   0  0  0  0  0  0  0  0  0  0  0  0  # atno 7974 bound_to 7965
  154.7545  140.0485  157.0922 H   0  0  0  0  0  0  0  0  0  0  0  0  # atno 8008 bound_to 7997
  155.0015  140.3125  155.4846 H   0  0  0  0  0  0  0  0  0  0  0  0  # atno 8009 bound_to 7997
  156.2892  140.2200  156.5125 H   0  0  0  0  0  0  0  0  0  0  0  0  # atno 8010 bound_to 7997
  139.7225  144.7055  151.0850 H   0  0  0  0  0  0  0  0  0  0  0  0  # atno 10167 bound_to 10162
  157.4155  131.1033  151.0409 H   0  0  0  0  0  0  0  0  0  0  0  0  # atno 10718 bound_to 10713
  153.0846  135.4891  154.8571 H   0  0  0  0  0  0  0  0  0  0  0  0  # atno 10763 bound_to 10752
  154.7194  135.3036  154.9074 H   0  0  0  0  0  0  0  0  0  0  0  0  # atno 10764 bound_to 10752
  153.9743  135.6797  153.4801 H   0  0  0  0  0  0  0  0  0  0  0  0  # atno 10765 bound_to 10752
  140.3066  134.7551  157.3958 H   0  0  0  0  0  0  0  0  0  0  0  0  # atno 11005 bound_to 11000
  145.0468  140.8988  143.5019 LP  0  0  0  0  0  0  0  0  0  0  0  0  # atno 17320 bound_to 7965
  145.1224  139.2685  143.5582 LP  0  0  0  0  0  0  0  0  0  0  0  0  # atno 17321 bound_to 7965
  140.7756  143.5147  150.9609 LP  0  0  0  0  0  0  0  0  0  0  0  0  # atno 17342 bound_to 10162
  139.8834  143.7043  152.3154 LP  0  0  0  0  0  0  0  0  0  0  0  0  # atno 17343 bound_to 10162
  157.1359  130.6122  149.5542 LP  0  0  0  0  0  0  0  0  0  0  0  0  # atno 17370 bound_to 10713
  155.9864  130.4898  150.7075 LP  0  0  0  0  0  0  0  0  0  0  0  0  # atno 17371 bound_to 10713
  140.1062  134.5407  155.8307 LP  0  0  0  0  0  0  0  0  0  0  0  0  # atno 17394 bound_to 11000
  141.2117  133.6710  156.6603 LP  0  0  0  0  0  0  0  0  0  0  0  0  # atno 17395 bound_to 11000

$$$$
