AV-unprocessed.smi:1809|AV-procd|sdf|7323|dock4
  -GOLD-   22720 8583D 1   1.00000     0.00000
 Structure written by MMmdl.
 39 41  0  0  0  0  0  0  0  0  3 V2000
  151.1549  141.2067  156.3340 C   0  0  0  0  0  0  0  0  0  0  0  0
  151.0246  139.8888  155.6507 C   0  0  0  0  0  0  0  0  0  0  0  0
  150.4972  139.7567  154.4311 N   0  0  0  0  0  0  0  0  0  0  0  0
  150.4824  138.4351  154.0085 N   0  0  0  0  0  0  0  0  0  0  0  0
  150.9880  137.5874  154.9156 C   0  0  0  0  0  0  0  0  0  0  0  0
  151.0681  136.2638  154.7003 N   0  5  0  0  0  0  0  0  0  0  0  0
  150.1985  135.4269  155.3096 C   0  0  0  0  0  0  0  0  0  0  0  0
  150.2853  134.9889  156.4590 O   0  0  0  0  0  0  0  0  0  0  0  0
  149.1638  135.0726  154.5378 N   0  0  0  0  0  0  0  0  0  0  0  0
  148.0871  134.1772  154.9387 C   0  0  0  0  0  0  0  0  0  0  0  0
  147.0981  133.9692  153.7838 C   0  0  2  0  0  0  0  0  0  0  0  0
  145.7152  133.5163  154.2911 C   0  0  0  0  0  0  0  0  0  0  0  0
  144.8015  133.1679  153.1780 N   0  3  1  0  0  0  0  0  0  0  0  0
  144.1311  134.2968  152.4967 C   0  0  0  0  0  0  0  0  0  0  0  0
  143.8890  133.8429  151.0482 C   0  0  0  0  0  0  0  0  0  0  0  0
  144.4232  132.4082  150.9719 C   0  0  0  0  0  0  0  0  0  0  0  0
  145.4049  132.3070  152.1404 C   0  0  1  0  0  0  0  0  0  0  0  0
  146.8211  132.7937  151.7605 C   0  0  0  0  0  0  0  0  0  0  0  0
  147.6127  132.9544  152.9283 O   0  0  0  0  0  0  0  0  0  0  0  0
  151.5504  138.3835  156.3851 S   0  0  0  0  0  0  0  0  0  0  0  0
  150.1810  141.5363  156.6959 H   0  0  0  0  0  0  0  0  0  0  0  0
  151.5449  141.9531  155.6415 H   0  0  0  0  0  0  0  0  0  0  0  0
  151.8357  141.1287  157.1818 H   0  0  0  0  0  0  0  0  0  0  0  0
  149.1289  135.4494  153.6021 H   0  0  0  0  0  0  0  0  0  0  0  0
  148.4983  133.2186  155.2598 H   0  0  0  0  0  0  0  0  0  0  0  0
  147.5742  134.6127  155.7976 H   0  0  0  0  0  0  0  0  0  0  0  0
  147.0038  134.9057  153.2308 H   0  0  0  0  0  0  0  0  0  0  0  0
  145.8332  132.6274  154.9120 H   0  0  0  0  0  0  0  0  0  0  0  0
  145.2584  134.2796  154.9224 H   0  0  0  0  0  0  0  0  0  0  0  0
  143.2000  134.5404  153.0090 H   0  0  0  0  0  0  0  0  0  0  0  0
  144.7582  135.1891  152.5068 H   0  0  0  0  0  0  0  0  0  0  0  0
  142.8352  133.8942  150.7718 H   0  0  0  0  0  0  0  0  0  0  0  0
  144.4395  134.4871  150.3614 H   0  0  0  0  0  0  0  0  0  0  0  0
  143.6013  131.7079  151.1269 H   0  0  0  0  0  0  0  0  0  0  0  0
  144.8766  132.1738  150.0079 H   0  0  0  0  0  0  0  0  0  0  0  0
  145.4671  131.2835  152.5123 H   0  0  0  0  0  0  0  0  0  0  0  0
  147.3021  132.0660  151.1066 H   0  0  0  0  0  0  0  0  0  0  0  0
  146.7880  133.7344  151.2083 H   0  0  0  0  0  0  0  0  0  0  0  0
  144.0504  132.6257  153.5806 H   0  0  0  0  0  0  0  0  0  0  0  0
  1  2  1  0  0  0  0
  1 21  1  0  0  0  0
  1 22  1  0  0  0  0
  1 23  1  0  0  0  0
  2 20  1  0  0  0  0
  2  3  2  0  0  0  0
  3  4  1  0  0  0  0
  4  5  2  0  0  0  0
  5  6  1  0  0  0  0
  5 20  1  0  0  0  0
  6  7  1  0  0  0  0
  7  8  2  0  0  0  0
  7  9  1  0  0  0  0
  9 10  1  0  0  0  0
  9 24  1  0  0  0  0
 10 11  1  0  0  0  0
 10 25  1  0  0  0  0
 10 26  1  0  0  0  0
 11 19  1  0  0  0  0
 11 12  1  0  0  0  0
 11 27  1  0  0  0  0
 12 13  1  0  0  0  0
 12 28  1  0  0  0  0
 12 29  1  0  0  0  0
 13 17  1  0  0  0  0
 13 14  1  0  0  0  0
 13 39  1  0  0  0  0
 14 15  1  0  0  0  0
 14 30  1  0  0  0  0
 14 31  1  0  0  0  0
 15 16  1  0  0  0  0
 15 32  1  0  0  0  0
 15 33  1  0  0  0  0
 16 17  1  0  0  0  0
 16 34  1  0  0  0  0
 16 35  1  0  0  0  0
 17 18  1  0  0  0  0
 17 36  1  0  0  0  0
 18 19  1  0  0  0  0
 18 37  1  0  0  0  0
 18 38  1  0  0  0  0
M  CHG  1   6  -1
M  CHG  1  13   1
M  END
> <s_m_source_file>
AV-unprocessed.smi

> <i_m_source_file_index>
1809

> <i_lp_mmshare_version>
43012

> <i_f3d_flags>
0

> <s_epik_input>
W0NIM11jMW5uYyhzMSlbTkhdQyg9TylbTkhdW0NIMl1bQ0BIXShbQ0gyXTIpT1tDSDJdW0NAQEhdKE4yMylbQ0gyXVtDSDJdW0NIMl0z

> <s_epik_cmdline>
J2VwaWtfcHl0aG9uJywgJy1waCcsICc3LjAnLCAnLXRuJywgJzgnLCAnLW1hJywgJzIwMCcsICctbWV0YWxfYmluZGluZycsICctaW1hZScsICc8aW5maWxlLm1hZT4nLCAnLW9tYWUnLCAnPG91dGZpbGUubWFlPic=

> <r_lp_tautomer_probability>
1

> <r_epik_Ionization_Penalty>
3.2601

> <r_epik_Ionization_Penalty_Charging>
3.1406

> <r_epik_Ionization_Penalty_Neutral>
0.119497

> <r_epik_State_Penalty>
3.08894

> <r_epik_Charging_Adjusted_Penalty>
6.22954

> <i_epik_Tot_Q>
0

> <i_epik_Tot_abs_Q>
2

> <r_epik_Metal_State_Penalty>
0.510807

> <b_epik_Metal_Only>
1

> <s_lp_Force_Field>
OPLS_2005

> <r_lp_Energy>
30.6493

> <b_lp_Chiralities_Consistent>
1

> <s_lp_Variant>
AV-unprocessed.smi:1809-15

> <Gold.Version>
5.8.1

> <Gold.Id.Protein>
6NUR|6NUR_protein|mol2

> <Gold.PLP.Fitness>
42.9424

> <Gold.PLP.PLP>
-28.2816

> <Gold.PLP.part.hbond>
-4.0000

> <Gold.PLP.part.metal>
0.0000

> <Gold.PLP.part.buried>
-6.7177

> <Gold.PLP.part.nonpolar>
-19.7316

> <Gold.PLP.part.repulsive>
0.7319

> <Gold.PLP.ligand.clash>
0.0000

> <Gold.PLP.ligand.torsion>
1.6794

> <Gold.PLP.Chemscore.Hbond>
6.0000

> <Gold.PLP.Chemscore.CHOScore>
0.0000

> <Gold.PLP.Chemscore.Metal>
0.0000

> <Gold.Chemscore.Hbonds>
donor molecule, donor type, donor heavy atom, donor atom, acceptor molecule, acceptor atom, score
      L1  H     9    24       P1  7948  1.00
      L1  H    13    39       P1 10957  2.00
      P1  H  7989  7998       L1     3  1.00
      P1  H 10752 10763       L1     6  2.00

> <Gold.PLP.Chemscore.Internal.Correction>
0.0195

> <Gold.Rescore>
     Score         DG    S(hbond)    S(metal)    S(lipo)     H(rot)  DE(clash)    DE(int)     intcor
     17.20     -18.87       3.22        0.00      51.66       1.32       0.05       1.63       ----

> <Gold.Chemscore.Fitness>
17.1957

> <Gold.Chemscore.DG>
-18.8726

> <Gold.Chemscore.ZeroCoef>
-5.4800

> <Gold.Chemscore.Hbond>
3.2153

> <Gold.Chemscore.Metal>
0.0000

> <Gold.Chemscore.Lipo>
51.6617

> <Gold.Chemscore.Internal_Hbond>
0.0000

> <Gold.Chemscore.DEClash>
0.0483

> <Gold.Chemscore.DEInternal>
1.6287

> <Gold.Chemscore.Rot>
1.3246

> <Gold.Chemscore.Internal.Correction>
   9.000000E+99

> <Gold.Chemscore.Hbonds>
donor molecule, donor type, donor heavy atom, donor atom, acceptor molecule, acceptor atom, score
      L1  H     9    24       P1  7948  0.55
      L1  H    13    39       P1 10957  0.47
      P1  H  7989  7998       L1     3  0.23
      P1  H 10752 10763       L1     6  0.80

> <Gold.Chemscore.Hbond.Weighted>
-10.7392

> <Gold.Chemscore.Metal.Weighted>
-0.0000

> <Gold.Chemscore.Lipo.Weighted>
-6.0444

> <Gold.Chemscore.Internal_Hbond.Weighted>
0.0000

> <Gold.Chemscore.DEClash.Weighted>
0.0483

> <Gold.Chemscore.DEInternal.Weighted>
1.6287

> <Gold.Chemscore.Rot.Weighted>
3.3910

> <Gold.Chemscore.Internal.Correction.Weighted>
   9.000000E+99

> <Gold.Protein.RotatedTorsions>
[ 6907 6896 6895 6894 ] final  -83.09 input  -60.11 | X-H torsion
[ 7974 7965 7964 7962 ] final  -47.10 input  175.53 | X-H torsion
[ 8008 7997 7996 7995 ] final -154.13 input   59.86 | X-H torsion
[ 10167 10162 10161 10158 ] final  117.93 input  -65.29 | X-H torsion
[ 10718 10713 10712 10709 ] final -166.02 input   66.30 | X-H torsion
[ 10763 10752 10751 10750 ] final   43.31 input  -60.55 | X-H torsion
[ 11005 11000 10999 10996 ] final -121.56 input  -57.11 | X-H torsion

> <Gold.Protein.ActiveResidues>
 VAL166  LYS551  ARG553  GLY616  TRP617  ASP618  TYR619  PRO620  LYS621  CYS622 
 ASP623  PHE694  ASN695  SER759  ASP760  ASP761  ALA762  ILE779  LEU786  VAL792 
 PHE793  MET794  SER795  GLU796  ALA797  LYS798  CYS799  TRP800  GLU811  SER814 

> <Gold.Protein.RotatedAtoms>
  150.6889  134.3565  159.4931 H   0  0  0  0  0  0  0  0  0  0  0  0  # atno 6907 bound_to 6896
  152.1400  134.9067  160.0563 H   0  0  0  0  0  0  0  0  0  0  0  0  # atno 6908 bound_to 6896
  152.0205  133.3862  159.4293 H   0  0  0  0  0  0  0  0  0  0  0  0  # atno 6909 bound_to 6896
  145.9651  140.7440  142.9438 H   0  0  0  0  0  0  0  0  0  0  0  0  # atno 7974 bound_to 7965
  155.6815  140.0745  157.2483 H   0  0  0  0  0  0  0  0  0  0  0  0  # atno 8008 bound_to 7997
  154.4104  140.1681  156.2040 H   0  0  0  0  0  0  0  0  0  0  0  0  # atno 8009 bound_to 7997
  155.9530  140.3376  155.6427 H   0  0  0  0  0  0  0  0  0  0  0  0  # atno 8010 bound_to 7997
  139.6145  144.7089  151.2770 H   0  0  0  0  0  0  0  0  0  0  0  0  # atno 10167 bound_to 10162
  156.6618  130.9049  151.3030 H   0  0  0  0  0  0  0  0  0  0  0  0  # atno 10718 bound_to 10713
  152.9863  135.6105  154.3091 H   0  0  0  0  0  0  0  0  0  0  0  0  # atno 10763 bound_to 10752
  154.2807  135.2777  155.2700 H   0  0  0  0  0  0  0  0  0  0  0  0  # atno 10764 bound_to 10752
  154.5040  135.5859  153.6610 H   0  0  0  0  0  0  0  0  0  0  0  0  # atno 10765 bound_to 10752
  141.0061  134.0333  157.3475 H   0  0  0  0  0  0  0  0  0  0  0  0  # atno 11005 bound_to 11000
  144.6824  140.2656  143.7313 LP  0  0  0  0  0  0  0  0  0  0  0  0  # atno 17320 bound_to 7965
  145.7985  139.1955  143.2062 LP  0  0  0  0  0  0  0  0  0  0  0  0  # atno 17321 bound_to 7965
  140.7342  143.6773  150.8030 LP  0  0  0  0  0  0  0  0  0  0  0  0  # atno 17342 bound_to 10162
  140.0374  143.5381  152.2733 LP  0  0  0  0  0  0  0  0  0  0  0  0  # atno 17343 bound_to 10162
  157.7107  130.9437  150.1079 LP  0  0  0  0  0  0  0  0  0  0  0  0  # atno 17370 bound_to 10713
  156.2005  130.3660  149.8794 LP  0  0  0  0  0  0  0  0  0  0  0  0  # atno 17371 bound_to 10713
  139.9064  135.0180  156.7504 LP  0  0  0  0  0  0  0  0  0  0  0  0  # atno 17394 bound_to 11000
  140.6811  133.9474  155.7911 LP  0  0  0  0  0  0  0  0  0  0  0  0  # atno 17395 bound_to 11000

$$$$
