AV-unprocessed.smi:2414|AV-procd|sdf|9541|dock7
  -GOLD-   2272013173D 1   1.00000     0.00000
 Structure written by MMmdl.
 43 44  0  0  0  0  0  0  0  0  1 V2000
  151.9401  142.0441  158.6146 C   0  0  0  0  0  0  0  0  0  0  0  0
  151.4192  141.3703  157.3904 C   0  0  0  0  0  0  0  0  0  0  0  0
  150.9321  141.9633  156.2523 C   0  0  0  0  0  0  0  0  0  0  0  0
  150.5191  141.0553  155.2748 N   0  0  0  0  0  0  0  0  0  0  0  0
  150.6851  139.7847  155.6537 C   0  0  0  0  0  0  0  0  0  0  0  0
  150.3270  138.6083  154.8009 C   0  0  1  0  0  0  0  0  0  0  0  0
  151.5720  137.7944  154.4065 C   0  0  0  0  0  0  0  0  0  0  0  0
  149.1977  137.7696  155.4373 C   0  0  0  0  0  0  0  0  0  0  0  0
  148.5999  136.8276  154.4969 N   0  0  0  0  0  0  0  0  0  0  0  0
  147.4583  136.1570  154.7014 C   0  0  0  0  0  0  0  0  0  0  0  0
  146.7847  136.2371  155.7288 O   0  0  0  0  0  0  0  0  0  0  0  0
  147.1352  135.3977  153.6476 N   0  0  0  0  0  0  0  0  0  0  0  0
  145.9419  134.5644  153.5550 C   0  0  0  0  0  0  0  0  0  0  0  0
  145.9243  133.7322  152.2543 C   0  0  2  0  0  0  0  0  0  0  0  0
  147.0873  132.7243  152.1859 C   0  0  0  0  0  0  0  0  0  0  0  0
  145.8926  134.6445  151.0143 C   0  0  0  0  0  0  0  0  0  0  0  0
  144.4208  134.7190  150.6711 C   0  0  0  0  0  0  0  0  0  0  0  0
  143.9627  133.3163  151.0378 C   0  0  0  0  0  0  0  0  0  0  0  0
  144.6893  133.0108  152.2208 O   0  0  0  0  0  0  0  0  0  0  0  0
  151.3753  139.6308  157.2657 S   0  0  0  0  0  0  0  0  0  0  0  0
  151.3813  142.9565  158.8245 H   0  0  0  0  0  0  0  0  0  0  0  0
  152.9894  142.3120  158.4897 H   0  0  0  0  0  0  0  0  0  0  0  0
  151.8590  141.3938  159.4859 H   0  0  0  0  0  0  0  0  0  0  0  0
  150.8434  143.0212  156.0533 H   0  0  0  0  0  0  0  0  0  0  0  0
  149.9289  139.0226  153.8736 H   0  0  0  0  0  0  0  0  0  0  0  0
  152.3137  138.4283  153.9200 H   0  0  0  0  0  0  0  0  0  0  0  0
  151.3247  136.9930  153.7103 H   0  0  0  0  0  0  0  0  0  0  0  0
  152.0419  137.3424  155.2805 H   0  0  0  0  0  0  0  0  0  0  0  0
  149.5873  137.1982  156.2803 H   0  0  0  0  0  0  0  0  0  0  0  0
  148.4228  138.4231  155.8423 H   0  0  0  0  0  0  0  0  0  0  0  0
  149.0814  136.6924  153.6199 H   0  0  0  0  0  0  0  0  0  0  0  0
  147.7523  135.3963  152.8486 H   0  0  0  0  0  0  0  0  0  0  0  0
  145.9100  133.9097  154.4268 H   0  0  0  0  0  0  0  0  0  0  0  0
  145.0475  135.1889  153.5971 H   0  0  0  0  0  0  0  0  0  0  0  0
  148.0507  133.2343  152.2130 H   0  0  0  0  0  0  0  0  0  0  0  0
  147.0476  132.1392  151.2668 H   0  0  0  0  0  0  0  0  0  0  0  0
  147.0616  132.0184  153.0162 H   0  0  0  0  0  0  0  0  0  0  0  0
  146.3370  135.6257  151.1858 H   0  0  0  0  0  0  0  0  0  0  0  0
  146.4282  134.1853  150.1820 H   0  0  0  0  0  0  0  0  0  0  0  0
  143.9201  135.4575  151.2986 H   0  0  0  0  0  0  0  0  0  0  0  0
  144.2352  134.9701  149.6266 H   0  0  0  0  0  0  0  0  0  0  0  0
  142.8865  133.2500  151.1978 H   0  0  0  0  0  0  0  0  0  0  0  0
  144.2381  132.6062  150.2568 H   0  0  0  0  0  0  0  0  0  0  0  0
  1  2  1  0  0  0  0
  1 21  1  0  0  0  0
  1 22  1  0  0  0  0
  1 23  1  0  0  0  0
  2 20  1  0  0  0  0
  2  3  2  0  0  0  0
  3  4  1  0  0  0  0
  3 24  1  0  0  0  0
  4  5  2  0  0  0  0
  5  6  1  0  0  0  0
  5 20  1  0  0  0  0
  6  7  1  0  0  0  0
  6  8  1  0  0  0  0
  6 25  1  0  0  0  0
  7 26  1  0  0  0  0
  7 27  1  0  0  0  0
  7 28  1  0  0  0  0
  8  9  1  0  0  0  0
  8 29  1  0  0  0  0
  8 30  1  0  0  0  0
  9 10  1  0  0  0  0
  9 31  1  0  0  0  0
 10 11  2  0  0  0  0
 10 12  1  0  0  0  0
 12 13  1  0  0  0  0
 12 32  1  0  0  0  0
 13 14  1  0  0  0  0
 13 33  1  0  0  0  0
 13 34  1  0  0  0  0
 14 19  1  0  0  0  0
 14 15  1  0  0  0  0
 14 16  1  0  0  0  0
 15 35  1  0  0  0  0
 15 36  1  0  0  0  0
 15 37  1  0  0  0  0
 16 17  1  0  0  0  0
 16 38  1  0  0  0  0
 16 39  1  0  0  0  0
 17 18  1  0  0  0  0
 17 40  1  0  0  0  0
 17 41  1  0  0  0  0
 18 19  1  0  0  0  0
 18 42  1  0  0  0  0
 18 43  1  0  0  0  0
M  END
> <s_m_source_file>
AV-unprocessed.smi

> <i_m_source_file_index>
2414

> <i_lp_mmshare_version>
43012

> <i_f3d_flags>
0

> <s_epik_input>
W0NIM11jMVtjSF1uYyhzMSlbQ0BIXShbQ0gzXSlbQ0gyXVtOSF1DKD1PKVtOSF1bQ0gyXVtDQEBdMihbQ0gzXSlbQ0gyXVtDSDJdW0NIMl1PMg==

> <s_epik_cmdline>
J2VwaWtfcHl0aG9uJywgJy1waCcsICc3LjAnLCAnLXRuJywgJzgnLCAnLW1hJywgJzIwMCcsICctbWV0YWxfYmluZGluZycsICctaW1hZScsICc8aW5maWxlLm1hZT4nLCAnLW9tYWUnLCAnPG91dGZpbGUubWFlPic=

> <r_epik_Ionization_Penalty>
0.000646956

> <r_epik_Ionization_Penalty_Charging>
0

> <r_epik_Ionization_Penalty_Neutral>
0.000646956

> <r_epik_State_Penalty>
0.000375727

> <r_epik_Charging_Adjusted_Penalty>
0.000375727

> <i_epik_Tot_Q>
0

> <i_epik_Tot_abs_Q>
0

> <r_epik_Metal_State_Penalty>
-0

> <b_epik_Metal_Only>
0

> <s_lp_Force_Field>
OPLS_2005

> <r_lp_Energy>
8.05024

> <b_lp_Chiralities_Consistent>
1

> <s_lp_Variant>
AV-unprocessed.smi:2414-4

> <Gold.Version>
5.8.1

> <Gold.Id.Protein>
6NUR|6NUR_protein|mol2

> <Gold.PLP.Fitness>
42.0150

> <Gold.PLP.PLP>
-31.8861

> <Gold.PLP.part.hbond>
-3.0000

> <Gold.PLP.part.metal>
0.0000

> <Gold.PLP.part.buried>
-4.1718

> <Gold.PLP.part.nonpolar>
-24.6456

> <Gold.PLP.part.repulsive>
0.2333

> <Gold.PLP.ligand.clash>
0.0000

> <Gold.PLP.ligand.torsion>
0.1934

> <Gold.PLP.Chemscore.Hbond>
2.4590

> <Gold.PLP.Chemscore.CHOScore>
1.0000

> <Gold.PLP.Chemscore.Metal>
0.0000

> <Gold.Chemscore.Hbonds>
donor molecule, donor type, donor heavy atom, donor atom, acceptor molecule, acceptor atom, score
      L1  H     9    31       P1  7948  0.96
      L1  H    12    32       P1  7948  1.00
      P1  H  7989  7998       L1     4  0.48
      L1  C     3    24       P1  8028  0.79

> <Gold.PLP.Chemscore.Internal.Correction>
0.1388

> <Gold.Rescore>
     Score         DG    S(hbond)    S(metal)    S(lipo)     H(rot)  DE(clash)    DE(int)     intcor
     18.50     -18.85       2.45        0.00      80.41       1.65       0.23       0.13       ----

> <Gold.Chemscore.Fitness>
18.4966

> <Gold.Chemscore.DG>
-18.8519

> <Gold.Chemscore.ZeroCoef>
-5.4800

> <Gold.Chemscore.Hbond>
2.4530

> <Gold.Chemscore.Metal>
0.0000

> <Gold.Chemscore.Lipo>
80.4134

> <Gold.Chemscore.Internal_Hbond>
0.0000

> <Gold.Chemscore.DEClash>
0.2295

> <Gold.Chemscore.DEInternal>
0.1258

> <Gold.Chemscore.Rot>
1.6522

> <Gold.Chemscore.Internal.Correction>
   9.000000E+99

> <Gold.Chemscore.Hbonds>
donor molecule, donor type, donor heavy atom, donor atom, acceptor molecule, acceptor atom, score
      L1  H     9    31       P1  7948  0.92
      L1  H    12    32       P1  7948  0.95
      P1  H  7989  7998       L1     4  0.07

> <Gold.Chemscore.Hbond.Weighted>
-8.1931

> <Gold.Chemscore.Metal.Weighted>
-0.0000

> <Gold.Chemscore.Lipo.Weighted>
-9.4084

> <Gold.Chemscore.Internal_Hbond.Weighted>
0.0000

> <Gold.Chemscore.DEClash.Weighted>
0.2295

> <Gold.Chemscore.DEInternal.Weighted>
0.1258

> <Gold.Chemscore.Rot.Weighted>
4.2295

> <Gold.Chemscore.Internal.Correction.Weighted>
   9.000000E+99

> <Gold.Protein.RotatedTorsions>
[ 6907 6896 6895 6894 ] final  -39.90 input  -60.11 | X-H torsion
[ 7974 7965 7964 7962 ] final  -49.36 input  175.53 | X-H torsion
[ 8008 7997 7996 7995 ] final -128.39 input   59.86 | X-H torsion
[ 10167 10162 10161 10158 ] final   66.34 input  -65.29 | X-H torsion
[ 10718 10713 10712 10709 ] final  129.53 input   66.30 | X-H torsion
[ 10763 10752 10751 10750 ] final -176.03 input  -60.55 | X-H torsion
[ 11005 11000 10999 10996 ] final   13.53 input  -57.11 | X-H torsion

> <Gold.Protein.ActiveResidues>
 VAL166  LYS551  ARG553  GLY616  TRP617  ASP618  TYR619  PRO620  LYS621  CYS622 
 ASP623  PHE694  ASN695  SER759  ASP760  ASP761  ALA762  ILE779  LEU786  VAL792 
 PHE793  MET794  SER795  GLU796  ALA797  LYS798  CYS799  TRP800  GLU811  SER814 

> <Gold.Protein.RotatedAtoms>
  150.9848  134.9196  159.7865 H   0  0  0  0  0  0  0  0  0  0  0  0  # atno 6907 bound_to 6896
  152.5233  134.3361  159.9210 H   0  0  0  0  0  0  0  0  0  0  0  0  # atno 6908 bound_to 6896
  151.3368  133.3937  159.2702 H   0  0  0  0  0  0  0  0  0  0  0  0  # atno 6909 bound_to 6896
  145.9414  140.7658  142.9550 H   0  0  0  0  0  0  0  0  0  0  0  0  # atno 7974 bound_to 7965
  155.2620  140.0436  157.2998 H   0  0  0  0  0  0  0  0  0  0  0  0  # atno 8008 bound_to 7997
  154.5705  140.2372  155.8168 H   0  0  0  0  0  0  0  0  0  0  0  0  # atno 8009 bound_to 7997
  156.2119  140.2996  155.9759 H   0  0  0  0  0  0  0  0  0  0  0  0  # atno 8010 bound_to 7997
  140.1015  144.4900  150.7034 H   0  0  0  0  0  0  0  0  0  0  0  0  # atno 10167 bound_to 10162
  157.5146  131.1097  150.9243 H   0  0  0  0  0  0  0  0  0  0  0  0  # atno 10718 bound_to 10713
  154.5773  135.2833  155.0768 H   0  0  0  0  0  0  0  0  0  0  0  0  # atno 10763 bound_to 10752
  154.2117  135.6406  153.5121 H   0  0  0  0  0  0  0  0  0  0  0  0  # atno 10764 bound_to 10752
  153.0076  135.5493  154.6416 H   0  0  0  0  0  0  0  0  0  0  0  0  # atno 10765 bound_to 10752
  140.4797  134.0948  155.7748 H   0  0  0  0  0  0  0  0  0  0  0  0  # atno 11005 bound_to 11000
  144.6780  140.2286  143.7358 LP  0  0  0  0  0  0  0  0  0  0  0  0  # atno 17320 bound_to 7965
  145.8294  139.2079  143.1891 LP  0  0  0  0  0  0  0  0  0  0  0  0  # atno 17321 bound_to 7965
  140.6975  143.2413  151.4959 LP  0  0  0  0  0  0  0  0  0  0  0  0  # atno 17342 bound_to 10162
  139.5669  144.2022  152.1778 LP  0  0  0  0  0  0  0  0  0  0  0  0  # atno 17343 bound_to 10162
  156.9873  130.5550  149.5300 LP  0  0  0  0  0  0  0  0  0  0  0  0  # atno 17370 bound_to 10713
  156.0312  130.5403  150.8538 LP  0  0  0  0  0  0  0  0  0  0  0  0  # atno 17371 bound_to 10713
  141.1537  133.8922  157.2032 LP  0  0  0  0  0  0  0  0  0  0  0  0  # atno 17394 bound_to 11000
  139.9834  135.0090  156.9805 LP  0  0  0  0  0  0  0  0  0  0  0  0  # atno 17395 bound_to 11000

$$$$
