AV-unprocessed.smi:1768|AV-procd|sdf|7150|dock8
  -GOLD-   22720 8393D 1   1.00000     0.00000
 Structure written by MMmdl.
 32 33  0  0  0  0  0  0  0  0  2 V2000
  146.7368  137.2956  158.6100 C   0  0  0  0  0  0  0  0  0  0  0  0
  148.2263  137.2877  158.6538 C   0  0  0  0  0  0  0  0  0  0  0  0
  148.9306  136.2249  159.0501 N   0  0  0  0  0  0  0  0  0  0  0  0
  150.2978  136.4568  159.0036 N   0  0  0  0  0  0  0  0  0  0  0  0
  150.6077  137.6909  158.5814 C   0  0  0  0  0  0  0  0  0  0  0  0
  151.8770  138.1140  158.4635 N   0  5  0  0  0  0  0  0  0  0  0  0
  152.1418  139.3003  157.8701 C   0  0  0  0  0  0  0  0  0  0  0  0
  152.6227  139.4614  156.7463 O   0  0  0  0  0  0  0  0  0  0  0  0
  151.8376  140.3617  158.6319 N   0  0  0  0  0  0  0  0  0  0  0  0
  152.0141  141.7711  158.2830 C   0  0  1  0  0  0  0  0  0  0  0  0
  151.1137  142.0981  157.0826 C   0  0  0  0  0  0  0  0  0  0  0  0
  151.6975  142.6706  159.4957 C   0  0  1  0  0  0  0  0  0  0  0  0
  152.5979  142.4632  160.7139 C   0  0  0  0  0  0  0  0  0  0  0  0
  152.4671  143.7739  161.4697 C   0  0  0  0  0  0  0  0  0  0  0  0
  151.9690  144.7627  160.4113 C   0  0  0  0  0  0  0  0  0  0  0  0
  151.9390  144.0355  159.1895 O   0  0  0  0  0  0  0  0  0  0  0  0
  149.1975  138.6714  158.1808 S   0  0  0  0  0  0  0  0  0  0  0  0
  146.3307  136.8885  159.5363 H   0  0  0  0  0  0  0  0  0  0  0  0
  146.3857  136.6891  157.7750 H   0  0  0  0  0  0  0  0  0  0  0  0
  146.3663  138.3130  158.4848 H   0  0  0  0  0  0  0  0  0  0  0  0
  151.4469  140.1704  159.5426 H   0  0  0  0  0  0  0  0  0  0  0  0
  153.0456  141.9517  157.9756 H   0  0  0  0  0  0  0  0  0  0  0  0
  151.2405  143.1331  156.7648 H   0  0  0  0  0  0  0  0  0  0  0  0
  150.0604  141.9506  157.3237 H   0  0  0  0  0  0  0  0  0  0  0  0
  151.3526  141.4624  156.2292 H   0  0  0  0  0  0  0  0  0  0  0  0
  150.6518  142.5564  159.7886 H   0  0  0  0  0  0  0  0  0  0  0  0
  152.3119  141.5973  161.3119 H   0  0  0  0  0  0  0  0  0  0  0  0
  153.6327  142.3266  160.3966 H   0  0  0  0  0  0  0  0  0  0  0  0
  151.7397  143.6870  162.2776 H   0  0  0  0  0  0  0  0  0  0  0  0
  153.4189  144.0799  161.9051 H   0  0  0  0  0  0  0  0  0  0  0  0
  150.9626  145.1076  160.6521 H   0  0  0  0  0  0  0  0  0  0  0  0
  152.6150  145.6363  160.3215 H   0  0  0  0  0  0  0  0  0  0  0  0
  1  2  1  0  0  0  0
  1 18  1  0  0  0  0
  1 19  1  0  0  0  0
  1 20  1  0  0  0  0
  2 17  1  0  0  0  0
  2  3  2  0  0  0  0
  3  4  1  0  0  0  0
  4  5  2  0  0  0  0
  5  6  1  0  0  0  0
  5 17  1  0  0  0  0
  6  7  1  0  0  0  0
  7  8  2  0  0  0  0
  7  9  1  0  0  0  0
  9 10  1  0  0  0  0
  9 21  1  0  0  0  0
 10 11  1  0  0  0  0
 10 12  1  0  0  0  0
 10 22  1  0  0  0  0
 11 23  1  0  0  0  0
 11 24  1  0  0  0  0
 11 25  1  0  0  0  0
 12 16  1  0  0  0  0
 12 13  1  0  0  0  0
 12 26  1  0  0  0  0
 13 14  1  0  0  0  0
 13 27  1  0  0  0  0
 13 28  1  0  0  0  0
 14 15  1  0  0  0  0
 14 29  1  0  0  0  0
 14 30  1  0  0  0  0
 15 16  1  0  0  0  0
 15 31  1  0  0  0  0
 15 32  1  0  0  0  0
M  CHG  1   6  -1
M  END
> <s_m_source_file>
AV-unprocessed.smi

> <i_m_source_file_index>
1768

> <i_lp_mmshare_version>
43012

> <i_f3d_flags>
0

> <s_epik_input>
W0NIM11jMW5uYyhzMSlbTkhdQyg9TylbTkhdW0NASF0oW0NIM10pW0NAQEhdMltDSDJdW0NIMl1bQ0gyXU8y

> <s_epik_cmdline>
J2VwaWtfcHl0aG9uJywgJy1waCcsICc3LjAnLCAnLXRuJywgJzgnLCAnLW1hJywgJzIwMCcsICctbWV0YWxfYmluZGluZycsICctaW1hZScsICc8aW5maWxlLm1hZT4nLCAnLW9tYWUnLCAnPG91dGZpbGUubWFlPic=

> <r_lp_tautomer_probability>
1

> <r_epik_Ionization_Penalty>
4.3376

> <r_epik_Ionization_Penalty_Charging>
4.19392

> <r_epik_Ionization_Penalty_Neutral>
0.143681

> <r_epik_State_Penalty>
4.19342

> <r_epik_Charging_Adjusted_Penalty>
8.38735

> <i_epik_Tot_Q>
-1

> <i_epik_Tot_abs_Q>
1

> <r_epik_Metal_State_Penalty>
0.686065

> <b_epik_Metal_Only>
1

> <s_lp_Force_Field>
OPLS_2005

> <r_lp_Energy>
15.6479

> <b_lp_Chiralities_Consistent>
1

> <s_lp_Variant>
AV-unprocessed.smi:1768-8

> <Gold.Version>
5.8.1

> <Gold.Id.Protein>
6NUR|6NUR_protein|mol2

> <Gold.PLP.Fitness>
33.7811

> <Gold.PLP.PLP>
-29.2326

> <Gold.PLP.part.hbond>
-2.6919

> <Gold.PLP.part.metal>
0.0000

> <Gold.PLP.part.buried>
-6.3898

> <Gold.PLP.part.nonpolar>
-20.3712

> <Gold.PLP.part.repulsive>
0.1473

> <Gold.PLP.ligand.clash>
0.0000

> <Gold.PLP.ligand.torsion>
0.7458

> <Gold.PLP.Chemscore.Hbond>
2.0000

> <Gold.PLP.Chemscore.CHOScore>
0.0000

> <Gold.PLP.Chemscore.Metal>
0.0000

> <Gold.Chemscore.Hbonds>
donor molecule, donor type, donor heavy atom, donor atom, acceptor molecule, acceptor atom, score
      P1  H  6896  6908       L1     4  1.00
      P1  H  7997  8008       L1     8  1.00

> <Gold.PLP.Chemscore.Internal.Correction>
0.0401

> <Gold.Rescore>
     Score         DG    S(hbond)    S(metal)    S(lipo)     H(rot)  DE(clash)    DE(int)     intcor
     15.70     -16.55       1.97        0.00      66.25       1.28       0.03       0.83       ----

> <Gold.Chemscore.Fitness>
15.6990

> <Gold.Chemscore.DG>
-16.5540

> <Gold.Chemscore.ZeroCoef>
-5.4800

> <Gold.Chemscore.Hbond>
1.9742

> <Gold.Chemscore.Metal>
0.0000

> <Gold.Chemscore.Lipo>
66.2459

> <Gold.Chemscore.Internal_Hbond>
0.0000

> <Gold.Chemscore.DEClash>
0.0270

> <Gold.Chemscore.DEInternal>
0.8280

> <Gold.Chemscore.Rot>
1.2776

> <Gold.Chemscore.Internal.Correction>
   9.000000E+99

> <Gold.Chemscore.Hbonds>
donor molecule, donor type, donor heavy atom, donor atom, acceptor molecule, acceptor atom, score
      P1  H  6896  6908       L1     4  0.60
      P1  H  7997  8008       L1     8  0.83

> <Gold.Chemscore.Hbond.Weighted>
-6.5939

> <Gold.Chemscore.Metal.Weighted>
-0.0000

> <Gold.Chemscore.Lipo.Weighted>
-7.7508

> <Gold.Chemscore.Internal_Hbond.Weighted>
0.0000

> <Gold.Chemscore.DEClash.Weighted>
0.0270

> <Gold.Chemscore.DEInternal.Weighted>
0.8280

> <Gold.Chemscore.Rot.Weighted>
3.2706

> <Gold.Chemscore.Internal.Correction.Weighted>
   9.000000E+99

> <Gold.Protein.RotatedTorsions>
[ 6907 6896 6895 6894 ] final -148.97 input  -60.11 | X-H torsion
[ 7974 7965 7964 7962 ] final -130.83 input  175.53 | X-H torsion
[ 8008 7997 7996 7995 ] final  -71.76 input   59.86 | X-H torsion
[ 10167 10162 10161 10158 ] final  -65.89 input  -65.29 | X-H torsion
[ 10718 10713 10712 10709 ] final   46.20 input   66.30 | X-H torsion
[ 10763 10752 10751 10750 ] final  -96.83 input  -60.55 | X-H torsion
[ 11005 11000 10999 10996 ] final  108.31 input  -57.11 | X-H torsion

> <Gold.Protein.ActiveResidues>
 VAL166  LYS551  ARG553  GLY616  TRP617  ASP618  TYR619  PRO620  LYS621  CYS622 
 ASP623  PHE694  ASN695  SER759  ASP760  ASP761  ALA762  ILE779  LEU786  VAL792 
 PHE793  MET794  SER795  GLU796  ALA797  LYS798  CYS799  TRP800  GLU811  SER814 

> <Gold.Protein.RotatedAtoms>
  151.1775  133.4746  159.2593 H   0  0  0  0  0  0  0  0  0  0  0  0  # atno 6907 bound_to 6896
  151.1293  135.0121  159.8585 H   0  0  0  0  0  0  0  0  0  0  0  0  # atno 6908 bound_to 6896
  152.5459  134.1679  159.8638 H   0  0  0  0  0  0  0  0  0  0  0  0  # atno 6909 bound_to 6896
  144.9437  140.7267  143.4831 H   0  0  0  0  0  0  0  0  0  0  0  0  # atno 7974 bound_to 7965
  154.5113  140.0809  156.7995 H   0  0  0  0  0  0  0  0  0  0  0  0  # atno 8008 bound_to 7997
  155.3778  140.3426  155.4227 H   0  0  0  0  0  0  0  0  0  0  0  0  # atno 8009 bound_to 7997
  156.1576  140.1578  156.8653 H   0  0  0  0  0  0  0  0  0  0  0  0  # atno 8010 bound_to 7997
  140.5697  143.2317  151.6563 H   0  0  0  0  0  0  0  0  0  0  0  0  # atno 10167 bound_to 10162
  157.4456  130.8107  149.7737 H   0  0  0  0  0  0  0  0  0  0  0  0  # atno 10718 bound_to 10713
  154.7274  135.5069  153.8909 H   0  0  0  0  0  0  0  0  0  0  0  0  # atno 10763 bound_to 10752
  153.0918  135.6661  153.9848 H   0  0  0  0  0  0  0  0  0  0  0  0  # atno 10764 bound_to 10752
  153.9657  135.3043  155.3410 H   0  0  0  0  0  0  0  0  0  0  0  0  # atno 10765 bound_to 10752
  139.8842  134.9426  156.5952 H   0  0  0  0  0  0  0  0  0  0  0  0  # atno 11005 bound_to 11000
  145.2952  139.1870  143.4719 LP  0  0  0  0  0  0  0  0  0  0  0  0  # atno 17320 bound_to 7965
  146.3295  140.2934  142.8616 LP  0  0  0  0  0  0  0  0  0  0  0  0  # atno 17321 bound_to 7965
  139.5111  144.3520  152.0643 LP  0  0  0  0  0  0  0  0  0  0  0  0  # atno 17342 bound_to 10162
  140.2656  144.4020  150.6169 LP  0  0  0  0  0  0  0  0  0  0  0  0  # atno 17343 bound_to 10162
  155.9966  130.3905  150.2772 LP  0  0  0  0  0  0  0  0  0  0  0  0  # atno 17370 bound_to 10713
  157.0940  131.0177  151.3111 LP  0  0  0  0  0  0  0  0  0  0  0  0  # atno 17371 bound_to 10713
  140.7925  133.8570  155.8658 LP  0  0  0  0  0  0  0  0  0  0  0  0  # atno 17394 bound_to 11000
  140.9664  134.1588  157.4612 LP  0  0  0  0  0  0  0  0  0  0  0  0  # atno 17395 bound_to 11000

$$$$
