AV-unprocessed.smi:637|AV-procd|sdf|3142|dock2
  -GOLD-   22720 0 63D 1   1.00000     0.00000
 Structure written by MMmdl.
 38 40  0  0  0  0  0  0  0  0  1 V2000
  143.3717  145.4193  153.7906 C   0  0  0  0  0  0  0  0  0  0  0  0
  144.3460  144.4196  154.3144 C   0  0  0  0  0  0  0  0  0  0  0  0
  144.3495  143.8180  155.5493 C   0  0  0  0  0  0  0  0  0  0  0  0
  145.4274  142.9010  155.7304 C   0  0  0  0  0  0  0  0  0  0  0  0
  146.2296  142.8284  154.6164 C   0  0  0  0  0  0  0  0  0  0  0  0
  147.3805  141.9417  154.5686 C   0  0  0  0  0  0  0  0  0  0  0  0
  147.3030  140.6282  153.9529 C   0  0  0  0  0  0  0  0  0  0  0  0
  148.3884  139.8249  153.9748 C   0  0  0  0  0  0  0  0  0  0  0  0
  149.6410  140.2389  154.6038 C   0  0  0  0  0  0  0  0  0  0  0  0
  150.6348  139.5162  154.6705 O   0  0  0  0  0  0  0  0  0  0  0  0
  149.6025  141.4989  155.1262 N   0  0  0  0  0  0  0  0  0  0  0  0
  150.7546  142.0566  155.8477 C   0  0  0  0  0  0  0  0  0  0  0  0
  151.2154  141.1539  157.0164 C   0  0  1  0  0  0  0  0  0  0  0  0
  152.1819  140.2464  156.5278 O   0  0  0  0  0  0  0  0  0  0  0  0
  151.7261  141.9522  158.2095 C   0  0  0  0  0  0  0  0  0  0  0  0
  152.2697  141.2915  159.3335 C   0  0  0  0  0  0  0  0  0  0  0  0
  152.7880  142.0345  160.4118 C   0  0  0  0  0  0  0  0  0  0  0  0
  152.7654  143.4418  160.3726 C   0  0  0  0  0  0  0  0  0  0  0  0
  152.2232  144.1058  159.2557 C   0  0  0  0  0  0  0  0  0  0  0  0
  152.2061  145.4591  159.2155 F   0  0  0  0  0  0  0  0  0  0  0  0
  151.7039  143.3634  158.1777 C   0  0  0  0  0  0  0  0  0  0  0  0
  148.4965  142.3306  155.0959 N   0  0  0  0  0  0  0  0  0  0  0  0
  145.6817  143.8698  153.3317 S   0  0  0  0  0  0  0  0  0  0  0  0
  142.5570  145.5825  154.4965 H   0  0  0  0  0  0  0  0  0  0  0  0
  142.9378  145.0801  152.8497 H   0  0  0  0  0  0  0  0  0  0  0  0
  143.8599  146.3774  153.6117 H   0  0  0  0  0  0  0  0  0  0  0  0
  143.6189  144.0010  156.3234 H   0  0  0  0  0  0  0  0  0  0  0  0
  145.5544  142.3489  156.6507 H   0  0  0  0  0  0  0  0  0  0  0  0
  146.3891  140.2959  153.4837 H   0  0  0  0  0  0  0  0  0  0  0  0
  148.3306  138.8479  153.5179 H   0  0  0  0  0  0  0  0  0  0  0  0
  151.5833  142.2346  155.1598 H   0  0  0  0  0  0  0  0  0  0  0  0
  150.4887  143.0426  156.2345 H   0  0  0  0  0  0  0  0  0  0  0  0
  150.3678  140.5521  157.3468 H   0  0  0  0  0  0  0  0  0  0  0  0
  151.8229  139.8058  155.7726 H   0  0  0  0  0  0  0  0  0  0  0  0
  152.3037  140.2123  159.3649 H   0  0  0  0  0  0  0  0  0  0  0  0
  153.2075  141.5248  161.2663 H   0  0  0  0  0  0  0  0  0  0  0  0
  153.1661  144.0113  161.1981 H   0  0  0  0  0  0  0  0  0  0  0  0
  151.3028  143.8815  157.3189 H   0  0  0  0  0  0  0  0  0  0  0  0
  1  2  1  0  0  0  0
  1 24  1  0  0  0  0
  1 25  1  0  0  0  0
  1 26  1  0  0  0  0
  2 23  1  0  0  0  0
  2  3  2  0  0  0  0
  3  4  1  0  0  0  0
  3 27  1  0  0  0  0
  4  5  2  0  0  0  0
  4 28  1  0  0  0  0
  5  6  1  0  0  0  0
  5 23  1  0  0  0  0
  6 22  2  0  0  0  0
  6  7  1  0  0  0  0
  7  8  2  0  0  0  0
  7 29  1  0  0  0  0
  8  9  1  0  0  0  0
  8 30  1  0  0  0  0
  9 10  2  0  0  0  0
  9 11  1  0  0  0  0
 11 12  1  0  0  0  0
 11 22  1  0  0  0  0
 12 13  1  0  0  0  0
 12 31  1  0  0  0  0
 12 32  1  0  0  0  0
 13 14  1  0  0  0  0
 13 15  1  0  0  0  0
 13 33  1  0  0  0  0
 14 34  1  0  0  0  0
 15 21  1  0  0  0  0
 15 16  2  0  0  0  0
 16 17  1  0  0  0  0
 16 35  1  0  0  0  0
 17 18  2  0  0  0  0
 17 36  1  0  0  0  0
 18 19  1  0  0  0  0
 18 37  1  0  0  0  0
 19 20  1  0  0  0  0
 19 21  2  0  0  0  0
 21 38  1  0  0  0  0
M  END
> <s_m_source_file>
AV-unprocessed.smi

> <i_m_source_file_index>
637

> <i_lp_mmshare_version>
43012

> <i_f3d_flags>
0

> <s_epik_input>
W0NIM11jMVtjSF1bY0hdYyhzMSktYzJbY0hdW2NIXWMoPU8pbihuMilbQ0gyXVtDQEhdKFtPSF0pYzNbY0hdW2NIXVtjSF1jKEYpW2NIXTM=

> <s_epik_cmdline>
J2VwaWtfcHl0aG9uJywgJy1waCcsICc3LjAnLCAnLXRuJywgJzgnLCAnLW1hJywgJzIwMCcsICctbWV0YWxfYmluZGluZycsICctaW1hZScsICc8aW5maWxlLm1hZT4nLCAnLW9tYWUnLCAnPG91dGZpbGUubWFlPic=

> <r_lp_tautomer_probability>
1

> <r_epik_Ionization_Penalty>
2.26963e-07

> <r_epik_Ionization_Penalty_Charging>
5.89185e-08

> <r_epik_Ionization_Penalty_Neutral>
1.68044e-07

> <r_epik_State_Penalty>
-0

> <r_epik_Charging_Adjusted_Penalty>
5.89185e-08

> <i_epik_Tot_Q>
0

> <i_epik_Tot_abs_Q>
0

> <r_epik_Metal_State_Penalty>
-0

> <b_epik_Metal_Only>
0

> <s_lp_Force_Field>
OPLS_2005

> <r_lp_Energy>
25.403

> <b_lp_Chiralities_Consistent>
1

> <s_lp_Variant>
AV-unprocessed.smi:637-2

> <Gold.Version>
5.8.1

> <Gold.Id.Protein>
6NUR|6NUR_protein|mol2

> <Gold.PLP.Fitness>
51.7447

> <Gold.PLP.PLP>
-51.7234

> <Gold.PLP.part.hbond>
-1.8787

> <Gold.PLP.part.metal>
0.0000

> <Gold.PLP.part.buried>
-6.3325

> <Gold.PLP.part.nonpolar>
-47.6985

> <Gold.PLP.part.repulsive>
4.0300

> <Gold.PLP.ligand.clash>
0.0000

> <Gold.PLP.ligand.torsion>
1.9546

> <Gold.PLP.Chemscore.Hbond>
1.2975

> <Gold.PLP.Chemscore.CHOScore>
0.0000

> <Gold.PLP.Chemscore.Metal>
0.0000

> <Gold.Chemscore.Hbonds>
donor molecule, donor type, donor heavy atom, donor atom, acceptor molecule, acceptor atom, score
      P1  H  7989  7998       L1    10  0.43
      P1  H  7997  8008       L1    14  0.65

> <Gold.PLP.Chemscore.Internal.Correction>
0.0381

> <Gold.Rescore>
     Score         DG    S(hbond)    S(metal)    S(lipo)     H(rot)  DE(clash)    DE(int)     intcor
     12.89     -18.06       0.75        0.00     125.97       1.82       1.68       3.49       ----

> <Gold.Chemscore.Fitness>
12.8900

> <Gold.Chemscore.DG>
-18.0614

> <Gold.Chemscore.ZeroCoef>
-5.4800

> <Gold.Chemscore.Hbond>
0.7509

> <Gold.Chemscore.Metal>
0.0000

> <Gold.Chemscore.Lipo>
125.9695

> <Gold.Chemscore.Internal_Hbond>
0.0000

> <Gold.Chemscore.DEClash>
1.6845

> <Gold.Chemscore.DEInternal>
3.4868

> <Gold.Chemscore.Rot>
1.8222

> <Gold.Chemscore.Internal.Correction>
   9.000000E+99

> <Gold.Chemscore.Hbonds>
donor molecule, donor type, donor heavy atom, donor atom, acceptor molecule, acceptor atom, score
      P1  H  7989  7998       L1    10  0.01
      P1  H  7997  8008       L1    14  0.49

> <Gold.Chemscore.Hbond.Weighted>
-2.5079

> <Gold.Chemscore.Metal.Weighted>
-0.0000

> <Gold.Chemscore.Lipo.Weighted>
-14.7384

> <Gold.Chemscore.Internal_Hbond.Weighted>
0.0000

> <Gold.Chemscore.DEClash.Weighted>
1.6845

> <Gold.Chemscore.DEInternal.Weighted>
3.4868

> <Gold.Chemscore.Rot.Weighted>
4.6649

> <Gold.Chemscore.Internal.Correction.Weighted>
   9.000000E+99

> <Gold.Protein.RotatedTorsions>
[ 6907 6896 6895 6894 ] final -139.75 input  -60.11 | X-H torsion
[ 7974 7965 7964 7962 ] final  -17.97 input  175.53 | X-H torsion
[ 8008 7997 7996 7995 ] final  -54.35 input   59.86 | X-H torsion
[ 10167 10162 10161 10158 ] final -121.17 input  -65.29 | X-H torsion
[ 10718 10713 10712 10709 ] final   52.23 input   66.30 | X-H torsion
[ 10763 10752 10751 10750 ] final  -40.30 input  -60.55 | X-H torsion
[ 11005 11000 10999 10996 ] final    9.95 input  -57.11 | X-H torsion

> <Gold.Protein.ActiveResidues>
 VAL166  LYS551  ARG553  GLY616  TRP617  ASP618  TYR619  PRO620  LYS621  CYS622 
 ASP623  PHE694  ASN695  SER759  ASP760  ASP761  ALA762  ILE779  LEU786  VAL792 
 PHE793  MET794  SER795  GLU796  ALA797  LYS798  CYS799  TRP800  GLU811  SER814 

> <Gold.Protein.RotatedAtoms>
  151.0518  133.5618  159.2641 H   0  0  0  0  0  0  0  0  0  0  0  0  # atno 6907 bound_to 6896
  151.2626  135.0658  159.9114 H   0  0  0  0  0  0  0  0  0  0  0  0  # atno 6908 bound_to 6896
  152.5383  134.0261  159.8057 H   0  0  0  0  0  0  0  0  0  0  0  0  # atno 6909 bound_to 6896
  146.1915  140.3855  142.8456 H   0  0  0  0  0  0  0  0  0  0  0  0  # atno 7974 bound_to 7965
  154.4160  140.1178  156.5301 H   0  0  0  0  0  0  0  0  0  0  0  0  # atno 8008 bound_to 7997
  155.6614  140.3496  155.4765 H   0  0  0  0  0  0  0  0  0  0  0  0  # atno 8009 bound_to 7997
  155.9710  140.1141  157.0802 H   0  0  0  0  0  0  0  0  0  0  0  0  # atno 8010 bound_to 7997
  140.0279  143.5278  152.2190 H   0  0  0  0  0  0  0  0  0  0  0  0  # atno 10167 bound_to 10162
  157.5055  130.8466  149.8369 H   0  0  0  0  0  0  0  0  0  0  0  0  # atno 10718 bound_to 10713
  153.9437  135.6758  153.4744 H   0  0  0  0  0  0  0  0  0  0  0  0  # atno 10763 bound_to 10752
  153.0919  135.4870  154.8702 H   0  0  0  0  0  0  0  0  0  0  0  0  # atno 10764 bound_to 10752
  154.7363  135.3150  154.8764 H   0  0  0  0  0  0  0  0  0  0  0  0  # atno 10765 bound_to 10752
  140.5199  134.0569  155.7842 H   0  0  0  0  0  0  0  0  0  0  0  0  # atno 11005 bound_to 11000
  144.8496  140.6981  143.6177 LP  0  0  0  0  0  0  0  0  0  0  0  0  # atno 17320 bound_to 7965
  145.3778  139.1644  143.4297 LP  0  0  0  0  0  0  0  0  0  0  0  0  # atno 17321 bound_to 7965
  139.6096  144.7605  151.2983 LP  0  0  0  0  0  0  0  0  0  0  0  0  # atno 17342 bound_to 10162
  140.7315  143.6851  150.7969 LP  0  0  0  0  0  0  0  0  0  0  0  0  # atno 17343 bound_to 10162
  156.0256  130.3781  150.1834 LP  0  0  0  0  0  0  0  0  0  0  0  0  # atno 17370 bound_to 10713
  157.0024  130.9926  151.3387 LP  0  0  0  0  0  0  0  0  0  0  0  0  # atno 17371 bound_to 10713
  141.1340  133.9254  157.2475 LP  0  0  0  0  0  0  0  0  0  0  0  0  # atno 17394 bound_to 11000
  139.9611  135.0154  156.9264 LP  0  0  0  0  0  0  0  0  0  0  0  0  # atno 17395 bound_to 11000

$$$$
