AV-unprocessed.smi:657|AV-procd|sdf|3221|dock9
  -GOLD-   22720 0163D 1   1.00000     0.00000
 Structure written by MMmdl.
 47 48  0  0  0  0  0  0  0  0  2 V2000
  149.3032  133.3390  153.5618 C   0  0  0  0  0  0  0  0  0  0  0  0
  148.2510  132.2122  153.6485 C   0  0  0  0  0  0  0  0  0  0  0  0
  148.9721  130.9110  154.0583 C   0  0  0  0  0  0  0  0  0  0  0  0
  147.4632  132.0480  152.3781 N   0  3  1  0  0  0  0  0  0  0  0  0
  146.3581  131.0425  152.4740 C   0  0  0  0  0  0  0  0  0  0  0  0
  145.6947  130.7698  151.1137 C   0  0  0  0  0  0  0  0  0  0  0  0
  145.1944  132.0613  150.4664 C   0  0  0  0  0  0  0  0  0  0  0  0
  146.3658  133.0402  150.3405 C   0  0  0  0  0  0  0  0  0  0  0  0
  147.0391  133.3259  151.7033 C   0  0  1  0  0  0  0  0  0  0  0  0
  146.1760  134.2794  152.5595 C   0  0  0  0  0  0  0  0  0  0  0  0
  145.0445  133.9668  152.9287 O   0  0  0  0  0  0  0  0  0  0  0  0
  146.7290  135.4690  152.8409 N   0  0  0  0  0  0  0  0  0  0  0  0
  146.0727  136.5653  153.5487 C   0  0  0  0  0  0  0  0  0  0  0  0
  146.1148  137.9002  152.7740 C   0  0  0  0  0  0  0  0  0  0  0  0
  147.0704  138.9001  153.3724 C   0  0  0  0  0  0  0  0  0  0  0  0
  146.8485  140.2815  153.6387 C   0  0  0  0  0  0  0  0  0  0  0  0
  147.8864  140.8670  154.2134 N   0  0  0  0  0  0  0  0  0  0  0  0
  148.8076  139.8878  154.3214 N   0  0  0  0  0  0  0  0  0  0  0  0
  150.0907  140.1767  154.9247 C   0  0  0  0  0  0  0  0  0  0  0  0
  148.3464  138.6931  153.8143 C   0  0  0  0  0  0  0  0  0  0  0  0
  149.9208  133.3684  154.4602 H   0  0  0  0  0  0  0  0  0  0  0  0
  148.8484  134.3258  153.4783 H   0  0  0  0  0  0  0  0  0  0  0  0
  149.9703  133.1968  152.7109 H   0  0  0  0  0  0  0  0  0  0  0  0
  147.5616  132.4673  154.4537 H   0  0  0  0  0  0  0  0  0  0  0  0
  149.6439  131.0832  154.9001 H   0  0  0  0  0  0  0  0  0  0  0  0
  149.5706  130.5118  153.2387 H   0  0  0  0  0  0  0  0  0  0  0  0
  148.2795  130.1364  154.3854 H   0  0  0  0  0  0  0  0  0  0  0  0
  146.7379  130.0872  152.8294 H   0  0  0  0  0  0  0  0  0  0  0  0
  145.6112  131.3602  153.2009 H   0  0  0  0  0  0  0  0  0  0  0  0
  146.4100  130.2817  150.4502 H   0  0  0  0  0  0  0  0  0  0  0  0
  144.8659  130.0721  151.2385 H   0  0  0  0  0  0  0  0  0  0  0  0
  144.7705  131.8528  149.4837 H   0  0  0  0  0  0  0  0  0  0  0  0
  144.3942  132.4956  151.0663 H   0  0  0  0  0  0  0  0  0  0  0  0
  147.1062  132.6250  149.6554 H   0  0  0  0  0  0  0  0  0  0  0  0
  146.0219  133.9662  149.8762 H   0  0  0  0  0  0  0  0  0  0  0  0
  147.9472  133.8744  151.4535 H   0  0  0  0  0  0  0  0  0  0  0  0
  147.6616  135.6499  152.4982 H   0  0  0  0  0  0  0  0  0  0  0  0
  145.0459  136.2979  153.8021 H   0  0  0  0  0  0  0  0  0  0  0  0
  146.6011  136.6867  154.4948 H   0  0  0  0  0  0  0  0  0  0  0  0
  146.3917  137.6939  151.7396 H   0  0  0  0  0  0  0  0  0  0  0  0
  145.1074  138.3134  152.7232 H   0  0  0  0  0  0  0  0  0  0  0  0
  145.9616  140.8677  153.4483 H   0  0  0  0  0  0  0  0  0  0  0  0
  150.7584  139.3226  154.8091 H   0  0  0  0  0  0  0  0  0  0  0  0
  149.9588  140.3828  155.9872 H   0  0  0  0  0  0  0  0  0  0  0  0
  150.5406  141.0453  154.4426 H   0  0  0  0  0  0  0  0  0  0  0  0
  148.9515  137.7984  153.8241 H   0  0  0  0  0  0  0  0  0  0  0  0
  148.1186  131.6367  151.7292 H   0  0  0  0  0  0  0  0  0  0  0  0
  1  2  1  0  0  0  0
  1 21  1  0  0  0  0
  1 22  1  0  0  0  0
  1 23  1  0  0  0  0
  2  3  1  0  0  0  0
  2  4  1  0  0  0  0
  2 24  1  0  0  0  0
  3 25  1  0  0  0  0
  3 26  1  0  0  0  0
  3 27  1  0  0  0  0
  4  9  1  0  0  0  0
  4  5  1  0  0  0  0
  4 47  1  0  0  0  0
  5  6  1  0  0  0  0
  5 28  1  0  0  0  0
  5 29  1  0  0  0  0
  6  7  1  0  0  0  0
  6 30  1  0  0  0  0
  6 31  1  0  0  0  0
  7  8  1  0  0  0  0
  7 32  1  0  0  0  0
  7 33  1  0  0  0  0
  8  9  1  0  0  0  0
  8 34  1  0  0  0  0
  8 35  1  0  0  0  0
  9 10  1  0  0  0  0
  9 36  1  0  0  0  0
 10 11  2  0  0  0  0
 10 12  1  0  0  0  0
 12 13  1  0  0  0  0
 12 37  1  0  0  0  0
 13 14  1  0  0  0  0
 13 38  1  0  0  0  0
 13 39  1  0  0  0  0
 14 15  1  0  0  0  0
 14 40  1  0  0  0  0
 14 41  1  0  0  0  0
 15 20  2  0  0  0  0
 15 16  1  0  0  0  0
 16 17  2  0  0  0  0
 16 42  1  0  0  0  0
 17 18  1  0  0  0  0
 18 19  1  0  0  0  0
 18 20  1  0  0  0  0
 19 43  1  0  0  0  0
 19 44  1  0  0  0  0
 19 45  1  0  0  0  0
 20 46  1  0  0  0  0
M  CHG  1   4   1
M  END
> <s_m_source_file>
AV-unprocessed.smi

> <i_m_source_file_index>
657

> <i_lp_mmshare_version>
43012

> <i_f3d_flags>
0

> <s_epik_input>
W0NIM11bQ0hdKFtDSDNdKU4xW0NIMl1bQ0gyXVtDSDJdW0NIMl1bQ0BIXTFDKD1PKVtOSF1bQ0gyXVtDSDJdYzJbY0hdbm4oW0NIM10pW2NIXTI=

> <s_epik_cmdline>
J2VwaWtfcHl0aG9uJywgJy1waCcsICc3LjAnLCAnLXRuJywgJzgnLCAnLW1hJywgJzIwMCcsICctbWV0YWxfYmluZGluZycsICctaW1hZScsICc8aW5maWxlLm1hZT4nLCAnLW9tYWUnLCAnPG91dGZpbGUubWFlPic=

> <r_lp_tautomer_probability>
1

> <r_epik_Ionization_Penalty>
0.0244317

> <r_epik_Ionization_Penalty_Charging>
0.0240236

> <r_epik_Ionization_Penalty_Neutral>
0.00040815

> <r_epik_State_Penalty>
0.0194773

> <r_epik_Charging_Adjusted_Penalty>
0.0435009

> <i_epik_Tot_Q>
1

> <i_epik_Tot_abs_Q>
1

> <r_epik_Metal_State_Penalty>
0.0361957

> <b_epik_Metal_Only>
0

> <s_lp_Force_Field>
OPLS_2005

> <r_lp_Energy>
18.2294

> <b_lp_Chiralities_Consistent>
1

> <s_lp_Variant>
AV-unprocessed.smi:657-2

> <Gold.Version>
5.8.1

> <Gold.Id.Protein>
6NUR|6NUR_protein|mol2

> <Gold.PLP.Fitness>
45.2976

> <Gold.PLP.PLP>
-35.0886

> <Gold.PLP.part.hbond>
-2.0000

> <Gold.PLP.part.metal>
0.0000

> <Gold.PLP.part.buried>
-3.3124

> <Gold.PLP.part.nonpolar>
-31.0172

> <Gold.PLP.part.repulsive>
0.2178

> <Gold.PLP.ligand.clash>
0.0000

> <Gold.PLP.ligand.torsion>
0.7154

> <Gold.PLP.Chemscore.Hbond>
2.0000

> <Gold.PLP.Chemscore.CHOScore>
1.8148

> <Gold.PLP.Chemscore.Metal>
0.0000

> <Gold.Chemscore.Hbonds>
donor molecule, donor type, donor heavy atom, donor atom, acceptor molecule, acceptor atom, score
      L1  H     4    47       P1 10747  1.00
      L1  H    12    37       P1  7948  1.00
      L1  C    16    42       P1 10175  1.00
      L1  C    20    46       P1  7948  0.82

> <Gold.PLP.Chemscore.Internal.Correction>
0.1953

> <Gold.Rescore>
     Score         DG    S(hbond)    S(metal)    S(lipo)     H(rot)  DE(clash)    DE(int)     intcor
     17.90     -18.69       2.00        0.00      91.55       1.63       0.12       0.68       ----

> <Gold.Chemscore.Fitness>
17.8952

> <Gold.Chemscore.DG>
-18.6942

> <Gold.Chemscore.ZeroCoef>
-5.4800

> <Gold.Chemscore.Hbond>
1.9971

> <Gold.Chemscore.Metal>
0.0000

> <Gold.Chemscore.Lipo>
91.5489

> <Gold.Chemscore.Internal_Hbond>
0.0000

> <Gold.Chemscore.DEClash>
0.1168

> <Gold.Chemscore.DEInternal>
0.6823

> <Gold.Chemscore.Rot>
1.6279

> <Gold.Chemscore.Internal.Correction>
   9.000000E+99

> <Gold.Chemscore.Hbonds>
donor molecule, donor type, donor heavy atom, donor atom, acceptor molecule, acceptor atom, score
      L1  H     4    47       P1 10747  1.00
      L1  H    12    37       P1  7948  0.93

> <Gold.Chemscore.Hbond.Weighted>
-6.6703

> <Gold.Chemscore.Metal.Weighted>
-0.0000

> <Gold.Chemscore.Lipo.Weighted>
-10.7112

> <Gold.Chemscore.Internal_Hbond.Weighted>
0.0000

> <Gold.Chemscore.DEClash.Weighted>
0.1168

> <Gold.Chemscore.DEInternal.Weighted>
0.6823

> <Gold.Chemscore.Rot.Weighted>
4.1673

> <Gold.Chemscore.Internal.Correction.Weighted>
   9.000000E+99

> <Gold.Protein.RotatedTorsions>
[ 6907 6896 6895 6894 ] final   70.66 input  -60.11 | X-H torsion
[ 7974 7965 7964 7962 ] final   83.29 input  175.53 | X-H torsion
[ 8008 7997 7996 7995 ] final  178.26 input   59.86 | X-H torsion
[ 10167 10162 10161 10158 ] final  172.34 input  -65.29 | X-H torsion
[ 10718 10713 10712 10709 ] final   78.47 input   66.30 | X-H torsion
[ 10763 10752 10751 10750 ] final -159.87 input  -60.55 | X-H torsion
[ 11005 11000 10999 10996 ] final   97.59 input  -57.11 | X-H torsion

> <Gold.Protein.ActiveResidues>
 VAL166  LYS551  ARG553  GLY616  TRP617  ASP618  TYR619  PRO620  LYS621  CYS622 
 ASP623  PHE694  ASN695  SER759  ASP760  ASP761  ALA762  ILE779  LEU786  VAL792 
 PHE793  MET794  SER795  GLU796  ALA797  LYS798  CYS799  TRP800  GLU811  SER814 

> <Gold.Protein.RotatedAtoms>
  152.4763  134.4835  159.9672 H   0  0  0  0  0  0  0  0  0  0  0  0  # atno 6907 bound_to 6896
  151.4851  133.3531  159.2852 H   0  0  0  0  0  0  0  0  0  0  0  0  # atno 6908 bound_to 6896
  150.8804  134.8220  159.7282 H   0  0  0  0  0  0  0  0  0  0  0  0  # atno 6909 bound_to 6896
  145.6138  139.2373  143.2177 H   0  0  0  0  0  0  0  0  0  0  0  0  # atno 7974 bound_to 7965
  156.0566  140.1338  156.9989 H   0  0  0  0  0  0  0  0  0  0  0  0  # atno 8008 bound_to 7997
  154.4461  140.1000  156.6525 H   0  0  0  0  0  0  0  0  0  0  0  0  # atno 8009 bound_to 7997
  155.5442  140.3461  155.4456 H   0  0  0  0  0  0  0  0  0  0  0  0  # atno 8010 bound_to 7997
  139.5073  144.3385  152.0041 H   0  0  0  0  0  0  0  0  0  0  0  0  # atno 10167 bound_to 10162
  157.6746  130.9870  150.1791 H   0  0  0  0  0  0  0  0  0  0  0  0  # atno 10718 bound_to 10713
  154.7439  135.3075  154.8680 H   0  0  0  0  0  0  0  0  0  0  0  0  # atno 10763 bound_to 10752
  153.9486  135.6766  153.4748 H   0  0  0  0  0  0  0  0  0  0  0  0  # atno 10764 bound_to 10752
  153.1036  135.4900  154.8837 H   0  0  0  0  0  0  0  0  0  0  0  0  # atno 10765 bound_to 10752
  139.8775  134.9008  156.4330 H   0  0  0  0  0  0  0  0  0  0  0  0  # atno 11005 bound_to 11000
  146.1484  140.6960  142.9334 LP  0  0  0  0  0  0  0  0  0  0  0  0  # atno 17320 bound_to 7965
  144.7259  140.4522  143.6974 LP  0  0  0  0  0  0  0  0  0  0  0  0  # atno 17321 bound_to 7965
  140.2823  144.3845  150.6115 LP  0  0  0  0  0  0  0  0  0  0  0  0  # atno 17342 bound_to 10162
  140.6008  143.2167  151.7075 LP  0  0  0  0  0  0  0  0  0  0  0  0  # atno 17343 bound_to 10162
  156.2528  130.3702  149.8214 LP  0  0  0  0  0  0  0  0  0  0  0  0  # atno 17370 bound_to 10713
  156.5982  130.8535  151.3425 LP  0  0  0  0  0  0  0  0  0  0  0  0  # atno 17371 bound_to 10713
  140.9054  133.7750  155.9728 LP  0  0  0  0  0  0  0  0  0  0  0  0  # atno 17394 bound_to 11000
  140.8606  134.2846  157.5236 LP  0  0  0  0  0  0  0  0  0  0  0  0  # atno 17395 bound_to 11000

$$$$
