AV-unprocessed.smi:3138|AV-procd|sdf|11955|dock4
  -GOLD-   2272017353D 1   1.00000     0.00000
 Structure written by MMmdl.
 37 38  0  0  0  0  0  0  0  0  1 V2000
  152.1125  140.6198  159.4500 O   0  0  0  0  0  0  0  0  0  0  0  0
  151.9952  141.5998  158.7114 C   0  0  0  0  0  0  0  0  0  0  0  0
  151.3244  141.4235  157.3377 C   0  0  0  0  0  0  0  0  0  0  0  0
  150.0163  140.7597  157.4107 N   0  0  0  0  0  0  0  0  0  0  0  0
  149.9146  139.7137  156.4045 C   0  0  0  0  0  0  0  0  0  0  0  0
  149.9392  140.3455  155.0055 C   0  0  0  0  0  0  0  0  0  0  0  0
  148.6121  140.7427  154.5763 N   0  0  0  0  0  0  0  0  0  0  0  0
  148.1142  142.0168  154.4040 C   0  0  0  0  0  0  0  0  0  0  0  0
  146.8172  141.8941  153.9951 C   0  0  0  0  0  0  0  0  0  0  0  0
  146.6093  140.4871  153.9489 C   0  0  0  0  0  0  0  0  0  0  0  0
  147.6850  139.8006  154.2990 N   0  0  0  0  0  0  0  0  0  0  0  0
  152.4477  142.8277  159.0665 N   0  0  0  0  0  0  0  0  0  0  0  0
  152.2499  144.0183  158.2291 C   0  0  0  0  0  0  0  0  0  0  0  0
  151.2338  144.9472  158.9193 C   0  0  0  0  0  0  0  0  0  0  0  0
  151.6929  145.3075  160.3451 C   0  0  0  0  0  0  0  0  0  0  0  0
  152.0818  144.0539  161.1516 C   0  0  0  0  0  0  0  0  0  0  0  0
  153.0619  143.1721  160.3566 C   0  0  0  0  0  0  0  0  0  0  0  0
  151.1995  142.4064  156.8811 H   0  0  0  0  0  0  0  0  0  0  0  0
  151.9851  140.8365  156.6978 H   0  0  0  0  0  0  0  0  0  0  0  0
  149.8584  140.3610  158.3253 H   0  0  0  0  0  0  0  0  0  0  0  0
  150.7414  139.0103  156.5151 H   0  0  0  0  0  0  0  0  0  0  0  0
  148.9870  139.1560  156.5435 H   0  0  0  0  0  0  0  0  0  0  0  0
  150.5805  141.2281  154.9966 H   0  0  0  0  0  0  0  0  0  0  0  0
  150.3513  139.6475  154.2749 H   0  0  0  0  0  0  0  0  0  0  0  0
  148.7173  142.8945  154.5856 H   0  0  0  0  0  0  0  0  0  0  0  0
  146.1222  142.6878  153.7653 H   0  0  0  0  0  0  0  0  0  0  0  0
  145.7145  139.9485  153.6739 H   0  0  0  0  0  0  0  0  0  0  0  0
  153.2030  144.5329  158.1003 H   0  0  0  0  0  0  0  0  0  0  0  0
  151.9052  143.7777  157.2226 H   0  0  0  0  0  0  0  0  0  0  0  0
  151.0936  145.8545  158.3314 H   0  0  0  0  0  0  0  0  0  0  0  0
  150.2623  144.4529  158.9629 H   0  0  0  0  0  0  0  0  0  0  0  0
  152.5551  145.9725  160.2836 H   0  0  0  0  0  0  0  0  0  0  0  0
  150.9117  145.8636  160.8641 H   0  0  0  0  0  0  0  0  0  0  0  0
  152.5254  144.3461  162.1036 H   0  0  0  0  0  0  0  0  0  0  0  0
  151.1860  143.4789  161.3901 H   0  0  0  0  0  0  0  0  0  0  0  0
  153.3490  142.3076  160.9526 H   0  0  0  0  0  0  0  0  0  0  0  0
  153.9893  143.7177  160.1760 H   0  0  0  0  0  0  0  0  0  0  0  0
  1  2  2  0  0  0  0
  2  3  1  0  0  0  0
  2 12  1  0  0  0  0
  3  4  1  0  0  0  0
  3 18  1  0  0  0  0
  3 19  1  0  0  0  0
  4  5  1  0  0  0  0
  4 20  1  0  0  0  0
  5  6  1  0  0  0  0
  5 21  1  0  0  0  0
  5 22  1  0  0  0  0
  6  7  1  0  0  0  0
  6 23  1  0  0  0  0
  6 24  1  0  0  0  0
  7 11  1  0  0  0  0
  7  8  1  0  0  0  0
  8  9  2  0  0  0  0
  8 25  1  0  0  0  0
  9 10  1  0  0  0  0
  9 26  1  0  0  0  0
 10 11  2  0  0  0  0
 10 27  1  0  0  0  0
 12 17  1  0  0  0  0
 12 13  1  0  0  0  0
 13 14  1  0  0  0  0
 13 28  1  0  0  0  0
 13 29  1  0  0  0  0
 14 15  1  0  0  0  0
 14 30  1  0  0  0  0
 14 31  1  0  0  0  0
 15 16  1  0  0  0  0
 15 32  1  0  0  0  0
 15 33  1  0  0  0  0
 16 17  1  0  0  0  0
 16 34  1  0  0  0  0
 16 35  1  0  0  0  0
 17 36  1  0  0  0  0
 17 37  1  0  0  0  0
M  END
> <s_m_source_file>
AV-unprocessed.smi

> <i_m_source_file_index>
3138

> <i_lp_mmshare_version>
43012

> <i_f3d_flags>
0

> <s_epik_input>
W0NIMl0xW0NIMl1bQ0gyXVtDSDJdW0NIMl1OMUMoPU8pW0NIMl1bTkhdW0NIMl1bQ0gyXW4yW2NIXVtjSF1bY0hdbjI=

> <s_epik_cmdline>
J2VwaWtfcHl0aG9uJywgJy1waCcsICc3LjAnLCAnLXRuJywgJzgnLCAnLW1hJywgJzIwMCcsICctbWV0YWxfYmluZGluZycsICctaW1hZScsICc8aW5maWxlLm1hZT4nLCAnLW9tYWUnLCAnPG91dGZpbGUubWFlPic=

> <r_lp_tautomer_probability>
1

> <r_epik_Ionization_Penalty>
0.737271

> <r_epik_Ionization_Penalty_Charging>
0

> <r_epik_Ionization_Penalty_Neutral>
0.737271

> <r_epik_State_Penalty>
0.761204

> <r_epik_Charging_Adjusted_Penalty>
0.761204

> <i_epik_Tot_Q>
0

> <i_epik_Tot_abs_Q>
0

> <r_epik_Metal_State_Penalty>
0.759956

> <b_epik_Metal_Only>
0

> <s_lp_Force_Field>
OPLS_2005

> <r_lp_Energy>
25.4177

> <b_lp_Chiralities_Consistent>
1

> <s_lp_Variant>
AV-unprocessed.smi:3138-2

> <Gold.Version>
5.8.1

> <Gold.Id.Protein>
6NUR|6NUR_protein|mol2

> <Gold.PLP.Fitness>
45.7854

> <Gold.PLP.PLP>
-41.0333

> <Gold.PLP.part.hbond>
0.0000

> <Gold.PLP.part.metal>
0.0000

> <Gold.PLP.part.buried>
-3.0065

> <Gold.PLP.part.nonpolar>
-37.8421

> <Gold.PLP.part.repulsive>
0.1301

> <Gold.PLP.ligand.clash>
0.0000

> <Gold.PLP.ligand.torsion>
0.6429

> <Gold.PLP.Chemscore.Hbond>
0.0000

> <Gold.PLP.Chemscore.CHOScore>
1.9985

> <Gold.PLP.Chemscore.Metal>
0.0000

> <Gold.Chemscore.Hbonds>
donor molecule, donor type, donor heavy atom, donor atom, acceptor molecule, acceptor atom, score
      L1  C     8    25       P1  8028  1.00
      L1  C    10    27       P1 10175  1.00

> <Gold.PLP.Chemscore.Internal.Correction>
0.0422

> <Gold.Rescore>
     Score         DG    S(hbond)    S(metal)    S(lipo)     H(rot)  DE(clash)    DE(int)     intcor
     11.98     -12.61       0.00        0.00      99.70       1.77       0.02       0.61       ----

> <Gold.Chemscore.Fitness>
11.9825

> <Gold.Chemscore.DG>
-12.6121

> <Gold.Chemscore.ZeroCoef>
-5.4800

> <Gold.Chemscore.Hbond>
0.0000

> <Gold.Chemscore.Metal>
0.0000

> <Gold.Chemscore.Lipo>
99.7025

> <Gold.Chemscore.Internal_Hbond>
0.0000

> <Gold.Chemscore.DEClash>
0.0232

> <Gold.Chemscore.DEInternal>
0.6064

> <Gold.Chemscore.Rot>
1.7707

> <Gold.Chemscore.Internal.Correction>
   9.000000E+99

> <Gold.Chemscore.Hbond.Weighted>
-0.0000

> <Gold.Chemscore.Metal.Weighted>
-0.0000

> <Gold.Chemscore.Lipo.Weighted>
-11.6652

> <Gold.Chemscore.Internal_Hbond.Weighted>
0.0000

> <Gold.Chemscore.DEClash.Weighted>
0.0232

> <Gold.Chemscore.DEInternal.Weighted>
0.6064

> <Gold.Chemscore.Rot.Weighted>
4.5331

> <Gold.Chemscore.Internal.Correction.Weighted>
   9.000000E+99

> <Gold.Protein.RotatedTorsions>
[ 6907 6896 6895 6894 ] final  174.88 input  -60.11 | X-H torsion
[ 7974 7965 7964 7962 ] final -109.74 input  175.53 | X-H torsion
[ 8008 7997 7996 7995 ] final  136.42 input   59.86 | X-H torsion
[ 10167 10162 10161 10158 ] final  -27.43 input  -65.29 | X-H torsion
[ 10718 10713 10712 10709 ] final -119.71 input   66.30 | X-H torsion
[ 10763 10752 10751 10750 ] final  -51.27 input  -60.55 | X-H torsion
[ 11005 11000 10999 10996 ] final   22.75 input  -57.11 | X-H torsion

> <Gold.Protein.ActiveResidues>
 VAL166  LYS551  ARG553  GLY616  TRP617  ASP618  TYR619  PRO620  LYS621  CYS622 
 ASP623  PHE694  ASN695  SER759  ASP760  ASP761  ALA762  ILE779  LEU786  VAL792 
 PHE793  MET794  SER795  GLU796  ALA797  LYS798  CYS799  TRP800  GLU811  SER814 

> <Gold.Protein.RotatedAtoms>
  151.7452  133.3324  159.3376 H   0  0  0  0  0  0  0  0  0  0  0  0  # atno 6907 bound_to 6896
  150.7557  134.6242  159.6161 H   0  0  0  0  0  0  0  0  0  0  0  0  # atno 6908 bound_to 6896
  152.3504  134.7015  160.0289 H   0  0  0  0  0  0  0  0  0  0  0  0  # atno 6909 bound_to 6896
  145.1767  140.8952  143.3503 H   0  0  0  0  0  0  0  0  0  0  0  0  # atno 7974 bound_to 7965
  156.3004  140.2445  156.3743 H   0  0  0  0  0  0  0  0  0  0  0  0  # atno 8008 bound_to 7997
  154.8760  140.0414  157.1773 H   0  0  0  0  0  0  0  0  0  0  0  0  # atno 8009 bound_to 7997
  154.8746  140.2940  155.5465 H   0  0  0  0  0  0  0  0  0  0  0  0  # atno 8010 bound_to 7997
  140.7277  143.4094  151.1131 H   0  0  0  0  0  0  0  0  0  0  0  0  # atno 10167 bound_to 10162
  156.1202  130.6317  150.9451 H   0  0  0  0  0  0  0  0  0  0  0  0  # atno 10718 bound_to 10713
  154.1239  135.6530  153.4908 H   0  0  0  0  0  0  0  0  0  0  0  0  # atno 10763 bound_to 10752
  153.0216  135.5277  154.7069 H   0  0  0  0  0  0  0  0  0  0  0  0  # atno 10764 bound_to 10752
  154.6285  135.2973  155.0215 H   0  0  0  0  0  0  0  0  0  0  0  0  # atno 10765 bound_to 10752
  140.3772  134.1959  155.7664 H   0  0  0  0  0  0  0  0  0  0  0  0  # atno 11005 bound_to 11000
  145.0177  139.3452  143.6088 LP  0  0  0  0  0  0  0  0  0  0  0  0  # atno 17320 bound_to 7965
  146.3460  139.9465  142.8734 LP  0  0  0  0  0  0  0  0  0  0  0  0  # atno 17321 bound_to 7965
  139.7725  143.8473  152.3123 LP  0  0  0  0  0  0  0  0  0  0  0  0  # atno 17342 bound_to 10162
  139.8397  144.7216  150.9347 LP  0  0  0  0  0  0  0  0  0  0  0  0  # atno 17343 bound_to 10162
  157.6385  131.0913  150.8299 LP  0  0  0  0  0  0  0  0  0  0  0  0  # atno 17370 bound_to 10713
  156.8396  130.5043  149.5322 LP  0  0  0  0  0  0  0  0  0  0  0  0  # atno 17371 bound_to 10713
  141.1935  133.8148  157.0794 LP  0  0  0  0  0  0  0  0  0  0  0  0  # atno 17394 bound_to 11000
  140.0506  134.9807  157.1130 LP  0  0  0  0  0  0  0  0  0  0  0  0  # atno 17395 bound_to 11000

$$$$
