AV-unprocessed.smi:1686|AV-procd|sdf|6760|dock3
  -GOLD-   22720 7523D 1   1.00000     0.00000
 Structure written by MMmdl.
 41 43  0  0  0  0  0  0  0  0  1 V2000
  145.6541  143.3226  154.0281 C   0  0  0  0  0  0  0  0  0  0  0  0
  146.0069  142.2220  154.9872 C   0  0  0  0  0  0  0  0  0  0  0  0
  145.1225  141.8498  155.9028 N   0  0  0  0  0  0  0  0  0  0  0  0
  145.7212  140.8164  156.6324 O   0  0  0  0  0  0  0  0  0  0  0  0
  146.9526  140.6228  156.1073 C   0  0  0  0  0  0  0  0  0  0  0  0
  148.0271  139.4204  156.7024 Cl  0  0  0  0  0  0  0  0  0  0  0  0
  147.2139  141.4669  155.0664 C   0  0  0  0  0  0  0  0  0  0  0  0
  148.4456  141.5681  154.1996 C   0  0  0  0  0  0  0  0  0  0  0  0
  149.6904  141.2965  155.0454 C   0  0  0  0  0  0  0  0  0  0  0  0
  150.4869  140.4221  154.7066 O   0  0  0  0  0  0  0  0  0  0  0  0
  149.8518  142.0746  156.1270 N   0  0  0  0  0  0  0  0  0  0  0  0
  151.0314  142.1250  156.9853 C   0  0  2  0  0  0  0  0  0  0  0  0
  150.9629  140.9600  157.9860 C   0  0  0  0  0  0  0  0  0  0  0  0
  151.0951  143.5062  157.6821 C   0  0  1  0  0  0  0  0  0  0  0  0
  150.1814  143.6202  158.9262 C   0  0  0  0  0  0  0  0  0  0  0  0
  151.1423  144.0999  160.0284 C   0  0  2  0  0  0  0  0  0  0  0  0
  151.5775  145.5488  159.7413 C   0  0  0  0  0  0  0  0  0  0  0  0
  152.5327  145.3844  158.5448 C   0  0  0  0  0  0  0  0  0  0  0  0
  152.4824  143.8685  158.2777 C   0  0  1  0  0  0  0  0  0  0  0  0
  152.4034  143.3141  159.6959 C   0  0  0  0  0  0  0  0  0  0  0  0
  146.1201  143.1635  153.0559 H   0  0  0  0  0  0  0  0  0  0  0  0
  145.9909  144.2888  154.4042 H   0  0  0  0  0  0  0  0  0  0  0  0
  144.5772  143.3842  153.8677 H   0  0  0  0  0  0  0  0  0  0  0  0
  148.4178  140.8547  153.3754 H   0  0  0  0  0  0  0  0  0  0  0  0
  148.5278  142.5557  153.7440 H   0  0  0  0  0  0  0  0  0  0  0  0
  149.1308  142.7540  156.3209 H   0  0  0  0  0  0  0  0  0  0  0  0
  151.9327  142.0010  156.3828 H   0  0  0  0  0  0  0  0  0  0  0  0
  151.8377  140.9357  158.6354 H   0  0  0  0  0  0  0  0  0  0  0  0
  150.9186  140.0021  157.4664 H   0  0  0  0  0  0  0  0  0  0  0  0
  150.0801  141.0339  158.6218 H   0  0  0  0  0  0  0  0  0  0  0  0
  150.8117  144.2638  156.9494 H   0  0  0  0  0  0  0  0  0  0  0  0
  149.3508  144.3094  158.7698 H   0  0  0  0  0  0  0  0  0  0  0  0
  149.7595  142.6533  159.2028 H   0  0  0  0  0  0  0  0  0  0  0  0
  150.7585  143.9498  161.0379 H   0  0  0  0  0  0  0  0  0  0  0  0
  150.7305  146.1964  159.5121 H   0  0  0  0  0  0  0  0  0  0  0  0
  152.1042  145.9747  160.5961 H   0  0  0  0  0  0  0  0  0  0  0  0
  152.2273  145.9732  157.6791 H   0  0  0  0  0  0  0  0  0  0  0  0
  153.5427  145.6939  158.8169 H   0  0  0  0  0  0  0  0  0  0  0  0
  153.3381  143.5169  157.7016 H   0  0  0  0  0  0  0  0  0  0  0  0
  153.2596  143.5867  160.3155 H   0  0  0  0  0  0  0  0  0  0  0  0
  152.2653  142.2324  159.7345 H   0  0  0  0  0  0  0  0  0  0  0  0
  1  2  1  0  0  0  0
  1 21  1  0  0  0  0
  1 22  1  0  0  0  0
  1 23  1  0  0  0  0
  2  7  1  0  0  0  0
  2  3  2  0  0  0  0
  3  4  1  0  0  0  0
  4  5  1  0  0  0  0
  5  6  1  0  0  0  0
  5  7  2  0  0  0  0
  7  8  1  0  0  0  0
  8  9  1  0  0  0  0
  8 24  1  0  0  0  0
  8 25  1  0  0  0  0
  9 10  2  0  0  0  0
  9 11  1  0  0  0  0
 11 12  1  0  0  0  0
 11 26  1  0  0  0  0
 12 13  1  0  0  0  0
 12 14  1  0  0  0  0
 12 27  1  0  0  0  0
 13 28  1  0  0  0  0
 13 29  1  0  0  0  0
 13 30  1  0  0  0  0
 14 19  1  0  0  0  0
 14 15  1  0  0  0  0
 14 31  1  0  0  0  0
 15 16  1  0  0  0  0
 15 32  1  0  0  0  0
 15 33  1  0  0  0  0
 16 20  1  0  0  0  0
 16 17  1  0  0  0  0
 16 34  1  0  0  0  0
 17 18  1  0  0  0  0
 17 35  1  0  0  0  0
 17 36  1  0  0  0  0
 18 19  1  0  0  0  0
 18 37  1  0  0  0  0
 18 38  1  0  0  0  0
 19 20  1  0  0  0  0
 19 39  1  0  0  0  0
 20 40  1  0  0  0  0
 20 41  1  0  0  0  0
M  END
> <s_m_source_file>
AV-unprocessed.smi

> <i_m_source_file_index>
1686

> <i_lp_mmshare_version>
43012

> <i_f3d_flags>
0

> <s_epik_input>
W0NIM11jMW5vYyhDbCljMVtDSDJdQyg9TylbTkhdW0NASF0oW0NIM10pW0NASF0oW0NIMl1bQ0BIXTIzKVtDQEhdKFtDSDJdMylbQ0gyXVtDSDJdMg==

> <s_epik_cmdline>
J2VwaWtfcHl0aG9uJywgJy1waCcsICc3LjAnLCAnLXRuJywgJzgnLCAnLW1hJywgJzIwMCcsICctbWV0YWxfYmluZGluZycsICctaW1hZScsICc8aW5maWxlLm1hZT4nLCAnLW9tYWUnLCAnPG91dGZpbGUubWFlPic=

> <r_lp_tautomer_probability>
1

> <r_epik_Ionization_Penalty>
2.01576e-08

> <r_epik_Ionization_Penalty_Charging>
0

> <r_epik_Ionization_Penalty_Neutral>
2.01576e-08

> <r_epik_State_Penalty>
-0

> <r_epik_Charging_Adjusted_Penalty>
0

> <i_epik_Tot_Q>
0

> <i_epik_Tot_abs_Q>
0

> <r_epik_Metal_State_Penalty>
-0

> <b_epik_Metal_Only>
0

> <s_lp_Force_Field>
OPLS_2005

> <r_lp_Energy>
45.33

> <b_lp_Chiralities_Consistent>
1

> <s_lp_Variant>
AV-unprocessed.smi:1686-3

> <Gold.Version>
5.8.1

> <Gold.Id.Protein>
6NUR|6NUR_protein|mol2

> <Gold.PLP.Fitness>
47.2163

> <Gold.PLP.PLP>
-43.9622

> <Gold.PLP.part.hbond>
-2.0000

> <Gold.PLP.part.metal>
0.0000

> <Gold.PLP.part.buried>
-4.5897

> <Gold.PLP.part.nonpolar>
-36.0780

> <Gold.PLP.part.repulsive>
0.3406

> <Gold.PLP.ligand.clash>
0.0000

> <Gold.PLP.ligand.torsion>
1.0342

> <Gold.PLP.Chemscore.Hbond>
1.7680

> <Gold.PLP.Chemscore.CHOScore>
0.0000

> <Gold.PLP.Chemscore.Metal>
0.0000

> <Gold.Chemscore.Hbonds>
donor molecule, donor type, donor heavy atom, donor atom, acceptor molecule, acceptor atom, score
      L1  H    11    26       P1  8028  0.54
      P1  H  7989  7998       L1    10  1.00

> <Gold.PLP.Chemscore.Internal.Correction>
0.0186

> <Gold.Rescore>
     Score         DG    S(hbond)    S(metal)    S(lipo)     H(rot)  DE(clash)    DE(int)     intcor
     18.09     -19.02       1.18        0.00     114.07       1.46       0.07       0.86       ----

> <Gold.Chemscore.Fitness>
18.0939

> <Gold.Chemscore.DG>
-19.0243

> <Gold.Chemscore.ZeroCoef>
-5.4800

> <Gold.Chemscore.Hbond>
1.1819

> <Gold.Chemscore.Metal>
0.0000

> <Gold.Chemscore.Lipo>
114.0749

> <Gold.Chemscore.Internal_Hbond>
0.0000

> <Gold.Chemscore.DEClash>
0.0702

> <Gold.Chemscore.DEInternal>
0.8602

> <Gold.Chemscore.Rot>
1.4648

> <Gold.Chemscore.Internal.Correction>
   9.000000E+99

> <Gold.Chemscore.Hbonds>
donor molecule, donor type, donor heavy atom, donor atom, acceptor molecule, acceptor atom, score
      L1  H    11    26       P1  8028  0.52
      P1  H  7989  7998       L1    10  0.88

> <Gold.Chemscore.Hbond.Weighted>
-3.9475

> <Gold.Chemscore.Metal.Weighted>
-0.0000

> <Gold.Chemscore.Lipo.Weighted>
-13.3468

> <Gold.Chemscore.Internal_Hbond.Weighted>
0.0000

> <Gold.Chemscore.DEClash.Weighted>
0.0702

> <Gold.Chemscore.DEInternal.Weighted>
0.8602

> <Gold.Chemscore.Rot.Weighted>
3.7500

> <Gold.Chemscore.Internal.Correction.Weighted>
   9.000000E+99

> <Gold.Protein.RotatedTorsions>
[ 6907 6896 6895 6894 ] final -124.98 input  -60.11 | X-H torsion
[ 7974 7965 7964 7962 ] final   17.09 input  175.53 | X-H torsion
[ 8008 7997 7996 7995 ] final  124.82 input   59.86 | X-H torsion
[ 10167 10162 10161 10158 ] final    6.60 input  -65.29 | X-H torsion
[ 10718 10713 10712 10709 ] final   24.01 input   66.30 | X-H torsion
[ 10763 10752 10751 10750 ] final  -26.50 input  -60.55 | X-H torsion
[ 11005 11000 10999 10996 ] final  -20.37 input  -57.11 | X-H torsion

> <Gold.Protein.ActiveResidues>
 VAL166  LYS551  ARG553  GLY616  TRP617  ASP618  TYR619  PRO620  LYS621  CYS622 
 ASP623  PHE694  ASN695  SER759  ASP760  ASP761  ALA762  ILE779  LEU786  VAL792 
 PHE793  MET794  SER795  GLU796  ALA797  LYS798  CYS799  TRP800  GLU811  SER814 

> <Gold.Protein.RotatedAtoms>
  150.8822  133.7356  159.2928 H   0  0  0  0  0  0  0  0  0  0  0  0  # atno 6907 bound_to 6896
  151.4934  135.1057  159.9819 H   0  0  0  0  0  0  0  0  0  0  0  0  # atno 6908 bound_to 6896
  152.4767  133.8109  159.7058 H   0  0  0  0  0  0  0  0  0  0  0  0  # atno 6909 bound_to 6896
  146.2229  139.8652  142.8597 H   0  0  0  0  0  0  0  0  0  0  0  0  # atno 7974 bound_to 7965
  156.2814  140.2731  156.1849 H   0  0  0  0  0  0  0  0  0  0  0  0  # atno 8008 bound_to 7997
  155.0518  140.0386  157.2564 H   0  0  0  0  0  0  0  0  0  0  0  0  # atno 8009 bound_to 7997
  154.7189  140.2684  155.6565 H   0  0  0  0  0  0  0  0  0  0  0  0  # atno 8010 bound_to 7997
  140.6419  143.7754  150.7440 H   0  0  0  0  0  0  0  0  0  0  0  0  # atno 10167 bound_to 10162
  157.1740  130.6772  149.6088 H   0  0  0  0  0  0  0  0  0  0  0  0  # atno 10718 bound_to 10713
  153.7169  135.6947  153.5023 H   0  0  0  0  0  0  0  0  0  0  0  0  # atno 10763 bound_to 10752
  153.2232  135.4363  155.0511 H   0  0  0  0  0  0  0  0  0  0  0  0  # atno 10764 bound_to 10752
  154.8297  135.3465  154.6704 H   0  0  0  0  0  0  0  0  0  0  0  0  # atno 10765 bound_to 10752
  140.8457  133.7893  155.9910 H   0  0  0  0  0  0  0  0  0  0  0  0  # atno 11005 bound_to 11000
  145.2663  141.0094  143.3797 LP  0  0  0  0  0  0  0  0  0  0  0  0  # atno 17320 bound_to 7965
  144.9258  139.4357  143.6519 LP  0  0  0  0  0  0  0  0  0  0  0  0  # atno 17321 bound_to 7965
  140.1387  143.4460  152.2207 LP  0  0  0  0  0  0  0  0  0  0  0  0  # atno 17342 bound_to 10162
  139.5628  144.7416  151.4106 LP  0  0  0  0  0  0  0  0  0  0  0  0  # atno 17343 bound_to 10162
  155.9734  130.4669  150.6306 LP  0  0  0  0  0  0  0  0  0  0  0  0  # atno 17370 bound_to 10713
  157.4016  131.0811  151.1303 LP  0  0  0  0  0  0  0  0  0  0  0  0  # atno 17371 bound_to 10713
  140.8846  134.2570  157.5127 LP  0  0  0  0  0  0  0  0  0  0  0  0  # atno 17394 bound_to 11000
  139.8703  134.9631  156.4452 LP  0  0  0  0  0  0  0  0  0  0  0  0  # atno 17395 bound_to 11000

$$$$
