AV-unprocessed.smi:837|AV-procd|sdf|3899|dock3
  -GOLD-   22720 1353D 1   1.00000     0.00000
 Structure written by MMmdl.
 50 52  0  0  0  0  0  0  0  0  2 V2000
  148.9164  136.4980  158.3474 C   0  0  0  0  0  0  0  0  0  0  0  0
  149.1911  135.3331  157.3717 C   0  0  1  0  0  0  0  0  0  0  0  0
  148.1833  134.1882  157.6131 C   0  0  0  0  0  0  0  0  0  0  0  0
  148.4614  132.9759  156.7105 C   0  0  0  0  0  0  0  0  0  0  0  0
  148.4753  133.3721  155.2278 C   0  0  0  0  0  0  0  0  0  0  0  0
  149.4850  134.5019  154.9696 C   0  0  0  0  0  0  0  0  0  0  0  0
  149.2149  135.7355  155.8644 C   0  0  1  0  0  0  0  0  0  0  0  0
  147.9965  136.4152  155.4558 N   0  0  0  0  0  0  0  0  0  0  0  0
  148.2182  137.6551  155.0027 C   0  0  0  0  0  0  0  0  0  0  0  0
  147.3496  138.4310  154.6060 O   0  0  0  0  0  0  0  0  0  0  0  0
  149.5394  137.9008  155.0686 N   0  0  0  0  0  0  0  0  0  0  0  0
  150.1579  139.1816  154.7044 C   0  0  0  0  0  0  0  0  0  0  0  0
  151.2815  139.5931  155.6656 C   0  0  0  0  0  0  0  0  0  0  0  0
  152.4066  139.8631  155.2437 O   0  0  0  0  0  0  0  0  0  0  0  0
  150.9571  139.6338  156.9663 N   0  0  0  0  0  0  0  0  0  0  0  0
  151.8772  139.9540  158.0539 C   0  0  0  0  0  0  0  0  0  0  0  0
  151.2986  140.9778  159.0530 C   0  0  0  0  0  0  0  0  0  0  0  0
  151.5118  142.4233  158.6359 C   0  0  0  0  0  0  0  0  0  0  0  0
  152.2179  143.3169  159.4722 C   0  0  0  0  0  0  0  0  0  0  0  0
  152.3876  144.6568  159.0666 C   0  0  0  0  0  0  0  0  0  0  0  0
  151.8485  145.0733  157.8324 C   0  0  0  0  0  0  0  0  0  0  0  0
  151.1809  144.1901  157.0577 N   0  3  0  0  0  0  0  0  0  0  0  0
  150.9975  142.8985  157.4103 C   0  0  0  0  0  0  0  0  0  0  0  0
  150.2095  136.8492  155.5599 C   0  0  0  0  0  0  0  0  0  0  0  0
  151.4216  136.7656  155.7585 O   0  0  0  0  0  0  0  0  0  0  0  0
  147.9407  136.9513  158.1710 H   0  0  0  0  0  0  0  0  0  0  0  0
  149.6682  137.2829  158.2662 H   0  0  0  0  0  0  0  0  0  0  0  0
  148.9325  136.1501  159.3804 H   0  0  0  0  0  0  0  0  0  0  0  0
  150.1797  134.9433  157.6207 H   0  0  0  0  0  0  0  0  0  0  0  0
  148.2222  133.8736  158.6565 H   0  0  0  0  0  0  0  0  0  0  0  0
  147.1671  134.5448  157.4401 H   0  0  0  0  0  0  0  0  0  0  0  0
  149.4217  132.5342  156.9793 H   0  0  0  0  0  0  0  0  0  0  0  0
  147.7086  132.2058  156.8810 H   0  0  0  0  0  0  0  0  0  0  0  0
  148.7248  132.5054  154.6152 H   0  0  0  0  0  0  0  0  0  0  0  0
  147.4773  133.6877  154.9214 H   0  0  0  0  0  0  0  0  0  0  0  0
  150.4914  134.1245  155.1586 H   0  0  0  0  0  0  0  0  0  0  0  0
  149.4590  134.7788  153.9145 H   0  0  0  0  0  0  0  0  0  0  0  0
  147.0855  135.9837  155.5149 H   0  0  0  0  0  0  0  0  0  0  0  0
  150.5666  139.1382  153.6937 H   0  0  0  0  0  0  0  0  0  0  0  0
  149.3917  139.9587  154.6825 H   0  0  0  0  0  0  0  0  0  0  0  0
  150.0063  139.4110  157.2235 H   0  0  0  0  0  0  0  0  0  0  0  0
  152.1812  139.0435  158.5727 H   0  0  0  0  0  0  0  0  0  0  0  0
  152.7795  140.3639  157.5995 H   0  0  0  0  0  0  0  0  0  0  0  0
  150.2299  140.8012  159.1821 H   0  0  0  0  0  0  0  0  0  0  0  0
  151.7456  140.8250  160.0360 H   0  0  0  0  0  0  0  0  0  0  0  0
  152.6174  142.9842  160.4196 H   0  0  0  0  0  0  0  0  0  0  0  0
  152.9199  145.3543  159.6969 H   0  0  0  0  0  0  0  0  0  0  0  0
  151.9299  146.0786  157.4450 H   0  0  0  0  0  0  0  0  0  0  0  0
  150.4445  142.2907  156.7087 H   0  0  0  0  0  0  0  0  0  0  0  0
  150.7978  144.5125  156.1687 H   0  0  0  0  0  0  0  0  0  0  0  0
  1  2  1  0  0  0  0
  1 26  1  0  0  0  0
  1 27  1  0  0  0  0
  1 28  1  0  0  0  0
  2  7  1  0  0  0  0
  2  3  1  0  0  0  0
  2 29  1  0  0  0  0
  3  4  1  0  0  0  0
  3 30  1  0  0  0  0
  3 31  1  0  0  0  0
  4  5  1  0  0  0  0
  4 32  1  0  0  0  0
  4 33  1  0  0  0  0
  5  6  1  0  0  0  0
  5 34  1  0  0  0  0
  5 35  1  0  0  0  0
  6  7  1  0  0  0  0
  6 36  1  0  0  0  0
  6 37  1  0  0  0  0
  7 24  1  0  0  0  0
  7  8  1  0  0  0  0
  8  9  1  0  0  0  0
  8 38  1  0  0  0  0
  9 10  2  0  0  0  0
  9 11  1  0  0  0  0
 11 12  1  0  0  0  0
 11 24  1  0  0  0  0
 12 13  1  0  0  0  0
 12 39  1  0  0  0  0
 12 40  1  0  0  0  0
 13 14  2  0  0  0  0
 13 15  1  0  0  0  0
 15 16  1  0  0  0  0
 15 41  1  0  0  0  0
 16 17  1  0  0  0  0
 16 42  1  0  0  0  0
 16 43  1  0  0  0  0
 17 18  1  0  0  0  0
 17 44  1  0  0  0  0
 17 45  1  0  0  0  0
 18 23  1  0  0  0  0
 18 19  2  0  0  0  0
 19 20  1  0  0  0  0
 19 46  1  0  0  0  0
 20 21  2  0  0  0  0
 20 47  1  0  0  0  0
 21 22  1  0  0  0  0
 21 48  1  0  0  0  0
 22 23  2  0  0  0  0
 22 50  1  0  0  0  0
 23 49  1  0  0  0  0
 24 25  2  0  0  0  0
M  CHG  1  22   1
M  END
> <s_m_source_file>
AV-unprocessed.smi

> <i_m_source_file_index>
837

> <i_lp_mmshare_version>
43012

> <i_f3d_flags>
0

> <s_epik_input>
W0NIMl0xW0NIMl1bQ0gyXVtDSDJdW0NAQEhdKFtDSDNdKVtDQEBdMTJbTkhdQyg9TylOKEMyPU8pW0NIMl1DKD1PKVtOSF1bQ0gyXVtDSDJdYzNbY0hdW2NIXVtjSF1uW2NIXTM=

> <s_epik_cmdline>
J2VwaWtfcHl0aG9uJywgJy1waCcsICc3LjAnLCAnLXRuJywgJzgnLCAnLW1hJywgJzIwMCcsICctbWV0YWxfYmluZGluZycsICctaW1hZScsICc8aW5maWxlLm1hZT4nLCAnLW9tYWUnLCAnPG91dGZpbGUubWFlPic=

> <r_lp_tautomer_probability>
1

> <r_epik_Ionization_Penalty>
2.28139

> <r_epik_Ionization_Penalty_Charging>
2.28135

> <r_epik_Ionization_Penalty_Neutral>
4.65525e-05

> <r_epik_State_Penalty>
2.43066

> <r_epik_Charging_Adjusted_Penalty>
4.71201

> <i_epik_Tot_Q>
1

> <i_epik_Tot_abs_Q>
1

> <r_epik_Metal_State_Penalty>
2.4646

> <b_epik_Metal_Only>
0

> <s_lp_Force_Field>
OPLS_2005

> <r_lp_Energy>
30.2127

> <b_lp_Chiralities_Consistent>
1

> <s_lp_Variant>
AV-unprocessed.smi:837-8

> <Gold.Version>
5.8.1

> <Gold.Id.Protein>
6NUR|6NUR_protein|mol2

> <Gold.PLP.Fitness>
51.5923

> <Gold.PLP.PLP>
-41.7206

> <Gold.PLP.part.hbond>
-3.1222

> <Gold.PLP.part.metal>
0.0000

> <Gold.PLP.part.buried>
-6.2959

> <Gold.PLP.part.nonpolar>
-33.6964

> <Gold.PLP.part.repulsive>
0.2921

> <Gold.PLP.ligand.clash>
0.0000

> <Gold.PLP.ligand.torsion>
0.5500

> <Gold.PLP.Chemscore.Hbond>
3.6400

> <Gold.PLP.Chemscore.CHOScore>
0.0000

> <Gold.PLP.Chemscore.Metal>
0.0000

> <Gold.Chemscore.Hbonds>
donor molecule, donor type, donor heavy atom, donor atom, acceptor molecule, acceptor atom, score
      L1  H    22    50       P1  8028  1.15
      P1  H  7989  7998       L1    14  0.34
      P1  H  7997  8009       L1    14  0.15
      P1  H 10752 10763       L1    25  0.33

> <Gold.PLP.Chemscore.Internal.Correction>
0.0518

> <Gold.Rescore>
     Score         DG    S(hbond)    S(metal)    S(lipo)     H(rot)  DE(clash)    DE(int)     intcor
     19.48     -22.90       2.94        0.00     107.94       1.96       1.50       1.92       ----

> <Gold.Chemscore.Fitness>
19.4802

> <Gold.Chemscore.DG>
-22.9021

> <Gold.Chemscore.ZeroCoef>
-5.4800

> <Gold.Chemscore.Hbond>
2.9402

> <Gold.Chemscore.Metal>
0.0000

> <Gold.Chemscore.Lipo>
107.9412

> <Gold.Chemscore.Internal_Hbond>
0.0000

> <Gold.Chemscore.DEClash>
1.5012

> <Gold.Chemscore.DEInternal>
1.9207

> <Gold.Chemscore.Rot>
1.9638

> <Gold.Chemscore.Internal.Correction>
   9.000000E+99

> <Gold.Chemscore.Hbonds>
donor molecule, donor type, donor heavy atom, donor atom, acceptor molecule, acceptor atom, score
      L1  H    22    50       P1  8028  0.57
      P1  H  7989  7998       L1    14  0.04
      P1  H  7997  8009       L1    14  0.15
      P1  H 10752 10763       L1    25  0.30

> <Gold.Chemscore.Hbond.Weighted>
-9.8204

> <Gold.Chemscore.Metal.Weighted>
-0.0000

> <Gold.Chemscore.Lipo.Weighted>
-12.6291

> <Gold.Chemscore.Internal_Hbond.Weighted>
0.0000

> <Gold.Chemscore.DEClash.Weighted>
1.5012

> <Gold.Chemscore.DEInternal.Weighted>
1.9207

> <Gold.Chemscore.Rot.Weighted>
5.0274

> <Gold.Chemscore.Internal.Correction.Weighted>
   9.000000E+99

> <Gold.Protein.RotatedTorsions>
[ 6907 6896 6895 6894 ] final  -29.26 input  -60.11 | X-H torsion
[ 7974 7965 7964 7962 ] final  119.92 input  175.53 | X-H torsion
[ 8008 7997 7996 7995 ] final -175.71 input   59.86 | X-H torsion
[ 10167 10162 10161 10158 ] final  -82.53 input  -65.29 | X-H torsion
[ 10718 10713 10712 10709 ] final -119.22 input   66.30 | X-H torsion
[ 10763 10752 10751 10750 ] final   50.37 input  -60.55 | X-H torsion
[ 11005 11000 10999 10996 ] final   14.46 input  -57.11 | X-H torsion

> <Gold.Protein.ActiveResidues>
 VAL166  LYS551  ARG553  GLY616  TRP617  ASP618  TYR619  PRO620  LYS621  CYS622 
 ASP623  PHE694  ASN695  SER759  ASP760  ASP761  ALA762  ILE779  LEU786  VAL792 
 PHE793  MET794  SER795  GLU796  ALA797  LYS798  CYS799  TRP800  GLU811  SER814 

> <Gold.Protein.RotatedAtoms>
  151.1217  135.0083  159.8541 H   0  0  0  0  0  0  0  0  0  0  0  0  # atno 6907 bound_to 6896
  152.5448  134.1715  159.8608 H   0  0  0  0  0  0  0  0  0  0  0  0  # atno 6908 bound_to 6896
  151.1774  133.4701  159.2627 H   0  0  0  0  0  0  0  0  0  0  0  0  # atno 6909 bound_to 6896
  145.1373  139.3289  143.4634 H   0  0  0  0  0  0  0  0  0  0  0  0  # atno 7974 bound_to 7965
  155.9860  140.1191  157.0683 H   0  0  0  0  0  0  0  0  0  0  0  0  # atno 8008 bound_to 7997
  154.4197  140.1135  156.5568 H   0  0  0  0  0  0  0  0  0  0  0  0  # atno 8009 bound_to 7997
  155.6407  140.3473  155.4716 H   0  0  0  0  0  0  0  0  0  0  0  0  # atno 8010 bound_to 7997
  140.4311  143.2548  151.8758 H   0  0  0  0  0  0  0  0  0  0  0  0  # atno 10167 bound_to 10162
  156.1165  130.6290  150.9389 H   0  0  0  0  0  0  0  0  0  0  0  0  # atno 10718 bound_to 10713
  152.9785  135.5881  154.4242 H   0  0  0  0  0  0  0  0  0  0  0  0  # atno 10763 bound_to 10752
  154.3863  135.2767  155.2183 H   0  0  0  0  0  0  0  0  0  0  0  0  # atno 10764 bound_to 10752
  154.4075  135.6089  153.5987 H   0  0  0  0  0  0  0  0  0  0  0  0  # atno 10765 bound_to 10752
  140.4692  134.1048  155.7729 H   0  0  0  0  0  0  0  0  0  0  0  0  # atno 11005 bound_to 11000
  146.3508  140.1396  142.8595 LP  0  0  0  0  0  0  0  0  0  0  0  0  # atno 17320 bound_to 7965
  145.0570  140.9060  143.4961 LP  0  0  0  0  0  0  0  0  0  0  0  0  # atno 17321 bound_to 7965
  139.4785  144.5333  151.8635 LP  0  0  0  0  0  0  0  0  0  0  0  0  # atno 17342 bound_to 10162
  140.4426  144.1966  150.5892 LP  0  0  0  0  0  0  0  0  0  0  0  0  # atno 17343 bound_to 10162
  157.6348  131.0917  150.8370 LP  0  0  0  0  0  0  0  0  0  0  0  0  # atno 17370 bound_to 10713
  156.8473  130.5068  149.5315 LP  0  0  0  0  0  0  0  0  0  0  0  0  # atno 17371 bound_to 10713
  141.1585  133.8838  157.1913 LP  0  0  0  0  0  0  0  0  0  0  0  0  # atno 17394 bound_to 11000
  139.9896  135.0069  156.9943 LP  0  0  0  0  0  0  0  0  0  0  0  0  # atno 17395 bound_to 11000

$$$$
