AV-unprocessed.smi:2525|AV-procd|sdf|9930|dock5
  -GOLD-   2272013573D 1   1.00000     0.00000
 Structure written by MMmdl.
 44 45  0  0  0  0  0  0  0  0  1 V2000
  149.3620  133.0801  154.5775 C   0  0  0  0  0  0  0  0  0  0  0  0
  148.4886  133.3435  153.3376 C   0  0  0  0  0  0  0  0  0  0  0  0
  147.0327  133.8327  153.5828 C   0  0  0  0  0  0  0  0  0  0  0  0
  146.2840  132.6557  154.2551 C   0  0  0  0  0  0  0  0  0  0  0  0
  146.6353  132.4226  155.7352 C   0  0  0  0  0  0  0  0  0  0  0  0
  146.8173  135.1972  154.3041 C   0  0  1  0  0  0  0  0  0  0  0  0
  147.9130  136.1468  154.1200 N   0  0  0  0  0  0  0  0  0  0  0  0
  148.1489  137.2193  154.8902 C   0  0  0  0  0  0  0  0  0  0  0  0
  147.4649  137.5126  155.8699 O   0  0  0  0  0  0  0  0  0  0  0  0
  149.3532  138.0859  154.5108 C   0  0  0  0  0  0  0  0  0  0  0  0
  148.9526  139.4260  154.1144 N   0  0  0  0  0  0  0  0  0  0  0  0
  147.6801  139.9151  153.9012 C   0  0  0  0  0  0  0  0  0  0  0  0
  147.8958  141.2120  153.5324 C   0  0  0  0  0  0  0  0  0  0  0  0
  149.2683  141.4553  153.5355 N   0  0  0  0  0  0  0  0  0  0  0  0
  149.8926  140.3764  153.8899 N   0  0  0  0  0  0  0  0  0  0  0  0
  145.6397  135.5000  153.3595 C   0  0  1  0  0  0  0  0  0  0  0  0
  145.3663  136.9314  152.9006 C   0  0  0  0  0  0  0  0  0  0  0  0
  146.2768  134.4907  152.3928 C   0  0  2  0  0  0  0  0  0  0  0  0
  145.3698  133.5984  151.7616 O   0  0  0  0  0  0  0  0  0  0  0  0
  144.4908  134.2405  150.8548 C   0  0  0  0  0  0  0  0  0  0  0  0
  150.3394  132.7017  154.2776 H   0  0  0  0  0  0  0  0  0  0  0  0
  148.9248  132.3423  155.2488 H   0  0  0  0  0  0  0  0  0  0  0  0
  149.5339  133.9959  155.1431 H   0  0  0  0  0  0  0  0  0  0  0  0
  149.0353  134.0662  152.7304 H   0  0  0  0  0  0  0  0  0  0  0  0
  148.4679  132.4330  152.7380 H   0  0  0  0  0  0  0  0  0  0  0  0
  145.2064  132.8096  154.1955 H   0  0  0  0  0  0  0  0  0  0  0  0
  146.4623  131.7323  153.7026 H   0  0  0  0  0  0  0  0  0  0  0  0
  146.0384  131.6074  156.1438 H   0  0  0  0  0  0  0  0  0  0  0  0
  146.4390  133.3054  156.3430 H   0  0  0  0  0  0  0  0  0  0  0  0
  147.6827  132.1523  155.8676 H   0  0  0  0  0  0  0  0  0  0  0  0
  146.4869  135.1101  155.3399 H   0  0  0  0  0  0  0  0  0  0  0  0
  148.5310  135.9812  153.3388 H   0  0  0  0  0  0  0  0  0  0  0  0
  150.0372  138.1640  155.3568 H   0  0  0  0  0  0  0  0  0  0  0  0
  149.9017  137.6108  153.6961 H   0  0  0  0  0  0  0  0  0  0  0  0
  146.7827  139.3258  154.0205 H   0  0  0  0  0  0  0  0  0  0  0  0
  147.1863  141.9816  153.2660 H   0  0  0  0  0  0  0  0  0  0  0  0
  144.7346  135.0678  153.7893 H   0  0  0  0  0  0  0  0  0  0  0  0
  146.1909  137.3329  152.3104 H   0  0  0  0  0  0  0  0  0  0  0  0
  145.2179  137.5952  153.7523 H   0  0  0  0  0  0  0  0  0  0  0  0
  144.4691  136.9860  152.2846 H   0  0  0  0  0  0  0  0  0  0  0  0
  146.9285  134.9944  151.6783 H   0  0  0  0  0  0  0  0  0  0  0  0
  143.8645  133.4947  150.3657 H   0  0  0  0  0  0  0  0  0  0  0  0
  145.0417  134.7761  150.0808 H   0  0  0  0  0  0  0  0  0  0  0  0
  143.8333  134.9415  151.3679 H   0  0  0  0  0  0  0  0  0  0  0  0
  1  2  1  0  0  0  0
  1 21  1  0  0  0  0
  1 22  1  0  0  0  0
  1 23  1  0  0  0  0
  2  3  1  0  0  0  0
  2 24  1  0  0  0  0
  2 25  1  0  0  0  0
  3 18  1  0  0  0  0
  3  4  1  0  0  0  0
  3  6  1  0  0  0  0
  4  5  1  0  0  0  0
  4 26  1  0  0  0  0
  4 27  1  0  0  0  0
  5 28  1  0  0  0  0
  5 29  1  0  0  0  0
  5 30  1  0  0  0  0
  6  7  1  0  0  0  0
  6 16  1  0  0  0  0
  6 31  1  0  0  0  0
  7  8  1  0  0  0  0
  7 32  1  0  0  0  0
  8  9  2  0  0  0  0
  8 10  1  0  0  0  0
 10 11  1  0  0  0  0
 10 33  1  0  0  0  0
 10 34  1  0  0  0  0
 11 15  1  0  0  0  0
 11 12  1  0  0  0  0
 12 13  2  0  0  0  0
 12 35  1  0  0  0  0
 13 14  1  0  0  0  0
 13 36  1  0  0  0  0
 14 15  2  0  0  0  0
 16 17  1  0  0  0  0
 16 18  1  0  0  0  0
 16 37  1  0  0  0  0
 17 38  1  0  0  0  0
 17 39  1  0  0  0  0
 17 40  1  0  0  0  0
 18 19  1  0  0  0  0
 18 41  1  0  0  0  0
 19 20  1  0  0  0  0
 20 42  1  0  0  0  0
 20 43  1  0  0  0  0
 20 44  1  0  0  0  0
M  END
> <s_m_source_file>
AV-unprocessed.smi

> <i_m_source_file_index>
2525

> <i_lp_mmshare_version>
43012

> <i_f3d_flags>
0

> <s_epik_input>
W0NIM11PW0NAQEhdMVtDQEhdKFtDSDNdKVtDQEBIXShDMShbQ0gyXVtDSDNdKVtDSDJdW0NIM10pW05IXUMoPU8pW0NIMl1uMltjSF1bY0hdbm4y

> <s_epik_cmdline>
J2VwaWtfcHl0aG9uJywgJy1waCcsICc3LjAnLCAnLXRuJywgJzgnLCAnLW1hJywgJzIwMCcsICctbWV0YWxfYmluZGluZycsICctaW1hZScsICc8aW5maWxlLm1hZT4nLCAnLW9tYWUnLCAnPG91dGZpbGUubWFlPic=

> <r_lp_tautomer_probability>
1

> <r_epik_Ionization_Penalty>
1.18045e-06

> <r_epik_Ionization_Penalty_Charging>
0

> <r_epik_Ionization_Penalty_Neutral>
1.18045e-06

> <r_epik_State_Penalty>
-0

> <r_epik_Charging_Adjusted_Penalty>
0

> <i_epik_Tot_Q>
0

> <i_epik_Tot_abs_Q>
0

> <r_epik_Metal_State_Penalty>
-0

> <b_epik_Metal_Only>
0

> <s_lp_Force_Field>
OPLS_2005

> <r_lp_Energy>
28.6674

> <b_lp_Chiralities_Consistent>
1

> <s_lp_Variant>
AV-unprocessed.smi:2525-5

> <Gold.Version>
5.8.1

> <Gold.Id.Protein>
6NUR|6NUR_protein|mol2

> <Gold.PLP.Fitness>
32.2976

> <Gold.PLP.PLP>
-25.6534

> <Gold.PLP.part.hbond>
-3.7944

> <Gold.PLP.part.metal>
0.0000

> <Gold.PLP.part.buried>
-3.2894

> <Gold.PLP.part.nonpolar>
-20.1090

> <Gold.PLP.part.repulsive>
1.7173

> <Gold.PLP.ligand.clash>
0.0000

> <Gold.PLP.ligand.torsion>
0.7011

> <Gold.PLP.Chemscore.Hbond>
2.4880

> <Gold.PLP.Chemscore.CHOScore>
0.0000

> <Gold.PLP.Chemscore.Metal>
0.0000

> <Gold.Chemscore.Hbonds>
donor molecule, donor type, donor heavy atom, donor atom, acceptor molecule, acceptor atom, score
      L1  H     7    32       P1  7948  1.00
      P1  H  7989  7998       L1    15  0.67
      P1  H  8011  8017       L1    14  0.86

> <Gold.PLP.Chemscore.Internal.Correction>
0.5824

> <Gold.Rescore>
     Score         DG    S(hbond)    S(metal)    S(lipo)     H(rot)  DE(clash)    DE(int)     intcor
     11.68     -13.15       1.90        0.00      54.62       1.98       0.45       1.01       ----

> <Gold.Chemscore.Fitness>
11.6831

> <Gold.Chemscore.DG>
-13.1477

> <Gold.Chemscore.ZeroCoef>
-5.4800

> <Gold.Chemscore.Hbond>
1.9013

> <Gold.Chemscore.Metal>
0.0000

> <Gold.Chemscore.Lipo>
54.6191

> <Gold.Chemscore.Internal_Hbond>
0.0000

> <Gold.Chemscore.DEClash>
0.4526

> <Gold.Chemscore.DEInternal>
1.0119

> <Gold.Chemscore.Rot>
1.9817

> <Gold.Chemscore.Internal.Correction>
   9.000000E+99

> <Gold.Chemscore.Hbonds>
donor molecule, donor type, donor heavy atom, donor atom, acceptor molecule, acceptor atom, score
      L1  H     7    32       P1  7948  0.91
      P1  H  7989  7998       L1    15  0.15
      P1  H  8011  8017       L1    14  0.76

> <Gold.Chemscore.Hbond.Weighted>
-6.3503

> <Gold.Chemscore.Metal.Weighted>
-0.0000

> <Gold.Chemscore.Lipo.Weighted>
-6.3904

> <Gold.Chemscore.Internal_Hbond.Weighted>
0.0000

> <Gold.Chemscore.DEClash.Weighted>
0.4526

> <Gold.Chemscore.DEInternal.Weighted>
1.0119

> <Gold.Chemscore.Rot.Weighted>
5.0731

> <Gold.Chemscore.Internal.Correction.Weighted>
   9.000000E+99

> <Gold.Protein.RotatedTorsions>
[ 6907 6896 6895 6894 ] final   77.59 input  -60.11 | X-H torsion
[ 7974 7965 7964 7962 ] final  -32.21 input  175.53 | X-H torsion
[ 8008 7997 7996 7995 ] final   34.64 input   59.86 | X-H torsion
[ 10167 10162 10161 10158 ] final  143.12 input  -65.29 | X-H torsion
[ 10718 10713 10712 10709 ] final   91.19 input   66.30 | X-H torsion
[ 10763 10752 10751 10750 ] final -135.96 input  -60.55 | X-H torsion
[ 11005 11000 10999 10996 ] final  -17.19 input  -57.11 | X-H torsion

> <Gold.Protein.ActiveResidues>
 VAL166  LYS551  ARG553  GLY616  TRP617  ASP618  TYR619  PRO620  LYS621  CYS622 
 ASP623  PHE694  ASN695  SER759  ASP760  ASP761  ALA762  ILE779  LEU786  VAL792 
 PHE793  MET794  SER795  GLU796  ALA797  LYS798  CYS799  TRP800  GLU811  SER814 

> <Gold.Protein.RotatedAtoms>
  152.5124  134.3793  159.9345 H   0  0  0  0  0  0  0  0  0  0  0  0  # atno 6907 bound_to 6896
  151.3750  133.3835  159.2711 H   0  0  0  0  0  0  0  0  0  0  0  0  # atno 6908 bound_to 6896
  150.9548  134.8964  159.7753 H   0  0  0  0  0  0  0  0  0  0  0  0  # atno 6909 bound_to 6896
  146.1008  140.5763  142.8822 H   0  0  0  0  0  0  0  0  0  0  0  0  # atno 7974 bound_to 7965
  155.1581  140.3281  155.4417 H   0  0  0  0  0  0  0  0  0  0  0  0  # atno 8008 bound_to 7997
  156.2552  140.1965  156.6640 H   0  0  0  0  0  0  0  0  0  0  0  0  # atno 8009 bound_to 7997
  154.6424  140.0568  156.9848 H   0  0  0  0  0  0  0  0  0  0  0  0  # atno 8010 bound_to 7997
  139.4977  144.6062  151.6374 H   0  0  0  0  0  0  0  0  0  0  0  0  # atno 10167 bound_to 10162
  157.6960  131.0398  150.3692 H   0  0  0  0  0  0  0  0  0  0  0  0  # atno 10718 bound_to 10713
  154.8693  135.3687  154.4983 H   0  0  0  0  0  0  0  0  0  0  0  0  # atno 10763 bound_to 10752
  153.5625  135.7022  153.5546 H   0  0  0  0  0  0  0  0  0  0  0  0  # atno 10764 bound_to 10752
  153.3615  135.4045  155.1685 H   0  0  0  0  0  0  0  0  0  0  0  0  # atno 10765 bound_to 10752
  140.8143  133.8116  155.9595 H   0  0  0  0  0  0  0  0  0  0  0  0  # atno 11005 bound_to 11000
  144.7431  140.4996  143.6855 LP  0  0  0  0  0  0  0  0  0  0  0  0  # atno 17320 bound_to 7965
  145.5858  139.1492  143.3210 LP  0  0  0  0  0  0  0  0  0  0  0  0  # atno 17321 bound_to 7965
  140.5724  144.0086  150.6223 LP  0  0  0  0  0  0  0  0  0  0  0  0  # atno 17342 bound_to 10162
  140.3208  143.3138  152.0786 LP  0  0  0  0  0  0  0  0  0  0  0  0  # atno 17343 bound_to 10162
  156.4119  130.3936  149.6885 LP  0  0  0  0  0  0  0  0  0  0  0  0  # atno 17370 bound_to 10713
  156.4167  130.7748  151.2764 LP  0  0  0  0  0  0  0  0  0  0  0  0  # atno 17371 bound_to 10713
  140.9165  134.2195  157.4953 LP  0  0  0  0  0  0  0  0  0  0  0  0  # atno 17394 bound_to 11000
  139.8712  134.9773  156.4955 LP  0  0  0  0  0  0  0  0  0  0  0  0  # atno 17395 bound_to 11000

$$$$
