AV-unprocessed.smi:290|AV-procd|sdf|2239|dock4
  -GOLD-   2262022113D 1   1.00000     0.00000
 Structure written by MMmdl.
 59 62  0  0  0  0  0  0  0  0  2 V2000
  153.4547  143.2191  159.5178 C   0  0  0  0  0  0  0  0  0  0  0  0
  152.3161  144.0878  158.9708 C   0  0  2  0  0  0  0  0  0  0  0  0
  151.7177  144.7815  160.0585 O   0  0  0  0  0  0  0  0  0  0  0  0
  150.4416  145.2194  159.6351 C   0  0  0  0  0  0  0  0  0  0  0  0
  149.9083  143.9856  158.9235 C   0  0  0  0  0  0  0  0  0  0  0  0
  151.1358  143.3925  158.2251 C   0  0  1  0  0  0  0  0  0  0  0  0
  151.1316  143.8713  156.8920 O   0  0  0  0  0  0  0  0  0  0  0  0
  151.0559  141.8362  158.2337 C   0  0  0  0  0  0  0  0  0  0  0  0
  150.0431  141.2390  157.3703 N   0  0  0  0  0  0  0  0  0  0  0  0
  148.6847  141.4519  157.4193 C   0  0  0  0  0  0  0  0  0  0  0  0
  147.9868  140.8090  156.5250 N   0  0  0  0  0  0  0  0  0  0  0  0
  148.9338  140.1359  155.7611 C   0  0  0  0  0  0  0  0  0  0  0  0
  148.8804  139.2704  154.6259 C   0  0  0  0  0  0  0  0  0  0  0  0
  147.7477  138.8831  153.9801 N   0  0  0  0  0  0  0  0  0  0  0  0
  147.2021  139.6647  152.8841 C   0  0  0  0  0  0  0  0  0  0  0  0
  146.5776  138.6343  151.9533 C   0  0  0  0  0  0  0  0  0  0  0  0
  146.1130  137.5075  152.8907 C   0  0  1  0  0  0  0  0  0  0  0  0
  145.9758  136.2006  152.1725 N   0  3  2  0  0  0  0  0  0  0  0  0
  145.2620  136.3621  150.8785 C   0  0  0  0  0  0  0  0  0  0  0  0
  145.4072  135.0943  152.9960 C   0  0  0  0  0  0  0  0  0  0  0  0
  143.8731  135.1343  153.1310 C   0  0  0  0  0  0  0  0  0  0  0  0
  143.4746  134.5320  154.3446 O   0  0  0  0  0  0  0  0  0  0  0  0
  147.1674  137.5442  154.0302 C   0  0  2  0  0  0  0  0  0  0  0  0
  146.5491  137.2866  155.4225 C   0  0  0  0  0  0  0  0  0  0  0  0
  150.0634  138.8009  154.1495 N   0  0  0  0  0  0  0  0  0  0  0  0
  151.2169  139.1516  154.7232 C   0  0  0  0  0  0  0  0  0  0  0  0
  151.4154  139.9445  155.7759 N   0  0  0  0  0  0  0  0  0  0  0  0
  150.2352  140.4100  156.2761 C   0  0  0  0  0  0  0  0  0  0  0  0
  145.1416  137.7864  153.3036 H   0  0  0  0  0  0  0  0  0  0  0  0
  147.9561  136.8260  153.8094 H   0  0  0  0  0  0  0  0  0  0  0  0
  154.0285  142.7717  158.7084 H   0  0  0  0  0  0  0  0  0  0  0  0
  153.0884  142.4300  160.1738 H   0  0  0  0  0  0  0  0  0  0  0  0
  154.1502  143.8258  160.0980 H   0  0  0  0  0  0  0  0  0  0  0  0
  152.7604  144.8531  158.3305 H   0  0  0  0  0  0  0  0  0  0  0  0
  149.8194  145.5250  160.4761 H   0  0  0  0  0  0  0  0  0  0  0  0
  150.5418  146.0619  158.9488 H   0  0  0  0  0  0  0  0  0  0  0  0
  149.5330  143.2923  159.6778 H   0  0  0  0  0  0  0  0  0  0  0  0
  149.0800  144.2097  158.2496 H   0  0  0  0  0  0  0  0  0  0  0  0
  150.2806  144.2382  156.7060 H   0  0  0  0  0  0  0  0  0  0  0  0
  152.0259  141.4011  157.9918 H   0  0  0  0  0  0  0  0  0  0  0  0
  150.8346  141.4999  159.2477 H   0  0  0  0  0  0  0  0  0  0  0  0
  148.2189  142.1002  158.1469 H   0  0  0  0  0  0  0  0  0  0  0  0
  146.4465  140.3463  153.2762 H   0  0  0  0  0  0  0  0  0  0  0  0
  147.9604  140.2520  152.3647 H   0  0  0  0  0  0  0  0  0  0  0  0
  145.7719  139.0651  151.3585 H   0  0  0  0  0  0  0  0  0  0  0  0
  147.3405  138.2609  151.2685 H   0  0  0  0  0  0  0  0  0  0  0  0
  144.2091  136.5957  151.0416 H   0  0  0  0  0  0  0  0  0  0  0  0
  145.3234  135.4634  150.2674 H   0  0  0  0  0  0  0  0  0  0  0  0
  145.6917  137.1581  150.2722 H   0  0  0  0  0  0  0  0  0  0  0  0
  145.6444  134.1311  152.5492 H   0  0  0  0  0  0  0  0  0  0  0  0
  145.8684  135.1075  153.9846 H   0  0  0  0  0  0  0  0  0  0  0  0
  143.5384  136.1719  153.1440 H   0  0  0  0  0  0  0  0  0  0  0  0
  143.3636  134.6632  152.2917 H   0  0  0  0  0  0  0  0  0  0  0  0
  143.2438  133.6310  154.1734 H   0  0  0  0  0  0  0  0  0  0  0  0
  146.0720  136.3113  155.4951 H   0  0  0  0  0  0  0  0  0  0  0  0
  145.7899  138.0339  155.6551 H   0  0  0  0  0  0  0  0  0  0  0  0
  147.2969  137.3342  156.2132 H   0  0  0  0  0  0  0  0  0  0  0  0
  152.1080  138.7379  154.2743 H   0  0  0  0  0  0  0  0  0  0  0  0
  146.9173  135.9115  151.9475 H   0  0  0  0  0  0  0  0  0  0  0  0
  1  2  1  0  0  0  0
  1 31  1  0  0  0  0
  1 32  1  0  0  0  0
  1 33  1  0  0  0  0
  2  6  1  0  0  0  0
  2  3  1  0  0  0  0
  2 34  1  0  0  0  0
  3  4  1  0  0  0  0
  4  5  1  0  0  0  0
  4 35  1  0  0  0  0
  4 36  1  0  0  0  0
  5  6  1  0  0  0  0
  5 37  1  0  0  0  0
  5 38  1  0  0  0  0
  6  7  1  0  0  0  0
  6  8  1  0  0  0  0
  7 39  1  0  0  0  0
  8  9  1  0  0  0  0
  8 40  1  0  0  0  0
  8 41  1  0  0  0  0
  9 28  1  0  0  0  0
  9 10  1  0  0  0  0
 10 11  2  0  0  0  0
 10 42  1  0  0  0  0
 11 12  1  0  0  0  0
 12 28  2  0  0  0  0
 12 13  1  0  0  0  0
 13 14  1  0  0  0  0
 13 25  2  0  0  0  0
 14 23  1  0  0  0  0
 14 15  1  0  0  0  0
 15 16  1  0  0  0  0
 15 43  1  0  0  0  0
 15 44  1  0  0  0  0
 16 17  1  0  0  0  0
 16 45  1  0  0  0  0
 16 46  1  0  0  0  0
 17 29  1  0  0  0  0
 17 18  1  0  0  0  0
 17 23  1  0  0  0  0
 18 19  1  0  0  0  0
 18 20  1  0  0  0  0
 18 59  1  0  0  0  0
 19 47  1  0  0  0  0
 19 48  1  0  0  0  0
 19 49  1  0  0  0  0
 20 21  1  0  0  0  0
 20 50  1  0  0  0  0
 20 51  1  0  0  0  0
 21 22  1  0  0  0  0
 21 52  1  0  0  0  0
 21 53  1  0  0  0  0
 22 54  1  0  0  0  0
 23 30  1  0  0  0  0
 23 24  1  0  0  0  0
 24 55  1  0  0  0  0
 24 56  1  0  0  0  0
 24 57  1  0  0  0  0
 25 26  1  0  0  0  0
 26 27  2  0  0  0  0
 26 58  1  0  0  0  0
 27 28  1  0  0  0  0
M  CHG  1  18   1
M  END
> <s_m_source_file>
AV-unprocessed.smi

> <i_m_source_file_index>
290

> <i_lp_mmshare_version>
43012

> <i_f3d_flags>
0

> <s_epik_input>
W0NIMl0xW0NIMl1PW0NAQEhdKFtDSDNdKVtDQEBdMShbT0hdKVtDSDJdbihbY0hdbjIpYyhjMjMpbltjSF1uYzNONFtDSDJdW0NIMl1bQ0BIXShbQ0BIXTRbQ0gzXSlOKFtDSDNdKVtDSDJdW0NIMl1bT0hd

> <s_epik_cmdline>
J2VwaWtfcHl0aG9uJywgJy1waCcsICc3LjAnLCAnLXRuJywgJzgnLCAnLW1hJywgJzIwMCcsICctbWV0YWxfYmluZGluZycsICctaW1hZScsICc8aW5maWxlLm1hZT4nLCAnLW9tYWUnLCAnPG91dGZpbGUubWFlPic=

> <r_lp_tautomer_probability>
1

> <r_epik_Ionization_Penalty>
0.0036983

> <r_epik_Ionization_Penalty_Charging>
0.0032725

> <r_epik_Ionization_Penalty_Neutral>
0.000425798

> <r_epik_State_Penalty>
-0

> <r_epik_Charging_Adjusted_Penalty>
0.0032725

> <i_epik_Tot_Q>
1

> <i_epik_Tot_abs_Q>
1

> <r_epik_Metal_State_Penalty>
-0

> <b_epik_Metal_Only>
0

> <s_lp_Force_Field>
OPLS_2005

> <r_lp_Energy>
66.2506

> <b_lp_Chiralities_Consistent>
1

> <s_lp_Variant>
AV-unprocessed.smi:290-25

> <Gold.Version>
5.8.1

> <Gold.Id.Protein>
6NUR|6NUR_protein|mol2

> <Gold.PLP.Fitness>
49.8824

> <Gold.PLP.PLP>
-41.5848

> <Gold.PLP.part.hbond>
-3.0000

> <Gold.PLP.part.metal>
0.0000

> <Gold.PLP.part.buried>
-3.3864

> <Gold.PLP.part.nonpolar>
-37.1419

> <Gold.PLP.part.repulsive>
0.3743

> <Gold.PLP.ligand.clash>
0.0000

> <Gold.PLP.ligand.torsion>
1.9511

> <Gold.PLP.Chemscore.Hbond>
4.0000

> <Gold.PLP.Chemscore.CHOScore>
0.0000

> <Gold.PLP.Chemscore.Metal>
0.0000

> <Gold.Chemscore.Hbonds>
donor molecule, donor type, donor heavy atom, donor atom, acceptor molecule, acceptor atom, score
      L1  H     7    39       P1  8028  1.00
      L1  H    18    59       P1  7948  1.98
      L1  H    22    54       P1 10957  0.96

> <Gold.PLP.Chemscore.Internal.Correction>
0.1999

> <Gold.Rescore>
     Score         DG    S(hbond)    S(metal)    S(lipo)     H(rot)  DE(clash)    DE(int)     intcor
     15.91     -17.92       2.86        0.00      98.15       3.35       0.07       1.95       ----

> <Gold.Chemscore.Fitness>
15.9054

> <Gold.Chemscore.DG>
-17.9208

> <Gold.Chemscore.ZeroCoef>
-5.4800

> <Gold.Chemscore.Hbond>
2.8555

> <Gold.Chemscore.Metal>
0.0000

> <Gold.Chemscore.Lipo>
98.1545

> <Gold.Chemscore.Internal_Hbond>
0.0000

> <Gold.Chemscore.DEClash>
0.0686

> <Gold.Chemscore.DEInternal>
1.9468

> <Gold.Chemscore.Rot>
3.3518

> <Gold.Chemscore.Internal.Correction>
   9.000000E+99

> <Gold.Chemscore.Hbonds>
donor molecule, donor type, donor heavy atom, donor atom, acceptor molecule, acceptor atom, score
      L1  H     7    39       P1  8028  0.97
      L1  H    18    59       P1  7948  0.90
      L1  H    22    54       P1 10957  0.88

> <Gold.Chemscore.Hbond.Weighted>
-9.5373

> <Gold.Chemscore.Metal.Weighted>
-0.0000

> <Gold.Chemscore.Lipo.Weighted>
-11.4841

> <Gold.Chemscore.Internal_Hbond.Weighted>
0.0000

> <Gold.Chemscore.DEClash.Weighted>
0.0686

> <Gold.Chemscore.DEInternal.Weighted>
1.9468

> <Gold.Chemscore.Rot.Weighted>
8.5806

> <Gold.Chemscore.Internal.Correction.Weighted>
   9.000000E+99

> <Gold.Protein.RotatedTorsions>
[ 6907 6896 6895 6894 ] final  -16.66 input  -60.11 | X-H torsion
[ 7974 7965 7964 7962 ] final  -36.61 input  175.53 | X-H torsion
[ 8008 7997 7996 7995 ] final  100.59 input   59.86 | X-H torsion
[ 10167 10162 10161 10158 ] final   37.13 input  -65.29 | X-H torsion
[ 10718 10713 10712 10709 ] final -131.11 input   66.30 | X-H torsion
[ 10763 10752 10751 10750 ] final   56.77 input  -60.55 | X-H torsion
[ 11005 11000 10999 10996 ] final   75.57 input  -57.11 | X-H torsion

> <Gold.Protein.ActiveResidues>
 VAL166  LYS551  ARG553  GLY616  TRP617  ASP618  TYR619  PRO620  LYS621  CYS622 
 ASP623  PHE694  ASN695  SER759  ASP760  ASP761  ALA762  ILE779  LEU786  VAL792 
 PHE793  MET794  SER795  GLU796  ALA797  LYS798  CYS799  TRP800  GLU811  SER814 

> <Gold.Protein.RotatedAtoms>
  151.3051  135.0779  159.9252 H   0  0  0  0  0  0  0  0  0  0  0  0  # atno 6907 bound_to 6896
  152.5289  133.9793  159.7809 H   0  0  0  0  0  0  0  0  0  0  0  0  # atno 6908 bound_to 6896
  151.0086  133.5935  159.2716 H   0  0  0  0  0  0  0  0  0  0  0  0  # atno 6909 bound_to 6896
  146.0646  140.6299  142.8981 H   0  0  0  0  0  0  0  0  0  0  0  0  # atno 7974 bound_to 7965
  156.1218  140.3211  155.8219 H   0  0  0  0  0  0  0  0  0  0  0  0  # atno 8008 bound_to 7997
  155.4491  140.0531  157.3020 H   0  0  0  0  0  0  0  0  0  0  0  0  # atno 8009 bound_to 7997
  154.4833  140.2062  155.9727 H   0  0  0  0  0  0  0  0  0  0  0  0  # atno 8010 bound_to 7997
  140.4062  144.1656  150.6136 H   0  0  0  0  0  0  0  0  0  0  0  0  # atno 10167 bound_to 10162
  156.2211  130.6979  151.0757 H   0  0  0  0  0  0  0  0  0  0  0  0  # atno 10718 bound_to 10713
  152.9838  135.5665  154.5282 H   0  0  0  0  0  0  0  0  0  0  0  0  # atno 10763 bound_to 10752
  154.4758  135.2786  155.1610 H   0  0  0  0  0  0  0  0  0  0  0  0  # atno 10764 bound_to 10752
  154.3139  135.6283  153.5531 H   0  0  0  0  0  0  0  0  0  0  0  0  # atno 10765 bound_to 10752
  139.9338  134.7528  156.1287 H   0  0  0  0  0  0  0  0  0  0  0  0  # atno 11005 bound_to 11000
  144.7195  140.4325  143.7019 LP  0  0  0  0  0  0  0  0  0  0  0  0  # atno 17320 bound_to 7965
  145.6499  139.1563  143.2868 LP  0  0  0  0  0  0  0  0  0  0  0  0  # atno 17321 bound_to 7965
  140.4687  143.2421  151.9119 LP  0  0  0  0  0  0  0  0  0  0  0  0  # atno 17342 bound_to 10162
  139.4783  144.5392  151.8553 LP  0  0  0  0  0  0  0  0  0  0  0  0  # atno 17343 bound_to 10162
  157.7088  131.0744  150.6575 LP  0  0  0  0  0  0  0  0  0  0  0  0  # atno 17370 bound_to 10713
  156.6638  130.4520  149.5679 LP  0  0  0  0  0  0  0  0  0  0  0  0  # atno 17371 bound_to 10713
  141.0941  133.6702  156.2605 LP  0  0  0  0  0  0  0  0  0  0  0  0  # atno 17394 bound_to 11000
  140.6131  134.5438  157.5536 LP  0  0  0  0  0  0  0  0  0  0  0  0  # atno 17395 bound_to 11000

$$$$
