AV-unprocessed.smi:72|AV-procd|sdf|746|dock3
  -GOLD-   2262017 83D 1   1.00000     0.00000
 Structure written by MMmdl.
 29 30  0  0  0  0  0  0  0  0  1 V2000
  152.7619  142.2067  159.2459 N   0  0  0  0  0  0  0  0  0  0  0  0
  151.8704  141.7391  158.3035 C   0  0  0  0  0  0  0  0  0  0  0  0
  150.7144  142.5066  158.1043 N   0  0  0  0  0  0  0  0  0  0  0  0
  149.8709  142.0653  157.2258 C   0  0  0  0  0  0  0  0  0  0  0  0
  150.1186  140.8380  156.4908 N   0  0  0  0  0  0  0  0  0  0  0  0
  149.1293  140.3259  155.4632 C   0  0  1  0  0  0  0  0  0  0  0  0
  147.8737  140.2090  156.0644 O   0  0  0  0  0  0  0  0  0  0  0  0
  146.8738  140.6874  155.1728 C   0  0  1  0  0  0  0  0  0  0  0  0
  145.5882  141.0559  155.9341 C   0  0  0  0  0  0  0  0  0  0  0  0
  144.6296  141.5920  155.0472 O   0  0  0  0  0  0  0  0  0  0  0  0
  147.5733  141.8115  154.3942 C   0  0  1  0  0  0  0  0  0  0  0  0
  147.5450  143.0301  155.1187 O   0  0  0  0  0  0  0  0  0  0  0  0
  148.9858  141.2559  154.2379 C   0  0  1  0  0  0  0  0  0  0  0  0
  149.9732  142.2638  154.1044 O   0  0  0  0  0  0  0  0  0  0  0  0
  151.3210  140.1176  156.7316 C   0  0  0  0  0  0  0  0  0  0  0  0
  151.5679  139.0898  156.1007 O   0  0  0  0  0  0  0  0  0  0  0  0
  152.1947  140.6337  157.6964 N   0  0  0  0  0  0  0  0  0  0  0  0
  149.4582  139.3231  155.1878 H   0  0  0  0  0  0  0  0  0  0  0  0
  146.6552  139.8713  154.4812 H   0  0  0  0  0  0  0  0  0  0  0  0
  147.1012  141.9839  153.4264 H   0  0  0  0  0  0  0  0  0  0  0  0
  149.0213  140.6216  153.3513 H   0  0  0  0  0  0  0  0  0  0  0  0
  153.6268  141.7383  159.4734 H   0  0  0  0  0  0  0  0  0  0  0  0
  152.6160  143.0524  159.7777 H   0  0  0  0  0  0  0  0  0  0  0  0
  148.9386  142.5770  156.9838 H   0  0  0  0  0  0  0  0  0  0  0  0
  145.1649  140.1637  156.3963 H   0  0  0  0  0  0  0  0  0  0  0  0
  145.7845  141.7648  156.7388 H   0  0  0  0  0  0  0  0  0  0  0  0
  144.3283  140.9010  154.4771 H   0  0  0  0  0  0  0  0  0  0  0  0
  148.1474  143.6330  154.7100 H   0  0  0  0  0  0  0  0  0  0  0  0
  149.5411  143.0693  153.8636 H   0  0  0  0  0  0  0  0  0  0  0  0
  1  2  1  0  0  0  0
  1 22  1  0  0  0  0
  1 23  1  0  0  0  0
  2 17  2  0  0  0  0
  2  3  1  0  0  0  0
  3  4  2  0  0  0  0
  4  5  1  0  0  0  0
  4 24  1  0  0  0  0
  5  6  1  0  0  0  0
  5 15  1  0  0  0  0
  6 18  1  0  0  0  0
  6 13  1  0  0  0  0
  6  7  1  0  0  0  0
  7  8  1  0  0  0  0
  8 19  1  0  0  0  0
  8  9  1  0  0  0  0
  8 11  1  0  0  0  0
  9 10  1  0  0  0  0
  9 25  1  0  0  0  0
  9 26  1  0  0  0  0
 10 27  1  0  0  0  0
 11 20  1  0  0  0  0
 11 12  1  0  0  0  0
 11 13  1  0  0  0  0
 12 28  1  0  0  0  0
 13 21  1  0  0  0  0
 13 14  1  0  0  0  0
 14 29  1  0  0  0  0
 15 16  2  0  0  0  0
 15 17  1  0  0  0  0
M  END
> <s_m_source_file>
AV-unprocessed.smi

> <i_m_source_file_index>
72

> <i_lp_mmshare_version>
43012

> <i_f3d_flags>
0

> <s_epik_input>
W05IMl1jMW5bY0hdbihjKD1PKW4xKVtDQEBIXTJPW0NASF0oW0NIMl1bT0hdKVtDQEBIXShbT0hdKVtDQEhdMltPSF0=

> <s_epik_cmdline>
J2VwaWtfcHl0aG9uJywgJy1waCcsICc3LjAnLCAnLXRuJywgJzgnLCAnLW1hJywgJzIwMCcsICctbWV0YWxfYmluZGluZycsICctaW1hZScsICc8aW5maWxlLm1hZT4nLCAnLW9tYWUnLCAnPG91dGZpbGUubWFlPic=

> <r_lp_tautomer_probability>
4.77166e-05

> <r_epik_Ionization_Penalty>
1.3546

> <r_epik_Ionization_Penalty_Charging>
1.46833e-10

> <r_epik_Ionization_Penalty_Neutral>
1.3546

> <r_epik_State_Penalty>
3.51908

> <r_epik_Charging_Adjusted_Penalty>
3.51908

> <i_epik_Tot_Q>
0

> <i_epik_Tot_abs_Q>
0

> <r_epik_Metal_State_Penalty>
3.44088

> <b_epik_Metal_Only>
1

> <s_epik_Chemistry_Notes>
This compound contains an acetal/aminal-like group ( X-CH(R)-Y where X, Y are N, S, or O) that may be acid/base labile, releasing an aldehyde.

> <s_lp_Force_Field>
OPLS_2005

> <r_lp_Energy>
35.7585

> <b_lp_Chiralities_Consistent>
1

> <s_lp_Variant>
AV-unprocessed.smi:72-84

> <Gold.Version>
5.8.1

> <Gold.Id.Protein>
6NUR|6NUR_protein|mol2

> <Gold.PLP.Fitness>
34.8297

> <Gold.PLP.PLP>
-20.3069

> <Gold.PLP.part.hbond>
-6.0512

> <Gold.PLP.part.metal>
0.0000

> <Gold.PLP.part.buried>
1.3469

> <Gold.PLP.part.nonpolar>
-15.3683

> <Gold.PLP.part.repulsive>
0.2069

> <Gold.PLP.ligand.clash>
0.0000

> <Gold.PLP.ligand.torsion>
0.0706

> <Gold.PLP.Chemscore.Hbond>
4.8873

> <Gold.PLP.Chemscore.CHOScore>
0.0000

> <Gold.PLP.Chemscore.Metal>
0.0000

> <Gold.Chemscore.Hbonds>
donor molecule, donor type, donor heavy atom, donor atom, acceptor molecule, acceptor atom, score
      L1  H    10    27       P1 10175  0.66
      L1  H    12    28       P1  8028  0.37
      L1  C     4    24       P1  8028  0.86

> <Gold.PLP.Chemscore.Internal.Correction>
0.0023

> <Gold.Rescore>
     Score         DG    S(hbond)    S(metal)    S(lipo)     H(rot)  DE(clash)    DE(int)     intcor
      5.67      -5.92       2.54        0.00      20.03       4.06       0.13       0.12       ----

> <Gold.Chemscore.Fitness>
5.6726

> <Gold.Chemscore.DG>
-5.9193

> <Gold.Chemscore.ZeroCoef>
-5.4800

> <Gold.Chemscore.Hbond>
2.5417

> <Gold.Chemscore.Metal>
0.0000

> <Gold.Chemscore.Lipo>
20.0309

> <Gold.Chemscore.Internal_Hbond>
0.0000

> <Gold.Chemscore.DEClash>
0.1305

> <Gold.Chemscore.DEInternal>
0.1162

> <Gold.Chemscore.Rot>
4.0600

> <Gold.Chemscore.Internal.Correction>
   9.000000E+99

> <Gold.Chemscore.Hbonds>
donor molecule, donor type, donor heavy atom, donor atom, acceptor molecule, acceptor atom, score
      L1  H    10    27       P1 10175  0.62
      L1  H    12    28       P1  8028  0.32
      L1  H    14    29       P1  8028  0.01

> <Gold.Chemscore.Hbond.Weighted>
-8.4893

> <Gold.Chemscore.Metal.Weighted>
-0.0000

> <Gold.Chemscore.Lipo.Weighted>
-2.3436

> <Gold.Chemscore.Internal_Hbond.Weighted>
0.0000

> <Gold.Chemscore.DEClash.Weighted>
0.1305

> <Gold.Chemscore.DEInternal.Weighted>
0.1162

> <Gold.Chemscore.Rot.Weighted>
10.3936

> <Gold.Chemscore.Internal.Correction.Weighted>
   9.000000E+99

> <Gold.Protein.RotatedTorsions>
[ 6907 6896 6895 6894 ] final  -35.18 input  -60.11 | X-H torsion
[ 7974 7965 7964 7962 ] final   39.97 input  175.53 | X-H torsion
[ 8008 7997 7996 7995 ] final   74.47 input   59.86 | X-H torsion
[ 10167 10162 10161 10158 ] final -108.19 input  -65.29 | X-H torsion
[ 10718 10713 10712 10709 ] final -107.23 input   66.30 | X-H torsion
[ 10763 10752 10751 10750 ] final  -45.11 input  -60.55 | X-H torsion
[ 11005 11000 10999 10996 ] final  109.78 input  -57.11 | X-H torsion

> <Gold.Protein.ActiveResidues>
 VAL166  LYS551  ARG553  GLY616  TRP617  ASP618  TYR619  PRO620  LYS621  CYS622 
 ASP623  PHE694  ASN695  SER759  ASP760  ASP761  ALA762  ILE779  LEU786  VAL792 
 PHE793  MET794  SER795  GLU796  ALA797  LYS798  CYS799  TRP800  GLU811  SER814 

> <Gold.Protein.RotatedAtoms>
  151.0431  134.9621  159.8171 H   0  0  0  0  0  0  0  0  0  0  0  0  # atno 6907 bound_to 6896
  152.5367  134.2632  159.8953 H   0  0  0  0  0  0  0  0  0  0  0  0  # atno 6908 bound_to 6896
  151.2645  133.4243  159.2652 H   0  0  0  0  0  0  0  0  0  0  0  0  # atno 6909 bound_to 6896
  146.0942  139.5588  142.9456 H   0  0  0  0  0  0  0  0  0  0  0  0  # atno 7974 bound_to 7965
  155.7989  140.3477  155.5391 H   0  0  0  0  0  0  0  0  0  0  0  0  # atno 8008 bound_to 7997
  155.8558  140.0963  157.1666 H   0  0  0  0  0  0  0  0  0  0  0  0  # atno 8009 bound_to 7997
  154.4009  140.1368  156.3888 H   0  0  0  0  0  0  0  0  0  0  0  0  # atno 8010 bound_to 7997
  140.1688  143.4059  152.1370 H   0  0  0  0  0  0  0  0  0  0  0  0  # atno 10167 bound_to 10162
  156.0427  130.5652  150.7793 H   0  0  0  0  0  0  0  0  0  0  0  0  # atno 10718 bound_to 10713
  154.0231  135.6666  153.4774 H   0  0  0  0  0  0  0  0  0  0  0  0  # atno 10763 bound_to 10752
  153.0572  135.5049  154.8004 H   0  0  0  0  0  0  0  0  0  0  0  0  # atno 10764 bound_to 10752
  154.6925  135.3064  154.9424 H   0  0  0  0  0  0  0  0  0  0  0  0  # atno 10765 bound_to 10752
  139.8869  134.9467  156.6178 H   0  0  0  0  0  0  0  0  0  0  0  0  # atno 11005 bound_to 11000
  145.5980  141.0359  143.2034 LP  0  0  0  0  0  0  0  0  0  0  0  0  # atno 17320 bound_to 7965
  144.7383  139.7522  143.7321 LP  0  0  0  0  0  0  0  0  0  0  0  0  # atno 17321 bound_to 7965
  139.5347  144.7197  151.4934 LP  0  0  0  0  0  0  0  0  0  0  0  0  # atno 17342 bound_to 10162
  140.6595  143.8528  150.6872 LP  0  0  0  0  0  0  0  0  0  0  0  0  # atno 17343 bound_to 10162
  157.5265  131.0934  151.0011 LP  0  0  0  0  0  0  0  0  0  0  0  0  # atno 17370 bound_to 10713
  157.0328  130.5718  149.5345 LP  0  0  0  0  0  0  0  0  0  0  0  0  # atno 17371 bound_to 10713
  140.7762  133.8697  155.8531 LP  0  0  0  0  0  0  0  0  0  0  0  0  # atno 17394 bound_to 11000
  140.9800  134.1419  157.4503 LP  0  0  0  0  0  0  0  0  0  0  0  0  # atno 17395 bound_to 11000

$$$$
