AV-unprocessed.smi:1843|AV-procd|sdf|7501|dock7
  -GOLD-   22720 9203D 1   1.00000     0.00000
 Structure written by MMmdl.
 37 39  0  0  0  0  0  0  0  0  1 V2000
  144.6989  136.2887  153.6654 O   0  0  0  0  0  0  0  0  0  0  0  0
  145.8047  136.2372  153.1266 C   0  0  0  0  0  0  0  0  0  0  0  0
  146.7046  137.2361  153.1013 N   0  0  0  0  0  0  0  0  0  0  0  0
  146.5987  138.5303  153.6763 C   0  0  0  0  0  0  0  0  0  0  0  0
  146.1420  138.7595  154.9152 N   0  0  0  0  0  0  0  0  0  0  0  0
  146.1411  140.1123  155.2249 N   0  0  0  0  0  0  0  0  0  0  0  0
  146.5975  140.8649  154.2167 C   0  0  0  0  0  0  0  0  0  0  0  0
  146.6884  142.3516  154.3116 C   0  0  0  0  0  0  0  0  0  0  0  0
  145.5563  143.1809  154.8776 C   0  0  0  0  0  0  0  0  0  0  0  0
  145.8658  143.2361  153.4032 C   0  0  0  0  0  0  0  0  0  0  0  0
  147.0737  139.9633  152.7811 S   0  0  0  0  0  0  0  0  0  0  0  0
  146.2631  135.1548  152.4811 N   0  0  0  0  0  0  0  0  0  0  0  0
  145.5422  133.8919  152.3326 C   0  0  1  0  0  0  0  0  0  0  0  0
  144.3390  134.0259  151.3756 C   0  0  0  0  0  0  0  0  0  0  0  0
  143.5870  132.6906  151.2484 C   0  0  0  0  0  0  0  0  0  0  0  0
  144.5247  131.5554  150.8057 C   0  0  0  0  0  0  0  0  0  0  0  0
  145.7418  131.4282  151.7412 C   0  0  0  0  0  0  0  0  0  0  0  0
  146.5000  132.7615  151.8928 C   0  0  1  0  0  0  0  0  0  0  0  0
  147.1275  133.0746  150.6623 O   0  0  0  0  0  0  0  0  0  0  0  0
  147.5685  137.0488  152.6142 H   0  0  0  0  0  0  0  0  0  0  0  0
  147.7075  142.6604  154.5362 H   0  0  0  0  0  0  0  0  0  0  0  0
  144.6413  142.6716  155.1733 H   0  0  0  0  0  0  0  0  0  0  0  0
  145.8220  144.0472  155.4795 H   0  0  0  0  0  0  0  0  0  0  0  0
  146.3373  144.1390  153.0211 H   0  0  0  0  0  0  0  0  0  0  0  0
  145.1656  142.7520  152.7250 H   0  0  0  0  0  0  0  0  0  0  0  0
  147.1813  135.2038  152.0653 H   0  0  0  0  0  0  0  0  0  0  0  0
  145.1547  133.6123  153.3147 H   0  0  0  0  0  0  0  0  0  0  0  0
  143.6534  134.7929  151.7371 H   0  0  0  0  0  0  0  0  0  0  0  0
  144.6756  134.3537  150.3912 H   0  0  0  0  0  0  0  0  0  0  0  0
  143.1352  132.4357  152.2079 H   0  0  0  0  0  0  0  0  0  0  0  0
  142.7657  132.7920  150.5385 H   0  0  0  0  0  0  0  0  0  0  0  0
  143.9779  130.6122  150.7809 H   0  0  0  0  0  0  0  0  0  0  0  0
  144.8625  131.7395  149.7852 H   0  0  0  0  0  0  0  0  0  0  0  0
  145.4004  131.0992  152.7235 H   0  0  0  0  0  0  0  0  0  0  0  0
  146.4137  130.6499  151.3777 H   0  0  0  0  0  0  0  0  0  0  0  0
  147.2863  132.6403  152.6390 H   0  0  0  0  0  0  0  0  0  0  0  0
  147.7390  132.3861  150.4529 H   0  0  0  0  0  0  0  0  0  0  0  0
  1  2  2  0  0  0  0
  2  3  1  0  0  0  0
  2 12  1  0  0  0  0
  3  4  1  0  0  0  0
  3 20  1  0  0  0  0
  4 11  1  0  0  0  0
  4  5  2  0  0  0  0
  5  6  1  0  0  0  0
  6  7  2  0  0  0  0
  7  8  1  0  0  0  0
  7 11  1  0  0  0  0
  8 10  1  0  0  0  0
  8  9  1  0  0  0  0
  8 21  1  0  0  0  0
  9 10  1  0  0  0  0
  9 22  1  0  0  0  0
  9 23  1  0  0  0  0
 10 24  1  0  0  0  0
 10 25  1  0  0  0  0
 12 13  1  0  0  0  0
 12 26  1  0  0  0  0
 13 18  1  0  0  0  0
 13 14  1  0  0  0  0
 13 27  1  0  0  0  0
 14 15  1  0  0  0  0
 14 28  1  0  0  0  0
 14 29  1  0  0  0  0
 15 16  1  0  0  0  0
 15 30  1  0  0  0  0
 15 31  1  0  0  0  0
 16 17  1  0  0  0  0
 16 32  1  0  0  0  0
 16 33  1  0  0  0  0
 17 18  1  0  0  0  0
 17 34  1  0  0  0  0
 17 35  1  0  0  0  0
 18 19  1  0  0  0  0
 18 36  1  0  0  0  0
 19 37  1  0  0  0  0
M  END
> <s_m_source_file>
AV-unprocessed.smi

> <i_m_source_file_index>
1843

> <i_lp_mmshare_version>
43012

> <i_f3d_flags>
0

> <s_epik_input>
W09IXVtDQEBIXTFbQ0gyXVtDSDJdW0NIMl1bQ0gyXVtDQEhdMVtOSF1DKD1PKVtOSF1jMm5uYyhzMilbQ0hdM1tDSDJdW0NIMl0z

> <s_epik_cmdline>
J2VwaWtfcHl0aG9uJywgJy1waCcsICc3LjAnLCAnLXRuJywgJzgnLCAnLW1hJywgJzIwMCcsICctbWV0YWxfYmluZGluZycsICctaW1hZScsICc8aW5maWxlLm1hZT4nLCAnLW9tYWUnLCAnPG91dGZpbGUubWFlPic=

> <r_lp_tautomer_probability>
1

> <r_epik_Ionization_Penalty>
0.000257313

> <r_epik_Ionization_Penalty_Charging>
0

> <r_epik_Ionization_Penalty_Neutral>
0.000257313

> <r_epik_State_Penalty>
-0

> <r_epik_Charging_Adjusted_Penalty>
0

> <i_epik_Tot_Q>
0

> <i_epik_Tot_abs_Q>
0

> <r_epik_Metal_State_Penalty>
0.147479

> <b_epik_Metal_Only>
0

> <s_lp_Force_Field>
OPLS_2005

> <r_lp_Energy>
11.0621

> <b_lp_Chiralities_Consistent>
1

> <s_lp_Variant>
AV-unprocessed.smi:1843-2

> <Gold.Version>
5.8.1

> <Gold.Id.Protein>
6NUR|6NUR_protein|mol2

> <Gold.PLP.Fitness>
39.6113

> <Gold.PLP.PLP>
-31.9265

> <Gold.PLP.part.hbond>
-3.0314

> <Gold.PLP.part.metal>
0.0000

> <Gold.PLP.part.buried>
-3.7034

> <Gold.PLP.part.nonpolar>
-25.0920

> <Gold.PLP.part.repulsive>
0.2003

> <Gold.PLP.ligand.clash>
0.0000

> <Gold.PLP.ligand.torsion>
0.7165

> <Gold.PLP.Chemscore.Hbond>
2.9920

> <Gold.PLP.Chemscore.CHOScore>
0.0000

> <Gold.PLP.Chemscore.Metal>
0.0000

> <Gold.Chemscore.Hbonds>
donor molecule, donor type, donor heavy atom, donor atom, acceptor molecule, acceptor atom, score
      L1  H     3    20       P1  7948  1.00
      L1  H    12    26       P1  7948  0.99
      L1  H    19    37       P1 10747  1.00

> <Gold.PLP.Chemscore.Internal.Correction>
0.1419

> <Gold.Rescore>
     Score         DG    S(hbond)    S(metal)    S(lipo)     H(rot)  DE(clash)    DE(int)     intcor
     18.59     -19.35       2.94        0.00      72.74       1.74       0.10       0.67       ----

> <Gold.Chemscore.Fitness>
18.5911

> <Gold.Chemscore.DG>
-19.3522

> <Gold.Chemscore.ZeroCoef>
-5.4800

> <Gold.Chemscore.Hbond>
2.9392

> <Gold.Chemscore.Metal>
0.0000

> <Gold.Chemscore.Lipo>
72.7412

> <Gold.Chemscore.Internal_Hbond>
0.0000

> <Gold.Chemscore.DEClash>
0.0959

> <Gold.Chemscore.DEInternal>
0.6651

> <Gold.Chemscore.Rot>
1.7404

> <Gold.Chemscore.Internal.Correction>
   9.000000E+99

> <Gold.Chemscore.Hbonds>
donor molecule, donor type, donor heavy atom, donor atom, acceptor molecule, acceptor atom, score
      L1  H     3    20       P1  7948  1.00
      L1  H    12    26       P1  7948  0.88
      L1  H    19    37       P1 10747  0.98

> <Gold.Chemscore.Hbond.Weighted>
-9.8169

> <Gold.Chemscore.Metal.Weighted>
-0.0000

> <Gold.Chemscore.Lipo.Weighted>
-8.5107

> <Gold.Chemscore.Internal_Hbond.Weighted>
0.0000

> <Gold.Chemscore.DEClash.Weighted>
0.0959

> <Gold.Chemscore.DEInternal.Weighted>
0.6651

> <Gold.Chemscore.Rot.Weighted>
4.4555

> <Gold.Chemscore.Internal.Correction.Weighted>
   9.000000E+99

> <Gold.Protein.RotatedTorsions>
[ 6907 6896 6895 6894 ] final  -13.27 input  -60.11 | X-H torsion
[ 7974 7965 7964 7962 ] final  -21.38 input  175.53 | X-H torsion
[ 8008 7997 7996 7995 ] final   60.74 input   59.86 | X-H torsion
[ 10167 10162 10161 10158 ] final   18.75 input  -65.29 | X-H torsion
[ 10718 10713 10712 10709 ] final  -94.39 input   66.30 | X-H torsion
[ 10763 10752 10751 10750 ] final  -96.34 input  -60.55 | X-H torsion
[ 11005 11000 10999 10996 ] final -138.09 input  -57.11 | X-H torsion

> <Gold.Protein.ActiveResidues>
 VAL166  LYS551  ARG553  GLY616  TRP617  ASP618  TYR619  PRO620  LYS621  CYS622 
 ASP623  PHE694  ASN695  SER759  ASP760  ASP761  ALA762  ILE779  LEU786  VAL792 
 PHE793  MET794  SER795  GLU796  ALA797  LYS798  CYS799  TRP800  GLU811  SER814 

> <Gold.Protein.RotatedAtoms>
  151.3576  135.0897  159.9423 H   0  0  0  0  0  0  0  0  0  0  0  0  # atno 6907 bound_to 6896
  152.5170  133.9291  159.7582 H   0  0  0  0  0  0  0  0  0  0  0  0  # atno 6908 bound_to 6896
  150.9678  133.6322  159.2772 H   0  0  0  0  0  0  0  0  0  0  0  0  # atno 6909 bound_to 6896
  146.1736  140.4333  142.8522 H   0  0  0  0  0  0  0  0  0  0  0  0  # atno 7974 bound_to 7965
  155.5871  140.3492  155.4556 H   0  0  0  0  0  0  0  0  0  0  0  0  # atno 8008 bound_to 7997
  156.0329  140.1278  157.0263 H   0  0  0  0  0  0  0  0  0  0  0  0  # atno 8009 bound_to 7997
  154.4360  140.1039  156.6112 H   0  0  0  0  0  0  0  0  0  0  0  0  # atno 8010 bound_to 7997
  140.5630  143.9303  150.6656 H   0  0  0  0  0  0  0  0  0  0  0  0  # atno 10167 bound_to 10162
  156.0026  130.5066  150.5920 H   0  0  0  0  0  0  0  0  0  0  0  0  # atno 10718 bound_to 10713
  154.7231  135.5087  153.8843 H   0  0  0  0  0  0  0  0  0  0  0  0  # atno 10763 bound_to 10752
  153.0880  135.6651  153.9919 H   0  0  0  0  0  0  0  0  0  0  0  0  # atno 10764 bound_to 10752
  153.9738  135.3035  155.3405 H   0  0  0  0  0  0  0  0  0  0  0  0  # atno 10765 bound_to 10752
  140.8649  134.2122  157.4685 H   0  0  0  0  0  0  0  0  0  0  0  0  # atno 11005 bound_to 11000
  144.8201  140.6535  143.6358 LP  0  0  0  0  0  0  0  0  0  0  0  0  # atno 17320 bound_to 7965
  145.4273  139.1554  143.4041 LP  0  0  0  0  0  0  0  0  0  0  0  0  # atno 17321 bound_to 7965
  140.2758  143.3424  152.1196 LP  0  0  0  0  0  0  0  0  0  0  0  0  # atno 17342 bound_to 10162
  139.5079  144.6840  151.5934 LP  0  0  0  0  0  0  0  0  0  0  0  0  # atno 17343 bound_to 10162
  157.3783  131.0777  151.1499 LP  0  0  0  0  0  0  0  0  0  0  0  0  # atno 17370 bound_to 10713
  157.2230  130.6490  149.5818 LP  0  0  0  0  0  0  0  0  0  0  0  0  # atno 17371 bound_to 10713
  139.8709  134.9747  156.4856 LP  0  0  0  0  0  0  0  0  0  0  0  0  # atno 17394 bound_to 11000
  140.8640  133.8038  155.9294 LP  0  0  0  0  0  0  0  0  0  0  0  0  # atno 17395 bound_to 11000

$$$$
