AV-unprocessed.smi:1032|AV-procd|sdf|4487|dock2
  -GOLD-   22720 2463D 1   1.00000     0.00000
 Structure written by MMmdl.
 47 48  0  0  0  0  0  0  0  0  3 V2000
  151.3743  141.4303  158.5463 C   0  0  0  0  0  0  0  0  0  0  0  0
  150.3442  141.1052  157.4558 C   0  0  2  0  0  0  0  0  0  0  0  0
  150.8782  141.4337  156.0517 C   0  0  0  0  0  0  0  0  0  0  0  0
  149.8279  141.1322  154.9694 C   0  0  0  0  0  0  0  0  0  0  0  0
  148.5643  141.8697  155.2272 N   0  3  1  0  0  0  0  0  0  0  0  0
  147.5792  141.7065  154.1267 C   0  0  0  0  0  0  0  0  0  0  0  0
  147.1514  140.2374  153.9318 C   0  0  1  0  0  0  0  0  0  0  0  0
  145.8446  140.1059  154.4571 O   0  0  0  0  0  0  0  0  0  0  0  0
  147.1255  139.8463  152.4406 C   0  0  0  0  0  0  0  0  0  0  0  0
  147.1882  138.3992  152.2607 N   0  0  0  0  0  0  0  0  0  0  0  0
  146.1257  137.5821  152.2392 C   0  0  0  0  0  0  0  0  0  0  0  0
  144.9647  137.9788  152.3348 O   0  0  0  0  0  0  0  0  0  0  0  0
  146.4996  136.2997  152.0882 N   0  0  0  0  0  0  0  0  0  0  0  0
  145.6883  135.1319  152.0654 C   0  0  0  0  0  0  0  0  0  0  0  0
  144.3114  135.2912  152.3380 C   0  0  0  0  0  0  0  0  0  0  0  0
  143.4610  134.1671  152.3104 C   0  0  0  0  0  0  0  0  0  0  0  0
  143.9656  132.9497  152.0176 N   0  3  0  0  0  0  0  0  0  0  0  0
  145.2711  132.7488  151.7379 C   0  0  0  0  0  0  0  0  0  0  0  0
  146.1693  133.8354  151.7485 C   0  0  0  0  0  0  0  0  0  0  0  0
  148.0070  141.5434  156.5669 C   0  0  0  0  0  0  0  0  0  0  0  0
  149.0203  141.8543  157.6808 C   0  0  0  0  0  0  0  0  0  0  0  0
  151.6214  142.4923  158.5559 H   0  0  0  0  0  0  0  0  0  0  0  0
  152.2993  140.8745  158.3907 H   0  0  0  0  0  0  0  0  0  0  0  0
  150.9957  141.1675  159.5346 H   0  0  0  0  0  0  0  0  0  0  0  0
  150.1411  140.0341  157.5007 H   0  0  0  0  0  0  0  0  0  0  0  0
  151.1617  142.4860  155.9999 H   0  0  0  0  0  0  0  0  0  0  0  0
  151.7843  140.8601  155.8529 H   0  0  0  0  0  0  0  0  0  0  0  0
  150.2295  141.4178  153.9963 H   0  0  0  0  0  0  0  0  0  0  0  0
  149.6243  140.0610  154.9278 H   0  0  0  0  0  0  0  0  0  0  0  0
  146.6881  142.3027  154.3310 H   0  0  0  0  0  0  0  0  0  0  0  0
  148.0055  142.1098  153.2067 H   0  0  0  0  0  0  0  0  0  0  0  0
  147.8235  139.5698  154.4709 H   0  0  0  0  0  0  0  0  0  0  0  0
  145.2213  140.3100  153.7759 H   0  0  0  0  0  0  0  0  0  0  0  0
  146.2672  140.2826  151.9260 H   0  0  0  0  0  0  0  0  0  0  0  0
  148.0087  140.2502  151.9449 H   0  0  0  0  0  0  0  0  0  0  0  0
  148.1069  137.9919  152.1631 H   0  0  0  0  0  0  0  0  0  0  0  0
  147.4854  136.1427  151.9379 H   0  0  0  0  0  0  0  0  0  0  0  0
  143.9063  136.2655  152.5710 H   0  0  0  0  0  0  0  0  0  0  0  0
  142.4001  134.2058  152.5101 H   0  0  0  0  0  0  0  0  0  0  0  0
  145.5560  131.7323  151.5091 H   0  0  0  0  0  0  0  0  0  0  0  0
  147.2033  133.6513  151.5013 H   0  0  0  0  0  0  0  0  0  0  0  0
  147.0968  142.1125  156.7502 H   0  0  0  0  0  0  0  0  0  0  0  0
  147.7289  140.4887  156.5996 H   0  0  0  0  0  0  0  0  0  0  0  0
  148.5964  141.5808  158.6476 H   0  0  0  0  0  0  0  0  0  0  0  0
  149.2028  142.9295  157.7172 H   0  0  0  0  0  0  0  0  0  0  0  0
  148.8104  142.8497  155.2390 H   0  0  0  0  0  0  0  0  0  0  0  0
  143.3339  132.1485  152.0026 H   0  0  0  0  0  0  0  0  0  0  0  0
  1  2  1  0  0  0  0
  1 22  1  0  0  0  0
  1 23  1  0  0  0  0
  1 24  1  0  0  0  0
  2 21  1  0  0  0  0
  2  3  1  0  0  0  0
  2 25  1  0  0  0  0
  3  4  1  0  0  0  0
  3 26  1  0  0  0  0
  3 27  1  0  0  0  0
  4  5  1  0  0  0  0
  4 28  1  0  0  0  0
  4 29  1  0  0  0  0
  5  6  1  0  0  0  0
  5 20  1  0  0  0  0
  5 46  1  0  0  0  0
  6  7  1  0  0  0  0
  6 30  1  0  0  0  0
  6 31  1  0  0  0  0
  7  8  1  0  0  0  0
  7  9  1  0  0  0  0
  7 32  1  0  0  0  0
  8 33  1  0  0  0  0
  9 10  1  0  0  0  0
  9 34  1  0  0  0  0
  9 35  1  0  0  0  0
 10 11  1  0  0  0  0
 10 36  1  0  0  0  0
 11 12  2  0  0  0  0
 11 13  1  0  0  0  0
 13 14  1  0  0  0  0
 13 37  1  0  0  0  0
 14 19  1  0  0  0  0
 14 15  2  0  0  0  0
 15 16  1  0  0  0  0
 15 38  1  0  0  0  0
 16 17  2  0  0  0  0
 16 39  1  0  0  0  0
 17 18  1  0  0  0  0
 17 47  1  0  0  0  0
 18 19  2  0  0  0  0
 18 40  1  0  0  0  0
 19 41  1  0  0  0  0
 20 21  1  0  0  0  0
 20 42  1  0  0  0  0
 20 43  1  0  0  0  0
 21 44  1  0  0  0  0
 21 45  1  0  0  0  0
M  CHG  1   5   1
M  CHG  1  17   1
M  END
> <s_m_source_file>
AV-unprocessed.smi

> <i_m_source_file_index>
1032

> <i_lp_mmshare_version>
43012

> <i_f3d_flags>
0

> <s_epik_input>
W0NIM11bQ0hdMVtDSDJdW0NIMl1OKFtDSDJdW0NIMl0xKVtDSDJdW0NASF0oW09IXSlbQ0gyXVtOSF1DKD1PKVtOSF1jMltjSF1bY0hdbltjSF1bY0hdMg==

> <s_epik_cmdline>
J2VwaWtfcHl0aG9uJywgJy1waCcsICc3LjAnLCAnLXRuJywgJzgnLCAnLW1hJywgJzIwMCcsICctbWV0YWxfYmluZGluZycsICctaW1hZScsICc8aW5maWxlLm1hZT4nLCAnLW9tYWUnLCAnPG91dGZpbGUubWFlPic=

> <r_epik_Ionization_Penalty>
1.02509

> <r_epik_Ionization_Penalty_Charging>
1.02507

> <r_epik_Ionization_Penalty_Neutral>
1.85474e-05

> <r_epik_State_Penalty>
1.07411

> <r_epik_Charging_Adjusted_Penalty>
2.09917

> <i_epik_Tot_Q>
2

> <i_epik_Tot_abs_Q>
2

> <r_epik_Metal_State_Penalty>
1.1725

> <b_epik_Metal_Only>
0

> <s_lp_Force_Field>
OPLS_2005

> <r_lp_Energy>
29.9623

> <b_lp_Chiralities_Consistent>
1

> <s_lp_Variant>
AV-unprocessed.smi:1032-6

> <Gold.Version>
5.8.1

> <Gold.Id.Protein>
6NUR|6NUR_protein|mol2

> <Gold.PLP.Fitness>
44.4462

> <Gold.PLP.PLP>
-31.8584

> <Gold.PLP.part.hbond>
-4.9621

> <Gold.PLP.part.metal>
0.0000

> <Gold.PLP.part.buried>
-4.3421

> <Gold.PLP.part.nonpolar>
-27.8667

> <Gold.PLP.part.repulsive>
5.2702

> <Gold.PLP.ligand.clash>
0.0000

> <Gold.PLP.ligand.torsion>
1.0475

> <Gold.PLP.Chemscore.Hbond>
4.8800

> <Gold.PLP.Chemscore.CHOScore>
0.0000

> <Gold.PLP.Chemscore.Metal>
0.0000

> <Gold.Chemscore.Hbonds>
donor molecule, donor type, donor heavy atom, donor atom, acceptor molecule, acceptor atom, score
      L1  H     5    46       P1  8028  2.00
      L1  H     8    33       P1 10175  1.00
      L1  H    10    36       P1  7948  0.82
      L1  H    13    37       P1  7948  0.80

> <Gold.PLP.Chemscore.Internal.Correction>
0.0428

> <Gold.Rescore>
     Score         DG    S(hbond)    S(metal)    S(lipo)     H(rot)  DE(clash)    DE(int)     intcor
     17.62     -21.01       3.85        0.00      74.03       2.34       0.95       2.44       ----

> <Gold.Chemscore.Fitness>
17.6249

> <Gold.Chemscore.DG>
-21.0131

> <Gold.Chemscore.ZeroCoef>
-5.4800

> <Gold.Chemscore.Hbond>
3.8503

> <Gold.Chemscore.Metal>
0.0000

> <Gold.Chemscore.Lipo>
74.0307

> <Gold.Chemscore.Internal_Hbond>
0.0000

> <Gold.Chemscore.DEClash>
0.9495

> <Gold.Chemscore.DEInternal>
2.4387

> <Gold.Chemscore.Rot>
2.3393

> <Gold.Chemscore.Internal.Correction>
   9.000000E+99

> <Gold.Chemscore.Hbonds>
donor molecule, donor type, donor heavy atom, donor atom, acceptor molecule, acceptor atom, score
      L1  H     5    46       P1  8028  1.00
      L1  H     8    33       P1 10175  0.94
      L1  H    10    36       P1  7948  0.81
      L1  H    13    37       P1  7948  0.79

> <Gold.Chemscore.Hbond.Weighted>
-12.8602

> <Gold.Chemscore.Metal.Weighted>
-0.0000

> <Gold.Chemscore.Lipo.Weighted>
-8.6616

> <Gold.Chemscore.Internal_Hbond.Weighted>
0.0000

> <Gold.Chemscore.DEClash.Weighted>
0.9495

> <Gold.Chemscore.DEInternal.Weighted>
2.4387

> <Gold.Chemscore.Rot.Weighted>
5.9886

> <Gold.Chemscore.Internal.Correction.Weighted>
   9.000000E+99

> <Gold.Protein.RotatedTorsions>
[ 6907 6896 6895 6894 ] final   60.02 input  -60.11 | X-H torsion
[ 7974 7965 7964 7962 ] final  -43.88 input  175.53 | X-H torsion
[ 8008 7997 7996 7995 ] final  163.83 input   59.86 | X-H torsion
[ 10167 10162 10161 10158 ] final -151.37 input  -65.29 | X-H torsion
[ 10718 10713 10712 10709 ] final  154.82 input   66.30 | X-H torsion
[ 10763 10752 10751 10750 ] final -101.88 input  -60.55 | X-H torsion
[ 11005 11000 10999 10996 ] final   38.41 input  -57.11 | X-H torsion

> <Gold.Protein.ActiveResidues>
 VAL166  LYS551  ARG553  GLY616  TRP617  ASP618  TYR619  PRO620  LYS621  CYS622 
 ASP623  PHE694  ASN695  SER759  ASP760  ASP761  ALA762  ILE779  LEU786  VAL792 
 PHE793  MET794  SER795  GLU796  ALA797  LYS798  CYS799  TRP800  GLU811  SER814 

> <Gold.Protein.RotatedAtoms>
  152.3966  134.6354  160.0086 H   0  0  0  0  0  0  0  0  0  0  0  0  # atno 6907 bound_to 6896
  151.6572  133.3313  159.3173 H   0  0  0  0  0  0  0  0  0  0  0  0  # atno 6908 bound_to 6896
  150.7873  134.6912  159.6542 H   0  0  0  0  0  0  0  0  0  0  0  0  # atno 6909 bound_to 6896
  145.9976  140.7111  142.9286 H   0  0  0  0  0  0  0  0  0  0  0  0  # atno 7974 bound_to 7965
  156.1927  140.1713  156.8060 H   0  0  0  0  0  0  0  0  0  0  0  0  # atno 8008 bound_to 7997
  154.5491  140.0721  156.8669 H   0  0  0  0  0  0  0  0  0  0  0  0  # atno 8009 bound_to 7997
  155.3064  140.3365  155.4248 H   0  0  0  0  0  0  0  0  0  0  0  0  # atno 8010 bound_to 7997
  139.7273  143.8863  152.2523 H   0  0  0  0  0  0  0  0  0  0  0  0  # atno 10167 bound_to 10162
  157.2265  131.0730  151.1880 H   0  0  0  0  0  0  0  0  0  0  0  0  # atno 10718 bound_to 10713
  154.7691  135.4881  153.9614 H   0  0  0  0  0  0  0  0  0  0  0  0  # atno 10763 bound_to 10752
  153.1345  135.6760  153.9132 H   0  0  0  0  0  0  0  0  0  0  0  0  # atno 10764 bound_to 10752
  153.8825  135.3130  155.3424 H   0  0  0  0  0  0  0  0  0  0  0  0  # atno 10765 bound_to 10752
  140.2129  134.3734  155.8040 H   0  0  0  0  0  0  0  0  0  0  0  0  # atno 11005 bound_to 11000
  144.6909  140.3177  143.7237 LP  0  0  0  0  0  0  0  0  0  0  0  0  # atno 17320 bound_to 7965
  145.7536  139.1802  143.2307 LP  0  0  0  0  0  0  0  0  0  0  0  0  # atno 17321 bound_to 7965
  139.8776  144.7035  150.8914 LP  0  0  0  0  0  0  0  0  0  0  0  0  # atno 17342 bound_to 10162
  140.7765  143.3687  151.1690 LP  0  0  0  0  0  0  0  0  0  0  0  0  # atno 17343 bound_to 10162
  157.3522  130.7088  149.6448 LP  0  0  0  0  0  0  0  0  0  0  0  0  # atno 17370 bound_to 10713
  155.9678  130.4249  150.4630 LP  0  0  0  0  0  0  0  0  0  0  0  0  # atno 17371 bound_to 10713
  141.2226  133.7152  156.8448 LP  0  0  0  0  0  0  0  0  0  0  0  0  # atno 17394 bound_to 11000
  140.1932  134.8951  157.3084 LP  0  0  0  0  0  0  0  0  0  0  0  0  # atno 17395 bound_to 11000

$$$$
