AV-unprocessed.smi:2340|AV-procd|sdf|9347|dock6
  -GOLD-   2272012563D 1   1.00000     0.00000
 Structure written by MMmdl.
 40 41  0  0  0  0  0  0  0  0  1 V2000
  153.7985  141.9193  161.1627 C   0  0  0  0  0  0  0  0  0  0  0  0
  152.7926  142.5675  160.2653 C   0  0  0  0  0  0  0  0  0  0  0  0
  152.2438  143.8177  160.4043 C   0  0  0  0  0  0  0  0  0  0  0  0
  151.0949  144.1661  159.1420 S   0  0  0  0  0  0  0  0  0  0  0  0
  151.4082  142.5744  158.4582 C   0  0  0  0  0  0  0  0  0  0  0  0
  150.6991  142.0470  157.2475 C   0  0  1  0  0  0  0  0  0  0  0  0
  151.4934  140.9282  156.5582 C   0  0  0  0  0  0  0  0  0  0  0  0
  149.2300  141.6588  157.5225 C   0  0  0  0  0  0  0  0  0  0  0  0
  148.3973  142.8210  157.8292 N   0  0  0  0  0  0  0  0  0  0  0  0
  147.5409  142.9171  158.8567 C   0  0  0  0  0  0  0  0  0  0  0  0
  147.3129  142.0093  159.6559 O   0  0  0  0  0  0  0  0  0  0  0  0
  146.9708  144.1285  158.9143 N   0  0  0  0  0  0  0  0  0  0  0  0
  146.0273  144.5703  159.9419 C   0  0  1  0  0  0  0  0  0  0  0  0
  144.8813  143.5696  160.0829 C   0  0  0  0  0  0  0  0  0  0  0  0
  144.7935  143.3124  161.5834 C   0  0  0  0  0  0  0  0  0  0  0  0
  146.1289  143.4870  162.0223 O   0  0  0  0  0  0  0  0  0  0  0  0
  146.6388  144.6356  161.3609 C   0  0  1  0  0  0  0  0  0  0  0  0
  148.1713  144.6738  161.4758 C   0  0  0  0  0  0  0  0  0  0  0  0
  152.3150  141.8767  159.1488 N   0  0  0  0  0  0  0  0  0  0  0  0
  154.0873  142.5787  161.9815 H   0  0  0  0  0  0  0  0  0  0  0  0
  154.7037  141.6568  160.6151 H   0  0  0  0  0  0  0  0  0  0  0  0
  153.3993  141.0048  161.6021 H   0  0  0  0  0  0  0  0  0  0  0  0
  152.4404  144.5506  161.1725 H   0  0  0  0  0  0  0  0  0  0  0  0
  150.6677  142.8731  156.5357 H   0  0  0  0  0  0  0  0  0  0  0  0
  152.4946  141.2661  156.2885 H   0  0  0  0  0  0  0  0  0  0  0  0
  150.9977  140.6012  155.6438 H   0  0  0  0  0  0  0  0  0  0  0  0
  151.5984  140.0586  157.2076 H   0  0  0  0  0  0  0  0  0  0  0  0
  148.8088  141.1652  156.6463 H   0  0  0  0  0  0  0  0  0  0  0  0
  149.1831  140.9281  158.3318 H   0  0  0  0  0  0  0  0  0  0  0  0
  148.5062  143.6250  157.2287 H   0  0  0  0  0  0  0  0  0  0  0  0
  147.2186  144.8046  158.2070 H   0  0  0  0  0  0  0  0  0  0  0  0
  145.6205  145.5497  159.6833 H   0  0  0  0  0  0  0  0  0  0  0  0
  143.9427  143.9438  159.6732 H   0  0  0  0  0  0  0  0  0  0  0  0
  145.1135  142.6339  159.5719 H   0  0  0  0  0  0  0  0  0  0  0  0
  144.1505  144.0484  162.0685 H   0  0  0  0  0  0  0  0  0  0  0  0
  144.4167  142.3171  161.8197 H   0  0  0  0  0  0  0  0  0  0  0  0
  146.2312  145.5105  161.8708 H   0  0  0  0  0  0  0  0  0  0  0  0
  148.5825  145.5430  160.9621 H   0  0  0  0  0  0  0  0  0  0  0  0
  148.6292  143.7796  161.0520 H   0  0  0  0  0  0  0  0  0  0  0  0
  148.4770  144.7330  162.5204 H   0  0  0  0  0  0  0  0  0  0  0  0
  1  2  1  0  0  0  0
  1 20  1  0  0  0  0
  1 21  1  0  0  0  0
  1 22  1  0  0  0  0
  2 19  1  0  0  0  0
  2  3  2  0  0  0  0
  3  4  1  0  0  0  0
  3 23  1  0  0  0  0
  4  5  1  0  0  0  0
  5  6  1  0  0  0  0
  5 19  2  0  0  0  0
  6  7  1  0  0  0  0
  6  8  1  0  0  0  0
  6 24  1  0  0  0  0
  7 25  1  0  0  0  0
  7 26  1  0  0  0  0
  7 27  1  0  0  0  0
  8  9  1  0  0  0  0
  8 28  1  0  0  0  0
  8 29  1  0  0  0  0
  9 10  1  0  0  0  0
  9 30  1  0  0  0  0
 10 11  2  0  0  0  0
 10 12  1  0  0  0  0
 12 13  1  0  0  0  0
 12 31  1  0  0  0  0
 13 17  1  0  0  0  0
 13 14  1  0  0  0  0
 13 32  1  0  0  0  0
 14 15  1  0  0  0  0
 14 33  1  0  0  0  0
 14 34  1  0  0  0  0
 15 16  1  0  0  0  0
 15 35  1  0  0  0  0
 15 36  1  0  0  0  0
 16 17  1  0  0  0  0
 17 18  1  0  0  0  0
 17 37  1  0  0  0  0
 18 38  1  0  0  0  0
 18 39  1  0  0  0  0
 18 40  1  0  0  0  0
M  END
> <s_m_source_file>
AV-unprocessed.smi

> <i_m_source_file_index>
2340

> <i_lp_mmshare_version>
43012

> <i_f3d_flags>
0

> <s_epik_input>
W0NIM11jMVtjSF1zYyhuMSlbQ0BIXShbQ0gzXSlbQ0gyXVtOSF1DKD1PKVtOSF1bQ0BASF0yW0NIMl1bQ0gyXU9bQ0BIXTJbQ0gzXQ==

> <s_epik_cmdline>
J2VwaWtfcHl0aG9uJywgJy1waCcsICc3LjAnLCAnLXRuJywgJzgnLCAnLW1hJywgJzIwMCcsICctbWV0YWxfYmluZGluZycsICctaW1hZScsICc8aW5maWxlLm1hZT4nLCAnLW9tYWUnLCAnPG91dGZpbGUubWFlPic=

> <r_epik_Ionization_Penalty>
0.00156622

> <r_epik_Ionization_Penalty_Charging>
0

> <r_epik_Ionization_Penalty_Neutral>
0.00156622

> <r_epik_State_Penalty>
0.00101902

> <r_epik_Charging_Adjusted_Penalty>
0.00101902

> <i_epik_Tot_Q>
0

> <i_epik_Tot_abs_Q>
0

> <r_epik_Metal_State_Penalty>
-0

> <b_epik_Metal_Only>
0

> <s_lp_Force_Field>
OPLS_2005

> <r_lp_Energy>
5.75985

> <b_lp_Chiralities_Consistent>
1

> <s_lp_Variant>
AV-unprocessed.smi:2340-4

> <Gold.Version>
5.8.1

> <Gold.Id.Protein>
6NUR|6NUR_protein|mol2

> <Gold.PLP.Fitness>
43.8576

> <Gold.PLP.PLP>
-37.8580

> <Gold.PLP.part.hbond>
-4.4708

> <Gold.PLP.part.metal>
0.0000

> <Gold.PLP.part.buried>
-4.7376

> <Gold.PLP.part.nonpolar>
-30.0888

> <Gold.PLP.part.repulsive>
0.2268

> <Gold.PLP.ligand.clash>
0.0000

> <Gold.PLP.ligand.torsion>
0.6650

> <Gold.PLP.Chemscore.Hbond>
2.4013

> <Gold.PLP.Chemscore.CHOScore>
0.0000

> <Gold.PLP.Chemscore.Metal>
0.0000

> <Gold.Chemscore.Hbonds>
donor molecule, donor type, donor heavy atom, donor atom, acceptor molecule, acceptor atom, score
      L1  H     9    30       P1  8028  0.65
      L1  H    12    31       P1  8029  1.00
      P1  H  6933  6944       L1    11  0.25
      P1  H  6934  6946       L1    11  0.59

> <Gold.PLP.Chemscore.Internal.Correction>
0.1258

> <Gold.Rescore>
     Score         DG    S(hbond)    S(metal)    S(lipo)     H(rot)  DE(clash)    DE(int)     intcor
     17.69     -20.76       2.23        0.00     100.40       1.53       0.26       2.81       ----

> <Gold.Chemscore.Fitness>
17.6904

> <Gold.Chemscore.DG>
-20.7562

> <Gold.Chemscore.ZeroCoef>
-5.4800

> <Gold.Chemscore.Hbond>
2.2315

> <Gold.Chemscore.Metal>
0.0000

> <Gold.Chemscore.Lipo>
100.3968

> <Gold.Chemscore.Internal_Hbond>
0.0000

> <Gold.Chemscore.DEClash>
0.2562

> <Gold.Chemscore.DEInternal>
2.8097

> <Gold.Chemscore.Rot>
1.5325

> <Gold.Chemscore.Internal.Correction>
   9.000000E+99

> <Gold.Chemscore.Hbonds>
donor molecule, donor type, donor heavy atom, donor atom, acceptor molecule, acceptor atom, score
      L1  H     9    30       P1  8028  0.06
      L1  H    12    31       P1  8029  0.91
      P1  H  6933  6944       L1    11  0.18
      P1  H  6934  6946       L1    11  0.57

> <Gold.Chemscore.Hbond.Weighted>
-7.4531

> <Gold.Chemscore.Metal.Weighted>
-0.0000

> <Gold.Chemscore.Lipo.Weighted>
-11.7464

> <Gold.Chemscore.Internal_Hbond.Weighted>
0.0000

> <Gold.Chemscore.DEClash.Weighted>
0.2562

> <Gold.Chemscore.DEInternal.Weighted>
2.8097

> <Gold.Chemscore.Rot.Weighted>
3.9233

> <Gold.Chemscore.Internal.Correction.Weighted>
   9.000000E+99

> <Gold.Protein.RotatedTorsions>
[ 6907 6896 6895 6894 ] final  158.61 input  -60.11 | X-H torsion
[ 7974 7965 7964 7962 ] final -161.72 input  175.53 | X-H torsion
[ 8008 7997 7996 7995 ] final   47.18 input   59.86 | X-H torsion
[ 10167 10162 10161 10158 ] final  -79.66 input  -65.29 | X-H torsion
[ 10718 10713 10712 10709 ] final  -84.42 input   66.30 | X-H torsion
[ 10763 10752 10751 10750 ] final   33.82 input  -60.55 | X-H torsion
[ 11005 11000 10999 10996 ] final -168.28 input  -57.11 | X-H torsion

> <Gold.Protein.ActiveResidues>
 VAL166  LYS551  ARG553  GLY616  TRP617  ASP618  TYR619  PRO620  LYS621  CYS622 
 ASP623  PHE694  ASN695  SER759  ASP760  ASP761  ALA762  ILE779  LEU786  VAL792 
 PHE793  MET794  SER795  GLU796  ALA797  LYS798  CYS799  TRP800  GLU811  SER814 

> <Gold.Protein.RotatedAtoms>
  151.9978  133.3814  159.4169 H   0  0  0  0  0  0  0  0  0  0  0  0  # atno 6907 bound_to 6896
  150.6913  134.3867  159.5067 H   0  0  0  0  0  0  0  0  0  0  0  0  # atno 6908 bound_to 6896
  152.1609  134.8912  160.0592 H   0  0  0  0  0  0  0  0  0  0  0  0  # atno 6909 bound_to 6896
  144.7381  140.3357  143.6144 H   0  0  0  0  0  0  0  0  0  0  0  0  # atno 7974 bound_to 7965
  155.3649  140.3420  155.4241 H   0  0  0  0  0  0  0  0  0  0  0  0  # atno 8008 bound_to 7997
  156.1694  140.1627  156.8508 H   0  0  0  0  0  0  0  0  0  0  0  0  # atno 8009 bound_to 7997
  154.5218  140.0765  156.8167 H   0  0  0  0  0  0  0  0  0  0  0  0  # atno 8010 bound_to 7997
  140.4573  143.2464  151.8401 H   0  0  0  0  0  0  0  0  0  0  0  0  # atno 10167 bound_to 10162
  156.0006  130.4697  150.4408 H   0  0  0  0  0  0  0  0  0  0  0  0  # atno 10718 bound_to 10713
  153.0193  135.6377  154.1571 H   0  0  0  0  0  0  0  0  0  0  0  0  # atno 10763 bound_to 10752
  154.1307  135.2840  155.3187 H   0  0  0  0  0  0  0  0  0  0  0  0  # atno 10764 bound_to 10752
  154.6196  135.5529  153.7622 H   0  0  0  0  0  0  0  0  0  0  0  0  # atno 10765 bound_to 10752
  140.5438  134.5496  157.5106 H   0  0  0  0  0  0  0  0  0  0  0  0  # atno 11005 bound_to 11000
  145.7426  139.1769  143.2367 LP  0  0  0  0  0  0  0  0  0  0  0  0  # atno 17320 bound_to 7965
  146.1122  140.7413  142.9497 LP  0  0  0  0  0  0  0  0  0  0  0  0  # atno 17321 bound_to 7965
  139.4802  144.5050  151.9010 LP  0  0  0  0  0  0  0  0  0  0  0  0  # atno 17342 bound_to 10162
  140.4136  144.2337  150.5888 LP  0  0  0  0  0  0  0  0  0  0  0  0  # atno 17343 bound_to 10162
  157.2449  131.0533  151.2414 LP  0  0  0  0  0  0  0  0  0  0  0  0  # atno 17370 bound_to 10713
  157.3584  130.7119  149.6486 LP  0  0  0  0  0  0  0  0  0  0  0  0  # atno 17371 bound_to 10713
  139.9490  134.7650  156.0493 LP  0  0  0  0  0  0  0  0  0  0  0  0  # atno 17394 bound_to 11000
  141.1212  133.6612  156.3219 LP  0  0  0  0  0  0  0  0  0  0  0  0  # atno 17395 bound_to 11000

$$$$
