AV-unprocessed.smi:1437|AV-procd|sdf|5863|dock2
  -GOLD-   22720 5533D 1   1.00000     0.00000
 Structure written by MMmdl.
 36 37  0  0  0  0  0  0  0  0  2 V2000
  152.0144  131.8373  157.2081 C   0  0  0  0  0  0  0  0  0  0  0  0
  151.1119  132.7469  156.4471 C   0  0  0  0  0  0  0  0  0  0  0  0
  150.4506  132.6205  155.2579 C   0  0  0  0  0  0  0  0  0  0  0  0
  149.7738  133.8630  155.1349 C   0  0  0  0  0  0  0  0  0  0  0  0
  148.9555  134.1386  154.0097 N   0  0  0  0  0  0  0  0  0  0  0  0
  147.9365  133.3988  153.5399 C   0  0  0  0  0  0  0  0  0  0  0  0
  147.5445  132.3388  154.0287 O   0  0  0  0  0  0  0  0  0  0  0  0
  147.3873  133.9567  152.4506 N   0  0  0  0  0  0  0  0  0  0  0  0
  146.2692  133.3946  151.6984 C   0  0  2  0  0  0  0  0  0  0  0  0
  146.7706  132.6261  150.4613 C   0  0  0  0  0  0  0  0  0  0  0  0
  145.5954  132.1089  149.6151 C   0  0  0  0  0  0  0  0  0  0  0  0
  144.6926  133.2185  149.2194 N   0  3  1  0  0  0  0  0  0  0  0  0
  143.6151  132.7696  148.3116 C   0  0  0  0  0  0  0  0  0  0  0  0
  144.1681  133.9563  150.3958 C   0  0  0  0  0  0  0  0  0  0  0  0
  145.3144  134.5154  151.2557 C   0  0  0  0  0  0  0  0  0  0  0  0
  150.0026  134.6751  156.1556 N   0  0  0  0  0  0  0  0  0  0  0  0
  150.8617  133.9641  157.0016 O   0  0  0  0  0  0  0  0  0  0  0  0
  151.9491  130.8174  156.8290 H   0  0  0  0  0  0  0  0  0  0  0  0
  151.7485  131.8222  158.2653 H   0  0  0  0  0  0  0  0  0  0  0  0
  153.0508  132.1641  157.1242 H   0  0  0  0  0  0  0  0  0  0  0  0
  150.4522  131.7738  154.5879 H   0  0  0  0  0  0  0  0  0  0  0  0
  149.1740  134.9860  153.5070 H   0  0  0  0  0  0  0  0  0  0  0  0
  147.7711  134.8293  152.1176 H   0  0  0  0  0  0  0  0  0  0  0  0
  145.7146  132.7098  152.3435 H   0  0  0  0  0  0  0  0  0  0  0  0
  147.3994  133.2758  149.8503 H   0  0  0  0  0  0  0  0  0  0  0  0
  147.3978  131.7870  150.7655 H   0  0  0  0  0  0  0  0  0  0  0  0
  145.9809  131.6148  148.7222 H   0  0  0  0  0  0  0  0  0  0  0  0
  145.0320  131.3599  150.1739 H   0  0  0  0  0  0  0  0  0  0  0  0
  142.9581  132.0538  148.8075 H   0  0  0  0  0  0  0  0  0  0  0  0
  144.0325  132.2934  147.4241 H   0  0  0  0  0  0  0  0  0  0  0  0
  143.0122  133.6162  147.9814 H   0  0  0  0  0  0  0  0  0  0  0  0
  143.5325  134.7765  150.0594 H   0  0  0  0  0  0  0  0  0  0  0  0
  143.5404  133.2929  150.9930 H   0  0  0  0  0  0  0  0  0  0  0  0
  144.9039  135.0246  152.1286 H   0  0  0  0  0  0  0  0  0  0  0  0
  145.8611  135.2686  150.6860 H   0  0  0  0  0  0  0  0  0  0  0  0
  145.2546  133.8736  148.6948 H   0  0  0  0  0  0  0  0  0  0  0  0
  1  2  1  0  0  0  0
  1 18  1  0  0  0  0
  1 19  1  0  0  0  0
  1 20  1  0  0  0  0
  2 17  1  0  0  0  0
  2  3  2  0  0  0  0
  3  4  1  0  0  0  0
  3 21  1  0  0  0  0
  4  5  1  0  0  0  0
  4 16  2  0  0  0  0
  5  6  1  0  0  0  0
  5 22  1  0  0  0  0
  6  7  2  0  0  0  0
  6  8  1  0  0  0  0
  8  9  1  0  0  0  0
  8 23  1  0  0  0  0
  9 15  1  0  0  0  0
  9 10  1  0  0  0  0
  9 24  1  0  0  0  0
 10 11  1  0  0  0  0
 10 25  1  0  0  0  0
 10 26  1  0  0  0  0
 11 12  1  0  0  0  0
 11 27  1  0  0  0  0
 11 28  1  0  0  0  0
 12 13  1  0  0  0  0
 12 14  1  0  0  0  0
 12 36  1  0  0  0  0
 13 29  1  0  0  0  0
 13 30  1  0  0  0  0
 13 31  1  0  0  0  0
 14 15  1  0  0  0  0
 14 32  1  0  0  0  0
 14 33  1  0  0  0  0
 15 34  1  0  0  0  0
 15 35  1  0  0  0  0
 16 17  1  0  0  0  0
M  CHG  1  12   1
M  END
> <s_m_source_file>
AV-unprocessed.smi

> <i_m_source_file_index>
1437

> <i_lp_mmshare_version>
43012

> <i_f3d_flags>
0

> <s_epik_input>
W0NIM11jMVtjSF1jKG5vMSlbTkhdQyg9TylbTkhdW0NIXTJbQ0gyXVtDSDJdTihbQ0gzXSlbQ0gyXVtDSDJdMg==

> <s_epik_cmdline>
J2VwaWtfcHl0aG9uJywgJy1waCcsICc3LjAnLCAnLXRuJywgJzgnLCAnLW1hJywgJzIwMCcsICctbWV0YWxfYmluZGluZycsICctaW1hZScsICc8aW5maWxlLm1hZT4nLCAnLW9tYWUnLCAnPG91dGZpbGUubWFlPic=

> <r_epik_Ionization_Penalty>
0.00408962

> <r_epik_Ionization_Penalty_Charging>
0.00405645

> <r_epik_Ionization_Penalty_Neutral>
3.31706e-05

> <r_epik_State_Penalty>
0.00290716

> <r_epik_Charging_Adjusted_Penalty>
0.00696361

> <i_epik_Tot_Q>
1

> <i_epik_Tot_abs_Q>
1

> <r_epik_Metal_State_Penalty>
0.0142111

> <b_epik_Metal_Only>
0

> <s_lp_Force_Field>
OPLS_2005

> <r_lp_Energy>
12.1983

> <b_lp_Chiralities_Consistent>
1

> <s_lp_Variant>
AV-unprocessed.smi:1437-1

> <Gold.Version>
5.8.1

> <Gold.Id.Protein>
6NUR|6NUR_protein|mol2

> <Gold.PLP.Fitness>
38.0255

> <Gold.PLP.PLP>
-29.9323

> <Gold.PLP.part.hbond>
-4.0000

> <Gold.PLP.part.metal>
0.0000

> <Gold.PLP.part.buried>
-2.8170

> <Gold.PLP.part.nonpolar>
-25.5003

> <Gold.PLP.part.repulsive>
0.2454

> <Gold.PLP.ligand.clash>
0.0000

> <Gold.PLP.ligand.torsion>
0.7896

> <Gold.PLP.Chemscore.Hbond>
3.2238

> <Gold.PLP.Chemscore.CHOScore>
0.0000

> <Gold.PLP.Chemscore.Metal>
0.0000

> <Gold.Chemscore.Hbonds>
donor molecule, donor type, donor heavy atom, donor atom, acceptor molecule, acceptor atom, score
      L1  H     5    22       P1  7948  0.89
      L1  H     8    23       P1  7948  1.00
      L1  H    12    36       P1  7921  1.00
      P1  H  6896  6909       L1    17  0.25

> <Gold.PLP.Chemscore.Internal.Correction>
0.0010

> <Gold.Rescore>
     Score         DG    S(hbond)    S(metal)    S(lipo)     H(rot)  DE(clash)    DE(int)     intcor
     18.30     -19.52       2.69        0.00      65.08       1.00       0.29       0.92       ----

> <Gold.Chemscore.Fitness>
18.3047

> <Gold.Chemscore.DG>
-19.5161

> <Gold.Chemscore.ZeroCoef>
-5.4800

> <Gold.Chemscore.Hbond>
2.6890

> <Gold.Chemscore.Metal>
0.0000

> <Gold.Chemscore.Lipo>
65.0834

> <Gold.Chemscore.Internal_Hbond>
0.0000

> <Gold.Chemscore.DEClash>
0.2936

> <Gold.Chemscore.DEInternal>
0.9178

> <Gold.Chemscore.Rot>
1.0000

> <Gold.Chemscore.Internal.Correction>
   9.000000E+99

> <Gold.Chemscore.Hbonds>
donor molecule, donor type, donor heavy atom, donor atom, acceptor molecule, acceptor atom, score
      L1  H     5    22       P1  7948  0.16
      L1  H     8    23       P1  7948  0.70
      L1  H    12    36       P1  7921  0.85
      P1  H  6896  6909       L1    17  0.09

> <Gold.Chemscore.Hbond.Weighted>
-8.9814

> <Gold.Chemscore.Metal.Weighted>
-0.0000

> <Gold.Chemscore.Lipo.Weighted>
-7.6148

> <Gold.Chemscore.Internal_Hbond.Weighted>
0.0000

> <Gold.Chemscore.DEClash.Weighted>
0.2936

> <Gold.Chemscore.DEInternal.Weighted>
0.9178

> <Gold.Chemscore.Rot.Weighted>
2.5600

> <Gold.Chemscore.Internal.Correction.Weighted>
   9.000000E+99

> <Gold.Protein.RotatedTorsions>
[ 6907 6896 6895 6894 ] final  -22.94 input  -60.11 | X-H torsion
[ 7974 7965 7964 7962 ] final  157.95 input  175.53 | X-H torsion
[ 8008 7997 7996 7995 ] final  -43.38 input   59.86 | X-H torsion
[ 10167 10162 10161 10158 ] final   22.17 input  -65.29 | X-H torsion
[ 10718 10713 10712 10709 ] final -131.05 input   66.30 | X-H torsion
[ 10763 10752 10751 10750 ] final -128.77 input  -60.55 | X-H torsion
[ 11005 11000 10999 10996 ] final   62.48 input  -57.11 | X-H torsion

> <Gold.Protein.ActiveResidues>
 VAL166  LYS551  ARG553  GLY616  TRP617  ASP618  TYR619  PRO620  LYS621  CYS622 
 ASP623  PHE694  ASN695  SER759  ASP760  ASP761  ALA762  ILE779  LEU786  VAL792 
 PHE793  MET794  SER795  GLU796  ALA797  LYS798  CYS799  TRP800  GLU811  SER814 

> <Gold.Protein.RotatedAtoms>
  151.2113  135.0482  159.8912 H   0  0  0  0  0  0  0  0  0  0  0  0  # atno 6907 bound_to 6896
  152.5424  134.0742  159.8217 H   0  0  0  0  0  0  0  0  0  0  0  0  # atno 6908 bound_to 6896
  151.0895  133.5279  159.2647 H   0  0  0  0  0  0  0  0  0  0  0  0  # atno 6909 bound_to 6896
  144.7873  139.7412  143.6235 H   0  0  0  0  0  0  0  0  0  0  0  0  # atno 7974 bound_to 7965
  154.3997  140.1449  156.3509 H   0  0  0  0  0  0  0  0  0  0  0  0  # atno 8008 bound_to 7997
  155.8270  140.3467  155.5527 H   0  0  0  0  0  0  0  0  0  0  0  0  # atno 8009 bound_to 7997
  155.8228  140.0900  157.1829 H   0  0  0  0  0  0  0  0  0  0  0  0  # atno 8010 bound_to 7997
  140.5369  143.9745  150.6497 H   0  0  0  0  0  0  0  0  0  0  0  0  # atno 10167 bound_to 10162
  156.2206  130.6976  151.0751 H   0  0  0  0  0  0  0  0  0  0  0  0  # atno 10718 bound_to 10713
  154.8757  135.3917  154.3812 H   0  0  0  0  0  0  0  0  0  0  0  0  # atno 10763 bound_to 10752
  153.4559  135.7028  153.6085 H   0  0  0  0  0  0  0  0  0  0  0  0  # atno 10764 bound_to 10752
  153.4605  135.3813  155.2304 H   0  0  0  0  0  0  0  0  0  0  0  0  # atno 10765 bound_to 10752
  140.0090  134.6326  155.9811 H   0  0  0  0  0  0  0  0  0  0  0  0  # atno 11005 bound_to 11000
  146.2111  139.5467  142.9680 LP  0  0  0  0  0  0  0  0  0  0  0  0  # atno 17320 bound_to 7965
  145.5887  141.0372  143.2082 LP  0  0  0  0  0  0  0  0  0  0  0  0  # atno 17321 bound_to 7965
  140.3135  143.3183  152.0856 LP  0  0  0  0  0  0  0  0  0  0  0  0  # atno 17342 bound_to 10162
  139.4974  144.6621  151.6441 LP  0  0  0  0  0  0  0  0  0  0  0  0  # atno 17343 bound_to 10162
  157.7085  131.0745  150.6583 LP  0  0  0  0  0  0  0  0  0  0  0  0  # atno 17370 bound_to 10713
  156.6646  130.4522  149.5676 LP  0  0  0  0  0  0  0  0  0  0  0  0  # atno 17371 bound_to 10713
  141.1697  133.6537  156.4607 LP  0  0  0  0  0  0  0  0  0  0  0  0  # atno 17394 bound_to 11000
  140.4589  134.6859  157.5076 LP  0  0  0  0  0  0  0  0  0  0  0  0  # atno 17395 bound_to 11000

$$$$
