AV-unprocessed.smi:2385|AV-procd|sdf|9465|dock3
  -GOLD-   2272013 93D 1   1.00000     0.00000
 Structure written by MMmdl.
 50 52  0  0  0  0  0  0  0  0  2 V2000
  153.4964  142.2817  161.3857 C   0  0  0  0  0  0  0  0  0  0  0  0
  152.6133  142.3523  160.1577 C   0  0  0  0  0  0  0  0  0  0  0  0
  152.3251  141.1991  159.4037 C   0  0  0  0  0  0  0  0  0  0  0  0
  151.4968  141.3184  158.2712 C   0  0  0  0  0  0  0  0  0  0  0  0
  150.9762  142.5841  157.9201 C   0  0  0  0  0  0  0  0  0  0  0  0
  150.1556  142.5954  156.7609 N   0  0  0  0  0  0  0  0  0  0  0  0
  149.4811  141.5714  156.2095 C   0  0  0  0  0  0  0  0  0  0  0  0
  149.4709  140.4140  156.6285 O   0  0  0  0  0  0  0  0  0  0  0  0
  148.8076  141.9669  155.1193 N   0  0  0  0  0  0  0  0  0  0  0  0
  147.9647  141.1097  154.2860 C   0  0  2  0  0  0  0  0  0  0  0  0
  147.2680  141.9009  153.1630 C   0  0  0  0  0  0  0  0  0  0  0  0
  146.1906  142.8523  153.7124 C   0  0  0  0  0  0  0  0  0  0  0  0
  145.1847  142.1263  154.5332 N   0  3  2  0  0  0  0  0  0  0  0  0
  144.0799  143.0220  154.9699 C   0  0  0  0  0  0  0  0  0  0  0  0
  144.4942  144.5052  155.0886 C   0  0  2  0  0  0  0  0  0  0  0  0
  143.5765  145.2982  156.0033 C   0  0  0  0  0  0  0  0  0  0  0  0
  143.8253  146.7271  155.5452 C   0  0  0  0  0  0  0  0  0  0  0  0
  143.9099  146.6126  154.1341 O   0  0  0  0  0  0  0  0  0  0  0  0
  144.4221  145.3280  153.7912 C   0  0  0  0  0  0  0  0  0  0  0  0
  145.8286  141.3886  155.6534 C   0  0  0  0  0  0  0  0  0  0  0  0
  146.9012  140.4074  155.1448 C   0  0  0  0  0  0  0  0  0  0  0  0
  151.2571  143.6892  158.6545 N   0  0  0  0  0  0  0  0  0  0  0  0
  152.0517  143.5744  159.7396 C   0  0  0  0  0  0  0  0  0  0  0  0
  154.1610  141.4184  161.3394 H   0  0  0  0  0  0  0  0  0  0  0  0
  152.8845  142.1965  162.2838 H   0  0  0  0  0  0  0  0  0  0  0  0
  154.1109  143.1783  161.4712 H   0  0  0  0  0  0  0  0  0  0  0  0
  152.7300  140.2380  159.6851 H   0  0  0  0  0  0  0  0  0  0  0  0
  151.2669  140.4430  157.6812 H   0  0  0  0  0  0  0  0  0  0  0  0
  150.0703  143.4897  156.3013 H   0  0  0  0  0  0  0  0  0  0  0  0
  148.8696  142.9392  154.8551 H   0  0  0  0  0  0  0  0  0  0  0  0
  148.6009  140.3442  153.8379 H   0  0  0  0  0  0  0  0  0  0  0  0
  147.9974  142.4608  152.5764 H   0  0  0  0  0  0  0  0  0  0  0  0
  146.8020  141.1998  152.4694 H   0  0  0  0  0  0  0  0  0  0  0  0
  146.6503  143.6407  154.3105 H   0  0  0  0  0  0  0  0  0  0  0  0
  145.6968  143.3423  152.8723 H   0  0  0  0  0  0  0  0  0  0  0  0
  143.2067  142.8994  154.3274 H   0  0  0  0  0  0  0  0  0  0  0  0
  143.7619  142.7029  155.9637 H   0  0  0  0  0  0  0  0  0  0  0  0
  145.5039  144.5732  155.4974 H   0  0  0  0  0  0  0  0  0  0  0  0
  142.5333  145.0302  155.8286 H   0  0  0  0  0  0  0  0  0  0  0  0
  143.7946  145.1495  157.0611 H   0  0  0  0  0  0  0  0  0  0  0  0
  143.0339  147.4139  155.8462 H   0  0  0  0  0  0  0  0  0  0  0  0
  144.7734  147.0998  155.9354 H   0  0  0  0  0  0  0  0  0  0  0  0
  145.4046  145.4305  153.3300 H   0  0  0  0  0  0  0  0  0  0  0  0
  143.7508  144.8761  153.0603 H   0  0  0  0  0  0  0  0  0  0  0  0
  146.2672  142.0996  156.3552 H   0  0  0  0  0  0  0  0  0  0  0  0
  145.0878  140.8184  156.2081 H   0  0  0  0  0  0  0  0  0  0  0  0
  146.4188  139.6292  154.5519 H   0  0  0  0  0  0  0  0  0  0  0  0
  147.3717  139.8971  155.9861 H   0  0  0  0  0  0  0  0  0  0  0  0
  152.2429  144.4847  160.2886 H   0  0  0  0  0  0  0  0  0  0  0  0
  144.7714  141.4366  153.9217 H   0  0  0  0  0  0  0  0  0  0  0  0
  1  2  1  0  0  0  0
  1 24  1  0  0  0  0
  1 25  1  0  0  0  0
  1 26  1  0  0  0  0
  2 23  1  0  0  0  0
  2  3  2  0  0  0  0
  3  4  1  0  0  0  0
  3 27  1  0  0  0  0
  4  5  2  0  0  0  0
  4 28  1  0  0  0  0
  5  6  1  0  0  0  0
  5 22  1  0  0  0  0
  6  7  1  0  0  0  0
  6 29  1  0  0  0  0
  7  8  2  0  0  0  0
  7  9  1  0  0  0  0
  9 10  1  0  0  0  0
  9 30  1  0  0  0  0
 10 21  1  0  0  0  0
 10 11  1  0  0  0  0
 10 31  1  0  0  0  0
 11 12  1  0  0  0  0
 11 32  1  0  0  0  0
 11 33  1  0  0  0  0
 12 13  1  0  0  0  0
 12 34  1  0  0  0  0
 12 35  1  0  0  0  0
 13 14  1  0  0  0  0
 13 20  1  0  0  0  0
 13 50  1  0  0  0  0
 14 15  1  0  0  0  0
 14 36  1  0  0  0  0
 14 37  1  0  0  0  0
 15 19  1  0  0  0  0
 15 16  1  0  0  0  0
 15 38  1  0  0  0  0
 16 17  1  0  0  0  0
 16 39  1  0  0  0  0
 16 40  1  0  0  0  0
 17 18  1  0  0  0  0
 17 41  1  0  0  0  0
 17 42  1  0  0  0  0
 18 19  1  0  0  0  0
 19 43  1  0  0  0  0
 19 44  1  0  0  0  0
 20 21  1  0  0  0  0
 20 45  1  0  0  0  0
 20 46  1  0  0  0  0
 21 47  1  0  0  0  0
 21 48  1  0  0  0  0
 22 23  2  0  0  0  0
 23 49  1  0  0  0  0
M  CHG  1  13   1
M  END
> <s_m_source_file>
AV-unprocessed.smi

> <i_m_source_file_index>
2385

> <i_lp_mmshare_version>
43012

> <i_f3d_flags>
0

> <s_epik_input>
W0NIM11jMVtjSF1bY0hdYyhuW2NIXTEpW05IXUMoPU8pW05IXVtDSF0yW0NIMl1bQ0gyXU4oW0NIMl1bQ0gyXTIpW0NIMl1bQ0BASF0zW0NIMl1bQ0gyXU9bQ0gyXTM=

> <s_epik_cmdline>
J2VwaWtfcHl0aG9uJywgJy1waCcsICc3LjAnLCAnLXRuJywgJzgnLCAnLW1hJywgJzIwMCcsICctbWV0YWxfYmluZGluZycsICctaW1hZScsICc8aW5maWxlLm1hZT4nLCAnLW9tYWUnLCAnPG91dGZpbGUubWFlPic=

> <r_epik_Ionization_Penalty>
0.00752367

> <r_epik_Ionization_Penalty_Charging>
0.00747775

> <r_epik_Ionization_Penalty_Neutral>
4.59207e-05

> <r_epik_State_Penalty>
0.00558817

> <r_epik_Charging_Adjusted_Penalty>
0.0130659

> <i_epik_Tot_Q>
1

> <i_epik_Tot_abs_Q>
1

> <r_epik_Metal_State_Penalty>
-0

> <b_epik_Metal_Only>
0

> <s_lp_Force_Field>
OPLS_2005

> <r_lp_Energy>
35.6171

> <b_lp_Chiralities_Consistent>
1

> <s_lp_Variant>
AV-unprocessed.smi:2385-3

> <Gold.Version>
5.8.1

> <Gold.Id.Protein>
6NUR|6NUR_protein|mol2

> <Gold.PLP.Fitness>
51.6340

> <Gold.PLP.PLP>
-42.2248

> <Gold.PLP.part.hbond>
-4.0000

> <Gold.PLP.part.metal>
0.0000

> <Gold.PLP.part.buried>
-8.2548

> <Gold.PLP.part.nonpolar>
-30.5791

> <Gold.PLP.part.repulsive>
0.3436

> <Gold.PLP.ligand.clash>
0.3900

> <Gold.PLP.ligand.torsion>
0.8768

> <Gold.PLP.Chemscore.Hbond>
3.8240

> <Gold.PLP.Chemscore.CHOScore>
0.0000

> <Gold.PLP.Chemscore.Metal>
0.0000

> <Gold.Chemscore.Hbonds>
donor molecule, donor type, donor heavy atom, donor atom, acceptor molecule, acceptor atom, score
      L1  H     6    29       P1  8028  0.90
      L1  H     9    30       P1  8028  0.83
      L1  H    13    50       P1 10175  2.00

> <Gold.PLP.Chemscore.Internal.Correction>
0.0808

> <Gold.Rescore>
     Score         DG    S(hbond)    S(metal)    S(lipo)     H(rot)  DE(clash)    DE(int)     intcor
     17.49     -22.60       2.59        0.00     103.08       1.41       1.55       3.56       ----

> <Gold.Chemscore.Fitness>
17.4914

> <Gold.Chemscore.DG>
-22.5995

> <Gold.Chemscore.ZeroCoef>
-5.4800

> <Gold.Chemscore.Hbond>
2.5920

> <Gold.Chemscore.Metal>
0.0000

> <Gold.Chemscore.Lipo>
103.0800

> <Gold.Chemscore.Internal_Hbond>
0.0000

> <Gold.Chemscore.DEClash>
1.5514

> <Gold.Chemscore.DEInternal>
3.5567

> <Gold.Chemscore.Rot>
1.4056

> <Gold.Chemscore.Internal.Correction>
   9.000000E+99

> <Gold.Chemscore.Hbonds>
donor molecule, donor type, donor heavy atom, donor atom, acceptor molecule, acceptor atom, score
      L1  H     6    29       P1  8028  0.88
      L1  H     9    30       P1  8028  0.83
      L1  H    13    50       P1 10175  0.28

> <Gold.Chemscore.Hbond.Weighted>
-8.6574

> <Gold.Chemscore.Metal.Weighted>
-0.0000

> <Gold.Chemscore.Lipo.Weighted>
-12.0604

> <Gold.Chemscore.Internal_Hbond.Weighted>
0.0000

> <Gold.Chemscore.DEClash.Weighted>
1.5514

> <Gold.Chemscore.DEInternal.Weighted>
3.5567

> <Gold.Chemscore.Rot.Weighted>
3.5982

> <Gold.Chemscore.Internal.Correction.Weighted>
   9.000000E+99

> <Gold.Protein.RotatedTorsions>
[ 6907 6896 6895 6894 ] final   93.50 input  -60.11 | X-H torsion
[ 7974 7965 7964 7962 ] final   31.68 input  175.53 | X-H torsion
[ 8008 7997 7996 7995 ] final   36.16 input   59.86 | X-H torsion
[ 10167 10162 10161 10158 ] final  141.73 input  -65.29 | X-H torsion
[ 10718 10713 10712 10709 ] final    1.51 input   66.30 | X-H torsion
[ 10763 10752 10751 10750 ] final  -64.07 input  -60.55 | X-H torsion
[ 11005 11000 10999 10996 ] final  -20.16 input  -57.11 | X-H torsion

> <Gold.Protein.ActiveResidues>
 VAL166  LYS551  ARG553  GLY616  TRP617  ASP618  TYR619  PRO620  LYS621  CYS622 
 ASP623  PHE694  ASN695  SER759  ASP760  ASP761  ALA762  ILE779  LEU786  VAL792 
 PHE793  MET794  SER795  GLU796  ALA797  LYS798  CYS799  TRP800  GLU811  SER814 

> <Gold.Protein.RotatedAtoms>
  152.5452  134.1339  159.8450 H   0  0  0  0  0  0  0  0  0  0  0  0  # atno 6907 bound_to 6896
  151.1382  133.4983  159.2605 H   0  0  0  0  0  0  0  0  0  0  0  0  # atno 6908 bound_to 6896
  151.1602  135.0280  159.8761 H   0  0  0  0  0  0  0  0  0  0  0  0  # atno 6909 bound_to 6896
  146.1535  139.6625  142.9083 H   0  0  0  0  0  0  0  0  0  0  0  0  # atno 7974 bound_to 7965
  155.1828  140.3301  155.4372 H   0  0  0  0  0  0  0  0  0  0  0  0  # atno 8008 bound_to 7997
  156.2470  140.1924  156.6876 H   0  0  0  0  0  0  0  0  0  0  0  0  # atno 8009 bound_to 7997
  154.6259  140.0589  156.9659 H   0  0  0  0  0  0  0  0  0  0  0  0  # atno 8010 bound_to 7997
  139.5013  144.6153  151.6179 H   0  0  0  0  0  0  0  0  0  0  0  0  # atno 10167 bound_to 10162
  156.8492  130.5548  149.5671 H   0  0  0  0  0  0  0  0  0  0  0  0  # atno 10718 bound_to 10713
  154.3246  135.6189  153.5523 H   0  0  0  0  0  0  0  0  0  0  0  0  # atno 10763 bound_to 10752
  152.9817  135.5732  154.5031 H   0  0  0  0  0  0  0  0  0  0  0  0  # atno 10764 bound_to 10752
  154.4706  135.2859  155.1622 H   0  0  0  0  0  0  0  0  0  0  0  0  # atno 10765 bound_to 10752
  140.8437  133.7907  155.9889 H   0  0  0  0  0  0  0  0  0  0  0  0  # atno 11005 bound_to 11000
  145.4766  141.0437  143.2669 LP  0  0  0  0  0  0  0  0  0  0  0  0  # atno 17320 bound_to 7965
  144.7933  139.6284  143.7103 LP  0  0  0  0  0  0  0  0  0  0  0  0  # atno 17321 bound_to 7965
  140.5839  143.9898  150.6284 LP  0  0  0  0  0  0  0  0  0  0  0  0  # atno 17342 bound_to 10162
  140.3056  143.3231  152.0929 LP  0  0  0  0  0  0  0  0  0  0  0  0  # atno 17343 bound_to 10162
  156.0837  130.5841  150.9610 LP  0  0  0  0  0  0  0  0  0  0  0  0  # atno 17370 bound_to 10713
  157.6313  131.0921  150.8436 LP  0  0  0  0  0  0  0  0  0  0  0  0  # atno 17371 bound_to 10713
  140.8866  134.2546  157.5116 LP  0  0  0  0  0  0  0  0  0  0  0  0  # atno 17394 bound_to 11000
  139.8703  134.9641  156.4485 LP  0  0  0  0  0  0  0  0  0  0  0  0  # atno 17395 bound_to 11000

$$$$
