AV-unprocessed.smi:1772|AV-procd|sdf|7162|dock5
  -GOLD-   22720 8403D 1   1.00000     0.00000
 Structure written by MMmdl.
 34 35  0  0  0  0  0  0  0  0  2 V2000
  146.3612  130.9845  153.6231 O   0  0  0  0  0  0  0  0  0  0  0  0
  147.1030  130.8757  152.6471 C   0  0  0  0  0  0  0  0  0  0  0  0
  148.3255  130.3288  152.7072 N   0  0  0  0  0  0  0  0  0  0  0  0
  148.9490  129.8032  153.9177 C   0  0  0  0  0  0  0  0  0  0  0  0
  149.4187  130.9245  154.8653 C   0  0  1  0  0  0  0  0  0  0  0  0
  149.7170  132.2388  154.1183 C   0  0  0  0  0  0  0  0  0  0  0  0
  149.9110  133.3545  155.1502 C   0  0  0  0  0  0  0  0  0  0  0  0
  148.7784  132.9518  156.5320 S   0  0  0  0  0  0  0  0  0  0  0  0
  149.5461  132.9153  157.7858 O   0  0  0  0  0  0  0  0  0  0  0  0
  147.5550  133.7595  156.4161 O   0  0  0  0  0  0  0  0  0  0  0  0
  148.4138  131.2401  155.9866 C   0  0  0  0  0  0  0  0  0  0  0  0
  146.8041  131.2653  151.3955 N   0  0  0  0  0  0  0  0  0  0  0  0
  145.6174  131.8865  150.9184 C   0  0  0  0  0  0  0  0  0  0  0  0
  144.6927  132.3508  151.8801 C   0  0  0  0  0  0  0  0  0  0  0  0
  143.4947  132.9617  151.4565 C   0  0  0  0  0  0  0  0  0  0  0  0
  143.2352  133.0896  150.1378 N   0  3  0  0  0  0  0  0  0  0  0  0
  144.0805  132.6484  149.1816 C   0  0  0  0  0  0  0  0  0  0  0  0
  145.2941  132.0294  149.5447 C   0  0  0  0  0  0  0  0  0  0  0  0
  148.8677  130.2731  151.8572 H   0  0  0  0  0  0  0  0  0  0  0  0
  148.2546  129.1376  154.4333 H   0  0  0  0  0  0  0  0  0  0  0  0
  149.7978  129.1877  153.6183 H   0  0  0  0  0  0  0  0  0  0  0  0
  150.3503  130.6131  155.3404 H   0  0  0  0  0  0  0  0  0  0  0  0
  150.5859  132.1450  153.4664 H   0  0  0  0  0  0  0  0  0  0  0  0
  148.8677  132.4916  153.4821 H   0  0  0  0  0  0  0  0  0  0  0  0
  150.9303  133.3501  155.5373 H   0  0  0  0  0  0  0  0  0  0  0  0
  149.6903  134.3467  154.7562 H   0  0  0  0  0  0  0  0  0  0  0  0
  147.3896  131.2226  155.6130 H   0  0  0  0  0  0  0  0  0  0  0  0
  148.4880  130.5546  156.8311 H   0  0  0  0  0  0  0  0  0  0  0  0
  147.4872  131.0373  150.6879 H   0  0  0  0  0  0  0  0  0  0  0  0
  144.8984  132.2478  152.9359 H   0  0  0  0  0  0  0  0  0  0  0  0
  142.7417  133.3474  152.1283 H   0  0  0  0  0  0  0  0  0  0  0  0
  143.7604  132.7973  148.1606 H   0  0  0  0  0  0  0  0  0  0  0  0
  145.9443  131.6676  148.7631 H   0  0  0  0  0  0  0  0  0  0  0  0
  142.3620  133.5338  149.8517 H   0  0  0  0  0  0  0  0  0  0  0  0
  1  2  2  0  0  0  0
  2  3  1  0  0  0  0
  2 12  1  0  0  0  0
  3  4  1  0  0  0  0
  3 19  1  0  0  0  0
  4  5  1  0  0  0  0
  4 20  1  0  0  0  0
  4 21  1  0  0  0  0
  5 11  1  0  0  0  0
  5  6  1  0  0  0  0
  5 22  1  0  0  0  0
  6  7  1  0  0  0  0
  6 23  1  0  0  0  0
  6 24  1  0  0  0  0
  7  8  1  0  0  0  0
  7 25  1  0  0  0  0
  7 26  1  0  0  0  0
  8  9  2  0  0  0  0
  8 10  2  0  0  0  0
  8 11  1  0  0  0  0
 11 27  1  0  0  0  0
 11 28  1  0  0  0  0
 12 13  1  0  0  0  0
 12 29  1  0  0  0  0
 13 18  1  0  0  0  0
 13 14  2  0  0  0  0
 14 15  1  0  0  0  0
 14 30  1  0  0  0  0
 15 16  2  0  0  0  0
 15 31  1  0  0  0  0
 16 17  1  0  0  0  0
 16 34  1  0  0  0  0
 17 18  2  0  0  0  0
 17 32  1  0  0  0  0
 18 33  1  0  0  0  0
M  CHG  1  16   1
M  END
> <s_m_source_file>
AV-unprocessed.smi

> <i_m_source_file_index>
1772

> <i_lp_mmshare_version>
43012

> <i_f3d_flags>
0

> <s_epik_input>
W2NIXTFbY0hdbltjSF1bY0hdYzFbTkhdQyg9TylbTkhdW0NIMl1bQ0BASF0oW0NIMl0yKVtDSDJdW0NIMl1TMig9Tyk9Tw==

> <s_epik_cmdline>
J2VwaWtfcHl0aG9uJywgJy1waCcsICc3LjAnLCAnLXRuJywgJzgnLCAnLW1hJywgJzIwMCcsICctbWV0YWxfYmluZGluZycsICctaW1hZScsICc8aW5maWxlLm1hZT4nLCAnLW9tYWUnLCAnPG91dGZpbGUubWFlPic=

> <r_epik_Ionization_Penalty>
1.04917

> <r_epik_Ionization_Penalty_Charging>
1.04915

> <r_epik_Ionization_Penalty_Neutral>
1.90771e-05

> <r_epik_State_Penalty>
1.10185

> <r_epik_Charging_Adjusted_Penalty>
2.151

> <i_epik_Tot_Q>
1

> <i_epik_Tot_abs_Q>
1

> <r_epik_Metal_State_Penalty>
1.19638

> <b_epik_Metal_Only>
0

> <s_lp_Force_Field>
OPLS_2005

> <r_lp_Energy>
14.8117

> <b_lp_Chiralities_Consistent>
1

> <s_lp_Variant>
AV-unprocessed.smi:1772-4

> <Gold.Version>
5.8.1

> <Gold.Id.Protein>
6NUR|6NUR_protein|mol2

> <Gold.PLP.Fitness>
43.8313

> <Gold.PLP.PLP>
-30.1855

> <Gold.PLP.part.hbond>
-4.0000

> <Gold.PLP.part.metal>
0.0000

> <Gold.PLP.part.buried>
-4.4552

> <Gold.PLP.part.nonpolar>
-21.6747

> <Gold.PLP.part.repulsive>
0.2624

> <Gold.PLP.ligand.clash>
0.0000

> <Gold.PLP.ligand.torsion>
0.5950

> <Gold.PLP.Chemscore.Hbond>
4.9440

> <Gold.PLP.Chemscore.CHOScore>
0.0000

> <Gold.PLP.Chemscore.Metal>
0.0000

> <Gold.Chemscore.Hbonds>
donor molecule, donor type, donor heavy atom, donor atom, acceptor molecule, acceptor atom, score
      L1  H     3    19       P1 10747  0.87
      L1  H    12    29       P1 10747  1.00
      L1  H    16    34       P1 10186  2.00
      P1  H  6896  6907       L1     9  0.81

> <Gold.PLP.Chemscore.Internal.Correction>
0.0039

> <Gold.Rescore>
     Score         DG    S(hbond)    S(metal)    S(lipo)     H(rot)  DE(clash)    DE(int)     intcor
     19.68     -21.78       3.47        0.00      68.93       1.32       0.00       2.10       ----

> <Gold.Chemscore.Fitness>
19.6767

> <Gold.Chemscore.DG>
-21.7752

> <Gold.Chemscore.ZeroCoef>
-5.4800

> <Gold.Chemscore.Hbond>
3.4723

> <Gold.Chemscore.Metal>
0.0000

> <Gold.Chemscore.Lipo>
68.9313

> <Gold.Chemscore.Internal_Hbond>
0.0000

> <Gold.Chemscore.DEClash>
0.0015

> <Gold.Chemscore.DEInternal>
2.0970

> <Gold.Chemscore.Rot>
1.3153

> <Gold.Chemscore.Internal.Correction>
   9.000000E+99

> <Gold.Chemscore.Hbonds>
donor molecule, donor type, donor heavy atom, donor atom, acceptor molecule, acceptor atom, score
      L1  H     3    19       P1 10747  0.19
      L1  H    12    29       P1 10747  0.90
      L1  H    16    34       P1 10186  1.00
      P1  H  6896  6907       L1     9  0.80

> <Gold.Chemscore.Hbond.Weighted>
-11.5975

> <Gold.Chemscore.Metal.Weighted>
-0.0000

> <Gold.Chemscore.Lipo.Weighted>
-8.0650

> <Gold.Chemscore.Internal_Hbond.Weighted>
0.0000

> <Gold.Chemscore.DEClash.Weighted>
0.0015

> <Gold.Chemscore.DEInternal.Weighted>
2.0970

> <Gold.Chemscore.Rot.Weighted>
3.3673

> <Gold.Chemscore.Internal.Correction.Weighted>
   9.000000E+99

> <Gold.Protein.RotatedTorsions>
[ 6907 6896 6895 6894 ] final -126.96 input  -60.11 | X-H torsion
[ 7974 7965 7964 7962 ] final   89.14 input  175.53 | X-H torsion
[ 8008 7997 7996 7995 ] final  -59.53 input   59.86 | X-H torsion
[ 10167 10162 10161 10158 ] final   18.74 input  -65.29 | X-H torsion
[ 10718 10713 10712 10709 ] final  163.65 input   66.30 | X-H torsion
[ 10763 10752 10751 10750 ] final  153.59 input  -60.55 | X-H torsion
[ 11005 11000 10999 10996 ] final  174.41 input  -57.11 | X-H torsion

> <Gold.Protein.ActiveResidues>
 VAL166  LYS551  ARG553  GLY616  TRP617  ASP618  TYR619  PRO620  LYS621  CYS622 
 ASP623  PHE694  ASN695  SER759  ASP760  ASP761  ALA762  ILE779  LEU786  VAL792 
 PHE793  MET794  SER795  GLU796  ALA797  LYS798  CYS799  TRP800  GLU811  SER814 

> <Gold.Protein.RotatedAtoms>
  150.9023  133.7103  159.2875 H   0  0  0  0  0  0  0  0  0  0  0  0  # atno 6907 bound_to 6896
  151.4617  135.1037  159.9736 H   0  0  0  0  0  0  0  0  0  0  0  0  # atno 6908 bound_to 6896
  152.4883  133.8384  159.7195 H   0  0  0  0  0  0  0  0  0  0  0  0  # atno 6909 bound_to 6896
  145.5363  139.2286  143.2591 H   0  0  0  0  0  0  0  0  0  0  0  0  # atno 7974 bound_to 7965
  154.4357  140.1059  156.6131 H   0  0  0  0  0  0  0  0  0  0  0  0  # atno 8008 bound_to 7997
  155.5788  140.3490  155.4516 H   0  0  0  0  0  0  0  0  0  0  0  0  # atno 8009 bound_to 7997
  156.0334  140.1265  157.0223 H   0  0  0  0  0  0  0  0  0  0  0  0  # atno 8010 bound_to 7997
  140.5631  143.9300  150.6657 H   0  0  0  0  0  0  0  0  0  0  0  0  # atno 10167 bound_to 10162
  157.1055  131.0454  151.2479 H   0  0  0  0  0  0  0  0  0  0  0  0  # atno 10718 bound_to 10713
  154.1386  135.2822  155.3167 H   0  0  0  0  0  0  0  0  0  0  0  0  # atno 10763 bound_to 10752
  154.6304  135.5437  153.7677 H   0  0  0  0  0  0  0  0  0  0  0  0  # atno 10764 bound_to 10752
  153.0258  135.6461  154.1533 H   0  0  0  0  0  0  0  0  0  0  0  0  # atno 10765 bound_to 10752
  140.3510  134.7195  157.4267 H   0  0  0  0  0  0  0  0  0  0  0  0  # atno 11005 bound_to 11000
  146.2011  140.6181  142.9102 LP  0  0  0  0  0  0  0  0  0  0  0  0  # atno 17320 bound_to 7965
  144.7600  140.5399  143.6742 LP  0  0  0  0  0  0  0  0  0  0  0  0  # atno 17321 bound_to 7965
  140.2756  143.3425  152.1198 LP  0  0  0  0  0  0  0  0  0  0  0  0  # atno 17342 bound_to 10162
  139.5080  144.6841  151.5932 LP  0  0  0  0  0  0  0  0  0  0  0  0  # atno 17343 bound_to 10162
  157.4604  130.7650  149.7231 LP  0  0  0  0  0  0  0  0  0  0  0  0  # atno 17370 bound_to 10713
  155.9863  130.3976  150.3219 LP  0  0  0  0  0  0  0  0  0  0  0  0  # atno 17371 bound_to 10713
  140.0703  134.5871  155.8649 LP  0  0  0  0  0  0  0  0  0  0  0  0  # atno 17394 bound_to 11000
  141.2012  133.6617  156.5938 LP  0  0  0  0  0  0  0  0  0  0  0  0  # atno 17395 bound_to 11000

$$$$
