AV-unprocessed.smi:2079|AV-procd|sdf|8485|dock6
  -GOLD-   2272011193D 1   1.00000     0.00000
 Structure written by MMmdl.
 41 42  0  0  0  0  0  0  0  0  3 V2000
  149.4811  132.8882  155.1671 C   0  0  0  0  0  0  0  0  0  0  0  0
  150.1231  134.2115  155.4067 C   0  0  0  0  0  0  0  0  0  0  0  0
  149.8377  135.4760  154.9748 C   0  0  0  0  0  0  0  0  0  0  0  0
  150.8499  136.2613  155.5886 C   0  0  0  0  0  0  0  0  0  0  0  0
  150.9002  137.6658  155.3848 N   0  0  0  0  0  0  0  0  0  0  0  0
  151.9552  138.4314  155.0505 C   0  0  0  0  0  0  0  0  0  0  0  0
  153.0657  137.9192  154.8642 O   0  0  0  0  0  0  0  0  0  0  0  0
  151.6265  139.7498  154.9538 N   0  5  0  0  0  0  0  0  0  0  0  0
  150.7257  140.4545  155.8646 C   0  0  0  0  0  0  0  0  0  0  0  0
  151.2464  140.3639  157.3139 C   0  0  0  0  0  0  0  0  0  0  0  0
  151.8124  141.6580  157.7824 N   0  3  2  0  0  0  0  0  0  0  0  0
  152.2882  141.6421  159.1961 C   0  0  0  0  0  0  0  0  0  0  0  0
  153.0703  142.9236  159.5277 C   0  0  0  0  0  0  0  0  0  0  0  0
  152.2324  144.1757  159.2400 C   0  0  0  0  0  0  0  0  0  0  0  0
  151.7183  144.1471  157.7926 C   0  0  0  0  0  0  0  0  0  0  0  0
  150.9575  142.8431  157.4725 C   0  0  2  0  0  0  0  0  0  0  0  0
  149.5699  142.7902  158.1487 C   0  0  0  0  0  0  0  0  0  0  0  0
  151.6804  135.5386  156.3257 N   0  0  0  0  0  0  0  0  0  0  0  0
  151.2183  134.2220  156.2136 O   0  0  0  0  0  0  0  0  0  0  0  0
  148.7274  132.9570  154.3826 H   0  0  0  0  0  0  0  0  0  0  0  0
  148.9951  132.5264  156.0732 H   0  0  0  0  0  0  0  0  0  0  0  0
  150.2211  132.1487  154.8609 H   0  0  0  0  0  0  0  0  0  0  0  0
  149.0322  135.7881  154.3268 H   0  0  0  0  0  0  0  0  0  0  0  0
  150.0296  138.1576  155.5220 H   0  0  0  0  0  0  0  0  0  0  0  0
  150.6379  141.5050  155.5870 H   0  0  0  0  0  0  0  0  0  0  0  0
  149.7090  140.0607  155.8260 H   0  0  0  0  0  0  0  0  0  0  0  0
  150.4080  140.0812  157.9523 H   0  0  0  0  0  0  0  0  0  0  0  0
  151.9886  139.5706  157.4178 H   0  0  0  0  0  0  0  0  0  0  0  0
  151.4446  141.5229  159.8763 H   0  0  0  0  0  0  0  0  0  0  0  0
  152.9383  140.7830  159.3640 H   0  0  0  0  0  0  0  0  0  0  0  0
  153.3777  142.9129  160.5739 H   0  0  0  0  0  0  0  0  0  0  0  0
  153.9868  142.9538  158.9369 H   0  0  0  0  0  0  0  0  0  0  0  0
  151.3951  144.2290  159.9360 H   0  0  0  0  0  0  0  0  0  0  0  0
  152.8295  145.0724  159.4083 H   0  0  0  0  0  0  0  0  0  0  0  0
  151.0837  145.0135  157.6028 H   0  0  0  0  0  0  0  0  0  0  0  0
  152.5671  144.2404  157.1136 H   0  0  0  0  0  0  0  0  0  0  0  0
  150.7872  142.8382  156.3947 H   0  0  0  0  0  0  0  0  0  0  0  0
  148.9714  143.6556  157.8636 H   0  0  0  0  0  0  0  0  0  0  0  0
  149.6358  142.7888  159.2360 H   0  0  0  0  0  0  0  0  0  0  0  0
  149.0081  141.9045  157.8526 H   0  0  0  0  0  0  0  0  0  0  0  0
  152.6405  141.7862  157.2182 H   0  0  0  0  0  0  0  0  0  0  0  0
  1  2  1  0  0  0  0
  1 20  1  0  0  0  0
  1 21  1  0  0  0  0
  1 22  1  0  0  0  0
  2 19  1  0  0  0  0
  2  3  2  0  0  0  0
  3  4  1  0  0  0  0
  3 23  1  0  0  0  0
  4  5  1  0  0  0  0
  4 18  2  0  0  0  0
  5  6  1  0  0  0  0
  5 24  1  0  0  0  0
  6  7  2  0  0  0  0
  6  8  1  0  0  0  0
  8  9  1  0  0  0  0
  9 10  1  0  0  0  0
  9 25  1  0  0  0  0
  9 26  1  0  0  0  0
 10 11  1  0  0  0  0
 10 27  1  0  0  0  0
 10 28  1  0  0  0  0
 11 16  1  0  0  0  0
 11 12  1  0  0  0  0
 11 41  1  0  0  0  0
 12 13  1  0  0  0  0
 12 29  1  0  0  0  0
 12 30  1  0  0  0  0
 13 14  1  0  0  0  0
 13 31  1  0  0  0  0
 13 32  1  0  0  0  0
 14 15  1  0  0  0  0
 14 33  1  0  0  0  0
 14 34  1  0  0  0  0
 15 16  1  0  0  0  0
 15 35  1  0  0  0  0
 15 36  1  0  0  0  0
 16 17  1  0  0  0  0
 16 37  1  0  0  0  0
 17 38  1  0  0  0  0
 17 39  1  0  0  0  0
 17 40  1  0  0  0  0
 18 19  1  0  0  0  0
M  CHG  1   8  -1
M  CHG  1  11   1
M  END
> <s_m_source_file>
AV-unprocessed.smi

> <i_m_source_file_index>
2079

> <i_lp_mmshare_version>
43012

> <i_f3d_flags>
0

> <s_epik_input>
W0NIM11jMVtjSF1jKG5vMSlbTkhdQyg9TylbTkhdW0NIMl1bQ0gyXU4yW0NIMl1bQ0gyXVtDSDJdW0NIMl1bQ0BIXTJbQ0gzXQ==

> <s_epik_cmdline>
J2VwaWtfcHl0aG9uJywgJy1waCcsICc3LjAnLCAnLXRuJywgJzgnLCAnLW1hJywgJzIwMCcsICctbWV0YWxfYmluZGluZycsICctaW1hZScsICc8aW5maWxlLm1hZT4nLCAnLW9tYWUnLCAnPG91dGZpbGUubWFlPic=

> <r_epik_Ionization_Penalty>
6.7666

> <r_epik_Ionization_Penalty_Charging>
6.7666

> <r_epik_Ionization_Penalty_Neutral>
5.77131e-06

> <r_epik_State_Penalty>
6.79217

> <r_epik_Charging_Adjusted_Penalty>
13.5588

> <i_epik_Tot_Q>
0

> <i_epik_Tot_abs_Q>
2

> <r_epik_Metal_State_Penalty>
2.72569

> <b_epik_Metal_Only>
1

> <s_lp_Force_Field>
OPLS_2005

> <r_lp_Energy>
14.7709

> <b_lp_Chiralities_Consistent>
1

> <s_lp_Variant>
AV-unprocessed.smi:2079-11

> <Gold.Version>
5.8.1

> <Gold.Id.Protein>
6NUR|6NUR_protein|mol2

> <Gold.PLP.Fitness>
42.0003

> <Gold.PLP.PLP>
-38.0914

> <Gold.PLP.part.hbond>
-3.2377

> <Gold.PLP.part.metal>
0.0000

> <Gold.PLP.part.buried>
-4.8878

> <Gold.PLP.part.nonpolar>
-31.1613

> <Gold.PLP.part.repulsive>
0.2241

> <Gold.PLP.ligand.clash>
0.0000

> <Gold.PLP.ligand.torsion>
1.1101

> <Gold.PLP.Chemscore.Hbond>
2.0000

> <Gold.PLP.Chemscore.CHOScore>
0.0000

> <Gold.PLP.Chemscore.Metal>
0.0000

> <Gold.Chemscore.Hbonds>
donor molecule, donor type, donor heavy atom, donor atom, acceptor molecule, acceptor atom, score
      P1  H  7989  7998       L1     8  1.00
      P1  H 10752 10765       L1    18  0.95

> <Gold.PLP.Chemscore.Internal.Correction>
0.1291

> <Gold.Rescore>
     Score         DG    S(hbond)    S(metal)    S(lipo)     H(rot)  DE(clash)    DE(int)     intcor
     16.28     -17.35       1.78        0.00      84.44       1.54       0.12       0.95       ----

> <Gold.Chemscore.Fitness>
16.2799

> <Gold.Chemscore.DG>
-17.3476

> <Gold.Chemscore.ZeroCoef>
-5.4800

> <Gold.Chemscore.Hbond>
1.7764

> <Gold.Chemscore.Metal>
0.0000

> <Gold.Chemscore.Lipo>
84.4372

> <Gold.Chemscore.Internal_Hbond>
0.0000

> <Gold.Chemscore.DEClash>
0.1219

> <Gold.Chemscore.DEInternal>
0.9458

> <Gold.Chemscore.Rot>
1.5409

> <Gold.Chemscore.Internal.Correction>
   9.000000E+99

> <Gold.Chemscore.Hbonds>
donor molecule, donor type, donor heavy atom, donor atom, acceptor molecule, acceptor atom, score
      P1  H  7989  7998       L1     8  0.34
      P1  H 10752 10765       L1    18  0.08

> <Gold.Chemscore.Hbond.Weighted>
-5.9331

> <Gold.Chemscore.Metal.Weighted>
-0.0000

> <Gold.Chemscore.Lipo.Weighted>
-9.8792

> <Gold.Chemscore.Internal_Hbond.Weighted>
0.0000

> <Gold.Chemscore.DEClash.Weighted>
0.1219

> <Gold.Chemscore.DEInternal.Weighted>
0.9458

> <Gold.Chemscore.Rot.Weighted>
3.9446

> <Gold.Chemscore.Internal.Correction.Weighted>
   9.000000E+99

> <Gold.Protein.RotatedTorsions>
[ 6907 6896 6895 6894 ] final  167.50 input  -60.11 | X-H torsion
[ 7974 7965 7964 7962 ] final   91.03 input  175.53 | X-H torsion
[ 8008 7997 7996 7995 ] final  -44.10 input   59.86 | X-H torsion
[ 10167 10162 10161 10158 ] final  -58.56 input  -65.29 | X-H torsion
[ 10718 10713 10712 10709 ] final   69.58 input   66.30 | X-H torsion
[ 10763 10752 10751 10750 ] final -138.01 input  -60.55 | X-H torsion
[ 11005 11000 10999 10996 ] final  -74.36 input  -57.11 | X-H torsion

> <Gold.Protein.ActiveResidues>
 VAL166  LYS551  ARG553  GLY616  TRP617  ASP618  TYR619  PRO620  LYS621  CYS622 
 ASP623  PHE694  ASN695  SER759  ASP760  ASP761  ALA762  ILE779  LEU786  VAL792 
 PHE793  MET794  SER795  GLU796  ALA797  LYS798  CYS799  TRP800  GLU811  SER814 

> <Gold.Protein.RotatedAtoms>
  151.8623  133.3459  159.3707 H   0  0  0  0  0  0  0  0  0  0  0  0  # atno 6907 bound_to 6896
  150.7175  134.5194  159.5655 H   0  0  0  0  0  0  0  0  0  0  0  0  # atno 6908 bound_to 6896
  152.2710  134.7933  160.0465 H   0  0  0  0  0  0  0  0  0  0  0  0  # atno 6909 bound_to 6896
  145.5111  139.2277  143.2724 H   0  0  0  0  0  0  0  0  0  0  0  0  # atno 7974 bound_to 7965
  154.3997  140.1431  156.3627 H   0  0  0  0  0  0  0  0  0  0  0  0  # atno 8008 bound_to 7997
  155.8166  140.3471  155.5468 H   0  0  0  0  0  0  0  0  0  0  0  0  # atno 8009 bound_to 7997
  155.8332  140.0915  157.1770 H   0  0  0  0  0  0  0  0  0  0  0  0  # atno 8010 bound_to 7997
  140.6189  143.2412  151.5528 H   0  0  0  0  0  0  0  0  0  0  0  0  # atno 10167 bound_to 10162
  157.6353  130.9433  150.0532 H   0  0  0  0  0  0  0  0  0  0  0  0  # atno 10718 bound_to 10713
  154.8648  135.3625  154.5315 H   0  0  0  0  0  0  0  0  0  0  0  0  # atno 10763 bound_to 10752
  153.5941  135.7014  153.5416 H   0  0  0  0  0  0  0  0  0  0  0  0  # atno 10764 bound_to 10752
  153.3348  135.4114  155.1486 H   0  0  0  0  0  0  0  0  0  0  0  0  # atno 10765 bound_to 10752
  141.1634  133.6909  156.7352 H   0  0  0  0  0  0  0  0  0  0  0  0  # atno 11005 bound_to 11000
  146.2166  140.5918  142.9036 LP  0  0  0  0  0  0  0  0  0  0  0  0  # atno 17320 bound_to 7965
  144.7727  140.5672  143.6659 LP  0  0  0  0  0  0  0  0  0  0  0  0  # atno 17321 bound_to 7965
  139.5422  144.2617  152.1373 LP  0  0  0  0  0  0  0  0  0  0  0  0  # atno 17342 bound_to 10162
  140.1832  144.4824  150.6517 LP  0  0  0  0  0  0  0  0  0  0  0  0  # atno 17343 bound_to 10162
  156.1588  130.3643  149.9330 LP  0  0  0  0  0  0  0  0  0  0  0  0  # atno 17370 bound_to 10713
  156.7333  130.9051  151.3627 LP  0  0  0  0  0  0  0  0  0  0  0  0  # atno 17371 bound_to 10713
  140.2715  134.8388  157.3851 LP  0  0  0  0  0  0  0  0  0  0  0  0  # atno 17394 bound_to 11000
  140.1517  134.4841  155.7957 LP  0  0  0  0  0  0  0  0  0  0  0  0  # atno 17395 bound_to 11000

$$$$
