AV-unprocessed.smi:1005|AV-procd|sdf|4387|dock3
  -GOLD-   22720 2313D 1   1.00000     0.00000
 Structure written by MMmdl.
 55 57  0  0  0  0  0  0  0  0  1 V2000
  152.9340  143.0515  161.4892 C   0  0  0  0  0  0  0  0  0  0  0  0
  152.3686  142.6589  160.1357 C   0  0  0  0  0  0  0  0  0  0  0  0
  152.8070  141.4596  159.5300 C   0  0  0  0  0  0  0  0  0  0  0  0
  152.3059  141.0581  158.2722 C   0  0  0  0  0  0  0  0  0  0  0  0
  152.5906  139.9411  157.5054 N   0  0  0  0  0  0  0  0  0  0  0  0
  151.8088  140.1359  156.4472 C   0  0  0  0  0  0  0  0  0  0  0  0
  151.0504  141.2491  156.4379 N   0  0  0  0  0  0  0  0  0  0  0  0
  150.1261  141.6747  155.4023 C   0  0  0  0  0  0  0  0  0  0  0  0
  149.4591  140.4853  154.6866 C   0  0  1  0  0  0  0  0  0  0  0  0
  150.3865  139.9029  153.7908 O   0  0  0  0  0  0  0  0  0  0  0  0
  148.9929  139.4104  155.6900 C   0  0  0  0  0  0  0  0  0  0  0  0
  148.4090  138.2040  155.1014 N   0  0  0  0  0  0  0  0  0  0  0  0
  148.3318  137.1303  156.0853 C   0  0  0  0  0  0  0  0  0  0  0  0
  147.7154  135.8521  155.4941 C   0  0  0  0  0  0  0  0  0  0  0  0
  146.4323  136.1531  154.9557 O   0  0  0  0  0  0  0  0  0  0  0  0
  146.4740  137.1473  153.9342 C   0  0  1  0  0  0  0  0  0  0  0  0
  145.0362  137.3473  153.4110 C   0  0  0  0  0  0  0  0  0  0  0  0
  144.4382  136.1921  152.7388 N   0  0  0  0  0  0  0  0  0  0  0  0
  144.9976  135.9591  151.4133 C   0  0  0  0  0  0  0  0  0  0  0  0
  142.9913  136.3361  152.6577 C   0  0  0  0  0  0  0  0  0  0  0  0
  147.0745  138.4309  154.5491 C   0  0  0  0  0  0  0  0  0  0  0  0
  151.3459  141.8955  157.6327 C   0  0  0  0  0  0  0  0  0  0  0  0
  150.9017  143.0908  158.2251 C   0  0  0  0  0  0  0  0  0  0  0  0
  151.4126  143.4774  159.4817 C   0  0  0  0  0  0  0  0  0  0  0  0
  150.9274  144.7712  160.1114 C   0  0  0  0  0  0  0  0  0  0  0  0
  153.6993  142.3487  161.8202 H   0  0  0  0  0  0  0  0  0  0  0  0
  152.1448  143.0664  162.2414 H   0  0  0  0  0  0  0  0  0  0  0  0
  153.3882  144.0415  161.4430 H   0  0  0  0  0  0  0  0  0  0  0  0
  153.5346  140.8355  160.0278 H   0  0  0  0  0  0  0  0  0  0  0  0
  151.7872  139.4299  155.6299 H   0  0  0  0  0  0  0  0  0  0  0  0
  149.3736  142.3272  155.8478 H   0  0  0  0  0  0  0  0  0  0  0  0
  150.6805  142.2816  154.6855 H   0  0  0  0  0  0  0  0  0  0  0  0
  148.6192  140.8664  154.1080 H   0  0  0  0  0  0  0  0  0  0  0  0
  149.9676  139.7961  152.9507 H   0  0  0  0  0  0  0  0  0  0  0  0
  149.8485  139.1323  156.3077 H   0  0  0  0  0  0  0  0  0  0  0  0
  148.2689  139.8534  156.3758 H   0  0  0  0  0  0  0  0  0  0  0  0
  149.3279  136.9050  156.4680 H   0  0  0  0  0  0  0  0  0  0  0  0
  147.7352  137.4542  156.9398 H   0  0  0  0  0  0  0  0  0  0  0  0
  148.3577  135.4353  154.7168 H   0  0  0  0  0  0  0  0  0  0  0  0
  147.6088  135.0895  156.2655 H   0  0  0  0  0  0  0  0  0  0  0  0
  147.1104  136.7776  153.1275 H   0  0  0  0  0  0  0  0  0  0  0  0
  144.4109  137.5843  154.2731 H   0  0  0  0  0  0  0  0  0  0  0  0
  144.9869  138.2284  152.7694 H   0  0  0  0  0  0  0  0  0  0  0  0
  144.4938  135.1260  150.9220 H   0  0  0  0  0  0  0  0  0  0  0  0
  146.0541  135.6998  151.4735 H   0  0  0  0  0  0  0  0  0  0  0  0
  144.8917  136.8402  150.7790 H   0  0  0  0  0  0  0  0  0  0  0  0
  142.5385  135.4514  152.2089 H   0  0  0  0  0  0  0  0  0  0  0  0
  142.7146  137.2023  152.0552 H   0  0  0  0  0  0  0  0  0  0  0  0
  142.5566  136.4594  153.6504 H   0  0  0  0  0  0  0  0  0  0  0  0
  146.4117  138.8026  155.3323 H   0  0  0  0  0  0  0  0  0  0  0  0
  147.1102  139.2042  153.7862 H   0  0  0  0  0  0  0  0  0  0  0  0
  150.1742  143.7046  157.7147 H   0  0  0  0  0  0  0  0  0  0  0  0
  150.1463  145.2374  159.5099 H   0  0  0  0  0  0  0  0  0  0  0  0
  151.7494  145.4818  160.2027 H   0  0  0  0  0  0  0  0  0  0  0  0
  150.5170  144.5858  161.1043 H   0  0  0  0  0  0  0  0  0  0  0  0
  1  2  1  0  0  0  0
  1 26  1  0  0  0  0
  1 27  1  0  0  0  0
  1 28  1  0  0  0  0
  2 24  1  0  0  0  0
  2  3  2  0  0  0  0
  3  4  1  0  0  0  0
  3 29  1  0  0  0  0
  4 22  2  0  0  0  0
  4  5  1  0  0  0  0
  5  6  2  0  0  0  0
  6  7  1  0  0  0  0
  6 30  1  0  0  0  0
  7  8  1  0  0  0  0
  7 22  1  0  0  0  0
  8  9  1  0  0  0  0
  8 31  1  0  0  0  0
  8 32  1  0  0  0  0
  9 10  1  0  0  0  0
  9 11  1  0  0  0  0
  9 33  1  0  0  0  0
 10 34  1  0  0  0  0
 11 12  1  0  0  0  0
 11 35  1  0  0  0  0
 11 36  1  0  0  0  0
 12 21  1  0  0  0  0
 12 13  1  0  0  0  0
 13 14  1  0  0  0  0
 13 37  1  0  0  0  0
 13 38  1  0  0  0  0
 14 15  1  0  0  0  0
 14 39  1  0  0  0  0
 14 40  1  0  0  0  0
 15 16  1  0  0  0  0
 16 17  1  0  0  0  0
 16 21  1  0  0  0  0
 16 41  1  0  0  0  0
 17 18  1  0  0  0  0
 17 42  1  0  0  0  0
 17 43  1  0  0  0  0
 18 19  1  0  0  0  0
 18 20  1  0  0  0  0
 19 44  1  0  0  0  0
 19 45  1  0  0  0  0
 19 46  1  0  0  0  0
 20 47  1  0  0  0  0
 20 48  1  0  0  0  0
 20 49  1  0  0  0  0
 21 50  1  0  0  0  0
 21 51  1  0  0  0  0
 22 23  1  0  0  0  0
 23 24  2  0  0  0  0
 23 52  1  0  0  0  0
 24 25  1  0  0  0  0
 25 53  1  0  0  0  0
 25 54  1  0  0  0  0
 25 55  1  0  0  0  0
M  END
> <s_m_source_file>
AV-unprocessed.smi

> <i_m_source_file_index>
1005

> <i_lp_mmshare_version>
43012

> <i_f3d_flags>
0

> <s_epik_input>
W0NIM11jKFtjSF0xKWMoW0NIM10pW2NIXWMoYzEyKW4oW2NIXW4yKVtDSDJdW0NASF0oW09IXSlbQ0gyXU4zW0NIMl1bQ0gyXU9bQ0BIXShbQ0gyXTMpW0NIMl1OKFtDSDNdKVtDSDNd

> <s_epik_cmdline>
J2VwaWtfcHl0aG9uJywgJy1waCcsICc3LjAnLCAnLXRuJywgJzgnLCAnLW1hJywgJzIwMCcsICctbWV0YWxfYmluZGluZycsICctaW1hZScsICc8aW5maWxlLm1hZT4nLCAnLW9tYWUnLCAnPG91dGZpbGUubWFlPic=

> <r_epik_Ionization_Penalty>
2.78613

> <r_epik_Ionization_Penalty_Charging>
0

> <r_epik_Ionization_Penalty_Neutral>
2.78613

> <r_epik_State_Penalty>
2.57336

> <r_epik_Charging_Adjusted_Penalty>
2.57336

> <i_epik_Tot_Q>
0

> <i_epik_Tot_abs_Q>
0

> <r_epik_Metal_State_Penalty>
2.49087

> <b_epik_Metal_Only>
0

> <s_lp_Force_Field>
OPLS_2005

> <r_lp_Energy>
38.3146

> <b_lp_Chiralities_Consistent>
1

> <s_lp_Variant>
AV-unprocessed.smi:1005-26

> <Gold.Version>
5.8.1

> <Gold.Id.Protein>
6NUR|6NUR_protein|mol2

> <Gold.PLP.Fitness>
48.6552

> <Gold.PLP.PLP>
-41.0846

> <Gold.PLP.part.hbond>
-2.9018

> <Gold.PLP.part.metal>
0.0000

> <Gold.PLP.part.buried>
-4.4147

> <Gold.PLP.part.nonpolar>
-32.7865

> <Gold.PLP.part.repulsive>
0.2481

> <Gold.PLP.ligand.clash>
0.0000

> <Gold.PLP.ligand.torsion>
0.7191

> <Gold.PLP.Chemscore.Hbond>
2.9760

> <Gold.PLP.Chemscore.CHOScore>
0.0000

> <Gold.PLP.Chemscore.Metal>
0.0000

> <Gold.Chemscore.Hbonds>
donor molecule, donor type, donor heavy atom, donor atom, acceptor molecule, acceptor atom, score
      L1  H    10    34       P1  7957  1.00
      P1  H  7989  7998       L1    10  0.94
      P1  H  7997  8009       L1     5  1.00

> <Gold.PLP.Chemscore.Internal.Correction>
0.0808

> <Gold.Rescore>
     Score         DG    S(hbond)    S(metal)    S(lipo)     H(rot)  DE(clash)    DE(int)     intcor
     18.20     -20.58       2.43        0.00     109.86       2.29       0.13       2.25       ----

> <Gold.Chemscore.Fitness>
18.1976

> <Gold.Chemscore.DG>
-20.5843

> <Gold.Chemscore.ZeroCoef>
-5.4800

> <Gold.Chemscore.Hbond>
2.4287

> <Gold.Chemscore.Metal>
0.0000

> <Gold.Chemscore.Lipo>
109.8584

> <Gold.Chemscore.Internal_Hbond>
0.0000

> <Gold.Chemscore.DEClash>
0.1349

> <Gold.Chemscore.DEInternal>
2.2517

> <Gold.Chemscore.Rot>
2.2895

> <Gold.Chemscore.Internal.Correction>
   9.000000E+99

> <Gold.Chemscore.Hbonds>
donor molecule, donor type, donor heavy atom, donor atom, acceptor molecule, acceptor atom, score
      L1  H    10    34       P1  7957  0.99
      P1  H  7989  7998       L1    10  0.30
      P1  H  7997  8009       L1     5  0.32

> <Gold.Chemscore.Hbond.Weighted>
-8.1120

> <Gold.Chemscore.Metal.Weighted>
-0.0000

> <Gold.Chemscore.Lipo.Weighted>
-12.8534

> <Gold.Chemscore.Internal_Hbond.Weighted>
0.0000

> <Gold.Chemscore.DEClash.Weighted>
0.1349

> <Gold.Chemscore.DEInternal.Weighted>
2.2517

> <Gold.Chemscore.Rot.Weighted>
5.8612

> <Gold.Chemscore.Internal.Correction.Weighted>
   9.000000E+99

> <Gold.Protein.RotatedTorsions>
[ 6907 6896 6895 6894 ] final -121.32 input  -60.11 | X-H torsion
[ 7974 7965 7964 7962 ] final  172.12 input  175.53 | X-H torsion
[ 8008 7997 7996 7995 ] final  171.16 input   59.86 | X-H torsion
[ 10167 10162 10161 10158 ] final   94.66 input  -65.29 | X-H torsion
[ 10718 10713 10712 10709 ] final -171.11 input   66.30 | X-H torsion
[ 10763 10752 10751 10750 ] final   23.84 input  -60.55 | X-H torsion
[ 11005 11000 10999 10996 ] final   80.27 input  -57.11 | X-H torsion

> <Gold.Protein.ActiveResidues>
 VAL166  LYS551  ARG553  GLY616  TRP617  ASP618  TYR619  PRO620  LYS621  CYS622 
 ASP623  PHE694  ASN695  SER759  ASP760  ASP761  ALA762  ILE779  LEU786  VAL792 
 PHE793  MET794  SER795  GLU796  ALA797  LYS798  CYS799  TRP800  GLU811  SER814 

> <Gold.Protein.RotatedAtoms>
  150.8473  133.7841  159.3038 H   0  0  0  0  0  0  0  0  0  0  0  0  # atno 6907 bound_to 6896
  151.5524  135.1065  159.9962 H   0  0  0  0  0  0  0  0  0  0  0  0  # atno 6908 bound_to 6896
  152.4524  133.7612  159.6804 H   0  0  0  0  0  0  0  0  0  0  0  0  # atno 6909 bound_to 6896
  144.7276  139.9451  143.6430 H   0  0  0  0  0  0  0  0  0  0  0  0  # atno 7974 bound_to 7965
  156.1297  140.1519  156.9084 H   0  0  0  0  0  0  0  0  0  0  0  0  # atno 8008 bound_to 7997
  154.4899  140.0854  156.7611 H   0  0  0  0  0  0  0  0  0  0  0  0  # atno 8009 bound_to 7997
  155.4278  140.3426  155.4279 H   0  0  0  0  0  0  0  0  0  0  0  0  # atno 8010 bound_to 7997
  139.8063  144.6792  150.9699 H   0  0  0  0  0  0  0  0  0  0  0  0  # atno 10167 bound_to 10162
  156.7361  130.9324  151.3107 H   0  0  0  0  0  0  0  0  0  0  0  0  # atno 10718 bound_to 10713
  153.0808  135.6618  154.0048 H   0  0  0  0  0  0  0  0  0  0  0  0  # atno 10763 bound_to 10752
  153.9670  135.2968  155.3431 H   0  0  0  0  0  0  0  0  0  0  0  0  # atno 10764 bound_to 10752
  154.7207  135.5166  153.8879 H   0  0  0  0  0  0  0  0  0  0  0  0  # atno 10765 bound_to 10752
  139.9141  134.7907  156.1887 H   0  0  0  0  0  0  0  0  0  0  0  0  # atno 11005 bound_to 11000
  146.0755  139.3743  143.0497 LP  0  0  0  0  0  0  0  0  0  0  0  0  # atno 17320 bound_to 7965
  145.7911  140.9814  143.1048 LP  0  0  0  0  0  0  0  0  0  0  0  0  # atno 17321 bound_to 7965
  140.7819  143.4230  151.0811 LP  0  0  0  0  0  0  0  0  0  0  0  0  # atno 17342 bound_to 10162
  139.7899  143.8233  152.3150 LP  0  0  0  0  0  0  0  0  0  0  0  0  # atno 17343 bound_to 10162
  157.6838  130.9166  150.0335 LP  0  0  0  0  0  0  0  0  0  0  0  0  # atno 17370 bound_to 10713
  156.1496  130.3642  149.9458 LP  0  0  0  0  0  0  0  0  0  0  0  0  # atno 17371 bound_to 10713
  141.0597  133.6848  156.1928 LP  0  0  0  0  0  0  0  0  0  0  0  0  # atno 17394 bound_to 11000
  140.6681  134.4897  157.5586 LP  0  0  0  0  0  0  0  0  0  0  0  0  # atno 17395 bound_to 11000

$$$$
