AV-unprocessed.smi:2163|AV-procd|sdf|8804|dock1
  -GOLD-   2272011583D 1   1.00000     0.00000
 Structure written by MMmdl.
 43 45  0  0  0  0  0  0  0  0  1 V2000
  151.6970  140.6214  157.0399 C   0  0  0  0  0  0  0  0  0  0  0  0
  152.0128  141.3583  158.3027 C   0  0  0  0  0  0  0  0  0  0  0  0
  151.5664  142.5929  158.5354 N   0  0  0  0  0  0  0  0  0  0  0  0
  152.0806  142.8703  159.7875 C   0  0  0  0  0  0  0  0  0  0  0  0
  151.9637  144.0249  160.5941 C   0  0  0  0  0  0  0  0  0  0  0  0
  152.5851  144.0775  161.8592 C   0  0  0  0  0  0  0  0  0  0  0  0
  153.3305  142.9793  162.3353 C   0  0  0  0  0  0  0  0  0  0  0  0
  153.4606  141.8197  161.5470 C   0  0  0  0  0  0  0  0  0  0  0  0
  152.8390  141.7730  160.2849 C   0  0  0  0  0  0  0  0  0  0  0  0
  152.7736  140.8107  159.2826 N   0  0  0  0  0  0  0  0  0  0  0  0
  153.3993  139.4961  159.3154 C   0  0  0  0  0  0  0  0  0  0  0  0
  154.7303  139.4955  160.0932 C   0  0  2  0  0  0  0  0  0  0  0  0
  155.8063  139.7354  159.2082 O   0  0  0  0  0  0  0  0  0  0  0  0
  154.9810  138.1672  160.8217 C   0  0  0  0  0  0  0  0  0  0  0  0
  154.1422  138.1119  161.9679 O   0  0  0  0  0  0  0  0  0  0  0  0
  154.2383  137.0161  162.7979 C   0  0  0  0  0  0  0  0  0  0  0  0
  153.9549  137.0391  164.1871 C   0  0  0  0  0  0  0  0  0  0  0  0
  154.0789  135.8673  164.9591 C   0  0  0  0  0  0  0  0  0  0  0  0
  154.4859  134.6603  164.3577 C   0  0  0  0  0  0  0  0  0  0  0  0
  154.6138  133.3997  165.1870 C   0  0  0  0  0  0  0  0  0  0  0  0
  153.7154  132.3360  164.7133 C   0  0  0  0  0  0  0  0  0  0  0  0
  153.0084  131.4993  164.3410 N   0  0  0  0  0  0  0  0  0  0  0  0
  154.7685  134.6305  162.9783 C   0  0  0  0  0  0  0  0  0  0  0  0
  154.6446  135.8019  162.2072 C   0  0  0  0  0  0  0  0  0  0  0  0
  151.1138  141.2493  156.3655 H   0  0  0  0  0  0  0  0  0  0  0  0
  151.1166  139.7255  157.2617 H   0  0  0  0  0  0  0  0  0  0  0  0
  152.6155  140.3313  156.5297 H   0  0  0  0  0  0  0  0  0  0  0  0
  151.3945  144.8710  160.2387 H   0  0  0  0  0  0  0  0  0  0  0  0
  152.4891  144.9649  162.4674 H   0  0  0  0  0  0  0  0  0  0  0  0
  153.8025  143.0276  163.3057 H   0  0  0  0  0  0  0  0  0  0  0  0
  154.0308  140.9764  161.9074 H   0  0  0  0  0  0  0  0  0  0  0  0
  152.6954  138.8044  159.7797 H   0  0  0  0  0  0  0  0  0  0  0  0
  153.5504  139.1335  158.2986 H   0  0  0  0  0  0  0  0  0  0  0  0
  154.7264  140.3030  160.8264 H   0  0  0  0  0  0  0  0  0  0  0  0
  156.4468  140.2680  159.6547 H   0  0  0  0  0  0  0  0  0  0  0  0
  154.7804  137.3285  160.1528 H   0  0  0  0  0  0  0  0  0  0  0  0
  156.0256  138.1103  161.1334 H   0  0  0  0  0  0  0  0  0  0  0  0
  153.6387  137.9430  164.6845 H   0  0  0  0  0  0  0  0  0  0  0  0
  153.8579  135.8974  166.0160 H   0  0  0  0  0  0  0  0  0  0  0  0
  155.6386  133.0295  165.1477 H   0  0  0  0  0  0  0  0  0  0  0  0
  154.3808  133.6099  166.2312 H   0  0  0  0  0  0  0  0  0  0  0  0
  155.0791  133.7089  162.5083 H   0  0  0  0  0  0  0  0  0  0  0  0
  154.8641  135.7682  161.1500 H   0  0  0  0  0  0  0  0  0  0  0  0
  1  2  1  0  0  0  0
  1 25  1  0  0  0  0
  1 26  1  0  0  0  0
  1 27  1  0  0  0  0
  2 10  1  0  0  0  0
  2  3  2  0  0  0  0
  3  4  1  0  0  0  0
  4  9  2  0  0  0  0
  4  5  1  0  0  0  0
  5  6  2  0  0  0  0
  5 28  1  0  0  0  0
  6  7  1  0  0  0  0
  6 29  1  0  0  0  0
  7  8  2  0  0  0  0
  7 30  1  0  0  0  0
  8  9  1  0  0  0  0
  8 31  1  0  0  0  0
  9 10  1  0  0  0  0
 10 11  1  0  0  0  0
 11 12  1  0  0  0  0
 11 32  1  0  0  0  0
 11 33  1  0  0  0  0
 12 13  1  0  0  0  0
 12 14  1  0  0  0  0
 12 34  1  0  0  0  0
 13 35  1  0  0  0  0
 14 15  1  0  0  0  0
 14 36  1  0  0  0  0
 14 37  1  0  0  0  0
 15 16  1  0  0  0  0
 16 24  1  0  0  0  0
 16 17  2  0  0  0  0
 17 18  1  0  0  0  0
 17 38  1  0  0  0  0
 18 19  2  0  0  0  0
 18 39  1  0  0  0  0
 19 20  1  0  0  0  0
 19 23  1  0  0  0  0
 20 21  1  0  0  0  0
 20 40  1  0  0  0  0
 20 41  1  0  0  0  0
 21 22  3  0  0  0  0
 23 24  2  0  0  0  0
 23 42  1  0  0  0  0
 24 43  1  0  0  0  0
M  END
> <s_m_source_file>
AV-unprocessed.smi

> <i_m_source_file_index>
2163

> <i_lp_mmshare_version>
43012

> <i_f3d_flags>
0

> <s_epik_input>
W2NIXTFbY0hdW2NIXVtjSF1jKGMxMiluKGMobjIpW0NIM10pW0NIMl1bQ0BIXShbT0hdKVtDSDJdT2MzW2NIXVtjSF1jKFtDSDJdQyNOKVtjSF1bY0hdMw==

> <s_epik_cmdline>
J2VwaWtfcHl0aG9uJywgJy1waCcsICc3LjAnLCAnLXRuJywgJzgnLCAnLW1hJywgJzIwMCcsICctbWV0YWxfYmluZGluZycsICctaW1hZScsICc8aW5maWxlLm1hZT4nLCAnLW9tYWUnLCAnPG91dGZpbGUubWFlPic=

> <r_lp_tautomer_probability>
1

> <r_epik_Ionization_Penalty>
0.114213

> <r_epik_Ionization_Penalty_Charging>
0

> <r_epik_Ionization_Penalty_Neutral>
0.114213

> <r_epik_State_Penalty>
0.103875

> <r_epik_Charging_Adjusted_Penalty>
0.103875

> <i_epik_Tot_Q>
0

> <i_epik_Tot_abs_Q>
0

> <r_epik_Metal_State_Penalty>
0.000113526

> <b_epik_Metal_Only>
0

> <s_lp_Force_Field>
OPLS_2005

> <r_lp_Energy>
15.1167

> <b_lp_Chiralities_Consistent>
1

> <s_lp_Variant>
AV-unprocessed.smi:2163-1

> <Gold.Version>
5.8.1

> <Gold.Id.Protein>
6NUR|6NUR_protein|mol2

> <Gold.PLP.Fitness>
54.5235

> <Gold.PLP.PLP>
-53.7759

> <Gold.PLP.part.hbond>
-1.0000

> <Gold.PLP.part.metal>
0.0000

> <Gold.PLP.part.buried>
-4.2762

> <Gold.PLP.part.nonpolar>
-47.2276

> <Gold.PLP.part.repulsive>
0.0651

> <Gold.PLP.ligand.clash>
0.0000

> <Gold.PLP.ligand.torsion>
1.2931

> <Gold.PLP.Chemscore.Hbond>
1.0000

> <Gold.PLP.Chemscore.CHOScore>
0.0000

> <Gold.PLP.Chemscore.Metal>
0.0000

> <Gold.Chemscore.Hbonds>
donor molecule, donor type, donor heavy atom, donor atom, acceptor molecule, acceptor atom, score
      P1  H  7997  8009       L1    13  1.00

> <Gold.PLP.Chemscore.Internal.Correction>
0.3337

> <Gold.Rescore>
     Score         DG    S(hbond)    S(metal)    S(lipo)     H(rot)  DE(clash)    DE(int)     intcor
     18.40     -19.40       0.97        0.00     146.30       2.51       0.03       0.97       ----

> <Gold.Chemscore.Fitness>
18.4024

> <Gold.Chemscore.DG>
-19.4039

> <Gold.Chemscore.ZeroCoef>
-5.4800

> <Gold.Chemscore.Hbond>
0.9691

> <Gold.Chemscore.Metal>
0.0000

> <Gold.Chemscore.Lipo>
146.2964

> <Gold.Chemscore.Internal_Hbond>
0.0000

> <Gold.Chemscore.DEClash>
0.0319

> <Gold.Chemscore.DEInternal>
0.9696

> <Gold.Chemscore.Rot>
2.5115

> <Gold.Chemscore.Internal.Correction>
   9.000000E+99

> <Gold.Chemscore.Hbonds>
donor molecule, donor type, donor heavy atom, donor atom, acceptor molecule, acceptor atom, score
      P1  H  7997  8009       L1    13  0.89

> <Gold.Chemscore.Hbond.Weighted>
-3.2367

> <Gold.Chemscore.Metal.Weighted>
-0.0000

> <Gold.Chemscore.Lipo.Weighted>
-17.1167

> <Gold.Chemscore.Internal_Hbond.Weighted>
0.0000

> <Gold.Chemscore.DEClash.Weighted>
0.0319

> <Gold.Chemscore.DEInternal.Weighted>
0.9696

> <Gold.Chemscore.Rot.Weighted>
6.4296

> <Gold.Chemscore.Internal.Correction.Weighted>
   9.000000E+99

> <Gold.Protein.RotatedTorsions>
[ 6907 6896 6895 6894 ] final  -94.36 input  -60.11 | X-H torsion
[ 7974 7965 7964 7962 ] final  -41.47 input  175.53 | X-H torsion
[ 8008 7997 7996 7995 ] final   89.30 input   59.86 | X-H torsion
[ 10167 10162 10161 10158 ] final -171.85 input  -65.29 | X-H torsion
[ 10718 10713 10712 10709 ] final  -86.53 input   66.30 | X-H torsion
[ 10763 10752 10751 10750 ] final -159.70 input  -60.55 | X-H torsion
[ 11005 11000 10999 10996 ] final -168.55 input  -57.11 | X-H torsion

> <Gold.Protein.ActiveResidues>
 VAL166  LYS551  ARG553  GLY616  TRP617  ASP618  TYR619  PRO620  LYS621  CYS622 
 ASP623  PHE694  ASN695  SER759  ASP760  ASP761  ALA762  ILE779  LEU786  VAL792 
 PHE793  MET794  SER795  GLU796  ALA797  LYS798  CYS799  TRP800  GLU811  SER814 

> <Gold.Protein.RotatedAtoms>
  150.6940  134.1824  159.4253 H   0  0  0  0  0  0  0  0  0  0  0  0  # atno 6907 bound_to 6896
  151.9798  135.0032  160.0566 H   0  0  0  0  0  0  0  0  0  0  0  0  # atno 6908 bound_to 6896
  152.1765  133.4644  159.4973 H   0  0  0  0  0  0  0  0  0  0  0  0  # atno 6909 bound_to 6896
  146.0208  140.6852  142.9179 H   0  0  0  0  0  0  0  0  0  0  0  0  # atno 7974 bound_to 7965
  155.9983  140.3362  155.6820 H   0  0  0  0  0  0  0  0  0  0  0  0  # atno 8008 bound_to 7997
  155.6325  140.0686  157.2662 H   0  0  0  0  0  0  0  0  0  0  0  0  # atno 8009 bound_to 7997
  154.4241  140.1757  156.1475 H   0  0  0  0  0  0  0  0  0  0  0  0  # atno 8010 bound_to 7997
  139.5778  144.1492  152.1474 H   0  0  0  0  0  0  0  0  0  0  0  0  # atno 10167 bound_to 10162
  155.9989  130.4768  150.4729 H   0  0  0  0  0  0  0  0  0  0  0  0  # atno 10718 bound_to 10713
  154.7453  135.3078  154.8656 H   0  0  0  0  0  0  0  0  0  0  0  0  # atno 10763 bound_to 10752
  153.9459  135.6769  153.4748 H   0  0  0  0  0  0  0  0  0  0  0  0  # atno 10764 bound_to 10752
  153.1049  135.4894  154.8860 H   0  0  0  0  0  0  0  0  0  0  0  0  # atno 10765 bound_to 10752
  140.5408  134.5524  157.5099 H   0  0  0  0  0  0  0  0  0  0  0  0  # atno 11005 bound_to 11000
  144.6989  140.3563  143.7172 LP  0  0  0  0  0  0  0  0  0  0  0  0  # atno 17320 bound_to 7965
  145.7196  139.1706  143.2492 LP  0  0  0  0  0  0  0  0  0  0  0  0  # atno 17321 bound_to 7965
  140.1038  144.5516  150.6971 LP  0  0  0  0  0  0  0  0  0  0  0  0  # atno 17342 bound_to 10162
  140.7059  143.2468  151.4726 LP  0  0  0  0  0  0  0  0  0  0  0  0  # atno 17343 bound_to 10162
  157.2742  131.0593  151.2240 LP  0  0  0  0  0  0  0  0  0  0  0  0  # atno 17370 bound_to 10713
  157.3309  130.6984  149.6324 LP  0  0  0  0  0  0  0  0  0  0  0  0  # atno 17371 bound_to 10713
  139.9505  134.7625  156.0460 LP  0  0  0  0  0  0  0  0  0  0  0  0  # atno 17394 bound_to 11000
  141.1228  133.6608  156.3259 LP  0  0  0  0  0  0  0  0  0  0  0  0  # atno 17395 bound_to 11000

$$$$
