AV-unprocessed.smi:2588|AV-procd|sdf|10149|dock8
  -GOLD-   2272014163D 1   1.00000     0.00000
 Structure written by MMmdl.
 40 41  0  0  0  0  0  0  0  0  2 V2000
  143.4518  136.2533  152.6234 C   0  0  0  0  0  0  0  0  0  0  0  0
  144.6260  136.7099  151.7318 C   0  0  0  0  0  0  0  0  0  0  0  0
  145.6006  135.5235  151.5705 C   0  0  0  0  0  0  0  0  0  0  0  0
  145.3012  137.9425  152.2567 N   0  3  2  0  0  0  0  0  0  0  0  0
  146.4446  138.3972  151.4103 C   0  0  0  0  0  0  0  0  0  0  0  0
  147.0656  139.7126  151.9184 C   0  0  0  0  0  0  0  0  0  0  0  0
  147.5089  139.6158  153.3839 C   0  0  2  0  0  0  0  0  0  0  0  0
  148.6615  138.7248  153.5080 N   0  0  0  0  0  0  0  0  0  0  0  0
  149.8601  139.0635  154.0063 C   0  0  0  0  0  0  0  0  0  0  0  0
  150.1418  140.2021  154.3798 O   0  0  0  0  0  0  0  0  0  0  0  0
  150.9019  137.9431  154.0898 C   0  0  0  0  0  0  0  0  0  0  0  0
  151.5742  137.9194  155.3889 N   0  0  0  0  0  0  0  0  0  0  0  0
  150.8894  137.4385  156.4611 N   0  0  0  0  0  0  0  0  0  0  0  0
  151.6023  137.4708  157.5257 C   0  0  0  0  0  0  0  0  0  0  0  0
  153.2409  138.1128  157.3490 S   0  0  0  0  0  0  0  0  0  0  0  0
  152.8772  138.3543  155.6181 C   0  0  0  0  0  0  0  0  0  0  0  0
  153.6799  138.8254  154.8133 O   0  0  0  0  0  0  0  0  0  0  0  0
  146.3115  139.1380  154.2240 C   0  0  0  0  0  0  0  0  0  0  0  0
  145.7146  137.8259  153.6863 C   0  0  0  0  0  0  0  0  0  0  0  0
  143.0608  135.2897  152.2946 H   0  0  0  0  0  0  0  0  0  0  0  0
  142.6093  136.9429  152.5869 H   0  0  0  0  0  0  0  0  0  0  0  0
  143.7608  136.1430  153.6633 H   0  0  0  0  0  0  0  0  0  0  0  0
  144.2221  136.9435  150.7455 H   0  0  0  0  0  0  0  0  0  0  0  0
  145.0662  134.6087  151.3123 H   0  0  0  0  0  0  0  0  0  0  0  0
  146.1505  135.3314  152.4926 H   0  0  0  0  0  0  0  0  0  0  0  0
  146.3206  135.6824  150.7682 H   0  0  0  0  0  0  0  0  0  0  0  0
  147.2002  137.6112  151.3689 H   0  0  0  0  0  0  0  0  0  0  0  0
  146.1224  138.5787  150.3867 H   0  0  0  0  0  0  0  0  0  0  0  0
  147.9098  139.9950  151.2876 H   0  0  0  0  0  0  0  0  0  0  0  0
  146.3333  140.5148  151.8173 H   0  0  0  0  0  0  0  0  0  0  0  0
  147.8129  140.6077  153.7229 H   0  0  0  0  0  0  0  0  0  0  0  0
  148.5323  137.7687  153.2101 H   0  0  0  0  0  0  0  0  0  0  0  0
  150.4330  136.9732  153.9140 H   0  0  0  0  0  0  0  0  0  0  0  0
  151.6278  138.0846  153.2875 H   0  0  0  0  0  0  0  0  0  0  0  0
  151.2926  137.1423  158.5177 H   0  0  0  0  0  0  0  0  0  0  0  0
  146.5951  139.0146  155.2695 H   0  0  0  0  0  0  0  0  0  0  0  0
  145.5397  139.9089  154.2163 H   0  0  0  0  0  0  0  0  0  0  0  0
  144.8626  137.5879  154.3198 H   0  0  0  0  0  0  0  0  0  0  0  0
  146.4293  137.0086  153.7963 H   0  0  0  0  0  0  0  0  0  0  0  0
  144.6111  138.6793  152.2214 H   0  0  0  0  0  0  0  0  0  0  0  0
  1  2  1  0  0  0  0
  1 20  1  0  0  0  0
  1 21  1  0  0  0  0
  1 22  1  0  0  0  0
  2  3  1  0  0  0  0
  2  4  1  0  0  0  0
  2 23  1  0  0  0  0
  3 24  1  0  0  0  0
  3 25  1  0  0  0  0
  3 26  1  0  0  0  0
  4 19  1  0  0  0  0
  4  5  1  0  0  0  0
  4 40  1  0  0  0  0
  5  6  1  0  0  0  0
  5 27  1  0  0  0  0
  5 28  1  0  0  0  0
  6  7  1  0  0  0  0
  6 29  1  0  0  0  0
  6 30  1  0  0  0  0
  7  8  1  0  0  0  0
  7 18  1  0  0  0  0
  7 31  1  0  0  0  0
  8  9  1  0  0  0  0
  8 32  1  0  0  0  0
  9 10  2  0  0  0  0
  9 11  1  0  0  0  0
 11 12  1  0  0  0  0
 11 33  1  0  0  0  0
 11 34  1  0  0  0  0
 12 16  1  0  0  0  0
 12 13  1  0  0  0  0
 13 14  2  0  0  0  0
 14 15  1  0  0  0  0
 14 35  1  0  0  0  0
 15 16  1  0  0  0  0
 16 17  2  0  0  0  0
 18 19  1  0  0  0  0
 18 36  1  0  0  0  0
 18 37  1  0  0  0  0
 19 38  1  0  0  0  0
 19 39  1  0  0  0  0
M  CHG  1   4   1
M  END
> <s_m_source_file>
AV-unprocessed.smi

> <i_m_source_file_index>
2588

> <i_lp_mmshare_version>
43012

> <i_f3d_flags>
0

> <s_epik_input>
W0NIM11bQ0hdKFtDSDNdKU4xW0NIMl1bQ0gyXVtDSF0oW0NIMl1bQ0gyXTEpW05IXUMoPU8pW0NIMl1uMm5bY0hdc2MyPU8=

> <s_epik_cmdline>
J2VwaWtfcHl0aG9uJywgJy1waCcsICc3LjAnLCAnLXRuJywgJzgnLCAnLW1hJywgJzIwMCcsICctbWV0YWxfYmluZGluZycsICctaW1hZScsICc8aW5maWxlLm1hZT4nLCAnLW9tYWUnLCAnPG91dGZpbGUubWFlPic=

> <r_lp_tautomer_probability>
1

> <r_epik_Ionization_Penalty>
0.00923155

> <r_epik_Ionization_Penalty_Charging>
0.00923117

> <r_epik_Ionization_Penalty_Neutral>
3.88423e-07

> <r_epik_State_Penalty>
0.0069994

> <r_epik_Charging_Adjusted_Penalty>
0.0162306

> <i_epik_Tot_Q>
1

> <i_epik_Tot_abs_Q>
1

> <r_epik_Metal_State_Penalty>
0.0069994

> <b_epik_Metal_Only>
0

> <s_lp_Force_Field>
OPLS_2005

> <r_lp_Energy>
20.7245

> <b_lp_Chiralities_Consistent>
1

> <s_lp_Variant>
AV-unprocessed.smi:2588-2

> <Gold.Version>
5.8.1

> <Gold.Id.Protein>
6NUR|6NUR_protein|mol2

> <Gold.PLP.Fitness>
43.6589

> <Gold.PLP.PLP>
-29.8314

> <Gold.PLP.part.hbond>
-6.0000

> <Gold.PLP.part.metal>
0.0000

> <Gold.PLP.part.buried>
5.2745

> <Gold.PLP.part.nonpolar>
-29.2758

> <Gold.PLP.part.repulsive>
0.1722

> <Gold.PLP.ligand.clash>
0.0000

> <Gold.PLP.ligand.torsion>
0.3763

> <Gold.PLP.Chemscore.Hbond>
4.8483

> <Gold.PLP.Chemscore.CHOScore>
0.0000

> <Gold.PLP.Chemscore.Metal>
0.0000

> <Gold.Chemscore.Hbonds>
donor molecule, donor type, donor heavy atom, donor atom, acceptor molecule, acceptor atom, score
      L1  H     4    40       P1 10175  2.00
      L1  H     8    32       P1  7948  0.86
      P1  H  7989  7998       L1    10  1.00
      P1  H  7997  8010       L1    17  0.98

> <Gold.PLP.Chemscore.Internal.Correction>
0.0353

> <Gold.Rescore>
     Score         DG    S(hbond)    S(metal)    S(lipo)     H(rot)  DE(clash)    DE(int)     intcor
     16.38     -18.90       3.25        0.00      62.96       1.88       2.00       0.52       ----

> <Gold.Chemscore.Fitness>
16.3844

> <Gold.Chemscore.DG>
-18.8991

> <Gold.Chemscore.ZeroCoef>
-5.4800

> <Gold.Chemscore.Hbond>
3.2496

> <Gold.Chemscore.Metal>
0.0000

> <Gold.Chemscore.Lipo>
62.9648

> <Gold.Chemscore.Internal_Hbond>
0.0000

> <Gold.Chemscore.DEClash>
1.9984

> <Gold.Chemscore.DEInternal>
0.5163

> <Gold.Chemscore.Rot>
1.8756

> <Gold.Chemscore.Internal.Correction>
   9.000000E+99

> <Gold.Chemscore.Hbonds>
donor molecule, donor type, donor heavy atom, donor atom, acceptor molecule, acceptor atom, score
      L1  H     4    40       P1 10175  0.95
      L1  H     8    32       P1  7948  0.80
      P1  H  7989  7998       L1    10  0.78
      P1  H  7997  8010       L1    17  0.52

> <Gold.Chemscore.Hbond.Weighted>
-10.8537

> <Gold.Chemscore.Metal.Weighted>
-0.0000

> <Gold.Chemscore.Lipo.Weighted>
-7.3669

> <Gold.Chemscore.Internal_Hbond.Weighted>
0.0000

> <Gold.Chemscore.DEClash.Weighted>
1.9984

> <Gold.Chemscore.DEInternal.Weighted>
0.5163

> <Gold.Chemscore.Rot.Weighted>
4.8015

> <Gold.Chemscore.Internal.Correction.Weighted>
   9.000000E+99

> <Gold.Protein.RotatedTorsions>
[ 6907 6896 6895 6894 ] final -146.93 input  -60.11 | X-H torsion
[ 7974 7965 7964 7962 ] final -153.42 input  175.53 | X-H torsion
[ 8008 7997 7996 7995 ] final  116.76 input   59.86 | X-H torsion
[ 10167 10162 10161 10158 ] final -150.66 input  -65.29 | X-H torsion
[ 10718 10713 10712 10709 ] final  -40.55 input   66.30 | X-H torsion
[ 10763 10752 10751 10750 ] final -175.17 input  -60.55 | X-H torsion
[ 11005 11000 10999 10996 ] final   76.28 input  -57.11 | X-H torsion

> <Gold.Protein.ActiveResidues>
 VAL166  LYS551  ARG553  GLY616  TRP617  ASP618  TYR619  PRO620  LYS621  CYS622 
 ASP623  PHE694  ASN695  SER759  ASP760  ASP761  ALA762  ILE779  LEU786  VAL792 
 PHE793  MET794  SER795  GLU796  ALA797  LYS798  CYS799  TRP800  GLU811  SER814 

> <Gold.Protein.RotatedAtoms>
  151.1486  133.4923  159.2595 H   0  0  0  0  0  0  0  0  0  0  0  0  # atno 6907 bound_to 6896
  151.1578  135.0258  159.8707 H   0  0  0  0  0  0  0  0  0  0  0  0  # atno 6908 bound_to 6896
  152.5463  134.1363  159.8513 H   0  0  0  0  0  0  0  0  0  0  0  0  # atno 6909 bound_to 6896
  144.7741  140.4528  143.5886 H   0  0  0  0  0  0  0  0  0  0  0  0  # atno 7974 bound_to 7965
  156.2457  140.2910  156.0573 H   0  0  0  0  0  0  0  0  0  0  0  0  # atno 8008 bound_to 7997
  155.1815  140.0404  157.2900 H   0  0  0  0  0  0  0  0  0  0  0  0  # atno 8009 bound_to 7997
  154.6257  140.2487  155.7502 H   0  0  0  0  0  0  0  0  0  0  0  0  # atno 8010 bound_to 7997
  139.7335  143.8772  152.2542 H   0  0  0  0  0  0  0  0  0  0  0  0  # atno 10167 bound_to 10162
  156.2801  130.4216  149.8346 H   0  0  0  0  0  0  0  0  0  0  0  0  # atno 10718 bound_to 10713
  154.5876  135.2842  155.0669 H   0  0  0  0  0  0  0  0  0  0  0  0  # atno 10763 bound_to 10752
  154.1981  135.6429  153.5083 H   0  0  0  0  0  0  0  0  0  0  0  0  # atno 10764 bound_to 10752
  153.0110  135.5462  154.6551 H   0  0  0  0  0  0  0  0  0  0  0  0  # atno 10765 bound_to 10752
  139.9305  134.7588  156.1376 H   0  0  0  0  0  0  0  0  0  0  0  0  # atno 11005 bound_to 11000
  145.6236  139.1527  143.3008 LP  0  0  0  0  0  0  0  0  0  0  0  0  # atno 17320 bound_to 7965
  146.1909  140.6344  142.9146 LP  0  0  0  0  0  0  0  0  0  0  0  0  # atno 17321 bound_to 7965
  139.8702  144.7072  150.8996 LP  0  0  0  0  0  0  0  0  0  0  0  0  # atno 17342 bound_to 10162
  140.7775  143.3744  151.1589 LP  0  0  0  0  0  0  0  0  0  0  0  0  # atno 17343 bound_to 10162
  156.5797  130.8460  151.3379 LP  0  0  0  0  0  0  0  0  0  0  0  0  # atno 17370 bound_to 10713
  157.7311  130.9696  150.1866 LP  0  0  0  0  0  0  0  0  0  0  0  0  # atno 17371 bound_to 10713
  141.0891  133.6722  156.2500 LP  0  0  0  0  0  0  0  0  0  0  0  0  # atno 17394 bound_to 11000
  140.6215  134.5357  157.5548 LP  0  0  0  0  0  0  0  0  0  0  0  0  # atno 17395 bound_to 11000

$$$$
