AV-unprocessed.smi:2079|AV-procd|sdf|8486|dock1
  -GOLD-   2272011193D 1   1.00000     0.00000
 Structure written by MMmdl.
 41 42  0  0  0  0  0  0  0  0  3 V2000
  153.3235  142.3003  161.0375 C   0  0  0  0  0  0  0  0  0  0  0  0
  152.3317  142.1449  159.9362 C   0  0  0  0  0  0  0  0  0  0  0  0
  152.3836  141.5270  158.7187 C   0  0  0  0  0  0  0  0  0  0  0  0
  151.0897  141.7631  158.1828 C   0  0  0  0  0  0  0  0  0  0  0  0
  150.7371  141.2708  156.8984 N   0  0  0  0  0  0  0  0  0  0  0  0
  151.3712  140.3547  156.1442 C   0  0  0  0  0  0  0  0  0  0  0  0
  152.4131  139.8247  156.5487 O   0  0  0  0  0  0  0  0  0  0  0  0
  150.7294  140.1223  154.9654 N   0  5  0  0  0  0  0  0  0  0  0  0
  149.9339  138.9317  154.6700 C   0  0  0  0  0  0  0  0  0  0  0  0
  148.5594  139.3325  154.0968 C   0  0  0  0  0  0  0  0  0  0  0  0
  147.7677  138.1322  153.7028 N   0  3  1  0  0  0  0  0  0  0  0  0
  147.5705  137.2164  154.8626 C   0  0  0  0  0  0  0  0  0  0  0  0
  146.8872  135.9056  154.4544 C   0  0  0  0  0  0  0  0  0  0  0  0
  145.5404  136.1957  153.7919 C   0  0  0  0  0  0  0  0  0  0  0  0
  145.7561  137.1232  152.5932 C   0  0  0  0  0  0  0  0  0  0  0  0
  146.4863  138.4290  152.9818 C   0  0  2  0  0  0  0  0  0  0  0  0
  146.7000  139.2644  151.7013 C   0  0  0  0  0  0  0  0  0  0  0  0
  150.3183  142.4637  159.0009 N   0  0  0  0  0  0  0  0  0  0  0  0
  151.1099  142.7110  160.1286 O   0  0  0  0  0  0  0  0  0  0  0  0
  154.3374  142.1317  160.6743 H   0  0  0  0  0  0  0  0  0  0  0  0
  153.1264  141.5857  161.8364 H   0  0  0  0  0  0  0  0  0  0  0  0
  153.2797  143.3037  161.4612 H   0  0  0  0  0  0  0  0  0  0  0  0
  153.2138  140.9920  158.2831 H   0  0  0  0  0  0  0  0  0  0  0  0
  149.8977  141.6619  156.4974 H   0  0  0  0  0  0  0  0  0  0  0  0
  150.4410  138.2928  153.9465 H   0  0  0  0  0  0  0  0  0  0  0  0
  149.7855  138.3065  155.5517 H   0  0  0  0  0  0  0  0  0  0  0  0
  148.0141  139.9102  154.8454 H   0  0  0  0  0  0  0  0  0  0  0  0
  148.6823  140.0208  153.2612 H   0  0  0  0  0  0  0  0  0  0  0  0
  148.5373  136.9869  155.3135 H   0  0  0  0  0  0  0  0  0  0  0  0
  146.9771  137.7218  155.6266 H   0  0  0  0  0  0  0  0  0  0  0  0
  147.5291  135.3503  153.7691 H   0  0  0  0  0  0  0  0  0  0  0  0
  146.7431  135.2717  155.3299 H   0  0  0  0  0  0  0  0  0  0  0  0
  145.0692  135.2663  153.4705 H   0  0  0  0  0  0  0  0  0  0  0  0
  144.8626  136.6620  154.5083 H   0  0  0  0  0  0  0  0  0  0  0  0
  146.3310  136.5938  151.8317 H   0  0  0  0  0  0  0  0  0  0  0  0
  144.7916  137.3557  152.1399 H   0  0  0  0  0  0  0  0  0  0  0  0
  145.8448  138.9940  153.6603 H   0  0  0  0  0  0  0  0  0  0  0  0
  145.7600  139.4003  151.1658 H   0  0  0  0  0  0  0  0  0  0  0  0
  147.3958  138.7731  151.0204 H   0  0  0  0  0  0  0  0  0  0  0  0
  147.0846  140.2628  151.9052 H   0  0  0  0  0  0  0  0  0  0  0  0
  148.3484  137.6312  153.0457 H   0  0  0  0  0  0  0  0  0  0  0  0
  1  2  1  0  0  0  0
  1 20  1  0  0  0  0
  1 21  1  0  0  0  0
  1 22  1  0  0  0  0
  2 19  1  0  0  0  0
  2  3  2  0  0  0  0
  3  4  1  0  0  0  0
  3 23  1  0  0  0  0
  4  5  1  0  0  0  0
  4 18  2  0  0  0  0
  5  6  1  0  0  0  0
  5 24  1  0  0  0  0
  6  7  2  0  0  0  0
  6  8  1  0  0  0  0
  8  9  1  0  0  0  0
  9 10  1  0  0  0  0
  9 25  1  0  0  0  0
  9 26  1  0  0  0  0
 10 11  1  0  0  0  0
 10 27  1  0  0  0  0
 10 28  1  0  0  0  0
 11 16  1  0  0  0  0
 11 12  1  0  0  0  0
 11 41  1  0  0  0  0
 12 13  1  0  0  0  0
 12 29  1  0  0  0  0
 12 30  1  0  0  0  0
 13 14  1  0  0  0  0
 13 31  1  0  0  0  0
 13 32  1  0  0  0  0
 14 15  1  0  0  0  0
 14 33  1  0  0  0  0
 14 34  1  0  0  0  0
 15 16  1  0  0  0  0
 15 35  1  0  0  0  0
 15 36  1  0  0  0  0
 16 17  1  0  0  0  0
 16 37  1  0  0  0  0
 17 38  1  0  0  0  0
 17 39  1  0  0  0  0
 17 40  1  0  0  0  0
 18 19  1  0  0  0  0
M  CHG  1   8  -1
M  CHG  1  11   1
M  END
> <s_m_source_file>
AV-unprocessed.smi

> <i_m_source_file_index>
2079

> <i_lp_mmshare_version>
43012

> <i_f3d_flags>
0

> <s_epik_input>
W0NIM11jMVtjSF1jKG5vMSlbTkhdQyg9TylbTkhdW0NIMl1bQ0gyXU4yW0NIMl1bQ0gyXVtDSDJdW0NIMl1bQ0BIXTJbQ0gzXQ==

> <s_epik_cmdline>
J2VwaWtfcHl0aG9uJywgJy1waCcsICc3LjAnLCAnLXRuJywgJzgnLCAnLW1hJywgJzIwMCcsICctbWV0YWxfYmluZGluZycsICctaW1hZScsICc8aW5maWxlLm1hZT4nLCAnLW9tYWUnLCAnPG91dGZpbGUubWFlPic=

> <r_epik_Ionization_Penalty>
6.7666

> <r_epik_Ionization_Penalty_Charging>
6.7666

> <r_epik_Ionization_Penalty_Neutral>
5.77131e-06

> <r_epik_State_Penalty>
6.79217

> <r_epik_Charging_Adjusted_Penalty>
13.5588

> <i_epik_Tot_Q>
0

> <i_epik_Tot_abs_Q>
2

> <r_epik_Metal_State_Penalty>
2.72569

> <b_epik_Metal_Only>
1

> <s_lp_Force_Field>
OPLS_2005

> <r_lp_Energy>
14.3166

> <b_lp_Chiralities_Consistent>
1

> <s_lp_Variant>
AV-unprocessed.smi:2079-12

> <Gold.Version>
5.8.1

> <Gold.Id.Protein>
6NUR|6NUR_protein|mol2

> <Gold.PLP.Fitness>
43.4341

> <Gold.PLP.PLP>
-33.0056

> <Gold.PLP.part.hbond>
-4.4030

> <Gold.PLP.part.metal>
0.0000

> <Gold.PLP.part.buried>
-1.7075

> <Gold.PLP.part.nonpolar>
-26.4296

> <Gold.PLP.part.repulsive>
0.2214

> <Gold.PLP.ligand.clash>
0.0000

> <Gold.PLP.ligand.torsion>
0.8130

> <Gold.PLP.Chemscore.Hbond>
4.0000

> <Gold.PLP.Chemscore.CHOScore>
0.0000

> <Gold.PLP.Chemscore.Metal>
0.0000

> <Gold.Chemscore.Hbonds>
donor molecule, donor type, donor heavy atom, donor atom, acceptor molecule, acceptor atom, score
      L1  H    11    41       P1  7948  2.00
      P1  H  7989  7998       L1     8  1.00
      P1  H  7997  8010       L1     7  1.00

> <Gold.PLP.Chemscore.Internal.Correction>
0.0544

> <Gold.Rescore>
     Score         DG    S(hbond)    S(metal)    S(lipo)     H(rot)  DE(clash)    DE(int)     intcor
     16.63     -18.94       2.82        0.00      68.15       1.54       0.13       2.19       ----

> <Gold.Chemscore.Fitness>
16.6291

> <Gold.Chemscore.DG>
-18.9435

> <Gold.Chemscore.ZeroCoef>
-5.4800

> <Gold.Chemscore.Hbond>
2.8247

> <Gold.Chemscore.Metal>
0.0000

> <Gold.Chemscore.Lipo>
68.1506

> <Gold.Chemscore.Internal_Hbond>
0.0000

> <Gold.Chemscore.DEClash>
0.1267

> <Gold.Chemscore.DEInternal>
2.1876

> <Gold.Chemscore.Rot>
1.5409

> <Gold.Chemscore.Internal.Correction>
   9.000000E+99

> <Gold.Chemscore.Hbonds>
donor molecule, donor type, donor heavy atom, donor atom, acceptor molecule, acceptor atom, score
      L1  H    11    41       P1  7948  0.99
      P1  H  7989  7998       L1     8  0.76
      P1  H  7997  8010       L1     7  0.98

> <Gold.Chemscore.Hbond.Weighted>
-9.4345

> <Gold.Chemscore.Metal.Weighted>
-0.0000

> <Gold.Chemscore.Lipo.Weighted>
-7.9736

> <Gold.Chemscore.Internal_Hbond.Weighted>
0.0000

> <Gold.Chemscore.DEClash.Weighted>
0.1267

> <Gold.Chemscore.DEInternal.Weighted>
2.1876

> <Gold.Chemscore.Rot.Weighted>
3.9446

> <Gold.Chemscore.Internal.Correction.Weighted>
   9.000000E+99

> <Gold.Protein.RotatedTorsions>
[ 6907 6896 6895 6894 ] final    5.07 input  -60.11 | X-H torsion
[ 7974 7965 7964 7962 ] final  -96.04 input  175.53 | X-H torsion
[ 8008 7997 7996 7995 ] final   65.42 input   59.86 | X-H torsion
[ 10167 10162 10161 10158 ] final   65.27 input  -65.29 | X-H torsion
[ 10718 10713 10712 10709 ] final -156.28 input   66.30 | X-H torsion
[ 10763 10752 10751 10750 ] final  -73.06 input  -60.55 | X-H torsion
[ 11005 11000 10999 10996 ] final  136.76 input  -57.11 | X-H torsion

> <Gold.Protein.ActiveResidues>
 VAL166  LYS551  ARG553  GLY616  TRP617  ASP618  TYR619  PRO620  LYS621  CYS622 
 ASP623  PHE694  ASN695  SER759  ASP760  ASP761  ALA762  ILE779  LEU786  VAL792 
 PHE793  MET794  SER795  GLU796  ALA797  LYS798  CYS799  TRP800  GLU811  SER814 

> <Gold.Protein.RotatedAtoms>
  151.6515  135.1001  160.0161 H   0  0  0  0  0  0  0  0  0  0  0  0  # atno 6907 bound_to 6896
  152.3998  133.6796  159.6315 H   0  0  0  0  0  0  0  0  0  0  0  0  # atno 6908 bound_to 6896
  150.7899  133.8728  159.3304 H   0  0  0  0  0  0  0  0  0  0  0  0  # atno 6909 bound_to 6896
  145.3521  140.9478  143.2548 H   0  0  0  0  0  0  0  0  0  0  0  0  # atno 7974 bound_to 7965
  155.6615  140.3497  155.4784 H   0  0  0  0  0  0  0  0  0  0  0  0  # atno 8008 bound_to 7997
  155.9764  140.1166  157.0789 H   0  0  0  0  0  0  0  0  0  0  0  0  # atno 8009 bound_to 7997
  154.4180  140.1147  156.5363 H   0  0  0  0  0  0  0  0  0  0  0  0  # atno 8010 bound_to 7997
  140.1131  144.4800  150.6966 H   0  0  0  0  0  0  0  0  0  0  0  0  # atno 10167 bound_to 10162
  156.5244  130.8492  151.2694 H   0  0  0  0  0  0  0  0  0  0  0  0  # atno 10718 bound_to 10713
  154.4543  135.5909  153.6213 H   0  0  0  0  0  0  0  0  0  0  0  0  # atno 10763 bound_to 10752
  152.9816  135.6028  154.3565 H   0  0  0  0  0  0  0  0  0  0  0  0  # atno 10764 bound_to 10752
  154.3430  135.2841  155.2391 H   0  0  0  0  0  0  0  0  0  0  0  0  # atno 10765 bound_to 10752
  140.0068  134.9456  157.0191 H   0  0  0  0  0  0  0  0  0  0  0  0  # atno 11005 bound_to 11000
  144.8709  139.5039  143.6768 LP  0  0  0  0  0  0  0  0  0  0  0  0  # atno 17320 bound_to 7965
  146.2963  139.7289  142.9124 LP  0  0  0  0  0  0  0  0  0  0  0  0  # atno 17321 bound_to 7965
  140.6914  143.2378  151.5119 LP  0  0  0  0  0  0  0  0  0  0  0  0  # atno 17342 bound_to 10162
  139.5609  144.2160  152.1689 LP  0  0  0  0  0  0  0  0  0  0  0  0  # atno 17343 bound_to 10162
  157.7432  130.9906  150.2572 LP  0  0  0  0  0  0  0  0  0  0  0  0  # atno 17370 bound_to 10713
  156.3119  130.3773  149.7654 LP  0  0  0  0  0  0  0  0  0  0  0  0  # atno 17371 bound_to 10713
  140.4627  134.1467  155.7193 LP  0  0  0  0  0  0  0  0  0  0  0  0  # atno 17394 bound_to 11000
  141.1682  133.8660  157.1650 LP  0  0  0  0  0  0  0  0  0  0  0  0  # atno 17395 bound_to 11000

$$$$
