AV-unprocessed.smi:66|AV-procd|sdf|617|dock9
  -GOLD-   2262016513D 1   1.00000     0.00000
 Structure written by MMmdl.
 28 30  0  0  0  0  0  0  0  0  2 V2000
  152.1096  137.5229  154.3897 O   0  0  0  0  0  0  0  0  0  0  0  0
  152.1921  138.6460  154.9330 C   0  0  0  0  0  0  0  0  0  0  0  0
  153.1817  139.4096  154.8681 O   0  5  0  0  0  0  0  0  0  0  0  0
  150.9690  139.1166  155.7371 C   0  0  2  0  0  0  0  0  0  0  0  0
  149.8353  139.6366  154.8348 C   0  0  0  0  0  0  0  0  0  0  0  0
  150.0784  141.1431  154.7630 C   0  0  1  0  0  0  0  0  0  0  0  0
  148.9097  141.8691  154.4444 O   0  0  0  0  0  0  0  0  0  0  0  0
  150.6045  141.4694  156.1606 C   0  0  0  0  0  0  0  0  0  0  0  0
  151.2908  140.2605  156.5968 N   0  0  0  0  0  0  0  0  0  0  0  0
  151.8227  140.1234  157.8429 C   0  0  0  0  0  0  0  0  0  0  0  0
  152.2311  138.8885  158.2412 N   0  0  0  0  0  0  0  0  0  0  0  0
  152.7630  138.6981  159.4513 C   0  0  0  0  0  0  0  0  0  0  0  0
  152.9780  139.5916  160.4178 N   0  0  0  0  0  0  0  0  0  0  0  0
  152.5735  140.8323  160.0299 C   0  0  0  0  0  0  0  0  0  0  0  0
  152.6373  142.0036  160.7540 N   0  0  0  0  0  0  0  0  0  0  0  0
  152.1139  142.9786  159.9432 C   0  0  0  0  0  0  0  0  0  0  0  0
  151.7200  142.5576  158.7722 N   0  0  0  0  0  0  0  0  0  0  0  0
  151.9918  141.1902  158.7781 C   0  0  0  0  0  0  0  0  0  0  0  0
  153.0080  142.0671  161.6910 H   0  0  0  0  0  0  0  0  0  0  0  0
  150.5937  138.2807  156.3292 H   0  0  0  0  0  0  0  0  0  0  0  0
  149.8109  139.1688  153.8495 H   0  0  0  0  0  0  0  0  0  0  0  0
  148.8769  139.4344  155.3155 H   0  0  0  0  0  0  0  0  0  0  0  0
  150.8472  141.3561  154.0189 H   0  0  0  0  0  0  0  0  0  0  0  0
  148.9313  142.6890  154.9136 H   0  0  0  0  0  0  0  0  0  0  0  0
  151.2732  142.3299  156.1303 H   0  0  0  0  0  0  0  0  0  0  0  0
  149.7862  141.6834  156.8502 H   0  0  0  0  0  0  0  0  0  0  0  0
  153.0572  137.6834  159.6760 H   0  0  0  0  0  0  0  0  0  0  0  0
  152.0344  144.0117  160.2476 H   0  0  0  0  0  0  0  0  0  0  0  0
  1  2  2  0  0  0  0
  2  3  1  0  0  0  0
  2  4  1  0  0  0  0
  4  5  1  0  0  0  0
  4 20  1  0  0  0  0
  4  9  1  0  0  0  0
  5  6  1  0  0  0  0
  5 21  1  0  0  0  0
  5 22  1  0  0  0  0
  6  7  1  0  0  0  0
  6  8  1  0  0  0  0
  6 23  1  0  0  0  0
  7 24  1  0  0  0  0
  8 25  1  0  0  0  0
  8 26  1  0  0  0  0
  8  9  1  0  0  0  0
  9 10  1  0  0  0  0
 10 11  1  0  0  0  0
 10 18  2  0  0  0  0
 11 12  2  0  0  0  0
 12 27  1  0  0  0  0
 12 13  1  0  0  0  0
 13 14  2  0  0  0  0
 14 15  1  0  0  0  0
 14 18  1  0  0  0  0
 15 16  1  0  0  0  0
 15 19  1  0  0  0  0
 16 17  2  0  0  0  0
 16 28  1  0  0  0  0
 17 18  1  0  0  0  0
M  CHG  1   3  -1
M  END
> <s_m_source_file>
AV-unprocessed.smi

> <i_m_source_file_index>
66

> <i_lp_mmshare_version>
43012

> <i_f3d_flags>
0

> <s_epik_input>
Tz1DKFtPSF0pW0NAQEhdMVtDSDJdW0NAQEhdKFtPSF0pW0NIMl1OMWMobltjSF1uMiljKGMyMylbbkhdW2NIXW4z

> <s_epik_cmdline>
J2VwaWtfcHl0aG9uJywgJy1waCcsICc3LjAnLCAnLXRuJywgJzgnLCAnLW1hJywgJzIwMCcsICctbWV0YWxfYmluZGluZycsICctaW1hZScsICc8aW5maWxlLm1hZT4nLCAnLW9tYWUnLCAnPG91dGZpbGUubWFlPic=

> <r_lp_tautomer_probability>
0.955585

> <r_epik_Ionization_Penalty>
0.00455415

> <r_epik_Ionization_Penalty_Charging>
0.000248217

> <r_epik_Ionization_Penalty_Neutral>
0.00430593

> <r_epik_State_Penalty>
0.0207074

> <r_epik_Charging_Adjusted_Penalty>
0.0209557

> <i_epik_Tot_Q>
-1

> <i_epik_Tot_abs_Q>
1

> <r_epik_Metal_State_Penalty>
0.337372

> <b_epik_Metal_Only>
0

> <s_lp_Force_Field>
OPLS_2005

> <r_lp_Energy>
24.8214

> <b_lp_Chiralities_Consistent>
1

> <s_lp_Variant>
AV-unprocessed.smi:66-1

> <Gold.Version>
5.8.1

> <Gold.Id.Protein>
6NUR|6NUR_protein|mol2

> <Gold.PLP.Fitness>
44.7592

> <Gold.PLP.PLP>
-31.7102

> <Gold.PLP.part.hbond>
-4.9367

> <Gold.PLP.part.metal>
0.0000

> <Gold.PLP.part.buried>
-4.8176

> <Gold.PLP.part.nonpolar>
-23.1704

> <Gold.PLP.part.repulsive>
0.2109

> <Gold.PLP.ligand.clash>
0.0000

> <Gold.PLP.ligand.torsion>
0.4718

> <Gold.PLP.Chemscore.Hbond>
4.6295

> <Gold.PLP.Chemscore.CHOScore>
0.0000

> <Gold.PLP.Chemscore.Metal>
0.0000

> <Gold.Chemscore.Hbonds>
donor molecule, donor type, donor heavy atom, donor atom, acceptor molecule, acceptor atom, score
      L1  H     7    24       P1  8028  0.70
      P1  H  7997  8008       L1     3  2.00
      P1  H  8011  8017       L1     7  0.05
      P1  H 10752 10764       L1     1  1.62

> <Gold.PLP.Chemscore.Internal.Correction>
0.1041

> <Gold.Rescore>
     Score         DG    S(hbond)    S(metal)    S(lipo)     H(rot)  DE(clash)    DE(int)     intcor
     11.73     -14.03       2.73        0.00      34.08       1.78       0.88       1.42       ----

> <Gold.Chemscore.Fitness>
11.7294

> <Gold.Chemscore.DG>
-14.0322

> <Gold.Chemscore.ZeroCoef>
-5.4800

> <Gold.Chemscore.Hbond>
2.7344

> <Gold.Chemscore.Metal>
0.0000

> <Gold.Chemscore.Lipo>
34.0762

> <Gold.Chemscore.Internal_Hbond>
0.0000

> <Gold.Chemscore.DEClash>
0.8781

> <Gold.Chemscore.DEInternal>
1.4248

> <Gold.Chemscore.Rot>
1.7842

> <Gold.Chemscore.Internal.Correction>
   9.000000E+99

> <Gold.Chemscore.Hbonds>
donor molecule, donor type, donor heavy atom, donor atom, acceptor molecule, acceptor atom, score
      L1  H     7    24       P1  8028  0.71
      P1  H  7997  8008       L1     3  1.00
      P1  H 10752 10764       L1     1  0.75

> <Gold.Chemscore.Hbond.Weighted>
-9.1329

> <Gold.Chemscore.Metal.Weighted>
-0.0000

> <Gold.Chemscore.Lipo.Weighted>
-3.9869

> <Gold.Chemscore.Internal_Hbond.Weighted>
0.0000

> <Gold.Chemscore.DEClash.Weighted>
0.8781

> <Gold.Chemscore.DEInternal.Weighted>
1.4248

> <Gold.Chemscore.Rot.Weighted>
4.5676

> <Gold.Chemscore.Internal.Correction.Weighted>
   9.000000E+99

> <Gold.Protein.RotatedTorsions>
[ 6907 6896 6895 6894 ] final   66.64 input  -60.11 | X-H torsion
[ 7974 7965 7964 7962 ] final   65.09 input  175.53 | X-H torsion
[ 8008 7997 7996 7995 ] final  -22.13 input   59.86 | X-H torsion
[ 10167 10162 10161 10158 ] final  132.83 input  -65.29 | X-H torsion
[ 10718 10713 10712 10709 ] final -150.14 input   66.30 | X-H torsion
[ 10763 10752 10751 10750 ] final  -74.88 input  -60.55 | X-H torsion
[ 11005 11000 10999 10996 ] final -111.43 input  -57.11 | X-H torsion

> <Gold.Protein.ActiveResidues>
 VAL166  LYS551  ARG553  GLY616  TRP617  ASP618  TYR619  PRO620  LYS621  CYS622 
 ASP623  PHE694  ASN695  SER759  ASP760  ASP761  ALA762  ILE779  LEU786  VAL792 
 PHE793  MET794  SER795  GLU796  ALA797  LYS798  CYS799  TRP800  GLU811  SER814 

> <Gold.Protein.RotatedAtoms>
  152.4495  134.5423  159.9842 H   0  0  0  0  0  0  0  0  0  0  0  0  # atno 6907 bound_to 6896
  151.5499  133.3413  159.2959 H   0  0  0  0  0  0  0  0  0  0  0  0  # atno 6908 bound_to 6896
  150.8420  134.7748  159.7003 H   0  0  0  0  0  0  0  0  0  0  0  0  # atno 6909 bound_to 6896
  145.8426  139.3204  143.0923 H   0  0  0  0  0  0  0  0  0  0  0  0  # atno 7974 bound_to 7965
  154.4663  140.2016  156.0111 H   0  0  0  0  0  0  0  0  0  0  0  0  # atno 8008 bound_to 7997
  156.0932  140.3255  155.7814 H   0  0  0  0  0  0  0  0  0  0  0  0  # atno 8009 bound_to 7997
  155.4922  140.0547  157.2942 H   0  0  0  0  0  0  0  0  0  0  0  0  # atno 8010 bound_to 7997
  139.5323  144.6644  151.4908 H   0  0  0  0  0  0  0  0  0  0  0  0  # atno 10167 bound_to 10162
  156.4422  130.8127  151.2357 H   0  0  0  0  0  0  0  0  0  0  0  0  # atno 10718 bound_to 10713
  154.4791  135.5849  153.6376 H   0  0  0  0  0  0  0  0  0  0  0  0  # atno 10763 bound_to 10752
  152.9845  135.6085  154.3269 H   0  0  0  0  0  0  0  0  0  0  0  0  # atno 10764 bound_to 10752
  154.3158  135.2844  155.2523 H   0  0  0  0  0  0  0  0  0  0  0  0  # atno 10765 bound_to 10752
  141.0734  133.9341  157.2438 H   0  0  0  0  0  0  0  0  0  0  0  0  # atno 11005 bound_to 11000
  145.9448  140.8952  143.0289 LP  0  0  0  0  0  0  0  0  0  0  0  0  # atno 17320 bound_to 7965
  144.6733  140.1599  143.7423 LP  0  0  0  0  0  0  0  0  0  0  0  0  # atno 17321 bound_to 7965
  140.6508  143.8700  150.6784 LP  0  0  0  0  0  0  0  0  0  0  0  0  # atno 17342 bound_to 10162
  140.2064  143.3918  152.1752 LP  0  0  0  0  0  0  0  0  0  0  0  0  # atno 17343 bound_to 10162
  157.7506  131.0164  150.3545 LP  0  0  0  0  0  0  0  0  0  0  0  0  # atno 17370 bound_to 10713
  156.3905  130.3897  149.7033 LP  0  0  0  0  0  0  0  0  0  0  0  0  # atno 17371 bound_to 10713
  139.9547  135.0168  156.9094 LP  0  0  0  0  0  0  0  0  0  0  0  0  # atno 17394 bound_to 11000
  140.5624  134.0522  155.7403 LP  0  0  0  0  0  0  0  0  0  0  0  0  # atno 17395 bound_to 11000

$$$$
