AV-unprocessed.smi:1240|AV-procd|sdf|5202|dock3
  -GOLD-   22720 4293D 1   1.00000     0.00000
 Structure written by MMmdl.
 48 50  0  0  0  0  0  0  0  0  2 V2000
  144.5009  136.4135  152.3157 O   0  0  0  0  0  0  0  0  0  0  0  0
  145.6879  136.2792  152.0188 C   0  0  0  0  0  0  0  0  0  0  0  0
  146.6242  137.1921  152.3155 N   0  0  0  0  0  0  0  0  0  0  0  0
  146.3634  138.4576  152.9930 C   0  0  0  0  0  0  0  0  0  0  0  0
  147.6491  139.2669  153.3284 C   0  0  1  0  0  0  0  0  0  0  0  0
  147.3942  140.5055  154.2330 C   0  0  1  0  0  0  0  0  0  0  0  0
  146.8268  141.7060  153.4924 C   0  0  0  0  0  0  0  0  0  0  0  0
  146.2739  142.5600  154.6268 C   0  0  0  0  0  0  0  0  0  0  0  0
  145.8339  141.6377  155.6156 O   0  0  0  0  0  0  0  0  0  0  0  0
  146.3259  140.3346  155.3205 C   0  0  0  0  0  0  0  0  0  0  0  0
  148.7040  138.4023  153.9385 N   0  3  0  0  0  0  0  0  0  0  0  0
  150.0478  139.0174  154.0865 C   0  0  0  0  0  0  0  0  0  0  0  0
  151.0586  137.9613  154.5633 C   0  0  0  0  0  0  0  0  0  0  0  0
  150.6114  137.3937  155.7888 O   0  0  0  0  0  0  0  0  0  0  0  0
  149.3593  136.7328  155.6479 C   0  0  0  0  0  0  0  0  0  0  0  0
  148.2877  137.7412  155.2001 C   0  0  0  0  0  0  0  0  0  0  0  0
  146.2235  135.2185  151.3899 N   0  0  0  0  0  0  0  0  0  0  0  0
  145.5784  134.0536  150.8899 C   0  0  0  0  0  0  0  0  0  0  0  0
  146.3968  133.0082  150.4137 C   0  0  0  0  0  0  0  0  0  0  0  0
  145.7869  131.8484  149.8954 C   0  0  0  0  0  0  0  0  0  0  0  0
  144.4495  131.6838  149.8217 N   0  0  0  0  0  0  0  0  0  0  0  0
  143.6669  132.6891  150.2673 C   0  0  0  0  0  0  0  0  0  0  0  0
  144.1743  133.8893  150.8043 C   0  0  0  0  0  0  0  0  0  0  0  0
  147.5787  137.0058  152.0433 H   0  0  0  0  0  0  0  0  0  0  0  0
  145.7100  139.0399  152.3430 H   0  0  0  0  0  0  0  0  0  0  0  0
  145.7861  138.2478  153.8939 H   0  0  0  0  0  0  0  0  0  0  0  0
  148.0677  139.6454  152.3947 H   0  0  0  0  0  0  0  0  0  0  0  0
  148.3231  140.8086  154.7183 H   0  0  0  0  0  0  0  0  0  0  0  0
  147.5697  142.2378  152.8970 H   0  0  0  0  0  0  0  0  0  0  0  0
  146.0163  141.3973  152.8305 H   0  0  0  0  0  0  0  0  0  0  0  0
  147.0615  143.1806  155.0556 H   0  0  0  0  0  0  0  0  0  0  0  0
  145.4649  143.2145  154.3013 H   0  0  0  0  0  0  0  0  0  0  0  0
  145.4922  139.7326  154.9567 H   0  0  0  0  0  0  0  0  0  0  0  0
  146.7178  139.8627  156.2216 H   0  0  0  0  0  0  0  0  0  0  0  0
  150.3830  139.4394  153.1396 H   0  0  0  0  0  0  0  0  0  0  0  0
  150.0139  139.8322  154.8105 H   0  0  0  0  0  0  0  0  0  0  0  0
  151.1922  137.1808  153.8124 H   0  0  0  0  0  0  0  0  0  0  0  0
  152.0346  138.4206  154.7225 H   0  0  0  0  0  0  0  0  0  0  0  0
  149.4463  135.9125  154.9335 H   0  0  0  0  0  0  0  0  0  0  0  0
  149.0832  136.2918  156.6060 H   0  0  0  0  0  0  0  0  0  0  0  0
  148.1334  138.4844  155.9826 H   0  0  0  0  0  0  0  0  0  0  0  0
  147.3388  137.2231  155.0571 H   0  0  0  0  0  0  0  0  0  0  0  0
  147.2273  135.2297  151.2825 H   0  0  0  0  0  0  0  0  0  0  0  0
  147.4737  133.0865  150.4458 H   0  0  0  0  0  0  0  0  0  0  0  0
  146.3908  131.0321  149.5279 H   0  0  0  0  0  0  0  0  0  0  0  0
  142.6007  132.5357  150.1882 H   0  0  0  0  0  0  0  0  0  0  0  0
  143.4802  134.6514  151.1215 H   0  0  0  0  0  0  0  0  0  0  0  0
  148.8233  137.6452  153.2804 H   0  0  0  0  0  0  0  0  0  0  0  0
  1  2  2  0  0  0  0
  2  3  1  0  0  0  0
  2 17  1  0  0  0  0
  3  4  1  0  0  0  0
  3 24  1  0  0  0  0
  4  5  1  0  0  0  0
  4 25  1  0  0  0  0
  4 26  1  0  0  0  0
  5  6  1  0  0  0  0
  5 11  1  0  0  0  0
  5 27  1  0  0  0  0
  6 10  1  0  0  0  0
  6  7  1  0  0  0  0
  6 28  1  0  0  0  0
  7  8  1  0  0  0  0
  7 29  1  0  0  0  0
  7 30  1  0  0  0  0
  8  9  1  0  0  0  0
  8 31  1  0  0  0  0
  8 32  1  0  0  0  0
  9 10  1  0  0  0  0
 10 33  1  0  0  0  0
 10 34  1  0  0  0  0
 11 16  1  0  0  0  0
 11 12  1  0  0  0  0
 11 48  1  0  0  0  0
 12 13  1  0  0  0  0
 12 35  1  0  0  0  0
 12 36  1  0  0  0  0
 13 14  1  0  0  0  0
 13 37  1  0  0  0  0
 13 38  1  0  0  0  0
 14 15  1  0  0  0  0
 15 16  1  0  0  0  0
 15 39  1  0  0  0  0
 15 40  1  0  0  0  0
 16 41  1  0  0  0  0
 16 42  1  0  0  0  0
 17 18  1  0  0  0  0
 17 43  1  0  0  0  0
 18 23  1  0  0  0  0
 18 19  2  0  0  0  0
 19 20  1  0  0  0  0
 19 44  1  0  0  0  0
 20 21  2  0  0  0  0
 20 45  1  0  0  0  0
 21 22  1  0  0  0  0
 22 23  2  0  0  0  0
 22 46  1  0  0  0  0
 23 47  1  0  0  0  0
M  CHG  1  11   1
M  END
> <s_m_source_file>
AV-unprocessed.smi

> <i_m_source_file_index>
1240

> <i_lp_mmshare_version>
43012

> <i_f3d_flags>
0

> <s_epik_input>
W2NIXTFbY0hdbltjSF1bY0hdYzFbTkhdQyg9TylbTkhdW0NIMl1bQ0BIXShbQ0BASF0yW0NIMl1bQ0gyXU9bQ0gyXTIpTjNbQ0gyXVtDSDJdT1tDSDJdW0NIMl0z

> <s_epik_cmdline>
J2VwaWtfcHl0aG9uJywgJy1waCcsICc3LjAnLCAnLXRuJywgJzgnLCAnLW1hJywgJzIwMCcsICctbWV0YWxfYmluZGluZycsICctaW1hZScsICc8aW5maWxlLm1hZT4nLCAnLW9tYWUnLCAnPG91dGZpbGUubWFlPic=

> <r_epik_Ionization_Penalty>
1.08433

> <r_epik_Ionization_Penalty_Charging>
0.98326

> <r_epik_Ionization_Penalty_Neutral>
0.10107

> <r_epik_State_Penalty>
1.11265

> <r_epik_Charging_Adjusted_Penalty>
2.09591

> <i_epik_Tot_Q>
1

> <i_epik_Tot_abs_Q>
1

> <r_epik_Metal_State_Penalty>
1.10731

> <b_epik_Metal_Only>
0

> <s_lp_Force_Field>
OPLS_2005

> <r_lp_Energy>
42.1578

> <b_lp_Chiralities_Consistent>
1

> <s_lp_Variant>
AV-unprocessed.smi:1240-8

> <Gold.Version>
5.8.1

> <Gold.Id.Protein>
6NUR|6NUR_protein|mol2

> <Gold.PLP.Fitness>
53.0475

> <Gold.PLP.PLP>
-36.9994

> <Gold.PLP.part.hbond>
-4.0000

> <Gold.PLP.part.metal>
0.0000

> <Gold.PLP.part.buried>
-5.2328

> <Gold.PLP.part.nonpolar>
-29.9438

> <Gold.PLP.part.repulsive>
0.6033

> <Gold.PLP.ligand.clash>
0.0000

> <Gold.PLP.ligand.torsion>
0.6574

> <Gold.PLP.Chemscore.Hbond>
4.1608

> <Gold.PLP.Chemscore.CHOScore>
1.5343

> <Gold.PLP.Chemscore.Metal>
0.0000

> <Gold.Chemscore.Hbonds>
donor molecule, donor type, donor heavy atom, donor atom, acceptor molecule, acceptor atom, score
      L1  H     3    24       P1  7948  1.00
      L1  H    11    48       P1  7948  2.00
      L1  H    17    43       P1  7948  0.90
      P1  H 10785 10796       L1    21  0.24
      L1  C    20    45       P1 10747  0.52
      L1  C    22    46       P1 10186  0.82
      L1  C    22    46       P1 10952  0.13

> <Gold.PLP.Chemscore.Internal.Correction>
0.2775

> <Gold.Rescore>
     Score         DG    S(hbond)    S(metal)    S(lipo)     H(rot)  DE(clash)    DE(int)     intcor
     19.52     -21.26       2.82        0.00      91.66       1.70       0.05       1.70       ----

> <Gold.Chemscore.Fitness>
19.5153

> <Gold.Chemscore.DG>
-21.2633

> <Gold.Chemscore.ZeroCoef>
-5.4800

> <Gold.Chemscore.Hbond>
2.8194

> <Gold.Chemscore.Metal>
0.0000

> <Gold.Chemscore.Lipo>
91.6572

> <Gold.Chemscore.Internal_Hbond>
0.0000

> <Gold.Chemscore.DEClash>
0.0473

> <Gold.Chemscore.DEInternal>
1.7008

> <Gold.Chemscore.Rot>
1.7021

> <Gold.Chemscore.Internal.Correction>
   9.000000E+99

> <Gold.Chemscore.Hbonds>
donor molecule, donor type, donor heavy atom, donor atom, acceptor molecule, acceptor atom, score
      L1  H     3    24       P1  7948  0.96
      L1  H    11    48       P1  7948  0.97
      L1  H    17    43       P1  7948  0.65
      P1  H 10785 10796       L1    21  0.19

> <Gold.Chemscore.Hbond.Weighted>
-9.4169

> <Gold.Chemscore.Metal.Weighted>
-0.0000

> <Gold.Chemscore.Lipo.Weighted>
-10.7239

> <Gold.Chemscore.Internal_Hbond.Weighted>
0.0000

> <Gold.Chemscore.DEClash.Weighted>
0.0473

> <Gold.Chemscore.DEInternal.Weighted>
1.7008

> <Gold.Chemscore.Rot.Weighted>
4.3575

> <Gold.Chemscore.Internal.Correction.Weighted>
   9.000000E+99

> <Gold.Protein.RotatedTorsions>
[ 6907 6896 6895 6894 ] final  -90.53 input  -60.11 | X-H torsion
[ 7974 7965 7964 7962 ] final  -89.70 input  175.53 | X-H torsion
[ 8008 7997 7996 7995 ] final -179.79 input   59.86 | X-H torsion
[ 10167 10162 10161 10158 ] final  -86.33 input  -65.29 | X-H torsion
[ 10718 10713 10712 10709 ] final  -64.29 input   66.30 | X-H torsion
[ 10763 10752 10751 10750 ] final  143.83 input  -60.55 | X-H torsion
[ 11005 11000 10999 10996 ] final  116.09 input  -57.11 | X-H torsion

> <Gold.Protein.ActiveResidues>
 VAL166  LYS551  ARG553  GLY616  TRP617  ASP618  TYR619  PRO620  LYS621  CYS622 
 ASP623  PHE694  ASN695  SER759  ASP760  ASP761  ALA762  ILE779  LEU786  VAL792 
 PHE793  MET794  SER795  GLU796  ALA797  LYS798  CYS799  TRP800  GLU811  SER814 

> <Gold.Protein.RotatedAtoms>
  150.6883  134.2417  159.4474 H   0  0  0  0  0  0  0  0  0  0  0  0  # atno 6907 bound_to 6896
  152.0361  134.9737  160.0582 H   0  0  0  0  0  0  0  0  0  0  0  0  # atno 6908 bound_to 6896
  152.1257  133.4344  159.4733 H   0  0  0  0  0  0  0  0  0  0  0  0  # atno 6909 bound_to 6896
  145.4363  140.9557  143.2100 H   0  0  0  0  0  0  0  0  0  0  0  0  # atno 7974 bound_to 7965
  156.0346  140.1289  157.0222 H   0  0  0  0  0  0  0  0  0  0  0  0  # atno 8008 bound_to 7997
  154.4364  140.1042  156.6218 H   0  0  0  0  0  0  0  0  0  0  0  0  # atno 8009 bound_to 7997
  155.5757  140.3467  155.4529 H   0  0  0  0  0  0  0  0  0  0  0  0  # atno 8010 bound_to 7997
  140.3952  143.2687  151.9214 H   0  0  0  0  0  0  0  0  0  0  0  0  # atno 10167 bound_to 10162
  156.0738  130.4231  150.1399 H   0  0  0  0  0  0  0  0  0  0  0  0  # atno 10718 bound_to 10713
  153.9788  135.2943  155.3422 H   0  0  0  0  0  0  0  0  0  0  0  0  # atno 10763 bound_to 10752
  154.7281  135.5080  153.8922 H   0  0  0  0  0  0  0  0  0  0  0  0  # atno 10764 bound_to 10752
  153.0864  135.6695  154.0054 H   0  0  0  0  0  0  0  0  0  0  0  0  # atno 10765 bound_to 10752
  139.9030  134.9593  156.7145 H   0  0  0  0  0  0  0  0  0  0  0  0  # atno 11005 bound_to 11000
  144.8150  139.5893  143.7012 LP  0  0  0  0  0  0  0  0  0  0  0  0  # atno 17320 bound_to 7965
  146.2580  139.6346  142.9381 LP  0  0  0  0  0  0  0  0  0  0  0  0  # atno 17321 bound_to 7965
  139.4787  144.5688  151.8121 LP  0  0  0  0  0  0  0  0  0  0  0  0  # atno 17342 bound_to 10162
  140.4798  144.1466  150.5931 LP  0  0  0  0  0  0  0  0  0  0  0  0  # atno 17343 bound_to 10162
  156.9445  130.9755  151.3510 LP  0  0  0  0  0  0  0  0  0  0  0  0  # atno 17370 bound_to 10713
  157.5823  130.8385  149.8540 LP  0  0  0  0  0  0  0  0  0  0  0  0  # atno 17371 bound_to 10713
  140.7049  133.9273  155.8048 LP  0  0  0  0  0  0  0  0  0  0  0  0  # atno 17394 bound_to 11000
  141.0343  134.0711  157.3977 LP  0  0  0  0  0  0  0  0  0  0  0  0  # atno 17395 bound_to 11000

$$$$
