AV-unprocessed.smi:2822|AV-procd|sdf|10880|dock7
  -GOLD-   2272015323D 1   1.00000     0.00000
 Structure written by MMmdl.
 39 41  0  0  0  0  0  0  0  0  1 V2000
  155.4247  143.0320  165.7281 Cl  0  0  0  0  0  0  0  0  0  0  0  0
  155.6220  141.3145  165.6873 C   0  0  0  0  0  0  0  0  0  0  0  0
  155.9144  140.6168  166.8772 C   0  0  0  0  0  0  0  0  0  0  0  0
  156.0837  139.2790  166.9335 N   0  0  0  0  0  0  0  0  0  0  0  0
  155.9649  138.5829  165.7839 C   0  0  0  0  0  0  0  0  0  0  0  0
  155.6760  139.1803  164.5408 C   0  0  0  0  0  0  0  0  0  0  0  0
  155.4984  140.5831  164.4833 C   0  0  0  0  0  0  0  0  0  0  0  0
  155.2054  141.2587  163.2887 N   0  0  0  0  0  0  0  0  0  0  0  0
  154.4560  140.6075  162.2252 C   0  0  0  0  0  0  0  0  0  0  0  0
  154.1324  141.5807  161.0836 C   0  0  2  0  0  0  0  0  0  0  0  0
  153.1811  142.7001  161.5463 C   0  0  0  0  0  0  0  0  0  0  0  0
  152.8009  143.5820  160.4498 N   0  0  0  0  0  0  0  0  0  0  0  0
  151.8890  144.6309  160.9034 C   0  0  0  0  0  0  0  0  0  0  0  0
  151.4986  145.5972  159.7737 C   0  0  0  0  0  0  0  0  0  0  0  0
  150.8782  144.8237  158.6016 C   0  0  0  0  0  0  0  0  0  0  0  0
  151.8157  143.6878  158.1640 C   0  0  0  0  0  0  0  0  0  0  0  0
  152.2041  142.7990  159.3637 C   0  0  1  0  0  0  0  0  0  0  0  0
  153.1513  141.6660  158.9193 C   0  0  0  0  0  0  0  0  0  0  0  0
  153.4926  140.8533  160.0378 O   0  0  0  0  0  0  0  0  0  0  0  0
  156.0157  141.1481  167.8121 H   0  0  0  0  0  0  0  0  0  0  0  0
  156.1036  137.5143  165.8561 H   0  0  0  0  0  0  0  0  0  0  0  0
  155.5948  138.5574  163.6627 H   0  0  0  0  0  0  0  0  0  0  0  0
  155.6905  142.1191  163.0772 H   0  0  0  0  0  0  0  0  0  0  0  0
  155.0178  139.7540  161.8435 H   0  0  0  0  0  0  0  0  0  0  0  0
  153.5257  140.2236  162.6456 H   0  0  0  0  0  0  0  0  0  0  0  0
  155.0571  142.0242  160.7087 H   0  0  0  0  0  0  0  0  0  0  0  0
  152.2879  142.2558  161.9887 H   0  0  0  0  0  0  0  0  0  0  0  0
  153.6619  143.2818  162.3338 H   0  0  0  0  0  0  0  0  0  0  0  0
  150.9873  144.1818  161.3229 H   0  0  0  0  0  0  0  0  0  0  0  0
  152.3551  145.1973  161.7106 H   0  0  0  0  0  0  0  0  0  0  0  0
  150.7976  146.3458  160.1436 H   0  0  0  0  0  0  0  0  0  0  0  0
  152.3823  146.1376  159.4320 H   0  0  0  0  0  0  0  0  0  0  0  0
  149.9167  144.4081  158.9058 H   0  0  0  0  0  0  0  0  0  0  0  0
  150.6790  145.4952  157.7661 H   0  0  0  0  0  0  0  0  0  0  0  0
  151.3327  143.0894  157.3907 H   0  0  0  0  0  0  0  0  0  0  0  0
  152.7142  144.1116  157.7130 H   0  0  0  0  0  0  0  0  0  0  0  0
  151.2914  142.3316  159.7373 H   0  0  0  0  0  0  0  0  0  0  0  0
  152.6707  141.0409  158.1666 H   0  0  0  0  0  0  0  0  0  0  0  0
  154.0590  142.0696  158.4673 H   0  0  0  0  0  0  0  0  0  0  0  0
  1  2  1  0  0  0  0
  2  7  1  0  0  0  0
  2  3  2  0  0  0  0
  3  4  1  0  0  0  0
  3 20  1  0  0  0  0
  4  5  2  0  0  0  0
  5  6  1  0  0  0  0
  5 21  1  0  0  0  0
  6  7  2  0  0  0  0
  6 22  1  0  0  0  0
  7  8  1  0  0  0  0
  8  9  1  0  0  0  0
  8 23  1  0  0  0  0
  9 10  1  0  0  0  0
  9 24  1  0  0  0  0
  9 25  1  0  0  0  0
 10 19  1  0  0  0  0
 10 11  1  0  0  0  0
 10 26  1  0  0  0  0
 11 12  1  0  0  0  0
 11 27  1  0  0  0  0
 11 28  1  0  0  0  0
 12 17  1  0  0  0  0
 12 13  1  0  0  0  0
 13 14  1  0  0  0  0
 13 29  1  0  0  0  0
 13 30  1  0  0  0  0
 14 15  1  0  0  0  0
 14 31  1  0  0  0  0
 14 32  1  0  0  0  0
 15 16  1  0  0  0  0
 15 33  1  0  0  0  0
 15 34  1  0  0  0  0
 16 17  1  0  0  0  0
 16 35  1  0  0  0  0
 16 36  1  0  0  0  0
 17 18  1  0  0  0  0
 17 37  1  0  0  0  0
 18 19  1  0  0  0  0
 18 38  1  0  0  0  0
 18 39  1  0  0  0  0
M  END
> <s_m_source_file>
AV-unprocessed.smi

> <i_m_source_file_index>
2822

> <i_lp_mmshare_version>
43012

> <i_f3d_flags>
0

> <s_epik_input>
Q2xjMVtjSF1uW2NIXVtjSF1jMVtOSF1bQ0gyXVtDQEhdKFtDSDJdMilPW0NIMl1bQ0BASF0oTjIzKVtDSDJdW0NIMl1bQ0gyXVtDSDJdMw==

> <s_epik_cmdline>
J2VwaWtfcHl0aG9uJywgJy1waCcsICc3LjAnLCAnLXRuJywgJzgnLCAnLW1hJywgJzIwMCcsICctbWV0YWxfYmluZGluZycsICctaW1hZScsICc8aW5maWxlLm1hZT4nLCAnLW9tYWUnLCAnPG91dGZpbGUubWFlPic=

> <r_lp_tautomer_probability>
0.999999

> <r_epik_Ionization_Penalty>
2.10064

> <r_epik_Ionization_Penalty_Charging>
0

> <r_epik_Ionization_Penalty_Neutral>
2.10064

> <r_epik_State_Penalty>
2.1757

> <r_epik_Charging_Adjusted_Penalty>
2.1757

> <i_epik_Tot_Q>
0

> <i_epik_Tot_abs_Q>
0

> <r_epik_Metal_State_Penalty>
1.25425

> <b_epik_Metal_Only>
0

> <s_lp_Force_Field>
OPLS_2005

> <r_lp_Energy>
37.6936

> <b_lp_Chiralities_Consistent>
1

> <s_lp_Variant>
AV-unprocessed.smi:2822-21

> <Gold.Version>
5.8.1

> <Gold.Id.Protein>
6NUR|6NUR_protein|mol2

> <Gold.PLP.Fitness>
44.0581

> <Gold.PLP.PLP>
-44.4930

> <Gold.PLP.part.hbond>
-2.0000

> <Gold.PLP.part.metal>
0.0000

> <Gold.PLP.part.buried>
-5.9561

> <Gold.PLP.part.nonpolar>
-36.2729

> <Gold.PLP.part.repulsive>
0.1282

> <Gold.PLP.ligand.clash>
0.0000

> <Gold.PLP.ligand.torsion>
0.2177

> <Gold.PLP.Chemscore.Hbond>
0.0000

> <Gold.PLP.Chemscore.CHOScore>
0.0000

> <Gold.PLP.Chemscore.Metal>
0.0000

> <Gold.PLP.Chemscore.Internal.Correction>
0.0004

> <Gold.Rescore>
     Score         DG    S(hbond)    S(metal)    S(lipo)     H(rot)  DE(clash)    DE(int)     intcor
     16.40     -18.44       0.00        0.00     135.96       1.15       1.83       0.20       ----

> <Gold.Chemscore.Fitness>
16.4033

> <Gold.Chemscore.DG>
-18.4383

> <Gold.Chemscore.ZeroCoef>
-5.4800

> <Gold.Chemscore.Hbond>
0.0000

> <Gold.Chemscore.Metal>
0.0000

> <Gold.Chemscore.Lipo>
135.9575

> <Gold.Chemscore.Internal_Hbond>
0.0000

> <Gold.Chemscore.DEClash>
1.8320

> <Gold.Chemscore.DEInternal>
0.2031

> <Gold.Chemscore.Rot>
1.1519

> <Gold.Chemscore.Internal.Correction>
   9.000000E+99

> <Gold.Chemscore.Hbond.Weighted>
-0.0000

> <Gold.Chemscore.Metal.Weighted>
-0.0000

> <Gold.Chemscore.Lipo.Weighted>
-15.9070

> <Gold.Chemscore.Internal_Hbond.Weighted>
0.0000

> <Gold.Chemscore.DEClash.Weighted>
1.8320

> <Gold.Chemscore.DEInternal.Weighted>
0.2031

> <Gold.Chemscore.Rot.Weighted>
2.9487

> <Gold.Chemscore.Internal.Correction.Weighted>
   9.000000E+99

> <Gold.Protein.RotatedTorsions>
[ 6907 6896 6895 6894 ] final   68.49 input  -60.11 | X-H torsion
[ 7974 7965 7964 7962 ] final   73.04 input  175.53 | X-H torsion
[ 8008 7997 7996 7995 ] final   -7.20 input   59.86 | X-H torsion
[ 10167 10162 10161 10158 ] final  -62.91 input  -65.29 | X-H torsion
[ 10718 10713 10712 10709 ] final  121.53 input   66.30 | X-H torsion
[ 10763 10752 10751 10750 ] final  -24.10 input  -60.55 | X-H torsion
[ 11005 11000 10999 10996 ] final   -7.07 input  -57.11 | X-H torsion

> <Gold.Protein.ActiveResidues>
 VAL166  LYS551  ARG553  GLY616  TRP617  ASP618  TYR619  PRO620  LYS621  CYS622 
 ASP623  PHE694  ASN695  SER759  ASP760  ASP761  ALA762  ILE779  LEU786  VAL792 
 PHE793  MET794  SER795  GLU796  ALA797  LYS798  CYS799  TRP800  GLU811  SER814 

> <Gold.Protein.RotatedAtoms>
  152.4624  134.5154  159.9766 H   0  0  0  0  0  0  0  0  0  0  0  0  # atno 6907 bound_to 6896
  151.5200  133.3462  159.2907 H   0  0  0  0  0  0  0  0  0  0  0  0  # atno 6908 bound_to 6896
  150.8593  134.7969  159.7132 H   0  0  0  0  0  0  0  0  0  0  0  0  # atno 6909 bound_to 6896
  145.7459  139.2739  143.1460 H   0  0  0  0  0  0  0  0  0  0  0  0  # atno 7974 bound_to 7965
  154.5862  140.2413  155.7985 H   0  0  0  0  0  0  0  0  0  0  0  0  # atno 8008 bound_to 7997
  156.2214  140.2996  155.9918 H   0  0  0  0  0  0  0  0  0  0  0  0  # atno 8009 bound_to 7997
  155.2454  140.0408  157.2971 H   0  0  0  0  0  0  0  0  0  0  0  0  # atno 8010 bound_to 7997
  140.5907  143.2341  151.6146 H   0  0  0  0  0  0  0  0  0  0  0  0  # atno 10167 bound_to 10162
  157.5811  131.1075  150.8185 H   0  0  0  0  0  0  0  0  0  0  0  0  # atno 10718 bound_to 10713
  153.6784  135.6968  153.5125 H   0  0  0  0  0  0  0  0  0  0  0  0  # atno 10763 bound_to 10752
  153.2504  135.4277  155.0790 H   0  0  0  0  0  0  0  0  0  0  0  0  # atno 10764 bound_to 10752
  154.8407  135.3530  154.6328 H   0  0  0  0  0  0  0  0  0  0  0  0  # atno 10765 bound_to 10752
  140.7088  133.8927  155.8735 H   0  0  0  0  0  0  0  0  0  0  0  0  # atno 11005 bound_to 11000
  146.0404  140.8171  142.9832 LP  0  0  0  0  0  0  0  0  0  0  0  0  # atno 17320 bound_to 7965
  144.6860  140.2901  143.7279 LP  0  0  0  0  0  0  0  0  0  0  0  0  # atno 17321 bound_to 7965
  139.5225  144.3160  152.0952 LP  0  0  0  0  0  0  0  0  0  0  0  0  # atno 17342 bound_to 10162
  140.2324  144.4355  150.6294 LP  0  0  0  0  0  0  0  0  0  0  0  0  # atno 17343 bound_to 10162
  156.8631  130.5120  149.5302 LP  0  0  0  0  0  0  0  0  0  0  0  0  # atno 17370 bound_to 10713
  156.0857  130.5856  150.9644 LP  0  0  0  0  0  0  0  0  0  0  0  0  # atno 17371 bound_to 10713
  141.0102  134.1030  157.4229 LP  0  0  0  0  0  0  0  0  0  0  0  0  # atno 17394 bound_to 11000
  139.8877  135.0092  156.6577 LP  0  0  0  0  0  0  0  0  0  0  0  0  # atno 17395 bound_to 11000

$$$$
