AV-unprocessed.smi:415|AV-procd|sdf|2520|dock7
  -GOLD-   2262022473D 1   1.00000     0.00000
 Structure written by MMmdl.
 53 54  0  0  0  0  0  0  0  0  1 V2000
  150.2492  131.2104  155.6781 C   0  0  0  0  0  0  0  0  0  0  0  0
  149.7140  132.1753  156.5661 O   0  0  0  0  0  0  0  0  0  0  0  0
  150.5496  133.3124  156.7044 C   0  0  0  0  0  0  0  0  0  0  0  0
  150.0317  134.4579  155.8188 C   0  0  0  0  0  0  0  0  0  0  0  0
  149.8917  135.7120  156.5351 N   0  0  0  0  0  0  0  0  0  0  0  0
  149.0425  135.8703  157.6265 C   0  0  0  0  0  0  0  0  0  0  0  0
  148.3068  134.7907  158.0814 N   0  0  0  0  0  0  0  0  0  0  0  0
  148.9265  137.0568  158.2632 C   0  0  0  0  0  0  0  0  0  0  0  0
  149.6819  138.2300  157.8477 C   0  0  0  0  0  0  0  0  0  0  0  0
  149.5644  139.3278  158.3923 O   0  0  0  0  0  0  0  0  0  0  0  0
  150.5618  138.0390  156.7579 N   0  0  0  0  0  0  0  0  0  0  0  0
  151.3512  139.1942  156.2680 C   0  0  0  0  0  0  0  0  0  0  0  0
  152.1760  139.9153  157.3496 C   0  0  0  0  0  0  0  0  0  0  0  0
  153.1531  139.3482  157.8367 O   0  0  0  0  0  0  0  0  0  0  0  0
  151.7959  141.1523  157.7110 N   0  0  0  0  0  0  0  0  0  0  0  0
  152.4842  142.0229  158.6593 C   0  0  2  0  0  0  0  0  0  0  0  0
  152.4807  141.3699  160.0548 C   0  0  0  0  0  0  0  0  0  0  0  0
  153.1556  142.2733  161.0909 C   0  0  0  0  0  0  0  0  0  0  0  0
  152.4738  143.6449  161.1372 C   0  0  0  0  0  0  0  0  0  0  0  0
  152.4741  144.3349  159.7581 C   0  0  2  0  0  0  0  0  0  0  0  0
  151.8033  145.7160  159.8757 C   0  0  0  0  0  0  0  0  0  0  0  0
  151.8208  143.4270  158.6774 C   0  0  1  0  0  0  0  0  0  0  0  0
  151.8536  144.0760  157.2753 C   0  0  0  0  0  0  0  0  0  0  0  0
  150.6897  136.7980  156.0920 C   0  0  0  0  0  0  0  0  0  0  0  0
  151.4689  136.6821  155.1423 O   0  0  0  0  0  0  0  0  0  0  0  0
  149.5714  130.3597  155.6103 H   0  0  0  0  0  0  0  0  0  0  0  0
  151.2151  130.8441  156.0285 H   0  0  0  0  0  0  0  0  0  0  0  0
  150.3732  131.6234  154.6762 H   0  0  0  0  0  0  0  0  0  0  0  0
  150.5491  133.6341  157.7465 H   0  0  0  0  0  0  0  0  0  0  0  0
  151.5794  133.0645  156.4427 H   0  0  0  0  0  0  0  0  0  0  0  0
  150.6533  134.6165  154.9363 H   0  0  0  0  0  0  0  0  0  0  0  0
  149.0437  134.2236  155.4230 H   0  0  0  0  0  0  0  0  0  0  0  0
  148.3662  133.8825  157.6435 H   0  0  0  0  0  0  0  0  0  0  0  0
  147.6640  134.8720  158.8559 H   0  0  0  0  0  0  0  0  0  0  0  0
  148.2545  137.1484  159.1048 H   0  0  0  0  0  0  0  0  0  0  0  0
  152.0314  138.8986  155.4683 H   0  0  0  0  0  0  0  0  0  0  0  0
  150.6988  139.9285  155.7929 H   0  0  0  0  0  0  0  0  0  0  0  0
  150.9776  141.5367  157.2616 H   0  0  0  0  0  0  0  0  0  0  0  0
  153.5199  142.1439  158.3355 H   0  0  0  0  0  0  0  0  0  0  0  0
  151.4556  141.1620  160.3653 H   0  0  0  0  0  0  0  0  0  0  0  0
  152.9947  140.4086  160.0239 H   0  0  0  0  0  0  0  0  0  0  0  0
  153.1172  141.8047  162.0745 H   0  0  0  0  0  0  0  0  0  0  0  0
  154.2111  142.3932  160.8444 H   0  0  0  0  0  0  0  0  0  0  0  0
  151.4489  143.5288  161.4924 H   0  0  0  0  0  0  0  0  0  0  0  0
  152.9828  144.2733  161.8689 H   0  0  0  0  0  0  0  0  0  0  0  0
  153.5146  144.5008  159.4746 H   0  0  0  0  0  0  0  0  0  0  0  0
  150.7344  145.6228  160.0698 H   0  0  0  0  0  0  0  0  0  0  0  0
  151.9315  146.3099  158.9716 H   0  0  0  0  0  0  0  0  0  0  0  0
  152.2377  146.2932  160.6924 H   0  0  0  0  0  0  0  0  0  0  0  0
  150.7718  143.2937  158.9484 H   0  0  0  0  0  0  0  0  0  0  0  0
  152.8770  144.2802  156.9592 H   0  0  0  0  0  0  0  0  0  0  0  0
  151.3016  145.0144  157.2496 H   0  0  0  0  0  0  0  0  0  0  0  0
  151.3970  143.4385  156.5183 H   0  0  0  0  0  0  0  0  0  0  0  0
  1  2  1  0  0  0  0
  1 26  1  0  0  0  0
  1 27  1  0  0  0  0
  1 28  1  0  0  0  0
  2  3  1  0  0  0  0
  3  4  1  0  0  0  0
  3 29  1  0  0  0  0
  3 30  1  0  0  0  0
  4  5  1  0  0  0  0
  4 31  1  0  0  0  0
  4 32  1  0  0  0  0
  5 24  1  0  0  0  0
  5  6  1  0  0  0  0
  6  7  1  0  0  0  0
  6  8  2  0  0  0  0
  7 33  1  0  0  0  0
  7 34  1  0  0  0  0
  8  9  1  0  0  0  0
  8 35  1  0  0  0  0
  9 10  2  0  0  0  0
  9 11  1  0  0  0  0
 11 12  1  0  0  0  0
 11 24  1  0  0  0  0
 12 13  1  0  0  0  0
 12 36  1  0  0  0  0
 12 37  1  0  0  0  0
 13 14  2  0  0  0  0
 13 15  1  0  0  0  0
 15 16  1  0  0  0  0
 15 38  1  0  0  0  0
 16 22  1  0  0  0  0
 16 17  1  0  0  0  0
 16 39  1  0  0  0  0
 17 18  1  0  0  0  0
 17 40  1  0  0  0  0
 17 41  1  0  0  0  0
 18 19  1  0  0  0  0
 18 42  1  0  0  0  0
 18 43  1  0  0  0  0
 19 20  1  0  0  0  0
 19 44  1  0  0  0  0
 19 45  1  0  0  0  0
 20 21  1  0  0  0  0
 20 22  1  0  0  0  0
 20 46  1  0  0  0  0
 21 47  1  0  0  0  0
 21 48  1  0  0  0  0
 21 49  1  0  0  0  0
 22 23  1  0  0  0  0
 22 50  1  0  0  0  0
 23 51  1  0  0  0  0
 23 52  1  0  0  0  0
 23 53  1  0  0  0  0
 24 25  2  0  0  0  0
M  END
> <s_m_source_file>
AV-unprocessed.smi

> <i_m_source_file_index>
415

> <i_lp_mmshare_version>
43012

> <i_f3d_flags>
0

> <s_epik_input>
W0NIM11PW0NIMl1bQ0gyXW4xYyhbTkgyXSlbY0hdYyg9TyluKGMxPU8pW0NIMl1DKD1PKVtOSF1bQ0BASF0yW0NIMl1bQ0gyXVtDSDJdW0NAQEhdKFtDSDNdKVtDQEhdMltDSDNd

> <s_epik_cmdline>
J2VwaWtfcHl0aG9uJywgJy1waCcsICc3LjAnLCAnLXRuJywgJzgnLCAnLW1hJywgJzIwMCcsICctbWV0YWxfYmluZGluZycsICctaW1hZScsICc8aW5maWxlLm1hZT4nLCAnLW9tYWUnLCAnPG91dGZpbGUubWFlPic=

> <r_lp_tautomer_probability>
1

> <r_epik_Ionization_Penalty>
8.6647e-06

> <r_epik_Ionization_Penalty_Charging>
1.81162e-08

> <r_epik_Ionization_Penalty_Neutral>
8.64658e-06

> <r_epik_State_Penalty>
-0

> <r_epik_Charging_Adjusted_Penalty>
1.81162e-08

> <i_epik_Tot_Q>
0

> <i_epik_Tot_abs_Q>
0

> <r_epik_Metal_State_Penalty>
-0

> <b_epik_Metal_Only>
0

> <s_lp_Force_Field>
OPLS_2005

> <r_lp_Energy>
21.9512

> <b_lp_Chiralities_Consistent>
1

> <s_lp_Variant>
AV-unprocessed.smi:415-3

> <Gold.Version>
5.8.1

> <Gold.Id.Protein>
6NUR|6NUR_protein|mol2

> <Gold.PLP.Fitness>
48.7252

> <Gold.PLP.PLP>
-44.2631

> <Gold.PLP.part.hbond>
-2.0000

> <Gold.PLP.part.metal>
0.0000

> <Gold.PLP.part.buried>
-6.2434

> <Gold.PLP.part.nonpolar>
-36.7773

> <Gold.PLP.part.repulsive>
0.2827

> <Gold.PLP.ligand.clash>
0.0000

> <Gold.PLP.ligand.torsion>
0.7993

> <Gold.PLP.Chemscore.Hbond>
2.0000

> <Gold.PLP.Chemscore.CHOScore>
0.0000

> <Gold.PLP.Chemscore.Metal>
0.0000

> <Gold.Chemscore.Hbonds>
donor molecule, donor type, donor heavy atom, donor atom, acceptor molecule, acceptor atom, score
      P1  H  7997  8009       L1    14  1.00
      P1  H 10752 10765       L1    25  1.00

> <Gold.PLP.Chemscore.Internal.Correction>
0.0607

> <Gold.Rescore>
     Score         DG    S(hbond)    S(metal)    S(lipo)     H(rot)  DE(clash)    DE(int)     intcor
     17.29     -19.32       1.93        0.00     112.86       2.26       0.01       2.02       ----

> <Gold.Chemscore.Fitness>
17.2941

> <Gold.Chemscore.DG>
-19.3234

> <Gold.Chemscore.ZeroCoef>
-5.4800

> <Gold.Chemscore.Hbond>
1.9268

> <Gold.Chemscore.Metal>
0.0000

> <Gold.Chemscore.Lipo>
112.8649

> <Gold.Chemscore.Internal_Hbond>
0.0000

> <Gold.Chemscore.DEClash>
0.0139

> <Gold.Chemscore.DEInternal>
2.0154

> <Gold.Chemscore.Rot>
2.2645

> <Gold.Chemscore.Internal.Correction>
   9.000000E+99

> <Gold.Chemscore.Hbonds>
donor molecule, donor type, donor heavy atom, donor atom, acceptor molecule, acceptor atom, score
      P1  H  7997  8009       L1    14  0.35
      P1  H 10752 10765       L1    25  0.99

> <Gold.Chemscore.Hbond.Weighted>
-6.4353

> <Gold.Chemscore.Metal.Weighted>
-0.0000

> <Gold.Chemscore.Lipo.Weighted>
-13.2052

> <Gold.Chemscore.Internal_Hbond.Weighted>
0.0000

> <Gold.Chemscore.DEClash.Weighted>
0.0139

> <Gold.Chemscore.DEInternal.Weighted>
2.0154

> <Gold.Chemscore.Rot.Weighted>
5.7972

> <Gold.Chemscore.Internal.Correction.Weighted>
   9.000000E+99

> <Gold.Protein.RotatedTorsions>
[ 6907 6896 6895 6894 ] final -105.41 input  -60.11 | X-H torsion
[ 7974 7965 7964 7962 ] final   54.62 input  175.53 | X-H torsion
[ 8008 7997 7996 7995 ] final  165.50 input   59.86 | X-H torsion
[ 10167 10162 10161 10158 ] final   79.76 input  -65.29 | X-H torsion
[ 10718 10713 10712 10709 ] final  107.56 input   66.30 | X-H torsion
[ 10763 10752 10751 10750 ] final  168.67 input  -60.55 | X-H torsion
[ 11005 11000 10999 10996 ] final  -56.64 input  -57.11 | X-H torsion

> <Gold.Protein.ActiveResidues>
 VAL166  LYS551  ARG553  GLY616  TRP617  ASP618  TYR619  PRO620  LYS621  CYS622 
 ASP623  PHE694  ASN695  SER759  ASP760  ASP761  ALA762  ILE779  LEU786  VAL792 
 PHE793  MET794  SER795  GLU796  ALA797  LYS798  CYS799  TRP800  GLU811  SER814 

> <Gold.Protein.RotatedAtoms>
  150.7336  134.0130  159.3675 H   0  0  0  0  0  0  0  0  0  0  0  0  # atno 6907 bound_to 6896
  151.8091  135.0684  160.0420 H   0  0  0  0  0  0  0  0  0  0  0  0  # atno 6908 bound_to 6896
  152.3086  133.5692  159.5702 H   0  0  0  0  0  0  0  0  0  0  0  0  # atno 6909 bound_to 6896
  145.9590  139.4041  143.0260 H   0  0  0  0  0  0  0  0  0  0  0  0  # atno 7974 bound_to 7965
  156.1795  140.1668  156.8301 H   0  0  0  0  0  0  0  0  0  0  0  0  # atno 8008 bound_to 7997
  154.5344  140.0750  156.8435 H   0  0  0  0  0  0  0  0  0  0  0  0  # atno 8009 bound_to 7997
  155.3341  140.3381  155.4241 H   0  0  0  0  0  0  0  0  0  0  0  0  # atno 8010 bound_to 7997
  139.9569  144.5988  150.8108 H   0  0  0  0  0  0  0  0  0  0  0  0  # atno 10167 bound_to 10162
  157.6623  131.0875  150.6174 H   0  0  0  0  0  0  0  0  0  0  0  0  # atno 10718 bound_to 10713
  154.3719  135.2753  155.2261 H   0  0  0  0  0  0  0  0  0  0  0  0  # atno 10763 bound_to 10752
  154.4405  135.5955  153.6129 H   0  0  0  0  0  0  0  0  0  0  0  0  # atno 10764 bound_to 10752
  152.9838  135.6017  154.3952 H   0  0  0  0  0  0  0  0  0  0  0  0  # atno 10765 bound_to 10752
  141.1129  133.6610  156.4650 H   0  0  0  0  0  0  0  0  0  0  0  0  # atno 11005 bound_to 11000
  145.8067  140.9745  143.0970 LP  0  0  0  0  0  0  0  0  0  0  0  0  # atno 17320 bound_to 7965
  144.6811  139.9869  143.7484 LP  0  0  0  0  0  0  0  0  0  0  0  0  # atno 17321 bound_to 7965
  140.7565  143.3068  151.2942 LP  0  0  0  0  0  0  0  0  0  0  0  0  # atno 17342 bound_to 10162
  139.6584  144.0233  152.2676 LP  0  0  0  0  0  0  0  0  0  0  0  0  # atno 17343 bound_to 10162
  156.6476  130.4476  149.5730 LP  0  0  0  0  0  0  0  0  0  0  0  0  # atno 17370 bound_to 10713
  156.2162  130.6709  151.1321 LP  0  0  0  0  0  0  0  0  0  0  0  0  # atno 17371 bound_to 10713
  140.4725  134.6740  157.5135 LP  0  0  0  0  0  0  0  0  0  0  0  0  # atno 17394 bound_to 11000
  140.0034  134.6802  155.9494 LP  0  0  0  0  0  0  0  0  0  0  0  0  # atno 17395 bound_to 11000

$$$$
