AV-unprocessed.smi:991|AV-procd|sdf|4328|dock3
  -GOLD-   22720 2233D 1   1.00000     0.00000
 Structure written by MMmdl.
 32 33  0  0  0  0  0  0  0  0  1 V2000
  150.7952  140.0347  154.5243 O   0  0  0  0  0  0  0  0  0  0  0  0
  151.3200  139.1311  155.1746 C   0  0  0  0  0  0  0  0  0  0  0  0
  151.8863  137.9042  154.4587 C   0  0  0  0  0  0  0  0  0  0  0  0
  151.4397  136.6746  155.0883 N   0  0  0  0  0  0  0  0  0  0  0  0
  150.3109  135.9801  154.9329 C   0  0  0  0  0  0  0  0  0  0  0  0
  150.2436  134.8924  155.6881 N   0  0  0  0  0  0  0  0  0  0  0  0
  151.4485  134.9825  156.3265 C   0  0  0  0  0  0  0  0  0  0  0  0
  152.2041  136.0322  156.0032 N   0  0  0  0  0  0  0  0  0  0  0  0
  151.4375  139.1539  156.5122 N   0  0  0  0  0  0  0  0  0  0  0  0
  150.9821  140.2383  157.3796 C   0  0  0  0  0  0  0  0  0  0  0  0
  152.1236  140.9083  158.1668 C   0  0  0  0  0  0  0  0  0  0  0  0
  153.1703  140.2917  158.3754 O   0  0  0  0  0  0  0  0  0  0  0  0
  151.9321  142.1641  158.6209 N   0  0  0  0  0  0  0  0  0  0  0  0
  150.7180  142.9609  158.4462 C   0  0  0  0  0  0  0  0  0  0  0  0
  150.9074  144.2016  159.3199 C   0  0  0  0  0  0  0  0  0  0  0  0
  152.4183  144.3509  159.4333 C   0  0  0  0  0  0  0  0  0  0  0  0
  152.9405  142.9159  159.3651 C   0  0  0  0  0  0  0  0  0  0  0  0
  151.5663  137.8986  153.4157 H   0  0  0  0  0  0  0  0  0  0  0  0
  152.9769  137.9429  154.4608 H   0  0  0  0  0  0  0  0  0  0  0  0
  149.5225  136.2782  154.2570 H   0  0  0  0  0  0  0  0  0  0  0  0
  151.7787  134.2528  157.0512 H   0  0  0  0  0  0  0  0  0  0  0  0
  151.8859  138.3684  156.9616 H   0  0  0  0  0  0  0  0  0  0  0  0
  150.4466  140.9790  156.7836 H   0  0  0  0  0  0  0  0  0  0  0  0
  150.2643  139.8255  158.0888 H   0  0  0  0  0  0  0  0  0  0  0  0
  150.6260  143.2464  157.3974 H   0  0  0  0  0  0  0  0  0  0  0  0
  149.8189  142.4132  158.7324 H   0  0  0  0  0  0  0  0  0  0  0  0
  150.4240  145.0876  158.9072 H   0  0  0  0  0  0  0  0  0  0  0  0
  150.4849  144.0208  160.3092 H   0  0  0  0  0  0  0  0  0  0  0  0
  152.7937  144.9174  158.5797 H   0  0  0  0  0  0  0  0  0  0  0  0
  152.7269  144.8710  160.3407 H   0  0  0  0  0  0  0  0  0  0  0  0
  153.0307  142.4923  160.3665 H   0  0  0  0  0  0  0  0  0  0  0  0
  153.9215  142.8730  158.8889 H   0  0  0  0  0  0  0  0  0  0  0  0
  1  2  2  0  0  0  0
  2  3  1  0  0  0  0
  2  9  1  0  0  0  0
  3  4  1  0  0  0  0
  3 18  1  0  0  0  0
  3 19  1  0  0  0  0
  4  8  1  0  0  0  0
  4  5  1  0  0  0  0
  5  6  2  0  0  0  0
  5 20  1  0  0  0  0
  6  7  1  0  0  0  0
  7  8  2  0  0  0  0
  7 21  1  0  0  0  0
  9 10  1  0  0  0  0
  9 22  1  0  0  0  0
 10 11  1  0  0  0  0
 10 23  1  0  0  0  0
 10 24  1  0  0  0  0
 11 12  2  0  0  0  0
 11 13  1  0  0  0  0
 13 17  1  0  0  0  0
 13 14  1  0  0  0  0
 14 15  1  0  0  0  0
 14 25  1  0  0  0  0
 14 26  1  0  0  0  0
 15 16  1  0  0  0  0
 15 27  1  0  0  0  0
 15 28  1  0  0  0  0
 16 17  1  0  0  0  0
 16 29  1  0  0  0  0
 16 30  1  0  0  0  0
 17 31  1  0  0  0  0
 17 32  1  0  0  0  0
M  END
> <s_m_source_file>
AV-unprocessed.smi

> <i_m_source_file_index>
991

> <i_lp_mmshare_version>
43012

> <i_f3d_flags>
0

> <s_epik_input>
bjFbY0hdbltjSF1uMVtDSDJdQyg9TylbTkhdW0NIMl1DKD1PKU4yW0NIMl1bQ0gyXVtDSDJdW0NIMl0y

> <s_epik_cmdline>
J2VwaWtfcHl0aG9uJywgJy1waCcsICc3LjAnLCAnLXRuJywgJzgnLCAnLW1hJywgJzIwMCcsICctbWV0YWxfYmluZGluZycsICctaW1hZScsICc8aW5maWxlLm1hZT4nLCAnLW9tYWUnLCAnPG91dGZpbGUubWFlPic=

> <r_lp_tautomer_probability>
1

> <r_epik_Ionization_Penalty>
7.3183e-06

> <r_epik_Ionization_Penalty_Charging>
0

> <r_epik_Ionization_Penalty_Neutral>
7.3183e-06

> <r_epik_State_Penalty>
-0

> <r_epik_Charging_Adjusted_Penalty>
0

> <i_epik_Tot_Q>
0

> <i_epik_Tot_abs_Q>
0

> <r_epik_Metal_State_Penalty>
-0

> <b_epik_Metal_Only>
0

> <s_lp_Force_Field>
OPLS_2005

> <r_lp_Energy>
26.0119

> <b_lp_Chiralities_Consistent>
1

> <s_lp_Variant>
AV-unprocessed.smi:991-1

> <Gold.Version>
5.8.1

> <Gold.Id.Protein>
6NUR|6NUR_protein|mol2

> <Gold.PLP.Fitness>
42.8690

> <Gold.PLP.PLP>
-32.6206

> <Gold.PLP.part.hbond>
-3.0000

> <Gold.PLP.part.metal>
0.0000

> <Gold.PLP.part.buried>
-4.1015

> <Gold.PLP.part.nonpolar>
-26.0188

> <Gold.PLP.part.repulsive>
0.2445

> <Gold.PLP.ligand.clash>
0.0000

> <Gold.PLP.ligand.torsion>
0.7887

> <Gold.PLP.Chemscore.Hbond>
2.9440

> <Gold.PLP.Chemscore.CHOScore>
0.9951

> <Gold.PLP.Chemscore.Metal>
0.0000

> <Gold.Chemscore.Hbonds>
donor molecule, donor type, donor heavy atom, donor atom, acceptor molecule, acceptor atom, score
      P1  H  7989  7998       L1     1  1.00
      P1  H  7997  8008       L1    12  0.91
      P1  H 10752 10763       L1     8  0.62
      L1  C     5    20       P1  7948  1.00

> <Gold.PLP.Chemscore.Internal.Correction>
0.0085

> <Gold.Rescore>
     Score         DG    S(hbond)    S(metal)    S(lipo)     H(rot)  DE(clash)    DE(int)     intcor
     14.84     -15.31       2.90        0.00      56.60       2.54       0.00       0.47       ----

> <Gold.Chemscore.Fitness>
14.8374

> <Gold.Chemscore.DG>
-15.3097

> <Gold.Chemscore.ZeroCoef>
-5.4800

> <Gold.Chemscore.Hbond>
2.9044

> <Gold.Chemscore.Metal>
0.0000

> <Gold.Chemscore.Lipo>
56.6047

> <Gold.Chemscore.Internal_Hbond>
0.0000

> <Gold.Chemscore.DEClash>
0.0015

> <Gold.Chemscore.DEInternal>
0.4709

> <Gold.Chemscore.Rot>
2.5366

> <Gold.Chemscore.Internal.Correction>
   9.000000E+99

> <Gold.Chemscore.Hbonds>
donor molecule, donor type, donor heavy atom, donor atom, acceptor molecule, acceptor atom, score
      P1  H  7989  7998       L1     1  0.95
      P1  H  7997  8008       L1    12  0.88
      P1  H 10752 10763       L1     8  0.04

> <Gold.Chemscore.Hbond.Weighted>
-9.7007

> <Gold.Chemscore.Metal.Weighted>
-0.0000

> <Gold.Chemscore.Lipo.Weighted>
-6.6228

> <Gold.Chemscore.Internal_Hbond.Weighted>
0.0000

> <Gold.Chemscore.DEClash.Weighted>
0.0015

> <Gold.Chemscore.DEInternal.Weighted>
0.4709

> <Gold.Chemscore.Rot.Weighted>
6.4937

> <Gold.Chemscore.Internal.Correction.Weighted>
   9.000000E+99

> <Gold.Protein.RotatedTorsions>
[ 6907 6896 6895 6894 ] final  -62.91 input  -60.11 | X-H torsion
[ 7974 7965 7964 7962 ] final   78.41 input  175.53 | X-H torsion
[ 8008 7997 7996 7995 ] final  -86.00 input   59.86 | X-H torsion
[ 10167 10162 10161 10158 ] final  -76.47 input  -65.29 | X-H torsion
[ 10718 10713 10712 10709 ] final  111.54 input   66.30 | X-H torsion
[ 10763 10752 10751 10750 ] final   89.22 input  -60.55 | X-H torsion
[ 11005 11000 10999 10996 ] final -162.27 input  -57.11 | X-H torsion

> <Gold.Protein.ActiveResidues>
 VAL166  LYS551  ARG553  GLY616  TRP617  ASP618  TYR619  PRO620  LYS621  CYS622 
 ASP623  PHE694  ASN695  SER759  ASP760  ASP761  ALA762  ILE779  LEU786  VAL792 
 PHE793  MET794  SER795  GLU796  ALA797  LYS798  CYS799  TRP800  GLU811  SER814 

> <Gold.Protein.RotatedAtoms>
  150.7684  134.6507  159.6286 H   0  0  0  0  0  0  0  0  0  0  0  0  # atno 6907 bound_to 6896
  152.3726  134.6708  160.0180 H   0  0  0  0  0  0  0  0  0  0  0  0  # atno 6908 bound_to 6896
  151.7063  133.3275  159.3315 H   0  0  0  0  0  0  0  0  0  0  0  0  # atno 6909 bound_to 6896
  145.6775  139.2514  143.1833 H   0  0  0  0  0  0  0  0  0  0  0  0  # atno 7974 bound_to 7965
  154.6470  140.0584  156.9912 H   0  0  0  0  0  0  0  0  0  0  0  0  # atno 8008 bound_to 7997
  155.1429  140.3267  155.4429 H   0  0  0  0  0  0  0  0  0  0  0  0  # atno 8009 bound_to 7997
  156.2558  140.1961  156.6544 H   0  0  0  0  0  0  0  0  0  0  0  0  # atno 8010 bound_to 7997
  140.4854  143.2392  151.7992 H   0  0  0  0  0  0  0  0  0  0  0  0  # atno 10167 bound_to 10162
  157.6439  131.0952  150.6764 H   0  0  0  0  0  0  0  0  0  0  0  0  # atno 10718 bound_to 10713
  153.1848  135.4478  155.0075 H   0  0  0  0  0  0  0  0  0  0  0  0  # atno 10763 bound_to 10752
  154.8053  135.3272  154.7448 H   0  0  0  0  0  0  0  0  0  0  0  0  # atno 10764 bound_to 10752
  153.7909  135.6970  153.4927 H   0  0  0  0  0  0  0  0  0  0  0  0  # atno 10765 bound_to 10752
  140.6111  134.4848  157.5215 H   0  0  0  0  0  0  0  0  0  0  0  0  # atno 11005 bound_to 11000
  146.0992  140.7564  142.9557 LP  0  0  0  0  0  0  0  0  0  0  0  0  # atno 17320 bound_to 7965
  144.7036  140.3761  143.7136 LP  0  0  0  0  0  0  0  0  0  0  0  0  # atno 17321 bound_to 7965
  139.4841  144.4719  151.9415 LP  0  0  0  0  0  0  0  0  0  0  0  0  # atno 17342 bound_to 10162
  140.3805  144.2742  150.5909 LP  0  0  0  0  0  0  0  0  0  0  0  0  # atno 17343 bound_to 10162
  156.7084  130.4644  149.5554 LP  0  0  0  0  0  0  0  0  0  0  0  0  # atno 17370 bound_to 10713
  156.1747  130.6460  151.0880 LP  0  0  0  0  0  0  0  0  0  0  0  0  # atno 17371 bound_to 10713
  139.9192  134.8184  156.1267 LP  0  0  0  0  0  0  0  0  0  0  0  0  # atno 17394 bound_to 11000
  141.0807  133.6755  156.2331 LP  0  0  0  0  0  0  0  0  0  0  0  0  # atno 17395 bound_to 11000

$$$$
