AV-unprocessed.smi:2009|AV-procd|sdf|8147|dock2
  -GOLD-   2272010383D 1   1.00000     0.00000
 Structure written by MMmdl.
 37 38  0  0  0  0  0  0  0  0  2 V2000
  150.8143  137.5404  158.9833 C   0  0  0  0  0  0  0  0  0  0  0  0
  152.1062  138.3413  158.7715 C   0  0  2  0  0  0  0  0  0  0  0  0
  152.9396  137.7929  157.5858 C   0  0  0  0  0  0  0  0  0  0  0  0
  152.2921  137.9243  156.2836 N   0  0  0  0  0  0  0  0  0  0  0  0
  151.8855  139.0780  155.6419 C   0  0  0  0  0  0  0  0  0  0  0  0
  151.3401  138.7131  154.4448 C   0  0  0  0  0  0  0  0  0  0  0  0
  151.4697  137.2966  154.4340 C   0  0  0  0  0  0  0  0  0  0  0  0
  152.0498  136.8274  155.5267 N   0  0  0  0  0  0  0  0  0  0  0  0
  152.8915  138.2983  159.9977 N   0  5  0  0  0  0  0  0  0  0  0  0
  154.2184  139.2227  160.1219 S   0  0  0  0  0  0  0  0  0  0  0  0
  154.9879  139.0006  161.3572 O   0  0  0  0  0  0  0  0  0  0  0  0
  154.9644  139.3103  158.8558 O   0  0  0  0  0  0  0  0  0  0  0  0
  153.4137  140.7499  160.3328 N   0  0  0  0  0  0  0  0  0  0  0  0
  153.2150  141.5690  159.1184 C   0  0  0  0  0  0  0  0  0  0  0  0
  152.2067  142.7061  159.3537 C   0  0  0  0  0  0  0  0  0  0  0  0
  152.6127  143.5710  160.5489 C   0  0  0  0  0  0  0  0  0  0  0  0
  152.7568  142.6783  161.7831 C   0  0  0  0  0  0  0  0  0  0  0  0
  153.7634  141.5436  161.5343 C   0  0  0  0  0  0  0  0  0  0  0  0
  150.1903  137.5635  158.0898 H   0  0  0  0  0  0  0  0  0  0  0  0
  150.2258  137.9522  159.8042 H   0  0  0  0  0  0  0  0  0  0  0  0
  151.0253  136.4956  159.2141 H   0  0  0  0  0  0  0  0  0  0  0  0
  151.8091  139.3610  158.5220 H   0  0  0  0  0  0  0  0  0  0  0  0
  153.9072  138.2949  157.5394 H   0  0  0  0  0  0  0  0  0  0  0  0
  153.1562  136.7360  157.7479 H   0  0  0  0  0  0  0  0  0  0  0  0
  152.0108  140.0508  156.0931 H   0  0  0  0  0  0  0  0  0  0  0  0
  150.9135  139.3596  153.6929 H   0  0  0  0  0  0  0  0  0  0  0  0
  151.1658  136.5996  153.6672 H   0  0  0  0  0  0  0  0  0  0  0  0
  154.1783  141.9722  158.8039 H   0  0  0  0  0  0  0  0  0  0  0  0
  152.8532  140.9418  158.3041 H   0  0  0  0  0  0  0  0  0  0  0  0
  152.1277  143.3221  158.4576 H   0  0  0  0  0  0  0  0  0  0  0  0
  151.2155  142.2844  159.5266 H   0  0  0  0  0  0  0  0  0  0  0  0
  153.5556  144.0780  160.3410 H   0  0  0  0  0  0  0  0  0  0  0  0
  151.8668  144.3459  160.7269 H   0  0  0  0  0  0  0  0  0  0  0  0
  153.0752  143.2743  162.6387 H   0  0  0  0  0  0  0  0  0  0  0  0
  151.7870  142.2535  162.0455 H   0  0  0  0  0  0  0  0  0  0  0  0
  153.7966  140.9034  162.4143 H   0  0  0  0  0  0  0  0  0  0  0  0
  154.7674  141.9501  161.4075 H   0  0  0  0  0  0  0  0  0  0  0  0
  1  2  1  0  0  0  0
  1 19  1  0  0  0  0
  1 20  1  0  0  0  0
  1 21  1  0  0  0  0
  2  3  1  0  0  0  0
  2  9  1  0  0  0  0
  2 22  1  0  0  0  0
  3  4  1  0  0  0  0
  3 23  1  0  0  0  0
  3 24  1  0  0  0  0
  4  8  1  0  0  0  0
  4  5  1  0  0  0  0
  5  6  2  0  0  0  0
  5 25  1  0  0  0  0
  6  7  1  0  0  0  0
  6 26  1  0  0  0  0
  7  8  2  0  0  0  0
  7 27  1  0  0  0  0
  9 10  1  0  0  0  0
 10 11  2  0  0  0  0
 10 12  2  0  0  0  0
 10 13  1  0  0  0  0
 13 18  1  0  0  0  0
 13 14  1  0  0  0  0
 14 15  1  0  0  0  0
 14 28  1  0  0  0  0
 14 29  1  0  0  0  0
 15 16  1  0  0  0  0
 15 30  1  0  0  0  0
 15 31  1  0  0  0  0
 16 17  1  0  0  0  0
 16 32  1  0  0  0  0
 16 33  1  0  0  0  0
 17 18  1  0  0  0  0
 17 34  1  0  0  0  0
 17 35  1  0  0  0  0
 18 36  1  0  0  0  0
 18 37  1  0  0  0  0
M  CHG  1   9  -1
M  END
> <s_m_source_file>
AV-unprocessed.smi

> <i_m_source_file_index>
2009

> <i_lp_mmshare_version>
43012

> <i_f3d_flags>
0

> <s_epik_input>
bjFbY0hdW2NIXVtjSF1uMVtDSDJdW0NAQEhdKFtDSDNdKVtOSF1TKD1PKSg9TylOMltDSDJdW0NIMl1bQ0gyXVtDSDJdW0NIMl0y

> <s_epik_cmdline>
J2VwaWtfcHl0aG9uJywgJy1waCcsICc3LjAnLCAnLXRuJywgJzgnLCAnLW1hJywgJzIwMCcsICctbWV0YWxfYmluZGluZycsICctaW1hZScsICc8aW5maWxlLm1hZT4nLCAnLW9tYWUnLCAnPG91dGZpbGUubWFlPic=

> <r_lp_tautomer_probability>
1

> <r_epik_Ionization_Penalty>
1.75622

> <r_epik_Ionization_Penalty_Charging>
1.7562

> <r_epik_Ionization_Penalty_Neutral>
2.38826e-05

> <r_epik_State_Penalty>
1.86645

> <r_epik_Charging_Adjusted_Penalty>
3.62264

> <i_epik_Tot_Q>
-1

> <i_epik_Tot_abs_Q>
1

> <r_epik_Metal_State_Penalty>
0.460135

> <b_epik_Metal_Only>
0

> <s_lp_Force_Field>
OPLS_2005

> <r_lp_Energy>
5.98775

> <b_lp_Chiralities_Consistent>
1

> <s_lp_Variant>
AV-unprocessed.smi:2009-3

> <Gold.Version>
5.8.1

> <Gold.Id.Protein>
6NUR|6NUR_protein|mol2

> <Gold.PLP.Fitness>
44.0489

> <Gold.PLP.PLP>
-35.4239

> <Gold.PLP.part.hbond>
-2.0000

> <Gold.PLP.part.metal>
0.0000

> <Gold.PLP.part.buried>
-4.9775

> <Gold.PLP.part.nonpolar>
-29.1353

> <Gold.PLP.part.repulsive>
0.0542

> <Gold.PLP.ligand.clash>
0.0000

> <Gold.PLP.ligand.torsion>
1.0849

> <Gold.PLP.Chemscore.Hbond>
1.9600

> <Gold.PLP.Chemscore.CHOScore>
1.1032

> <Gold.PLP.Chemscore.Metal>
0.0000

> <Gold.Chemscore.Hbonds>
donor molecule, donor type, donor heavy atom, donor atom, acceptor molecule, acceptor atom, score
      P1  H  7997  8009       L1    12  1.00
      P1  H 10752 10763       L1     8  0.56
      L1  C     7    27       P1  7949  1.00

> <Gold.PLP.Chemscore.Internal.Correction>
1.6051

> <Gold.Rescore>
     Score         DG    S(hbond)    S(metal)    S(lipo)     H(rot)  DE(clash)    DE(int)     intcor
     15.85     -18.35       1.91        0.00      89.80       1.57       0.07       2.44       ----

> <Gold.Chemscore.Fitness>
15.8461

> <Gold.Chemscore.DG>
-18.3519

> <Gold.Chemscore.ZeroCoef>
-5.4800

> <Gold.Chemscore.Hbond>
1.9095

> <Gold.Chemscore.Metal>
0.0000

> <Gold.Chemscore.Lipo>
89.7952

> <Gold.Chemscore.Internal_Hbond>
0.0000

> <Gold.Chemscore.DEClash>
0.0655

> <Gold.Chemscore.DEInternal>
2.4403

> <Gold.Chemscore.Rot>
1.5672

> <Gold.Chemscore.Internal.Correction>
   9.000000E+99

> <Gold.Chemscore.Hbonds>
donor molecule, donor type, donor heavy atom, donor atom, acceptor molecule, acceptor atom, score
      P1  H  7997  8009       L1    12  1.00
      P1  H 10752 10763       L1     8  0.04

> <Gold.Chemscore.Hbond.Weighted>
-6.3777

> <Gold.Chemscore.Metal.Weighted>
-0.0000

> <Gold.Chemscore.Lipo.Weighted>
-10.5060

> <Gold.Chemscore.Internal_Hbond.Weighted>
0.0000

> <Gold.Chemscore.DEClash.Weighted>
0.0655

> <Gold.Chemscore.DEInternal.Weighted>
2.4403

> <Gold.Chemscore.Rot.Weighted>
4.0119

> <Gold.Chemscore.Internal.Correction.Weighted>
   9.000000E+99

> <Gold.Protein.RotatedTorsions>
[ 6907 6896 6895 6894 ] final  120.22 input  -60.11 | X-H torsion
[ 7974 7965 7964 7962 ] final  170.47 input  175.53 | X-H torsion
[ 8008 7997 7996 7995 ] final  115.89 input   59.86 | X-H torsion
[ 10167 10162 10161 10158 ] final  104.56 input  -65.29 | X-H torsion
[ 10718 10713 10712 10709 ] final -148.44 input   66.30 | X-H torsion
[ 10763 10752 10751 10750 ] final   58.63 input  -60.55 | X-H torsion
[ 11005 11000 10999 10996 ] final -174.16 input  -57.11 | X-H torsion

> <Gold.Protein.ActiveResidues>
 VAL166  LYS551  ARG553  GLY616  TRP617  ASP618  TYR619  PRO620  LYS621  CYS622 
 ASP623  PHE694  ASN695  SER759  ASP760  ASP761  ALA762  ILE779  LEU786  VAL792 
 PHE793  MET794  SER795  GLU796  ALA797  LYS798  CYS799  TRP800  GLU811  SER814 

> <Gold.Protein.RotatedAtoms>
  152.4414  133.7456  159.6664 H   0  0  0  0  0  0  0  0  0  0  0  0  # atno 6907 bound_to 6896
  150.8306  133.8087  159.3106 H   0  0  0  0  0  0  0  0  0  0  0  0  # atno 6908 bound_to 6896
  151.5742  135.1063  160.0054 H   0  0  0  0  0  0  0  0  0  0  0  0  # atno 6909 bound_to 6896
  144.7323  139.9207  143.6420 H   0  0  0  0  0  0  0  0  0  0  0  0  # atno 7974 bound_to 7965
  156.2407  140.2929  156.0438 H   0  0  0  0  0  0  0  0  0  0  0  0  # atno 8008 bound_to 7997
  155.1958  140.0408  157.2926 H   0  0  0  0  0  0  0  0  0  0  0  0  # atno 8009 bound_to 7997
  154.6164  140.2465  155.7611 H   0  0  0  0  0  0  0  0  0  0  0  0  # atno 8010 bound_to 7997
  139.7167  144.7067  151.0939 H   0  0  0  0  0  0  0  0  0  0  0  0  # atno 10167 bound_to 10162
  156.4203  130.8025  151.2248 H   0  0  0  0  0  0  0  0  0  0  0  0  # atno 10718 bound_to 10713
  152.9875  135.5600  154.5583 H   0  0  0  0  0  0  0  0  0  0  0  0  # atno 10763 bound_to 10752
  154.5006  135.2797  155.1425 H   0  0  0  0  0  0  0  0  0  0  0  0  # atno 10764 bound_to 10752
  154.2857  135.6336  153.5418 H   0  0  0  0  0  0  0  0  0  0  0  0  # atno 10765 bound_to 10752
  140.4777  134.6105  157.4907 H   0  0  0  0  0  0  0  0  0  0  0  0  # atno 11005 bound_to 11000
  146.0932  139.3923  143.0393 LP  0  0  0  0  0  0  0  0  0  0  0  0  # atno 17320 bound_to 7965
  145.7682  140.9907  143.1163 LP  0  0  0  0  0  0  0  0  0  0  0  0  # atno 17321 bound_to 7965
  140.7745  143.5221  150.9524 LP  0  0  0  0  0  0  0  0  0  0  0  0  # atno 17342 bound_to 10162
  139.8907  143.6957  152.3145 LP  0  0  0  0  0  0  0  0  0  0  0  0  # atno 17343 bound_to 10162
  157.7508  131.0230  150.3816 LP  0  0  0  0  0  0  0  0  0  0  0  0  # atno 17370 bound_to 10713
  156.4132  130.3938  149.6877 LP  0  0  0  0  0  0  0  0  0  0  0  0  # atno 17371 bound_to 10713
  139.9846  134.7082  155.9797 LP  0  0  0  0  0  0  0  0  0  0  0  0  # atno 17394 bound_to 11000
  141.1546  133.6544  156.4122 LP  0  0  0  0  0  0  0  0  0  0  0  0  # atno 17395 bound_to 11000

$$$$
