AV-unprocessed.smi:1220|AV-procd|sdf|5114|dock4
  -GOLD-   22720 4173D 1   1.00000     0.00000
 Structure written by MMmdl.
 35 36  0  0  0  0  0  0  0  0  1 V2000
  150.3232  142.2672  156.5304 C   0  0  0  0  0  0  0  0  0  0  0  0
  150.5715  141.3144  157.7075 C   0  0  2  0  0  0  0  0  0  0  0  0
  151.8637  141.6850  158.4674 C   0  0  0  0  0  0  0  0  0  0  0  0
  151.7633  142.9565  159.1626 N   0  0  0  0  0  0  0  0  0  0  0  0
  151.2870  144.1595  158.6849 C   0  0  0  0  0  0  0  0  0  0  0  0
  151.4091  145.0734  159.6916 C   0  0  0  0  0  0  0  0  0  0  0  0
  151.9724  144.3235  160.7617 C   0  0  0  0  0  0  0  0  0  0  0  0
  152.1792  143.0558  160.4435 N   0  0  0  0  0  0  0  0  0  0  0  0
  150.6436  139.9438  157.2024 N   0  0  0  0  0  0  0  0  0  0  0  0
  151.4131  139.5223  156.1858 C   0  0  0  0  0  0  0  0  0  0  0  0
  152.1971  140.2532  155.5801 O   0  0  0  0  0  0  0  0  0  0  0  0
  151.2518  138.0543  155.7753 C   0  0  2  0  0  0  0  0  0  0  0  0
  149.8405  137.7449  155.2310 C   0  0  0  0  0  0  0  0  0  0  0  0
  149.6709  136.2236  155.1602 C   0  0  0  0  0  0  0  0  0  0  0  0
  150.6281  135.5517  156.5699 S   0  0  0  0  0  0  0  0  0  0  0  0
  149.7145  135.2367  157.6784 O   0  0  0  0  0  0  0  0  0  0  0  0
  151.5810  134.5513  156.0664 O   0  0  0  0  0  0  0  0  0  0  0  0
  151.5191  137.1053  156.9570 C   0  0  0  0  0  0  0  0  0  0  0  0
  150.2346  143.2984  156.8733 H   0  0  0  0  0  0  0  0  0  0  0  0
  149.3997  142.0147  156.0083 H   0  0  0  0  0  0  0  0  0  0  0  0
  151.1380  142.2267  155.8067 H   0  0  0  0  0  0  0  0  0  0  0  0
  149.7232  141.4163  158.3868 H   0  0  0  0  0  0  0  0  0  0  0  0
  152.1170  140.9101  159.1922 H   0  0  0  0  0  0  0  0  0  0  0  0
  152.7029  141.7459  157.7730 H   0  0  0  0  0  0  0  0  0  0  0  0
  150.9133  144.2656  157.6771 H   0  0  0  0  0  0  0  0  0  0  0  0
  151.1392  146.1188  159.6675 H   0  0  0  0  0  0  0  0  0  0  0  0
  152.2347  144.6600  161.7537 H   0  0  0  0  0  0  0  0  0  0  0  0
  150.0334  139.2690  157.6403 H   0  0  0  0  0  0  0  0  0  0  0  0
  151.9688  137.8193  154.9865 H   0  0  0  0  0  0  0  0  0  0  0  0
  149.0827  138.1476  155.9049 H   0  0  0  0  0  0  0  0  0  0  0  0
  149.6750  138.2040  154.2560 H   0  0  0  0  0  0  0  0  0  0  0  0
  148.6303  135.9052  155.2227 H   0  0  0  0  0  0  0  0  0  0  0  0
  150.1030  135.8284  154.2408 H   0  0  0  0  0  0  0  0  0  0  0  0
  152.5799  136.8954  157.0942 H   0  0  0  0  0  0  0  0  0  0  0  0
  151.1211  137.4954  157.8951 H   0  0  0  0  0  0  0  0  0  0  0  0
  1  2  1  0  0  0  0
  1 19  1  0  0  0  0
  1 20  1  0  0  0  0
  1 21  1  0  0  0  0
  2  3  1  0  0  0  0
  2  9  1  0  0  0  0
  2 22  1  0  0  0  0
  3  4  1  0  0  0  0
  3 23  1  0  0  0  0
  3 24  1  0  0  0  0
  4  8  1  0  0  0  0
  4  5  1  0  0  0  0
  5  6  2  0  0  0  0
  5 25  1  0  0  0  0
  6  7  1  0  0  0  0
  6 26  1  0  0  0  0
  7  8  2  0  0  0  0
  7 27  1  0  0  0  0
  9 10  1  0  0  0  0
  9 28  1  0  0  0  0
 10 11  2  0  0  0  0
 10 12  1  0  0  0  0
 12 18  1  0  0  0  0
 12 13  1  0  0  0  0
 12 29  1  0  0  0  0
 13 14  1  0  0  0  0
 13 30  1  0  0  0  0
 13 31  1  0  0  0  0
 14 15  1  0  0  0  0
 14 32  1  0  0  0  0
 14 33  1  0  0  0  0
 15 16  2  0  0  0  0
 15 17  2  0  0  0  0
 15 18  1  0  0  0  0
 18 34  1  0  0  0  0
 18 35  1  0  0  0  0
M  END
> <s_m_source_file>
AV-unprocessed.smi

> <i_m_source_file_index>
1220

> <i_lp_mmshare_version>
43012

> <i_f3d_flags>
0

> <s_epik_input>
bjFbY0hdW2NIXVtjSF1uMVtDSDJdW0NAQEhdKFtDSDNdKVtOSF1DKD1PKVtDQEBIXShbQ0gyXTIpW0NIMl1bQ0gyXVMyKD1PKT1P

> <s_epik_cmdline>
J2VwaWtfcHl0aG9uJywgJy1waCcsICc3LjAnLCAnLXRuJywgJzgnLCAnLW1hJywgJzIwMCcsICctbWV0YWxfYmluZGluZycsICctaW1hZScsICc8aW5maWxlLm1hZT4nLCAnLW9tYWUnLCAnPG91dGZpbGUubWFlPic=

> <r_lp_tautomer_probability>
1

> <r_epik_Ionization_Penalty>
0.000293905

> <r_epik_Ionization_Penalty_Charging>
0

> <r_epik_Ionization_Penalty_Neutral>
0.000293905

> <r_epik_State_Penalty>
-0

> <r_epik_Charging_Adjusted_Penalty>
0

> <i_epik_Tot_Q>
0

> <i_epik_Tot_abs_Q>
0

> <r_epik_Metal_State_Penalty>
-0

> <b_epik_Metal_Only>
0

> <s_lp_Force_Field>
OPLS_2005

> <r_lp_Energy>
3.03909

> <b_lp_Chiralities_Consistent>
1

> <s_lp_Variant>
AV-unprocessed.smi:1220-1

> <Gold.Version>
5.8.1

> <Gold.Id.Protein>
6NUR|6NUR_protein|mol2

> <Gold.PLP.Fitness>
41.5388

> <Gold.PLP.PLP>
-30.6212

> <Gold.PLP.part.hbond>
-4.0000

> <Gold.PLP.part.metal>
0.0000

> <Gold.PLP.part.buried>
-1.8224

> <Gold.PLP.part.nonpolar>
-24.5556

> <Gold.PLP.part.repulsive>
0.0589

> <Gold.PLP.ligand.clash>
0.0000

> <Gold.PLP.ligand.torsion>
0.3152

> <Gold.PLP.Chemscore.Hbond>
2.8514

> <Gold.PLP.Chemscore.CHOScore>
0.9925

> <Gold.PLP.Chemscore.Metal>
0.0000

> <Gold.Chemscore.Hbonds>
donor molecule, donor type, donor heavy atom, donor atom, acceptor molecule, acceptor atom, score
      P1  H  6896  6909       L1    16  0.49
      P1  H  7989  7998       L1    11  0.34
      P1  H  7997  8010       L1    11  0.47
      P1  H 10752 10763       L1    17  0.71
      L1  C     5    25       P1  8028  0.16

> <Gold.PLP.Chemscore.Internal.Correction>
0.0165

> <Gold.Rescore>
     Score         DG    S(hbond)    S(metal)    S(lipo)     H(rot)  DE(clash)    DE(int)     intcor
     14.35     -16.58       1.97        0.00      76.75       1.75       0.76       1.46       ----

> <Gold.Chemscore.Fitness>
14.3509

> <Gold.Chemscore.DG>
-16.5760

> <Gold.Chemscore.ZeroCoef>
-5.4800

> <Gold.Chemscore.Hbond>
1.9718

> <Gold.Chemscore.Metal>
0.0000

> <Gold.Chemscore.Lipo>
76.7497

> <Gold.Chemscore.Internal_Hbond>
0.0000

> <Gold.Chemscore.DEClash>
0.7641

> <Gold.Chemscore.DEInternal>
1.4610

> <Gold.Chemscore.Rot>
1.7460

> <Gold.Chemscore.Internal.Correction>
   9.000000E+99

> <Gold.Chemscore.Hbonds>
donor molecule, donor type, donor heavy atom, donor atom, acceptor molecule, acceptor atom, score
      P1  H  6896  6909       L1    16  0.43
      P1  H  7989  7998       L1    11  0.33
      P1  H  7997  8010       L1    11  0.44
      P1  H 10752 10763       L1    17  0.56

> <Gold.Chemscore.Hbond.Weighted>
-6.5860

> <Gold.Chemscore.Metal.Weighted>
-0.0000

> <Gold.Chemscore.Lipo.Weighted>
-8.9797

> <Gold.Chemscore.Internal_Hbond.Weighted>
0.0000

> <Gold.Chemscore.DEClash.Weighted>
0.7641

> <Gold.Chemscore.DEInternal.Weighted>
1.4610

> <Gold.Chemscore.Rot.Weighted>
4.4697

> <Gold.Chemscore.Internal.Correction.Weighted>
   9.000000E+99

> <Gold.Protein.RotatedTorsions>
[ 6907 6896 6895 6894 ] final   23.98 input  -60.11 | X-H torsion
[ 7974 7965 7964 7962 ] final  122.19 input  175.53 | X-H torsion
[ 8008 7997 7996 7995 ] final   98.87 input   59.86 | X-H torsion
[ 10167 10162 10161 10158 ] final -172.50 input  -65.29 | X-H torsion
[ 10718 10713 10712 10709 ] final   51.49 input   66.30 | X-H torsion
[ 10763 10752 10751 10750 ] final   87.67 input  -60.55 | X-H torsion
[ 11005 11000 10999 10996 ] final  -98.75 input  -57.11 | X-H torsion

> <Gold.Protein.ActiveResidues>
 VAL166  LYS551  ARG553  GLY616  TRP617  ASP618  TYR619  PRO620  LYS621  CYS622 
 ASP623  PHE694  ASN695  SER759  ASP760  ASP761  ALA762  ILE779  LEU786  VAL792 
 PHE793  MET794  SER795  GLU796  ALA797  LYS798  CYS799  TRP800  GLU811  SER814 

> <Gold.Protein.RotatedAtoms>
  151.9505  135.0171  160.0541 H   0  0  0  0  0  0  0  0  0  0  0  0  # atno 6907 bound_to 6896
  152.1957  133.4800  159.5040 H   0  0  0  0  0  0  0  0  0  0  0  0  # atno 6908 bound_to 6896
  150.6944  134.1572  159.4205 H   0  0  0  0  0  0  0  0  0  0  0  0  # atno 6909 bound_to 6896
  145.1104  139.3457  143.4766 H   0  0  0  0  0  0  0  0  0  0  0  0  # atno 7974 bound_to 7965
  156.1048  140.3237  155.7991 H   0  0  0  0  0  0  0  0  0  0  0  0  # atno 8008 bound_to 7997
  155.4775  140.0551  157.2989 H   0  0  0  0  0  0  0  0  0  0  0  0  # atno 8009 bound_to 7997
  154.4720  140.2015  155.9986 H   0  0  0  0  0  0  0  0  0  0  0  0  # atno 8010 bound_to 7997
  139.5741  144.1573  152.1426 H   0  0  0  0  0  0  0  0  0  0  0  0  # atno 10167 bound_to 10162
  157.4986  130.8423  149.8289 H   0  0  0  0  0  0  0  0  0  0  0  0  # atno 10718 bound_to 10713
  153.1691  135.4535  154.9878 H   0  0  0  0  0  0  0  0  0  0  0  0  # atno 10763 bound_to 10752
  154.7953  135.3235  154.7684 H   0  0  0  0  0  0  0  0  0  0  0  0  # atno 10764 bound_to 10752
  153.8163  135.6950  153.4888 H   0  0  0  0  0  0  0  0  0  0  0  0  # atno 10765 bound_to 10752
  141.1333  133.8269  157.0881 H   0  0  0  0  0  0  0  0  0  0  0  0  # atno 11005 bound_to 11000
  146.3526  140.1020  142.8607 LP  0  0  0  0  0  0  0  0  0  0  0  0  # atno 17320 bound_to 7965
  145.0853  140.9248  143.4801 LP  0  0  0  0  0  0  0  0  0  0  0  0  # atno 17321 bound_to 7965
  140.1112  144.5455  150.6924 LP  0  0  0  0  0  0  0  0  0  0  0  0  # atno 17342 bound_to 10162
  140.7025  143.2444  151.4824 LP  0  0  0  0  0  0  0  0  0  0  0  0  # atno 17343 bound_to 10162
  156.0215  130.3794  150.1947 LP  0  0  0  0  0  0  0  0  0  0  0  0  # atno 17370 bound_to 10713
  157.0137  130.9958  151.3359 LP  0  0  0  0  0  0  0  0  0  0  0  0  # atno 17371 bound_to 10713
  140.0409  134.9855  157.0960 LP  0  0  0  0  0  0  0  0  0  0  0  0  # atno 17394 bound_to 11000
  140.4137  134.1954  155.7163 LP  0  0  0  0  0  0  0  0  0  0  0  0  # atno 17395 bound_to 11000

$$$$
