AV-unprocessed.smi:415|AV-procd|sdf|2521|dock5
  -GOLD-   2262022473D 1   1.00000     0.00000
 Structure written by MMmdl.
 53 54  0  0  0  0  0  0  0  0  1 V2000
  144.2661  141.6373  159.9871 C   0  0  0  0  0  0  0  0  0  0  0  0
  145.5056  142.0788  159.4614 O   0  0  0  0  0  0  0  0  0  0  0  0
  145.3812  142.6190  158.1574 C   0  0  0  0  0  0  0  0  0  0  0  0
  145.2684  141.4625  157.1531 C   0  0  0  0  0  0  0  0  0  0  0  0
  146.4949  141.2441  156.4115 N   0  0  0  0  0  0  0  0  0  0  0  0
  146.5601  141.2506  155.0211 C   0  0  0  0  0  0  0  0  0  0  0  0
  145.4149  141.4910  154.2833 N   0  0  0  0  0  0  0  0  0  0  0  0
  147.7257  141.0399  154.3698 C   0  0  0  0  0  0  0  0  0  0  0  0
  148.9736  140.8036  155.0823 C   0  0  0  0  0  0  0  0  0  0  0  0
  150.0406  140.5864  154.5072 O   0  0  0  0  0  0  0  0  0  0  0  0
  148.8898  140.8334  156.4933 N   0  0  0  0  0  0  0  0  0  0  0  0
  150.1167  140.5949  157.2854 C   0  0  0  0  0  0  0  0  0  0  0  0
  151.0446  141.8170  157.3548 C   0  0  0  0  0  0  0  0  0  0  0  0
  151.0217  142.6826  156.4784 O   0  0  0  0  0  0  0  0  0  0  0  0
  151.8529  141.8741  158.4236 N   0  0  0  0  0  0  0  0  0  0  0  0
  152.8194  142.9362  158.7067 C   0  0  1  0  0  0  0  0  0  0  0  0
  152.1741  144.3245  158.5253 C   0  0  0  0  0  0  0  0  0  0  0  0
  151.1415  144.6205  159.6220 C   0  0  0  0  0  0  0  0  0  0  0  0
  151.7679  144.4829  161.0160 C   0  0  0  0  0  0  0  0  0  0  0  0
  152.3982  143.0919  161.2368 C   0  0  2  0  0  0  0  0  0  0  0  0
  152.9976  143.0122  162.6523 C   0  0  0  0  0  0  0  0  0  0  0  0
  153.4337  142.7736  160.1217 C   0  0  1  0  0  0  0  0  0  0  0  0
  154.0955  141.3901  160.2868 C   0  0  0  0  0  0  0  0  0  0  0  0
  147.6729  141.0533  157.1782 C   0  0  0  0  0  0  0  0  0  0  0  0
  147.6482  141.0745  158.4123 O   0  0  0  0  0  0  0  0  0  0  0  0
  144.4159  141.2345  160.9888 H   0  0  0  0  0  0  0  0  0  0  0  0
  143.8332  140.8500  159.3686 H   0  0  0  0  0  0  0  0  0  0  0  0
  143.5523  142.4591  160.0588 H   0  0  0  0  0  0  0  0  0  0  0  0
  144.4954  143.2538  158.0995 H   0  0  0  0  0  0  0  0  0  0  0  0
  146.2482  143.2409  157.9282 H   0  0  0  0  0  0  0  0  0  0  0  0
  144.9905  140.5232  157.6346 H   0  0  0  0  0  0  0  0  0  0  0  0
  144.4804  141.6476  156.4240 H   0  0  0  0  0  0  0  0  0  0  0  0
  144.5226  141.6640  154.7240 H   0  0  0  0  0  0  0  0  0  0  0  0
  145.4301  141.5308  153.2743 H   0  0  0  0  0  0  0  0  0  0  0  0
  147.7430  141.0466  153.2893 H   0  0  0  0  0  0  0  0  0  0  0  0
  149.8805  140.2905  158.3059 H   0  0  0  0  0  0  0  0  0  0  0  0
  150.6752  139.7481  156.8822 H   0  0  0  0  0  0  0  0  0  0  0  0
  151.7989  141.1222  159.0956 H   0  0  0  0  0  0  0  0  0  0  0  0
  153.6354  142.8521  157.9862 H   0  0  0  0  0  0  0  0  0  0  0  0
  152.9529  145.0876  158.5532 H   0  0  0  0  0  0  0  0  0  0  0  0
  151.7092  144.4046  157.5420 H   0  0  0  0  0  0  0  0  0  0  0  0
  150.7428  145.6270  159.4928 H   0  0  0  0  0  0  0  0  0  0  0  0
  150.2940  143.9402  159.5296 H   0  0  0  0  0  0  0  0  0  0  0  0
  152.5272  145.2550  161.1478 H   0  0  0  0  0  0  0  0  0  0  0  0
  151.0054  144.6712  161.7726 H   0  0  0  0  0  0  0  0  0  0  0  0
  151.5975  142.3529  161.1822 H   0  0  0  0  0  0  0  0  0  0  0  0
  153.8559  143.6764  162.7581 H   0  0  0  0  0  0  0  0  0  0  0  0
  153.3220  142.0015  162.8980 H   0  0  0  0  0  0  0  0  0  0  0  0
  152.2627  143.2994  163.4047 H   0  0  0  0  0  0  0  0  0  0  0  0
  154.2325  143.5128  160.2015 H   0  0  0  0  0  0  0  0  0  0  0  0
  153.3542  140.5931  160.3516 H   0  0  0  0  0  0  0  0  0  0  0  0
  154.7122  141.3439  161.1840 H   0  0  0  0  0  0  0  0  0  0  0  0
  154.7492  141.1673  159.4432 H   0  0  0  0  0  0  0  0  0  0  0  0
  1  2  1  0  0  0  0
  1 26  1  0  0  0  0
  1 27  1  0  0  0  0
  1 28  1  0  0  0  0
  2  3  1  0  0  0  0
  3  4  1  0  0  0  0
  3 29  1  0  0  0  0
  3 30  1  0  0  0  0
  4  5  1  0  0  0  0
  4 31  1  0  0  0  0
  4 32  1  0  0  0  0
  5 24  1  0  0  0  0
  5  6  1  0  0  0  0
  6  7  1  0  0  0  0
  6  8  2  0  0  0  0
  7 33  1  0  0  0  0
  7 34  1  0  0  0  0
  8  9  1  0  0  0  0
  8 35  1  0  0  0  0
  9 10  2  0  0  0  0
  9 11  1  0  0  0  0
 11 12  1  0  0  0  0
 11 24  1  0  0  0  0
 12 13  1  0  0  0  0
 12 36  1  0  0  0  0
 12 37  1  0  0  0  0
 13 14  2  0  0  0  0
 13 15  1  0  0  0  0
 15 16  1  0  0  0  0
 15 38  1  0  0  0  0
 16 22  1  0  0  0  0
 16 17  1  0  0  0  0
 16 39  1  0  0  0  0
 17 18  1  0  0  0  0
 17 40  1  0  0  0  0
 17 41  1  0  0  0  0
 18 19  1  0  0  0  0
 18 42  1  0  0  0  0
 18 43  1  0  0  0  0
 19 20  1  0  0  0  0
 19 44  1  0  0  0  0
 19 45  1  0  0  0  0
 20 21  1  0  0  0  0
 20 22  1  0  0  0  0
 20 46  1  0  0  0  0
 21 47  1  0  0  0  0
 21 48  1  0  0  0  0
 21 49  1  0  0  0  0
 22 23  1  0  0  0  0
 22 50  1  0  0  0  0
 23 51  1  0  0  0  0
 23 52  1  0  0  0  0
 23 53  1  0  0  0  0
 24 25  2  0  0  0  0
M  END
> <s_m_source_file>
AV-unprocessed.smi

> <i_m_source_file_index>
415

> <i_lp_mmshare_version>
43012

> <i_f3d_flags>
0

> <s_epik_input>
W0NIM11PW0NIMl1bQ0gyXW4xYyhbTkgyXSlbY0hdYyg9TyluKGMxPU8pW0NIMl1DKD1PKVtOSF1bQ0BASF0yW0NIMl1bQ0gyXVtDSDJdW0NAQEhdKFtDSDNdKVtDQEhdMltDSDNd

> <s_epik_cmdline>
J2VwaWtfcHl0aG9uJywgJy1waCcsICc3LjAnLCAnLXRuJywgJzgnLCAnLW1hJywgJzIwMCcsICctbWV0YWxfYmluZGluZycsICctaW1hZScsICc8aW5maWxlLm1hZT4nLCAnLW9tYWUnLCAnPG91dGZpbGUubWFlPic=

> <r_lp_tautomer_probability>
1

> <r_epik_Ionization_Penalty>
8.6647e-06

> <r_epik_Ionization_Penalty_Charging>
1.81162e-08

> <r_epik_Ionization_Penalty_Neutral>
8.64658e-06

> <r_epik_State_Penalty>
-0

> <r_epik_Charging_Adjusted_Penalty>
1.81162e-08

> <i_epik_Tot_Q>
0

> <i_epik_Tot_abs_Q>
0

> <r_epik_Metal_State_Penalty>
-0

> <b_epik_Metal_Only>
0

> <s_lp_Force_Field>
OPLS_2005

> <r_lp_Energy>
19.0862

> <b_lp_Chiralities_Consistent>
1

> <s_lp_Variant>
AV-unprocessed.smi:415-4

> <Gold.Version>
5.8.1

> <Gold.Id.Protein>
6NUR|6NUR_protein|mol2

> <Gold.PLP.Fitness>
50.2854

> <Gold.PLP.PLP>
-46.5970

> <Gold.PLP.part.hbond>
-4.0000

> <Gold.PLP.part.metal>
0.0000

> <Gold.PLP.part.buried>
-7.7556

> <Gold.PLP.part.nonpolar>
-36.6127

> <Gold.PLP.part.repulsive>
0.8053

> <Gold.PLP.ligand.clash>
0.0000

> <Gold.PLP.ligand.torsion>
1.1088

> <Gold.PLP.Chemscore.Hbond>
1.9486

> <Gold.PLP.Chemscore.CHOScore>
0.0000

> <Gold.PLP.Chemscore.Metal>
0.0000

> <Gold.Chemscore.Hbonds>
donor molecule, donor type, donor heavy atom, donor atom, acceptor molecule, acceptor atom, score
      L1  H     7    34       P1 10175  0.08
      P1  H  6934  6946       L1     2  0.46
      P1  H  7989  7998       L1    10  0.83

> <Gold.PLP.Chemscore.Internal.Correction>
0.0602

> <Gold.Rescore>
     Score         DG    S(hbond)    S(metal)    S(lipo)     H(rot)  DE(clash)    DE(int)     intcor
     13.39     -19.19       2.15        0.00     105.38       2.26       0.14       5.66       ----

> <Gold.Chemscore.Fitness>
13.3866

> <Gold.Chemscore.DG>
-19.1867

> <Gold.Chemscore.ZeroCoef>
-5.4800

> <Gold.Chemscore.Hbond>
2.1481

> <Gold.Chemscore.Metal>
0.0000

> <Gold.Chemscore.Lipo>
105.3779

> <Gold.Chemscore.Internal_Hbond>
0.0000

> <Gold.Chemscore.DEClash>
0.1378

> <Gold.Chemscore.DEInternal>
5.6623

> <Gold.Chemscore.Rot>
2.2645

> <Gold.Chemscore.Internal.Correction>
   9.000000E+99

> <Gold.Chemscore.Hbonds>
donor molecule, donor type, donor heavy atom, donor atom, acceptor molecule, acceptor atom, score
      L1  H     7    34       P1 10175  0.01
      P1  H  6934  6946       L1     2  0.10
      P1  H  7989  7998       L1    10  0.83

> <Gold.Chemscore.Hbond.Weighted>
-7.1746

> <Gold.Chemscore.Metal.Weighted>
-0.0000

> <Gold.Chemscore.Lipo.Weighted>
-12.3292

> <Gold.Chemscore.Internal_Hbond.Weighted>
0.0000

> <Gold.Chemscore.DEClash.Weighted>
0.1378

> <Gold.Chemscore.DEInternal.Weighted>
5.6623

> <Gold.Chemscore.Rot.Weighted>
5.7972

> <Gold.Chemscore.Internal.Correction.Weighted>
   9.000000E+99

> <Gold.Protein.RotatedTorsions>
[ 6907 6896 6895 6894 ] final   97.59 input  -60.11 | X-H torsion
[ 7974 7965 7964 7962 ] final -117.64 input  175.53 | X-H torsion
[ 8008 7997 7996 7995 ] final  129.45 input   59.86 | X-H torsion
[ 10167 10162 10161 10158 ] final  -84.56 input  -65.29 | X-H torsion
[ 10718 10713 10712 10709 ] final -138.76 input   66.30 | X-H torsion
[ 10763 10752 10751 10750 ] final   32.94 input  -60.55 | X-H torsion
[ 11005 11000 10999 10996 ] final  103.78 input  -57.11 | X-H torsion

> <Gold.Protein.ActiveResidues>
 VAL166  LYS551  ARG553  GLY616  TRP617  ASP618  TYR619  PRO620  LYS621  CYS622 
 ASP623  PHE694  ASN695  SER759  ASP760  ASP761  ALA762  ILE779  LEU786  VAL792 
 PHE793  MET794  SER795  GLU796  ALA797  LYS798  CYS799  TRP800  GLU811  SER814 

> <Gold.Protein.RotatedAtoms>
  152.5421  134.0710  159.8193 H   0  0  0  0  0  0  0  0  0  0  0  0  # atno 6907 bound_to 6896
  151.0824  133.5372  159.2627 H   0  0  0  0  0  0  0  0  0  0  0  0  # atno 6908 bound_to 6896
  151.2194  135.0521  159.8997 H   0  0  0  0  0  0  0  0  0  0  0  0  # atno 6909 bound_to 6896
  145.0829  140.8438  143.4028 H   0  0  0  0  0  0  0  0  0  0  0  0  # atno 7974 bound_to 7965
  156.2936  140.2620  156.2601 H   0  0  0  0  0  0  0  0  0  0  0  0  # atno 8008 bound_to 7997
  154.9797  140.0390  157.2290 H   0  0  0  0  0  0  0  0  0  0  0  0  # atno 8009 bound_to 7997
  154.7783  140.2790  155.6088 H   0  0  0  0  0  0  0  0  0  0  0  0  # atno 8010 bound_to 7997
  140.4121  143.2618  151.9004 H   0  0  0  0  0  0  0  0  0  0  0  0  # atno 10167 bound_to 10162
  156.3030  130.7439  151.1496 H   0  0  0  0  0  0  0  0  0  0  0  0  # atno 10718 bound_to 10713
  153.0237  135.6400  154.1433 H   0  0  0  0  0  0  0  0  0  0  0  0  # atno 10763 bound_to 10752
  154.1165  135.2849  155.3220 H   0  0  0  0  0  0  0  0  0  0  0  0  # atno 10764 bound_to 10752
  154.6294  135.5498  153.7726 H   0  0  0  0  0  0  0  0  0  0  0  0  # atno 10765 bound_to 10752
  139.8786  134.9276  156.5262 H   0  0  0  0  0  0  0  0  0  0  0  0  # atno 11005 bound_to 11000
  145.1157  139.2727  143.5614 LP  0  0  0  0  0  0  0  0  0  0  0  0  # atno 17320 bound_to 7965
  146.3531  140.0766  142.8620 LP  0  0  0  0  0  0  0  0  0  0  0  0  # atno 17321 bound_to 7965
  139.4782  144.5526  151.8362 LP  0  0  0  0  0  0  0  0  0  0  0  0  # atno 17342 bound_to 10162
  140.4626  144.1700  150.5908 LP  0  0  0  0  0  0  0  0  0  0  0  0  # atno 17343 bound_to 10162
  157.7373  131.0553  150.5365 LP  0  0  0  0  0  0  0  0  0  0  0  0  # atno 17370 bound_to 10713
  156.5495  130.4228  149.6114 LP  0  0  0  0  0  0  0  0  0  0  0  0  # atno 17371 bound_to 10713
  140.8414  133.8202  155.9079 LP  0  0  0  0  0  0  0  0  0  0  0  0  # atno 17394 bound_to 11000
  140.9234  134.2113  157.4912 LP  0  0  0  0  0  0  0  0  0  0  0  0  # atno 17395 bound_to 11000

$$$$
