AV-unprocessed.smi:1593|AV-procd|sdf|6409|dock4
  -GOLD-   22720 7 43D 1   1.00000     0.00000
 Structure written by MMmdl.
 36 37  0  0  0  0  0  0  0  0  1 V2000
  143.5460  132.3565  150.8139 C   0  0  0  0  0  0  0  0  0  0  0  0
  144.1821  133.5715  151.3973 C   0  0  0  0  0  0  0  0  0  0  0  0
  145.4421  134.0927  151.3111 C   0  0  0  0  0  0  0  0  0  0  0  0
  145.3583  135.2660  152.1162 C   0  0  0  0  0  0  0  0  0  0  0  0
  146.4066  136.1872  152.3720 N   0  0  0  0  0  0  0  0  0  0  0  0
  146.3579  137.3357  153.0675 C   0  0  0  0  0  0  0  0  0  0  0  0
  145.3616  137.7819  153.6363 O   0  0  0  0  0  0  0  0  0  0  0  0
  147.5492  137.9517  153.0676 N   0  0  0  0  0  0  0  0  0  0  0  0
  147.8355  139.2375  153.6962 C   0  0  0  0  0  0  0  0  0  0  0  0
  148.2547  139.0659  155.1693 C   0  0  0  0  0  0  0  0  0  0  0  0
  149.6915  139.1503  155.4319 N   0  0  0  0  0  0  0  0  0  0  0  0
  150.1154  140.5341  155.6112 C   0  0  0  0  0  0  0  0  0  0  0  0
  151.6225  140.6385  155.9023 C   0  0  0  0  0  0  0  0  0  0  0  0
  152.3562  140.0171  154.8516 O   0  0  0  0  0  0  0  0  0  0  0  0
  152.0013  138.6502  154.6682 C   0  0  0  0  0  0  0  0  0  0  0  0
  150.4954  138.5427  154.3734 C   0  0  0  0  0  0  0  0  0  0  0  0
  144.1588  135.4379  152.6409 N   0  0  0  0  0  0  0  0  0  0  0  0
  143.3977  134.3551  152.1849 O   0  0  0  0  0  0  0  0  0  0  0  0
  144.1194  131.9880  149.9631 H   0  0  0  0  0  0  0  0  0  0  0  0
  142.5347  132.5745  150.4699 H   0  0  0  0  0  0  0  0  0  0  0  0
  143.4886  131.5588  151.5544 H   0  0  0  0  0  0  0  0  0  0  0  0
  146.2753  133.6859  150.7585 H   0  0  0  0  0  0  0  0  0  0  0  0
  147.2995  135.9452  151.9681 H   0  0  0  0  0  0  0  0  0  0  0  0
  148.3117  137.5092  152.5759 H   0  0  0  0  0  0  0  0  0  0  0  0
  148.5708  139.8073  153.1271 H   0  0  0  0  0  0  0  0  0  0  0  0
  146.9182  139.8250  153.6585 H   0  0  0  0  0  0  0  0  0  0  0  0
  147.7321  139.8063  155.7770 H   0  0  0  0  0  0  0  0  0  0  0  0
  147.8874  138.0956  155.5068 H   0  0  0  0  0  0  0  0  0  0  0  0
  149.8798  141.1127  154.7164 H   0  0  0  0  0  0  0  0  0  0  0  0
  149.5593  140.9881  156.4322 H   0  0  0  0  0  0  0  0  0  0  0  0
  151.9230  141.6835  155.9776 H   0  0  0  0  0  0  0  0  0  0  0  0
  151.8657  140.1645  156.8545 H   0  0  0  0  0  0  0  0  0  0  0  0
  152.5804  138.2385  153.8414 H   0  0  0  0  0  0  0  0  0  0  0  0
  152.2611  138.0763  155.5591 H   0  0  0  0  0  0  0  0  0  0  0  0
  150.2394  137.4910  154.2553 H   0  0  0  0  0  0  0  0  0  0  0  0
  150.2785  139.0261  153.4196 H   0  0  0  0  0  0  0  0  0  0  0  0
  1  2  1  0  0  0  0
  1 19  1  0  0  0  0
  1 20  1  0  0  0  0
  1 21  1  0  0  0  0
  2 18  1  0  0  0  0
  2  3  2  0  0  0  0
  3  4  1  0  0  0  0
  3 22  1  0  0  0  0
  4  5  1  0  0  0  0
  4 17  2  0  0  0  0
  5  6  1  0  0  0  0
  5 23  1  0  0  0  0
  6  7  2  0  0  0  0
  6  8  1  0  0  0  0
  8  9  1  0  0  0  0
  8 24  1  0  0  0  0
  9 10  1  0  0  0  0
  9 25  1  0  0  0  0
  9 26  1  0  0  0  0
 10 11  1  0  0  0  0
 10 27  1  0  0  0  0
 10 28  1  0  0  0  0
 11 16  1  0  0  0  0
 11 12  1  0  0  0  0
 12 13  1  0  0  0  0
 12 29  1  0  0  0  0
 12 30  1  0  0  0  0
 13 14  1  0  0  0  0
 13 31  1  0  0  0  0
 13 32  1  0  0  0  0
 14 15  1  0  0  0  0
 15 16  1  0  0  0  0
 15 33  1  0  0  0  0
 15 34  1  0  0  0  0
 16 35  1  0  0  0  0
 16 36  1  0  0  0  0
 17 18  1  0  0  0  0
M  END
> <s_m_source_file>
AV-unprocessed.smi

> <i_m_source_file_index>
1593

> <i_lp_mmshare_version>
43012

> <i_f3d_flags>
0

> <s_epik_input>
W0NIM11jMVtjSF1jKG5vMSlbTkhdQyg9TylbTkhdW0NIMl1bQ0gyXU4yW0NIMl1bQ0gyXU9bQ0gyXVtDSDJdMg==

> <s_epik_cmdline>
J2VwaWtfcHl0aG9uJywgJy1waCcsICc3LjAnLCAnLXRuJywgJzgnLCAnLW1hJywgJzIwMCcsICctbWV0YWxfYmluZGluZycsICctaW1hZScsICc8aW5maWxlLm1hZT4nLCAnLW9tYWUnLCAnPG91dGZpbGUubWFlPic=

> <r_epik_Ionization_Penalty>
0.214073

> <r_epik_Ionization_Penalty_Charging>
0

> <r_epik_Ionization_Penalty_Neutral>
0.214073

> <r_epik_State_Penalty>
0.204211

> <r_epik_Charging_Adjusted_Penalty>
0.204211

> <i_epik_Tot_Q>
0

> <i_epik_Tot_abs_Q>
0

> <r_epik_Metal_State_Penalty>
0.217151

> <b_epik_Metal_Only>
0

> <s_lp_Force_Field>
OPLS_2005

> <r_lp_Energy>
24.5673

> <b_lp_Chiralities_Consistent>
1

> <s_lp_Variant>
AV-unprocessed.smi:1593-1

> <Gold.Version>
5.8.1

> <Gold.Id.Protein>
6NUR|6NUR_protein|mol2

> <Gold.PLP.Fitness>
34.3154

> <Gold.PLP.PLP>
-26.8030

> <Gold.PLP.part.hbond>
-3.0637

> <Gold.PLP.part.metal>
0.0000

> <Gold.PLP.part.buried>
-4.6530

> <Gold.PLP.part.nonpolar>
-20.1582

> <Gold.PLP.part.repulsive>
0.5971

> <Gold.PLP.ligand.clash>
0.0000

> <Gold.PLP.ligand.torsion>
0.7421

> <Gold.PLP.Chemscore.Hbond>
2.9968

> <Gold.PLP.Chemscore.CHOScore>
0.0000

> <Gold.PLP.Chemscore.Metal>
0.0000

> <Gold.Chemscore.Hbonds>
donor molecule, donor type, donor heavy atom, donor atom, acceptor molecule, acceptor atom, score
      L1  H     5    23       P1  7948  1.00
      L1  H     8    24       P1  7948  1.00
      P1  H  7989  7998       L1    14  0.59
      P1  H  7997  8008       L1    14  0.18

> <Gold.PLP.Chemscore.Internal.Correction>
0.0065

> <Gold.Rescore>
     Score         DG    S(hbond)    S(metal)    S(lipo)     H(rot)  DE(clash)    DE(int)     intcor
     13.52     -15.65       2.33        0.00      55.48       1.60       0.00       2.13       ----

> <Gold.Chemscore.Fitness>
13.5203

> <Gold.Chemscore.DG>
-15.6533

> <Gold.Chemscore.ZeroCoef>
-5.4800

> <Gold.Chemscore.Hbond>
2.3303

> <Gold.Chemscore.Metal>
0.0000

> <Gold.Chemscore.Lipo>
55.4784

> <Gold.Chemscore.Internal_Hbond>
0.0000

> <Gold.Chemscore.DEClash>
0.0000

> <Gold.Chemscore.DEInternal>
2.1330

> <Gold.Chemscore.Rot>
1.6019

> <Gold.Chemscore.Internal.Correction>
   9.000000E+99

> <Gold.Chemscore.Hbonds>
donor molecule, donor type, donor heavy atom, donor atom, acceptor molecule, acceptor atom, score
      L1  H     5    23       P1  7948  0.94
      L1  H     8    24       P1  7948  0.94
      P1  H  7989  7998       L1    14  0.07
      P1  H  7997  8008       L1    14  0.02

> <Gold.Chemscore.Hbond.Weighted>
-7.7833

> <Gold.Chemscore.Metal.Weighted>
-0.0000

> <Gold.Chemscore.Lipo.Weighted>
-6.4910

> <Gold.Chemscore.Internal_Hbond.Weighted>
0.0000

> <Gold.Chemscore.DEClash.Weighted>
0.0000

> <Gold.Chemscore.DEInternal.Weighted>
2.1330

> <Gold.Chemscore.Rot.Weighted>
4.1009

> <Gold.Chemscore.Internal.Correction.Weighted>
   9.000000E+99

> <Gold.Protein.RotatedTorsions>
[ 6907 6896 6895 6894 ] final  -93.36 input  -60.11 | X-H torsion
[ 7974 7965 7964 7962 ] final  100.25 input  175.53 | X-H torsion
[ 8008 7997 7996 7995 ] final  -15.77 input   59.86 | X-H torsion
[ 10167 10162 10161 10158 ] final -110.91 input  -65.29 | X-H torsion
[ 10718 10713 10712 10709 ] final   31.79 input   66.30 | X-H torsion
[ 10763 10752 10751 10750 ] final    6.17 input  -60.55 | X-H torsion
[ 11005 11000 10999 10996 ] final  121.91 input  -57.11 | X-H torsion

> <Gold.Protein.ActiveResidues>
 VAL166  LYS551  ARG553  GLY616  TRP617  ASP618  TYR619  PRO620  LYS621  CYS622 
 ASP623  PHE694  ASN695  SER759  ASP760  ASP761  ALA762  ILE779  LEU786  VAL792 
 PHE793  MET794  SER795  GLU796  ALA797  LYS798  CYS799  TRP800  GLU811  SER814 

> <Gold.Protein.RotatedAtoms>
  150.6921  134.1978  159.4310 H   0  0  0  0  0  0  0  0  0  0  0  0  # atno 6907 bound_to 6896
  151.9946  134.9958  160.0572 H   0  0  0  0  0  0  0  0  0  0  0  0  # atno 6908 bound_to 6896
  152.1635  133.4562  159.4910 H   0  0  0  0  0  0  0  0  0  0  0  0  # atno 6909 bound_to 6896
  145.3880  139.2368  143.3367 H   0  0  0  0  0  0  0  0  0  0  0  0  # atno 7974 bound_to 7965
  154.5104  140.2187  155.9167 H   0  0  0  0  0  0  0  0  0  0  0  0  # atno 8008 bound_to 7997
  156.1545  140.3155  155.8669 H   0  0  0  0  0  0  0  0  0  0  0  0  # atno 8009 bound_to 7997
  155.3873  140.0476  157.3032 H   0  0  0  0  0  0  0  0  0  0  0  0  # atno 8010 bound_to 7997
  140.1393  143.4293  152.1573 H   0  0  0  0  0  0  0  0  0  0  0  0  # atno 10167 bound_to 10162
  157.2770  130.7236  149.6535 H   0  0  0  0  0  0  0  0  0  0  0  0  # atno 10718 bound_to 10713
  153.2509  135.6913  153.7681 H   0  0  0  0  0  0  0  0  0  0  0  0  # atno 10763 bound_to 10752
  153.6776  135.3334  155.3170 H   0  0  0  0  0  0  0  0  0  0  0  0  # atno 10764 bound_to 10752
  154.8393  135.4514  154.1465 H   0  0  0  0  0  0  0  0  0  0  0  0  # atno 10765 bound_to 10752
  139.9245  134.9640  156.8029 H   0  0  0  0  0  0  0  0  0  0  0  0  # atno 11005 bound_to 11000
  146.2811  140.4558  142.8776 LP  0  0  0  0  0  0  0  0  0  0  0  0  # atno 17320 bound_to 7965
  144.8460  140.6930  143.6199 LP  0  0  0  0  0  0  0  0  0  0  0  0  # atno 17321 bound_to 7965
  139.5480  144.7314  151.4523 LP  0  0  0  0  0  0  0  0  0  0  0  0  # atno 17342 bound_to 10162
  140.6770  143.8168  150.7071 LP  0  0  0  0  0  0  0  0  0  0  0  0  # atno 17343 bound_to 10162
  155.9664  130.4350  150.5072 LP  0  0  0  0  0  0  0  0  0  0  0  0  # atno 17370 bound_to 10713
  157.3008  131.0645  151.2069 LP  0  0  0  0  0  0  0  0  0  0  0  0  # atno 17371 bound_to 10713
  140.6375  133.9849  155.7691 LP  0  0  0  0  0  0  0  0  0  0  0  0  # atno 17394 bound_to 11000
  141.0793  134.0087  157.3410 LP  0  0  0  0  0  0  0  0  0  0  0  0  # atno 17395 bound_to 11000

$$$$
