AV-unprocessed.smi:850|AV-procd|sdf|3948|dock6
  -GOLD-   22720 1423D 1   1.00000     0.00000
 Structure written by MMmdl.
 40 42  0  0  0  0  0  0  0  0  1 V2000
  153.9300  141.0947  161.1564 C   0  0  0  0  0  0  0  0  0  0  0  0
  153.0085  141.1310  160.0269 N   0  0  0  0  0  0  0  0  0  0  0  0
  152.5221  140.0727  159.3368 C   0  0  0  0  0  0  0  0  0  0  0  0
  152.7831  138.8883  159.5475 O   0  0  0  0  0  0  0  0  0  0  0  0
  151.7010  140.5456  158.3696 N   0  0  0  0  0  0  0  0  0  0  0  0
  150.9789  139.7518  157.3778 C   0  0  0  0  0  0  0  0  0  0  0  0
  151.9356  138.8761  156.5436 C   0  0  1  0  0  0  0  0  0  0  0  0
  152.2003  137.6578  157.2087 O   0  0  0  0  0  0  0  0  0  0  0  0
  151.3831  138.5401  155.1483 C   0  0  0  0  0  0  0  0  0  0  0  0
  150.8680  139.7169  154.5369 O   0  0  0  0  0  0  0  0  0  0  0  0
  149.5011  139.8860  154.4902 C   0  0  0  0  0  0  0  0  0  0  0  0
  148.7143  138.7167  154.4368 C   0  0  0  0  0  0  0  0  0  0  0  0
  147.3090  138.7943  154.3896 C   0  0  0  0  0  0  0  0  0  0  0  0
  146.6735  140.0496  154.3948 C   0  0  0  0  0  0  0  0  0  0  0  0
  147.4461  141.2248  154.4458 C   0  0  0  0  0  0  0  0  0  0  0  0
  148.8519  141.1469  154.4934 C   0  0  0  0  0  0  0  0  0  0  0  0
  151.6733  141.9463  158.4343 C   0  0  0  0  0  0  0  0  0  0  0  0
  150.9933  142.8965  157.6526 C   0  0  0  0  0  0  0  0  0  0  0  0
  151.1862  144.2593  157.9801 C   0  0  0  0  0  0  0  0  0  0  0  0
  152.0343  144.6367  159.0538 C   0  0  0  0  0  0  0  0  0  0  0  0
  152.7078  143.6592  159.8234 C   0  0  0  0  0  0  0  0  0  0  0  0
  152.4971  142.3134  159.4771 C   0  0  0  0  0  0  0  0  0  0  0  0
  154.1050  140.0777  161.5096 H   0  0  0  0  0  0  0  0  0  0  0  0
  153.5300  141.6735  161.9892 H   0  0  0  0  0  0  0  0  0  0  0  0
  154.8903  141.5242  160.8709 H   0  0  0  0  0  0  0  0  0  0  0  0
  150.2042  139.1453  157.8505 H   0  0  0  0  0  0  0  0  0  0  0  0
  150.4511  140.4449  156.7219 H   0  0  0  0  0  0  0  0  0  0  0  0
  152.8891  139.3890  156.4116 H   0  0  0  0  0  0  0  0  0  0  0  0
  151.7684  137.6761  158.0493 H   0  0  0  0  0  0  0  0  0  0  0  0
  152.1976  138.1490  154.5364 H   0  0  0  0  0  0  0  0  0  0  0  0
  150.6182  137.7644  155.2176 H   0  0  0  0  0  0  0  0  0  0  0  0
  149.1944  137.7490  154.4325 H   0  0  0  0  0  0  0  0  0  0  0  0
  146.7196  137.8903  154.3496 H   0  0  0  0  0  0  0  0  0  0  0  0
  145.5958  140.1109  154.3592 H   0  0  0  0  0  0  0  0  0  0  0  0
  146.9598  142.1892  154.4485 H   0  0  0  0  0  0  0  0  0  0  0  0
  149.4097  142.0701  154.5320 H   0  0  0  0  0  0  0  0  0  0  0  0
  150.3513  142.6034  156.8351 H   0  0  0  0  0  0  0  0  0  0  0  0
  150.6826  145.0223  157.4047 H   0  0  0  0  0  0  0  0  0  0  0  0
  152.1682  145.6832  159.2852 H   0  0  0  0  0  0  0  0  0  0  0  0
  153.3566  143.9379  160.6407 H   0  0  0  0  0  0  0  0  0  0  0  0
  1  2  1  0  0  0  0
  1 23  1  0  0  0  0
  1 24  1  0  0  0  0
  1 25  1  0  0  0  0
  2 22  1  0  0  0  0
  2  3  1  0  0  0  0
  3  4  2  0  0  0  0
  3  5  1  0  0  0  0
  5  6  1  0  0  0  0
  5 17  1  0  0  0  0
  6  7  1  0  0  0  0
  6 26  1  0  0  0  0
  6 27  1  0  0  0  0
  7  8  1  0  0  0  0
  7  9  1  0  0  0  0
  7 28  1  0  0  0  0
  8 29  1  0  0  0  0
  9 10  1  0  0  0  0
  9 30  1  0  0  0  0
  9 31  1  0  0  0  0
 10 11  1  0  0  0  0
 11 16  1  0  0  0  0
 11 12  2  0  0  0  0
 12 13  1  0  0  0  0
 12 32  1  0  0  0  0
 13 14  2  0  0  0  0
 13 33  1  0  0  0  0
 14 15  1  0  0  0  0
 14 34  1  0  0  0  0
 15 16  2  0  0  0  0
 15 35  1  0  0  0  0
 16 36  1  0  0  0  0
 17 22  2  0  0  0  0
 17 18  1  0  0  0  0
 18 19  2  0  0  0  0
 18 37  1  0  0  0  0
 19 20  1  0  0  0  0
 19 38  1  0  0  0  0
 20 21  2  0  0  0  0
 20 39  1  0  0  0  0
 21 22  1  0  0  0  0
 21 40  1  0  0  0  0
M  END
> <s_m_source_file>
AV-unprocessed.smi

> <i_m_source_file_index>
850

> <i_lp_mmshare_version>
43012

> <i_f3d_flags>
0

> <s_epik_input>
W2NIXTFbY0hdW2NIXVtjSF1jKGMxMiluKFtDSDNdKWMoPU8pbjJbQ0gyXVtDQEhdKFtPSF0pW0NIMl1PYzNbY0hdW2NIXVtjSF1bY0hdW2NIXTM=

> <s_epik_cmdline>
J2VwaWtfcHl0aG9uJywgJy1waCcsICc3LjAnLCAnLXRuJywgJzgnLCAnLW1hJywgJzIwMCcsICctbWV0YWxfYmluZGluZycsICctaW1hZScsICc8aW5maWxlLm1hZT4nLCAnLW9tYWUnLCAnPG91dGZpbGUubWFlPic=

> <r_lp_tautomer_probability>
1

> <r_epik_Ionization_Penalty>
2.40205e-06

> <r_epik_Ionization_Penalty_Charging>
2.75209e-09

> <r_epik_Ionization_Penalty_Neutral>
2.3993e-06

> <r_epik_State_Penalty>
-0

> <r_epik_Charging_Adjusted_Penalty>
2.75209e-09

> <i_epik_Tot_Q>
0

> <i_epik_Tot_abs_Q>
0

> <r_epik_Metal_State_Penalty>
-0

> <b_epik_Metal_Only>
0

> <s_lp_Force_Field>
OPLS_2005

> <r_lp_Energy>
47.9965

> <b_lp_Chiralities_Consistent>
1

> <s_lp_Variant>
AV-unprocessed.smi:850-2

> <Gold.Version>
5.8.1

> <Gold.Id.Protein>
6NUR|6NUR_protein|mol2

> <Gold.PLP.Fitness>
51.7180

> <Gold.PLP.PLP>
-50.8023

> <Gold.PLP.part.hbond>
-1.0000

> <Gold.PLP.part.metal>
0.0000

> <Gold.PLP.part.buried>
-4.4644

> <Gold.PLP.part.nonpolar>
-45.2615

> <Gold.PLP.part.repulsive>
0.0985

> <Gold.PLP.ligand.clash>
0.0000

> <Gold.PLP.ligand.torsion>
1.0571

> <Gold.PLP.Chemscore.Hbond>
1.0000

> <Gold.PLP.Chemscore.CHOScore>
0.0000

> <Gold.PLP.Chemscore.Metal>
0.0000

> <Gold.Chemscore.Hbonds>
donor molecule, donor type, donor heavy atom, donor atom, acceptor molecule, acceptor atom, score
      P1  H  7989  7998       L1    10  1.00

> <Gold.PLP.Chemscore.Internal.Correction>
0.0299

> <Gold.Rescore>
     Score         DG    S(hbond)    S(metal)    S(lipo)     H(rot)  DE(clash)    DE(int)     intcor
     17.65     -18.58       0.94        0.00     131.47       2.12       0.04       0.88       ----

> <Gold.Chemscore.Fitness>
17.6543

> <Gold.Chemscore.DG>
-18.5825

> <Gold.Chemscore.ZeroCoef>
-5.4800

> <Gold.Chemscore.Hbond>
0.9411

> <Gold.Chemscore.Metal>
0.0000

> <Gold.Chemscore.Lipo>
131.4735

> <Gold.Chemscore.Internal_Hbond>
0.0000

> <Gold.Chemscore.DEClash>
0.0448

> <Gold.Chemscore.DEInternal>
0.8833

> <Gold.Chemscore.Rot>
2.1184

> <Gold.Chemscore.Internal.Correction>
   9.000000E+99

> <Gold.Chemscore.Hbonds>
donor molecule, donor type, donor heavy atom, donor atom, acceptor molecule, acceptor atom, score
      P1  H  7989  7998       L1    10  0.74

> <Gold.Chemscore.Hbond.Weighted>
-3.1432

> <Gold.Chemscore.Metal.Weighted>
-0.0000

> <Gold.Chemscore.Lipo.Weighted>
-15.3824

> <Gold.Chemscore.Internal_Hbond.Weighted>
0.0000

> <Gold.Chemscore.DEClash.Weighted>
0.0448

> <Gold.Chemscore.DEInternal.Weighted>
0.8833

> <Gold.Chemscore.Rot.Weighted>
5.4231

> <Gold.Chemscore.Internal.Correction.Weighted>
   9.000000E+99

> <Gold.Protein.RotatedTorsions>
[ 6907 6896 6895 6894 ] final   37.90 input  -60.11 | X-H torsion
[ 7974 7965 7964 7962 ] final -124.19 input  175.53 | X-H torsion
[ 8008 7997 7996 7995 ] final  -17.47 input   59.86 | X-H torsion
[ 10167 10162 10161 10158 ] final  129.82 input  -65.29 | X-H torsion
[ 10718 10713 10712 10709 ] final    7.21 input   66.30 | X-H torsion
[ 10763 10752 10751 10750 ] final   93.93 input  -60.55 | X-H torsion
[ 11005 11000 10999 10996 ] final   -2.86 input  -57.11 | X-H torsion

> <Gold.Protein.ActiveResidues>
 VAL166  LYS551  ARG553  GLY616  TRP617  ASP618  TYR619  PRO620  LYS621  CYS622 
 ASP623  PHE694  ASN695  SER759  ASP760  ASP761  ALA762  ILE779  LEU786  VAL792 
 PHE793  MET794  SER795  GLU796  ALA797  LYS798  CYS799  TRP800  GLU811  SER814 

> <Gold.Protein.RotatedAtoms>
  152.1494  134.9000  160.0548 H   0  0  0  0  0  0  0  0  0  0  0  0  # atno 6907 bound_to 6896
  152.0038  133.3830  159.4200 H   0  0  0  0  0  0  0  0  0  0  0  0  # atno 6908 bound_to 6896
  150.6874  134.3727  159.5043 H   0  0  0  0  0  0  0  0  0  0  0  0  # atno 6909 bound_to 6896
  145.0107  140.7903  143.4440 H   0  0  0  0  0  0  0  0  0  0  0  0  # atno 7974 bound_to 7965
  154.4976  140.2142  155.9414 H   0  0  0  0  0  0  0  0  0  0  0  0  # atno 8008 bound_to 7997
  156.1391  140.3183  155.8435 H   0  0  0  0  0  0  0  0  0  0  0  0  # atno 8009 bound_to 7997
  155.4153  140.0493  157.3020 H   0  0  0  0  0  0  0  0  0  0  0  0  # atno 8010 bound_to 7997
  139.5459  144.6773  151.4474 H   0  0  0  0  0  0  0  0  0  0  0  0  # atno 10167 bound_to 10162
  156.9336  130.5835  149.5650 H   0  0  0  0  0  0  0  0  0  0  0  0  # atno 10718 bound_to 10713
  153.2359  135.4307  155.0646 H   0  0  0  0  0  0  0  0  0  0  0  0  # atno 10763 bound_to 10752
  154.8318  135.3391  154.6719 H   0  0  0  0  0  0  0  0  0  0  0  0  # atno 10764 bound_to 10752
  153.7145  135.7021  153.5085 H   0  0  0  0  0  0  0  0  0  0  0  0  # atno 10765 bound_to 10752
  140.6630  133.9304  155.8447 H   0  0  0  0  0  0  0  0  0  0  0  0  # atno 11005 bound_to 11000
  145.2027  139.2244  143.5184 LP  0  0  0  0  0  0  0  0  0  0  0  0  # atno 17320 bound_to 7965
  146.3469  140.1848  142.8589 LP  0  0  0  0  0  0  0  0  0  0  0  0  # atno 17321 bound_to 7965
  140.6707  143.8300  150.6996 LP  0  0  0  0  0  0  0  0  0  0  0  0  # atno 17342 bound_to 10162
  140.1723  143.4184  152.1992 LP  0  0  0  0  0  0  0  0  0  0  0  0  # atno 17343 bound_to 10162
  156.0436  130.5515  150.8828 LP  0  0  0  0  0  0  0  0  0  0  0  0  # atno 17370 bound_to 10713
  157.5831  131.0946  150.9240 LP  0  0  0  0  0  0  0  0  0  0  0  0  # atno 17371 bound_to 10713
  141.0451  134.0566  157.3854 LP  0  0  0  0  0  0  0  0  0  0  0  0  # atno 17394 bound_to 11000
  139.9007  135.0163  156.7252 LP  0  0  0  0  0  0  0  0  0  0  0  0  # atno 17395 bound_to 11000

$$$$
