AV-unprocessed.smi:809|AV-procd|sdf|3808|dock9
  -GOLD-   22720 1243D 1   1.00000     0.00000
 Structure written by MMmdl.
 39 40  0  0  0  0  0  0  0  0  3 V2000
  152.3649  143.7243  161.4572 C   0  0  0  0  0  0  0  0  0  0  0  0
  152.9926  142.5452  160.7831 C   0  0  0  0  0  0  0  0  0  0  0  0
  154.0480  141.7986  161.2384 C   0  0  0  0  0  0  0  0  0  0  0  0
  154.4548  140.5187  160.1312 S   0  0  0  0  0  0  0  0  0  0  0  0
  153.1490  141.0418  159.0650 C   0  0  0  0  0  0  0  0  0  0  0  0
  152.8360  140.4649  157.8933 N   0  5  0  0  0  0  0  0  0  0  0  0
  151.6366  140.7087  157.3203 C   0  0  0  0  0  0  0  0  0  0  0  0
  151.0321  141.7834  157.3258 O   0  0  0  0  0  0  0  0  0  0  0  0
  151.1008  139.6354  156.7202 N   0  0  0  0  0  0  0  0  0  0  0  0
  149.7900  139.5571  156.0775 C   0  0  0  0  0  0  0  0  0  0  0  0
  149.8650  139.0272  154.6191 C   0  0  1  0  0  0  0  0  0  0  0  0
  150.3919  140.0828  153.8372 O   0  0  0  0  0  0  0  0  0  0  0  0
  150.7524  137.7773  154.4097 C   0  0  0  0  0  0  0  0  0  0  0  0
  150.1122  136.5126  155.0071 C   0  0  0  0  0  0  0  0  0  0  0  0
  148.7669  136.2756  154.4290 N   0  3  1  0  0  0  0  0  0  0  0  0
  148.1726  135.0046  154.8956 C   0  0  0  0  0  0  0  0  0  0  0  0
  147.8575  137.4313  154.6300 C   0  0  0  0  0  0  0  0  0  0  0  0
  148.4600  138.7270  154.0517 C   0  0  0  0  0  0  0  0  0  0  0  0
  152.5017  142.1067  159.5510 N   0  0  0  0  0  0  0  0  0  0  0  0
  152.6769  143.8001  162.4990 H   0  0  0  0  0  0  0  0  0  0  0  0
  151.2770  143.6534  161.4447 H   0  0  0  0  0  0  0  0  0  0  0  0
  152.6431  144.6538  160.9602 H   0  0  0  0  0  0  0  0  0  0  0  0
  154.6096  141.9227  162.1518 H   0  0  0  0  0  0  0  0  0  0  0  0
  151.6413  138.7826  156.7419 H   0  0  0  0  0  0  0  0  0  0  0  0
  149.1241  138.9343  156.6736 H   0  0  0  0  0  0  0  0  0  0  0  0
  149.3394  140.5504  156.0972 H   0  0  0  0  0  0  0  0  0  0  0  0
  149.8821  140.1595  153.0456 H   0  0  0  0  0  0  0  0  0  0  0  0
  150.8991  137.6135  153.3408 H   0  0  0  0  0  0  0  0  0  0  0  0
  151.7520  137.9228  154.8194 H   0  0  0  0  0  0  0  0  0  0  0  0
  150.7522  135.6534  154.8022 H   0  0  0  0  0  0  0  0  0  0  0  0
  150.0341  136.5933  156.0909 H   0  0  0  0  0  0  0  0  0  0  0  0
  148.0047  135.0245  155.9733 H   0  0  0  0  0  0  0  0  0  0  0  0
  148.8300  134.1650  154.6671 H   0  0  0  0  0  0  0  0  0  0  0  0
  147.2169  134.8225  154.4030 H   0  0  0  0  0  0  0  0  0  0  0  0
  146.9051  137.2284  154.1389 H   0  0  0  0  0  0  0  0  0  0  0  0
  147.6384  137.5447  155.6921 H   0  0  0  0  0  0  0  0  0  0  0  0
  147.7876  139.5654  154.2384 H   0  0  0  0  0  0  0  0  0  0  0  0
  148.5180  138.6221  152.9667 H   0  0  0  0  0  0  0  0  0  0  0  0
  148.8973  136.1819  153.4320 H   0  0  0  0  0  0  0  0  0  0  0  0
  1  2  1  0  0  0  0
  1 20  1  0  0  0  0
  1 21  1  0  0  0  0
  1 22  1  0  0  0  0
  2 19  1  0  0  0  0
  2  3  2  0  0  0  0
  3  4  1  0  0  0  0
  3 23  1  0  0  0  0
  4  5  1  0  0  0  0
  5  6  1  0  0  0  0
  5 19  2  0  0  0  0
  6  7  1  0  0  0  0
  7  8  2  0  0  0  0
  7  9  1  0  0  0  0
  9 10  1  0  0  0  0
  9 24  1  0  0  0  0
 10 11  1  0  0  0  0
 10 25  1  0  0  0  0
 10 26  1  0  0  0  0
 11 18  1  0  0  0  0
 11 12  1  0  0  0  0
 11 13  1  0  0  0  0
 12 27  1  0  0  0  0
 13 14  1  0  0  0  0
 13 28  1  0  0  0  0
 13 29  1  0  0  0  0
 14 15  1  0  0  0  0
 14 30  1  0  0  0  0
 14 31  1  0  0  0  0
 15 16  1  0  0  0  0
 15 17  1  0  0  0  0
 15 39  1  0  0  0  0
 16 32  1  0  0  0  0
 16 33  1  0  0  0  0
 16 34  1  0  0  0  0
 17 18  1  0  0  0  0
 17 35  1  0  0  0  0
 17 36  1  0  0  0  0
 18 37  1  0  0  0  0
 18 38  1  0  0  0  0
M  CHG  1   6  -1
M  CHG  1  15   1
M  END
> <s_m_source_file>
AV-unprocessed.smi

> <i_m_source_file_index>
809

> <i_lp_mmshare_version>
43012

> <i_f3d_flags>
0

> <s_epik_input>
W0NIM11jMVtjSF1zYyhuMSlbTkhdQyg9TylbTkhdW0NIMl1DMihbT0hdKVtDSDJdW0NIMl1OKFtDSDNdKVtDSDJdW0NIMl0y

> <s_epik_cmdline>
J2VwaWtfcHl0aG9uJywgJy1waCcsICc3LjAnLCAnLXRuJywgJzgnLCAnLW1hJywgJzIwMCcsICctbWV0YWxfYmluZGluZycsICctaW1hZScsICc8aW5maWxlLm1hZT4nLCAnLW9tYWUnLCAnPG91dGZpbGUubWFlPic=

> <r_lp_tautomer_probability>
0.999

> <r_epik_Ionization_Penalty>
8.50704

> <r_epik_Ionization_Penalty_Charging>
6.65046

> <r_epik_Ionization_Penalty_Neutral>
1.85657

> <r_epik_State_Penalty>
6.64992

> <r_epik_Charging_Adjusted_Penalty>
13.3004

> <i_epik_Tot_Q>
0

> <i_epik_Tot_abs_Q>
2

> <r_epik_Metal_State_Penalty>
2.57297

> <b_epik_Metal_Only>
1

> <s_lp_Force_Field>
OPLS_2005

> <r_lp_Energy>
8.4344

> <b_lp_Chiralities_Consistent>
1

> <s_lp_Variant>
AV-unprocessed.smi:809-4

> <Gold.Version>
5.8.1

> <Gold.Id.Protein>
6NUR|6NUR_protein|mol2

> <Gold.PLP.Fitness>
48.4531

> <Gold.PLP.PLP>
-32.1585

> <Gold.PLP.part.hbond>
-3.9202

> <Gold.PLP.part.metal>
0.0000

> <Gold.PLP.part.buried>
-2.2762

> <Gold.PLP.part.nonpolar>
-24.8740

> <Gold.PLP.part.repulsive>
0.1048

> <Gold.PLP.ligand.clash>
0.0000

> <Gold.PLP.ligand.torsion>
0.4875

> <Gold.PLP.Chemscore.Hbond>
5.7520

> <Gold.PLP.Chemscore.CHOScore>
0.0000

> <Gold.PLP.Chemscore.Metal>
0.0000

> <Gold.Chemscore.Hbonds>
donor molecule, donor type, donor heavy atom, donor atom, acceptor molecule, acceptor atom, score
      L1  H    12    27       P1  7957  1.00
      L1  H    15    39       P1  7948  2.00
      P1  H  7989  7998       L1    12  0.84
      P1  H  7997  8008       L1     6  1.70

> <Gold.PLP.Chemscore.Internal.Correction>
0.0137

> <Gold.Rescore>
     Score         DG    S(hbond)    S(metal)    S(lipo)     H(rot)  DE(clash)    DE(int)     intcor
     17.01     -19.12       2.82        0.00      75.98       1.82       0.12       1.99       ----

> <Gold.Chemscore.Fitness>
17.0099

> <Gold.Chemscore.DG>
-19.1232

> <Gold.Chemscore.ZeroCoef>
-5.4800

> <Gold.Chemscore.Hbond>
2.8171

> <Gold.Chemscore.Metal>
0.0000

> <Gold.Chemscore.Lipo>
75.9809

> <Gold.Chemscore.Internal_Hbond>
0.0000

> <Gold.Chemscore.DEClash>
0.1229

> <Gold.Chemscore.DEInternal>
1.9905

> <Gold.Chemscore.Rot>
1.8186

> <Gold.Chemscore.Internal.Correction>
   9.000000E+99

> <Gold.Chemscore.Hbonds>
donor molecule, donor type, donor heavy atom, donor atom, acceptor molecule, acceptor atom, score
      L1  H    12    27       P1  7957  0.97
      L1  H    15    39       P1  7948  0.96
      P1  H  7989  7998       L1    12  0.24
      P1  H  7997  8008       L1     6  0.64

> <Gold.Chemscore.Hbond.Weighted>
-9.4092

> <Gold.Chemscore.Metal.Weighted>
-0.0000

> <Gold.Chemscore.Lipo.Weighted>
-8.8898

> <Gold.Chemscore.Internal_Hbond.Weighted>
0.0000

> <Gold.Chemscore.DEClash.Weighted>
0.1229

> <Gold.Chemscore.DEInternal.Weighted>
1.9905

> <Gold.Chemscore.Rot.Weighted>
4.6557

> <Gold.Chemscore.Internal.Correction.Weighted>
   9.000000E+99

> <Gold.Protein.RotatedTorsions>
[ 6907 6896 6895 6894 ] final  154.72 input  -60.11 | X-H torsion
[ 7974 7965 7964 7962 ] final -137.86 input  175.53 | X-H torsion
[ 8008 7997 7996 7995 ] final  -72.07 input   59.86 | X-H torsion
[ 10167 10162 10161 10158 ] final -172.21 input  -65.29 | X-H torsion
[ 10718 10713 10712 10709 ] final -114.06 input   66.30 | X-H torsion
[ 10763 10752 10751 10750 ] final  131.13 input  -60.55 | X-H torsion
[ 11005 11000 10999 10996 ] final  -18.99 input  -57.11 | X-H torsion

> <Gold.Protein.ActiveResidues>
 VAL166  LYS551  ARG553  GLY616  TRP617  ASP618  TYR619  PRO620  LYS621  CYS622 
 ASP623  PHE694  ASN695  SER759  ASP760  ASP761  ALA762  ILE779  LEU786  VAL792 
 PHE793  MET794  SER795  GLU796  ALA797  LYS798  CYS799  TRP800  GLU811  SER814 

> <Gold.Protein.RotatedAtoms>
  152.0545  133.4034  159.4390 H   0  0  0  0  0  0  0  0  0  0  0  0  # atno 6907 bound_to 6896
  150.6868  134.3270  159.4820 H   0  0  0  0  0  0  0  0  0  0  0  0  # atno 6908 bound_to 6896
  152.1084  134.9291  160.0618 H   0  0  0  0  0  0  0  0  0  0  0  0  # atno 6909 bound_to 6896
  144.8806  140.6502  143.5208 H   0  0  0  0  0  0  0  0  0  0  0  0  # atno 7974 bound_to 7965
  154.5138  140.0804  156.8041 H   0  0  0  0  0  0  0  0  0  0  0  0  # atno 8008 bound_to 7997
  155.3727  140.3424  155.4225 H   0  0  0  0  0  0  0  0  0  0  0  0  # atno 8009 bound_to 7997
  156.1603  140.1586  156.8610 H   0  0  0  0  0  0  0  0  0  0  0  0  # atno 8010 bound_to 7997
  139.5758  144.1537  152.1447 H   0  0  0  0  0  0  0  0  0  0  0  0  # atno 10167 bound_to 10162
  156.0806  130.6006  150.8724 H   0  0  0  0  0  0  0  0  0  0  0  0  # atno 10718 bound_to 10713
  153.7693  135.3184  155.3349 H   0  0  0  0  0  0  0  0  0  0  0  0  # atno 10763 bound_to 10752
  154.8202  135.4608  154.0760 H   0  0  0  0  0  0  0  0  0  0  0  0  # atno 10764 bound_to 10752
  153.2015  135.6923  153.8310 H   0  0  0  0  0  0  0  0  0  0  0  0  # atno 10765 bound_to 10752
  140.8322  133.7988  155.9771 H   0  0  0  0  0  0  0  0  0  0  0  0  # atno 11005 bound_to 11000
  145.3961  139.1607  143.4202 LP  0  0  0  0  0  0  0  0  0  0  0  0  # atno 17320 bound_to 7965
  146.2992  140.4054  142.8710 LP  0  0  0  0  0  0  0  0  0  0  0  0  # atno 17321 bound_to 7965
  140.1079  144.5482  150.6944 LP  0  0  0  0  0  0  0  0  0  0  0  0  # atno 17342 bound_to 10162
  140.7040  143.2455  151.4781 LP  0  0  0  0  0  0  0  0  0  0  0  0  # atno 17343 bound_to 10162
  157.5920  131.0944  150.9102 LP  0  0  0  0  0  0  0  0  0  0  0  0  # atno 17370 bound_to 10713
  156.9276  130.5338  149.5279 LP  0  0  0  0  0  0  0  0  0  0  0  0  # atno 17371 bound_to 10713
  140.8986  134.2407  157.5055 LP  0  0  0  0  0  0  0  0  0  0  0  0  # atno 17394 bound_to 11000
  139.8704  134.9695  156.4670 LP  0  0  0  0  0  0  0  0  0  0  0  0  # atno 17395 bound_to 11000

$$$$
