AV-unprocessed.smi:2588|AV-procd|sdf|10148|dock6
  -GOLD-   2272014163D 1   1.00000     0.00000
 Structure written by MMmdl.
 40 41  0  0  0  0  0  0  0  0  2 V2000
  145.3272  134.7508  150.7684 C   0  0  0  0  0  0  0  0  0  0  0  0
  146.5496  133.9081  151.1901 C   0  0  0  0  0  0  0  0  0  0  0  0
  146.1505  132.4175  151.1440 C   0  0  0  0  0  0  0  0  0  0  0  0
  147.0945  134.3238  152.5250 N   0  3  2  0  0  0  0  0  0  0  0  0
  148.1002  133.3646  153.0708 C   0  0  0  0  0  0  0  0  0  0  0  0
  148.7197  133.8582  154.3889 C   0  0  0  0  0  0  0  0  0  0  0  0
  147.6402  134.1237  155.4438 C   0  0  1  0  0  0  0  0  0  0  0  0
  148.2500  134.6430  156.6642 N   0  0  0  0  0  0  0  0  0  0  0  0
  147.5888  134.9246  157.7976 C   0  0  0  0  0  0  0  0  0  0  0  0
  146.3700  134.7906  157.9159 O   0  0  0  0  0  0  0  0  0  0  0  0
  148.4405  135.4574  158.9581 C   0  0  0  0  0  0  0  0  0  0  0  0
  147.8082  135.2857  160.2671 N   0  0  0  0  0  0  0  0  0  0  0  0
  147.5812  134.0201  160.7108 N   0  0  0  0  0  0  0  0  0  0  0  0
  147.0270  134.0201  161.8664 C   0  0  0  0  0  0  0  0  0  0  0  0
  146.7011  135.6071  162.5754 S   0  0  0  0  0  0  0  0  0  0  0  0
  147.4117  136.3255  161.1037 C   0  0  0  0  0  0  0  0  0  0  0  0
  147.5079  137.5372  160.9173 O   0  0  0  0  0  0  0  0  0  0  0  0
  146.6235  135.1187  154.8662 C   0  0  0  0  0  0  0  0  0  0  0  0
  146.0365  134.6112  153.5387 C   0  0  0  0  0  0  0  0  0  0  0  0
  144.8714  134.3537  149.8608 H   0  0  0  0  0  0  0  0  0  0  0  0
  145.5900  135.7829  150.5404 H   0  0  0  0  0  0  0  0  0  0  0  0
  144.5604  134.7553  151.5440 H   0  0  0  0  0  0  0  0  0  0  0  0
  147.3329  134.0613  150.4458 H   0  0  0  0  0  0  0  0  0  0  0  0
  145.6400  132.1761  150.2110 H   0  0  0  0  0  0  0  0  0  0  0  0
  145.4766  132.1588  151.9614 H   0  0  0  0  0  0  0  0  0  0  0  0
  147.0154  131.7563  151.1889 H   0  0  0  0  0  0  0  0  0  0  0  0
  147.6313  132.3905  153.2193 H   0  0  0  0  0  0  0  0  0  0  0  0
  148.9202  133.2184  152.3706 H   0  0  0  0  0  0  0  0  0  0  0  0
  149.4291  133.1172  154.7596 H   0  0  0  0  0  0  0  0  0  0  0  0
  149.2923  134.7683  154.2023 H   0  0  0  0  0  0  0  0  0  0  0  0
  147.1364  133.1813  155.6692 H   0  0  0  0  0  0  0  0  0  0  0  0
  149.2493  134.7880  156.6517 H   0  0  0  0  0  0  0  0  0  0  0  0
  149.4056  134.9481  158.9636 H   0  0  0  0  0  0  0  0  0  0  0  0
  148.6508  136.5128  158.7774 H   0  0  0  0  0  0  0  0  0  0  0  0
  146.7421  133.1406  162.4434 H   0  0  0  0  0  0  0  0  0  0  0  0
  145.8148  135.2877  155.5783 H   0  0  0  0  0  0  0  0  0  0  0  0
  147.1003  136.0872  154.7064 H   0  0  0  0  0  0  0  0  0  0  0  0
  145.3552  135.3822  153.1836 H   0  0  0  0  0  0  0  0  0  0  0  0
  145.4422  133.7122  153.7099 H   0  0  0  0  0  0  0  0  0  0  0  0
  147.5828  135.1949  152.3727 H   0  0  0  0  0  0  0  0  0  0  0  0
  1  2  1  0  0  0  0
  1 20  1  0  0  0  0
  1 21  1  0  0  0  0
  1 22  1  0  0  0  0
  2  3  1  0  0  0  0
  2  4  1  0  0  0  0
  2 23  1  0  0  0  0
  3 24  1  0  0  0  0
  3 25  1  0  0  0  0
  3 26  1  0  0  0  0
  4 19  1  0  0  0  0
  4  5  1  0  0  0  0
  4 40  1  0  0  0  0
  5  6  1  0  0  0  0
  5 27  1  0  0  0  0
  5 28  1  0  0  0  0
  6  7  1  0  0  0  0
  6 29  1  0  0  0  0
  6 30  1  0  0  0  0
  7  8  1  0  0  0  0
  7 18  1  0  0  0  0
  7 31  1  0  0  0  0
  8  9  1  0  0  0  0
  8 32  1  0  0  0  0
  9 10  2  0  0  0  0
  9 11  1  0  0  0  0
 11 12  1  0  0  0  0
 11 33  1  0  0  0  0
 11 34  1  0  0  0  0
 12 16  1  0  0  0  0
 12 13  1  0  0  0  0
 13 14  2  0  0  0  0
 14 15  1  0  0  0  0
 14 35  1  0  0  0  0
 15 16  1  0  0  0  0
 16 17  2  0  0  0  0
 18 19  1  0  0  0  0
 18 36  1  0  0  0  0
 18 37  1  0  0  0  0
 19 38  1  0  0  0  0
 19 39  1  0  0  0  0
M  CHG  1   4   1
M  END
> <s_m_source_file>
AV-unprocessed.smi

> <i_m_source_file_index>
2588

> <i_lp_mmshare_version>
43012

> <i_f3d_flags>
0

> <s_epik_input>
W0NIM11bQ0hdKFtDSDNdKU4xW0NIMl1bQ0gyXVtDSF0oW0NIMl1bQ0gyXTEpW05IXUMoPU8pW0NIMl1uMm5bY0hdc2MyPU8=

> <s_epik_cmdline>
J2VwaWtfcHl0aG9uJywgJy1waCcsICc3LjAnLCAnLXRuJywgJzgnLCAnLW1hJywgJzIwMCcsICctbWV0YWxfYmluZGluZycsICctaW1hZScsICc8aW5maWxlLm1hZT4nLCAnLW9tYWUnLCAnPG91dGZpbGUubWFlPic=

> <r_lp_tautomer_probability>
1

> <r_epik_Ionization_Penalty>
0.00923155

> <r_epik_Ionization_Penalty_Charging>
0.00923117

> <r_epik_Ionization_Penalty_Neutral>
3.88423e-07

> <r_epik_State_Penalty>
0.0069994

> <r_epik_Charging_Adjusted_Penalty>
0.0162306

> <i_epik_Tot_Q>
1

> <i_epik_Tot_abs_Q>
1

> <r_epik_Metal_State_Penalty>
0.0069994

> <b_epik_Metal_Only>
0

> <s_lp_Force_Field>
OPLS_2005

> <r_lp_Energy>
22.17

> <b_lp_Chiralities_Consistent>
1

> <s_lp_Variant>
AV-unprocessed.smi:2588-1

> <Gold.Version>
5.8.1

> <Gold.Id.Protein>
6NUR|6NUR_protein|mol2

> <Gold.PLP.Fitness>
40.5842

> <Gold.PLP.PLP>
-30.3356

> <Gold.PLP.part.hbond>
-3.0000

> <Gold.PLP.part.metal>
0.0000

> <Gold.PLP.part.buried>
-2.2200

> <Gold.PLP.part.nonpolar>
-23.7717

> <Gold.PLP.part.repulsive>
0.0308

> <Gold.PLP.ligand.clash>
0.0000

> <Gold.PLP.ligand.torsion>
0.5890

> <Gold.PLP.Chemscore.Hbond>
3.7920

> <Gold.PLP.Chemscore.CHOScore>
0.0000

> <Gold.PLP.Chemscore.Metal>
0.0000

> <Gold.Chemscore.Hbonds>
donor molecule, donor type, donor heavy atom, donor atom, acceptor molecule, acceptor atom, score
      L1  H     4    40       P1  7948  2.00
      P1  H  6931  6943       L1    17  0.67
      P1  H  6934  6947       L1    17  0.94

> <Gold.PLP.Chemscore.Internal.Correction>
0.0506

> <Gold.Rescore>
     Score         DG    S(hbond)    S(metal)    S(lipo)     H(rot)  DE(clash)    DE(int)     intcor
     16.02     -16.60       2.71        0.00      58.59       1.88       0.01       0.57       ----

> <Gold.Chemscore.Fitness>
16.0214

> <Gold.Chemscore.DG>
-16.5998

> <Gold.Chemscore.ZeroCoef>
-5.4800

> <Gold.Chemscore.Hbond>
2.7146

> <Gold.Chemscore.Metal>
0.0000

> <Gold.Chemscore.Lipo>
58.5858

> <Gold.Chemscore.Internal_Hbond>
0.0000

> <Gold.Chemscore.DEClash>
0.0088

> <Gold.Chemscore.DEInternal>
0.5696

> <Gold.Chemscore.Rot>
1.8756

> <Gold.Chemscore.Internal.Correction>
   9.000000E+99

> <Gold.Chemscore.Hbonds>
donor molecule, donor type, donor heavy atom, donor atom, acceptor molecule, acceptor atom, score
      L1  H     4    40       P1  7948  0.97
      P1  H  6931  6943       L1    17  0.53
      P1  H  6934  6947       L1    17  0.84

> <Gold.Chemscore.Hbond.Weighted>
-9.0668

> <Gold.Chemscore.Metal.Weighted>
-0.0000

> <Gold.Chemscore.Lipo.Weighted>
-6.8545

> <Gold.Chemscore.Internal_Hbond.Weighted>
0.0000

> <Gold.Chemscore.DEClash.Weighted>
0.0088

> <Gold.Chemscore.DEInternal.Weighted>
0.5696

> <Gold.Chemscore.Rot.Weighted>
4.8015

> <Gold.Chemscore.Internal.Correction.Weighted>
   9.000000E+99

> <Gold.Protein.RotatedTorsions>
[ 6907 6896 6895 6894 ] final -150.01 input  -60.11 | X-H torsion
[ 7974 7965 7964 7962 ] final  102.16 input  175.53 | X-H torsion
[ 8008 7997 7996 7995 ] final  127.59 input   59.86 | X-H torsion
[ 10167 10162 10161 10158 ] final  -28.29 input  -65.29 | X-H torsion
[ 10718 10713 10712 10709 ] final  158.42 input   66.30 | X-H torsion
[ 10763 10752 10751 10750 ] final -151.51 input  -60.55 | X-H torsion
[ 11005 11000 10999 10996 ] final   59.89 input  -57.11 | X-H torsion

> <Gold.Protein.ActiveResidues>
 VAL166  LYS551  ARG553  GLY616  TRP617  ASP618  TYR619  PRO620  LYS621  CYS622 
 ASP623  PHE694  ASN695  SER759  ASP760  ASP761  ALA762  ILE779  LEU786  VAL792 
 PHE793  MET794  SER795  GLU796  ALA797  LYS798  CYS799  TRP800  GLU811  SER814 

> <Gold.Protein.RotatedAtoms>
  151.1924  133.4659  159.2594 H   0  0  0  0  0  0  0  0  0  0  0  0  # atno 6907 bound_to 6896
  151.1150  135.0048  159.8522 H   0  0  0  0  0  0  0  0  0  0  0  0  # atno 6908 bound_to 6896
  152.5453  134.1840  159.8700 H   0  0  0  0  0  0  0  0  0  0  0  0  # atno 6909 bound_to 6896
  145.3628  139.2414  143.3497 H   0  0  0  0  0  0  0  0  0  0  0  0  # atno 7974 bound_to 7965
  156.2894  140.2665  156.2297 H   0  0  0  0  0  0  0  0  0  0  0  0  # atno 8008 bound_to 7997
  155.0084  140.0387  157.2407 H   0  0  0  0  0  0  0  0  0  0  0  0  # atno 8009 bound_to 7997
  154.7539  140.2748  155.6274 H   0  0  0  0  0  0  0  0  0  0  0  0  # atno 8010 bound_to 7997
  140.7271  143.4022  151.1245 H   0  0  0  0  0  0  0  0  0  0  0  0  # atno 10167 bound_to 10162
  157.1780  131.0626  151.2147 H   0  0  0  0  0  0  0  0  0  0  0  0  # atno 10718 bound_to 10713
  154.8053  135.3258  154.7447 H   0  0  0  0  0  0  0  0  0  0  0  0  # atno 10763 bound_to 10752
  153.8106  135.6896  153.4846 H   0  0  0  0  0  0  0  0  0  0  0  0  # atno 10764 bound_to 10752
  153.1795  135.4592  154.9953 H   0  0  0  0  0  0  0  0  0  0  0  0  # atno 10765 bound_to 10752
  140.0271  134.6067  155.9558 H   0  0  0  0  0  0  0  0  0  0  0  0  # atno 11005 bound_to 11000
  146.2920  140.4265  142.8736 LP  0  0  0  0  0  0  0  0  0  0  0  0  # atno 17320 bound_to 7965
  144.8634  140.7171  143.6093 LP  0  0  0  0  0  0  0  0  0  0  0  0  # atno 17321 bound_to 7965
  139.7644  143.8587  152.3107 LP  0  0  0  0  0  0  0  0  0  0  0  0  # atno 17342 bound_to 10162
  139.8484  144.7176  150.9244 LP  0  0  0  0  0  0  0  0  0  0  0  0  # atno 17343 bound_to 10162
  157.3979  130.7317  149.6745 LP  0  0  0  0  0  0  0  0  0  0  0  0  # atno 17370 bound_to 10713
  155.9728  130.4128  150.4053 LP  0  0  0  0  0  0  0  0  0  0  0  0  # atno 17371 bound_to 10713
  141.1809  133.6546  156.5017 LP  0  0  0  0  0  0  0  0  0  0  0  0  # atno 17394 bound_to 11000
  140.4288  134.7121  157.4930 LP  0  0  0  0  0  0  0  0  0  0  0  0  # atno 17395 bound_to 11000

$$$$
