AV-unprocessed.smi:1419|AV-procd|sdf|5778|dock1
  -GOLD-   22720 5423D 1   1.00000     0.00000
 Structure written by MMmdl.
 42 43  0  0  0  0  0  0  0  0  2 V2000
  146.4967  131.1541  153.1265 C   0  0  0  0  0  0  0  0  0  0  0  0
  146.5348  132.6772  153.3095 C   0  0  2  0  0  0  0  0  0  0  0  0
  146.8051  133.3923  151.9678 C   0  0  0  0  0  0  0  0  0  0  0  0
  145.7250  133.2089  150.9920 N   0  0  0  0  0  0  0  0  0  0  0  0
  145.7040  132.3414  149.9299 C   0  0  0  0  0  0  0  0  0  0  0  0
  144.4934  132.5119  149.3096 C   0  0  0  0  0  0  0  0  0  0  0  0
  143.8321  133.4841  150.0112 N   0  3  0  0  0  0  0  0  0  0  0  0
  144.5858  133.9122  151.0288 C   0  0  0  0  0  0  0  0  0  0  0  0
  147.5600  133.0060  154.2994 N   0  0  0  0  0  0  0  0  0  0  0  0
  148.8498  132.6273  154.2623 C   0  0  0  0  0  0  0  0  0  0  0  0
  149.3027  131.9268  153.3561 O   0  0  0  0  0  0  0  0  0  0  0  0
  149.5951  133.0557  155.3107 N   0  0  0  0  0  0  0  0  0  0  0  0
  149.1053  133.6378  156.5678 C   0  0  0  0  0  0  0  0  0  0  0  0
  149.3841  132.6514  157.7210 C   0  0  1  0  0  0  0  0  0  0  0  0
  148.5018  131.3911  157.6895 C   0  0  0  0  0  0  0  0  0  0  0  0
  150.7753  132.3146  157.7443 O   0  0  0  0  0  0  0  0  0  0  0  0
  151.3214  131.8316  156.5136 C   0  0  2  0  0  0  0  0  0  0  0  0
  152.8217  131.5996  156.7213 C   0  0  0  0  0  0  0  0  0  0  0  0
  151.0423  132.8493  155.3899 C   0  0  0  0  0  0  0  0  0  0  0  0
  145.7200  130.8633  152.4189 H   0  0  0  0  0  0  0  0  0  0  0  0
  146.2853  130.6495  154.0698 H   0  0  0  0  0  0  0  0  0  0  0  0
  147.4475  130.7744  152.7504 H   0  0  0  0  0  0  0  0  0  0  0  0
  145.5546  132.9796  153.6828 H   0  0  0  0  0  0  0  0  0  0  0  0
  146.9639  134.4610  152.1218 H   0  0  0  0  0  0  0  0  0  0  0  0
  147.7144  133.0020  151.5085 H   0  0  0  0  0  0  0  0  0  0  0  0
  146.5264  131.6769  149.7069 H   0  0  0  0  0  0  0  0  0  0  0  0
  144.0651  132.0281  148.4438 H   0  0  0  0  0  0  0  0  0  0  0  0
  144.3215  134.6713  151.7431 H   0  0  0  0  0  0  0  0  0  0  0  0
  147.2668  133.5780  155.0782 H   0  0  0  0  0  0  0  0  0  0  0  0
  149.6382  134.5723  156.7501 H   0  0  0  0  0  0  0  0  0  0  0  0
  148.0500  133.9099  156.5534 H   0  0  0  0  0  0  0  0  0  0  0  0
  149.1768  133.1655  158.6599 H   0  0  0  0  0  0  0  0  0  0  0  0
  147.4461  131.6566  157.7490 H   0  0  0  0  0  0  0  0  0  0  0  0
  148.7266  130.7397  158.5342 H   0  0  0  0  0  0  0  0  0  0  0  0
  148.6412  130.8122  156.7781 H   0  0  0  0  0  0  0  0  0  0  0  0
  150.8618  130.8751  156.2622 H   0  0  0  0  0  0  0  0  0  0  0  0
  153.2894  131.2151  155.8147 H   0  0  0  0  0  0  0  0  0  0  0  0
  152.9977  130.8764  157.5181 H   0  0  0  0  0  0  0  0  0  0  0  0
  153.3302  132.5249  156.9938 H   0  0  0  0  0  0  0  0  0  0  0  0
  151.4701  132.4952  154.4507 H   0  0  0  0  0  0  0  0  0  0  0  0
  151.5347  133.7991  155.6039 H   0  0  0  0  0  0  0  0  0  0  0  0
  142.9072  133.8322  149.7917 H   0  0  0  0  0  0  0  0  0  0  0  0
  1  2  1  0  0  0  0
  1 20  1  0  0  0  0
  1 21  1  0  0  0  0
  1 22  1  0  0  0  0
  2  3  1  0  0  0  0
  2  9  1  0  0  0  0
  2 23  1  0  0  0  0
  3  4  1  0  0  0  0
  3 24  1  0  0  0  0
  3 25  1  0  0  0  0
  4  8  1  0  0  0  0
  4  5  1  0  0  0  0
  5  6  2  0  0  0  0
  5 26  1  0  0  0  0
  6  7  1  0  0  0  0
  6 27  1  0  0  0  0
  7  8  2  0  0  0  0
  7 42  1  0  0  0  0
  8 28  1  0  0  0  0
  9 10  1  0  0  0  0
  9 29  1  0  0  0  0
 10 11  2  0  0  0  0
 10 12  1  0  0  0  0
 12 19  1  0  0  0  0
 12 13  1  0  0  0  0
 13 14  1  0  0  0  0
 13 30  1  0  0  0  0
 13 31  1  0  0  0  0
 14 15  1  0  0  0  0
 14 16  1  0  0  0  0
 14 32  1  0  0  0  0
 15 33  1  0  0  0  0
 15 34  1  0  0  0  0
 15 35  1  0  0  0  0
 16 17  1  0  0  0  0
 17 18  1  0  0  0  0
 17 19  1  0  0  0  0
 17 36  1  0  0  0  0
 18 37  1  0  0  0  0
 18 38  1  0  0  0  0
 18 39  1  0  0  0  0
 19 40  1  0  0  0  0
 19 41  1  0  0  0  0
M  CHG  1   7   1
M  END
> <s_m_source_file>
AV-unprocessed.smi

> <i_m_source_file_index>
1419

> <i_lp_mmshare_version>
43012

> <i_f3d_flags>
0

> <s_epik_input>
W2NIXTFuW2NIXVtjSF1uMVtDSDJdW0NAQEhdKFtDSDNdKVtOSF1DKD1PKU4yW0NIMl1bQ0BASF0oW0NIM10pT1tDQEBIXShbQ0gzXSlbQ0gyXTI=

> <s_epik_cmdline>
J2VwaWtfcHl0aG9uJywgJy1waCcsICc3LjAnLCAnLXRuJywgJzgnLCAnLW1hJywgJzIwMCcsICctbWV0YWxfYmluZGluZycsICctaW1hZScsICc8aW5maWxlLm1hZT4nLCAnLW9tYWUnLCAnPG91dGZpbGUubWFlPic=

> <r_lp_tautomer_probability>
1

> <r_epik_Ionization_Penalty>
0.253607

> <r_epik_Ionization_Penalty_Charging>
0

> <r_epik_Ionization_Penalty_Neutral>
0.253607

> <r_epik_State_Penalty>
0.245018

> <r_epik_Charging_Adjusted_Penalty>
0.245018

> <i_epik_Tot_Q>
1

> <i_epik_Tot_abs_Q>
1

> <r_epik_Metal_State_Penalty>
0.535379

> <b_epik_Metal_Only>
0

> <s_lp_Force_Field>
OPLS_2005

> <r_lp_Energy>
31.638

> <b_lp_Chiralities_Consistent>
1

> <s_lp_Variant>
AV-unprocessed.smi:1419-5

> <Gold.Version>
5.8.1

> <Gold.Id.Protein>
6NUR|6NUR_protein|mol2

> <Gold.PLP.Fitness>
39.7456

> <Gold.PLP.PLP>
-28.5101

> <Gold.PLP.part.hbond>
-2.0000

> <Gold.PLP.part.metal>
0.0000

> <Gold.PLP.part.buried>
-4.6963

> <Gold.PLP.part.nonpolar>
-21.7090

> <Gold.PLP.part.repulsive>
0.2009

> <Gold.PLP.ligand.clash>
0.0000

> <Gold.PLP.ligand.torsion>
0.3837

> <Gold.PLP.Chemscore.Hbond>
2.9825

> <Gold.PLP.Chemscore.CHOScore>
0.9978

> <Gold.PLP.Chemscore.Metal>
0.0000

> <Gold.Chemscore.Hbonds>
donor molecule, donor type, donor heavy atom, donor atom, acceptor molecule, acceptor atom, score
      L1  H     7    42       P1 10186  2.00
      P1  H  6896  6909       L1    16  0.95
      L1  C     5    26       P1 10747  0.76

> <Gold.PLP.Chemscore.Internal.Correction>
0.0620

> <Gold.Rescore>
     Score         DG    S(hbond)    S(metal)    S(lipo)     H(rot)  DE(clash)    DE(int)     intcor
     13.06     -14.92       1.96        0.00      60.39       1.63       0.22       1.64       ----

> <Gold.Chemscore.Fitness>
13.0625

> <Gold.Chemscore.DG>
-14.9237

> <Gold.Chemscore.ZeroCoef>
-5.4800

> <Gold.Chemscore.Hbond>
1.9591

> <Gold.Chemscore.Metal>
0.0000

> <Gold.Chemscore.Lipo>
60.3934

> <Gold.Chemscore.Internal_Hbond>
0.0000

> <Gold.Chemscore.DEClash>
0.2195

> <Gold.Chemscore.DEInternal>
1.6417

> <Gold.Chemscore.Rot>
1.6273

> <Gold.Chemscore.Internal.Correction>
   9.000000E+99

> <Gold.Chemscore.Hbonds>
donor molecule, donor type, donor heavy atom, donor atom, acceptor molecule, acceptor atom, score
      L1  H     7    42       P1 10186  0.96
      P1  H  6896  6909       L1    16  0.22

> <Gold.Chemscore.Hbond.Weighted>
-6.5435

> <Gold.Chemscore.Metal.Weighted>
-0.0000

> <Gold.Chemscore.Lipo.Weighted>
-7.0660

> <Gold.Chemscore.Internal_Hbond.Weighted>
0.0000

> <Gold.Chemscore.DEClash.Weighted>
0.2195

> <Gold.Chemscore.DEInternal.Weighted>
1.6417

> <Gold.Chemscore.Rot.Weighted>
4.1658

> <Gold.Chemscore.Internal.Correction.Weighted>
   9.000000E+99

> <Gold.Protein.RotatedTorsions>
[ 6907 6896 6895 6894 ] final  -40.11 input  -60.11 | X-H torsion
[ 7974 7965 7964 7962 ] final -134.77 input  175.53 | X-H torsion
[ 8008 7997 7996 7995 ] final  -93.31 input   59.86 | X-H torsion
[ 10167 10162 10161 10158 ] final -133.07 input  -65.29 | X-H torsion
[ 10718 10713 10712 10709 ] final -113.96 input   66.30 | X-H torsion
[ 10763 10752 10751 10750 ] final  136.26 input  -60.55 | X-H torsion
[ 11005 11000 10999 10996 ] final   25.99 input  -57.11 | X-H torsion

> <Gold.Protein.ActiveResidues>
 VAL166  LYS551  ARG553  GLY616  TRP617  ASP618  TYR619  PRO620  LYS621  CYS622 
 ASP623  PHE694  ASN695  SER759  ASP760  ASP761  ALA762  ILE779  LEU786  VAL792 
 PHE793  MET794  SER795  GLU796  ALA797  LYS798  CYS799  TRP800  GLU811  SER814 

> <Gold.Protein.RotatedAtoms>
  150.9824  134.9176  159.7851 H   0  0  0  0  0  0  0  0  0  0  0  0  # atno 6907 bound_to 6896
  152.5226  134.3393  159.9221 H   0  0  0  0  0  0  0  0  0  0  0  0  # atno 6908 bound_to 6896
  151.3400  133.3925  159.2705 H   0  0  0  0  0  0  0  0  0  0  0  0  # atno 6909 bound_to 6896
  144.9073  140.6849  143.5047 H   0  0  0  0  0  0  0  0  0  0  0  0  # atno 7974 bound_to 7965
  154.7340  140.0500  157.0752 H   0  0  0  0  0  0  0  0  0  0  0  0  # atno 8008 bound_to 7997
  155.0264  140.3153  155.4755 H   0  0  0  0  0  0  0  0  0  0  0  0  # atno 8009 bound_to 7997
  156.2848  140.2158  156.5384 H   0  0  0  0  0  0  0  0  0  0  0  0  # atno 8010 bound_to 7997
  139.9020  143.6596  152.2593 H   0  0  0  0  0  0  0  0  0  0  0  0  # atno 10167 bound_to 10162
  156.0799  130.6001  150.8711 H   0  0  0  0  0  0  0  0  0  0  0  0  # atno 10718 bound_to 10713
  153.8536  135.3076  155.3434 H   0  0  0  0  0  0  0  0  0  0  0  0  # atno 10763 bound_to 10752
  154.7880  135.4799  153.9992 H   0  0  0  0  0  0  0  0  0  0  0  0  # atno 10764 bound_to 10752
  153.1503  135.6842  153.8985 H   0  0  0  0  0  0  0  0  0  0  0  0  # atno 10765 bound_to 10752
  140.3419  134.2324  155.7689 H   0  0  0  0  0  0  0  0  0  0  0  0  # atno 11005 bound_to 11000
  145.3514  139.1705  143.4432 LP  0  0  0  0  0  0  0  0  0  0  0  0  # atno 17320 bound_to 7965
  146.3140  140.3567  142.8661 LP  0  0  0  0  0  0  0  0  0  0  0  0  # atno 17321 bound_to 7965
  139.7017  144.7634  151.1262 LP  0  0  0  0  0  0  0  0  0  0  0  0  # atno 17342 bound_to 10162
  140.7704  143.5449  150.9270 LP  0  0  0  0  0  0  0  0  0  0  0  0  # atno 17343 bound_to 10162
  157.5912  131.0944  150.9116 LP  0  0  0  0  0  0  0  0  0  0  0  0  # atno 17370 bound_to 10713
  156.9291  130.5343  149.5279 LP  0  0  0  0  0  0  0  0  0  0  0  0  # atno 17371 bound_to 10713
  141.2036  133.7908  157.0330 LP  0  0  0  0  0  0  0  0  0  0  0  0  # atno 17394 bound_to 11000
  140.0774  134.9668  157.1568 LP  0  0  0  0  0  0  0  0  0  0  0  0  # atno 17395 bound_to 11000

$$$$
