AV-unprocessed.smi:110|AV-procd|sdf|1070|dock6
  -GOLD-   2262018153D 1   1.00000     0.00000
 Structure written by MMmdl.
 46 50  0  0  0  0  0  0  0  0  1 V2000
  146.3648  136.2799  152.8273 O   0  0  0  0  0  0  0  0  0  0  0  0
  146.7948  136.9314  154.0035 C   0  0  0  0  0  0  0  0  0  0  0  0
  146.9484  138.4406  153.7454 C   0  0  2  0  0  0  0  0  0  0  0  0
  148.1972  138.9139  154.2263 O   0  0  0  0  0  0  0  0  0  0  0  0
  148.1346  140.2990  154.3336 C   0  0  2  0  0  0  0  0  0  0  0  0
  149.0092  140.7170  155.4700 N   0  0  0  0  0  0  0  0  0  0  0  0
  148.6892  141.5594  156.5098 C   0  0  0  0  0  0  0  0  0  0  0  0
  149.6411  141.7572  157.3807 N   0  0  0  0  0  0  0  0  0  0  0  0
  150.7079  141.0040  156.9027 C   0  0  0  0  0  0  0  0  0  0  0  0
  152.0383  140.7580  157.3533 C   0  0  0  0  0  0  0  0  0  0  0  0
  152.5709  141.3168  158.4710 N   0  0  0  0  0  0  0  0  0  0  0  0
  153.2736  140.4602  159.4393 C   0  0  0  0  0  0  0  0  0  0  0  0
  153.2939  141.1913  160.7933 C   0  0  0  0  0  0  0  0  0  0  0  0
  152.6757  142.4972  160.4191 C   0  0  0  0  0  0  0  0  0  0  0  0
  152.4902  143.6160  161.2498 C   0  0  0  0  0  0  0  0  0  0  0  0
  151.8946  144.7669  160.6924 C   0  0  0  0  0  0  0  0  0  0  0  0
  151.5065  144.7818  159.3330 C   0  0  0  0  0  0  0  0  0  0  0  0
  151.7035  143.6457  158.5173 C   0  0  0  0  0  0  0  0  0  0  0  0
  152.2859  142.4905  159.0827 C   0  0  0  0  0  0  0  0  0  0  0  0
  152.8085  139.9371  156.5931 N   0  0  0  0  0  0  0  0  0  0  0  0
  152.3190  139.3881  155.4789 C   0  0  0  0  0  0  0  0  0  0  0  0
  151.1042  139.5252  154.9476 N   0  0  0  0  0  0  0  0  0  0  0  0
  150.3190  140.3483  155.6992 C   0  0  0  0  0  0  0  0  0  0  0  0
  146.6650  140.6846  154.5830 C   0  0  1  0  0  0  0  0  0  0  0  0
  146.1961  141.5684  153.5839 O   0  0  0  0  0  0  0  0  0  0  0  0
  145.9332  139.3483  154.4586 C   0  0  2  0  0  0  0  0  0  0  0  0
  145.5929  138.8479  155.7382 O   0  0  0  0  0  0  0  0  0  0  0  0
  146.8915  138.6464  152.6745 H   0  0  0  0  0  0  0  0  0  0  0  0
  148.5683  140.7688  153.4494 H   0  0  0  0  0  0  0  0  0  0  0  0
  146.5327  141.1434  155.5645 H   0  0  0  0  0  0  0  0  0  0  0  0
  145.0075  139.4284  153.8865 H   0  0  0  0  0  0  0  0  0  0  0  0
  147.1261  135.9994  152.3430 H   0  0  0  0  0  0  0  0  0  0  0  0
  146.0368  136.7552  154.7671 H   0  0  0  0  0  0  0  0  0  0  0  0
  147.7272  136.4922  154.3600 H   0  0  0  0  0  0  0  0  0  0  0  0
  147.7182  142.0227  156.6066 H   0  0  0  0  0  0  0  0  0  0  0  0
  152.7869  139.4882  159.5295 H   0  0  0  0  0  0  0  0  0  0  0  0
  154.2938  140.2927  159.0932 H   0  0  0  0  0  0  0  0  0  0  0  0
  152.6852  140.6833  161.5417 H   0  0  0  0  0  0  0  0  0  0  0  0
  154.3055  141.3265  161.1769 H   0  0  0  0  0  0  0  0  0  0  0  0
  152.7979  143.5968  162.2850 H   0  0  0  0  0  0  0  0  0  0  0  0
  151.7404  145.6425  161.3056 H   0  0  0  0  0  0  0  0  0  0  0  0
  151.0602  145.6709  158.9127 H   0  0  0  0  0  0  0  0  0  0  0  0
  151.4169  143.6781  157.4769 H   0  0  0  0  0  0  0  0  0  0  0  0
  152.9980  138.7485  154.9344 H   0  0  0  0  0  0  0  0  0  0  0  0
  145.3991  141.2135  153.2207 H   0  0  0  0  0  0  0  0  0  0  0  0
  144.8673  138.2501  155.6449 H   0  0  0  0  0  0  0  0  0  0  0  0
  1  2  1  0  0  0  0
  1 32  1  0  0  0  0
  2  3  1  0  0  0  0
  2 33  1  0  0  0  0
  2 34  1  0  0  0  0
  3 28  1  0  0  0  0
  3 26  1  0  0  0  0
  3  4  1  0  0  0  0
  4  5  1  0  0  0  0
  5 29  1  0  0  0  0
  5  6  1  0  0  0  0
  5 24  1  0  0  0  0
  6 23  1  0  0  0  0
  6  7  1  0  0  0  0
  7  8  2  0  0  0  0
  7 35  1  0  0  0  0
  8  9  1  0  0  0  0
  9 23  2  0  0  0  0
  9 10  1  0  0  0  0
 10 11  1  0  0  0  0
 10 20  2  0  0  0  0
 11 19  1  0  0  0  0
 11 12  1  0  0  0  0
 12 13  1  0  0  0  0
 12 36  1  0  0  0  0
 12 37  1  0  0  0  0
 13 14  1  0  0  0  0
 13 38  1  0  0  0  0
 13 39  1  0  0  0  0
 14 19  2  0  0  0  0
 14 15  1  0  0  0  0
 15 16  2  0  0  0  0
 15 40  1  0  0  0  0
 16 17  1  0  0  0  0
 16 41  1  0  0  0  0
 17 18  2  0  0  0  0
 17 42  1  0  0  0  0
 18 19  1  0  0  0  0
 18 43  1  0  0  0  0
 20 21  1  0  0  0  0
 21 22  2  0  0  0  0
 21 44  1  0  0  0  0
 22 23  1  0  0  0  0
 24 30  1  0  0  0  0
 24 25  1  0  0  0  0
 24 26  1  0  0  0  0
 25 45  1  0  0  0  0
 26 31  1  0  0  0  0
 26 27  1  0  0  0  0
 27 46  1  0  0  0  0
M  END
> <s_m_source_file>
AV-unprocessed.smi

> <i_m_source_file_index>
110

> <i_lp_mmshare_version>
43012

> <i_f3d_flags>
0

> <s_epik_input>
W09IXVtDSDJdW0NASF0xT1tDQEhdKFtDQEhdKFtPSF0pW0NAQEhdMVtPSF0pbihbY0hdbjIpYyhjMjMpbltjSF1uYzNOKFtDSDJdW0NIMl00KWMoYzQ1KVtjSF1bY0hdW2NIXVtjSF01

> <s_epik_cmdline>
J2VwaWtfcHl0aG9uJywgJy1waCcsICc3LjAnLCAnLXRuJywgJzgnLCAnLW1hJywgJzIwMCcsICctbWV0YWxfYmluZGluZycsICctaW1hZScsICc8aW5maWxlLm1hZT4nLCAnLW9tYWUnLCAnPG91dGZpbGUubWFlPic=

> <r_lp_tautomer_probability>
1

> <r_epik_Ionization_Penalty>
0.00068475

> <r_epik_Ionization_Penalty_Charging>
0

> <r_epik_Ionization_Penalty_Neutral>
0.00068475

> <r_epik_State_Penalty>
0.000417442

> <r_epik_Charging_Adjusted_Penalty>
0.000417442

> <i_epik_Tot_Q>
0

> <i_epik_Tot_abs_Q>
0

> <r_epik_Metal_State_Penalty>
-0

> <b_epik_Metal_Only>
0

> <s_epik_Chemistry_Notes>
This compound contains an acetal/aminal-like group ( X-CH(R)-Y where X, Y are N, S, or O) that may be acid/base labile, releasing an aldehyde.

> <s_lp_Force_Field>
OPLS_2005

> <r_lp_Energy>
57.5739

> <b_lp_Chiralities_Consistent>
1

> <s_lp_Variant>
AV-unprocessed.smi:110-8

> <Gold.Version>
5.8.1

> <Gold.Id.Protein>
6NUR|6NUR_protein|mol2

> <Gold.PLP.Fitness>
54.3383

> <Gold.PLP.PLP>
-46.2799

> <Gold.PLP.part.hbond>
-3.9093

> <Gold.PLP.part.metal>
0.0000

> <Gold.PLP.part.buried>
-4.1741

> <Gold.PLP.part.nonpolar>
-38.8105

> <Gold.PLP.part.repulsive>
0.2958

> <Gold.PLP.ligand.clash>
0.0000

> <Gold.PLP.ligand.torsion>
1.5215

> <Gold.PLP.Chemscore.Hbond>
3.6663

> <Gold.PLP.Chemscore.CHOScore>
0.0000

> <Gold.PLP.Chemscore.Metal>
0.0000

> <Gold.Chemscore.Hbonds>
donor molecule, donor type, donor heavy atom, donor atom, acceptor molecule, acceptor atom, score
      L1  H     1    32       P1  7948  1.00
      L1  H    25    45       P1 10175  0.95
      P1  H  7989  7998       L1    22  0.73
      P1  H  7997  8010       L1    20  1.00

> <Gold.PLP.Chemscore.Internal.Correction>
0.1025

> <Gold.Rescore>
     Score         DG    S(hbond)    S(metal)    S(lipo)     H(rot)  DE(clash)    DE(int)     intcor
     15.54     -18.31       2.75        0.00     105.12       3.38       0.15       2.63       ----

> <Gold.Chemscore.Fitness>
15.5366

> <Gold.Chemscore.DG>
-18.3149

> <Gold.Chemscore.ZeroCoef>
-5.4800

> <Gold.Chemscore.Hbond>
2.7538

> <Gold.Chemscore.Metal>
0.0000

> <Gold.Chemscore.Lipo>
105.1241

> <Gold.Chemscore.Internal_Hbond>
0.0000

> <Gold.Chemscore.DEClash>
0.1486

> <Gold.Chemscore.DEInternal>
2.6297

> <Gold.Chemscore.Rot>
3.3837

> <Gold.Chemscore.Internal.Correction>
   9.000000E+99

> <Gold.Chemscore.Hbonds>
donor molecule, donor type, donor heavy atom, donor atom, acceptor molecule, acceptor atom, score
      L1  H     1    32       P1  7948  0.95
      L1  H    25    45       P1 10175  0.21
      P1  H  7989  7998       L1    22  0.02
      P1  H  7997  8010       L1    20  0.62

> <Gold.Chemscore.Hbond.Weighted>
-9.1976

> <Gold.Chemscore.Metal.Weighted>
-0.0000

> <Gold.Chemscore.Lipo.Weighted>
-12.2995

> <Gold.Chemscore.Internal_Hbond.Weighted>
0.0000

> <Gold.Chemscore.DEClash.Weighted>
0.1486

> <Gold.Chemscore.DEInternal.Weighted>
2.6297

> <Gold.Chemscore.Rot.Weighted>
8.6622

> <Gold.Chemscore.Internal.Correction.Weighted>
   9.000000E+99

> <Gold.Protein.RotatedTorsions>
[ 6907 6896 6895 6894 ] final  132.73 input  -60.11 | X-H torsion
[ 7974 7965 7964 7962 ] final -138.66 input  175.53 | X-H torsion
[ 8008 7997 7996 7995 ] final   73.92 input   59.86 | X-H torsion
[ 10167 10162 10161 10158 ] final -139.16 input  -65.29 | X-H torsion
[ 10718 10713 10712 10709 ] final -101.59 input   66.30 | X-H torsion
[ 10763 10752 10751 10750 ] final   23.90 input  -60.55 | X-H torsion
[ 11005 11000 10999 10996 ] final  119.31 input  -57.11 | X-H torsion

> <Gold.Protein.ActiveResidues>
 VAL166  LYS551  ARG553  GLY616  TRP617  ASP618  TYR619  PRO620  LYS621  CYS622 
 ASP623  PHE694  ASN695  SER759  ASP760  ASP761  ALA762  ILE779  LEU786  VAL792 
 PHE793  MET794  SER795  GLU796  ALA797  LYS798  CYS799  TRP800  GLU811  SER814 

> <Gold.Protein.RotatedAtoms>
  152.3293  133.5940  159.5798 H   0  0  0  0  0  0  0  0  0  0  0  0  # atno 6907 bound_to 6896
  150.7414  133.9892  159.3610 H   0  0  0  0  0  0  0  0  0  0  0  0  # atno 6908 bound_to 6896
  151.7768  135.0772  160.0419 H   0  0  0  0  0  0  0  0  0  0  0  0  # atno 6909 bound_to 6896
  144.8740  140.6409  143.5248 H   0  0  0  0  0  0  0  0  0  0  0  0  # atno 7974 bound_to 7965
  155.7908  140.3479  155.5348 H   0  0  0  0  0  0  0  0  0  0  0  0  # atno 8008 bound_to 7997
  155.8635  140.0975  157.1618 H   0  0  0  0  0  0  0  0  0  0  0  0  # atno 8009 bound_to 7997
  154.4013  140.1354  156.3978 H   0  0  0  0  0  0  0  0  0  0  0  0  # atno 8010 bound_to 7997
  139.8407  143.7326  152.2663 H   0  0  0  0  0  0  0  0  0  0  0  0  # atno 10167 bound_to 10162
  156.0200  130.5380  150.6985 H   0  0  0  0  0  0  0  0  0  0  0  0  # atno 10718 bound_to 10713
  153.0804  135.6617  154.0057 H   0  0  0  0  0  0  0  0  0  0  0  0  # atno 10763 bound_to 10752
  153.9681  135.2967  155.3430 H   0  0  0  0  0  0  0  0  0  0  0  0  # atno 10764 bound_to 10752
  154.7202  135.5168  153.8871 H   0  0  0  0  0  0  0  0  0  0  0  0  # atno 10765 bound_to 10752
  139.9141  134.9627  156.7635 H   0  0  0  0  0  0  0  0  0  0  0  0  # atno 11005 bound_to 11000
  145.4077  139.1586  143.4143 LP  0  0  0  0  0  0  0  0  0  0  0  0  # atno 17320 bound_to 7965
  146.2950  140.4178  142.8725 LP  0  0  0  0  0  0  0  0  0  0  0  0  # atno 17321 bound_to 7965
  139.7562  144.7520  151.0432 LP  0  0  0  0  0  0  0  0  0  0  0  0  # atno 17342 bound_to 10162
  140.7798  143.4803  151.0027 LP  0  0  0  0  0  0  0  0  0  0  0  0  # atno 17343 bound_to 10162
  157.4651  131.0887  151.0704 LP  0  0  0  0  0  0  0  0  0  0  0  0  # atno 17370 bound_to 10713
  157.1180  130.6050  149.5498 LP  0  0  0  0  0  0  0  0  0  0  0  0  # atno 17371 bound_to 10713
  140.6678  133.9587  155.7840 LP  0  0  0  0  0  0  0  0  0  0  0  0  # atno 17394 bound_to 11000
  141.0598  134.0362  157.3673 LP  0  0  0  0  0  0  0  0  0  0  0  0  # atno 17395 bound_to 11000

$$$$
