AV-unprocessed.smi:3328|AV-procd|sdf|12793|dock5
  -GOLD-   2272019143D 1   1.00000     0.00000
 Structure written by MMmdl.
 40 41  0  0  0  0  0  0  0  0  1 V2000
  145.9945  137.4906  152.5181 C   0  0  0  0  0  0  0  0  0  0  0  0
  146.4750  138.5866  153.4250 C   0  0  0  0  0  0  0  0  0  0  0  0
  145.9954  138.9225  154.7230 C   0  0  0  0  0  0  0  0  0  0  0  0
  146.6388  139.9456  155.2609 N   0  0  0  0  0  0  0  0  0  0  0  0
  147.5455  140.3026  154.3263 N   0  0  0  0  0  0  0  0  0  0  0  0
  148.4469  141.4145  154.5757 C   0  0  0  0  0  0  0  0  0  0  0  0
  149.1539  141.3053  155.9417 C   0  0  2  0  0  0  0  0  0  0  0  0
  148.1461  141.4507  157.0957 C   0  0  0  0  0  0  0  0  0  0  0  0
  150.1720  142.3468  156.0331 N   0  0  0  0  0  0  0  0  0  0  0  0
  150.9184  142.2856  157.2801 C   0  0  0  0  0  0  0  0  0  0  0  0
  151.4764  143.6786  157.6073 C   0  0  0  0  0  0  0  0  0  0  0  0
  151.9303  143.7571  158.9925 N   0  0  0  0  0  0  0  0  0  0  0  0
  152.9029  142.8096  159.5095 C   0  0  0  0  0  0  0  0  0  0  0  0
  152.9654  143.0864  161.0187 C   0  0  0  0  0  0  0  0  0  0  0  0
  152.2669  144.4351  161.2243 C   0  0  0  0  0  0  0  0  0  0  0  0
  151.5699  144.6762  159.8961 C   0  0  0  0  0  0  0  0  0  0  0  0
  150.7848  145.6052  159.7134 O   0  0  0  0  0  0  0  0  0  0  0  0
  147.4712  139.4966  153.2103 C   0  0  0  0  0  0  0  0  0  0  0  0
  145.0605  137.0527  152.8709 H   0  0  0  0  0  0  0  0  0  0  0  0
  146.7217  136.6818  152.4463 H   0  0  0  0  0  0  0  0  0  0  0  0
  145.8159  137.8548  151.5062 H   0  0  0  0  0  0  0  0  0  0  0  0
  145.2032  138.4535  155.2877 H   0  0  0  0  0  0  0  0  0  0  0  0
  149.1741  141.4823  153.7644 H   0  0  0  0  0  0  0  0  0  0  0  0
  147.8548  142.3297  154.5361 H   0  0  0  0  0  0  0  0  0  0  0  0
  149.6303  140.3258  156.0032 H   0  0  0  0  0  0  0  0  0  0  0  0
  147.3543  140.7057  157.0140 H   0  0  0  0  0  0  0  0  0  0  0  0
  147.6743  142.4339  157.0908 H   0  0  0  0  0  0  0  0  0  0  0  0
  148.6149  141.3098  158.0692 H   0  0  0  0  0  0  0  0  0  0  0  0
  149.7526  143.2578  155.9125 H   0  0  0  0  0  0  0  0  0  0  0  0
  150.2746  141.9418  158.0891 H   0  0  0  0  0  0  0  0  0  0  0  0
  151.7356  141.5698  157.1827 H   0  0  0  0  0  0  0  0  0  0  0  0
  152.3083  143.9144  156.9417 H   0  0  0  0  0  0  0  0  0  0  0  0
  150.7162  144.4423  157.4346 H   0  0  0  0  0  0  0  0  0  0  0  0
  152.6074  141.7811  159.2980 H   0  0  0  0  0  0  0  0  0  0  0  0
  153.8693  142.9923  159.0377 H   0  0  0  0  0  0  0  0  0  0  0  0
  152.4321  142.3070  161.5645 H   0  0  0  0  0  0  0  0  0  0  0  0
  153.9927  143.0987  161.3845 H   0  0  0  0  0  0  0  0  0  0  0  0
  151.5549  144.4095  162.0498 H   0  0  0  0  0  0  0  0  0  0  0  0
  152.9870  145.2335  161.4060 H   0  0  0  0  0  0  0  0  0  0  0  0
  148.1261  139.6378  152.3631 H   0  0  0  0  0  0  0  0  0  0  0  0
  1  2  1  0  0  0  0
  1 19  1  0  0  0  0
  1 20  1  0  0  0  0
  1 21  1  0  0  0  0
  2 18  2  0  0  0  0
  2  3  1  0  0  0  0
  3  4  2  0  0  0  0
  3 22  1  0  0  0  0
  4  5  1  0  0  0  0
  5  6  1  0  0  0  0
  5 18  1  0  0  0  0
  6  7  1  0  0  0  0
  6 23  1  0  0  0  0
  6 24  1  0  0  0  0
  7  8  1  0  0  0  0
  7  9  1  0  0  0  0
  7 25  1  0  0  0  0
  8 26  1  0  0  0  0
  8 27  1  0  0  0  0
  8 28  1  0  0  0  0
  9 10  1  0  0  0  0
  9 29  1  0  0  0  0
 10 11  1  0  0  0  0
 10 30  1  0  0  0  0
 10 31  1  0  0  0  0
 11 12  1  0  0  0  0
 11 32  1  0  0  0  0
 11 33  1  0  0  0  0
 12 16  1  0  0  0  0
 12 13  1  0  0  0  0
 13 14  1  0  0  0  0
 13 34  1  0  0  0  0
 13 35  1  0  0  0  0
 14 15  1  0  0  0  0
 14 36  1  0  0  0  0
 14 37  1  0  0  0  0
 15 16  1  0  0  0  0
 15 38  1  0  0  0  0
 15 39  1  0  0  0  0
 16 17  2  0  0  0  0
 18 40  1  0  0  0  0
M  END
> <s_m_source_file>
AV-unprocessed.smi

> <i_m_source_file_index>
3328

> <i_lp_mmshare_version>
43012

> <i_f3d_flags>
0

> <s_epik_input>
W0NIM11jMVtjSF1ubihbY0hdMSlbQ0gyXVtDQEhdKFtDSDNdKVtOSF1bQ0gyXVtDSDJdTjJbQ0gyXVtDSDJdW0NIMl1DMj1P

> <s_epik_cmdline>
J2VwaWtfcHl0aG9uJywgJy1waCcsICc3LjAnLCAnLXRuJywgJzgnLCAnLW1hJywgJzIwMCcsICctbWV0YWxfYmluZGluZycsICctaW1hZScsICc8aW5maWxlLm1hZT4nLCAnLW9tYWUnLCAnPG91dGZpbGUubWFlPic=

> <r_lp_tautomer_probability>
1

> <r_epik_Ionization_Penalty>
2.53591

> <r_epik_Ionization_Penalty_Charging>
0

> <r_epik_Ionization_Penalty_Neutral>
2.53591

> <r_epik_State_Penalty>
2.70334

> <r_epik_Charging_Adjusted_Penalty>
2.70334

> <i_epik_Tot_Q>
0

> <i_epik_Tot_abs_Q>
0

> <r_epik_Metal_State_Penalty>
2.70327

> <b_epik_Metal_Only>
0

> <s_lp_Force_Field>
OPLS_2005

> <r_lp_Energy>
20.4488

> <b_lp_Chiralities_Consistent>
1

> <s_lp_Variant>
AV-unprocessed.smi:3328-3

> <Gold.Version>
5.8.1

> <Gold.Id.Protein>
6NUR|6NUR_protein|mol2

> <Gold.PLP.Fitness>
43.5085

> <Gold.PLP.PLP>
-38.1245

> <Gold.PLP.part.hbond>
-2.2925

> <Gold.PLP.part.metal>
0.0000

> <Gold.PLP.part.buried>
-4.9951

> <Gold.PLP.part.nonpolar>
-33.0042

> <Gold.PLP.part.repulsive>
0.2687

> <Gold.PLP.ligand.clash>
0.0000

> <Gold.PLP.ligand.torsion>
0.3509

> <Gold.PLP.Chemscore.Hbond>
1.0000

> <Gold.PLP.Chemscore.CHOScore>
0.9999

> <Gold.PLP.Chemscore.Metal>
0.0000

> <Gold.Chemscore.Hbonds>
donor molecule, donor type, donor heavy atom, donor atom, acceptor molecule, acceptor atom, score
      L1  H     9    29       P1  8028  1.00
      L1  C    18    40       P1  7957  0.76

> <Gold.PLP.Chemscore.Internal.Correction>
0.0860

> <Gold.Rescore>
     Score         DG    S(hbond)    S(metal)    S(lipo)     H(rot)  DE(clash)    DE(int)     intcor
     12.87     -14.62       1.00        0.00      91.10       1.89       0.10       1.66       ----

> <Gold.Chemscore.Fitness>
12.8662

> <Gold.Chemscore.DG>
-14.6200

> <Gold.Chemscore.ZeroCoef>
-5.4800

> <Gold.Chemscore.Hbond>
0.9955

> <Gold.Chemscore.Metal>
0.0000

> <Gold.Chemscore.Lipo>
91.0985

> <Gold.Chemscore.Internal_Hbond>
0.0000

> <Gold.Chemscore.DEClash>
0.0958

> <Gold.Chemscore.DEInternal>
1.6580

> <Gold.Chemscore.Rot>
1.8920

> <Gold.Chemscore.Internal.Correction>
   9.000000E+99

> <Gold.Chemscore.Hbonds>
donor molecule, donor type, donor heavy atom, donor atom, acceptor molecule, acceptor atom, score
      L1  H     9    29       P1  8028  1.00

> <Gold.Chemscore.Hbond.Weighted>
-3.3249

> <Gold.Chemscore.Metal.Weighted>
-0.0000

> <Gold.Chemscore.Lipo.Weighted>
-10.6585

> <Gold.Chemscore.Internal_Hbond.Weighted>
0.0000

> <Gold.Chemscore.DEClash.Weighted>
0.0958

> <Gold.Chemscore.DEInternal.Weighted>
1.6580

> <Gold.Chemscore.Rot.Weighted>
4.8435

> <Gold.Chemscore.Internal.Correction.Weighted>
   9.000000E+99

> <Gold.Protein.RotatedTorsions>
[ 6907 6896 6895 6894 ] final   79.04 input  -60.11 | X-H torsion
[ 7974 7965 7964 7962 ] final  -40.17 input  175.53 | X-H torsion
[ 8008 7997 7996 7995 ] final -146.10 input   59.86 | X-H torsion
[ 10167 10162 10161 10158 ] final -171.54 input  -65.29 | X-H torsion
[ 10718 10713 10712 10709 ] final  -60.57 input   66.30 | X-H torsion
[ 10763 10752 10751 10750 ] final  100.82 input  -60.55 | X-H torsion
[ 11005 11000 10999 10996 ] final -139.47 input  -57.11 | X-H torsion

> <Gold.Protein.ActiveResidues>
 VAL166  LYS551  ARG553  GLY616  TRP617  ASP618  TYR619  PRO620  LYS621  CYS622 
 ASP623  PHE694  ASN695  SER759  ASP760  ASP761  ALA762  ILE779  LEU786  VAL792 
 PHE793  MET794  SER795  GLU796  ALA797  LYS798  CYS799  TRP800  GLU811  SER814 

> <Gold.Protein.RotatedAtoms>
  152.5183  134.3572  159.9271 H   0  0  0  0  0  0  0  0  0  0  0  0  # atno 6907 bound_to 6896
  151.3523  133.3914  159.2689 H   0  0  0  0  0  0  0  0  0  0  0  0  # atno 6908 bound_to 6896
  150.9717  134.9107  159.7850 H   0  0  0  0  0  0  0  0  0  0  0  0  # atno 6909 bound_to 6896
  146.0329  140.6708  142.9124 H   0  0  0  0  0  0  0  0  0  0  0  0  # atno 7974 bound_to 7965
  155.5538  140.0619  157.2844 H   0  0  0  0  0  0  0  0  0  0  0  0  # atno 8008 bound_to 7997
  154.4412  140.1897  156.0758 H   0  0  0  0  0  0  0  0  0  0  0  0  # atno 8009 bound_to 7997
  156.0496  140.3286  155.7340 H   0  0  0  0  0  0  0  0  0  0  0  0  # atno 8010 bound_to 7997
  139.5796  144.1453  152.1497 H   0  0  0  0  0  0  0  0  0  0  0  0  # atno 10167 bound_to 10162
  156.0981  130.4190  150.0873 H   0  0  0  0  0  0  0  0  0  0  0  0  # atno 10718 bound_to 10713
  153.3188  135.4065  155.1399 H   0  0  0  0  0  0  0  0  0  0  0  0  # atno 10763 bound_to 10752
  154.8595  135.3582  154.5624 H   0  0  0  0  0  0  0  0  0  0  0  0  # atno 10764 bound_to 10752
  153.6056  135.7069  153.5426 H   0  0  0  0  0  0  0  0  0  0  0  0  # atno 10765 bound_to 10752
  140.8516  134.2278  157.4757 H   0  0  0  0  0  0  0  0  0  0  0  0  # atno 11005 bound_to 11000
  144.7038  140.3768  143.7134 LP  0  0  0  0  0  0  0  0  0  0  0  0  # atno 17320 bound_to 7965
  145.7011  139.1661  143.2592 LP  0  0  0  0  0  0  0  0  0  0  0  0  # atno 17321 bound_to 7965
  140.1004  144.5545  150.6993 LP  0  0  0  0  0  0  0  0  0  0  0  0  # atno 17342 bound_to 10162
  140.7076  143.2479  151.4680 LP  0  0  0  0  0  0  0  0  0  0  0  0  # atno 17343 bound_to 10162
  156.8866  130.9574  151.3593 LP  0  0  0  0  0  0  0  0  0  0  0  0  # atno 17370 bound_to 10713
  157.6146  130.8609  149.9008 LP  0  0  0  0  0  0  0  0  0  0  0  0  # atno 17371 bound_to 10713
  139.8704  134.9686  156.4637 LP  0  0  0  0  0  0  0  0  0  0  0  0  # atno 17394 bound_to 11000
  140.8783  133.7936  155.9439 LP  0  0  0  0  0  0  0  0  0  0  0  0  # atno 17395 bound_to 11000

$$$$
