AV-unprocessed.smi:1679|AV-procd|sdf|6736|dock2
  -GOLD-   22720 7483D 1   1.00000     0.00000
 Structure written by MMmdl.
 44 45  0  0  0  0  0  0  0  0  2 V2000
  151.2466  141.7559  157.4596 C   0  0  0  0  0  0  0  0  0  0  0  0
  152.2349  142.1898  158.5549 C   0  0  1  0  0  0  0  0  0  0  0  0
  151.6420  143.3361  159.3994 C   0  0  0  0  0  0  0  0  0  0  0  0
  152.6066  143.7861  160.5068 C   0  0  0  0  0  0  0  0  0  0  0  0
  153.0045  142.6056  161.4036 C   0  0  0  0  0  0  0  0  0  0  0  0
  153.6082  141.4626  160.5744 C   0  0  0  0  0  0  0  0  0  0  0  0
  152.6478  141.0038  159.4563 C   0  0  2  0  0  0  0  0  0  0  0  0
  153.2916  140.0400  158.6321 O   0  0  0  0  0  0  0  0  0  0  0  0
  152.4630  138.9638  158.2162 C   0  0  0  0  0  0  0  0  0  0  0  0
  153.2993  137.9936  157.3756 C   0  0  0  0  0  0  0  0  0  0  0  0
  154.2428  137.2721  158.2183 N   0  0  0  0  0  0  0  0  0  0  0  0
  153.9251  136.6651  159.3696 C   0  0  0  0  0  0  0  0  0  0  0  0
  152.7793  136.6358  159.8210 O   0  0  0  0  0  0  0  0  0  0  0  0
  155.0783  135.9634  160.1005 C   0  0  0  0  0  0  0  0  0  0  0  0
  154.6590  135.3158  161.3540 N   0  0  0  0  0  0  0  0  0  0  0  0
  154.2347  136.1443  162.4079 C   0  0  0  0  0  0  0  0  0  0  0  0
  153.8366  135.6405  163.5916 C   0  0  0  0  0  0  0  0  0  0  0  0
  153.8526  134.1933  163.7664 C   0  0  0  0  0  0  0  0  0  0  0  0
  153.4872  133.7154  164.8389 O   0  0  0  0  0  0  0  0  0  0  0  0
  154.2774  133.4318  162.7160 N   0  5  0  0  0  0  0  0  0  0  0  0
  154.6823  133.9585  161.5184 C   0  0  0  0  0  0  0  0  0  0  0  0
  155.0648  133.2531  160.5841 O   0  0  0  0  0  0  0  0  0  0  0  0
  150.3299  141.3516  157.8900 H   0  0  0  0  0  0  0  0  0  0  0  0
  151.6774  140.9890  156.8152 H   0  0  0  0  0  0  0  0  0  0  0  0
  150.9723  142.5977  156.8232 H   0  0  0  0  0  0  0  0  0  0  0  0
  153.1314  142.5679  158.0606 H   0  0  0  0  0  0  0  0  0  0  0  0
  151.4026  144.1857  158.7587 H   0  0  0  0  0  0  0  0  0  0  0  0
  150.7010  143.0146  159.8480 H   0  0  0  0  0  0  0  0  0  0  0  0
  153.4997  144.2247  160.0596 H   0  0  0  0  0  0  0  0  0  0  0  0
  152.1440  144.5699  161.1073 H   0  0  0  0  0  0  0  0  0  0  0  0
  153.7193  142.9358  162.1579 H   0  0  0  0  0  0  0  0  0  0  0  0
  152.1286  142.2436  161.9435 H   0  0  0  0  0  0  0  0  0  0  0  0
  154.5499  141.7927  160.1340 H   0  0  0  0  0  0  0  0  0  0  0  0
  153.8524  140.6321  161.2363 H   0  0  0  0  0  0  0  0  0  0  0  0
  151.7454  140.5782  159.8999 H   0  0  0  0  0  0  0  0  0  0  0  0
  152.0573  138.4409  159.0821 H   0  0  0  0  0  0  0  0  0  0  0  0
  151.6192  139.3315  157.6302 H   0  0  0  0  0  0  0  0  0  0  0  0
  152.6514  137.2847  156.8580 H   0  0  0  0  0  0  0  0  0  0  0  0
  153.8466  138.5486  156.6122 H   0  0  0  0  0  0  0  0  0  0  0  0
  155.2062  137.2530  157.9172 H   0  0  0  0  0  0  0  0  0  0  0  0
  155.5133  135.2298  159.4205 H   0  0  0  0  0  0  0  0  0  0  0  0
  155.8784  136.6795  160.2988 H   0  0  0  0  0  0  0  0  0  0  0  0
  154.2586  137.2037  162.1984 H   0  0  0  0  0  0  0  0  0  0  0  0
  153.5164  136.2909  164.3922 H   0  0  0  0  0  0  0  0  0  0  0  0
  1  2  1  0  0  0  0
  1 23  1  0  0  0  0
  1 24  1  0  0  0  0
  1 25  1  0  0  0  0
  2  7  1  0  0  0  0
  2  3  1  0  0  0  0
  2 26  1  0  0  0  0
  3  4  1  0  0  0  0
  3 27  1  0  0  0  0
  3 28  1  0  0  0  0
  4  5  1  0  0  0  0
  4 29  1  0  0  0  0
  4 30  1  0  0  0  0
  5  6  1  0  0  0  0
  5 31  1  0  0  0  0
  5 32  1  0  0  0  0
  6  7  1  0  0  0  0
  6 33  1  0  0  0  0
  6 34  1  0  0  0  0
  7  8  1  0  0  0  0
  7 35  1  0  0  0  0
  8  9  1  0  0  0  0
  9 10  1  0  0  0  0
  9 36  1  0  0  0  0
  9 37  1  0  0  0  0
 10 11  1  0  0  0  0
 10 38  1  0  0  0  0
 10 39  1  0  0  0  0
 11 12  1  0  0  0  0
 11 40  1  0  0  0  0
 12 13  2  0  0  0  0
 12 14  1  0  0  0  0
 14 15  1  0  0  0  0
 14 41  1  0  0  0  0
 14 42  1  0  0  0  0
 15 21  1  0  0  0  0
 15 16  1  0  0  0  0
 16 17  2  0  0  0  0
 16 43  1  0  0  0  0
 17 18  1  0  0  0  0
 17 44  1  0  0  0  0
 18 19  2  0  0  0  0
 18 20  1  0  0  0  0
 20 21  1  0  0  0  0
 21 22  2  0  0  0  0
M  CHG  1  20  -1
M  END
> <s_m_source_file>
AV-unprocessed.smi

> <i_m_source_file_index>
1679

> <i_lp_mmshare_version>
43012

> <i_f3d_flags>
0

> <s_epik_input>
W0NIM11bQ0BASF0xW0NIMl1bQ0gyXVtDSDJdW0NIMl1bQ0BIXTFPW0NIMl1bQ0gyXVtOSF1DKD1PKVtDSDJdbjJbY0hdW2NIXWMoPU8pW25IXWMyPU8=

> <s_epik_cmdline>
J2VwaWtfcHl0aG9uJywgJy1waCcsICc3LjAnLCAnLXRuJywgJzgnLCAnLW1hJywgJzIwMCcsICctbWV0YWxfYmluZGluZycsICctaW1hZScsICc8aW5maWxlLm1hZT4nLCAnLW9tYWUnLCAnPG91dGZpbGUubWFlPic=

> <r_lp_tautomer_probability>
0.999537

> <r_epik_Ionization_Penalty>
3.07454

> <r_epik_Ionization_Penalty_Charging>
2.80088e-08

> <r_epik_Ionization_Penalty_Neutral>
3.07454

> <r_epik_State_Penalty>
3.07357

> <r_epik_Charging_Adjusted_Penalty>
3.07357

> <i_epik_Tot_Q>
-1

> <i_epik_Tot_abs_Q>
1

> <r_epik_Metal_State_Penalty>
0.45948

> <b_epik_Metal_Only>
1

> <s_lp_Force_Field>
OPLS_2005

> <r_lp_Energy>
20.702

> <b_lp_Chiralities_Consistent>
1

> <s_lp_Variant>
AV-unprocessed.smi:1679-8

> <Gold.Version>
5.8.1

> <Gold.Id.Protein>
6NUR|6NUR_protein|mol2

> <Gold.PLP.Fitness>
42.3371

> <Gold.PLP.PLP>
-37.6085

> <Gold.PLP.part.hbond>
-2.0000

> <Gold.PLP.part.metal>
0.0000

> <Gold.PLP.part.buried>
-4.9912

> <Gold.PLP.part.nonpolar>
-30.1401

> <Gold.PLP.part.repulsive>
0.4820

> <Gold.PLP.ligand.clash>
0.0000

> <Gold.PLP.ligand.torsion>
0.6823

> <Gold.PLP.Chemscore.Hbond>
2.0000

> <Gold.PLP.Chemscore.CHOScore>
0.0000

> <Gold.PLP.Chemscore.Metal>
0.0000

> <Gold.Chemscore.Hbonds>
donor molecule, donor type, donor heavy atom, donor atom, acceptor molecule, acceptor atom, score
      P1  H  6896  6907       L1    13  1.00
      P1  H  7997  8008       L1     8  0.90

> <Gold.PLP.Chemscore.Internal.Correction>
0.0932

> <Gold.Rescore>
     Score         DG    S(hbond)    S(metal)    S(lipo)     H(rot)  DE(clash)    DE(int)     intcor
     13.34     -16.31       1.88        0.00      92.42       2.45       0.01       2.96       ----

> <Gold.Chemscore.Fitness>
13.3415

> <Gold.Chemscore.DG>
-16.3112

> <Gold.Chemscore.ZeroCoef>
-5.4800

> <Gold.Chemscore.Hbond>
1.8824

> <Gold.Chemscore.Metal>
0.0000

> <Gold.Chemscore.Lipo>
92.4216

> <Gold.Chemscore.Internal_Hbond>
0.0000

> <Gold.Chemscore.DEClash>
0.0060

> <Gold.Chemscore.DEInternal>
2.9638

> <Gold.Chemscore.Rot>
2.4490

> <Gold.Chemscore.Internal.Correction>
   9.000000E+99

> <Gold.Chemscore.Hbonds>
donor molecule, donor type, donor heavy atom, donor atom, acceptor molecule, acceptor atom, score
      P1  H  6896  6907       L1    13  0.99
      P1  H  7997  8008       L1     8  0.29

> <Gold.Chemscore.Hbond.Weighted>
-6.2873

> <Gold.Chemscore.Metal.Weighted>
-0.0000

> <Gold.Chemscore.Lipo.Weighted>
-10.8133

> <Gold.Chemscore.Internal_Hbond.Weighted>
0.0000

> <Gold.Chemscore.DEClash.Weighted>
0.0060

> <Gold.Chemscore.DEInternal.Weighted>
2.9638

> <Gold.Chemscore.Rot.Weighted>
6.2694

> <Gold.Chemscore.Internal.Correction.Weighted>
   9.000000E+99

> <Gold.Protein.RotatedTorsions>
[ 6907 6896 6895 6894 ] final   12.56 input  -60.11 | X-H torsion
[ 7974 7965 7964 7962 ] final  -94.83 input  175.53 | X-H torsion
[ 8008 7997 7996 7995 ] final  -99.90 input   59.86 | X-H torsion
[ 10167 10162 10161 10158 ] final   18.80 input  -65.29 | X-H torsion
[ 10718 10713 10712 10709 ] final  116.39 input   66.30 | X-H torsion
[ 10763 10752 10751 10750 ] final -131.84 input  -60.55 | X-H torsion
[ 11005 11000 10999 10996 ] final -126.45 input  -57.11 | X-H torsion

> <Gold.Protein.ActiveResidues>
 VAL166  LYS551  ARG553  GLY616  TRP617  ASP618  TYR619  PRO620  LYS621  CYS622 
 ASP623  PHE694  ASN695  SER759  ASP760  ASP761  ALA762  ILE779  LEU786  VAL792 
 PHE793  MET794  SER795  GLU796  ALA797  LYS798  CYS799  TRP800  GLU811  SER814 

> <Gold.Protein.RotatedAtoms>
  151.7722  135.0783  160.0361 H   0  0  0  0  0  0  0  0  0  0  0  0  # atno 6907 bound_to 6896
  152.3280  133.5922  159.5798 H   0  0  0  0  0  0  0  0  0  0  0  0  # atno 6908 bound_to 6896
  150.7406  133.9826  159.3623 H   0  0  0  0  0  0  0  0  0  0  0  0  # atno 6909 bound_to 6896
  145.3681  140.9501  143.2463 H   0  0  0  0  0  0  0  0  0  0  0  0  # atno 7974 bound_to 7965
  154.8212  140.0444  157.1412 H   0  0  0  0  0  0  0  0  0  0  0  0  # atno 8008 bound_to 7997
  154.9257  140.3033  155.5173 H   0  0  0  0  0  0  0  0  0  0  0  0  # atno 8009 bound_to 7997
  156.2980  140.2332  156.4312 H   0  0  0  0  0  0  0  0  0  0  0  0  # atno 8010 bound_to 7997
  140.5626  143.9309  150.6653 H   0  0  0  0  0  0  0  0  0  0  0  0  # atno 10167 bound_to 10162
  157.6163  131.1025  150.7466 H   0  0  0  0  0  0  0  0  0  0  0  0  # atno 10718 bound_to 10713
  154.8748  135.3817  154.4312 H   0  0  0  0  0  0  0  0  0  0  0  0  # atno 10763 bound_to 10752
  153.5006  135.7030  153.5839 H   0  0  0  0  0  0  0  0  0  0  0  0  # atno 10764 bound_to 10752
  153.4173  135.3910  155.2055 H   0  0  0  0  0  0  0  0  0  0  0  0  # atno 10765 bound_to 10752
  140.9680  134.0845  157.3900 H   0  0  0  0  0  0  0  0  0  0  0  0  # atno 11005 bound_to 11000
  144.8597  139.5196  143.6818 LP  0  0  0  0  0  0  0  0  0  0  0  0  # atno 17320 bound_to 7965
  146.2897  139.7105  142.9169 LP  0  0  0  0  0  0  0  0  0  0  0  0  # atno 17321 bound_to 7965
  140.2763  143.3420  152.1192 LP  0  0  0  0  0  0  0  0  0  0  0  0  # atno 17342 bound_to 10162
  139.5077  144.6837  151.5942 LP  0  0  0  0  0  0  0  0  0  0  0  0  # atno 17343 bound_to 10162
  156.7833  130.4866  149.5397 LP  0  0  0  0  0  0  0  0  0  0  0  0  # atno 17370 bound_to 10713
  156.1287  130.6162  151.0301 LP  0  0  0  0  0  0  0  0  0  0  0  0  # atno 17371 bound_to 10713
  139.8901  135.0110  156.6720 LP  0  0  0  0  0  0  0  0  0  0  0  0  # atno 17394 bound_to 11000
  140.7371  133.9009  155.8252 LP  0  0  0  0  0  0  0  0  0  0  0  0  # atno 17395 bound_to 11000

$$$$
