AV-unprocessed.smi:3030|AV-procd|sdf|11536|dock6
  -GOLD-   2272016483D 1   1.00000     0.00000
 Structure written by MMmdl.
 52 53  0  0  0  0  0  0  0  0  1 V2000
  146.0616  142.5878  153.7770 C   0  0  0  0  0  0  0  0  0  0  0  0
  147.4240  142.8625  154.4237 C   0  0  0  0  0  0  0  0  0  0  0  0
  148.2016  141.6425  154.5843 N   0  0  0  0  0  0  0  0  0  0  0  0
  149.4443  141.6545  155.2091 C   0  0  0  0  0  0  0  0  0  0  0  0
  150.2370  140.5726  155.3328 C   0  0  0  0  0  0  0  0  0  0  0  0
  149.7890  139.2797  154.7770 C   0  0  0  0  0  0  0  0  0  0  0  0
  150.4876  138.2708  154.8738 O   0  0  0  0  0  0  0  0  0  0  0  0
  148.4633  139.2675  154.1035 C   0  0  0  0  0  0  0  0  0  0  0  0
  148.0418  138.0308  153.5871 N   0  0  0  0  0  0  0  0  0  0  0  0
  147.1414  137.1609  154.0802 C   0  0  0  0  0  0  0  0  0  0  0  0
  146.4759  137.3107  155.1045 O   0  0  0  0  0  0  0  0  0  0  0  0
  147.0481  136.0784  153.2951 N   0  0  0  0  0  0  0  0  0  0  0  0
  146.1770  134.9255  153.5309 C   0  0  1  0  0  0  0  0  0  0  0  0
  144.9647  134.9504  152.5757 C   0  0  0  0  0  0  0  0  0  0  0  0
  145.3573  134.6635  151.1156 C   0  0  2  0  0  0  0  0  0  0  0  0
  144.1325  134.6848  150.1901 C   0  0  0  0  0  0  0  0  0  0  0  0
  146.1058  133.3242  151.0316 C   0  0  0  0  0  0  0  0  0  0  0  0
  147.3333  133.2995  151.9557 C   0  0  0  0  0  0  0  0  0  0  0  0
  146.9708  133.5912  153.4340 C   0  0  1  0  0  0  0  0  0  0  0  0
  148.2123  133.5306  154.3773 C   0  0  0  0  0  0  0  0  0  0  0  0
  149.0763  132.2771  154.1403 C   0  0  0  0  0  0  0  0  0  0  0  0
  147.8297  133.5925  155.8690 C   0  0  0  0  0  0  0  0  0  0  0  0
  147.7652  140.4311  154.0517 C   0  0  0  0  0  0  0  0  0  0  0  0
  145.4940  143.5112  153.6623 H   0  0  0  0  0  0  0  0  0  0  0  0
  145.4672  141.9043  154.3844 H   0  0  0  0  0  0  0  0  0  0  0  0
  146.1783  142.1442  152.7878 H   0  0  0  0  0  0  0  0  0  0  0  0
  147.9849  143.5734  153.8158 H   0  0  0  0  0  0  0  0  0  0  0  0
  147.2845  143.3359  155.3963 H   0  0  0  0  0  0  0  0  0  0  0  0
  149.7343  142.6169  155.6055 H   0  0  0  0  0  0  0  0  0  0  0  0
  151.1939  140.6287  155.8304 H   0  0  0  0  0  0  0  0  0  0  0  0
  148.4822  137.7718  152.7161 H   0  0  0  0  0  0  0  0  0  0  0  0
  147.6309  136.0405  152.4718 H   0  0  0  0  0  0  0  0  0  0  0  0
  145.7715  135.0024  154.5405 H   0  0  0  0  0  0  0  0  0  0  0  0
  144.2404  134.2046  152.9057 H   0  0  0  0  0  0  0  0  0  0  0  0
  144.4544  135.9122  152.6438 H   0  0  0  0  0  0  0  0  0  0  0  0
  146.0330  135.4512  150.7792 H   0  0  0  0  0  0  0  0  0  0  0  0
  143.4103  133.9168  150.4687 H   0  0  0  0  0  0  0  0  0  0  0  0
  144.4212  134.5103  149.1533 H   0  0  0  0  0  0  0  0  0  0  0  0
  143.6256  135.6494  150.2325 H   0  0  0  0  0  0  0  0  0  0  0  0
  145.4338  132.5076  151.2998 H   0  0  0  0  0  0  0  0  0  0  0  0
  146.4212  133.1383  150.0044 H   0  0  0  0  0  0  0  0  0  0  0  0
  147.7959  132.3186  151.8587 H   0  0  0  0  0  0  0  0  0  0  0  0
  148.0703  134.0225  151.6036 H   0  0  0  0  0  0  0  0  0  0  0  0
  146.2907  132.8001  153.7542 H   0  0  0  0  0  0  0  0  0  0  0  0
  148.8457  134.3943  154.1716 H   0  0  0  0  0  0  0  0  0  0  0  0
  148.4859  131.3647  154.2296 H   0  0  0  0  0  0  0  0  0  0  0  0
  149.8878  132.2162  154.8660 H   0  0  0  0  0  0  0  0  0  0  0  0
  149.5450  132.2826  153.1571 H   0  0  0  0  0  0  0  0  0  0  0  0
  147.1311  132.7977  156.1321 H   0  0  0  0  0  0  0  0  0  0  0  0
  147.3731  134.5454  156.1351 H   0  0  0  0  0  0  0  0  0  0  0  0
  148.7082  133.4841  156.5058 H   0  0  0  0  0  0  0  0  0  0  0  0
  146.7901  140.5128  153.5993 H   0  0  0  0  0  0  0  0  0  0  0  0
  1  2  1  0  0  0  0
  1 24  1  0  0  0  0
  1 25  1  0  0  0  0
  1 26  1  0  0  0  0
  2  3  1  0  0  0  0
  2 27  1  0  0  0  0
  2 28  1  0  0  0  0
  3 23  1  0  0  0  0
  3  4  1  0  0  0  0
  4  5  2  0  0  0  0
  4 29  1  0  0  0  0
  5  6  1  0  0  0  0
  5 30  1  0  0  0  0
  6  7  2  0  0  0  0
  6  8  1  0  0  0  0
  8  9  1  0  0  0  0
  8 23  2  0  0  0  0
  9 10  1  0  0  0  0
  9 31  1  0  0  0  0
 10 11  2  0  0  0  0
 10 12  1  0  0  0  0
 12 13  1  0  0  0  0
 12 32  1  0  0  0  0
 13 19  1  0  0  0  0
 13 14  1  0  0  0  0
 13 33  1  0  0  0  0
 14 15  1  0  0  0  0
 14 34  1  0  0  0  0
 14 35  1  0  0  0  0
 15 16  1  0  0  0  0
 15 17  1  0  0  0  0
 15 36  1  0  0  0  0
 16 37  1  0  0  0  0
 16 38  1  0  0  0  0
 16 39  1  0  0  0  0
 17 18  1  0  0  0  0
 17 40  1  0  0  0  0
 17 41  1  0  0  0  0
 18 19  1  0  0  0  0
 18 42  1  0  0  0  0
 18 43  1  0  0  0  0
 19 20  1  0  0  0  0
 19 44  1  0  0  0  0
 20 21  1  0  0  0  0
 20 22  1  0  0  0  0
 20 45  1  0  0  0  0
 21 46  1  0  0  0  0
 21 47  1  0  0  0  0
 21 48  1  0  0  0  0
 22 49  1  0  0  0  0
 22 50  1  0  0  0  0
 22 51  1  0  0  0  0
 23 52  1  0  0  0  0
M  END
> <s_m_source_file>
AV-unprocessed.smi

> <i_m_source_file_index>
3030

> <i_lp_mmshare_version>
43012

> <i_f3d_flags>
0

> <s_epik_input>
W0NIM11bQ0gyXW4xW2NIXVtjSF1jKD1PKWMoW2NIXTEpW05IXUMoPU8pW05IXVtDQEBIXTJbQ0gyXVtDQEBIXShbQ0gzXSlbQ0gyXVtDSDJdW0NASF0yW0NIXShbQ0gzXSlbQ0gzXQ==

> <s_epik_cmdline>
J2VwaWtfcHl0aG9uJywgJy1waCcsICc3LjAnLCAnLXRuJywgJzgnLCAnLW1hJywgJzIwMCcsICctbWV0YWxfYmluZGluZycsICctaW1hZScsICc8aW5maWxlLm1hZT4nLCAnLW9tYWUnLCAnPG91dGZpbGUubWFlPic=

> <r_lp_tautomer_probability>
1

> <r_epik_Ionization_Penalty>
0.00147933

> <r_epik_Ionization_Penalty_Charging>
0.00145753

> <r_epik_Ionization_Penalty_Neutral>
2.17987e-05

> <r_epik_State_Penalty>
0.00097457

> <r_epik_Charging_Adjusted_Penalty>
0.0024321

> <i_epik_Tot_Q>
0

> <i_epik_Tot_abs_Q>
0

> <r_epik_Metal_State_Penalty>
-0

> <b_epik_Metal_Only>
0

> <s_lp_Force_Field>
OPLS_2005

> <r_lp_Energy>
8.95674

> <b_lp_Chiralities_Consistent>
1

> <s_lp_Variant>
AV-unprocessed.smi:3030-4

> <Gold.Version>
5.8.1

> <Gold.Id.Protein>
6NUR|6NUR_protein|mol2

> <Gold.PLP.Fitness>
38.9827

> <Gold.PLP.PLP>
-33.1440

> <Gold.PLP.part.hbond>
-1.4645

> <Gold.PLP.part.metal>
0.0000

> <Gold.PLP.part.buried>
3.2526

> <Gold.PLP.part.nonpolar>
-35.0123

> <Gold.PLP.part.repulsive>
0.2090

> <Gold.PLP.ligand.clash>
0.0000

> <Gold.PLP.ligand.torsion>
0.9497

> <Gold.PLP.Chemscore.Hbond>
1.5579

> <Gold.PLP.Chemscore.CHOScore>
1.0000

> <Gold.PLP.Chemscore.Metal>
0.0000

> <Gold.Chemscore.Hbonds>
donor molecule, donor type, donor heavy atom, donor atom, acceptor molecule, acceptor atom, score
      L1  H     9    31       P1  7948  0.77
      L1  H    12    32       P1  7948  0.81
      L1  C     4    29       P1  8028  1.00

> <Gold.PLP.Chemscore.Internal.Correction>
0.0645

> <Gold.Rescore>
     Score         DG    S(hbond)    S(metal)    S(lipo)     H(rot)  DE(clash)    DE(int)     intcor
     15.79     -18.10       1.84        0.00      83.20       1.27       1.35       0.95       ----

> <Gold.Chemscore.Fitness>
15.7925

> <Gold.Chemscore.DG>
-18.0966

> <Gold.Chemscore.ZeroCoef>
-5.4800

> <Gold.Chemscore.Hbond>
1.8351

> <Gold.Chemscore.Metal>
0.0000

> <Gold.Chemscore.Lipo>
83.2024

> <Gold.Chemscore.Internal_Hbond>
0.0000

> <Gold.Chemscore.DEClash>
1.3549

> <Gold.Chemscore.DEInternal>
0.9491

> <Gold.Chemscore.Rot>
1.2685

> <Gold.Chemscore.Internal.Correction>
   9.000000E+99

> <Gold.Chemscore.Hbonds>
donor molecule, donor type, donor heavy atom, donor atom, acceptor molecule, acceptor atom, score
      L1  H     9    31       P1  7948  0.78
      L1  H    12    32       P1  7948  0.76

> <Gold.Chemscore.Hbond.Weighted>
-6.1293

> <Gold.Chemscore.Metal.Weighted>
-0.0000

> <Gold.Chemscore.Lipo.Weighted>
-9.7347

> <Gold.Chemscore.Internal_Hbond.Weighted>
0.0000

> <Gold.Chemscore.DEClash.Weighted>
1.3549

> <Gold.Chemscore.DEInternal.Weighted>
0.9491

> <Gold.Chemscore.Rot.Weighted>
3.2474

> <Gold.Chemscore.Internal.Correction.Weighted>
   9.000000E+99

> <Gold.Protein.RotatedTorsions>
[ 6907 6896 6895 6894 ] final  125.04 input  -60.11 | X-H torsion
[ 7974 7965 7964 7962 ] final   50.36 input  175.53 | X-H torsion
[ 8008 7997 7996 7995 ] final  -86.99 input   59.86 | X-H torsion
[ 10167 10162 10161 10158 ] final -179.56 input  -65.29 | X-H torsion
[ 10718 10713 10712 10709 ] final  -29.51 input   66.30 | X-H torsion
[ 10763 10752 10751 10750 ] final  177.87 input  -60.55 | X-H torsion
[ 11005 11000 10999 10996 ] final -125.04 input  -57.11 | X-H torsion

> <Gold.Protein.ActiveResidues>
 VAL166  LYS551  ARG553  GLY616  TRP617  ASP618  TYR619  PRO620  LYS621  CYS622 
 ASP623  PHE694  ASN695  SER759  ASP760  ASP761  ALA762  ILE779  LEU786  VAL792 
 PHE793  MET794  SER795  GLU796  ALA797  LYS798  CYS799  TRP800  GLU811  SER814 

> <Gold.Protein.RotatedAtoms>
  152.4027  133.6841  159.6329 H   0  0  0  0  0  0  0  0  0  0  0  0  # atno 6907 bound_to 6896
  150.7916  133.8763  159.3282 H   0  0  0  0  0  0  0  0  0  0  0  0  # atno 6908 bound_to 6896
  151.6525  135.1001  160.0215 H   0  0  0  0  0  0  0  0  0  0  0  0  # atno 6909 bound_to 6896
  146.0020  139.4449  143.0009 H   0  0  0  0  0  0  0  0  0  0  0  0  # atno 7974 bound_to 7965
  154.6582  140.0571  157.0032 H   0  0  0  0  0  0  0  0  0  0  0  0  # atno 8008 bound_to 7997
  155.1268  140.3253  155.4465 H   0  0  0  0  0  0  0  0  0  0  0  0  # atno 8009 bound_to 7997
  156.2606  140.1988  156.6389 H   0  0  0  0  0  0  0  0  0  0  0  0  # atno 8010 bound_to 7997
  139.5381  144.2440  152.0837 H   0  0  0  0  0  0  0  0  0  0  0  0  # atno 10167 bound_to 10162
  156.4116  130.4409  149.7248 H   0  0  0  0  0  0  0  0  0  0  0  0  # atno 10718 bound_to 10713
  154.5001  135.2783  155.1427 H   0  0  0  0  0  0  0  0  0  0  0  0  # atno 10763 bound_to 10752
  154.3064  135.6238  153.5450 H   0  0  0  0  0  0  0  0  0  0  0  0  # atno 10764 bound_to 10752
  152.9901  135.5709  154.5442 H   0  0  0  0  0  0  0  0  0  0  0  0  # atno 10765 bound_to 10752
  140.9794  134.0695  157.3782 H   0  0  0  0  0  0  0  0  0  0  0  0  # atno 11005 bound_to 11000
  145.7473  140.9986  143.1269 LP  0  0  0  0  0  0  0  0  0  0  0  0  # atno 17320 bound_to 7965
  144.6922  139.9172  143.7466 LP  0  0  0  0  0  0  0  0  0  0  0  0  # atno 17321 bound_to 7965
  140.1914  144.4748  150.6477 LP  0  0  0  0  0  0  0  0  0  0  0  0  # atno 17342 bound_to 10162
  140.6597  143.2248  151.5884 LP  0  0  0  0  0  0  0  0  0  0  0  0  # atno 17343 bound_to 10162
  156.4225  130.7775  151.2793 LP  0  0  0  0  0  0  0  0  0  0  0  0  # atno 17370 bound_to 10713
  157.7507  131.0178  150.3602 LP  0  0  0  0  0  0  0  0  0  0  0  0  # atno 17371 bound_to 10713
  139.8944  135.0135  156.6947 LP  0  0  0  0  0  0  0  0  0  0  0  0  # atno 17394 bound_to 11000
  140.7210  133.9141  155.8146 LP  0  0  0  0  0  0  0  0  0  0  0  0  # atno 17395 bound_to 11000

$$$$
