AV-unprocessed.smi:2845|AV-procd|sdf|10949|dock6
  -GOLD-   2272015403D 1   1.00000     0.00000
 Structure written by MMmdl.
 43 45  0  0  0  0  0  0  0  0  2 V2000
  152.2122  144.8085  160.1868 C   0  0  0  0  0  0  0  0  0  0  0  0
  152.0131  143.6458  159.2295 C   0  0  0  0  0  0  0  0  0  0  0  0
  151.1491  143.8217  158.1251 C   0  0  0  0  0  0  0  0  0  0  0  0
  150.9860  142.7393  157.2685 C   0  0  0  0  0  0  0  0  0  0  0  0
  150.2137  142.5956  156.1140 N   0  3  0  0  0  0  0  0  0  0  0  0
  150.3766  141.3405  155.6114 C   0  0  0  0  0  0  0  0  0  0  0  0
  151.2431  140.6806  156.4268 N   0  0  0  0  0  0  0  0  0  0  0  0
  151.7570  139.3063  156.3344 C   0  0  0  0  0  0  0  0  0  0  0  0
  150.7713  138.2565  156.8835 C   0  0  2  0  0  0  0  0  0  0  0  0
  149.4395  138.6684  156.6386 O   0  0  0  0  0  0  0  0  0  0  0  0
  150.9747  138.0160  158.3918 C   0  0  0  0  0  0  0  0  0  0  0  0
  149.9350  137.1827  158.9687 N   0  0  0  0  0  0  0  0  0  0  0  0
  149.2603  136.1530  158.4488 C   0  0  0  0  0  0  0  0  0  0  0  0
  148.3608  135.6275  159.2703 N   0  0  0  0  0  0  0  0  0  0  0  0
  148.5581  136.4396  160.3488 C   0  0  0  0  0  0  0  0  0  0  0  0
  147.5841  136.2451  161.8740 S   0  0  2  0  0  0  0  0  0  0  0  0
  146.7300  134.6867  161.3437 C   0  0  0  0  0  0  0  0  0  0  0  0
  146.5362  137.3596  161.8498 O   0  0  0  0  0  0  0  0  0  0  0  0
  149.4846  137.3884  160.2289 N   0  0  0  0  0  0  0  0  0  0  0  0
  151.6488  141.5142  157.4764 C   0  0  0  0  0  0  0  0  0  0  0  0
  152.5029  141.3243  158.5605 C   0  0  0  0  0  0  0  0  0  0  0  0
  152.6800  142.4120  159.4451 C   0  0  0  0  0  0  0  0  0  0  0  0
  153.6024  142.2315  160.6387 C   0  0  0  0  0  0  0  0  0  0  0  0
  151.6506  145.6876  159.8696 H   0  0  0  0  0  0  0  0  0  0  0  0
  153.2649  145.0872  160.2377 H   0  0  0  0  0  0  0  0  0  0  0  0
  151.8752  144.5410  161.1886 H   0  0  0  0  0  0  0  0  0  0  0  0
  150.6365  144.7574  157.9556 H   0  0  0  0  0  0  0  0  0  0  0  0
  149.9044  140.9415  154.7253 H   0  0  0  0  0  0  0  0  0  0  0  0
  151.9551  139.1104  155.2799 H   0  0  0  0  0  0  0  0  0  0  0  0
  152.7212  139.2481  156.8400 H   0  0  0  0  0  0  0  0  0  0  0  0
  150.9268  137.3164  156.3526 H   0  0  0  0  0  0  0  0  0  0  0  0
  148.8563  138.0978  157.1164 H   0  0  0  0  0  0  0  0  0  0  0  0
  151.9335  137.5262  158.5664 H   0  0  0  0  0  0  0  0  0  0  0  0
  151.0070  138.9644  158.9308 H   0  0  0  0  0  0  0  0  0  0  0  0
  149.4279  135.7836  157.4476 H   0  0  0  0  0  0  0  0  0  0  0  0
  147.3769  134.0847  160.7052 H   0  0  0  0  0  0  0  0  0  0  0  0
  145.8210  134.9245  160.7913 H   0  0  0  0  0  0  0  0  0  0  0  0
  146.4599  134.0928  162.2165 H   0  0  0  0  0  0  0  0  0  0  0  0
  153.0060  140.3838  158.7290 H   0  0  0  0  0  0  0  0  0  0  0  0
  154.0190  141.2242  160.6729 H   0  0  0  0  0  0  0  0  0  0  0  0
  153.0609  142.3987  161.5701 H   0  0  0  0  0  0  0  0  0  0  0  0
  154.4340  142.9347  160.5895 H   0  0  0  0  0  0  0  0  0  0  0  0
  149.6180  143.3002  155.6983 H   0  0  0  0  0  0  0  0  0  0  0  0
  1  2  1  0  0  0  0
  1 24  1  0  0  0  0
  1 25  1  0  0  0  0
  1 26  1  0  0  0  0
  2 22  1  0  0  0  0
  2  3  2  0  0  0  0
  3  4  1  0  0  0  0
  3 27  1  0  0  0  0
  4 20  2  0  0  0  0
  4  5  1  0  0  0  0
  5  6  2  0  0  0  0
  5 43  1  0  0  0  0
  6  7  1  0  0  0  0
  6 28  1  0  0  0  0
  7  8  1  0  0  0  0
  7 20  1  0  0  0  0
  8  9  1  0  0  0  0
  8 29  1  0  0  0  0
  8 30  1  0  0  0  0
  9 10  1  0  0  0  0
  9 11  1  0  0  0  0
  9 31  1  0  0  0  0
 10 32  1  0  0  0  0
 11 12  1  0  0  0  0
 11 33  1  0  0  0  0
 11 34  1  0  0  0  0
 12 19  1  0  0  0  0
 12 13  1  0  0  0  0
 13 14  2  0  0  0  0
 13 35  1  0  0  0  0
 14 15  1  0  0  0  0
 15 16  1  0  0  0  0
 15 19  2  0  0  0  0
 16 17  1  0  0  0  0
 16 18  2  0  0  0  0
 17 36  1  0  0  0  0
 17 37  1  0  0  0  0
 17 38  1  0  0  0  0
 20 21  1  0  0  0  0
 21 22  2  0  0  0  0
 21 39  1  0  0  0  0
 22 23  1  0  0  0  0
 23 40  1  0  0  0  0
 23 41  1  0  0  0  0
 23 42  1  0  0  0  0
M  CHG  1   5   1
M  END
> <s_m_source_file>
AV-unprocessed.smi

> <i_m_source_file_index>
2845

> <i_lp_mmshare_version>
43012

> <i_f3d_flags>
0

> <s_epik_input>
W0NIM11jKFtjSF0xKWMoW0NIM10pW2NIXWMoYzEyKW4oW2NIXW4yKVtDSDJdW0NASF0oW09IXSlbQ0gyXW4zW2NIXW5jKG4zKVtTQF0oPU8pW0NIM10=

> <s_epik_cmdline>
J2VwaWtfcHl0aG9uJywgJy1waCcsICc3LjAnLCAnLXRuJywgJzgnLCAnLW1hJywgJzIwMCcsICctbWV0YWxfYmluZGluZycsICctaW1hZScsICc8aW5maWxlLm1hZT4nLCAnLW9tYWUnLCAnPG91dGZpbGUubWFlPic=

> <r_lp_tautomer_probability>
1

> <r_epik_Ionization_Penalty>
1.12076

> <r_epik_Ionization_Penalty_Charging>
1.12075

> <r_epik_Ionization_Penalty_Neutral>
1.54566e-06

> <r_epik_State_Penalty>
1.17957

> <r_epik_Charging_Adjusted_Penalty>
2.30033

> <i_epik_Tot_Q>
1

> <i_epik_Tot_abs_Q>
1

> <r_epik_Metal_State_Penalty>
1.26402

> <b_epik_Metal_Only>
0

> <s_lp_Force_Field>
OPLS_2005

> <r_lp_Energy>
14.9183

> <b_lp_Chiralities_Consistent>
1

> <s_lp_Variant>
AV-unprocessed.smi:2845-7

> <Gold.Version>
5.8.1

> <Gold.Id.Protein>
6NUR|6NUR_protein|mol2

> <Gold.PLP.Fitness>
53.1638

> <Gold.PLP.PLP>
-45.6333

> <Gold.PLP.part.hbond>
-3.0050

> <Gold.PLP.part.metal>
0.0000

> <Gold.PLP.part.buried>
-5.5279

> <Gold.PLP.part.nonpolar>
-37.0125

> <Gold.PLP.part.repulsive>
0.1238

> <Gold.PLP.ligand.clash>
0.0000

> <Gold.PLP.ligand.torsion>
1.7479

> <Gold.PLP.Chemscore.Hbond>
3.3360

> <Gold.PLP.Chemscore.CHOScore>
0.0000

> <Gold.PLP.Chemscore.Metal>
0.0000

> <Gold.Chemscore.Hbonds>
donor molecule, donor type, donor heavy atom, donor atom, acceptor molecule, acceptor atom, score
      L1  H     5    43       P1  8028  2.00
      P1  H  6931  6943       L1    19  0.24
      P1  H  6934  6947       L1    18  0.91

> <Gold.PLP.Chemscore.Internal.Correction>
1.0183

> <Gold.Rescore>
     Score         DG    S(hbond)    S(metal)    S(lipo)     H(rot)  DE(clash)    DE(int)     intcor
     13.98     -16.78       1.95        0.00     101.43       2.77       0.07       2.73       ----

> <Gold.Chemscore.Fitness>
13.9759

> <Gold.Chemscore.DG>
-16.7762

> <Gold.Chemscore.ZeroCoef>
-5.4800

> <Gold.Chemscore.Hbond>
1.9506

> <Gold.Chemscore.Metal>
0.0000

> <Gold.Chemscore.Lipo>
101.4323

> <Gold.Chemscore.Internal_Hbond>
0.0000

> <Gold.Chemscore.DEClash>
0.0743

> <Gold.Chemscore.DEInternal>
2.7260

> <Gold.Chemscore.Rot>
2.7681

> <Gold.Chemscore.Internal.Correction>
   9.000000E+99

> <Gold.Chemscore.Hbonds>
donor molecule, donor type, donor heavy atom, donor atom, acceptor molecule, acceptor atom, score
      L1  H     5    43       P1  8028  0.96
      P1  H  6931  6943       L1    19  0.04
      P1  H  6934  6947       L1    18  0.76

> <Gold.Chemscore.Hbond.Weighted>
-6.5148

> <Gold.Chemscore.Metal.Weighted>
-0.0000

> <Gold.Chemscore.Lipo.Weighted>
-11.8676

> <Gold.Chemscore.Internal_Hbond.Weighted>
0.0000

> <Gold.Chemscore.DEClash.Weighted>
0.0743

> <Gold.Chemscore.DEInternal.Weighted>
2.7260

> <Gold.Chemscore.Rot.Weighted>
7.0863

> <Gold.Chemscore.Internal.Correction.Weighted>
   9.000000E+99

> <Gold.Protein.RotatedTorsions>
[ 6907 6896 6895 6894 ] final  -78.96 input  -60.11 | X-H torsion
[ 7974 7965 7964 7962 ] final   -8.26 input  175.53 | X-H torsion
[ 8008 7997 7996 7995 ] final -168.46 input   59.86 | X-H torsion
[ 10167 10162 10161 10158 ] final  -60.88 input  -65.29 | X-H torsion
[ 10718 10713 10712 10709 ] final   10.76 input   66.30 | X-H torsion
[ 10763 10752 10751 10750 ] final  -47.49 input  -60.55 | X-H torsion
[ 11005 11000 10999 10996 ] final    9.33 input  -57.11 | X-H torsion

> <Gold.Protein.ActiveResidues>
 VAL166  LYS551  ARG553  GLY616  TRP617  ASP618  TYR619  PRO620  LYS621  CYS622 
 ASP623  PHE694  ASN695  SER759  ASP760  ASP761  ALA762  ILE779  LEU786  VAL792 
 PHE793  MET794  SER795  GLU796  ALA797  LYS798  CYS799  TRP800  GLU811  SER814 

> <Gold.Protein.RotatedAtoms>
  150.6960  134.4193  159.5197 H   0  0  0  0  0  0  0  0  0  0  0  0  # atno 6907 bound_to 6896
  152.1939  134.8645  160.0524 H   0  0  0  0  0  0  0  0  0  0  0  0  # atno 6908 bound_to 6896
  151.9591  133.3654  159.4065 H   0  0  0  0  0  0  0  0  0  0  0  0  # atno 6909 bound_to 6896
  146.2285  140.2442  142.8344 H   0  0  0  0  0  0  0  0  0  0  0  0  # atno 7974 bound_to 7965
  155.8917  140.1026  157.1414 H   0  0  0  0  0  0  0  0  0  0  0  0  # atno 8008 bound_to 7997
  154.4015  140.1309  156.4388 H   0  0  0  0  0  0  0  0  0  0  0  0  # atno 8009 bound_to 7997
  155.7526  140.3465  155.5160 H   0  0  0  0  0  0  0  0  0  0  0  0  # atno 8010 bound_to 7997
  140.6042  143.2369  151.5859 H   0  0  0  0  0  0  0  0  0  0  0  0  # atno 10167 bound_to 10162
  156.9856  130.6022  149.5681 H   0  0  0  0  0  0  0  0  0  0  0  0  # atno 10718 bound_to 10713
  154.0622  135.6616  153.4813 H   0  0  0  0  0  0  0  0  0  0  0  0  # atno 10763 bound_to 10752
  153.0422  135.5137  154.7648 H   0  0  0  0  0  0  0  0  0  0  0  0  # atno 10764 bound_to 10752
  154.6688  135.3026  154.9737 H   0  0  0  0  0  0  0  0  0  0  0  0  # atno 10765 bound_to 10752
  140.5269  134.0504  155.7861 H   0  0  0  0  0  0  0  0  0  0  0  0  # atno 11005 bound_to 11000
  144.9461  140.8129  143.5600 LP  0  0  0  0  0  0  0  0  0  0  0  0  # atno 17320 bound_to 7965
  145.2398  139.2077  143.4998 LP  0  0  0  0  0  0  0  0  0  0  0  0  # atno 17321 bound_to 7965
  139.5313  144.2908  152.1153 LP  0  0  0  0  0  0  0  0  0  0  0  0  # atno 17342 bound_to 10162
  140.2095  144.4577  150.6393 LP  0  0  0  0  0  0  0  0  0  0  0  0  # atno 17343 bound_to 10162
  156.0227  130.5322  150.8321 LP  0  0  0  0  0  0  0  0  0  0  0  0  # atno 17370 bound_to 10713
  157.5495  131.0943  150.9715 LP  0  0  0  0  0  0  0  0  0  0  0  0  # atno 17371 bound_to 10713
  141.1303  133.9313  157.2549 LP  0  0  0  0  0  0  0  0  0  0  0  0  # atno 17394 bound_to 11000
  139.9575  135.0162  156.9169 LP  0  0  0  0  0  0  0  0  0  0  0  0  # atno 17395 bound_to 11000

$$$$
