AV-unprocessed.smi:278|AV-procd|sdf|2094|dock4
  -GOLD-   2262021373D 1   1.00000     0.00000
 Structure written by MMmdl.
 50 54  0  0  0  0  0  0  0  0  1 V2000
  144.6119  137.3165  162.0775 O   0  0  0  0  0  0  0  0  0  0  0  0
  145.8442  136.8605  161.4166 S   0  0  0  0  0  0  0  0  0  0  0  0
  146.3219  137.5109  160.1864 O   0  0  0  0  0  0  0  0  0  0  0  0
  147.2058  136.8350  162.6467 C   0  0  0  0  0  0  0  0  0  0  0  0
  147.4006  135.3657  163.0436 C   0  0  0  0  0  0  0  0  0  0  0  0
  146.9927  134.4649  161.8635 C   0  0  2  0  0  0  0  0  0  0  0  0
  148.0188  134.4256  160.7257 C   0  0  0  0  0  0  0  0  0  0  0  0
  147.2398  134.1815  159.5201 N   0  0  0  0  0  0  0  0  0  0  0  0
  147.8155  134.2110  158.2895 C   0  0  0  0  0  0  0  0  0  0  0  0
  149.1275  134.5551  158.1905 N   0  0  0  0  0  0  0  0  0  0  0  0
  149.7332  134.5935  157.0004 C   0  0  0  0  0  0  0  0  0  0  0  0
  149.2256  134.3225  155.7974 N   0  0  0  0  0  0  0  0  0  0  0  0
  147.9134  133.9639  155.8866 C   0  0  0  0  0  0  0  0  0  0  0  0
  147.1368  133.8814  157.0785 C   0  0  0  0  0  0  0  0  0  0  0  0
  145.8455  133.4693  156.7637 N   0  0  0  0  0  0  0  0  0  0  0  0
  145.8574  133.3248  155.4671 C   0  0  0  0  0  0  0  0  0  0  0  0
  147.0608  133.5989  154.8605 N   0  0  0  0  0  0  0  0  0  0  0  0
  147.3618  133.5150  153.4427 C   0  0  0  0  0  0  0  0  0  0  0  0
  146.3148  134.2444  152.5784 C   0  0  1  0  0  0  0  0  0  0  0  0
  146.6178  135.6238  152.4807 O   0  0  0  0  0  0  0  0  0  0  0  0
  146.1640  133.6320  151.1716 C   0  0  1  0  0  0  0  0  0  0  0  0
  145.9871  132.1044  151.1222 C   0  0  0  0  0  0  0  0  0  0  0  0
  144.6600  131.9182  150.4085 C   0  0  0  0  0  0  0  0  0  0  0  0
  144.5252  133.2082  149.6103 C   0  0  0  0  0  0  0  0  0  0  0  0
  145.0380  134.1880  150.4978 O   0  0  0  0  0  0  0  0  0  0  0  0
  145.8595  134.6065  159.7118 C   0  0  0  0  0  0  0  0  0  0  0  0
  145.7472  135.0346  161.1823 C   0  0  2  0  0  0  0  0  0  0  0  0
  146.7990  133.4456  162.2006 H   0  0  0  0  0  0  0  0  0  0  0  0
  144.8264  134.6830  161.6484 H   0  0  0  0  0  0  0  0  0  0  0  0
  148.1010  137.2281  162.1643 H   0  0  0  0  0  0  0  0  0  0  0  0
  146.9603  137.4754  163.4939 H   0  0  0  0  0  0  0  0  0  0  0  0
  148.4207  135.1683  163.3746 H   0  0  0  0  0  0  0  0  0  0  0  0
  146.7469  135.1448  163.8881 H   0  0  0  0  0  0  0  0  0  0  0  0
  148.5388  135.3796  160.6301 H   0  0  0  0  0  0  0  0  0  0  0  0
  148.7635  133.6455  160.8863 H   0  0  0  0  0  0  0  0  0  0  0  0
  150.7742  134.8808  157.0148 H   0  0  0  0  0  0  0  0  0  0  0  0
  144.9851  133.0067  154.9149 H   0  0  0  0  0  0  0  0  0  0  0  0
  148.3572  133.9279  153.2736 H   0  0  0  0  0  0  0  0  0  0  0  0
  147.4101  132.4608  153.1669 H   0  0  0  0  0  0  0  0  0  0  0  0
  145.3473  134.1748  153.0774 H   0  0  0  0  0  0  0  0  0  0  0  0
  147.5153  135.7112  152.1978 H   0  0  0  0  0  0  0  0  0  0  0  0
  147.0453  133.8918  150.5826 H   0  0  0  0  0  0  0  0  0  0  0  0
  146.7946  131.6566  150.5416 H   0  0  0  0  0  0  0  0  0  0  0  0
  145.9896  131.6305  152.1044 H   0  0  0  0  0  0  0  0  0  0  0  0
  144.6308  131.0246  149.7847 H   0  0  0  0  0  0  0  0  0  0  0  0
  143.8530  131.8510  151.1392 H   0  0  0  0  0  0  0  0  0  0  0  0
  145.1368  133.1750  148.7073 H   0  0  0  0  0  0  0  0  0  0  0  0
  143.4954  133.4229  149.3242 H   0  0  0  0  0  0  0  0  0  0  0  0
  145.5705  135.4059  159.0293 H   0  0  0  0  0  0  0  0  0  0  0  0
  145.2078  133.7538  159.5200 H   0  0  0  0  0  0  0  0  0  0  0  0
  1  2  2  0  0  0  0
  2 27  1  0  0  0  0
  2  3  2  0  0  0  0
  2  4  1  0  0  0  0
  4  5  1  0  0  0  0
  4 30  1  0  0  0  0
  4 31  1  0  0  0  0
  5  6  1  0  0  0  0
  5 32  1  0  0  0  0
  5 33  1  0  0  0  0
  6 28  1  0  0  0  0
  6 27  1  0  0  0  0
  6  7  1  0  0  0  0
  7  8  1  0  0  0  0
  7 34  1  0  0  0  0
  7 35  1  0  0  0  0
  8  9  1  0  0  0  0
  8 26  1  0  0  0  0
  9 14  1  0  0  0  0
  9 10  2  0  0  0  0
 10 11  1  0  0  0  0
 11 12  2  0  0  0  0
 11 36  1  0  0  0  0
 12 13  1  0  0  0  0
 13 17  1  0  0  0  0
 13 14  2  0  0  0  0
 14 15  1  0  0  0  0
 15 16  2  0  0  0  0
 16 17  1  0  0  0  0
 16 37  1  0  0  0  0
 17 18  1  0  0  0  0
 18 19  1  0  0  0  0
 18 38  1  0  0  0  0
 18 39  1  0  0  0  0
 19 20  1  0  0  0  0
 19 21  1  0  0  0  0
 19 40  1  0  0  0  0
 20 41  1  0  0  0  0
 21 25  1  0  0  0  0
 21 22  1  0  0  0  0
 21 42  1  0  0  0  0
 22 23  1  0  0  0  0
 22 43  1  0  0  0  0
 22 44  1  0  0  0  0
 23 24  1  0  0  0  0
 23 45  1  0  0  0  0
 23 46  1  0  0  0  0
 24 25  1  0  0  0  0
 24 47  1  0  0  0  0
 24 48  1  0  0  0  0
 26 27  1  0  0  0  0
 26 49  1  0  0  0  0
 26 50  1  0  0  0  0
 27 29  1  0  0  0  0
M  END
> <s_m_source_file>
AV-unprocessed.smi

> <i_m_source_file_index>
278

> <i_lp_mmshare_version>
43012

> <i_f3d_flags>
0

> <s_epik_input>
W0NIMl0xW0NIMl1TKD1PKSg9TylbQ0BASF0oW0NAQEhdMTIpW0NIMl1OKFtDSDJdMiljKG5bY0hdbjMpYyhjMzQpbltjSF1uNFtDSDJdW0NASF0oW09IXSlbQ0BASF01W0NIMl1bQ0gyXVtDSDJdTzU=

> <s_epik_cmdline>
J2VwaWtfcHl0aG9uJywgJy1waCcsICc3LjAnLCAnLXRuJywgJzgnLCAnLW1hJywgJzIwMCcsICctbWV0YWxfYmluZGluZycsICctaW1hZScsICc8aW5maWxlLm1hZT4nLCAnLW9tYWUnLCAnPG91dGZpbGUubWFlPic=

> <r_lp_tautomer_probability>
1

> <r_epik_Ionization_Penalty>
0.000636766

> <r_epik_Ionization_Penalty_Charging>
0

> <r_epik_Ionization_Penalty_Neutral>
0.000636766

> <r_epik_State_Penalty>
0.000329976

> <r_epik_Charging_Adjusted_Penalty>
0.000329976

> <i_epik_Tot_Q>
0

> <i_epik_Tot_abs_Q>
0

> <r_epik_Metal_State_Penalty>
-0

> <b_epik_Metal_Only>
0

> <s_lp_Force_Field>
OPLS_2005

> <r_lp_Energy>
51.0774

> <b_lp_Chiralities_Consistent>
1

> <s_lp_Variant>
AV-unprocessed.smi:278-8

> <Gold.Version>
5.8.1

> <Gold.Id.Protein>
6NUR|6NUR_protein|mol2

> <Gold.PLP.Fitness>
46.6917

> <Gold.PLP.PLP>
-35.9636

> <Gold.PLP.part.hbond>
-3.0000

> <Gold.PLP.part.metal>
0.0000

> <Gold.PLP.part.buried>
-5.8368

> <Gold.PLP.part.nonpolar>
-27.3669

> <Gold.PLP.part.repulsive>
0.2546

> <Gold.PLP.ligand.clash>
0.0000

> <Gold.PLP.ligand.torsion>
0.7701

> <Gold.PLP.Chemscore.Hbond>
3.0000

> <Gold.PLP.Chemscore.CHOScore>
1.0000

> <Gold.PLP.Chemscore.Metal>
0.0000

> <Gold.Chemscore.Hbonds>
donor molecule, donor type, donor heavy atom, donor atom, acceptor molecule, acceptor atom, score
      L1  H    20    41       P1  7948  1.00
      P1  H  6896  6909       L1    10  1.00
      P1  H  6934  6947       L1     3  1.00
      L1  C    16    37       P1 10957  0.78

> <Gold.PLP.Chemscore.Internal.Correction>
0.2684

> <Gold.Rescore>
     Score         DG    S(hbond)    S(metal)    S(lipo)     H(rot)  DE(clash)    DE(int)     intcor
     17.55     -18.57       2.58        0.00      85.01       2.13       0.17       0.85       ----

> <Gold.Chemscore.Fitness>
17.5485

> <Gold.Chemscore.DG>
-18.5697

> <Gold.Chemscore.ZeroCoef>
-5.4800

> <Gold.Chemscore.Hbond>
2.5773

> <Gold.Chemscore.Metal>
0.0000

> <Gold.Chemscore.Lipo>
85.0092

> <Gold.Chemscore.Internal_Hbond>
0.0000

> <Gold.Chemscore.DEClash>
0.1696

> <Gold.Chemscore.DEInternal>
0.8516

> <Gold.Chemscore.Rot>
2.1346

> <Gold.Chemscore.Internal.Correction>
   9.000000E+99

> <Gold.Chemscore.Hbonds>
donor molecule, donor type, donor heavy atom, donor atom, acceptor molecule, acceptor atom, score
      L1  H    20    41       P1  7948  0.94
      P1  H  6896  6909       L1    10  0.29
      P1  H  6934  6947       L1     3  0.26

> <Gold.Chemscore.Hbond.Weighted>
-8.6083

> <Gold.Chemscore.Metal.Weighted>
-0.0000

> <Gold.Chemscore.Lipo.Weighted>
-9.9461

> <Gold.Chemscore.Internal_Hbond.Weighted>
0.0000

> <Gold.Chemscore.DEClash.Weighted>
0.1696

> <Gold.Chemscore.DEInternal.Weighted>
0.8516

> <Gold.Chemscore.Rot.Weighted>
5.4646

> <Gold.Chemscore.Internal.Correction.Weighted>
   9.000000E+99

> <Gold.Protein.RotatedTorsions>
[ 6907 6896 6895 6894 ] final   20.41 input  -60.11 | X-H torsion
[ 7974 7965 7964 7962 ] final  122.57 input  175.53 | X-H torsion
[ 8008 7997 7996 7995 ] final  -13.49 input   59.86 | X-H torsion
[ 10167 10162 10161 10158 ] final -168.54 input  -65.29 | X-H torsion
[ 10718 10713 10712 10709 ] final -158.58 input   66.30 | X-H torsion
[ 10763 10752 10751 10750 ] final  -18.76 input  -60.55 | X-H torsion
[ 11005 11000 10999 10996 ] final  -75.57 input  -57.11 | X-H torsion

> <Gold.Protein.ActiveResidues>
 VAL166  LYS551  ARG553  GLY616  TRP617  ASP618  TYR619  PRO620  LYS621  CYS622 
 ASP623  PHE694  ASN695  SER759  ASP760  ASP761  ALA762  ILE779  LEU786  VAL792 
 PHE793  MET794  SER795  GLU796  ALA797  LYS798  CYS799  TRP800  GLU811  SER814 

> <Gold.Protein.RotatedAtoms>
  151.8960  135.0397  160.0501 H   0  0  0  0  0  0  0  0  0  0  0  0  # atno 6907 bound_to 6896
  152.2397  133.5121  159.5271 H   0  0  0  0  0  0  0  0  0  0  0  0  # atno 6908 bound_to 6896
  150.7050  134.1021  159.4012 H   0  0  0  0  0  0  0  0  0  0  0  0  # atno 6909 bound_to 6896
  145.1060  139.3485  143.4787 H   0  0  0  0  0  0  0  0  0  0  0  0  # atno 7974 bound_to 7965
  154.5288  140.2248  155.8841 H   0  0  0  0  0  0  0  0  0  0  0  0  # atno 8008 bound_to 7997
  156.1742  140.3115  155.8992 H   0  0  0  0  0  0  0  0  0  0  0  0  # atno 8009 bound_to 7997
  155.3495  140.0455  157.3036 H   0  0  0  0  0  0  0  0  0  0  0  0  # atno 8010 bound_to 7997
  139.5979  144.1074  152.1709 H   0  0  0  0  0  0  0  0  0  0  0  0  # atno 10167 bound_to 10162
  156.5561  130.8626  151.2795 H   0  0  0  0  0  0  0  0  0  0  0  0  # atno 10718 bound_to 10713
  153.5943  135.7001  153.5410 H   0  0  0  0  0  0  0  0  0  0  0  0  # atno 10763 bound_to 10752
  153.3151  135.4090  155.1369 H   0  0  0  0  0  0  0  0  0  0  0  0  # atno 10764 bound_to 10752
  154.8594  135.3682  154.5476 H   0  0  0  0  0  0  0  0  0  0  0  0  # atno 10765 bound_to 10752
  141.1646  133.6951  156.7537 H   0  0  0  0  0  0  0  0  0  0  0  0  # atno 11005 bound_to 11000
  146.3528  140.0958  142.8610 LP  0  0  0  0  0  0  0  0  0  0  0  0  # atno 17320 bound_to 7965
  145.0901  140.9278  143.4774 LP  0  0  0  0  0  0  0  0  0  0  0  0  # atno 17321 bound_to 7965
  140.0663  144.5816  150.7225 LP  0  0  0  0  0  0  0  0  0  0  0  0  # atno 17342 bound_to 10162
  140.7226  143.2604  151.4227 LP  0  0  0  0  0  0  0  0  0  0  0  0  # atno 17343 bound_to 10162
  157.7378  130.9802  150.2214 LP  0  0  0  0  0  0  0  0  0  0  0  0  # atno 17370 bound_to 10713
  156.2841  130.3737  149.7906 LP  0  0  0  0  0  0  0  0  0  0  0  0  # atno 17371 bound_to 10713
  140.2585  134.8485  157.3736 LP  0  0  0  0  0  0  0  0  0  0  0  0  # atno 17394 bound_to 11000
  140.1634  134.4700  155.7879 LP  0  0  0  0  0  0  0  0  0  0  0  0  # atno 17395 bound_to 11000

$$$$
