AV-unprocessed.smi:1429|AV-procd|sdf|5821|dock10
  -GOLD-   22720 5473D 1   1.00000     0.00000
 Structure written by MMmdl.
 29 30  0  0  0  0  0  0  0  0  2 V2000
  152.4052  143.1861  161.1264 C   0  0  0  0  0  0  0  0  0  0  0  0
  152.2829  142.2831  159.9473 C   0  0  0  0  0  0  0  0  0  0  0  0
  151.1936  142.2484  159.1763 N   0  0  0  0  0  0  0  0  0  0  0  0
  151.3145  141.3319  158.1419 N   0  0  0  0  0  0  0  0  0  0  0  0
  152.4861  140.6803  158.1505 C   0  0  0  0  0  0  0  0  0  0  0  0
  152.7999  139.7539  157.2297 N   0  5  0  0  0  0  0  0  0  0  0  0
  151.9244  139.4580  156.2421 C   0  0  0  0  0  0  0  0  0  0  0  0
  151.4597  140.2466  155.4155 O   0  0  0  0  0  0  0  0  0  0  0  0
  151.5638  138.1685  156.2094 N   0  0  0  0  0  0  0  0  0  0  0  0
  150.6415  137.5763  155.2486 C   0  0  0  0  0  0  0  0  0  0  0  0
  149.9428  136.3441  155.8461 C   0  0  1  0  0  0  0  0  0  0  0  0
  150.7017  135.0486  155.6466 C   0  0  0  0  0  0  0  0  0  0  0  0
  150.0609  134.1476  156.6971 C   0  0  0  0  0  0  0  0  0  0  0  0
  149.7096  135.0058  157.7784 O   0  0  0  0  0  0  0  0  0  0  0  0
  149.7944  136.3686  157.3694 C   0  0  0  0  0  0  0  0  0  0  0  0
  153.5584  141.1802  159.4584 S   0  0  0  0  0  0  0  0  0  0  0  0
  151.6941  142.8909  161.8980 H   0  0  0  0  0  0  0  0  0  0  0  0
  152.1999  144.2158  160.8325 H   0  0  0  0  0  0  0  0  0  0  0  0
  153.4120  143.1351  161.5409 H   0  0  0  0  0  0  0  0  0  0  0  0
  151.9650  137.5537  156.9022 H   0  0  0  0  0  0  0  0  0  0  0  0
  149.8999  138.3236  154.9633 H   0  0  0  0  0  0  0  0  0  0  0  0
  151.1826  137.2987  154.3424 H   0  0  0  0  0  0  0  0  0  0  0  0
  148.9528  136.2353  155.3990 H   0  0  0  0  0  0  0  0  0  0  0  0
  150.6139  134.6505  154.6352 H   0  0  0  0  0  0  0  0  0  0  0  0
  151.7606  135.1874  155.8694 H   0  0  0  0  0  0  0  0  0  0  0  0
  149.1500  133.6944  156.3040 H   0  0  0  0  0  0  0  0  0  0  0  0
  150.7254  133.3467  157.0222 H   0  0  0  0  0  0  0  0  0  0  0  0
  150.6749  136.8116  157.8371 H   0  0  0  0  0  0  0  0  0  0  0  0
  148.9208  136.9348  157.6933 H   0  0  0  0  0  0  0  0  0  0  0  0
  1  2  1  0  0  0  0
  1 17  1  0  0  0  0
  1 18  1  0  0  0  0
  1 19  1  0  0  0  0
  2 16  1  0  0  0  0
  2  3  2  0  0  0  0
  3  4  1  0  0  0  0
  4  5  2  0  0  0  0
  5  6  1  0  0  0  0
  5 16  1  0  0  0  0
  6  7  1  0  0  0  0
  7  8  2  0  0  0  0
  7  9  1  0  0  0  0
  9 10  1  0  0  0  0
  9 20  1  0  0  0  0
 10 11  1  0  0  0  0
 10 21  1  0  0  0  0
 10 22  1  0  0  0  0
 11 15  1  0  0  0  0
 11 12  1  0  0  0  0
 11 23  1  0  0  0  0
 12 13  1  0  0  0  0
 12 24  1  0  0  0  0
 12 25  1  0  0  0  0
 13 14  1  0  0  0  0
 13 26  1  0  0  0  0
 13 27  1  0  0  0  0
 14 15  1  0  0  0  0
 15 28  1  0  0  0  0
 15 29  1  0  0  0  0
M  CHG  1   6  -1
M  END
> <s_m_source_file>
AV-unprocessed.smi

> <i_m_source_file_index>
1429

> <i_lp_mmshare_version>
43012

> <i_f3d_flags>
0

> <s_epik_input>
W0NIM11jMW5uYyhzMSlbTkhdQyg9TylbTkhdW0NIMl1bQ0BASF0yW0NIMl1bQ0gyXU9bQ0gyXTI=

> <s_epik_cmdline>
J2VwaWtfcHl0aG9uJywgJy1waCcsICc3LjAnLCAnLXRuJywgJzgnLCAnLW1hJywgJzIwMCcsICctbWV0YWxfYmluZGluZycsICctaW1hZScsICc8aW5maWxlLm1hZT4nLCAnLW9tYWUnLCAnPG91dGZpbGUubWFlPic=

> <r_lp_tautomer_probability>
1

> <r_epik_Ionization_Penalty>
4.4122

> <r_epik_Ionization_Penalty_Charging>
4.26477

> <r_epik_Ionization_Penalty_Neutral>
0.147429

> <r_epik_State_Penalty>
4.26433

> <r_epik_Charging_Adjusted_Penalty>
8.5291

> <i_epik_Tot_Q>
-1

> <i_epik_Tot_abs_Q>
1

> <r_epik_Metal_State_Penalty>
0.713483

> <b_epik_Metal_Only>
1

> <s_lp_Force_Field>
OPLS_2005

> <r_lp_Energy>
16.2384

> <b_lp_Chiralities_Consistent>
1

> <s_lp_Variant>
AV-unprocessed.smi:1429-4

> <Gold.Version>
5.8.1

> <Gold.Id.Protein>
6NUR|6NUR_protein|mol2

> <Gold.PLP.Fitness>
33.8652

> <Gold.PLP.PLP>
-24.3043

> <Gold.PLP.part.hbond>
-3.0977

> <Gold.PLP.part.metal>
0.0000

> <Gold.PLP.part.buried>
-4.4239

> <Gold.PLP.part.nonpolar>
-17.1375

> <Gold.PLP.part.repulsive>
0.1042

> <Gold.PLP.ligand.clash>
0.0000

> <Gold.PLP.ligand.torsion>
1.1069

> <Gold.PLP.Chemscore.Hbond>
3.9200

> <Gold.PLP.Chemscore.CHOScore>
0.0000

> <Gold.PLP.Chemscore.Metal>
0.0000

> <Gold.Chemscore.Hbonds>
donor molecule, donor type, donor heavy atom, donor atom, acceptor molecule, acceptor atom, score
      P1  H  6896  6909       L1    14  0.98
      P1  H  7989  7998       L1     8  0.96
      P1  H  7997  8009       L1     6  2.00

> <Gold.PLP.Chemscore.Internal.Correction>
0.0147

> <Gold.Rescore>
     Score         DG    S(hbond)    S(metal)    S(lipo)     H(rot)  DE(clash)    DE(int)     intcor
     13.65     -16.04       2.35        0.00      51.43       1.30       0.15       2.24       ----

> <Gold.Chemscore.Fitness>
13.6549

> <Gold.Chemscore.DG>
-16.0382

> <Gold.Chemscore.ZeroCoef>
-5.4800

> <Gold.Chemscore.Hbond>
2.3543

> <Gold.Chemscore.Metal>
0.0000

> <Gold.Chemscore.Lipo>
51.4327

> <Gold.Chemscore.Internal_Hbond>
0.0000

> <Gold.Chemscore.DEClash>
0.1465

> <Gold.Chemscore.DEInternal>
2.2367

> <Gold.Chemscore.Rot>
1.2980

> <Gold.Chemscore.Internal.Correction>
   9.000000E+99

> <Gold.Chemscore.Hbonds>
donor molecule, donor type, donor heavy atom, donor atom, acceptor molecule, acceptor atom, score
      P1  H  6896  6909       L1    14  0.44
      P1  H  7989  7998       L1     8  0.87
      P1  H  7997  8009       L1     6  0.49

> <Gold.Chemscore.Hbond.Weighted>
-7.8634

> <Gold.Chemscore.Metal.Weighted>
-0.0000

> <Gold.Chemscore.Lipo.Weighted>
-6.0176

> <Gold.Chemscore.Internal_Hbond.Weighted>
0.0000

> <Gold.Chemscore.DEClash.Weighted>
0.1465

> <Gold.Chemscore.DEInternal.Weighted>
2.2367

> <Gold.Chemscore.Rot.Weighted>
3.3229

> <Gold.Chemscore.Internal.Correction.Weighted>
   9.000000E+99

> <Gold.Protein.RotatedTorsions>
[ 6907 6896 6895 6894 ] final   27.85 input  -60.11 | X-H torsion
[ 7974 7965 7964 7962 ] final  114.16 input  175.53 | X-H torsion
[ 8008 7997 7996 7995 ] final  166.68 input   59.86 | X-H torsion
[ 10167 10162 10161 10158 ] final  -83.80 input  -65.29 | X-H torsion
[ 10718 10713 10712 10709 ] final  -75.83 input   66.30 | X-H torsion
[ 10763 10752 10751 10750 ] final  -65.08 input  -60.55 | X-H torsion
[ 11005 11000 10999 10996 ] final  147.55 input  -57.11 | X-H torsion

> <Gold.Protein.ActiveResidues>
 VAL166  LYS551  ARG553  GLY616  TRP617  ASP618  TYR619  PRO620  LYS621  CYS622 
 ASP623  PHE694  ASN695  SER759  ASP760  ASP761  ALA762  ILE779  LEU786  VAL792 
 PHE793  MET794  SER795  GLU796  ALA797  LYS798  CYS799  TRP800  GLU811  SER814 

> <Gold.Protein.RotatedAtoms>
  152.0083  134.9890  160.0567 H   0  0  0  0  0  0  0  0  0  0  0  0  # atno 6907 bound_to 6896
  152.1453  133.4484  159.4795 H   0  0  0  0  0  0  0  0  0  0  0  0  # atno 6908 bound_to 6896
  150.6869  134.2174  159.4426 H   0  0  0  0  0  0  0  0  0  0  0  0  # atno 6909 bound_to 6896
  145.2078  139.2921  143.4284 H   0  0  0  0  0  0  0  0  0  0  0  0  # atno 7974 bound_to 7965
  156.1698  140.1637  156.8467 H   0  0  0  0  0  0  0  0  0  0  0  0  # atno 8008 bound_to 7997
  154.5245  140.0770  156.8268 H   0  0  0  0  0  0  0  0  0  0  0  0  # atno 8009 bound_to 7997
  155.3535  140.3391  155.4242 H   0  0  0  0  0  0  0  0  0  0  0  0  # atno 8010 bound_to 7997
  140.4193  143.2591  151.8912 H   0  0  0  0  0  0  0  0  0  0  0  0  # atno 10167 bound_to 10162
  156.0194  130.4450  150.3102 H   0  0  0  0  0  0  0  0  0  0  0  0  # atno 10718 bound_to 10713
  154.3398  135.6159  153.5591 H   0  0  0  0  0  0  0  0  0  0  0  0  # atno 10763 bound_to 10752
  152.9805  135.5767  154.4866 H   0  0  0  0  0  0  0  0  0  0  0  0  # atno 10764 bound_to 10752
  154.4568  135.2854  155.1719 H   0  0  0  0  0  0  0  0  0  0  0  0  # atno 10765 bound_to 10752
  140.0885  134.9055  157.1613 H   0  0  0  0  0  0  0  0  0  0  0  0  # atno 11005 bound_to 11000
  146.3404  140.2344  142.8594 LP  0  0  0  0  0  0  0  0  0  0  0  0  # atno 17320 bound_to 7965
  144.9885  140.8525  143.5354 LP  0  0  0  0  0  0  0  0  0  0  0  0  # atno 17321 bound_to 7965
  139.4782  144.5454  151.8465 LP  0  0  0  0  0  0  0  0  0  0  0  0  # atno 17342 bound_to 10162
  140.4552  144.1800  150.5901 LP  0  0  0  0  0  0  0  0  0  0  0  0  # atno 17343 bound_to 10162
  157.1204  131.0245  151.3011 LP  0  0  0  0  0  0  0  0  0  0  0  0  # atno 17370 bound_to 10713
  157.4632  130.7665  149.7255 LP  0  0  0  0  0  0  0  0  0  0  0  0  # atno 17371 bound_to 10713
  140.3386  134.2729  155.7216 LP  0  0  0  0  0  0  0  0  0  0  0  0  # atno 17394 bound_to 11000
  141.2070  133.7817  157.0143 LP  0  0  0  0  0  0  0  0  0  0  0  0  # atno 17395 bound_to 11000

$$$$
