AV-unprocessed.smi:3161|AV-procd|sdf|12056|dock5
  -GOLD-   2272017483D 1   1.00000     0.00000
 Structure written by MMmdl.
 41 42  0  0  0  0  0  0  0  0  2 V2000
  151.1219  135.9199  155.3248 C   0  0  0  0  0  0  0  0  0  0  0  0
  151.3538  137.4031  155.3535 C   0  0  0  0  0  0  0  0  0  0  0  0
  151.7045  138.2546  154.2673 C   0  0  0  0  0  0  0  0  0  0  0  0
  151.8380  139.5207  154.6285 N   0  0  0  0  0  0  0  0  0  0  0  0
  151.5728  139.5231  155.9518 N   0  0  0  0  0  0  0  0  0  0  0  0
  151.6325  140.7685  156.6957 C   0  0  0  0  0  0  0  0  0  0  0  0
  150.6963  141.8605  156.1262 C   0  0  1  0  0  0  0  0  0  0  0  0
  149.2089  141.5354  156.3465 C   0  0  0  0  0  0  0  0  0  0  0  0
  150.9958  143.1842  156.7164 N   0  3  0  0  0  0  0  0  0  0  0  0
  150.5898  143.3612  158.1271 C   0  0  0  0  0  0  0  0  0  0  0  0
  151.8152  143.5846  159.0248 C   0  0  2  0  0  0  0  0  0  0  0  0
  152.7451  142.3555  159.0479 C   0  0  0  0  0  0  0  0  0  0  0  0
  153.9077  142.5774  160.0224 C   0  0  0  0  0  0  0  0  0  0  0  0
  153.3608  142.9766  161.3970 C   0  0  0  0  0  0  0  0  0  0  0  0
  152.3939  144.1635  161.2627 C   0  0  0  0  0  0  0  0  0  0  0  0
  151.3504  143.8380  160.3492 O   0  0  0  0  0  0  0  0  0  0  0  0
  151.2848  138.2575  156.4172 C   0  0  0  0  0  0  0  0  0  0  0  0
  150.8185  135.5769  154.3354 H   0  0  0  0  0  0  0  0  0  0  0  0
  150.3389  135.6193  156.0213 H   0  0  0  0  0  0  0  0  0  0  0  0
  152.0222  135.3679  155.5950 H   0  0  0  0  0  0  0  0  0  0  0  0
  151.8662  137.9908  153.2325 H   0  0  0  0  0  0  0  0  0  0  0  0
  151.3738  140.5578  157.7344 H   0  0  0  0  0  0  0  0  0  0  0  0
  152.6700  141.1030  156.6954 H   0  0  0  0  0  0  0  0  0  0  0  0
  150.8548  141.9342  155.0490 H   0  0  0  0  0  0  0  0  0  0  0  0
  148.9180  140.6151  155.8393 H   0  0  0  0  0  0  0  0  0  0  0  0
  148.5722  142.3302  155.9564 H   0  0  0  0  0  0  0  0  0  0  0  0
  148.9818  141.4172  157.4066 H   0  0  0  0  0  0  0  0  0  0  0  0
  151.9961  143.3163  156.6736 H   0  0  0  0  0  0  0  0  0  0  0  0
  149.9030  144.2021  158.2235 H   0  0  0  0  0  0  0  0  0  0  0  0
  150.0548  142.4682  158.4524 H   0  0  0  0  0  0  0  0  0  0  0  0
  152.3700  144.4518  158.6614 H   0  0  0  0  0  0  0  0  0  0  0  0
  152.1813  141.4717  159.3504 H   0  0  0  0  0  0  0  0  0  0  0  0
  153.1314  142.1527  158.0486 H   0  0  0  0  0  0  0  0  0  0  0  0
  154.5165  141.6764  160.1017 H   0  0  0  0  0  0  0  0  0  0  0  0
  154.5601  143.3653  159.6438 H   0  0  0  0  0  0  0  0  0  0  0  0
  152.8383  142.1297  161.8436 H   0  0  0  0  0  0  0  0  0  0  0  0
  154.1795  143.2305  162.0711 H   0  0  0  0  0  0  0  0  0  0  0  0
  151.9535  144.3994  162.2316 H   0  0  0  0  0  0  0  0  0  0  0  0
  152.9199  145.0584  160.9264 H   0  0  0  0  0  0  0  0  0  0  0  0
  151.0539  138.0709  157.4559 H   0  0  0  0  0  0  0  0  0  0  0  0
  150.5562  143.9006  156.1559 H   0  0  0  0  0  0  0  0  0  0  0  0
  1  2  1  0  0  0  0
  1 18  1  0  0  0  0
  1 19  1  0  0  0  0
  1 20  1  0  0  0  0
  2 17  2  0  0  0  0
  2  3  1  0  0  0  0
  3  4  2  0  0  0  0
  3 21  1  0  0  0  0
  4  5  1  0  0  0  0
  5  6  1  0  0  0  0
  5 17  1  0  0  0  0
  6  7  1  0  0  0  0
  6 22  1  0  0  0  0
  6 23  1  0  0  0  0
  7  8  1  0  0  0  0
  7  9  1  0  0  0  0
  7 24  1  0  0  0  0
  8 25  1  0  0  0  0
  8 26  1  0  0  0  0
  8 27  1  0  0  0  0
  9 10  1  0  0  0  0
  9 28  1  0  0  0  0
  9 41  1  0  0  0  0
 10 11  1  0  0  0  0
 10 29  1  0  0  0  0
 10 30  1  0  0  0  0
 11 16  1  0  0  0  0
 11 12  1  0  0  0  0
 11 31  1  0  0  0  0
 12 13  1  0  0  0  0
 12 32  1  0  0  0  0
 12 33  1  0  0  0  0
 13 14  1  0  0  0  0
 13 34  1  0  0  0  0
 13 35  1  0  0  0  0
 14 15  1  0  0  0  0
 14 36  1  0  0  0  0
 14 37  1  0  0  0  0
 15 16  1  0  0  0  0
 15 38  1  0  0  0  0
 15 39  1  0  0  0  0
 17 40  1  0  0  0  0
M  CHG  1   9   1
M  END
> <s_m_source_file>
AV-unprocessed.smi

> <i_m_source_file_index>
3161

> <i_lp_mmshare_version>
43012

> <i_f3d_flags>
0

> <s_epik_input>
W0NIM11jMVtjSF1ubihbY0hdMSlbQ0gyXVtDQEhdKFtDSDNdKVtOSF1bQ0gyXVtDQEBIXTJbQ0gyXVtDSDJdW0NIMl1bQ0gyXU8y

> <s_epik_cmdline>
J2VwaWtfcHl0aG9uJywgJy1waCcsICc3LjAnLCAnLXRuJywgJzgnLCAnLW1hJywgJzIwMCcsICctbWV0YWxfYmluZGluZycsICctaW1hZScsICc8aW5maWxlLm1hZT4nLCAnLW9tYWUnLCAnPG91dGZpbGUubWFlPic=

> <r_lp_tautomer_probability>
1

> <r_epik_Ionization_Penalty>
0.00849661

> <r_epik_Ionization_Penalty_Charging>
0.00848754

> <r_epik_Ionization_Penalty_Neutral>
9.06711e-06

> <r_epik_State_Penalty>
0.00639836

> <r_epik_Charging_Adjusted_Penalty>
0.0148859

> <i_epik_Tot_Q>
1

> <i_epik_Tot_abs_Q>
1

> <r_epik_Metal_State_Penalty>
0.00639921

> <b_epik_Metal_Only>
0

> <s_lp_Force_Field>
OPLS_2005

> <r_lp_Energy>
12.4763

> <b_lp_Chiralities_Consistent>
1

> <s_lp_Variant>
AV-unprocessed.smi:3161-2

> <Gold.Version>
5.8.1

> <Gold.Id.Protein>
6NUR|6NUR_protein|mol2

> <Gold.PLP.Fitness>
49.4321

> <Gold.PLP.PLP>
-38.4094

> <Gold.PLP.part.hbond>
-2.9834

> <Gold.PLP.part.metal>
0.0000

> <Gold.PLP.part.buried>
-5.2100

> <Gold.PLP.part.nonpolar>
-30.5680

> <Gold.PLP.part.repulsive>
0.2195

> <Gold.PLP.ligand.clash>
0.0000

> <Gold.PLP.ligand.torsion>
0.5022

> <Gold.PLP.Chemscore.Hbond>
3.0000

> <Gold.PLP.Chemscore.CHOScore>
1.0000

> <Gold.PLP.Chemscore.Metal>
0.0000

> <Gold.Chemscore.Hbonds>
donor molecule, donor type, donor heavy atom, donor atom, acceptor molecule, acceptor atom, score
      L1  H     9    41       P1  8028  1.86
      P1  H  7989  7998       L1     4  1.00
      L1  C     3    21       P1  7949  0.48

> <Gold.PLP.Chemscore.Internal.Correction>
0.0271

> <Gold.Rescore>
     Score         DG    S(hbond)    S(metal)    S(lipo)     H(rot)  DE(clash)    DE(int)     intcor
     19.67     -20.34       1.95        0.00     105.81       1.57       0.02       0.65       ----

> <Gold.Chemscore.Fitness>
19.6739

> <Gold.Chemscore.DG>
-20.3424

> <Gold.Chemscore.ZeroCoef>
-5.4800

> <Gold.Chemscore.Hbond>
1.9478

> <Gold.Chemscore.Metal>
0.0000

> <Gold.Chemscore.Lipo>
105.8089

> <Gold.Chemscore.Internal_Hbond>
0.0000

> <Gold.Chemscore.DEClash>
0.0186

> <Gold.Chemscore.DEInternal>
0.6499

> <Gold.Chemscore.Rot>
1.5714

> <Gold.Chemscore.Internal.Correction>
   9.000000E+99

> <Gold.Chemscore.Hbonds>
donor molecule, donor type, donor heavy atom, donor atom, acceptor molecule, acceptor atom, score
      L1  H     9    41       P1  8028  0.89
      P1  H  7989  7998       L1     4  0.94

> <Gold.Chemscore.Hbond.Weighted>
-6.5056

> <Gold.Chemscore.Metal.Weighted>
-0.0000

> <Gold.Chemscore.Lipo.Weighted>
-12.3796

> <Gold.Chemscore.Internal_Hbond.Weighted>
0.0000

> <Gold.Chemscore.DEClash.Weighted>
0.0186

> <Gold.Chemscore.DEInternal.Weighted>
0.6499

> <Gold.Chemscore.Rot.Weighted>
4.0228

> <Gold.Chemscore.Internal.Correction.Weighted>
   9.000000E+99

> <Gold.Protein.RotatedTorsions>
[ 6907 6896 6895 6894 ] final  108.80 input  -60.11 | X-H torsion
[ 7974 7965 7964 7962 ] final   -7.82 input  175.53 | X-H torsion
[ 8008 7997 7996 7995 ] final   83.76 input   59.86 | X-H torsion
[ 10167 10162 10161 10158 ] final   81.48 input  -65.29 | X-H torsion
[ 10718 10713 10712 10709 ] final   34.92 input   66.30 | X-H torsion
[ 10763 10752 10751 10750 ] final  106.81 input  -60.55 | X-H torsion
[ 11005 11000 10999 10996 ] final -109.08 input  -57.11 | X-H torsion

> <Gold.Protein.ActiveResidues>
 VAL166  LYS551  ARG553  GLY616  TRP617  ASP618  TYR619  PRO620  LYS621  CYS622 
 ASP623  PHE694  ASN695  SER759  ASP760  ASP761  ALA762  ILE779  LEU786  VAL792 
 PHE793  MET794  SER795  GLU796  ALA797  LYS798  CYS799  TRP800  GLU811  SER814 

> <Gold.Protein.RotatedAtoms>
  152.5096  133.9036  159.7453 H   0  0  0  0  0  0  0  0  0  0  0  0  # atno 6907 bound_to 6896
  150.9446  133.6609  159.2790 H   0  0  0  0  0  0  0  0  0  0  0  0  # atno 6908 bound_to 6896
  151.3908  135.0960  159.9578 H   0  0  0  0  0  0  0  0  0  0  0  0  # atno 6909 bound_to 6896
  146.2297  140.2376  142.8342 H   0  0  0  0  0  0  0  0  0  0  0  0  # atno 7974 bound_to 7965
  155.9282  140.3416  155.6227 H   0  0  0  0  0  0  0  0  0  0  0  0  # atno 8008 bound_to 7997
  155.7190  140.0781  157.2357 H   0  0  0  0  0  0  0  0  0  0  0  0  # atno 8009 bound_to 7997
  154.4080  140.1609  156.2368 H   0  0  0  0  0  0  0  0  0  0  0  0  # atno 8010 bound_to 7997
  139.9388  144.6103  150.8272 H   0  0  0  0  0  0  0  0  0  0  0  0  # atno 10167 bound_to 10162
  157.3163  130.7425  149.6756 H   0  0  0  0  0  0  0  0  0  0  0  0  # atno 10718 bound_to 10713
  153.3981  135.3864  155.1969 H   0  0  0  0  0  0  0  0  0  0  0  0  # atno 10763 bound_to 10752
  154.8726  135.3765  154.4652 H   0  0  0  0  0  0  0  0  0  0  0  0  # atno 10764 bound_to 10752
  153.5147  135.7087  153.5824 H   0  0  0  0  0  0  0  0  0  0  0  0  # atno 10765 bound_to 10752
  141.0867  133.9126  157.2169 H   0  0  0  0  0  0  0  0  0  0  0  0  # atno 11005 bound_to 11000
  144.9510  140.8178  143.5572 LP  0  0  0  0  0  0  0  0  0  0  0  0  # atno 17320 bound_to 7965
  145.2336  139.2104  143.5029 LP  0  0  0  0  0  0  0  0  0  0  0  0  # atno 17321 bound_to 7965
  140.7617  143.3180  151.2688 LP  0  0  0  0  0  0  0  0  0  0  0  0  # atno 17342 bound_to 10162
  139.6722  144.0001  152.2759 LP  0  0  0  0  0  0  0  0  0  0  0  0  # atno 17343 bound_to 10162
  155.9682  130.4236  150.4572 LP  0  0  0  0  0  0  0  0  0  0  0  0  # atno 17370 bound_to 10713
  157.2579  131.0560  151.2339 LP  0  0  0  0  0  0  0  0  0  0  0  0  # atno 17371 bound_to 10713
  139.9686  135.0135  156.9453 LP  0  0  0  0  0  0  0  0  0  0  0  0  # atno 17394 bound_to 11000
  140.5346  134.0779  155.7325 LP  0  0  0  0  0  0  0  0  0  0  0  0  # atno 17395 bound_to 11000

$$$$
