AV-unprocessed.smi:96|AV-procd|sdf|860|dock9
  -GOLD-   2262017303D 1   1.00000     0.00000
 Structure written by MMmdl.
 43 46  0  0  0  0  0  0  0  0  1 V2000
  152.6895  136.4717  156.2779 O   0  0  0  0  0  0  0  0  0  0  0  0
  151.8874  137.2640  155.7812 C   0  0  0  0  0  0  0  0  0  0  0  0
  152.3461  138.6618  155.3354 C   0  0  0  0  0  0  0  0  0  0  0  0
  151.5265  139.7585  155.8966 N   0  0  0  0  0  0  0  0  0  0  0  0
  150.3679  140.1747  155.1951 C   0  0  0  0  0  0  0  0  0  0  0  0
  150.0317  139.6354  154.1399 O   0  0  0  0  0  0  0  0  0  0  0  0
  149.6242  141.2725  155.8029 C   0  0  0  0  0  0  0  0  0  0  0  0
  148.5037  141.7236  155.2137 F   0  0  0  0  0  0  0  0  0  0  0  0
  150.0427  141.8450  156.9506 C   0  0  0  0  0  0  0  0  0  0  0  0
  151.1866  141.4401  157.6154 N   0  0  0  0  0  0  0  0  0  0  0  0
  151.6499  142.0996  158.8975 C   0  0  1  0  0  0  0  0  0  0  0  0
  153.0371  142.7424  158.7057 C   0  0  0  0  0  0  0  0  0  0  0  0
  152.8263  144.1534  159.2172 C   0  0  0  0  0  0  0  0  0  0  0  0
  151.3521  144.3795  158.9172 C   0  0  0  0  0  0  0  0  0  0  0  0
  150.7679  143.1272  159.2506 O   0  0  0  0  0  0  0  0  0  0  0  0
  151.9533  140.3741  157.0971 C   0  0  0  0  0  0  0  0  0  0  0  0
  152.9748  139.9966  157.6758 O   0  0  0  0  0  0  0  0  0  0  0  0
  150.5799  137.0059  155.5976 N   0  0  0  0  0  0  0  0  0  0  0  0
  149.8656  135.8199  155.9148 C   0  0  0  0  0  0  0  0  0  0  0  0
  148.6109  135.4888  155.3264 C   0  0  0  0  0  0  0  0  0  0  0  0
  147.9318  134.3037  155.6894 C   0  0  0  0  0  0  0  0  0  0  0  0
  148.5285  133.4739  156.6516 C   0  0  0  0  0  0  0  0  0  0  0  0
  149.7342  133.7975  157.2371 C   0  0  0  0  0  0  0  0  0  0  0  0
  150.4285  134.9697  156.8964 C   0  0  0  0  0  0  0  0  0  0  0  0
  150.0782  132.8354  158.1307 O   0  0  0  0  0  0  0  0  0  0  0  0
  149.0456  131.8847  158.0878 C   0  0  0  0  0  0  0  0  0  0  0  0
  148.0771  132.2987  157.1591 O   0  0  0  0  0  0  0  0  0  0  0  0
  153.3978  138.7758  155.6016 H   0  0  0  0  0  0  0  0  0  0  0  0
  152.3445  138.7034  154.2447 H   0  0  0  0  0  0  0  0  0  0  0  0
  149.4454  142.6509  157.3481 H   0  0  0  0  0  0  0  0  0  0  0  0
  151.6197  141.3186  159.6596 H   0  0  0  0  0  0  0  0  0  0  0  0
  153.8022  142.1946  159.2564 H   0  0  0  0  0  0  0  0  0  0  0  0
  153.3042  142.7578  157.6476 H   0  0  0  0  0  0  0  0  0  0  0  0
  152.9992  144.1930  160.2935 H   0  0  0  0  0  0  0  0  0  0  0  0
  153.4775  144.8843  158.7372 H   0  0  0  0  0  0  0  0  0  0  0  0
  150.9212  145.1922  159.5021 H   0  0  0  0  0  0  0  0  0  0  0  0
  151.2007  144.5975  157.8590 H   0  0  0  0  0  0  0  0  0  0  0  0
  150.0178  137.7780  155.2701 H   0  0  0  0  0  0  0  0  0  0  0  0
  148.1463  136.1405  154.6022 H   0  0  0  0  0  0  0  0  0  0  0  0
  146.9818  134.0469  155.2445 H   0  0  0  0  0  0  0  0  0  0  0  0
  151.3713  135.2053  157.3684 H   0  0  0  0  0  0  0  0  0  0  0  0
  149.4508  130.9180  157.7867 H   0  0  0  0  0  0  0  0  0  0  0  0
  148.5910  131.7946  159.0748 H   0  0  0  0  0  0  0  0  0  0  0  0
  1  2  2  0  0  0  0
  2  3  1  0  0  0  0
  2 18  1  0  0  0  0
  3  4  1  0  0  0  0
  3 28  1  0  0  0  0
  3 29  1  0  0  0  0
  4 16  1  0  0  0  0
  4  5  1  0  0  0  0
  5  6  2  0  0  0  0
  5  7  1  0  0  0  0
  7  8  1  0  0  0  0
  7  9  2  0  0  0  0
  9 10  1  0  0  0  0
  9 30  1  0  0  0  0
 10 11  1  0  0  0  0
 10 16  1  0  0  0  0
 11 15  1  0  0  0  0
 11 12  1  0  0  0  0
 11 31  1  0  0  0  0
 12 13  1  0  0  0  0
 12 32  1  0  0  0  0
 12 33  1  0  0  0  0
 13 14  1  0  0  0  0
 13 34  1  0  0  0  0
 13 35  1  0  0  0  0
 14 15  1  0  0  0  0
 14 36  1  0  0  0  0
 14 37  1  0  0  0  0
 16 17  2  0  0  0  0
 18 19  1  0  0  0  0
 18 38  1  0  0  0  0
 19 24  1  0  0  0  0
 19 20  2  0  0  0  0
 20 21  1  0  0  0  0
 20 39  1  0  0  0  0
 21 22  2  0  0  0  0
 21 40  1  0  0  0  0
 22 27  1  0  0  0  0
 22 23  1  0  0  0  0
 23 24  2  0  0  0  0
 23 25  1  0  0  0  0
 24 41  1  0  0  0  0
 25 26  1  0  0  0  0
 26 27  1  0  0  0  0
 26 42  1  0  0  0  0
 26 43  1  0  0  0  0
M  END
> <s_m_source_file>
AV-unprocessed.smi

> <i_m_source_file_index>
96

> <i_lp_mmshare_version>
43012

> <i_f3d_flags>
0

> <s_epik_input>
TzFbQ0gyXU9jKGMxMilbY0hdYyhbY0hdW2NIXTIpW05IXUMoPU8pW0NIMl1uM2MoPU8pYyhGKVtjSF1uKGMzPU8pW0NAQEhdNFtDSDJdW0NIMl1bQ0gyXU80

> <s_epik_cmdline>
J2VwaWtfcHl0aG9uJywgJy1waCcsICc3LjAnLCAnLXRuJywgJzgnLCAnLW1hJywgJzIwMCcsICctbWV0YWxfYmluZGluZycsICctaW1hZScsICc8aW5maWxlLm1hZT4nLCAnLW9tYWUnLCAnPG91dGZpbGUubWFlPic=

> <r_lp_tautomer_probability>
1

> <r_epik_Ionization_Penalty>
1.04778e-05

> <r_epik_Ionization_Penalty_Charging>
3.88729e-08

> <r_epik_Ionization_Penalty_Neutral>
1.04389e-05

> <r_epik_State_Penalty>
-0

> <r_epik_Charging_Adjusted_Penalty>
3.88729e-08

> <i_epik_Tot_Q>
0

> <i_epik_Tot_abs_Q>
0

> <r_epik_Metal_State_Penalty>
-0

> <b_epik_Metal_Only>
0

> <s_epik_Chemistry_Notes>
This compound contains an acetal/aminal-like group ( X-CH(R)-Y where X, Y are N, S, or O) that may be acid/base labile, releasing an aldehyde.

> <s_lp_Force_Field>
OPLS_2005

> <r_lp_Energy>
46.4939

> <b_lp_Chiralities_Consistent>
1

> <s_lp_Variant>
AV-unprocessed.smi:96-2

> <Gold.Version>
5.8.1

> <Gold.Id.Protein>
6NUR|6NUR_protein|mol2

> <Gold.PLP.Fitness>
51.0094

> <Gold.PLP.PLP>
-39.5326

> <Gold.PLP.part.hbond>
-4.2228

> <Gold.PLP.part.metal>
0.0000

> <Gold.PLP.part.buried>
-0.6312

> <Gold.PLP.part.nonpolar>
-35.0653

> <Gold.PLP.part.repulsive>
0.9739

> <Gold.PLP.ligand.clash>
0.0000

> <Gold.PLP.ligand.torsion>
0.5255

> <Gold.PLP.Chemscore.Hbond>
3.3000

> <Gold.PLP.Chemscore.CHOScore>
0.8646

> <Gold.PLP.Chemscore.Metal>
0.0000

> <Gold.Chemscore.Hbonds>
donor molecule, donor type, donor heavy atom, donor atom, acceptor molecule, acceptor atom, score
      P1  H  6896  6907       L1    25  1.00
      P1  H  7997  8008       L1    17  1.00
      P1  H 10752 10763       L1     1  1.00
      L1  C     9    30       P1  8028  0.39

> <Gold.PLP.Chemscore.Internal.Correction>
0.0340

> <Gold.Rescore>
     Score         DG    S(hbond)    S(metal)    S(lipo)     H(rot)  DE(clash)    DE(int)     intcor
     15.07     -18.86       2.73        0.00      76.82       1.85       0.56       3.23       ----

> <Gold.Chemscore.Fitness>
15.0707

> <Gold.Chemscore.DG>
-18.8570

> <Gold.Chemscore.ZeroCoef>
-5.4800

> <Gold.Chemscore.Hbond>
2.7319

> <Gold.Chemscore.Metal>
0.0000

> <Gold.Chemscore.Lipo>
76.8198

> <Gold.Chemscore.Internal_Hbond>
0.0000

> <Gold.Chemscore.DEClash>
0.5612

> <Gold.Chemscore.DEInternal>
3.2251

> <Gold.Chemscore.Rot>
1.8497

> <Gold.Chemscore.Internal.Correction>
   9.000000E+99

> <Gold.Chemscore.Hbonds>
donor molecule, donor type, donor heavy atom, donor atom, acceptor molecule, acceptor atom, score
      P1  H  6896  6907       L1    25  0.49
      P1  H  7997  8008       L1    17  0.94
      P1  H 10752 10763       L1     1  0.85

> <Gold.Chemscore.Hbond.Weighted>
-9.1245

> <Gold.Chemscore.Metal.Weighted>
-0.0000

> <Gold.Chemscore.Lipo.Weighted>
-8.9879

> <Gold.Chemscore.Internal_Hbond.Weighted>
0.0000

> <Gold.Chemscore.DEClash.Weighted>
0.5612

> <Gold.Chemscore.DEInternal.Weighted>
3.2251

> <Gold.Chemscore.Rot.Weighted>
4.7354

> <Gold.Chemscore.Internal.Correction.Weighted>
   9.000000E+99

> <Gold.Protein.RotatedTorsions>
[ 6907 6896 6895 6894 ] final -134.87 input  -60.11 | X-H torsion
[ 7974 7965 7964 7962 ] final -111.74 input  175.53 | X-H torsion
[ 8008 7997 7996 7995 ] final  -70.75 input   59.86 | X-H torsion
[ 10167 10162 10161 10158 ] final  -81.43 input  -65.29 | X-H torsion
[ 10718 10713 10712 10709 ] final -145.74 input   66.30 | X-H torsion
[ 10763 10752 10751 10750 ] final  104.64 input  -60.55 | X-H torsion
[ 11005 11000 10999 10996 ] final  163.43 input  -57.11 | X-H torsion

> <Gold.Protein.ActiveResidues>
 VAL166  LYS551  ARG553  GLY616  TRP617  ASP618  TYR619  PRO620  LYS621  CYS622 
 ASP623  PHE694  ASN695  SER759  ASP760  ASP761  ALA762  ILE779  LEU786  VAL792 
 PHE793  MET794  SER795  GLU796  ALA797  LYS798  CYS799  TRP800  GLU811  SER814 

> <Gold.Protein.RotatedAtoms>
  150.9910  133.6150  159.2708 H   0  0  0  0  0  0  0  0  0  0  0  0  # atno 6907 bound_to 6896
  151.3371  135.0854  159.9368 H   0  0  0  0  0  0  0  0  0  0  0  0  # atno 6908 bound_to 6896
  152.5245  133.9528  159.7734 H   0  0  0  0  0  0  0  0  0  0  0  0  # atno 6909 bound_to 6896
  145.1524  140.8836  143.3639 H   0  0  0  0  0  0  0  0  0  0  0  0  # atno 7974 bound_to 7965
  154.5035  140.0828  156.7847 H   0  0  0  0  0  0  0  0  0  0  0  0  # atno 8008 bound_to 7997
  155.3947  140.3434  155.4235 H   0  0  0  0  0  0  0  0  0  0  0  0  # atno 8009 bound_to 7997
  156.1487  140.1551  156.8793 H   0  0  0  0  0  0  0  0  0  0  0  0  # atno 8010 bound_to 7997
  140.4412  143.2514  151.8622 H   0  0  0  0  0  0  0  0  0  0  0  0  # atno 10167 bound_to 10162
  156.3863  130.7862  151.2060 H   0  0  0  0  0  0  0  0  0  0  0  0  # atno 10718 bound_to 10713
  153.3686  135.3936  155.1772 H   0  0  0  0  0  0  0  0  0  0  0  0  # atno 10763 bound_to 10752
  154.8690  135.3697  154.5007 H   0  0  0  0  0  0  0  0  0  0  0  0  # atno 10764 bound_to 10752
  153.5473  135.7083  153.5669 H   0  0  0  0  0  0  0  0  0  0  0  0  # atno 10765 bound_to 10752
  140.2357  134.8090  157.3361 H   0  0  0  0  0  0  0  0  0  0  0  0  # atno 11005 bound_to 11000
  145.0417  139.3255  143.5973 LP  0  0  0  0  0  0  0  0  0  0  0  0  # atno 17320 bound_to 7965
  146.3493  139.9793  142.8697 LP  0  0  0  0  0  0  0  0  0  0  0  0  # atno 17321 bound_to 7965
  139.4790  144.5226  151.8780 LP  0  0  0  0  0  0  0  0  0  0  0  0  # atno 17342 bound_to 10162
  140.4316  144.2108  150.5888 LP  0  0  0  0  0  0  0  0  0  0  0  0  # atno 17343 bound_to 10162
  157.7496  131.0329  150.4248 LP  0  0  0  0  0  0  0  0  0  0  0  0  # atno 17370 bound_to 10713
  156.4501  130.4009  149.6642 LP  0  0  0  0  0  0  0  0  0  0  0  0  # atno 17371 bound_to 10713
  140.1705  134.4615  155.7835 LP  0  0  0  0  0  0  0  0  0  0  0  0  # atno 17394 bound_to 11000
  141.2214  133.6939  156.7699 LP  0  0  0  0  0  0  0  0  0  0  0  0  # atno 17395 bound_to 11000

$$$$
