AV-unprocessed.smi:1240|AV-procd|sdf|5211|dock1
  -GOLD-   22720 4303D 1   1.00000     0.00000
 Structure written by MMmdl.
 48 50  0  0  0  0  0  0  0  0  4 V2000
  147.3269  131.8768  153.0601 O   0  0  0  0  0  0  0  0  0  0  0  0
  147.8624  132.9896  153.1199 C   0  0  0  0  0  0  0  0  0  0  0  0
  148.9761  133.3382  153.8174 N   0  5  0  0  0  0  0  0  0  0  0  0
  149.3202  134.7067  154.2004 C   0  0  0  0  0  0  0  0  0  0  0  0
  149.5822  134.8102  155.7448 C   0  0  2  0  0  0  0  0  0  0  0  0
  150.5437  135.9695  156.1698 C   0  0  2  0  0  0  0  0  0  0  0  0
  150.5614  136.2325  157.6692 C   0  0  0  0  0  0  0  0  0  0  0  0
  151.2012  137.6129  157.7586 C   0  0  0  0  0  0  0  0  0  0  0  0
  150.8026  138.2954  156.5771 O   0  0  0  0  0  0  0  0  0  0  0  0
  150.1909  137.3825  155.6720 C   0  0  0  0  0  0  0  0  0  0  0  0
  150.0375  133.5243  156.3829 N   0  3  0  0  0  0  0  0  0  0  0  0
  151.4830  133.4424  156.7226 C   0  0  0  0  0  0  0  0  0  0  0  0
  151.8603  131.9909  157.0625 C   0  0  0  0  0  0  0  0  0  0  0  0
  151.0385  131.5135  158.1217 O   0  0  0  0  0  0  0  0  0  0  0  0
  149.6593  131.5084  157.7715 C   0  0  0  0  0  0  0  0  0  0  0  0
  149.1982  132.9429  157.4691 C   0  0  0  0  0  0  0  0  0  0  0  0
  147.3587  134.0234  152.4221 N   0  0  0  0  0  0  0  0  0  0  0  0
  146.2046  134.0635  151.5947 C   0  0  0  0  0  0  0  0  0  0  0  0
  145.5828  135.3156  151.3941 C   0  0  0  0  0  0  0  0  0  0  0  0
  144.4226  135.3950  150.5977 C   0  0  0  0  0  0  0  0  0  0  0  0
  143.9079  134.2753  150.0455 N   0  3  0  0  0  0  0  0  0  0  0  0
  144.4564  133.0542  150.2243 C   0  0  0  0  0  0  0  0  0  0  0  0
  145.6179  132.9126  151.0104 C   0  0  0  0  0  0  0  0  0  0  0  0
  150.2137  135.0323  153.6679 H   0  0  0  0  0  0  0  0  0  0  0  0
  148.5432  135.4212  153.9257 H   0  0  0  0  0  0  0  0  0  0  0  0
  148.6220  135.0279  156.2159 H   0  0  0  0  0  0  0  0  0  0  0  0
  151.5668  135.7497  155.8579 H   0  0  0  0  0  0  0  0  0  0  0  0
  149.5433  136.2684  158.0606 H   0  0  0  0  0  0  0  0  0  0  0  0
  151.1169  135.4832  158.2341 H   0  0  0  0  0  0  0  0  0  0  0  0
  150.8995  138.1556  158.6548 H   0  0  0  0  0  0  0  0  0  0  0  0
  152.2886  137.5292  157.7617 H   0  0  0  0  0  0  0  0  0  0  0  0
  150.5323  137.5676  154.6533 H   0  0  0  0  0  0  0  0  0  0  0  0
  149.1126  137.5458  155.7019 H   0  0  0  0  0  0  0  0  0  0  0  0
  152.0867  133.7884  155.8830 H   0  0  0  0  0  0  0  0  0  0  0  0
  151.7129  134.0869  157.5718 H   0  0  0  0  0  0  0  0  0  0  0  0
  151.7555  131.3465  156.1880 H   0  0  0  0  0  0  0  0  0  0  0  0
  152.9037  131.9371  157.3733 H   0  0  0  0  0  0  0  0  0  0  0  0
  149.4907  130.8561  156.9131 H   0  0  0  0  0  0  0  0  0  0  0  0
  149.0852  131.0966  158.6017 H   0  0  0  0  0  0  0  0  0  0  0  0
  149.2758  133.5413  158.3777 H   0  0  0  0  0  0  0  0  0  0  0  0
  148.1478  132.9310  157.1803 H   0  0  0  0  0  0  0  0  0  0  0  0
  147.9152  134.8655  152.4364 H   0  0  0  0  0  0  0  0  0  0  0  0
  145.9945  136.2096  151.8399 H   0  0  0  0  0  0  0  0  0  0  0  0
  143.8934  136.3135  150.3900 H   0  0  0  0  0  0  0  0  0  0  0  0
  143.9496  132.2307  149.7426 H   0  0  0  0  0  0  0  0  0  0  0  0
  146.0322  131.9274  151.1630 H   0  0  0  0  0  0  0  0  0  0  0  0
  149.9418  132.8632  155.6259 H   0  0  0  0  0  0  0  0  0  0  0  0
  143.0663  134.3542  149.4742 H   0  0  0  0  0  0  0  0  0  0  0  0
  1  2  2  0  0  0  0
  2  3  1  0  0  0  0
  2 17  1  0  0  0  0
  3  4  1  0  0  0  0
  4  5  1  0  0  0  0
  4 24  1  0  0  0  0
  4 25  1  0  0  0  0
  5  6  1  0  0  0  0
  5 11  1  0  0  0  0
  5 26  1  0  0  0  0
  6 10  1  0  0  0  0
  6  7  1  0  0  0  0
  6 27  1  0  0  0  0
  7  8  1  0  0  0  0
  7 28  1  0  0  0  0
  7 29  1  0  0  0  0
  8  9  1  0  0  0  0
  8 30  1  0  0  0  0
  8 31  1  0  0  0  0
  9 10  1  0  0  0  0
 10 32  1  0  0  0  0
 10 33  1  0  0  0  0
 11 16  1  0  0  0  0
 11 12  1  0  0  0  0
 11 47  1  0  0  0  0
 12 13  1  0  0  0  0
 12 34  1  0  0  0  0
 12 35  1  0  0  0  0
 13 14  1  0  0  0  0
 13 36  1  0  0  0  0
 13 37  1  0  0  0  0
 14 15  1  0  0  0  0
 15 16  1  0  0  0  0
 15 38  1  0  0  0  0
 15 39  1  0  0  0  0
 16 40  1  0  0  0  0
 16 41  1  0  0  0  0
 17 18  1  0  0  0  0
 17 42  1  0  0  0  0
 18 23  1  0  0  0  0
 18 19  2  0  0  0  0
 19 20  1  0  0  0  0
 19 43  1  0  0  0  0
 20 21  2  0  0  0  0
 20 44  1  0  0  0  0
 21 22  1  0  0  0  0
 21 48  1  0  0  0  0
 22 23  2  0  0  0  0
 22 45  1  0  0  0  0
 23 46  1  0  0  0  0
M  CHG  1   3  -1
M  CHG  1  11   1
M  CHG  1  21   1
M  END
> <s_m_source_file>
AV-unprocessed.smi

> <i_m_source_file_index>
1240

> <i_lp_mmshare_version>
43012

> <i_f3d_flags>
0

> <s_epik_input>
W2NIXTFbY0hdbltjSF1bY0hdYzFbTkhdQyg9TylbTkhdW0NIMl1bQ0BIXShbQ0BASF0yW0NIMl1bQ0gyXU9bQ0gyXTIpTjNbQ0gyXVtDSDJdT1tDSDJdW0NIMl0z

> <s_epik_cmdline>
J2VwaWtfcHl0aG9uJywgJy1waCcsICc3LjAnLCAnLXRuJywgJzgnLCAnLW1hJywgJzIwMCcsICctbWV0YWxfYmluZGluZycsICctaW1hZScsICc8aW5maWxlLm1hZT4nLCAnLW9tYWUnLCAnPG91dGZpbGUubWFlPic=

> <r_epik_Ionization_Penalty>
8.41087

> <r_epik_Ionization_Penalty_Charging>
8.41087

> <r_epik_Ionization_Penalty_Neutral>
3.12936e-06

> <r_epik_State_Penalty>
8.81894

> <r_epik_Charging_Adjusted_Penalty>
17.2298

> <i_epik_Tot_Q>
1

> <i_epik_Tot_abs_Q>
3

> <r_epik_Metal_State_Penalty>
4.82983

> <b_epik_Metal_Only>
1

> <s_lp_Force_Field>
OPLS_2005

> <r_lp_Energy>
48.2206

> <b_lp_Chiralities_Consistent>
1

> <s_lp_Variant>
AV-unprocessed.smi:1240-17

> <Gold.Version>
5.8.1

> <Gold.Id.Protein>
6NUR|6NUR_protein|mol2

> <Gold.PLP.Fitness>
37.4566

> <Gold.PLP.PLP>
-29.1714

> <Gold.PLP.part.hbond>
-3.0000

> <Gold.PLP.part.metal>
0.0000

> <Gold.PLP.part.buried>
-3.5164

> <Gold.PLP.part.nonpolar>
-22.4116

> <Gold.PLP.part.repulsive>
0.3893

> <Gold.PLP.ligand.clash>
0.5661

> <Gold.PLP.ligand.torsion>
1.9285

> <Gold.PLP.Chemscore.Hbond>
4.0000

> <Gold.PLP.Chemscore.CHOScore>
0.0000

> <Gold.PLP.Chemscore.Metal>
0.0000

> <Gold.Chemscore.Hbonds>
donor molecule, donor type, donor heavy atom, donor atom, acceptor molecule, acceptor atom, score
      L1  H    17    42       P1  7948  1.00
      L1  H    21    48       P1 10186  1.66
      P1  H  6896  6907       L1    14  0.35

> <Gold.PLP.Chemscore.Internal.Correction>
0.7082

> <Gold.Rescore>
     Score         DG    S(hbond)    S(metal)    S(lipo)     H(rot)  DE(clash)    DE(int)     intcor
     12.13     -17.09       2.10        0.00      76.50       1.70       1.83       3.14       ----

> <Gold.Chemscore.Fitness>
12.1286

> <Gold.Chemscore.DG>
-17.0907

> <Gold.Chemscore.ZeroCoef>
-5.4800

> <Gold.Chemscore.Hbond>
2.1013

> <Gold.Chemscore.Metal>
0.0000

> <Gold.Chemscore.Lipo>
76.4951

> <Gold.Chemscore.Internal_Hbond>
0.0000

> <Gold.Chemscore.DEClash>
1.8260

> <Gold.Chemscore.DEInternal>
3.1362

> <Gold.Chemscore.Rot>
1.7021

> <Gold.Chemscore.Internal.Correction>
   9.000000E+99

> <Gold.Chemscore.Hbonds>
donor molecule, donor type, donor heavy atom, donor atom, acceptor molecule, acceptor atom, score
      L1  H    17    42       P1  7948  0.78
      L1  H    21    48       P1 10186  0.78
      P1  H  6896  6907       L1    14  0.01

> <Gold.Chemscore.Hbond.Weighted>
-7.0183

> <Gold.Chemscore.Metal.Weighted>
-0.0000

> <Gold.Chemscore.Lipo.Weighted>
-8.9499

> <Gold.Chemscore.Internal_Hbond.Weighted>
0.0000

> <Gold.Chemscore.DEClash.Weighted>
1.8260

> <Gold.Chemscore.DEInternal.Weighted>
3.1362

> <Gold.Chemscore.Rot.Weighted>
4.3575

> <Gold.Chemscore.Internal.Correction.Weighted>
   9.000000E+99

> <Gold.Protein.RotatedTorsions>
[ 6907 6896 6895 6894 ] final -164.92 input  -60.11 | X-H torsion
[ 7974 7965 7964 7962 ] final -115.52 input  175.53 | X-H torsion
[ 8008 7997 7996 7995 ] final   54.27 input   59.86 | X-H torsion
[ 10167 10162 10161 10158 ] final -157.61 input  -65.29 | X-H torsion
[ 10718 10713 10712 10709 ] final   53.75 input   66.30 | X-H torsion
[ 10763 10752 10751 10750 ] final  -10.66 input  -60.55 | X-H torsion
[ 11005 11000 10999 10996 ] final   43.11 input  -57.11 | X-H torsion

> <Gold.Protein.ActiveResidues>
 VAL166  LYS551  ARG553  GLY616  TRP617  ASP618  TYR619  PRO620  LYS621  CYS622 
 ASP623  PHE694  ASN695  SER759  ASP760  ASP761  ALA762  ILE779  LEU786  VAL792 
 PHE793  MET794  SER795  GLU796  ALA797  LYS798  CYS799  TRP800  GLU811  SER814 

> <Gold.Protein.RotatedAtoms>
  151.4194  133.3703  159.2753 H   0  0  0  0  0  0  0  0  0  0  0  0  # atno 6907 bound_to 6896
  150.9304  134.8721  159.7558 H   0  0  0  0  0  0  0  0  0  0  0  0  # atno 6908 bound_to 6896
  152.5025  134.4138  159.9510 H   0  0  0  0  0  0  0  0  0  0  0  0  # atno 6909 bound_to 6896
  145.1074  140.8590  143.3890 H   0  0  0  0  0  0  0  0  0  0  0  0  # atno 7974 bound_to 7965
  155.4819  140.3468  155.4341 H   0  0  0  0  0  0  0  0  0  0  0  0  # atno 8008 bound_to 7997
  156.1034  140.1441  156.9466 H   0  0  0  0  0  0  0  0  0  0  0  0  # atno 8009 bound_to 7997
  154.4708  140.0901  156.7118 H   0  0  0  0  0  0  0  0  0  0  0  0  # atno 8010 bound_to 7997
  139.6757  143.9668  152.2309 H   0  0  0  0  0  0  0  0  0  0  0  0  # atno 10167 bound_to 10162
  157.5195  130.8555  149.8540 H   0  0  0  0  0  0  0  0  0  0  0  0  # atno 10718 bound_to 10713
  153.4725  135.7017  153.5985 H   0  0  0  0  0  0  0  0  0  0  0  0  # atno 10763 bound_to 10752
  153.4233  135.3820  155.2125 H   0  0  0  0  0  0  0  0  0  0  0  0  # atno 10764 bound_to 10752
  154.8724  135.3933  154.4164 H   0  0  0  0  0  0  0  0  0  0  0  0  # atno 10765 bound_to 10752
  140.1676  134.4263  155.8277 H   0  0  0  0  0  0  0  0  0  0  0  0  # atno 11005 bound_to 11000
  145.0886  139.2907  143.5747 LP  0  0  0  0  0  0  0  0  0  0  0  0  # atno 17320 bound_to 7965
  146.3527  140.0416  142.8642 LP  0  0  0  0  0  0  0  0  0  0  0  0  # atno 17321 bound_to 7965
  139.9444  144.6661  150.8234 LP  0  0  0  0  0  0  0  0  0  0  0  0  # atno 17342 bound_to 10162
  140.7634  143.3223  151.2594 LP  0  0  0  0  0  0  0  0  0  0  0  0  # atno 17343 bound_to 10162
  156.0344  130.3755  150.1601 LP  0  0  0  0  0  0  0  0  0  0  0  0  # atno 17370 bound_to 10713
  156.9789  130.9858  151.3442 LP  0  0  0  0  0  0  0  0  0  0  0  0  # atno 17371 bound_to 10713
  141.2215  133.6941  156.7705 LP  0  0  0  0  0  0  0  0  0  0  0  0  # atno 17394 bound_to 11000
  140.2416  134.8609  157.3579 LP  0  0  0  0  0  0  0  0  0  0  0  0  # atno 17395 bound_to 11000

$$$$
