AV-unprocessed.smi:3303|AV-procd|sdf|12662|dock3
  -GOLD-   2272018593D 1   1.00000     0.00000
 Structure written by MMmdl.
 45 46  0  0  0  0  0  0  0  0  3 V2000
  146.1677  138.8456  151.7551 C   0  0  0  0  0  0  0  0  0  0  0  0
  147.1996  138.8969  152.9016 C   0  0  1  0  0  0  0  0  0  0  0  0
  147.3378  140.3298  153.4577 C   0  0  0  0  0  0  0  0  0  0  0  0
  146.1339  140.7312  154.2313 N   0  3  2  0  0  0  0  0  0  0  0  0
  146.1328  142.1682  154.5888 C   0  0  0  0  0  0  0  0  0  0  0  0
  145.8225  139.8163  155.3679 C   0  0  2  0  0  0  0  0  0  0  0  0
  146.8142  139.9351  156.5459 C   0  0  0  0  0  0  0  0  0  0  0  0
  145.6831  138.3622  154.8661 C   0  0  0  0  0  0  0  0  0  0  0  0
  146.9161  137.9055  154.0554 C   0  0  1  0  0  0  0  0  0  0  0  0
  146.7848  136.5184  153.5487 N   0  3  0  0  0  0  0  0  0  0  0  0
  145.4608  136.1658  152.9940 C   0  0  0  0  0  0  0  0  0  0  0  0
  145.5688  135.7926  151.5092 C   0  0  0  0  0  0  0  0  0  0  0  0
  145.0827  134.3816  151.2381 C   0  0  0  0  0  0  0  0  0  0  0  0
  145.9835  133.3711  150.8391 C   0  0  0  0  0  0  0  0  0  0  0  0
  145.4768  132.0792  150.5967 C   0  0  0  0  0  0  0  0  0  0  0  0
  144.0970  131.8503  150.7597 C   0  0  0  0  0  0  0  0  0  0  0  0
  143.2811  132.9273  151.1598 C   0  0  0  0  0  0  0  0  0  0  0  0
  143.7568  134.1695  151.3951 N   0  0  0  0  0  0  0  0  0  0  0  0
  145.1657  139.1108  152.0919 H   0  0  0  0  0  0  0  0  0  0  0  0
  146.1149  137.8553  151.3029 H   0  0  0  0  0  0  0  0  0  0  0  0
  146.4369  139.5426  150.9608 H   0  0  0  0  0  0  0  0  0  0  0  0
  148.1620  138.6269  152.4640 H   0  0  0  0  0  0  0  0  0  0  0  0
  148.2244  140.4070  154.0879 H   0  0  0  0  0  0  0  0  0  0  0  0
  147.4911  141.0288  152.6342 H   0  0  0  0  0  0  0  0  0  0  0  0
  146.9956  142.4303  155.2018 H   0  0  0  0  0  0  0  0  0  0  0  0
  145.2265  142.4315  155.1351 H   0  0  0  0  0  0  0  0  0  0  0  0
  146.1647  142.7819  153.6879 H   0  0  0  0  0  0  0  0  0  0  0  0
  144.8447  140.1123  155.7510 H   0  0  0  0  0  0  0  0  0  0  0  0
  146.5449  139.2449  157.3458 H   0  0  0  0  0  0  0  0  0  0  0  0
  146.8078  140.9346  156.9806 H   0  0  0  0  0  0  0  0  0  0  0  0
  147.8390  139.7071  156.2549 H   0  0  0  0  0  0  0  0  0  0  0  0
  145.5177  137.7066  155.7209 H   0  0  0  0  0  0  0  0  0  0  0  0
  144.7866  138.2767  154.2512 H   0  0  0  0  0  0  0  0  0  0  0  0
  147.7868  137.9167  154.7126 H   0  0  0  0  0  0  0  0  0  0  0  0
  147.4917  136.3548  152.8460 H   0  0  0  0  0  0  0  0  0  0  0  0
  145.0461  135.3282  153.5568 H   0  0  0  0  0  0  0  0  0  0  0  0
  144.7749  137.0051  153.1086 H   0  0  0  0  0  0  0  0  0  0  0  0
  144.9914  136.4938  150.9046 H   0  0  0  0  0  0  0  0  0  0  0  0
  146.6036  135.8788  151.1746 H   0  0  0  0  0  0  0  0  0  0  0  0
  147.0375  133.5762  150.7217 H   0  0  0  0  0  0  0  0  0  0  0  0
  146.1342  131.2789  150.2909 H   0  0  0  0  0  0  0  0  0  0  0  0
  143.6738  130.8728  150.5821 H   0  0  0  0  0  0  0  0  0  0  0  0
  142.2186  132.7874  151.2937 H   0  0  0  0  0  0  0  0  0  0  0  0
  146.9574  135.8943  154.3242 H   0  0  0  0  0  0  0  0  0  0  0  0
  145.3603  140.6244  153.5905 H   0  0  0  0  0  0  0  0  0  0  0  0
  1  2  1  0  0  0  0
  1 19  1  0  0  0  0
  1 20  1  0  0  0  0
  1 21  1  0  0  0  0
  2  9  1  0  0  0  0
  2  3  1  0  0  0  0
  2 22  1  0  0  0  0
  3  4  1  0  0  0  0
  3 23  1  0  0  0  0
  3 24  1  0  0  0  0
  4  5  1  0  0  0  0
  4  6  1  0  0  0  0
  4 45  1  0  0  0  0
  5 25  1  0  0  0  0
  5 26  1  0  0  0  0
  5 27  1  0  0  0  0
  6  7  1  0  0  0  0
  6  8  1  0  0  0  0
  6 28  1  0  0  0  0
  7 29  1  0  0  0  0
  7 30  1  0  0  0  0
  7 31  1  0  0  0  0
  8  9  1  0  0  0  0
  8 32  1  0  0  0  0
  8 33  1  0  0  0  0
  9 10  1  0  0  0  0
  9 34  1  0  0  0  0
 10 11  1  0  0  0  0
 10 35  1  0  0  0  0
 10 44  1  0  0  0  0
 11 12  1  0  0  0  0
 11 36  1  0  0  0  0
 11 37  1  0  0  0  0
 12 13  1  0  0  0  0
 12 38  1  0  0  0  0
 12 39  1  0  0  0  0
 13 18  1  0  0  0  0
 13 14  2  0  0  0  0
 14 15  1  0  0  0  0
 14 40  1  0  0  0  0
 15 16  2  0  0  0  0
 15 41  1  0  0  0  0
 16 17  1  0  0  0  0
 16 42  1  0  0  0  0
 17 18  2  0  0  0  0
 17 43  1  0  0  0  0
M  CHG  1   4   1
M  CHG  1  10   1
M  END
> <s_m_source_file>
AV-unprocessed.smi

> <i_m_source_file_index>
3303

> <i_lp_mmshare_version>
43012

> <i_f3d_flags>
0

> <s_epik_input>
W0NIM11bQ0BASF0xW0NIMl1OKFtDSDNdKVtDQEBIXShbQ0gzXSlbQ0gyXVtDQEhdMVtOSF1bQ0gyXVtDSDJdYzJbY0hdW2NIXVtjSF1bY0hdbjI=

> <s_epik_cmdline>
J2VwaWtfcHl0aG9uJywgJy1waCcsICc3LjAnLCAnLXRuJywgJzgnLCAnLW1hJywgJzIwMCcsICctbWV0YWxfYmluZGluZycsICctaW1hZScsICc8aW5maWxlLm1hZT4nLCAnLW9tYWUnLCAnPG91dGZpbGUubWFlPic=

> <r_epik_Ionization_Penalty>
0.0769462

> <r_epik_Ionization_Penalty_Charging>
0.0759813

> <r_epik_Ionization_Penalty_Neutral>
0.000964829

> <r_epik_State_Penalty>
0.0654373

> <r_epik_Charging_Adjusted_Penalty>
0.141419

> <i_epik_Tot_Q>
2

> <i_epik_Tot_abs_Q>
2

> <r_epik_Metal_State_Penalty>
0.0656439

> <b_epik_Metal_Only>
0

> <s_lp_Force_Field>
OPLS_2005

> <r_lp_Energy>
31.8094

> <b_lp_Chiralities_Consistent>
1

> <s_lp_Variant>
AV-unprocessed.smi:3303-6

> <Gold.Version>
5.8.1

> <Gold.Id.Protein>
6NUR|6NUR_protein|mol2

> <Gold.PLP.Fitness>
43.6806

> <Gold.PLP.PLP>
-30.8628

> <Gold.PLP.part.hbond>
-2.0000

> <Gold.PLP.part.metal>
0.0000

> <Gold.PLP.part.buried>
-0.5187

> <Gold.PLP.part.nonpolar>
-29.3391

> <Gold.PLP.part.repulsive>
0.1768

> <Gold.PLP.ligand.clash>
0.0000

> <Gold.PLP.ligand.torsion>
0.9946

> <Gold.PLP.Chemscore.Hbond>
4.0000

> <Gold.PLP.Chemscore.CHOScore>
0.9305

> <Gold.PLP.Chemscore.Metal>
0.0000

> <Gold.Chemscore.Hbonds>
donor molecule, donor type, donor heavy atom, donor atom, acceptor molecule, acceptor atom, score
      L1  H     4    45       P1 10175  2.00
      L1  H    10    35       P1  7948  2.00
      L1  C    17    43       P1 10186  0.36

> <Gold.PLP.Chemscore.Internal.Correction>
0.0156

> <Gold.Rescore>
     Score         DG    S(hbond)    S(metal)    S(lipo)     H(rot)  DE(clash)    DE(int)     intcor
     17.05     -18.29       1.96        0.00      83.71       1.37       0.03       1.21       ----

> <Gold.Chemscore.Fitness>
17.0458

> <Gold.Chemscore.DG>
-18.2933

> <Gold.Chemscore.ZeroCoef>
-5.4800

> <Gold.Chemscore.Hbond>
1.9575

> <Gold.Chemscore.Metal>
0.0000

> <Gold.Chemscore.Lipo>
83.7074

> <Gold.Chemscore.Internal_Hbond>
0.0000

> <Gold.Chemscore.DEClash>
0.0327

> <Gold.Chemscore.DEInternal>
1.2147

> <Gold.Chemscore.Rot>
1.3744

> <Gold.Chemscore.Internal.Correction>
   9.000000E+99

> <Gold.Chemscore.Hbonds>
donor molecule, donor type, donor heavy atom, donor atom, acceptor molecule, acceptor atom, score
      L1  H     4    45       P1 10175  0.90
      L1  H    10    35       P1  7948  1.00

> <Gold.Chemscore.Hbond.Weighted>
-6.5380

> <Gold.Chemscore.Metal.Weighted>
-0.0000

> <Gold.Chemscore.Lipo.Weighted>
-9.7938

> <Gold.Chemscore.Internal_Hbond.Weighted>
0.0000

> <Gold.Chemscore.DEClash.Weighted>
0.0327

> <Gold.Chemscore.DEInternal.Weighted>
1.2147

> <Gold.Chemscore.Rot.Weighted>
3.5185

> <Gold.Chemscore.Internal.Correction.Weighted>
   9.000000E+99

> <Gold.Protein.RotatedTorsions>
[ 6907 6896 6895 6894 ] final  -81.79 input  -60.11 | X-H torsion
[ 7974 7965 7964 7962 ] final  -91.38 input  175.53 | X-H torsion
[ 8008 7997 7996 7995 ] final -165.33 input   59.86 | X-H torsion
[ 10167 10162 10161 10158 ] final -131.50 input  -65.29 | X-H torsion
[ 10718 10713 10712 10709 ] final   63.37 input   66.30 | X-H torsion
[ 10763 10752 10751 10750 ] final  -40.21 input  -60.55 | X-H torsion
[ 11005 11000 10999 10996 ] final -149.16 input  -57.11 | X-H torsion

> <Gold.Protein.ActiveResidues>
 VAL166  LYS551  ARG553  GLY616  TRP617  ASP618  TYR619  PRO620  LYS621  CYS622 
 ASP623  PHE694  ASN695  SER759  ASP760  ASP761  ALA762  ILE779  LEU786  VAL792 
 PHE793  MET794  SER795  GLU796  ALA797  LYS798  CYS799  TRP800  GLU811  SER814 

> <Gold.Protein.RotatedAtoms>
  150.6906  134.3764  159.5014 H   0  0  0  0  0  0  0  0  0  0  0  0  # atno 6907 bound_to 6896
  152.1572  134.8938  160.0553 H   0  0  0  0  0  0  0  0  0  0  0  0  # atno 6908 bound_to 6896
  152.0013  133.3792  159.4220 H   0  0  0  0  0  0  0  0  0  0  0  0  # atno 6909 bound_to 6896
  145.4139  140.9547  143.2219 H   0  0  0  0  0  0  0  0  0  0  0  0  # atno 7974 bound_to 7965
  155.8483  140.0959  157.1691 H   0  0  0  0  0  0  0  0  0  0  0  0  # atno 8008 bound_to 7997
  154.3984  140.1388  156.3875 H   0  0  0  0  0  0  0  0  0  0  0  0  # atno 8009 bound_to 7997
  155.7989  140.3453  155.5394 H   0  0  0  0  0  0  0  0  0  0  0  0  # atno 8010 bound_to 7997
  139.9183  143.6413  152.2560 H   0  0  0  0  0  0  0  0  0  0  0  0  # atno 10167 bound_to 10162
  157.5966  130.9101  149.9707 H   0  0  0  0  0  0  0  0  0  0  0  0  # atno 10718 bound_to 10713
  153.9422  135.6760  153.4744 H   0  0  0  0  0  0  0  0  0  0  0  0  # atno 10763 bound_to 10752
  153.0926  135.4867  154.8715 H   0  0  0  0  0  0  0  0  0  0  0  0  # atno 10764 bound_to 10752
  154.7371  135.3152  154.8751 H   0  0  0  0  0  0  0  0  0  0  0  0  # atno 10765 bound_to 10752
  140.7536  134.3378  157.5119 H   0  0  0  0  0  0  0  0  0  0  0  0  # atno 11005 bound_to 11000
  144.8290  139.5660  143.6952 LP  0  0  0  0  0  0  0  0  0  0  0  0  # atno 17320 bound_to 7965
  146.2691  139.6591  142.9309 LP  0  0  0  0  0  0  0  0  0  0  0  0  # atno 17321 bound_to 7965
  139.6884  144.7649  151.1483 LP  0  0  0  0  0  0  0  0  0  0  0  0  # atno 17342 bound_to 10162
  140.7669  143.5625  150.9084 LP  0  0  0  0  0  0  0  0  0  0  0  0  # atno 17343 bound_to 10162
  156.1030  130.3654  150.0184 LP  0  0  0  0  0  0  0  0  0  0  0  0  # atno 17370 bound_to 10713
  156.8296  130.9387  151.3638 LP  0  0  0  0  0  0  0  0  0  0  0  0  # atno 17371 bound_to 10713
  139.8783  134.9158  156.3139 LP  0  0  0  0  0  0  0  0  0  0  0  0  # atno 17394 bound_to 11000
  140.9728  133.7317  156.0558 LP  0  0  0  0  0  0  0  0  0  0  0  0  # atno 17395 bound_to 11000

$$$$
