AV-unprocessed.smi:102|AV-procd|sdf|961|dock5
  -GOLD-   2262017503D 1   1.00000     0.00000
 Structure written by MMmdl.
 43 44  0  0  0  0  0  0  0  0  2 V2000
  145.9030  143.3304  161.5699 C   0  0  0  0  0  0  0  0  0  0  0  0
  145.8418  143.3844  160.0494 C   0  0  0  0  0  0  0  0  0  0  0  0
  145.0178  144.0878  159.4650 O   0  0  0  0  0  0  0  0  0  0  0  0
  146.7662  142.5964  159.4717 O   0  0  0  0  0  0  0  0  0  0  0  0
  146.8447  142.4937  158.0562 C   0  0  0  0  0  0  0  0  0  0  0  0
  148.0084  141.5806  157.6419 C   0  0  2  0  0  0  0  0  0  0  0  0
  149.1513  141.8247  158.4548 O   0  0  0  0  0  0  0  0  0  0  0  0
  150.3105  141.4225  157.7836 C   0  0  1  0  0  0  0  0  0  0  0  0
  150.8679  140.1738  158.4413 N   0  0  0  0  0  0  0  0  0  0  0  0
  150.0897  139.0423  158.6260 C   0  0  0  0  0  0  0  0  0  0  0  0
  150.5966  137.9327  159.2008 C   0  0  0  0  0  0  0  0  0  0  0  0
  149.8177  136.8497  159.3657 F   0  0  0  0  0  0  0  0  0  0  0  0
  151.9910  137.9170  159.6391 C   0  0  0  0  0  0  0  0  0  0  0  0
  152.4471  136.9016  160.1623 O   0  0  0  0  0  0  0  0  0  0  0  0
  152.7337  139.0451  159.4446 N   0  5  0  0  0  0  0  0  0  0  0  0
  152.2260  140.1697  158.8608 C   0  0  0  0  0  0  0  0  0  0  0  0
  152.8898  141.1885  158.6679 O   0  0  0  0  0  0  0  0  0  0  0  0
  149.9237  141.2045  156.3016 C   0  0  1  0  0  0  0  0  0  0  0  0
  149.8269  139.8110  155.9984 O   0  0  0  0  0  0  0  0  0  0  0  0
  150.8119  139.1782  155.3382 C   0  0  0  0  0  0  0  0  0  0  0  0
  150.4572  137.7324  155.0187 C   0  0  0  0  0  0  0  0  0  0  0  0
  151.8916  139.6638  155.0012 O   0  0  0  0  0  0  0  0  0  0  0  0
  148.5547  141.8756  156.2495 C   0  0  1  0  0  0  0  0  0  0  0  0
  147.7111  141.3680  155.2217 O   0  0  0  0  0  0  0  0  0  0  0  0
  148.2089  141.1288  153.9962 C   0  0  0  0  0  0  0  0  0  0  0  0
  147.1885  140.4768  153.0731 C   0  0  0  0  0  0  0  0  0  0  0  0
  149.3528  141.3786  153.6165 O   0  0  0  0  0  0  0  0  0  0  0  0
  145.7081  142.3172  161.9211 H   0  0  0  0  0  0  0  0  0  0  0  0
  145.1594  143.9975  162.0063 H   0  0  0  0  0  0  0  0  0  0  0  0
  146.8890  143.6363  161.9200 H   0  0  0  0  0  0  0  0  0  0  0  0
  145.9071  142.0512  157.7191 H   0  0  0  0  0  0  0  0  0  0  0  0
  146.9154  143.4720  157.5786 H   0  0  0  0  0  0  0  0  0  0  0  0
  147.7199  140.5300  157.7108 H   0  0  0  0  0  0  0  0  0  0  0  0
  151.0673  142.1954  157.9279 H   0  0  0  0  0  0  0  0  0  0  0  0
  149.0582  139.0292  158.3090 H   0  0  0  0  0  0  0  0  0  0  0  0
  150.6495  141.7120  155.6646 H   0  0  0  0  0  0  0  0  0  0  0  0
  149.3808  137.6200  154.8871 H   0  0  0  0  0  0  0  0  0  0  0  0
  150.7763  137.0807  155.8322 H   0  0  0  0  0  0  0  0  0  0  0  0
  150.9526  137.4121  154.1020 H   0  0  0  0  0  0  0  0  0  0  0  0
  148.6817  142.9552  156.1512 H   0  0  0  0  0  0  0  0  0  0  0  0
  146.2607  141.0491  153.0664 H   0  0  0  0  0  0  0  0  0  0  0  0
  146.9701  139.4634  153.4103 H   0  0  0  0  0  0  0  0  0  0  0  0
  147.5711  140.4269  152.0535 H   0  0  0  0  0  0  0  0  0  0  0  0
  1  2  1  0  0  0  0
  1 28  1  0  0  0  0
  1 29  1  0  0  0  0
  1 30  1  0  0  0  0
  2  3  2  0  0  0  0
  2  4  1  0  0  0  0
  4  5  1  0  0  0  0
  5  6  1  0  0  0  0
  5 31  1  0  0  0  0
  5 32  1  0  0  0  0
  6 23  1  0  0  0  0
  6  7  1  0  0  0  0
  6 33  1  0  0  0  0
  7  8  1  0  0  0  0
  8  9  1  0  0  0  0
  8 18  1  0  0  0  0
  8 34  1  0  0  0  0
  9 16  1  0  0  0  0
  9 10  1  0  0  0  0
 10 11  2  0  0  0  0
 10 35  1  0  0  0  0
 11 12  1  0  0  0  0
 11 13  1  0  0  0  0
 13 14  2  0  0  0  0
 13 15  1  0  0  0  0
 15 16  1  0  0  0  0
 16 17  2  0  0  0  0
 18 19  1  0  0  0  0
 18 23  1  0  0  0  0
 18 36  1  0  0  0  0
 19 20  1  0  0  0  0
 20 21  1  0  0  0  0
 20 22  2  0  0  0  0
 21 37  1  0  0  0  0
 21 38  1  0  0  0  0
 21 39  1  0  0  0  0
 23 24  1  0  0  0  0
 23 40  1  0  0  0  0
 24 25  1  0  0  0  0
 25 26  1  0  0  0  0
 25 27  2  0  0  0  0
 26 41  1  0  0  0  0
 26 42  1  0  0  0  0
 26 43  1  0  0  0  0
M  CHG  1  15  -1
M  END
> <s_m_source_file>
AV-unprocessed.smi

> <i_m_source_file_index>
102

> <i_lp_mmshare_version>
43012

> <i_f3d_flags>
0

> <s_epik_input>
W0NIM11DKD1PKU9bQ0gyXVtDQEBIXTFPW0NASF0oW0NAQEhdKE9DKD1PKVtDSDNdKVtDQEhdMU9DKD1PKVtDSDNdKW4yW2NIXWMoRiljKD1PKVtuSF1jMj1P

> <s_epik_cmdline>
J2VwaWtfcHl0aG9uJywgJy1waCcsICc3LjAnLCAnLXRuJywgJzgnLCAnLW1hJywgJzIwMCcsICctbWV0YWxfYmluZGluZycsICctaW1hZScsICc8aW5maWxlLm1hZT4nLCAnLW9tYWUnLCAnPG91dGZpbGUubWFlPic=

> <r_epik_Ionization_Penalty>
1.40304

> <r_epik_Ionization_Penalty_Charging>
1.43915e-08

> <r_epik_Ionization_Penalty_Neutral>
1.40304

> <r_epik_State_Penalty>
1.48536

> <r_epik_Charging_Adjusted_Penalty>
1.48536

> <i_epik_Tot_Q>
-1

> <i_epik_Tot_abs_Q>
1

> <r_epik_Metal_State_Penalty>
0.00663881

> <b_epik_Metal_Only>
0

> <s_epik_Chemistry_Notes>
This compound has an ester and may undergo hydrolysis at high or low pH. This compound contains an acetal/aminal-like group ( X-CH(R)-Y where X, Y are N, S, or O) that may be acid/base labile, releasing an aldehyde.

> <s_lp_Force_Field>
OPLS_2005

> <r_lp_Energy>
23.8996

> <b_lp_Chiralities_Consistent>
1

> <s_lp_Variant>
AV-unprocessed.smi:102-17

> <Gold.Version>
5.8.1

> <Gold.Id.Protein>
6NUR|6NUR_protein|mol2

> <Gold.PLP.Fitness>
40.4161

> <Gold.PLP.PLP>
-33.1593

> <Gold.PLP.part.hbond>
-6.6182

> <Gold.PLP.part.metal>
0.0000

> <Gold.PLP.part.buried>
-1.8013

> <Gold.PLP.part.nonpolar>
-27.5490

> <Gold.PLP.part.repulsive>
2.4038

> <Gold.PLP.ligand.clash>
0.0000

> <Gold.PLP.ligand.torsion>
1.0510

> <Gold.PLP.Chemscore.Hbond>
2.8642

> <Gold.PLP.Chemscore.CHOScore>
0.0000

> <Gold.PLP.Chemscore.Metal>
0.0000

> <Gold.Chemscore.Hbonds>
donor molecule, donor type, donor heavy atom, donor atom, acceptor molecule, acceptor atom, score
      P1  H  6896  6909       L1    14  1.00
      P1  H  7989  7998       L1    22  0.98
      P1  H  8011  8017       L1    27  0.88

> <Gold.PLP.Chemscore.Internal.Correction>
0.7662

> <Gold.Rescore>
     Score         DG    S(hbond)    S(metal)    S(lipo)     H(rot)  DE(clash)    DE(int)     intcor
      3.15      -9.65       2.88        0.00      40.87       4.00       2.09       4.40       ----

> <Gold.Chemscore.Fitness>
3.1508

> <Gold.Chemscore.DG>
-9.6484

> <Gold.Chemscore.ZeroCoef>
-5.4800

> <Gold.Chemscore.Hbond>
2.8784

> <Gold.Chemscore.Metal>
0.0000

> <Gold.Chemscore.Lipo>
40.8705

> <Gold.Chemscore.Internal_Hbond>
0.0000

> <Gold.Chemscore.DEClash>
2.0927

> <Gold.Chemscore.DEInternal>
4.4049

> <Gold.Chemscore.Rot>
3.9951

> <Gold.Chemscore.Internal.Correction>
   9.000000E+99

> <Gold.Chemscore.Hbonds>
donor molecule, donor type, donor heavy atom, donor atom, acceptor molecule, acceptor atom, score
      P1  H  6896  6909       L1    14  1.00
      P1  H  7989  7998       L1    22  0.73
      P1  H  8011  8017       L1    27  0.86

> <Gold.Chemscore.Hbond.Weighted>
-9.6140

> <Gold.Chemscore.Metal.Weighted>
-0.0000

> <Gold.Chemscore.Lipo.Weighted>
-4.7818

> <Gold.Chemscore.Internal_Hbond.Weighted>
0.0000

> <Gold.Chemscore.DEClash.Weighted>
2.0927

> <Gold.Chemscore.DEInternal.Weighted>
4.4049

> <Gold.Chemscore.Rot.Weighted>
10.2274

> <Gold.Chemscore.Internal.Correction.Weighted>
   9.000000E+99

> <Gold.Protein.RotatedTorsions>
[ 6907 6896 6895 6894 ] final  135.00 input  -60.11 | X-H torsion
[ 7974 7965 7964 7962 ] final  162.97 input  175.53 | X-H torsion
[ 8008 7997 7996 7995 ] final  -93.18 input   59.86 | X-H torsion
[ 10167 10162 10161 10158 ] final -173.81 input  -65.29 | X-H torsion
[ 10718 10713 10712 10709 ] final   91.25 input   66.30 | X-H torsion
[ 10763 10752 10751 10750 ] final -136.49 input  -60.55 | X-H torsion
[ 11005 11000 10999 10996 ] final  -57.58 input  -57.11 | X-H torsion

> <Gold.Protein.ActiveResidues>
 VAL166  LYS551  ARG553  GLY616  TRP617  ASP618  TYR619  PRO620  LYS621  CYS622 
 ASP623  PHE694  ASN695  SER759  ASP760  ASP761  ALA762  ILE779  LEU786  VAL792 
 PHE793  MET794  SER795  GLU796  ALA797  LYS798  CYS799  TRP800  GLU811  SER814 

> <Gold.Protein.RotatedAtoms>
  152.3052  133.5696  159.5644 H   0  0  0  0  0  0  0  0  0  0  0  0  # atno 6907 bound_to 6896
  150.7296  134.0233  159.3717 H   0  0  0  0  0  0  0  0  0  0  0  0  # atno 6908 bound_to 6896
  151.8130  135.0675  160.0466 H   0  0  0  0  0  0  0  0  0  0  0  0  # atno 6909 bound_to 6896
  144.7611  139.8116  143.6332 H   0  0  0  0  0  0  0  0  0  0  0  0  # atno 7974 bound_to 7965
  154.7324  140.0501  157.0738 H   0  0  0  0  0  0  0  0  0  0  0  0  # atno 8008 bound_to 7997
  155.0285  140.3155  155.4748 H   0  0  0  0  0  0  0  0  0  0  0  0  # atno 8009 bound_to 7997
  156.2844  140.2154  156.5405 H   0  0  0  0  0  0  0  0  0  0  0  0  # atno 8010 bound_to 7997
  139.5668  144.1737  152.1324 H   0  0  0  0  0  0  0  0  0  0  0  0  # atno 10167 bound_to 10162
  157.6960  131.0400  150.3701 H   0  0  0  0  0  0  0  0  0  0  0  0  # atno 10718 bound_to 10713
  154.8682  135.3671  154.5069 H   0  0  0  0  0  0  0  0  0  0  0  0  # atno 10763 bound_to 10752
  153.5707  135.7021  153.5511 H   0  0  0  0  0  0  0  0  0  0  0  0  # atno 10764 bound_to 10752
  153.3545  135.4063  155.1634 H   0  0  0  0  0  0  0  0  0  0  0  0  # atno 10765 bound_to 10752
  141.1170  133.6610  156.4790 H   0  0  0  0  0  0  0  0  0  0  0  0  # atno 11005 bound_to 11000
  146.1675  139.4812  142.9949 LP  0  0  0  0  0  0  0  0  0  0  0  0  # atno 17320 bound_to 7965
  145.6616  141.0239  143.1706 LP  0  0  0  0  0  0  0  0  0  0  0  0  # atno 17321 bound_to 7965
  140.1261  144.5330  150.6832 LP  0  0  0  0  0  0  0  0  0  0  0  0  # atno 17342 bound_to 10162
  140.6951  143.2399  151.5022 LP  0  0  0  0  0  0  0  0  0  0  0  0  # atno 17343 bound_to 10162
  156.4127  130.3937  149.6880 LP  0  0  0  0  0  0  0  0  0  0  0  0  # atno 17370 bound_to 10713
  156.4159  130.7745  151.2760 LP  0  0  0  0  0  0  0  0  0  0  0  0  # atno 17371 bound_to 10713
  140.4616  134.6836  157.5088 LP  0  0  0  0  0  0  0  0  0  0  0  0  # atno 17394 bound_to 11000
  140.0100  134.6705  155.9395 LP  0  0  0  0  0  0  0  0  0  0  0  0  # atno 17395 bound_to 11000

$$$$
