AV-unprocessed.smi:2149|AV-procd|sdf|8753|dock10
  -GOLD-   2272011533D 1   1.00000     0.00000
 Structure written by MMmdl.
 42 43  0  0  0  0  0  0  0  0  1 V2000
  151.3686  138.2540  156.7930 C   0  0  0  0  0  0  0  0  0  0  0  0
  151.6519  138.6115  155.0101 S   0  0  0  0  0  0  0  0  0  0  0  0
  152.7472  139.5896  154.9220 O   0  0  0  0  0  0  0  0  0  0  0  0
  151.7385  137.3430  154.2710 O   0  0  0  0  0  0  0  0  0  0  0  0
  150.1880  139.4075  154.5268 N   0  0  0  0  0  0  0  0  0  0  0  0
  149.9166  140.7416  155.1000 C   0  0  0  0  0  0  0  0  0  0  0  0
  148.8380  141.4901  154.3007 C   0  0  0  0  0  0  0  0  0  0  0  0
  147.5614  140.6540  154.1766 C   0  0  0  0  0  0  0  0  0  0  0  0
  147.9018  139.3042  153.5254 C   0  0  2  0  0  0  0  0  0  0  0  0
  146.6459  138.4365  153.3673 C   0  0  0  0  0  0  0  0  0  0  0  0
  145.6740  138.6089  154.1033 O   0  0  0  0  0  0  0  0  0  0  0  0
  146.6817  137.5053  152.4014 N   0  0  0  0  0  0  0  0  0  0  0  0
  145.6011  136.5784  152.0860 C   0  0  0  0  0  0  0  0  0  0  0  0
  145.8509  135.8481  150.7560 C   0  0  0  0  0  0  0  0  0  0  0  0
  145.2941  134.4367  150.7635 C   0  0  0  0  0  0  0  0  0  0  0  0
  146.1487  133.3249  150.6036 C   0  0  0  0  0  0  0  0  0  0  0  0
  145.5810  132.0359  150.6094 C   0  0  0  0  0  0  0  0  0  0  0  0
  144.1879  131.9090  150.7724 C   0  0  0  0  0  0  0  0  0  0  0  0
  143.4213  133.0819  150.9234 C   0  0  0  0  0  0  0  0  0  0  0  0
  143.9557  134.3222  150.9190 N   0  0  0  0  0  0  0  0  0  0  0  0
  148.9826  138.5710  154.3482 C   0  0  0  0  0  0  0  0  0  0  0  0
  152.2767  137.8316  157.2224 H   0  0  0  0  0  0  0  0  0  0  0  0
  150.5560  137.5383  156.9081 H   0  0  0  0  0  0  0  0  0  0  0  0
  151.1195  139.1779  157.3143 H   0  0  0  0  0  0  0  0  0  0  0  0
  149.6027  140.6226  156.1379 H   0  0  0  0  0  0  0  0  0  0  0  0
  150.8308  141.3329  155.1147 H   0  0  0  0  0  0  0  0  0  0  0  0
  148.6134  142.4421  154.7824 H   0  0  0  0  0  0  0  0  0  0  0  0
  149.2189  141.7298  153.3069 H   0  0  0  0  0  0  0  0  0  0  0  0
  147.1226  140.5043  155.1645 H   0  0  0  0  0  0  0  0  0  0  0  0
  146.8223  141.1916  153.5811 H   0  0  0  0  0  0  0  0  0  0  0  0
  148.3096  139.4988  152.5313 H   0  0  0  0  0  0  0  0  0  0  0  0
  147.5206  137.4336  151.8441 H   0  0  0  0  0  0  0  0  0  0  0  0
  145.4690  135.8631  152.8997 H   0  0  0  0  0  0  0  0  0  0  0  0
  144.6759  137.1519  152.0238 H   0  0  0  0  0  0  0  0  0  0  0  0
  145.3998  136.4061  149.9342 H   0  0  0  0  0  0  0  0  0  0  0  0
  146.9202  135.8033  150.5443 H   0  0  0  0  0  0  0  0  0  0  0  0
  147.2137  133.4543  150.4779 H   0  0  0  0  0  0  0  0  0  0  0  0
  146.2027  131.1608  150.4897 H   0  0  0  0  0  0  0  0  0  0  0  0
  143.7181  130.9368  150.7811 H   0  0  0  0  0  0  0  0  0  0  0  0
  142.3503  133.0223  151.0501 H   0  0  0  0  0  0  0  0  0  0  0  0
  149.2517  137.6450  153.8398 H   0  0  0  0  0  0  0  0  0  0  0  0
  148.6038  138.2910  155.3327 H   0  0  0  0  0  0  0  0  0  0  0  0
  1  2  1  0  0  0  0
  1 22  1  0  0  0  0
  1 23  1  0  0  0  0
  1 24  1  0  0  0  0
  2  3  2  0  0  0  0
  2  4  2  0  0  0  0
  2  5  1  0  0  0  0
  5 21  1  0  0  0  0
  5  6  1  0  0  0  0
  6  7  1  0  0  0  0
  6 25  1  0  0  0  0
  6 26  1  0  0  0  0
  7  8  1  0  0  0  0
  7 27  1  0  0  0  0
  7 28  1  0  0  0  0
  8  9  1  0  0  0  0
  8 29  1  0  0  0  0
  8 30  1  0  0  0  0
  9 10  1  0  0  0  0
  9 21  1  0  0  0  0
  9 31  1  0  0  0  0
 10 11  2  0  0  0  0
 10 12  1  0  0  0  0
 12 13  1  0  0  0  0
 12 32  1  0  0  0  0
 13 14  1  0  0  0  0
 13 33  1  0  0  0  0
 13 34  1  0  0  0  0
 14 15  1  0  0  0  0
 14 35  1  0  0  0  0
 14 36  1  0  0  0  0
 15 20  1  0  0  0  0
 15 16  2  0  0  0  0
 16 17  1  0  0  0  0
 16 37  1  0  0  0  0
 17 18  2  0  0  0  0
 17 38  1  0  0  0  0
 18 19  1  0  0  0  0
 18 39  1  0  0  0  0
 19 20  2  0  0  0  0
 19 40  1  0  0  0  0
 21 41  1  0  0  0  0
 21 42  1  0  0  0  0
M  END
> <s_m_source_file>
AV-unprocessed.smi

> <i_m_source_file_index>
2149

> <i_lp_mmshare_version>
43012

> <i_f3d_flags>
0

> <s_epik_input>
W0NIM11TKD1PKSg9TylOMVtDSDJdW0NIMl1bQ0gyXVtDQEhdKFtDSDJdMSlDKD1PKVtOSF1bQ0gyXVtDSDJdYzJbY0hdW2NIXVtjSF1bY0hdbjI=

> <s_epik_cmdline>
J2VwaWtfcHl0aG9uJywgJy1waCcsICc3LjAnLCAnLXRuJywgJzgnLCAnLW1hJywgJzIwMCcsICctbWV0YWxfYmluZGluZycsICctaW1hZScsICc8aW5maWxlLm1hZT4nLCAnLW9tYWUnLCAnPG91dGZpbGUubWFlPic=

> <r_epik_Ionization_Penalty>
0.0273806

> <r_epik_Ionization_Penalty_Charging>
0

> <r_epik_Ionization_Penalty_Neutral>
0.0273806

> <r_epik_State_Penalty>
0.0224071

> <r_epik_Charging_Adjusted_Penalty>
0.0224071

> <i_epik_Tot_Q>
0

> <i_epik_Tot_abs_Q>
0

> <r_epik_Metal_State_Penalty>
0.0214134

> <b_epik_Metal_Only>
0

> <s_lp_Force_Field>
OPLS_2005

> <r_lp_Energy>
5.16122

> <b_lp_Chiralities_Consistent>
1

> <s_lp_Variant>
AV-unprocessed.smi:2149-2

> <Gold.Version>
5.8.1

> <Gold.Id.Protein>
6NUR|6NUR_protein|mol2

> <Gold.PLP.Fitness>
46.8153

> <Gold.PLP.PLP>
-37.7657

> <Gold.PLP.part.hbond>
-4.1232

> <Gold.PLP.part.metal>
0.0000

> <Gold.PLP.part.buried>
-4.2018

> <Gold.PLP.part.nonpolar>
-30.3206

> <Gold.PLP.part.repulsive>
0.6835

> <Gold.PLP.ligand.clash>
0.0000

> <Gold.PLP.ligand.torsion>
1.3058

> <Gold.PLP.Chemscore.Hbond>
2.8891

> <Gold.PLP.Chemscore.CHOScore>
0.7373

> <Gold.PLP.Chemscore.Metal>
0.0000

> <Gold.Chemscore.Hbonds>
donor molecule, donor type, donor heavy atom, donor atom, acceptor molecule, acceptor atom, score
      L1  H    12    32       P1  7948  0.69
      P1  H  7989  7998       L1     3  0.24
      P1  H  7997  8010       L1     3  0.94
      P1  H 10752 10765       L1     4  0.93
      L1  C    19    40       P1 10186  0.74

> <Gold.PLP.Chemscore.Internal.Correction>
0.7819

> <Gold.Rescore>
     Score         DG    S(hbond)    S(metal)    S(lipo)     H(rot)  DE(clash)    DE(int)     intcor
     18.53     -19.89       2.69        0.00      86.71       1.84       0.06       1.30       ----

> <Gold.Chemscore.Fitness>
18.5319

> <Gold.Chemscore.DG>
-19.8923

> <Gold.Chemscore.ZeroCoef>
-5.4800

> <Gold.Chemscore.Hbond>
2.6895

> <Gold.Chemscore.Metal>
0.0000

> <Gold.Chemscore.Lipo>
86.7074

> <Gold.Chemscore.Internal_Hbond>
0.0000

> <Gold.Chemscore.DEClash>
0.0621

> <Gold.Chemscore.DEInternal>
1.2983

> <Gold.Chemscore.Rot>
1.8419

> <Gold.Chemscore.Internal.Correction>
   9.000000E+99

> <Gold.Chemscore.Hbonds>
donor molecule, donor type, donor heavy atom, donor atom, acceptor molecule, acceptor atom, score
      L1  H    12    32       P1  7948  0.68
      P1  H  7989  7998       L1     3  0.02
      P1  H  7997  8010       L1     3  0.90
      P1  H 10752 10765       L1     4  0.86

> <Gold.Chemscore.Hbond.Weighted>
-8.9829

> <Gold.Chemscore.Metal.Weighted>
-0.0000

> <Gold.Chemscore.Lipo.Weighted>
-10.1448

> <Gold.Chemscore.Internal_Hbond.Weighted>
0.0000

> <Gold.Chemscore.DEClash.Weighted>
0.0621

> <Gold.Chemscore.DEInternal.Weighted>
1.2983

> <Gold.Chemscore.Rot.Weighted>
4.7153

> <Gold.Chemscore.Internal.Correction.Weighted>
   9.000000E+99

> <Gold.Protein.RotatedTorsions>
[ 6907 6896 6895 6894 ] final  122.57 input  -60.11 | X-H torsion
[ 7974 7965 7964 7962 ] final -120.10 input  175.53 | X-H torsion
[ 8008 7997 7996 7995 ] final   99.99 input   59.86 | X-H torsion
[ 10167 10162 10161 10158 ] final   55.87 input  -65.29 | X-H torsion
[ 10718 10713 10712 10709 ] final  114.96 input   66.30 | X-H torsion
[ 10763 10752 10751 10750 ] final  159.13 input  -60.55 | X-H torsion
[ 11005 11000 10999 10996 ] final  101.28 input  -57.11 | X-H torsion

> <Gold.Protein.ActiveResidues>
 VAL166  LYS551  ARG553  GLY616  TRP617  ASP618  TYR619  PRO620  LYS621  CYS622 
 ASP623  PHE694  ASN695  SER759  ASP760  ASP761  ALA762  ILE779  LEU786  VAL792 
 PHE793  MET794  SER795  GLU796  ALA797  LYS798  CYS799  TRP800  GLU811  SER814 

> <Gold.Protein.RotatedAtoms>
  152.4232  133.7151  159.6500 H   0  0  0  0  0  0  0  0  0  0  0  0  # atno 6907 bound_to 6896
  150.8108  133.8414  159.3189 H   0  0  0  0  0  0  0  0  0  0  0  0  # atno 6908 bound_to 6896
  151.6125  135.1041  160.0136 H   0  0  0  0  0  0  0  0  0  0  0  0  # atno 6909 bound_to 6896
  145.0551  140.8248  143.4186 H   0  0  0  0  0  0  0  0  0  0  0  0  # atno 7974 bound_to 7965
  156.1160  140.3220  155.8140 H   0  0  0  0  0  0  0  0  0  0  0  0  # atno 8008 bound_to 7997
  155.4589  140.0538  157.3010 H   0  0  0  0  0  0  0  0  0  0  0  0  # atno 8009 bound_to 7997
  154.4793  140.2046  155.9816 H   0  0  0  0  0  0  0  0  0  0  0  0  # atno 8010 bound_to 7997
  140.2148  144.3851  150.6474 H   0  0  0  0  0  0  0  0  0  0  0  0  # atno 10167 bound_to 10162
  157.6250  131.1006  150.7261 H   0  0  0  0  0  0  0  0  0  0  0  0  # atno 10718 bound_to 10713
  154.2269  135.2780  155.2904 H   0  0  0  0  0  0  0  0  0  0  0  0  # atno 10763 bound_to 10752
  154.5656  135.5634  153.7050 H   0  0  0  0  0  0  0  0  0  0  0  0  # atno 10764 bound_to 10752
  153.0029  135.6308  154.2410 H   0  0  0  0  0  0  0  0  0  0  0  0  # atno 10765 bound_to 10752
  139.8773  134.9176  156.4883 H   0  0  0  0  0  0  0  0  0  0  0  0  # atno 11005 bound_to 11000
  145.1479  139.2532  143.5456 LP  0  0  0  0  0  0  0  0  0  0  0  0  # atno 17320 bound_to 7965
  146.3521  140.1173  142.8601 LP  0  0  0  0  0  0  0  0  0  0  0  0  # atno 17321 bound_to 7965
  140.6298  143.2186  151.6520 LP  0  0  0  0  0  0  0  0  0  0  0  0  # atno 17342 bound_to 10162
  139.5166  144.3341  152.0800 LP  0  0  0  0  0  0  0  0  0  0  0  0  # atno 17343 bound_to 10162
  156.7611  130.4799  149.5436 LP  0  0  0  0  0  0  0  0  0  0  0  0  # atno 17370 bound_to 10713
  156.1417  130.6249  151.0476 LP  0  0  0  0  0  0  0  0  0  0  0  0  # atno 17371 bound_to 10713
  140.8677  133.8012  155.9331 LP  0  0  0  0  0  0  0  0  0  0  0  0  # atno 17394 bound_to 11000
  140.8985  134.2408  157.5055 LP  0  0  0  0  0  0  0  0  0  0  0  0  # atno 17395 bound_to 11000

$$$$
