AV-unprocessed.smi:2345|AV-procd|sdf|9361|dock3
  -GOLD-   2272012583D 1   1.00000     0.00000
 Structure written by MMmdl.
 37 38  0  0  0  0  0  0  0  0  1 V2000
  150.5474  136.0525  155.0430 C   0  0  0  0  0  0  0  0  0  0  0  0
  149.6073  137.2370  155.2796 C   0  0  0  0  0  0  0  0  0  0  0  0
  150.2042  138.7353  154.4486 S   0  0  0  0  0  0  0  0  0  0  0  0
  148.8601  139.8937  154.8424 C   0  0  2  0  0  0  0  0  0  0  0  0
  147.5296  139.4688  154.2158 C   0  0  0  0  0  0  0  0  0  0  0  0
  146.7394  140.7679  154.1023 C   0  0  0  0  0  0  0  0  0  0  0  0
  147.7888  141.8107  153.7162 C   0  0  0  0  0  0  0  0  0  0  0  0
  149.1181  141.3273  154.3305 C   0  0  1  0  0  0  0  0  0  0  0  0
  149.5432  142.1956  155.4255 N   0  0  0  0  0  0  0  0  0  0  0  0
  150.4504  141.8722  156.3573 C   0  0  0  0  0  0  0  0  0  0  0  0
  151.0528  140.7990  156.3735 O   0  0  0  0  0  0  0  0  0  0  0  0
  150.5869  142.8566  157.2617 N   0  0  0  0  0  0  0  0  0  0  0  0
  151.4239  142.8966  158.4097 C   0  0  0  0  0  0  0  0  0  0  0  0
  152.0580  141.7608  158.9688 C   0  0  0  0  0  0  0  0  0  0  0  0
  152.8790  141.9355  160.1009 C   0  0  0  0  0  0  0  0  0  0  0  0
  153.1024  143.1341  160.6803 N   0  0  0  0  0  0  0  0  0  0  0  0
  152.5081  144.2168  160.1356 C   0  0  0  0  0  0  0  0  0  0  0  0
  151.6694  144.1521  159.0049 C   0  0  0  0  0  0  0  0  0  0  0  0
  151.1070  145.2793  158.5052 F   0  0  0  0  0  0  0  0  0  0  0  0
  150.1847  135.1607  155.5541 H   0  0  0  0  0  0  0  0  0  0  0  0
  151.5497  136.2658  155.4153 H   0  0  0  0  0  0  0  0  0  0  0  0
  150.6256  135.8197  153.9808 H   0  0  0  0  0  0  0  0  0  0  0  0
  148.6097  136.9990  154.9106 H   0  0  0  0  0  0  0  0  0  0  0  0
  149.5185  137.4318  156.3482 H   0  0  0  0  0  0  0  0  0  0  0  0
  148.7266  139.9021  155.9257 H   0  0  0  0  0  0  0  0  0  0  0  0
  147.6957  139.0582  153.2187 H   0  0  0  0  0  0  0  0  0  0  0  0
  147.0112  138.7122  154.8055 H   0  0  0  0  0  0  0  0  0  0  0  0
  145.9253  140.7041  153.3797 H   0  0  0  0  0  0  0  0  0  0  0  0
  146.3076  141.0210  155.0717 H   0  0  0  0  0  0  0  0  0  0  0  0
  147.8863  141.8381  152.6301 H   0  0  0  0  0  0  0  0  0  0  0  0
  147.5009  142.8137  154.0348 H   0  0  0  0  0  0  0  0  0  0  0  0
  149.8823  141.3128  153.5507 H   0  0  0  0  0  0  0  0  0  0  0  0
  149.0956  143.0983  155.4889 H   0  0  0  0  0  0  0  0  0  0  0  0
  149.9630  143.6436  157.1583 H   0  0  0  0  0  0  0  0  0  0  0  0
  151.9432  140.7727  158.5506 H   0  0  0  0  0  0  0  0  0  0  0  0
  153.3757  141.0881  160.5495 H   0  0  0  0  0  0  0  0  0  0  0  0
  152.7082  145.1639  160.6145 H   0  0  0  0  0  0  0  0  0  0  0  0
  1  2  1  0  0  0  0
  1 20  1  0  0  0  0
  1 21  1  0  0  0  0
  1 22  1  0  0  0  0
  2  3  1  0  0  0  0
  2 23  1  0  0  0  0
  2 24  1  0  0  0  0
  3  4  1  0  0  0  0
  4  8  1  0  0  0  0
  4  5  1  0  0  0  0
  4 25  1  0  0  0  0
  5  6  1  0  0  0  0
  5 26  1  0  0  0  0
  5 27  1  0  0  0  0
  6  7  1  0  0  0  0
  6 28  1  0  0  0  0
  6 29  1  0  0  0  0
  7  8  1  0  0  0  0
  7 30  1  0  0  0  0
  7 31  1  0  0  0  0
  8  9  1  0  0  0  0
  8 32  1  0  0  0  0
  9 10  1  0  0  0  0
  9 33  1  0  0  0  0
 10 11  2  0  0  0  0
 10 12  1  0  0  0  0
 12 13  1  0  0  0  0
 12 34  1  0  0  0  0
 13 18  1  0  0  0  0
 13 14  2  0  0  0  0
 14 15  1  0  0  0  0
 14 35  1  0  0  0  0
 15 16  2  0  0  0  0
 15 36  1  0  0  0  0
 16 17  1  0  0  0  0
 17 18  2  0  0  0  0
 17 37  1  0  0  0  0
 18 19  1  0  0  0  0
M  END
> <s_m_source_file>
AV-unprocessed.smi

> <i_m_source_file_index>
2345

> <i_lp_mmshare_version>
43012

> <i_f3d_flags>
0

> <s_epik_input>
W0NIM11bQ0gyXVNbQ0BASF0xW0NIMl1bQ0gyXVtDSDJdW0NASF0xW05IXUMoPU8pW05IXWMyW2NIXVtjSF1uW2NIXWMyRg==

> <s_epik_cmdline>
J2VwaWtfcHl0aG9uJywgJy1waCcsICc3LjAnLCAnLXRuJywgJzgnLCAnLW1hJywgJzIwMCcsICctbWV0YWxfYmluZGluZycsICctaW1hZScsICc8aW5maWxlLm1hZT4nLCAnLW9tYWUnLCAnPG91dGZpbGUubWFlPic=

> <r_epik_Ionization_Penalty>
0.00333745

> <r_epik_Ionization_Penalty_Charging>
0

> <r_epik_Ionization_Penalty_Neutral>
0.00333745

> <r_epik_State_Penalty>
0.00233401

> <r_epik_Charging_Adjusted_Penalty>
0.00233401

> <i_epik_Tot_Q>
0

> <i_epik_Tot_abs_Q>
0

> <r_epik_Metal_State_Penalty>
-0

> <b_epik_Metal_Only>
0

> <s_lp_Force_Field>
OPLS_2005

> <r_lp_Energy>
20.2563

> <b_lp_Chiralities_Consistent>
1

> <s_lp_Variant>
AV-unprocessed.smi:2345-1

> <Gold.Version>
5.8.1

> <Gold.Id.Protein>
6NUR|6NUR_protein|mol2

> <Gold.PLP.Fitness>
43.7507

> <Gold.PLP.PLP>
-39.5963

> <Gold.PLP.part.hbond>
-2.0000

> <Gold.PLP.part.metal>
0.0000

> <Gold.PLP.part.buried>
-4.7903

> <Gold.PLP.part.nonpolar>
-31.6138

> <Gold.PLP.part.repulsive>
0.2255

> <Gold.PLP.ligand.clash>
0.0000

> <Gold.PLP.ligand.torsion>
0.2786

> <Gold.PLP.Chemscore.Hbond>
1.5616

> <Gold.PLP.Chemscore.CHOScore>
0.0000

> <Gold.PLP.Chemscore.Metal>
0.0000

> <Gold.Chemscore.Hbonds>
donor molecule, donor type, donor heavy atom, donor atom, acceptor molecule, acceptor atom, score
      L1  H     9    33       P1  8028  1.00
      L1  H    12    34       P1  8028  0.64

> <Gold.PLP.Chemscore.Internal.Correction>
0.0269

> <Gold.Rescore>
     Score         DG    S(hbond)    S(metal)    S(lipo)     H(rot)  DE(clash)    DE(int)     intcor
     15.70     -19.65       1.66        0.00     103.11       1.35       0.07       3.87       ----

> <Gold.Chemscore.Fitness>
15.7011

> <Gold.Chemscore.DG>
-19.6479

> <Gold.Chemscore.ZeroCoef>
-5.4800

> <Gold.Chemscore.Hbond>
1.6626

> <Gold.Chemscore.Metal>
0.0000

> <Gold.Chemscore.Lipo>
103.1148

> <Gold.Chemscore.Internal_Hbond>
0.0000

> <Gold.Chemscore.DEClash>
0.0725

> <Gold.Chemscore.DEInternal>
3.8743

> <Gold.Chemscore.Rot>
1.3475

> <Gold.Chemscore.Internal.Correction>
   9.000000E+99

> <Gold.Chemscore.Hbonds>
donor molecule, donor type, donor heavy atom, donor atom, acceptor molecule, acceptor atom, score
      L1  H     9    33       P1  8028  0.99
      L1  H    12    34       P1  8028  0.61

> <Gold.Chemscore.Hbond.Weighted>
-5.5531

> <Gold.Chemscore.Metal.Weighted>
-0.0000

> <Gold.Chemscore.Lipo.Weighted>
-12.0644

> <Gold.Chemscore.Internal_Hbond.Weighted>
0.0000

> <Gold.Chemscore.DEClash.Weighted>
0.0725

> <Gold.Chemscore.DEInternal.Weighted>
3.8743

> <Gold.Chemscore.Rot.Weighted>
3.4496

> <Gold.Chemscore.Internal.Correction.Weighted>
   9.000000E+99

> <Gold.Protein.RotatedTorsions>
[ 6907 6896 6895 6894 ] final  -39.21 input  -60.11 | X-H torsion
[ 7974 7965 7964 7962 ] final   48.43 input  175.53 | X-H torsion
[ 8008 7997 7996 7995 ] final  114.35 input   59.86 | X-H torsion
[ 10167 10162 10161 10158 ] final  105.98 input  -65.29 | X-H torsion
[ 10718 10713 10712 10709 ] final -135.88 input   66.30 | X-H torsion
[ 10763 10752 10751 10750 ] final  -93.91 input  -60.55 | X-H torsion
[ 11005 11000 10999 10996 ] final -143.67 input  -57.11 | X-H torsion

> <Gold.Protein.ActiveResidues>
 VAL166  LYS551  ARG553  GLY616  TRP617  ASP618  TYR619  PRO620  LYS621  CYS622 
 ASP623  PHE694  ASN695  SER759  ASP760  ASP761  ALA762  ILE779  LEU786  VAL792 
 PHE793  MET794  SER795  GLU796  ALA797  LYS798  CYS799  TRP800  GLU811  SER814 

> <Gold.Protein.RotatedAtoms>
  150.9931  134.9261  159.7910 H   0  0  0  0  0  0  0  0  0  0  0  0  # atno 6907 bound_to 6896
  152.5257  134.3255  159.9174 H   0  0  0  0  0  0  0  0  0  0  0  0  # atno 6908 bound_to 6896
  151.3261  133.3978  159.2693 H   0  0  0  0  0  0  0  0  0  0  0  0  # atno 6909 bound_to 6896
  146.0205  139.4645  142.9900 H   0  0  0  0  0  0  0  0  0  0  0  0  # atno 7974 bound_to 7965
  156.2316  140.2961  156.0203 H   0  0  0  0  0  0  0  0  0  0  0  0  # atno 8008 bound_to 7997
  155.2209  140.0415  157.2965 H   0  0  0  0  0  0  0  0  0  0  0  0  # atno 8009 bound_to 7997
  154.6005  140.2425  155.7806 H   0  0  0  0  0  0  0  0  0  0  0  0  # atno 8010 bound_to 7997
  139.7047  144.7088  151.1126 H   0  0  0  0  0  0  0  0  0  0  0  0  # atno 10167 bound_to 10162
  156.2710  130.7265  151.1232 H   0  0  0  0  0  0  0  0  0  0  0  0  # atno 10718 bound_to 10713
  154.7005  135.5177  153.8520 H   0  0  0  0  0  0  0  0  0  0  0  0  # atno 10763 bound_to 10752
  153.0700  135.6598  154.0277 H   0  0  0  0  0  0  0  0  0  0  0  0  # atno 10764 bound_to 10752
  154.0137  135.3000  155.3369 H   0  0  0  0  0  0  0  0  0  0  0  0  # atno 10765 bound_to 10752
  140.8102  134.2754  157.4944 H   0  0  0  0  0  0  0  0  0  0  0  0  # atno 11005 bound_to 11000
  145.7201  141.0078  143.1407 LP  0  0  0  0  0  0  0  0  0  0  0  0  # atno 17320 bound_to 7965
  144.6988  139.8860  143.7450 LP  0  0  0  0  0  0  0  0  0  0  0  0  # atno 17321 bound_to 7965
  140.7719  143.5374  150.9352 LP  0  0  0  0  0  0  0  0  0  0  0  0  # atno 17342 bound_to 10162
  139.9057  143.6781  152.3124 LP  0  0  0  0  0  0  0  0  0  0  0  0  # atno 17343 bound_to 10162
  157.7283  131.0632  150.5824 LP  0  0  0  0  0  0  0  0  0  0  0  0  # atno 17370 bound_to 10713
  156.5920  130.4332  149.5932 LP  0  0  0  0  0  0  0  0  0  0  0  0  # atno 17371 bound_to 10713
  139.8715  134.9478  156.3979 LP  0  0  0  0  0  0  0  0  0  0  0  0  # atno 17394 bound_to 11000
  140.9206  133.7648  155.9902 LP  0  0  0  0  0  0  0  0  0  0  0  0  # atno 17395 bound_to 11000

$$$$
