AV-unprocessed.smi:3333|AV-procd|sdf|12831|dock1
  -GOLD-   2272019213D 1   1.00000     0.00000
 Structure written by MMmdl.
 41 43  0  0  0  0  0  0  0  0  1 V2000
  150.5281  132.9570  155.9111 C   0  0  0  0  0  0  0  0  0  0  0  0
  151.6659  133.9766  156.0289 C   0  0  0  0  0  0  0  0  0  0  0  0
  151.2019  135.3792  155.8192 C   0  0  0  0  0  0  0  0  0  0  0  0
  152.0296  136.4241  155.7377 N   0  0  0  0  0  0  0  0  0  0  0  0
  151.3539  137.6372  155.5693 C   0  0  0  0  0  0  0  0  0  0  0  0
  152.1310  138.9175  155.4501 C   0  0  0  0  0  0  0  0  0  0  0  0
  151.2152  140.1336  155.6209 C   0  0  0  0  0  0  0  0  0  0  0  0
  150.3285  140.3658  154.7985 O   0  0  0  0  0  0  0  0  0  0  0  0
  151.4456  140.9089  156.6921 N   0  0  0  0  0  0  0  0  0  0  0  0
  150.7003  142.1175  157.0286 C   0  0  0  0  0  0  0  0  0  0  0  0
  151.1739  142.7380  158.3600 C   0  0  2  0  0  0  0  0  0  0  0  0
  150.3788  143.9952  158.7842 C   0  0  0  0  0  0  0  0  0  0  0  0
  151.4806  145.0514  158.9852 C   0  0  1  0  0  0  0  0  0  0  0  0
  152.3191  144.6930  160.2265 C   0  0  0  0  0  0  0  0  0  0  0  0
  153.1339  143.4772  159.7455 C   0  0  0  0  0  0  0  0  0  0  0  0
  152.6225  143.2744  158.3065 C   0  0  2  0  0  0  0  0  0  0  0  0
  152.4371  144.7178  157.8478 C   0  0  0  0  0  0  0  0  0  0  0  0
  149.9880  137.4946  155.5470 C   0  0  0  0  0  0  0  0  0  0  0  0
  149.5040  135.8308  155.7255 S   0  0  0  0  0  0  0  0  0  0  0  0
  150.8972  131.9433  156.0665 H   0  0  0  0  0  0  0  0  0  0  0  0
  150.0657  132.9965  154.9246 H   0  0  0  0  0  0  0  0  0  0  0  0
  149.7518  133.1467  156.6532 H   0  0  0  0  0  0  0  0  0  0  0  0
  152.1327  133.9022  157.0117 H   0  0  0  0  0  0  0  0  0  0  0  0
  152.4419  133.7528  155.2965 H   0  0  0  0  0  0  0  0  0  0  0  0
  152.9289  138.9425  156.1937 H   0  0  0  0  0  0  0  0  0  0  0  0
  152.6169  138.9888  154.4763 H   0  0  0  0  0  0  0  0  0  0  0  0
  152.1952  140.6470  157.3158 H   0  0  0  0  0  0  0  0  0  0  0  0
  150.7943  142.8438  156.2196 H   0  0  0  0  0  0  0  0  0  0  0  0
  149.6431  141.8570  157.0832 H   0  0  0  0  0  0  0  0  0  0  0  0
  151.1027  141.9753  159.1368 H   0  0  0  0  0  0  0  0  0  0  0  0
  149.6918  144.3158  157.9998 H   0  0  0  0  0  0  0  0  0  0  0  0
  149.7922  143.8288  159.6883 H   0  0  0  0  0  0  0  0  0  0  0  0
  151.1084  146.0762  158.9894 H   0  0  0  0  0  0  0  0  0  0  0  0
  152.9819  145.5144  160.5011 H   0  0  0  0  0  0  0  0  0  0  0  0
  151.6964  144.4607  161.0911 H   0  0  0  0  0  0  0  0  0  0  0  0
  154.2003  143.7066  159.7477 H   0  0  0  0  0  0  0  0  0  0  0  0
  152.9821  142.5976  160.3723 H   0  0  0  0  0  0  0  0  0  0  0  0
  153.2946  142.6762  157.6903 H   0  0  0  0  0  0  0  0  0  0  0  0
  151.9843  144.8100  156.8596 H   0  0  0  0  0  0  0  0  0  0  0  0
  153.3591  145.3015  157.8726 H   0  0  0  0  0  0  0  0  0  0  0  0
  149.2402  138.2655  155.4347 H   0  0  0  0  0  0  0  0  0  0  0  0
  1  2  1  0  0  0  0
  1 20  1  0  0  0  0
  1 21  1  0  0  0  0
  1 22  1  0  0  0  0
  2  3  1  0  0  0  0
  2 23  1  0  0  0  0
  2 24  1  0  0  0  0
  3 19  1  0  0  0  0
  3  4  2  0  0  0  0
  4  5  1  0  0  0  0
  5  6  1  0  0  0  0
  5 18  2  0  0  0  0
  6  7  1  0  0  0  0
  6 25  1  0  0  0  0
  6 26  1  0  0  0  0
  7  8  2  0  0  0  0
  7  9  1  0  0  0  0
  9 10  1  0  0  0  0
  9 27  1  0  0  0  0
 10 11  1  0  0  0  0
 10 28  1  0  0  0  0
 10 29  1  0  0  0  0
 11 16  1  0  0  0  0
 11 12  1  0  0  0  0
 11 30  1  0  0  0  0
 12 13  1  0  0  0  0
 12 31  1  0  0  0  0
 12 32  1  0  0  0  0
 13 17  1  0  0  0  0
 13 14  1  0  0  0  0
 13 33  1  0  0  0  0
 14 15  1  0  0  0  0
 14 34  1  0  0  0  0
 14 35  1  0  0  0  0
 15 16  1  0  0  0  0
 15 36  1  0  0  0  0
 15 37  1  0  0  0  0
 16 17  1  0  0  0  0
 16 38  1  0  0  0  0
 17 39  1  0  0  0  0
 17 40  1  0  0  0  0
 18 19  1  0  0  0  0
 18 41  1  0  0  0  0
M  END
> <s_m_source_file>
AV-unprocessed.smi

> <i_m_source_file_index>
3333

> <i_lp_mmshare_version>
43012

> <i_f3d_flags>
0

> <s_epik_input>
W0NIM11bQ0gyXWMxbmMoW2NIXXMxKVtDSDJdQyg9TylbTkhdW0NIMl1bQ0BIXShbQ0gyXVtDQEBIXTIzKVtDQEBIXShbQ0gyXTMpW0NIMl1bQ0gyXTI=

> <s_epik_cmdline>
J2VwaWtfcHl0aG9uJywgJy1waCcsICc3LjAnLCAnLXRuJywgJzgnLCAnLW1hJywgJzIwMCcsICctbWV0YWxfYmluZGluZycsICctaW1hZScsICc8aW5maWxlLm1hZT4nLCAnLW9tYWUnLCAnPG91dGZpbGUubWFlPic=

> <r_lp_tautomer_probability>
1

> <r_epik_Ionization_Penalty>
6.68371e-05

> <r_epik_Ionization_Penalty_Charging>
0

> <r_epik_Ionization_Penalty_Neutral>
6.68371e-05

> <r_epik_State_Penalty>
-0

> <r_epik_Charging_Adjusted_Penalty>
0

> <i_epik_Tot_Q>
0

> <i_epik_Tot_abs_Q>
0

> <r_epik_Metal_State_Penalty>
-0

> <b_epik_Metal_Only>
0

> <s_lp_Force_Field>
OPLS_2005

> <r_lp_Energy>
44.1536

> <b_lp_Chiralities_Consistent>
1

> <s_lp_Variant>
AV-unprocessed.smi:3333-1

> <Gold.Version>
5.8.1

> <Gold.Id.Protein>
6NUR|6NUR_protein|mol2

> <Gold.PLP.Fitness>
48.7526

> <Gold.PLP.PLP>
-43.2591

> <Gold.PLP.part.hbond>
-2.0000

> <Gold.PLP.part.metal>
0.0000

> <Gold.PLP.part.buried>
-5.8689

> <Gold.PLP.part.nonpolar>
-35.8143

> <Gold.PLP.part.repulsive>
0.2599

> <Gold.PLP.ligand.clash>
0.0000

> <Gold.PLP.ligand.torsion>
0.2703

> <Gold.PLP.Chemscore.Hbond>
2.0000

> <Gold.PLP.Chemscore.CHOScore>
0.0000

> <Gold.PLP.Chemscore.Metal>
0.0000

> <Gold.Chemscore.Hbonds>
donor molecule, donor type, donor heavy atom, donor atom, acceptor molecule, acceptor atom, score
      P1  H  7989  7998       L1     8  0.55
      P1  H 10752 10765       L1     4  0.46

> <Gold.PLP.Chemscore.Internal.Correction>
0.0340

> <Gold.Rescore>
     Score         DG    S(hbond)    S(metal)    S(lipo)     H(rot)  DE(clash)    DE(int)     intcor
     21.38     -21.94       1.87        0.00     118.58       1.42       0.13       0.43       ----

> <Gold.Chemscore.Fitness>
21.3836

> <Gold.Chemscore.DG>
-21.9440

> <Gold.Chemscore.ZeroCoef>
-5.4800

> <Gold.Chemscore.Hbond>
1.8659

> <Gold.Chemscore.Metal>
0.0000

> <Gold.Chemscore.Lipo>
118.5811

> <Gold.Chemscore.Internal_Hbond>
0.0000

> <Gold.Chemscore.DEClash>
0.1312

> <Gold.Chemscore.DEInternal>
0.4292

> <Gold.Chemscore.Rot>
1.4227

> <Gold.Chemscore.Internal.Correction>
   9.000000E+99

> <Gold.Chemscore.Hbonds>
donor molecule, donor type, donor heavy atom, donor atom, acceptor molecule, acceptor atom, score
      P1  H  7989  7998       L1     8  0.03
      P1  H 10752 10765       L1     4  0.02

> <Gold.Chemscore.Hbond.Weighted>
-6.2321

> <Gold.Chemscore.Metal.Weighted>
-0.0000

> <Gold.Chemscore.Lipo.Weighted>
-13.8740

> <Gold.Chemscore.Internal_Hbond.Weighted>
0.0000

> <Gold.Chemscore.DEClash.Weighted>
0.1312

> <Gold.Chemscore.DEInternal.Weighted>
0.4292

> <Gold.Chemscore.Rot.Weighted>
3.6421

> <Gold.Chemscore.Internal.Correction.Weighted>
   9.000000E+99

> <Gold.Protein.RotatedTorsions>
[ 6907 6896 6895 6894 ] final  162.88 input  -60.11 | X-H torsion
[ 7974 7965 7964 7962 ] final  -66.57 input  175.53 | X-H torsion
[ 8008 7997 7996 7995 ] final  152.59 input   59.86 | X-H torsion
[ 10167 10162 10161 10158 ] final   65.65 input  -65.29 | X-H torsion
[ 10718 10713 10712 10709 ] final  118.06 input   66.30 | X-H torsion
[ 10763 10752 10751 10750 ] final  178.83 input  -60.55 | X-H torsion
[ 11005 11000 10999 10996 ] final   30.45 input  -57.11 | X-H torsion

> <Gold.Protein.ActiveResidues>
 VAL166  LYS551  ARG553  GLY616  TRP617  ASP618  TYR619  PRO620  LYS621  CYS622 
 ASP623  PHE694  ASN695  SER759  ASP760  ASP761  ALA762  ILE779  LEU786  VAL792 
 PHE793  MET794  SER795  GLU796  ALA797  LYS798  CYS799  TRP800  GLU811  SER814 

> <Gold.Protein.RotatedAtoms>
  151.9338  133.3618  159.3940 H   0  0  0  0  0  0  0  0  0  0  0  0  # atno 6907 bound_to 6896
  150.7012  134.4510  159.5345 H   0  0  0  0  0  0  0  0  0  0  0  0  # atno 6908 bound_to 6896
  152.2155  134.8462  160.0543 H   0  0  0  0  0  0  0  0  0  0  0  0  # atno 6909 bound_to 6896
  145.7400  140.8958  143.0535 H   0  0  0  0  0  0  0  0  0  0  0  0  # atno 7974 bound_to 7965
  156.2622  140.2016  156.6357 H   0  0  0  0  0  0  0  0  0  0  0  0  # atno 8008 bound_to 7997
  154.6648  140.0556  157.0126 H   0  0  0  0  0  0  0  0  0  0  0  0  # atno 8009 bound_to 7997
  155.1223  140.3226  155.4497 H   0  0  0  0  0  0  0  0  0  0  0  0  # atno 8010 bound_to 7997
  140.1090  144.4835  150.6989 H   0  0  0  0  0  0  0  0  0  0  0  0  # atno 10167 bound_to 10162
  157.6055  131.1044  150.7703 H   0  0  0  0  0  0  0  0  0  0  0  0  # atno 10718 bound_to 10713
  154.5128  135.2789  155.1328 H   0  0  0  0  0  0  0  0  0  0  0  0  # atno 10763 bound_to 10752
  154.2916  135.6265  153.5391 H   0  0  0  0  0  0  0  0  0  0  0  0  # atno 10764 bound_to 10752
  152.9922  135.5675  154.5598 H   0  0  0  0  0  0  0  0  0  0  0  0  # atno 10765 bound_to 10752
  140.2943  134.2829  155.7768 H   0  0  0  0  0  0  0  0  0  0  0  0  # atno 11005 bound_to 11000
  144.6873  139.9448  143.7476 LP  0  0  0  0  0  0  0  0  0  0  0  0  # atno 17320 bound_to 7965
  146.0456  139.3463  143.0670 LP  0  0  0  0  0  0  0  0  0  0  0  0  # atno 17321 bound_to 7965
  140.6936  143.2390  151.5063 LP  0  0  0  0  0  0  0  0  0  0  0  0  # atno 17342 bound_to 10162
  139.5629  144.2112  152.1720 LP  0  0  0  0  0  0  0  0  0  0  0  0  # atno 17343 bound_to 10162
  156.8092  130.4947  149.5358 LP  0  0  0  0  0  0  0  0  0  0  0  0  # atno 17370 bound_to 10713
  156.1140  130.6061  151.0092 LP  0  0  0  0  0  0  0  0  0  0  0  0  # atno 17371 bound_to 10713
  141.2140  133.7605  156.9671 LP  0  0  0  0  0  0  0  0  0  0  0  0  # atno 17394 bound_to 11000
  140.1167  134.9443  157.2145 LP  0  0  0  0  0  0  0  0  0  0  0  0  # atno 17395 bound_to 11000

$$$$
