AV-unprocessed.smi:497|AV-procd|sdf|2727|dock7
  -GOLD-   2262023173D 1   1.00000     0.00000
 Structure written by MMmdl.
 39 41  0  0  0  0  0  0  0  0  3 V2000
  148.2515  127.8422  151.5768 C   0  0  0  0  0  0  0  0  0  0  0  0
  148.8578  127.9843  152.8490 O   0  0  0  0  0  0  0  0  0  0  0  0
  149.0684  129.3422  153.1997 C   0  0  0  0  0  0  0  0  0  0  0  0
  147.7387  130.0095  153.5887 C   0  0  0  0  0  0  0  0  0  0  0  0
  147.6128  131.3842  153.0572 N   0  0  0  0  0  0  0  0  0  0  0  0
  148.3686  132.5135  153.2602 C   0  0  0  0  0  0  0  0  0  0  0  0
  149.5954  132.6861  154.1096 C   0  0  0  0  0  0  0  0  0  0  0  0
  149.2397  132.8897  155.5097 N   0  5  0  0  0  0  0  0  0  0  0  0
  150.1091  133.3165  156.4682 C   0  0  0  0  0  0  0  0  0  0  0  0
  150.5280  132.7297  157.4715 O   0  0  0  0  0  0  0  0  0  0  0  0
  150.5707  134.7041  156.2288 C   0  0  0  0  0  0  0  0  0  0  0  0
  150.3252  135.5438  155.1750 C   0  0  0  0  0  0  0  0  0  0  0  0
  151.0257  136.7531  155.4400 C   0  0  0  0  0  0  0  0  0  0  0  0
  151.6517  136.5692  156.6388 C   0  0  0  0  0  0  0  0  0  0  0  0
  151.3867  135.3299  157.1325 O   0  0  0  0  0  0  0  0  0  0  0  0
  147.7932  133.5135  152.5348 N   0  3  0  0  0  0  0  0  0  0  0  0
  146.6710  133.0339  151.8614 C   0  0  0  0  0  0  0  0  0  0  0  0
  145.7765  133.6777  151.0119 C   0  0  0  0  0  0  0  0  0  0  0  0
  144.7265  132.8955  150.4882 C   0  0  0  0  0  0  0  0  0  0  0  0
  144.5960  131.5305  150.8148 C   0  0  0  0  0  0  0  0  0  0  0  0
  145.5099  130.8901  151.6772 C   0  0  0  0  0  0  0  0  0  0  0  0
  146.5477  131.6691  152.1907 C   0  0  0  0  0  0  0  0  0  0  0  0
  148.1132  126.7846  151.3538 H   0  0  0  0  0  0  0  0  0  0  0  0
  148.8759  128.2721  150.7924 H   0  0  0  0  0  0  0  0  0  0  0  0
  147.2734  128.3238  151.5500 H   0  0  0  0  0  0  0  0  0  0  0  0
  149.7711  129.4001  154.0306 H   0  0  0  0  0  0  0  0  0  0  0  0
  149.5184  129.8757  152.3615 H   0  0  0  0  0  0  0  0  0  0  0  0
  146.9038  129.4187  153.2116 H   0  0  0  0  0  0  0  0  0  0  0  0
  147.6178  130.0323  154.6714 H   0  0  0  0  0  0  0  0  0  0  0  0
  150.2303  131.8135  153.9509 H   0  0  0  0  0  0  0  0  0  0  0  0
  150.1638  133.5318  153.7210 H   0  0  0  0  0  0  0  0  0  0  0  0
  149.7163  135.3123  154.3136 H   0  0  0  0  0  0  0  0  0  0  0  0
  151.0674  137.6430  154.8300 H   0  0  0  0  0  0  0  0  0  0  0  0
  152.2925  137.1831  157.2540 H   0  0  0  0  0  0  0  0  0  0  0  0
  145.8749  134.7241  150.7635 H   0  0  0  0  0  0  0  0  0  0  0  0
  144.0064  133.3520  149.8248 H   0  0  0  0  0  0  0  0  0  0  0  0
  143.7773  130.9626  150.3975 H   0  0  0  0  0  0  0  0  0  0  0  0
  145.3946  129.8458  151.9264 H   0  0  0  0  0  0  0  0  0  0  0  0
  148.1490  134.4602  152.5153 H   0  0  0  0  0  0  0  0  0  0  0  0
  1  2  1  0  0  0  0
  1 23  1  0  0  0  0
  1 24  1  0  0  0  0
  1 25  1  0  0  0  0
  2  3  1  0  0  0  0
  3  4  1  0  0  0  0
  3 26  1  0  0  0  0
  3 27  1  0  0  0  0
  4  5  1  0  0  0  0
  4 28  1  0  0  0  0
  4 29  1  0  0  0  0
  5 22  1  0  0  0  0
  5  6  1  0  0  0  0
  6  7  1  0  0  0  0
  6 16  2  0  0  0  0
  7  8  1  0  0  0  0
  7 30  1  0  0  0  0
  7 31  1  0  0  0  0
  8  9  1  0  0  0  0
  9 10  2  0  0  0  0
  9 11  1  0  0  0  0
 11 15  1  0  0  0  0
 11 12  2  0  0  0  0
 12 13  1  0  0  0  0
 12 32  1  0  0  0  0
 13 14  2  0  0  0  0
 13 33  1  0  0  0  0
 14 15  1  0  0  0  0
 14 34  1  0  0  0  0
 16 17  1  0  0  0  0
 16 39  1  0  0  0  0
 17 22  2  0  0  0  0
 17 18  1  0  0  0  0
 18 19  2  0  0  0  0
 18 35  1  0  0  0  0
 19 20  1  0  0  0  0
 19 36  1  0  0  0  0
 20 21  2  0  0  0  0
 20 37  1  0  0  0  0
 21 22  1  0  0  0  0
 21 38  1  0  0  0  0
M  CHG  1   8  -1
M  CHG  1  16   1
M  END
> <s_m_source_file>
AV-unprocessed.smi

> <i_m_source_file_index>
497

> <i_lp_mmshare_version>
43012

> <i_f3d_flags>
0

> <s_epik_input>
W2NIXTFbY0hdW2NIXVtjSF1jKGMxMiluKFtDSDJdW0NIMl1PW0NIM10pYyhuMilbQ0gyXVtOSF1DKD1PKWMzW2NIXVtjSF1bY0hdbzM=

> <s_epik_cmdline>
J2VwaWtfcHl0aG9uJywgJy1waCcsICc3LjAnLCAnLXRuJywgJzgnLCAnLW1hJywgJzIwMCcsICctbWV0YWxfYmluZGluZycsICctaW1hZScsICc8aW5maWxlLm1hZT4nLCAnLW9tYWUnLCAnPG91dGZpbGUubWFlPic=

> <r_epik_Ionization_Penalty>
6.0511

> <r_epik_Ionization_Penalty_Charging>
6.0511

> <r_epik_Ionization_Penalty_Neutral>
2.61117e-12

> <r_epik_State_Penalty>
7.24158

> <r_epik_Charging_Adjusted_Penalty>
13.2927

> <i_epik_Tot_Q>
0

> <i_epik_Tot_abs_Q>
2

> <r_epik_Metal_State_Penalty>
3.25464

> <b_epik_Metal_Only>
1

> <s_lp_Force_Field>
OPLS_2005

> <r_lp_Energy>
9.23096

> <b_lp_Chiralities_Consistent>
1

> <s_lp_Variant>
AV-unprocessed.smi:497-4

> <Gold.Version>
5.8.1

> <Gold.Id.Protein>
6NUR|6NUR_protein|mol2

> <Gold.PLP.Fitness>
46.6835

> <Gold.PLP.PLP>
-40.2538

> <Gold.PLP.part.hbond>
-2.7489

> <Gold.PLP.part.metal>
0.0000

> <Gold.PLP.part.buried>
-6.3565

> <Gold.PLP.part.nonpolar>
-31.3434

> <Gold.PLP.part.repulsive>
0.1523

> <Gold.PLP.ligand.clash>
0.0000

> <Gold.PLP.ligand.torsion>
1.3517

> <Gold.PLP.Chemscore.Hbond>
3.0000

> <Gold.PLP.Chemscore.CHOScore>
0.0000

> <Gold.PLP.Chemscore.Metal>
0.0000

> <Gold.Chemscore.Hbonds>
donor molecule, donor type, donor heavy atom, donor atom, acceptor molecule, acceptor atom, score
      L1  H    16    39       P1  7948  2.00
      P1  H  6896  6907       L1    10  1.00

> <Gold.PLP.Chemscore.Internal.Correction>
0.1331

> <Gold.Rescore>
     Score         DG    S(hbond)    S(metal)    S(lipo)     H(rot)  DE(clash)    DE(int)     intcor
     15.54     -16.76       1.84        0.00      85.31       1.89       0.00       1.22       ----

> <Gold.Chemscore.Fitness>
15.5388

> <Gold.Chemscore.DG>
-16.7592

> <Gold.Chemscore.ZeroCoef>
-5.4800

> <Gold.Chemscore.Hbond>
1.8367

> <Gold.Chemscore.Metal>
0.0000

> <Gold.Chemscore.Lipo>
85.3056

> <Gold.Chemscore.Internal_Hbond>
0.0000

> <Gold.Chemscore.DEClash>
0.0000

> <Gold.Chemscore.DEInternal>
1.2204

> <Gold.Chemscore.Rot>
1.8892

> <Gold.Chemscore.Internal.Correction>
   9.000000E+99

> <Gold.Chemscore.Hbonds>
donor molecule, donor type, donor heavy atom, donor atom, acceptor molecule, acceptor atom, score
      L1  H    16    39       P1  7948  0.29
      P1  H  6896  6907       L1    10  0.97

> <Gold.Chemscore.Hbond.Weighted>
-6.1347

> <Gold.Chemscore.Metal.Weighted>
-0.0000

> <Gold.Chemscore.Lipo.Weighted>
-9.9808

> <Gold.Chemscore.Internal_Hbond.Weighted>
0.0000

> <Gold.Chemscore.DEClash.Weighted>
0.0000

> <Gold.Chemscore.DEInternal.Weighted>
1.2204

> <Gold.Chemscore.Rot.Weighted>
4.8363

> <Gold.Chemscore.Internal.Correction.Weighted>
   9.000000E+99

> <Gold.Protein.RotatedTorsions>
[ 6907 6896 6895 6894 ] final -135.17 input  -60.11 | X-H torsion
[ 7974 7965 7964 7962 ] final  102.86 input  175.53 | X-H torsion
[ 8008 7997 7996 7995 ] final -172.72 input   59.86 | X-H torsion
[ 10167 10162 10161 10158 ] final  -45.90 input  -65.29 | X-H torsion
[ 10718 10713 10712 10709 ] final -118.42 input   66.30 | X-H torsion
[ 10763 10752 10751 10750 ] final  -32.19 input  -60.55 | X-H torsion
[ 11005 11000 10999 10996 ] final  -24.44 input  -57.11 | X-H torsion

> <Gold.Protein.ActiveResidues>
 VAL166  LYS551  ARG553  GLY616  TRP617  ASP618  TYR619  PRO620  LYS621  CYS622 
 ASP623  PHE694  ASN695  SER759  ASP760  ASP761  ALA762  ILE779  LEU786  VAL792 
 PHE793  MET794  SER795  GLU796  ALA797  LYS798  CYS799  TRP800  GLU811  SER814 

> <Gold.Protein.RotatedAtoms>
  150.9946  133.6116  159.2703 H   0  0  0  0  0  0  0  0  0  0  0  0  # atno 6907 bound_to 6896
  151.3324  135.0844  159.9353 H   0  0  0  0  0  0  0  0  0  0  0  0  # atno 6908 bound_to 6896
  152.5256  133.9573  159.7755 H   0  0  0  0  0  0  0  0  0  0  0  0  # atno 6909 bound_to 6896
  145.3536  139.2434  143.3545 H   0  0  0  0  0  0  0  0  0  0  0  0  # atno 7974 bound_to 7965
  155.9482  140.1121  157.0999 H   0  0  0  0  0  0  0  0  0  0  0  0  # atno 8008 bound_to 7997
  154.4104  140.1206  156.5083 H   0  0  0  0  0  0  0  0  0  0  0  0  # atno 8009 bound_to 7997
  155.6876  140.3473  155.4883 H   0  0  0  0  0  0  0  0  0  0  0  0  # atno 8010 bound_to 7997
  140.6839  143.2857  151.3705 H   0  0  0  0  0  0  0  0  0  0  0  0  # atno 10167 bound_to 10162
  156.1105  130.6245  150.9289 H   0  0  0  0  0  0  0  0  0  0  0  0  # atno 10718 bound_to 10713
  153.8098  135.6883  153.4842 H   0  0  0  0  0  0  0  0  0  0  0  0  # atno 10763 bound_to 10752
  153.1636  135.4570  154.9804 H   0  0  0  0  0  0  0  0  0  0  0  0  # atno 10764 bound_to 10752
  154.7972  135.3323  154.7579 H   0  0  0  0  0  0  0  0  0  0  0  0  # atno 10765 bound_to 10752
  140.8845  133.7631  156.0343 H   0  0  0  0  0  0  0  0  0  0  0  0  # atno 11005 bound_to 11000
  146.2957  140.4156  142.8722 LP  0  0  0  0  0  0  0  0  0  0  0  0  # atno 17320 bound_to 7965
  144.8699  140.7258  143.6053 LP  0  0  0  0  0  0  0  0  0  0  0  0  # atno 17321 bound_to 7965
  139.6183  144.0959  152.2366 LP  0  0  0  0  0  0  0  0  0  0  0  0  # atno 17342 bound_to 10162
  140.0395  144.6018  150.7423 LP  0  0  0  0  0  0  0  0  0  0  0  0  # atno 17343 bound_to 10162
  157.6286  131.0923  150.8486 LP  0  0  0  0  0  0  0  0  0  0  0  0  # atno 17370 bound_to 10713
  156.8597  130.5109  149.5305 LP  0  0  0  0  0  0  0  0  0  0  0  0  # atno 17371 bound_to 10713
  140.8421  134.3054  157.5309 LP  0  0  0  0  0  0  0  0  0  0  0  0  # atno 17394 bound_to 11000
  139.8723  134.9422  156.3818 LP  0  0  0  0  0  0  0  0  0  0  0  0  # atno 17395 bound_to 11000

$$$$
