AV-unprocessed.smi:3143|AV-procd|sdf|11975|dock4
  -GOLD-   2272017373D 1   1.00000     0.00000
 Structure written by MMmdl.
 38 39  0  0  0  0  0  0  0  0  2 V2000
  148.0982  141.1070  153.8220 C   0  0  0  0  0  0  0  0  0  0  0  0
  148.2465  139.5842  153.9685 C   0  0  1  0  0  0  0  0  0  0  0  0
  147.9698  138.9335  152.6671 N   0  3  0  0  0  0  0  0  0  0  0  0
  146.5366  138.7450  152.3570 C   0  0  0  0  0  0  0  0  0  0  0  0
  145.9511  137.5679  153.1489 C   0  0  0  0  0  0  0  0  0  0  0  0
  145.2814  136.6209  152.2791 N   0  0  0  0  0  0  0  0  0  0  0  0
  144.0076  136.1035  152.3883 C   0  0  0  0  0  0  0  0  0  0  0  0
  143.8244  135.2527  151.3360 C   0  0  0  0  0  0  0  0  0  0  0  0
  145.0576  135.3180  150.6287 C   0  0  0  0  0  0  0  0  0  0  0  0
  145.9275  136.1383  151.1960 N   0  0  0  0  0  0  0  0  0  0  0  0
  149.6591  139.2406  154.4829 C   0  0  0  0  0  0  0  0  0  0  0  0
  150.5152  140.1265  154.4980 O   0  0  0  0  0  0  0  0  0  0  0  0
  149.9213  137.9878  154.9139 N   0  0  0  0  0  0  0  0  0  0  0  0
  151.2006  137.4963  155.4264 C   0  0  0  0  0  0  0  0  0  0  0  0
  151.0453  135.9801  155.5468 C   0  0  0  0  0  0  0  0  0  0  0  0
  149.5476  135.7724  155.7184 C   0  0  0  0  0  0  0  0  0  0  0  0
  148.9204  136.9219  154.9298 C   0  0  0  0  0  0  0  0  0  0  0  0
  148.2753  141.6195  154.7682 H   0  0  0  0  0  0  0  0  0  0  0  0
  147.0927  141.3714  153.4931 H   0  0  0  0  0  0  0  0  0  0  0  0
  148.8013  141.5100  153.0915 H   0  0  0  0  0  0  0  0  0  0  0  0
  147.4873  139.2345  154.6680 H   0  0  0  0  0  0  0  0  0  0  0  0
  148.3674  139.5083  151.9383 H   0  0  0  0  0  0  0  0  0  0  0  0
  145.9888  139.6583  152.5928 H   0  0  0  0  0  0  0  0  0  0  0  0
  146.4207  138.5677  151.2870 H   0  0  0  0  0  0  0  0  0  0  0  0
  146.7373  137.0441  153.6943 H   0  0  0  0  0  0  0  0  0  0  0  0
  145.2335  137.9244  153.8897 H   0  0  0  0  0  0  0  0  0  0  0  0
  143.3444  136.3786  153.1956 H   0  0  0  0  0  0  0  0  0  0  0  0
  142.9431  134.6726  151.1053 H   0  0  0  0  0  0  0  0  0  0  0  0
  145.3445  134.7984  149.7262 H   0  0  0  0  0  0  0  0  0  0  0  0
  152.0377  137.7518  154.7756 H   0  0  0  0  0  0  0  0  0  0  0  0
  151.3830  137.9355  156.4084 H   0  0  0  0  0  0  0  0  0  0  0  0
  151.3756  135.5032  154.6228 H   0  0  0  0  0  0  0  0  0  0  0  0
  151.6276  135.5584  156.3665 H   0  0  0  0  0  0  0  0  0  0  0  0
  149.2135  134.7926  155.3757 H   0  0  0  0  0  0  0  0  0  0  0  0
  149.2845  135.8647  156.7732 H   0  0  0  0  0  0  0  0  0  0  0  0
  147.9817  137.2450  155.3827 H   0  0  0  0  0  0  0  0  0  0  0  0
  148.7142  136.6143  153.9034 H   0  0  0  0  0  0  0  0  0  0  0  0
  148.4307  138.0344  152.6570 H   0  0  0  0  0  0  0  0  0  0  0  0
  1  2  1  0  0  0  0
  1 18  1  0  0  0  0
  1 19  1  0  0  0  0
  1 20  1  0  0  0  0
  2  3  1  0  0  0  0
  2 11  1  0  0  0  0
  2 21  1  0  0  0  0
  3  4  1  0  0  0  0
  3 22  1  0  0  0  0
  3 38  1  0  0  0  0
  4  5  1  0  0  0  0
  4 23  1  0  0  0  0
  4 24  1  0  0  0  0
  5  6  1  0  0  0  0
  5 25  1  0  0  0  0
  5 26  1  0  0  0  0
  6 10  1  0  0  0  0
  6  7  1  0  0  0  0
  7  8  2  0  0  0  0
  7 27  1  0  0  0  0
  8  9  1  0  0  0  0
  8 28  1  0  0  0  0
  9 10  2  0  0  0  0
  9 29  1  0  0  0  0
 11 12  2  0  0  0  0
 11 13  1  0  0  0  0
 13 17  1  0  0  0  0
 13 14  1  0  0  0  0
 14 15  1  0  0  0  0
 14 30  1  0  0  0  0
 14 31  1  0  0  0  0
 15 16  1  0  0  0  0
 15 32  1  0  0  0  0
 15 33  1  0  0  0  0
 16 17  1  0  0  0  0
 16 34  1  0  0  0  0
 16 35  1  0  0  0  0
 17 36  1  0  0  0  0
 17 37  1  0  0  0  0
M  CHG  1   3   1
M  END
> <s_m_source_file>
AV-unprocessed.smi

> <i_m_source_file_index>
3143

> <i_lp_mmshare_version>
43012

> <i_f3d_flags>
0

> <s_epik_input>
W0NIMl0xW0NIMl1bQ0gyXVtDSDJdTjFDKD1PKVtDQEhdKFtDSDNdKVtOSF1bQ0gyXVtDSDJdbjJbY0hdW2NIXVtjSF1uMg==

> <s_epik_cmdline>
J2VwaWtfcHl0aG9uJywgJy1waCcsICc3LjAnLCAnLXRuJywgJzgnLCAnLW1hJywgJzIwMCcsICctbWV0YWxfYmluZGluZycsICctaW1hZScsICc8aW5maWxlLm1hZT4nLCAnLW9tYWUnLCAnPG91dGZpbGUubWFlPic=

> <r_lp_tautomer_probability>
1

> <r_epik_Ionization_Penalty>
0.203171

> <r_epik_Ionization_Penalty_Charging>
0.203168

> <r_epik_Ionization_Penalty_Neutral>
2.46932e-06

> <r_epik_State_Penalty>
0.193072

> <r_epik_Charging_Adjusted_Penalty>
0.39624

> <i_epik_Tot_Q>
1

> <i_epik_Tot_abs_Q>
1

> <r_epik_Metal_State_Penalty>
0.193323

> <b_epik_Metal_Only>
0

> <s_lp_Force_Field>
OPLS_2005

> <r_lp_Energy>
30.1321

> <b_lp_Chiralities_Consistent>
1

> <s_lp_Variant>
AV-unprocessed.smi:3143-2

> <Gold.Version>
5.8.1

> <Gold.Id.Protein>
6NUR|6NUR_protein|mol2

> <Gold.PLP.Fitness>
42.4481

> <Gold.PLP.PLP>
-29.2210

> <Gold.PLP.part.hbond>
-2.8067

> <Gold.PLP.part.metal>
0.0000

> <Gold.PLP.part.buried>
-4.1975

> <Gold.PLP.part.nonpolar>
-23.7054

> <Gold.PLP.part.repulsive>
0.7577

> <Gold.PLP.ligand.clash>
0.0000

> <Gold.PLP.ligand.torsion>
0.9506

> <Gold.PLP.Chemscore.Hbond>
4.0000

> <Gold.PLP.Chemscore.CHOScore>
1.0000

> <Gold.PLP.Chemscore.Metal>
0.0000

> <Gold.Chemscore.Hbonds>
donor molecule, donor type, donor heavy atom, donor atom, acceptor molecule, acceptor atom, score
      L1  H     3    22       P1  7957  1.00
      L1  H     3    38       P1  7948  2.00
      P1  H  7989  7998       L1    12  1.00
      L1  C     9    29       P1  7921  1.00

> <Gold.PLP.Chemscore.Internal.Correction>
0.1282

> <Gold.Rescore>
     Score         DG    S(hbond)    S(metal)    S(lipo)     H(rot)  DE(clash)    DE(int)     intcor
     16.51     -17.44       2.93        0.00      58.74       1.84       0.10       0.83       ----

> <Gold.Chemscore.Fitness>
16.5114

> <Gold.Chemscore.DG>
-17.4375

> <Gold.Chemscore.ZeroCoef>
-5.4800

> <Gold.Chemscore.Hbond>
2.9331

> <Gold.Chemscore.Metal>
0.0000

> <Gold.Chemscore.Lipo>
58.7413

> <Gold.Chemscore.Internal_Hbond>
0.0000

> <Gold.Chemscore.DEClash>
0.0954

> <Gold.Chemscore.DEInternal>
0.8307

> <Gold.Chemscore.Rot>
1.8405

> <Gold.Chemscore.Internal.Correction>
   9.000000E+99

> <Gold.Chemscore.Hbonds>
donor molecule, donor type, donor heavy atom, donor atom, acceptor molecule, acceptor atom, score
      L1  H     3    22       P1  7957  0.89
      L1  H     3    38       P1  7948  0.93
      P1  H  7989  7998       L1    12  1.00

> <Gold.Chemscore.Hbond.Weighted>
-9.7965

> <Gold.Chemscore.Metal.Weighted>
-0.0000

> <Gold.Chemscore.Lipo.Weighted>
-6.8727

> <Gold.Chemscore.Internal_Hbond.Weighted>
0.0000

> <Gold.Chemscore.DEClash.Weighted>
0.0954

> <Gold.Chemscore.DEInternal.Weighted>
0.8307

> <Gold.Chemscore.Rot.Weighted>
4.7117

> <Gold.Chemscore.Internal.Correction.Weighted>
   9.000000E+99

> <Gold.Protein.RotatedTorsions>
[ 6907 6896 6895 6894 ] final   -8.00 input  -60.11 | X-H torsion
[ 7974 7965 7964 7962 ] final  -21.88 input  175.53 | X-H torsion
[ 8008 7997 7996 7995 ] final -121.16 input   59.86 | X-H torsion
[ 10167 10162 10161 10158 ] final  177.79 input  -65.29 | X-H torsion
[ 10718 10713 10712 10709 ] final   74.76 input   66.30 | X-H torsion
[ 10763 10752 10751 10750 ] final  -71.38 input  -60.55 | X-H torsion
[ 11005 11000 10999 10996 ] final  -22.10 input  -57.11 | X-H torsion

> <Gold.Protein.ActiveResidues>
 VAL166  LYS551  ARG553  GLY616  TRP617  ASP618  TYR619  PRO620  LYS621  CYS622 
 ASP623  PHE694  ASN695  SER759  ASP760  ASP761  ALA762  ILE779  LEU786  VAL792 
 PHE793  MET794  SER795  GLU796  ALA797  LYS798  CYS799  TRP800  GLU811  SER814 

> <Gold.Protein.RotatedAtoms>
  151.4406  135.1020  159.9668 H   0  0  0  0  0  0  0  0  0  0  0  0  # atno 6907 bound_to 6896
  152.4924  133.8532  159.7223 H   0  0  0  0  0  0  0  0  0  0  0  0  # atno 6908 bound_to 6896
  150.9091  133.6962  159.2887 H   0  0  0  0  0  0  0  0  0  0  0  0  # atno 6909 bound_to 6896
  146.1708  140.4402  142.8533 H   0  0  0  0  0  0  0  0  0  0  0  0  # atno 7974 bound_to 7965
  155.1436  140.0402  157.2804 H   0  0  0  0  0  0  0  0  0  0  0  0  # atno 8008 bound_to 7997
  154.6455  140.2557  155.7246 H   0  0  0  0  0  0  0  0  0  0  0  0  # atno 8009 bound_to 7997
  156.2553  140.2847  156.0867 H   0  0  0  0  0  0  0  0  0  0  0  0  # atno 8010 bound_to 7997
  139.5267  144.2757  152.0590 H   0  0  0  0  0  0  0  0  0  0  0  0  # atno 10167 bound_to 10162
  157.6606  130.9693  150.1257 H   0  0  0  0  0  0  0  0  0  0  0  0  # atno 10718 bound_to 10713
  154.4309  135.5964  153.6068 H   0  0  0  0  0  0  0  0  0  0  0  0  # atno 10763 bound_to 10752
  152.9799  135.5975  154.3840 H   0  0  0  0  0  0  0  0  0  0  0  0  # atno 10764 bound_to 10752
  154.3678  135.2841  155.2262 H   0  0  0  0  0  0  0  0  0  0  0  0  # atno 10765 bound_to 10752
  140.8625  133.7778  156.0091 H   0  0  0  0  0  0  0  0  0  0  0  0  # atno 11005 bound_to 11000
  144.8160  140.6468  143.6384 LP  0  0  0  0  0  0  0  0  0  0  0  0  # atno 17320 bound_to 7965
  145.4346  139.1544  143.4004 LP  0  0  0  0  0  0  0  0  0  0  0  0  # atno 17321 bound_to 7965
  140.2214  144.4462  150.6340 LP  0  0  0  0  0  0  0  0  0  0  0  0  # atno 17342 bound_to 10162
  140.6416  143.2204  151.6278 LP  0  0  0  0  0  0  0  0  0  0  0  0  # atno 17343 bound_to 10162
  156.2117  130.3667  149.8663 LP  0  0  0  0  0  0  0  0  0  0  0  0  # atno 17370 bound_to 10713
  156.6540  130.8755  151.3536 LP  0  0  0  0  0  0  0  0  0  0  0  0  # atno 17371 bound_to 10713
  140.8667  134.2776  157.5210 LP  0  0  0  0  0  0  0  0  0  0  0  0  # atno 17394 bound_to 11000
  139.8707  134.9546  156.4181 LP  0  0  0  0  0  0  0  0  0  0  0  0  # atno 17395 bound_to 11000

$$$$
