AV-unprocessed.smi:2410|AV-procd|sdf|9527|dock7
  -GOLD-   2272013153D 1   1.00000     0.00000
 Structure written by MMmdl.
 46 48  0  0  0  0  0  0  0  0  1 V2000
  151.5244  144.4150  158.3510 C   0  0  0  0  0  0  0  0  0  0  0  0
  151.4985  143.0606  157.6647 C   0  0  0  0  0  0  0  0  0  0  0  0
  150.7316  142.9011  156.4883 C   0  0  0  0  0  0  0  0  0  0  0  0
  150.6785  141.6574  155.8215 C   0  0  0  0  0  0  0  0  0  0  0  0
  150.0024  141.2798  154.6736 N   0  0  0  0  0  0  0  0  0  0  0  0
  150.3503  140.0003  154.5665 C   0  0  0  0  0  0  0  0  0  0  0  0
  151.1724  139.5043  155.5110 N   0  0  0  0  0  0  0  0  0  0  0  0
  151.6899  138.1519  155.6090 C   0  0  0  0  0  0  0  0  0  0  0  0
  150.7496  137.1182  154.9600 C   0  0  1  0  0  0  0  0  0  0  0  0
  151.5164  136.2983  154.0990 O   0  0  0  0  0  0  0  0  0  0  0  0
  150.0605  136.2266  156.0155 C   0  0  0  0  0  0  0  0  0  0  0  0
  149.9757  134.8223  155.5818 N   0  0  0  0  0  0  0  0  0  0  0  0
  149.1094  134.5528  154.5101 C   0  0  0  0  0  0  0  0  0  0  0  0
  148.9641  133.3578  154.0384 N   0  0  0  0  0  0  0  0  0  0  0  0
  149.6734  132.2939  154.6033 C   0  0  0  0  0  0  0  0  0  0  0  0
  149.4328  130.9352  153.9694 C   0  0  0  0  0  0  0  0  0  0  0  0
  150.5171  132.4855  155.6541 C   0  0  0  0  0  0  0  0  0  0  0  0
  151.3102  131.3648  156.3146 C   0  0  0  0  0  0  0  0  0  0  0  0
  150.6913  133.8401  156.2029 C   0  0  0  0  0  0  0  0  0  0  0  0
  151.4303  134.0851  157.1589 O   0  0  0  0  0  0  0  0  0  0  0  0
  151.4207  140.5702  156.3678 C   0  0  0  0  0  0  0  0  0  0  0  0
  152.1887  140.7164  157.5365 C   0  0  0  0  0  0  0  0  0  0  0  0
  152.2289  141.9650  158.1914 C   0  0  0  0  0  0  0  0  0  0  0  0
  153.0572  142.1117  159.4556 C   0  0  0  0  0  0  0  0  0  0  0  0
  150.9543  145.1564  157.7906 H   0  0  0  0  0  0  0  0  0  0  0  0
  152.5478  144.7800  158.4403 H   0  0  0  0  0  0  0  0  0  0  0  0
  151.0927  144.3443  159.3496 H   0  0  0  0  0  0  0  0  0  0  0  0
  150.1746  143.7350  156.0873 H   0  0  0  0  0  0  0  0  0  0  0  0
  149.9850  139.3877  153.7552 H   0  0  0  0  0  0  0  0  0  0  0  0
  152.6804  138.1157  155.1526 H   0  0  0  0  0  0  0  0  0  0  0  0
  151.8248  137.9247  156.6671 H   0  0  0  0  0  0  0  0  0  0  0  0
  150.0040  137.6458  154.3640 H   0  0  0  0  0  0  0  0  0  0  0  0
  151.3826  136.5872  153.2093 H   0  0  0  0  0  0  0  0  0  0  0  0
  150.5468  136.3340  156.9875 H   0  0  0  0  0  0  0  0  0  0  0  0
  149.0442  136.5861  156.1874 H   0  0  0  0  0  0  0  0  0  0  0  0
  148.5724  135.4153  154.1112 H   0  0  0  0  0  0  0  0  0  0  0  0
  150.3648  130.5243  153.5805 H   0  0  0  0  0  0  0  0  0  0  0  0
  148.7272  131.0028  153.1403 H   0  0  0  0  0  0  0  0  0  0  0  0
  149.0218  130.2391  154.7012 H   0  0  0  0  0  0  0  0  0  0  0  0
  151.0377  131.2816  157.3673 H   0  0  0  0  0  0  0  0  0  0  0  0
  152.3785  131.5758  156.2575 H   0  0  0  0  0  0  0  0  0  0  0  0
  151.1436  130.3920  155.8553 H   0  0  0  0  0  0  0  0  0  0  0  0
  152.7388  139.8727  157.9267 H   0  0  0  0  0  0  0  0  0  0  0  0
  153.5348  141.1708  159.7301 H   0  0  0  0  0  0  0  0  0  0  0  0
  152.4289  142.4233  160.2904 H   0  0  0  0  0  0  0  0  0  0  0  0
  153.8414  142.8556  159.3145 H   0  0  0  0  0  0  0  0  0  0  0  0
  1  2  1  0  0  0  0
  1 25  1  0  0  0  0
  1 26  1  0  0  0  0
  1 27  1  0  0  0  0
  2 23  1  0  0  0  0
  2  3  2  0  0  0  0
  3  4  1  0  0  0  0
  3 28  1  0  0  0  0
  4 21  2  0  0  0  0
  4  5  1  0  0  0  0
  5  6  2  0  0  0  0
  6  7  1  0  0  0  0
  6 29  1  0  0  0  0
  7  8  1  0  0  0  0
  7 21  1  0  0  0  0
  8  9  1  0  0  0  0
  8 30  1  0  0  0  0
  8 31  1  0  0  0  0
  9 10  1  0  0  0  0
  9 11  1  0  0  0  0
  9 32  1  0  0  0  0
 10 33  1  0  0  0  0
 11 12  1  0  0  0  0
 11 34  1  0  0  0  0
 11 35  1  0  0  0  0
 12 19  1  0  0  0  0
 12 13  1  0  0  0  0
 13 14  2  0  0  0  0
 13 36  1  0  0  0  0
 14 15  1  0  0  0  0
 15 16  1  0  0  0  0
 15 17  2  0  0  0  0
 16 37  1  0  0  0  0
 16 38  1  0  0  0  0
 16 39  1  0  0  0  0
 17 18  1  0  0  0  0
 17 19  1  0  0  0  0
 18 40  1  0  0  0  0
 18 41  1  0  0  0  0
 18 42  1  0  0  0  0
 19 20  2  0  0  0  0
 21 22  1  0  0  0  0
 22 23  2  0  0  0  0
 22 43  1  0  0  0  0
 23 24  1  0  0  0  0
 24 44  1  0  0  0  0
 24 45  1  0  0  0  0
 24 46  1  0  0  0  0
M  END
> <s_m_source_file>
AV-unprocessed.smi

> <i_m_source_file_index>
2410

> <i_lp_mmshare_version>
43012

> <i_f3d_flags>
0

> <s_epik_input>
W0NIM11jKFtjSF0xKWMoW0NIM10pW2NIXWMoYzEyKW4oW2NIXW4yKVtDSDJdW0NASF0oW09IXSlbQ0gyXW4zW2NIXW5jKFtDSDNdKWMoW0NIM10pYzM9Tw==

> <s_epik_cmdline>
J2VwaWtfcHl0aG9uJywgJy1waCcsICc3LjAnLCAnLXRuJywgJzgnLCAnLW1hJywgJzIwMCcsICctbWV0YWxfYmluZGluZycsICctaW1hZScsICc8aW5maWxlLm1hZT4nLCAnLW9tYWUnLCAnPG91dGZpbGUubWFlPic=

> <r_lp_tautomer_probability>
1

> <r_epik_Ionization_Penalty>
0.113377

> <r_epik_Ionization_Penalty_Charging>
7.56033e-08

> <r_epik_Ionization_Penalty_Neutral>
0.113377

> <r_epik_State_Penalty>
0.103025

> <r_epik_Charging_Adjusted_Penalty>
0.103025

> <i_epik_Tot_Q>
0

> <i_epik_Tot_abs_Q>
0

> <r_epik_Metal_State_Penalty>
0.0863476

> <b_epik_Metal_Only>
0

> <s_lp_Force_Field>
OPLS_2005

> <r_lp_Energy>
18.3765

> <b_lp_Chiralities_Consistent>
1

> <s_lp_Variant>
AV-unprocessed.smi:2410-2

> <Gold.Version>
5.8.1

> <Gold.Id.Protein>
6NUR|6NUR_protein|mol2

> <Gold.PLP.Fitness>
50.3437

> <Gold.PLP.PLP>
-44.2244

> <Gold.PLP.part.hbond>
-4.0000

> <Gold.PLP.part.metal>
0.0000

> <Gold.PLP.part.buried>
1.0887

> <Gold.PLP.part.nonpolar>
-39.6966

> <Gold.PLP.part.repulsive>
0.2822

> <Gold.PLP.ligand.clash>
0.0000

> <Gold.PLP.ligand.torsion>
1.6842

> <Gold.PLP.Chemscore.Hbond>
1.9038

> <Gold.PLP.Chemscore.CHOScore>
1.2506

> <Gold.PLP.Chemscore.Metal>
0.0000

> <Gold.Chemscore.Hbonds>
donor molecule, donor type, donor heavy atom, donor atom, acceptor molecule, acceptor atom, score
      L1  H    10    33       P1  7949  0.85
      P1  H  6896  6909       L1    20  0.06
      P1  H 10752 10764       L1    10  1.00
      L1  C     6    29       P1  7957  0.58
      L1  C    13    36       P1  7948  0.82

> <Gold.PLP.Chemscore.Internal.Correction>
0.0247

> <Gold.Rescore>
     Score         DG    S(hbond)    S(metal)    S(lipo)     H(rot)  DE(clash)    DE(int)     intcor
     14.64     -16.38       1.24        0.00     109.03       2.35       0.04       1.70       ----

> <Gold.Chemscore.Fitness>
14.6402

> <Gold.Chemscore.DG>
-16.3788

> <Gold.Chemscore.ZeroCoef>
-5.4800

> <Gold.Chemscore.Hbond>
1.2432

> <Gold.Chemscore.Metal>
0.0000

> <Gold.Chemscore.Lipo>
109.0348

> <Gold.Chemscore.Internal_Hbond>
0.0000

> <Gold.Chemscore.DEClash>
0.0354

> <Gold.Chemscore.DEInternal>
1.7032

> <Gold.Chemscore.Rot>
2.3479

> <Gold.Chemscore.Internal.Correction>
   9.000000E+99

> <Gold.Chemscore.Hbonds>
donor molecule, donor type, donor heavy atom, donor atom, acceptor molecule, acceptor atom, score
      L1  H    10    33       P1  7949  0.67
      P1  H  6896  6909       L1    20  0.06
      P1  H 10752 10764       L1    10  0.83

> <Gold.Chemscore.Hbond.Weighted>
-4.1523

> <Gold.Chemscore.Metal.Weighted>
-0.0000

> <Gold.Chemscore.Lipo.Weighted>
-12.7571

> <Gold.Chemscore.Internal_Hbond.Weighted>
0.0000

> <Gold.Chemscore.DEClash.Weighted>
0.0354

> <Gold.Chemscore.DEInternal.Weighted>
1.7032

> <Gold.Chemscore.Rot.Weighted>
6.0106

> <Gold.Chemscore.Internal.Correction.Weighted>
   9.000000E+99

> <Gold.Protein.RotatedTorsions>
[ 6907 6896 6895 6894 ] final  -66.03 input  -60.11 | X-H torsion
[ 7974 7965 7964 7962 ] final   26.24 input  175.53 | X-H torsion
[ 8008 7997 7996 7995 ] final -145.30 input   59.86 | X-H torsion
[ 10167 10162 10161 10158 ] final  -93.99 input  -65.29 | X-H torsion
[ 10718 10713 10712 10709 ] final  -77.54 input   66.30 | X-H torsion
[ 10763 10752 10751 10750 ] final  -75.14 input  -60.55 | X-H torsion
[ 11005 11000 10999 10996 ] final -149.08 input  -57.11 | X-H torsion

> <Gold.Protein.ActiveResidues>
 VAL166  LYS551  ARG553  GLY616  TRP617  ASP618  TYR619  PRO620  LYS621  CYS622 
 ASP623  PHE694  ASN695  SER759  ASP760  ASP761  ALA762  ILE779  LEU786  VAL792 
 PHE793  MET794  SER795  GLU796  ALA797  LYS798  CYS799  TRP800  GLU811  SER814 

> <Gold.Protein.RotatedAtoms>
  150.7489  134.6078  159.6069 H   0  0  0  0  0  0  0  0  0  0  0  0  # atno 6907 bound_to 6896
  152.3421  134.7117  160.0270 H   0  0  0  0  0  0  0  0  0  0  0  0  # atno 6908 bound_to 6896
  151.7566  133.3295  159.3443 H   0  0  0  0  0  0  0  0  0  0  0  0  # atno 6909 bound_to 6896
  146.1848  139.7355  142.8875 H   0  0  0  0  0  0  0  0  0  0  0  0  # atno 7974 bound_to 7965
  155.5409  140.0608  157.2870 H   0  0  0  0  0  0  0  0  0  0  0  0  # atno 8008 bound_to 7997
  154.4452  140.1919  156.0634 H   0  0  0  0  0  0  0  0  0  0  0  0  # atno 8009 bound_to 7997
  156.0585  140.3275  155.7437 H   0  0  0  0  0  0  0  0  0  0  0  0  # atno 8010 bound_to 7997
  140.3190  143.3060  152.0066 H   0  0  0  0  0  0  0  0  0  0  0  0  # atno 10167 bound_to 10162
  156.0142  130.4494  150.3361 H   0  0  0  0  0  0  0  0  0  0  0  0  # atno 10718 bound_to 10713
  154.4826  135.5841  153.6400 H   0  0  0  0  0  0  0  0  0  0  0  0  # atno 10763 bound_to 10752
  152.9850  135.6093  154.3227 H   0  0  0  0  0  0  0  0  0  0  0  0  # atno 10764 bound_to 10752
  154.3119  135.2845  155.2541 H   0  0  0  0  0  0  0  0  0  0  0  0  # atno 10765 bound_to 10752
  140.7545  134.3368  157.5117 H   0  0  0  0  0  0  0  0  0  0  0  0  # atno 11005 bound_to 11000
  145.3972  141.0380  143.3091 LP  0  0  0  0  0  0  0  0  0  0  0  0  # atno 17320 bound_to 7965
  144.8377  139.5523  143.6914 LP  0  0  0  0  0  0  0  0  0  0  0  0  # atno 17321 bound_to 7965
  139.4878  144.6325  151.7040 LP  0  0  0  0  0  0  0  0  0  0  0  0  # atno 17342 bound_to 10162
  140.5500  144.0440  150.6123 LP  0  0  0  0  0  0  0  0  0  0  0  0  # atno 17343 bound_to 10162
  157.1458  131.0308  151.2907 LP  0  0  0  0  0  0  0  0  0  0  0  0  # atno 17370 bound_to 10713
  157.4434  130.7557  149.7088 LP  0  0  0  0  0  0  0  0  0  0  0  0  # atno 17371 bound_to 10713
  139.8781  134.9163  156.3152 LP  0  0  0  0  0  0  0  0  0  0  0  0  # atno 17394 bound_to 11000
  140.9720  133.7321  156.0548 LP  0  0  0  0  0  0  0  0  0  0  0  0  # atno 17395 bound_to 11000

$$$$
