AV-unprocessed.smi:105|AV-procd|sdf|1009|dock8
  -GOLD-   2262018 03D 1   1.00000     0.00000
 Structure written by MMmdl.
 42 45  0  0  0  0  0  0  0  0  1 V2000
  151.5144  145.1678  158.3888 C   0  0  0  0  0  0  0  0  0  0  0  0
  151.5649  145.3488  159.7845 C   0  0  0  0  0  0  0  0  0  0  0  0
  152.1845  144.3810  160.5991 C   0  0  0  0  0  0  0  0  0  0  0  0
  152.7538  143.2267  160.0218 C   0  0  0  0  0  0  0  0  0  0  0  0
  153.4270  142.1890  160.9062 C   0  0  0  0  0  0  0  0  0  0  0  0
  154.3693  141.3108  160.2202 N   0  0  0  0  0  0  0  0  0  0  0  0
  154.1263  139.9853  160.1204 C   0  0  0  0  0  0  0  0  0  0  0  0
  153.5964  139.4524  158.9881 N   0  0  0  0  0  0  0  0  0  0  0  0
  153.3544  138.1398  158.9164 C   0  0  0  0  0  0  0  0  0  0  0  0
  153.5595  137.2011  159.8431 N   0  0  0  0  0  0  0  0  0  0  0  0
  154.0909  137.7338  160.9814 C   0  0  0  0  0  0  0  0  0  0  0  0
  154.4007  139.1058  161.1995 C   0  0  0  0  0  0  0  0  0  0  0  0
  154.9218  139.2817  162.4744 N   0  0  0  0  0  0  0  0  0  0  0  0
  154.9169  138.0805  162.9853 C   0  0  0  0  0  0  0  0  0  0  0  0
  154.4389  137.0883  162.1577 N   0  0  0  0  0  0  0  0  0  0  0  0
  154.3141  135.6781  162.4876 C   0  0  2  0  0  0  0  0  0  0  0  0
  154.6959  135.3842  163.9532 C   0  0  0  0  0  0  0  0  0  0  0  0
  154.5420  133.8784  164.1985 C   0  0  0  0  0  0  0  0  0  0  0  0
  155.3967  133.1088  163.1863 C   0  0  0  0  0  0  0  0  0  0  0  0
  155.0366  133.5498  161.7579 C   0  0  0  0  0  0  0  0  0  0  0  0
  155.1659  134.9643  161.6397 O   0  0  0  0  0  0  0  0  0  0  0  0
  152.7043  143.0509  158.6218 C   0  0  0  0  0  0  0  0  0  0  0  0
  152.0847  144.0188  157.8076 C   0  0  0  0  0  0  0  0  0  0  0  0
  151.0396  145.9100  157.7643 H   0  0  0  0  0  0  0  0  0  0  0  0
  151.1284  146.2302  160.2305 H   0  0  0  0  0  0  0  0  0  0  0  0
  152.2184  144.5267  161.6689 H   0  0  0  0  0  0  0  0  0  0  0  0
  153.9695  142.7163  161.6910 H   0  0  0  0  0  0  0  0  0  0  0  0
  152.6725  141.5850  161.4121 H   0  0  0  0  0  0  0  0  0  0  0  0
  155.1003  141.7730  159.6987 H   0  0  0  0  0  0  0  0  0  0  0  0
  152.9347  137.7927  157.9838 H   0  0  0  0  0  0  0  0  0  0  0  0
  155.2652  137.8858  163.9894 H   0  0  0  0  0  0  0  0  0  0  0  0
  153.2832  135.3815  162.2844 H   0  0  0  0  0  0  0  0  0  0  0  0
  155.7228  135.7007  164.1375 H   0  0  0  0  0  0  0  0  0  0  0  0
  154.0454  135.9557  164.6159 H   0  0  0  0  0  0  0  0  0  0  0  0
  154.8444  133.6286  165.2158 H   0  0  0  0  0  0  0  0  0  0  0  0
  153.4950  133.5884  164.1014 H   0  0  0  0  0  0  0  0  0  0  0  0
  156.4535  133.3029  163.3735 H   0  0  0  0  0  0  0  0  0  0  0  0
  155.2482  132.0347  163.3006 H   0  0  0  0  0  0  0  0  0  0  0  0
  155.7028  133.0732  161.0387 H   0  0  0  0  0  0  0  0  0  0  0  0
  154.0210  133.2448  161.5007 H   0  0  0  0  0  0  0  0  0  0  0  0
  153.1407  142.1732  158.1678 H   0  0  0  0  0  0  0  0  0  0  0  0
  152.0478  143.8800  156.7372 H   0  0  0  0  0  0  0  0  0  0  0  0
  1 23  1  0  0  0  0
  1  2  2  0  0  0  0
  1 24  1  0  0  0  0
  2  3  1  0  0  0  0
  2 25  1  0  0  0  0
  3  4  2  0  0  0  0
  3 26  1  0  0  0  0
  4  5  1  0  0  0  0
  4 22  1  0  0  0  0
  5  6  1  0  0  0  0
  5 27  1  0  0  0  0
  5 28  1  0  0  0  0
  6  7  1  0  0  0  0
  6 29  1  0  0  0  0
  7 12  1  0  0  0  0
  7  8  2  0  0  0  0
  8  9  1  0  0  0  0
  9 10  2  0  0  0  0
  9 30  1  0  0  0  0
 10 11  1  0  0  0  0
 11 15  1  0  0  0  0
 11 12  2  0  0  0  0
 12 13  1  0  0  0  0
 13 14  2  0  0  0  0
 14 15  1  0  0  0  0
 14 31  1  0  0  0  0
 15 16  1  0  0  0  0
 16 21  1  0  0  0  0
 16 17  1  0  0  0  0
 16 32  1  0  0  0  0
 17 18  1  0  0  0  0
 17 33  1  0  0  0  0
 17 34  1  0  0  0  0
 18 19  1  0  0  0  0
 18 35  1  0  0  0  0
 18 36  1  0  0  0  0
 19 20  1  0  0  0  0
 19 37  1  0  0  0  0
 19 38  1  0  0  0  0
 20 21  1  0  0  0  0
 20 39  1  0  0  0  0
 20 40  1  0  0  0  0
 22 23  2  0  0  0  0
 22 41  1  0  0  0  0
 23 42  1  0  0  0  0
M  END
> <s_m_source_file>
AV-unprocessed.smi

> <i_m_source_file_index>
105

> <i_lp_mmshare_version>
43012

> <i_f3d_flags>
0

> <s_epik_input>
W2NIXTFbY0hdW2NIXVtjSF1bY0hdYzFbQ0gyXVtOSF1jKG5bY0hdbjIpYyhjMjMpbltjSF1uM1tDQEBIXTRbQ0gyXVtDSDJdW0NIMl1bQ0gyXU80

> <s_epik_cmdline>
J2VwaWtfcHl0aG9uJywgJy1waCcsICc3LjAnLCAnLXRuJywgJzgnLCAnLW1hJywgJzIwMCcsICctbWV0YWxfYmluZGluZycsICctaW1hZScsICc8aW5maWxlLm1hZT4nLCAnLW9tYWUnLCAnPG91dGZpbGUubWFlPic=

> <r_lp_tautomer_probability>
1

> <r_epik_Ionization_Penalty>
0.000653933

> <r_epik_Ionization_Penalty_Charging>
0

> <r_epik_Ionization_Penalty_Neutral>
0.000653933

> <r_epik_State_Penalty>
-0

> <r_epik_Charging_Adjusted_Penalty>
0

> <i_epik_Tot_Q>
0

> <i_epik_Tot_abs_Q>
0

> <r_epik_Metal_State_Penalty>
-0

> <b_epik_Metal_Only>
0

> <s_epik_Chemistry_Notes>
This compound contains an acetal/aminal-like group ( X-CH(R)-Y where X, Y are N, S, or O) that may be acid/base labile, releasing an aldehyde.

> <s_lp_Force_Field>
OPLS_2005

> <r_lp_Energy>
24.2362

> <b_lp_Chiralities_Consistent>
1

> <s_lp_Variant>
AV-unprocessed.smi:105-1

> <Gold.Version>
5.8.1

> <Gold.Id.Protein>
6NUR|6NUR_protein|mol2

> <Gold.PLP.Fitness>
48.5881

> <Gold.PLP.PLP>
-48.1686

> <Gold.PLP.part.hbond>
-1.0000

> <Gold.PLP.part.metal>
0.0000

> <Gold.PLP.part.buried>
-5.8267

> <Gold.PLP.part.nonpolar>
-40.8093

> <Gold.PLP.part.repulsive>
0.0444

> <Gold.PLP.ligand.clash>
0.0000

> <Gold.PLP.ligand.torsion>
1.0735

> <Gold.PLP.Chemscore.Hbond>
0.8500

> <Gold.PLP.Chemscore.CHOScore>
0.0000

> <Gold.PLP.Chemscore.Metal>
0.0000

> <Gold.Chemscore.Hbonds>
donor molecule, donor type, donor heavy atom, donor atom, acceptor molecule, acceptor atom, score
      P1  H  7997  8010       L1     8  0.52

> <Gold.PLP.Chemscore.Internal.Correction>
0.0165

> <Gold.Rescore>
     Score         DG    S(hbond)    S(metal)    S(lipo)     H(rot)  DE(clash)    DE(int)     intcor
     14.91     -16.49       0.55        0.00     112.52       1.55       0.40       1.18       ----

> <Gold.Chemscore.Fitness>
14.9088

> <Gold.Chemscore.DG>
-16.4911

> <Gold.Chemscore.ZeroCoef>
-5.4800

> <Gold.Chemscore.Hbond>
0.5467

> <Gold.Chemscore.Metal>
0.0000

> <Gold.Chemscore.Lipo>
112.5230

> <Gold.Chemscore.Internal_Hbond>
0.0000

> <Gold.Chemscore.DEClash>
0.4019

> <Gold.Chemscore.DEInternal>
1.1804

> <Gold.Chemscore.Rot>
1.5547

> <Gold.Chemscore.Internal.Correction>
   9.000000E+99

> <Gold.Chemscore.Hbonds>
donor molecule, donor type, donor heavy atom, donor atom, acceptor molecule, acceptor atom, score
      P1  H  7997  8010       L1     8  0.25

> <Gold.Chemscore.Hbond.Weighted>
-1.8259

> <Gold.Chemscore.Metal.Weighted>
-0.0000

> <Gold.Chemscore.Lipo.Weighted>
-13.1652

> <Gold.Chemscore.Internal_Hbond.Weighted>
0.0000

> <Gold.Chemscore.DEClash.Weighted>
0.4019

> <Gold.Chemscore.DEInternal.Weighted>
1.1804

> <Gold.Chemscore.Rot.Weighted>
3.9800

> <Gold.Chemscore.Internal.Correction.Weighted>
   9.000000E+99

> <Gold.Protein.RotatedTorsions>
[ 6907 6896 6895 6894 ] final   92.92 input  -60.11 | X-H torsion
[ 7974 7965 7964 7962 ] final    9.53 input  175.53 | X-H torsion
[ 8008 7997 7996 7995 ] final   17.55 input   59.86 | X-H torsion
[ 10167 10162 10161 10158 ] final -102.43 input  -65.29 | X-H torsion
[ 10718 10713 10712 10709 ] final  -21.73 input   66.30 | X-H torsion
[ 10763 10752 10751 10750 ] final   79.91 input  -60.55 | X-H torsion
[ 11005 11000 10999 10996 ] final -165.36 input  -57.11 | X-H torsion

> <Gold.Protein.ActiveResidues>
 VAL166  LYS551  ARG553  GLY616  TRP617  ASP618  TYR619  PRO620  LYS621  CYS622 
 ASP623  PHE694  ASN695  SER759  ASP760  ASP761  ALA762  ILE779  LEU786  VAL792 
 PHE793  MET794  SER795  GLU796  ALA797  LYS798  CYS799  TRP800  GLU811  SER814 

> <Gold.Protein.RotatedAtoms>
  152.5453  134.1427  159.8485 H   0  0  0  0  0  0  0  0  0  0  0  0  # atno 6907 bound_to 6896
  151.1462  133.4931  159.2603 H   0  0  0  0  0  0  0  0  0  0  0  0  # atno 6908 bound_to 6896
  151.1521  135.0243  159.8727 H   0  0  0  0  0  0  0  0  0  0  0  0  # atno 6909 bound_to 6896
  146.2402  139.9770  142.8440 H   0  0  0  0  0  0  0  0  0  0  0  0  # atno 7974 bound_to 7965
  154.8930  140.2989  155.5360 H   0  0  0  0  0  0  0  0  0  0  0  0  # atno 8008 bound_to 7997
  156.3020  140.2421  156.3883 H   0  0  0  0  0  0  0  0  0  0  0  0  # atno 8009 bound_to 7997
  154.8599  140.0406  157.1647 H   0  0  0  0  0  0  0  0  0  0  0  0  # atno 8010 bound_to 7997
  140.2307  143.3608  152.0889 H   0  0  0  0  0  0  0  0  0  0  0  0  # atno 10167 bound_to 10162
  156.5141  130.4617  149.6632 H   0  0  0  0  0  0  0  0  0  0  0  0  # atno 10718 bound_to 10713
  153.0990  135.4822  154.8833 H   0  0  0  0  0  0  0  0  0  0  0  0  # atno 10763 bound_to 10752
  154.7358  135.3070  154.8817 H   0  0  0  0  0  0  0  0  0  0  0  0  # atno 10764 bound_to 10752
  153.9439  135.6831  153.4797 H   0  0  0  0  0  0  0  0  0  0  0  0  # atno 10765 bound_to 10752
  140.5766  134.5184  157.5171 H   0  0  0  0  0  0  0  0  0  0  0  0  # atno 11005 bound_to 11000
  145.1627  140.9681  143.4367 LP  0  0  0  0  0  0  0  0  0  0  0  0  # atno 17320 bound_to 7965
  145.0101  139.3518  143.6124 LP  0  0  0  0  0  0  0  0  0  0  0  0  # atno 17321 bound_to 7965
  139.5111  144.6895  151.5798 LP  0  0  0  0  0  0  0  0  0  0  0  0  # atno 17342 bound_to 10162
  140.6187  143.9300  150.6509 LP  0  0  0  0  0  0  0  0  0  0  0  0  # atno 17343 bound_to 10162
  156.3212  130.7281  151.2194 LP  0  0  0  0  0  0  0  0  0  0  0  0  # atno 17370 bound_to 10713
  157.7446  131.0455  150.4847 LP  0  0  0  0  0  0  0  0  0  0  0  0  # atno 17371 bound_to 10713
  139.9337  134.7916  156.0861 LP  0  0  0  0  0  0  0  0  0  0  0  0  # atno 17394 bound_to 11000
  141.1023  133.6673  156.2782 LP  0  0  0  0  0  0  0  0  0  0  0  0  # atno 17395 bound_to 11000

$$$$
