AV-unprocessed.smi:2204|AV-procd|sdf|8939|dock7
  -GOLD-   2272012153D 1   1.00000     0.00000
 Structure written by MMmdl.
 39 40  0  0  0  0  0  0  0  0  1 V2000
  151.0626  144.7668  158.4515 C   0  0  0  0  0  0  0  0  0  0  0  0
  151.9597  144.0420  159.4109 C   0  0  0  0  0  0  0  0  0  0  0  0
  152.1101  144.2567  160.8090 C   0  0  0  0  0  0  0  0  0  0  0  0
  153.0613  143.3524  161.1890 C   0  0  0  0  0  0  0  0  0  0  0  0
  153.6672  143.1037  162.5309 C   0  0  0  0  0  0  0  0  0  0  0  0
  153.4263  142.6507  160.0530 N   0  0  0  0  0  0  0  0  0  0  0  0
  154.4220  141.5966  159.8991 C   0  0  0  0  0  0  0  0  0  0  0  0
  153.9196  140.4730  158.9864 C   0  0  0  0  0  0  0  0  0  0  0  0
  154.7202  139.8181  158.3198 O   0  0  0  0  0  0  0  0  0  0  0  0
  152.5953  140.2546  158.9817 N   0  0  0  0  0  0  0  0  0  0  0  0
  151.9039  139.1381  158.3445 C   0  0  2  0  0  0  0  0  0  0  0  0
  152.2568  137.8266  159.0607 C   0  0  0  0  0  0  0  0  0  0  0  0
  152.2515  139.0990  156.8420 C   0  0  1  0  0  0  0  0  0  0  0  0
  151.8531  137.8055  156.1178 C   0  0  0  0  0  0  0  0  0  0  0  0
  151.5965  138.2950  154.7112 C   0  0  0  0  0  0  0  0  0  0  0  0
  150.9480  139.6476  154.9765 C   0  0  0  0  0  0  0  0  0  0  0  0
  151.5964  140.1555  156.1376 O   0  0  0  0  0  0  0  0  0  0  0  0
  152.7446  143.0751  158.9659 N   0  0  0  0  0  0  0  0  0  0  0  0
  150.3226  145.3665  158.9816 H   0  0  0  0  0  0  0  0  0  0  0  0
  150.5248  144.0700  157.8079 H   0  0  0  0  0  0  0  0  0  0  0  0
  151.6371  145.4379  157.8125 H   0  0  0  0  0  0  0  0  0  0  0  0
  151.6047  144.9760  161.4363 H   0  0  0  0  0  0  0  0  0  0  0  0
  153.2554  143.7848  163.2762 H   0  0  0  0  0  0  0  0  0  0  0  0
  154.7471  143.2520  162.5032 H   0  0  0  0  0  0  0  0  0  0  0  0
  153.4706  142.0844  162.8638 H   0  0  0  0  0  0  0  0  0  0  0  0
  155.3412  142.0150  159.4890 H   0  0  0  0  0  0  0  0  0  0  0  0
  154.6670  141.1972  160.8845 H   0  0  0  0  0  0  0  0  0  0  0  0
  152.0239  140.8591  159.5541 H   0  0  0  0  0  0  0  0  0  0  0  0
  150.8245  139.2765  158.4248 H   0  0  0  0  0  0  0  0  0  0  0  0
  151.7368  136.9820  158.6081 H   0  0  0  0  0  0  0  0  0  0  0  0
  151.9691  137.8649  160.1118 H   0  0  0  0  0  0  0  0  0  0  0  0
  153.3270  137.6219  159.0153 H   0  0  0  0  0  0  0  0  0  0  0  0
  153.3245  139.2474  156.7118 H   0  0  0  0  0  0  0  0  0  0  0  0
  152.6257  137.0379  156.1680 H   0  0  0  0  0  0  0  0  0  0  0  0
  150.9344  137.3817  156.5240 H   0  0  0  0  0  0  0  0  0  0  0  0
  152.5393  138.4254  154.1786 H   0  0  0  0  0  0  0  0  0  0  0  0
  150.9616  137.6239  154.1320 H   0  0  0  0  0  0  0  0  0  0  0  0
  151.0411  140.3320  154.1333 H   0  0  0  0  0  0  0  0  0  0  0  0
  149.8876  139.5231  155.1971 H   0  0  0  0  0  0  0  0  0  0  0  0
  1  2  1  0  0  0  0
  1 19  1  0  0  0  0
  1 20  1  0  0  0  0
  1 21  1  0  0  0  0
  2 18  2  0  0  0  0
  2  3  1  0  0  0  0
  3  4  2  0  0  0  0
  3 22  1  0  0  0  0
  4  5  1  0  0  0  0
  4  6  1  0  0  0  0
  5 23  1  0  0  0  0
  5 24  1  0  0  0  0
  5 25  1  0  0  0  0
  6  7  1  0  0  0  0
  6 18  1  0  0  0  0
  7  8  1  0  0  0  0
  7 26  1  0  0  0  0
  7 27  1  0  0  0  0
  8  9  2  0  0  0  0
  8 10  1  0  0  0  0
 10 11  1  0  0  0  0
 10 28  1  0  0  0  0
 11 12  1  0  0  0  0
 11 13  1  0  0  0  0
 11 29  1  0  0  0  0
 12 30  1  0  0  0  0
 12 31  1  0  0  0  0
 12 32  1  0  0  0  0
 13 17  1  0  0  0  0
 13 14  1  0  0  0  0
 13 33  1  0  0  0  0
 14 15  1  0  0  0  0
 14 34  1  0  0  0  0
 14 35  1  0  0  0  0
 15 16  1  0  0  0  0
 15 36  1  0  0  0  0
 15 37  1  0  0  0  0
 16 17  1  0  0  0  0
 16 38  1  0  0  0  0
 16 39  1  0  0  0  0
M  END
> <s_m_source_file>
AV-unprocessed.smi

> <i_m_source_file_index>
2204

> <i_lp_mmshare_version>
43012

> <i_f3d_flags>
0

> <s_epik_input>
W0NIM11jMVtjSF1jKFtDSDNdKW4objEpW0NIMl1DKD1PKVtOSF1bQ0BIXShbQ0gzXSlbQ0BASF0yW0NIMl1bQ0gyXVtDSDJdTzI=

> <s_epik_cmdline>
J2VwaWtfcHl0aG9uJywgJy1waCcsICc3LjAnLCAnLXRuJywgJzgnLCAnLW1hJywgJzIwMCcsICctbWV0YWxfYmluZGluZycsICctaW1hZScsICc8aW5maWxlLm1hZT4nLCAnLW9tYWUnLCAnPG91dGZpbGUubWFlPic=

> <r_lp_tautomer_probability>
1

> <r_epik_Ionization_Penalty>
0.000433354

> <r_epik_Ionization_Penalty_Charging>
0

> <r_epik_Ionization_Penalty_Neutral>
0.000433354

> <r_epik_State_Penalty>
-0

> <r_epik_Charging_Adjusted_Penalty>
0

> <i_epik_Tot_Q>
0

> <i_epik_Tot_abs_Q>
0

> <r_epik_Metal_State_Penalty>
-0

> <b_epik_Metal_Only>
0

> <s_lp_Force_Field>
OPLS_2005

> <r_lp_Energy>
16.4317

> <b_lp_Chiralities_Consistent>
1

> <s_lp_Variant>
AV-unprocessed.smi:2204-3

> <Gold.Version>
5.8.1

> <Gold.Id.Protein>
6NUR|6NUR_protein|mol2

> <Gold.PLP.Fitness>
44.5744

> <Gold.PLP.PLP>
-43.2594

> <Gold.PLP.part.hbond>
-1.0000

> <Gold.PLP.part.metal>
0.0000

> <Gold.PLP.part.buried>
-4.7499

> <Gold.PLP.part.nonpolar>
-36.8355

> <Gold.PLP.part.repulsive>
0.1304

> <Gold.PLP.ligand.clash>
0.0000

> <Gold.PLP.ligand.torsion>
0.8563

> <Gold.PLP.Chemscore.Hbond>
1.0000

> <Gold.PLP.Chemscore.CHOScore>
0.0000

> <Gold.PLP.Chemscore.Metal>
0.0000

> <Gold.PLP.Chemscore.Internal.Correction>
0.0275

> <Gold.Rescore>
     Score         DG    S(hbond)    S(metal)    S(lipo)     H(rot)  DE(clash)    DE(int)     intcor
     15.39     -17.31       0.98        0.00     106.02       1.50       0.08       1.84       ----

> <Gold.Chemscore.Fitness>
15.3926

> <Gold.Chemscore.DG>
-17.3114

> <Gold.Chemscore.ZeroCoef>
-5.4800

> <Gold.Chemscore.Hbond>
0.9786

> <Gold.Chemscore.Metal>
0.0000

> <Gold.Chemscore.Lipo>
106.0182

> <Gold.Chemscore.Internal_Hbond>
0.0000

> <Gold.Chemscore.DEClash>
0.0816

> <Gold.Chemscore.DEInternal>
1.8372

> <Gold.Chemscore.Rot>
1.5005

> <Gold.Chemscore.Internal.Correction>
   9.000000E+99

> <Gold.Chemscore.Hbonds>
donor molecule, donor type, donor heavy atom, donor atom, acceptor molecule, acceptor atom, score
      P1  H  7997  8010       L1     9  0.04

> <Gold.Chemscore.Hbond.Weighted>
-3.2685

> <Gold.Chemscore.Metal.Weighted>
-0.0000

> <Gold.Chemscore.Lipo.Weighted>
-12.4041

> <Gold.Chemscore.Internal_Hbond.Weighted>
0.0000

> <Gold.Chemscore.DEClash.Weighted>
0.0816

> <Gold.Chemscore.DEInternal.Weighted>
1.8372

> <Gold.Chemscore.Rot.Weighted>
3.8412

> <Gold.Chemscore.Internal.Correction.Weighted>
   9.000000E+99

> <Gold.Protein.RotatedTorsions>
[ 6907 6896 6895 6894 ] final -172.08 input  -60.11 | X-H torsion
[ 7974 7965 7964 7962 ] final  103.44 input  175.53 | X-H torsion
[ 8008 7997 7996 7995 ] final   15.94 input   59.86 | X-H torsion
[ 10167 10162 10161 10158 ] final   71.49 input  -65.29 | X-H torsion
[ 10718 10713 10712 10709 ] final  145.68 input   66.30 | X-H torsion
[ 10763 10752 10751 10750 ] final  154.81 input  -60.55 | X-H torsion
[ 11005 11000 10999 10996 ] final   60.59 input  -57.11 | X-H torsion

> <Gold.Protein.ActiveResidues>
 VAL166  LYS551  ARG553  GLY616  TRP617  ASP618  TYR619  PRO620  LYS621  CYS622 
 ASP623  PHE694  ASN695  SER759  ASP760  ASP761  ALA762  ILE779  LEU786  VAL792 
 PHE793  MET794  SER795  GLU796  ALA797  LYS798  CYS799  TRP800  GLU811  SER814 

> <Gold.Protein.RotatedAtoms>
  151.5341  133.3444  159.2923 H   0  0  0  0  0  0  0  0  0  0  0  0  # atno 6907 bound_to 6896
  150.8575  134.7921  159.7068 H   0  0  0  0  0  0  0  0  0  0  0  0  # atno 6908 bound_to 6896
  152.4604  134.5205  159.9832 H   0  0  0  0  0  0  0  0  0  0  0  0  # atno 6909 bound_to 6896
  145.3459  139.2451  143.3584 H   0  0  0  0  0  0  0  0  0  0  0  0  # atno 7974 bound_to 7965
  154.8698  140.2957  155.5488 H   0  0  0  0  0  0  0  0  0  0  0  0  # atno 8008 bound_to 7997
  156.3021  140.2462  156.3618 H   0  0  0  0  0  0  0  0  0  0  0  0  # atno 8009 bound_to 7997
  154.8829  140.0397  157.1782 H   0  0  0  0  0  0  0  0  0  0  0  0  # atno 8010 bound_to 7997
  140.0456  144.5354  150.7402 H   0  0  0  0  0  0  0  0  0  0  0  0  # atno 10167 bound_to 10162
  157.3424  131.0938  151.1071 H   0  0  0  0  0  0  0  0  0  0  0  0  # atno 10718 bound_to 10713
  154.1583  135.2811  155.3116 H   0  0  0  0  0  0  0  0  0  0  0  0  # atno 10763 bound_to 10752
  154.6166  135.5481  153.7533 H   0  0  0  0  0  0  0  0  0  0  0  0  # atno 10764 bound_to 10752
  153.0200  135.6428  154.1726 H   0  0  0  0  0  0  0  0  0  0  0  0  # atno 10765 bound_to 10752
  140.0221  134.6137  155.9624 H   0  0  0  0  0  0  0  0  0  0  0  0  # atno 11005 bound_to 11000
  146.2988  140.4066  142.8712 LP  0  0  0  0  0  0  0  0  0  0  0  0  # atno 17320 bound_to 7965
  144.8754  140.7329  143.6020 LP  0  0  0  0  0  0  0  0  0  0  0  0  # atno 17321 bound_to 7965
  140.7240  143.2617  151.4182 LP  0  0  0  0  0  0  0  0  0  0  0  0  # atno 17342 bound_to 10162
  139.5986  144.1344  152.2172 LP  0  0  0  0  0  0  0  0  0  0  0  0  # atno 17343 bound_to 10162
  157.2278  130.6511  149.5837 LP  0  0  0  0  0  0  0  0  0  0  0  0  # atno 17370 bound_to 10713
  155.9709  130.4608  150.6088 LP  0  0  0  0  0  0  0  0  0  0  0  0  # atno 17371 bound_to 10713
  141.1780  133.6542  156.4906 LP  0  0  0  0  0  0  0  0  0  0  0  0  # atno 17394 bound_to 11000
  140.4369  134.7051  157.4971 LP  0  0  0  0  0  0  0  0  0  0  0  0  # atno 17395 bound_to 11000

$$$$
