AV-unprocessed.smi:2368|AV-procd|sdf|9427|dock2
  -GOLD-   2272013 63D 1   1.00000     0.00000
 Structure written by MMmdl.
 35 36  0  0  0  0  0  0  0  0  1 V2000
  151.6481  136.2498  157.0701 C   0  0  0  0  0  0  0  0  0  0  0  0
  151.0345  135.0633  156.3501 C   0  0  0  0  0  0  0  0  0  0  0  0
  151.4719  133.8489  156.7483 N   0  0  0  0  0  0  0  0  0  0  0  0
  150.9531  132.7597  156.1461 C   0  0  0  0  0  0  0  0  0  0  0  0
  149.9862  132.8250  155.1250 C   0  0  0  0  0  0  0  0  0  0  0  0
  149.5348  134.0963  154.6943 C   0  0  0  0  0  0  0  0  0  0  0  0
  148.5475  134.2843  153.6854 N   0  0  0  0  0  0  0  0  0  0  0  0
  147.4195  133.5891  153.4581 C   0  0  0  0  0  0  0  0  0  0  0  0
  147.0453  132.6028  154.0921 O   0  0  0  0  0  0  0  0  0  0  0  0
  146.7373  134.1010  152.4237 N   0  0  0  0  0  0  0  0  0  0  0  0
  145.4614  133.5925  151.9323 C   0  0  2  0  0  0  0  0  0  0  0  0
  145.5469  132.1134  151.6734 C   0  0  0  0  0  0  0  0  0  0  0  0
  145.3153  131.7995  150.4006 C   0  0  0  0  0  0  0  0  0  0  0  0
  145.0549  133.0061  149.5376 C   0  0  1  0  0  0  0  0  0  0  0  0
  143.7423  132.8836  148.7462 C   0  0  0  0  0  0  0  0  0  0  0  0
  143.4660  134.0931  148.0721 O   0  0  0  0  0  0  0  0  0  0  0  0
  145.0740  134.1813  150.5502 C   0  0  0  0  0  0  0  0  0  0  0  0
  150.0675  135.2416  155.3327 C   0  0  0  0  0  0  0  0  0  0  0  0
  149.5507  136.8310  154.8767 Cl  0  0  0  0  0  0  0  0  0  0  0  0
  144.6748  133.7733  152.6670 H   0  0  0  0  0  0  0  0  0  0  0  0
  145.8940  133.0969  148.8465 H   0  0  0  0  0  0  0  0  0  0  0  0
  150.8727  136.8396  157.5595 H   0  0  0  0  0  0  0  0  0  0  0  0
  152.1753  136.8908  156.3632 H   0  0  0  0  0  0  0  0  0  0  0  0
  152.3607  135.9317  157.8325 H   0  0  0  0  0  0  0  0  0  0  0  0
  151.3150  131.8035  156.4937 H   0  0  0  0  0  0  0  0  0  0  0  0
  149.6076  131.9045  154.7094 H   0  0  0  0  0  0  0  0  0  0  0  0
  148.7491  135.0219  153.0262 H   0  0  0  0  0  0  0  0  0  0  0  0
  147.1183  134.9080  151.9516 H   0  0  0  0  0  0  0  0  0  0  0  0
  145.7630  131.4036  152.4586 H   0  0  0  0  0  0  0  0  0  0  0  0
  145.3266  130.7975  149.9977 H   0  0  0  0  0  0  0  0  0  0  0  0
  143.8168  132.0863  148.0060 H   0  0  0  0  0  0  0  0  0  0  0  0
  142.9088  132.6369  149.4049 H   0  0  0  0  0  0  0  0  0  0  0  0
  144.2856  134.5103  147.8539 H   0  0  0  0  0  0  0  0  0  0  0  0
  144.0915  134.6499  150.6207 H   0  0  0  0  0  0  0  0  0  0  0  0
  145.7641  134.9598  150.2218 H   0  0  0  0  0  0  0  0  0  0  0  0
  1  2  1  0  0  0  0
  1 22  1  0  0  0  0
  1 23  1  0  0  0  0
  1 24  1  0  0  0  0
  2 18  1  0  0  0  0
  2  3  2  0  0  0  0
  3  4  1  0  0  0  0
  4  5  2  0  0  0  0
  4 25  1  0  0  0  0
  5  6  1  0  0  0  0
  5 26  1  0  0  0  0
  6  7  1  0  0  0  0
  6 18  2  0  0  0  0
  7  8  1  0  0  0  0
  7 27  1  0  0  0  0
  8  9  2  0  0  0  0
  8 10  1  0  0  0  0
 10 11  1  0  0  0  0
 10 28  1  0  0  0  0
 11 20  1  0  0  0  0
 11 17  1  0  0  0  0
 11 12  1  0  0  0  0
 12 13  2  0  0  0  0
 12 29  1  0  0  0  0
 13 14  1  0  0  0  0
 13 30  1  0  0  0  0
 14 21  1  0  0  0  0
 14 15  1  0  0  0  0
 14 17  1  0  0  0  0
 15 16  1  0  0  0  0
 15 31  1  0  0  0  0
 15 32  1  0  0  0  0
 16 33  1  0  0  0  0
 17 34  1  0  0  0  0
 17 35  1  0  0  0  0
 18 19  1  0  0  0  0
M  END
> <s_m_source_file>
AV-unprocessed.smi

> <i_m_source_file_index>
2368

> <i_lp_mmshare_version>
43012

> <i_f3d_flags>
0

> <s_epik_input>
W0NIM11jMW5bY0hdW2NIXWMoYzFDbClbTkhdQyg9TylbTkhdW0NAQEhdMltDSF09W0NIXVtDQEBIXShbQ0gyXTIpW0NIMl1bT0hd

> <s_epik_cmdline>
J2VwaWtfcHl0aG9uJywgJy1waCcsICc3LjAnLCAnLXRuJywgJzgnLCAnLW1hJywgJzIwMCcsICctbWV0YWxfYmluZGluZycsICctaW1hZScsICc8aW5maWxlLm1hZT4nLCAnLW9tYWUnLCAnPG91dGZpbGUubWFlPic=

> <r_epik_Ionization_Penalty>
0.00964582

> <r_epik_Ionization_Penalty_Charging>
0

> <r_epik_Ionization_Penalty_Neutral>
0.00964582

> <r_epik_State_Penalty>
0.00730775

> <r_epik_Charging_Adjusted_Penalty>
0.00730775

> <i_epik_Tot_Q>
0

> <i_epik_Tot_abs_Q>
0

> <r_epik_Metal_State_Penalty>
0.00719079

> <b_epik_Metal_Only>
0

> <s_lp_Force_Field>
OPLS_2005

> <r_lp_Energy>
22.0768

> <b_lp_Chiralities_Consistent>
1

> <s_lp_Variant>
AV-unprocessed.smi:2368-3

> <Gold.Version>
5.8.1

> <Gold.Id.Protein>
6NUR|6NUR_protein|mol2

> <Gold.PLP.Fitness>
42.3135

> <Gold.PLP.PLP>
-32.9641

> <Gold.PLP.part.hbond>
-6.1003

> <Gold.PLP.part.metal>
0.0000

> <Gold.PLP.part.buried>
-0.4117

> <Gold.PLP.part.nonpolar>
-25.0802

> <Gold.PLP.part.repulsive>
0.0699

> <Gold.PLP.ligand.clash>
0.0000

> <Gold.PLP.ligand.torsion>
0.4325

> <Gold.PLP.Chemscore.Hbond>
3.3997

> <Gold.PLP.Chemscore.CHOScore>
0.0000

> <Gold.PLP.Chemscore.Metal>
0.0000

> <Gold.Chemscore.Hbonds>
donor molecule, donor type, donor heavy atom, donor atom, acceptor molecule, acceptor atom, score
      L1  H     7    27       P1  7948  1.00
      L1  H    10    28       P1  7948  0.44
      L1  H    16    33       P1  7921  1.00
      P1  H 10192 10197       L1    16  1.00

> <Gold.PLP.Chemscore.Internal.Correction>
0.0152

> <Gold.Rescore>
     Score         DG    S(hbond)    S(metal)    S(lipo)     H(rot)  DE(clash)    DE(int)     intcor
     18.19     -21.67       3.37        0.00      81.05       1.78       1.76       1.72       ----

> <Gold.Chemscore.Fitness>
18.1876

> <Gold.Chemscore.DG>
-21.6720

> <Gold.Chemscore.ZeroCoef>
-5.4800

> <Gold.Chemscore.Hbond>
3.3727

> <Gold.Chemscore.Metal>
0.0000

> <Gold.Chemscore.Lipo>
81.0507

> <Gold.Chemscore.Internal_Hbond>
0.0000

> <Gold.Chemscore.DEClash>
1.7601

> <Gold.Chemscore.DEInternal>
1.7243

> <Gold.Chemscore.Rot>
1.7796

> <Gold.Chemscore.Internal.Correction>
   9.000000E+99

> <Gold.Chemscore.Hbonds>
donor molecule, donor type, donor heavy atom, donor atom, acceptor molecule, acceptor atom, score
      L1  H     7    27       P1  7948  0.40
      L1  H    10    28       P1  7948  0.42
      L1  H    16    33       P1  7921  1.00
      P1  H 10192 10197       L1    16  0.52

> <Gold.Chemscore.Hbond.Weighted>
-11.2649

> <Gold.Chemscore.Metal.Weighted>
-0.0000

> <Gold.Chemscore.Lipo.Weighted>
-9.4829

> <Gold.Chemscore.Internal_Hbond.Weighted>
0.0000

> <Gold.Chemscore.DEClash.Weighted>
1.7601

> <Gold.Chemscore.DEInternal.Weighted>
1.7243

> <Gold.Chemscore.Rot.Weighted>
4.5558

> <Gold.Chemscore.Internal.Correction.Weighted>
   9.000000E+99

> <Gold.Protein.RotatedTorsions>
[ 6907 6896 6895 6894 ] final -128.05 input  -60.11 | X-H torsion
[ 7974 7965 7964 7962 ] final  125.53 input  175.53 | X-H torsion
[ 8008 7997 7996 7995 ] final   62.62 input   59.86 | X-H torsion
[ 10167 10162 10161 10158 ] final   85.08 input  -65.29 | X-H torsion
[ 10718 10713 10712 10709 ] final  -40.88 input   66.30 | X-H torsion
[ 10763 10752 10751 10750 ] final -145.14 input  -60.55 | X-H torsion
[ 11005 11000 10999 10996 ] final -163.01 input  -57.11 | X-H torsion

> <Gold.Protein.ActiveResidues>
 VAL166  LYS551  ARG553  GLY616  TRP617  ASP618  TYR619  PRO620  LYS621  CYS622 
 ASP623  PHE694  ASN695  SER759  ASP760  ASP761  ALA762  ILE779  LEU786  VAL792 
 PHE793  MET794  SER795  GLU796  ALA797  LYS798  CYS799  TRP800  GLU811  SER814 

> <Gold.Protein.RotatedAtoms>
  150.9137  133.6965  159.2848 H   0  0  0  0  0  0  0  0  0  0  0  0  # atno 6907 bound_to 6896
  151.4443  135.1022  159.9689 H   0  0  0  0  0  0  0  0  0  0  0  0  # atno 6908 bound_to 6896
  152.4943  133.8538  159.7270 H   0  0  0  0  0  0  0  0  0  0  0  0  # atno 6909 bound_to 6896
  145.0720  139.3723  143.4953 H   0  0  0  0  0  0  0  0  0  0  0  0  # atno 7974 bound_to 7965
  155.6172  140.3495  155.4640 H   0  0  0  0  0  0  0  0  0  0  0  0  # atno 8008 bound_to 7997
  156.0108  140.1233  157.0480 H   0  0  0  0  0  0  0  0  0  0  0  0  # atno 8009 bound_to 7997
  154.4280  140.1082  156.5813 H   0  0  0  0  0  0  0  0  0  0  0  0  # atno 8010 bound_to 7997
  139.9014  144.6327  150.8633 H   0  0  0  0  0  0  0  0  0  0  0  0  # atno 10167 bound_to 10162
  156.2764  130.4212  149.8383 H   0  0  0  0  0  0  0  0  0  0  0  0  # atno 10718 bound_to 10713
  154.8397  135.3421  154.6457 H   0  0  0  0  0  0  0  0  0  0  0  0  # atno 10763 bound_to 10752
  153.7069  135.6966  153.5052 H   0  0  0  0  0  0  0  0  0  0  0  0  # atno 10764 bound_to 10752
  153.2480  135.4362  155.0722 H   0  0  0  0  0  0  0  0  0  0  0  0  # atno 10765 bound_to 10752
  140.6029  134.4929  157.5207 H   0  0  0  0  0  0  0  0  0  0  0  0  # atno 11005 bound_to 11000
  146.3529  140.0469  142.8639 LP  0  0  0  0  0  0  0  0  0  0  0  0  # atno 17320 bound_to 7965
  145.1281  140.9502  143.4560 LP  0  0  0  0  0  0  0  0  0  0  0  0  # atno 17321 bound_to 7965
  140.7706  143.3434  151.2161 LP  0  0  0  0  0  0  0  0  0  0  0  0  # atno 17342 bound_to 10162
  139.7022  143.9514  152.2910 LP  0  0  0  0  0  0  0  0  0  0  0  0  # atno 17343 bound_to 10162
  156.5846  130.8480  151.3392 LP  0  0  0  0  0  0  0  0  0  0  0  0  # atno 17370 bound_to 10713
  157.7301  130.9680  150.1816 LP  0  0  0  0  0  0  0  0  0  0  0  0  # atno 17371 bound_to 10713
  139.9225  134.8121  156.1169 LP  0  0  0  0  0  0  0  0  0  0  0  0  # atno 17394 bound_to 11000
  141.0860  133.6734  156.2437 LP  0  0  0  0  0  0  0  0  0  0  0  0  # atno 17395 bound_to 11000

$$$$
