AV-unprocessed.smi:3235|AV-procd|sdf|12360|dock9
  -GOLD-   2272018223D 1   1.00000     0.00000
 Structure written by MMmdl.
 41 42  0  0  0  0  0  0  0  0  2 V2000
  145.6820  131.8575  149.9496 C   0  0  0  0  0  0  0  0  0  0  0  0
  145.7432  133.0073  150.9134 C   0  0  0  0  0  0  0  0  0  0  0  0
  146.6027  133.1572  152.0387 C   0  0  0  0  0  0  0  0  0  0  0  0
  146.4047  134.2925  152.6890 N   0  0  0  0  0  0  0  0  0  0  0  0
  145.4142  134.9040  152.0060 N   0  0  0  0  0  0  0  0  0  0  0  0
  144.9295  136.1973  152.4476 C   0  0  0  0  0  0  0  0  0  0  0  0
  145.8770  137.3310  152.0297 C   0  0  0  0  0  0  0  0  0  0  0  0
  146.8955  137.5839  153.0670 N   0  3  0  0  0  0  0  0  0  0  0  0
  147.3079  138.9974  153.1659 C   0  0  0  0  0  0  0  0  0  0  0  0
  148.2976  139.2066  154.3189 C   0  0  0  0  0  0  0  0  0  0  0  0
  148.7872  140.6619  154.4106 C   0  0  0  0  0  0  0  0  0  0  0  0
  149.5543  140.9015  155.6303 N   0  0  0  0  0  0  0  0  0  0  0  0
  149.0459  141.7856  156.6657 C   0  0  0  0  0  0  0  0  0  0  0  0
  150.1933  141.9157  157.6780 C   0  0  0  0  0  0  0  0  0  0  0  0
  151.1867  140.8021  157.3281 C   0  0  0  0  0  0  0  0  0  0  0  0
  150.7160  140.3266  155.9642 C   0  0  0  0  0  0  0  0  0  0  0  0
  151.3455  139.5171  155.2848 O   0  0  0  0  0  0  0  0  0  0  0  0
  144.9987  134.1529  150.9268 C   0  0  0  0  0  0  0  0  0  0  0  0
  145.7694  130.8987  150.4609 H   0  0  0  0  0  0  0  0  0  0  0  0
  146.4868  131.9055  149.2160 H   0  0  0  0  0  0  0  0  0  0  0  0
  144.7427  131.8409  149.3966 H   0  0  0  0  0  0  0  0  0  0  0  0
  147.3598  132.4771  152.4004 H   0  0  0  0  0  0  0  0  0  0  0  0
  143.9338  136.3547  152.0299 H   0  0  0  0  0  0  0  0  0  0  0  0
  144.8188  136.1744  153.5327 H   0  0  0  0  0  0  0  0  0  0  0  0
  146.3734  137.0756  151.0924 H   0  0  0  0  0  0  0  0  0  0  0  0
  145.3123  138.2482  151.8558 H   0  0  0  0  0  0  0  0  0  0  0  0
  146.5210  137.2965  153.9600 H   0  0  0  0  0  0  0  0  0  0  0  0
  147.7622  139.3060  152.2235 H   0  0  0  0  0  0  0  0  0  0  0  0
  146.4237  139.6180  153.3171 H   0  0  0  0  0  0  0  0  0  0  0  0
  147.8215  138.9179  155.2570 H   0  0  0  0  0  0  0  0  0  0  0  0
  149.1541  138.5436  154.1898 H   0  0  0  0  0  0  0  0  0  0  0  0
  149.4053  140.9006  153.5440 H   0  0  0  0  0  0  0  0  0  0  0  0
  147.9392  141.3478  154.3808 H   0  0  0  0  0  0  0  0  0  0  0  0
  148.7568  142.7539  156.2551 H   0  0  0  0  0  0  0  0  0  0  0  0
  148.1672  141.3327  157.1274 H   0  0  0  0  0  0  0  0  0  0  0  0
  150.6758  142.8884  157.5747 H   0  0  0  0  0  0  0  0  0  0  0  0
  149.8357  141.8352  158.7051 H   0  0  0  0  0  0  0  0  0  0  0  0
  152.2150  141.1631  157.2920 H   0  0  0  0  0  0  0  0  0  0  0  0
  151.1281  139.9782  158.0398 H   0  0  0  0  0  0  0  0  0  0  0  0
  144.2142  134.4897  150.2652 H   0  0  0  0  0  0  0  0  0  0  0  0
  147.7104  137.0236  152.8624 H   0  0  0  0  0  0  0  0  0  0  0  0
  1  2  1  0  0  0  0
  1 19  1  0  0  0  0
  1 20  1  0  0  0  0
  1 21  1  0  0  0  0
  2 18  2  0  0  0  0
  2  3  1  0  0  0  0
  3  4  2  0  0  0  0
  3 22  1  0  0  0  0
  4  5  1  0  0  0  0
  5  6  1  0  0  0  0
  5 18  1  0  0  0  0
  6  7  1  0  0  0  0
  6 23  1  0  0  0  0
  6 24  1  0  0  0  0
  7  8  1  0  0  0  0
  7 25  1  0  0  0  0
  7 26  1  0  0  0  0
  8  9  1  0  0  0  0
  8 27  1  0  0  0  0
  8 41  1  0  0  0  0
  9 10  1  0  0  0  0
  9 28  1  0  0  0  0
  9 29  1  0  0  0  0
 10 11  1  0  0  0  0
 10 30  1  0  0  0  0
 10 31  1  0  0  0  0
 11 12  1  0  0  0  0
 11 32  1  0  0  0  0
 11 33  1  0  0  0  0
 12 16  1  0  0  0  0
 12 13  1  0  0  0  0
 13 14  1  0  0  0  0
 13 34  1  0  0  0  0
 13 35  1  0  0  0  0
 14 15  1  0  0  0  0
 14 36  1  0  0  0  0
 14 37  1  0  0  0  0
 15 16  1  0  0  0  0
 15 38  1  0  0  0  0
 15 39  1  0  0  0  0
 16 17  2  0  0  0  0
 18 40  1  0  0  0  0
M  CHG  1   8   1
M  END
> <s_m_source_file>
AV-unprocessed.smi

> <i_m_source_file_index>
3235

> <i_lp_mmshare_version>
43012

> <i_f3d_flags>
0

> <s_epik_input>
W0NIM11jMVtjSF1ubihbY0hdMSlbQ0gyXVtDSDJdW05IXVtDSDJdW0NIMl1bQ0gyXU4yW0NIMl1bQ0gyXVtDSDJdQzI9Tw==

> <s_epik_cmdline>
J2VwaWtfcHl0aG9uJywgJy1waCcsICc3LjAnLCAnLXRuJywgJzgnLCAnLW1hJywgJzIwMCcsICctbWV0YWxfYmluZGluZycsICctaW1hZScsICc8aW5maWxlLm1hZT4nLCAnLW9tYWUnLCAnPG91dGZpbGUubWFlPic=

> <r_lp_tautomer_probability>
1

> <r_epik_Ionization_Penalty>
0.00490609

> <r_epik_Ionization_Penalty_Charging>
0.00490019

> <r_epik_Ionization_Penalty_Neutral>
5.89696e-06

> <r_epik_State_Penalty>
-0

> <r_epik_Charging_Adjusted_Penalty>
0.00490019

> <i_epik_Tot_Q>
1

> <i_epik_Tot_abs_Q>
1

> <r_epik_Metal_State_Penalty>
-0

> <b_epik_Metal_Only>
0

> <s_lp_Force_Field>
OPLS_2005

> <r_lp_Energy>
17.6896

> <b_lp_Chiralities_Consistent>
1

> <s_lp_Variant>
AV-unprocessed.smi:3235-1

> <Gold.Version>
5.8.1

> <Gold.Id.Protein>
6NUR|6NUR_protein|mol2

> <Gold.PLP.Fitness>
46.2746

> <Gold.PLP.PLP>
-35.5569

> <Gold.PLP.part.hbond>
-2.0000

> <Gold.PLP.part.metal>
0.0000

> <Gold.PLP.part.buried>
-3.2154

> <Gold.PLP.part.nonpolar>
-30.9960

> <Gold.PLP.part.repulsive>
1.7699

> <Gold.PLP.ligand.clash>
0.0000

> <Gold.PLP.ligand.torsion>
0.7114

> <Gold.PLP.Chemscore.Hbond>
3.0000

> <Gold.PLP.Chemscore.CHOScore>
0.9980

> <Gold.PLP.Chemscore.Metal>
0.0000

> <Gold.Chemscore.Hbonds>
donor molecule, donor type, donor heavy atom, donor atom, acceptor molecule, acceptor atom, score
      L1  H     8    41       P1  7948  2.00
      P1  H  7989  7998       L1    17  0.37

> <Gold.PLP.Chemscore.Internal.Correction>
0.1465

> <Gold.Rescore>
     Score         DG    S(hbond)    S(metal)    S(lipo)     H(rot)  DE(clash)    DE(int)     intcor
     13.88     -16.35       2.00        0.00      83.17       2.16       1.76       0.71       ----

> <Gold.Chemscore.Fitness>
13.8813

> <Gold.Chemscore.DG>
-16.3525

> <Gold.Chemscore.ZeroCoef>
-5.4800

> <Gold.Chemscore.Hbond>
1.9973

> <Gold.Chemscore.Metal>
0.0000

> <Gold.Chemscore.Lipo>
83.1683

> <Gold.Chemscore.Internal_Hbond>
0.0000

> <Gold.Chemscore.DEClash>
1.7623

> <Gold.Chemscore.DEInternal>
0.7089

> <Gold.Chemscore.Rot>
2.1598

> <Gold.Chemscore.Internal.Correction>
   9.000000E+99

> <Gold.Chemscore.Hbonds>
donor molecule, donor type, donor heavy atom, donor atom, acceptor molecule, acceptor atom, score
      L1  H     8    41       P1  7948  0.99
      P1  H  7989  7998       L1    17  0.06

> <Gold.Chemscore.Hbond.Weighted>
-6.6709

> <Gold.Chemscore.Metal.Weighted>
-0.0000

> <Gold.Chemscore.Lipo.Weighted>
-9.7307

> <Gold.Chemscore.Internal_Hbond.Weighted>
0.0000

> <Gold.Chemscore.DEClash.Weighted>
1.7623

> <Gold.Chemscore.DEInternal.Weighted>
0.7089

> <Gold.Chemscore.Rot.Weighted>
5.5291

> <Gold.Chemscore.Internal.Correction.Weighted>
   9.000000E+99

> <Gold.Protein.RotatedTorsions>
[ 6907 6896 6895 6894 ] final   87.02 input  -60.11 | X-H torsion
[ 7974 7965 7964 7962 ] final   -9.79 input  175.53 | X-H torsion
[ 8008 7997 7996 7995 ] final   24.33 input   59.86 | X-H torsion
[ 10167 10162 10161 10158 ] final -138.41 input  -65.29 | X-H torsion
[ 10718 10713 10712 10709 ] final   94.36 input   66.30 | X-H torsion
[ 10763 10752 10751 10750 ] final  -63.44 input  -60.55 | X-H torsion
[ 11005 11000 10999 10996 ] final   76.38 input  -57.11 | X-H torsion

> <Gold.Protein.ActiveResidues>
 VAL166  LYS551  ARG553  GLY616  TRP617  ASP618  TYR619  PRO620  LYS621  CYS622 
 ASP623  PHE694  ASN695  SER759  ASP760  ASP761  ALA762  ILE779  LEU786  VAL792 
 PHE793  MET794  SER795  GLU796  ALA797  LYS798  CYS799  TRP800  GLU811  SER814 

> <Gold.Protein.RotatedAtoms>
  152.5404  134.2341  159.8835 H   0  0  0  0  0  0  0  0  0  0  0  0  # atno 6907 bound_to 6896
  151.2311  133.4443  159.2611 H   0  0  0  0  0  0  0  0  0  0  0  0  # atno 6908 bound_to 6896
  151.0714  134.9814  159.8367 H   0  0  0  0  0  0  0  0  0  0  0  0  # atno 6909 bound_to 6896
  146.2241  140.2668  142.8354 H   0  0  0  0  0  0  0  0  0  0  0  0  # atno 7974 bound_to 7965
  154.9946  140.3118  155.4892 H   0  0  0  0  0  0  0  0  0  0  0  0  # atno 8008 bound_to 7997
  156.2934  140.2243  156.4993 H   0  0  0  0  0  0  0  0  0  0  0  0  # atno 8009 bound_to 7997
  154.7673  140.0455  157.1010 H   0  0  0  0  0  0  0  0  0  0  0  0  # atno 8010 bound_to 7997
  139.8481  143.7234  152.2659 H   0  0  0  0  0  0  0  0  0  0  0  0  # atno 10167 bound_to 10162
  157.6948  131.0510  150.4175 H   0  0  0  0  0  0  0  0  0  0  0  0  # atno 10718 bound_to 10713
  154.3150  135.6208  153.5482 H   0  0  0  0  0  0  0  0  0  0  0  0  # atno 10763 bound_to 10752
  152.9825  135.5710  154.5134 H   0  0  0  0  0  0  0  0  0  0  0  0  # atno 10764 bound_to 10752
  154.4791  135.2862  155.1561 H   0  0  0  0  0  0  0  0  0  0  0  0  # atno 10765 bound_to 10752
  139.9301  134.7596  156.1388 H   0  0  0  0  0  0  0  0  0  0  0  0  # atno 11005 bound_to 11000
  144.9298  140.7962  143.5696 LP  0  0  0  0  0  0  0  0  0  0  0  0  # atno 17320 bound_to 7965
  145.2611  139.1992  143.4891 LP  0  0  0  0  0  0  0  0  0  0  0  0  # atno 17321 bound_to 7965
  139.7492  144.7539  151.0532 LP  0  0  0  0  0  0  0  0  0  0  0  0  # atno 17342 bound_to 10162
  140.7791  143.4880  150.9931 LP  0  0  0  0  0  0  0  0  0  0  0  0  # atno 17343 bound_to 10162
  156.4553  130.4020  149.6610 LP  0  0  0  0  0  0  0  0  0  0  0  0  # atno 17370 bound_to 10713
  156.3745  130.7547  151.2534 LP  0  0  0  0  0  0  0  0  0  0  0  0  # atno 17371 bound_to 10713
  141.0884  133.6724  156.2486 LP  0  0  0  0  0  0  0  0  0  0  0  0  # atno 17394 bound_to 11000
  140.6227  134.5345  157.5549 LP  0  0  0  0  0  0  0  0  0  0  0  0  # atno 17395 bound_to 11000

$$$$
