AV-unprocessed.smi:3241|AV-procd|sdf|12390|dock7
  -GOLD-   2272018263D 1   1.00000     0.00000
 Structure written by MMmdl.
 43 44  0  0  0  0  0  0  0  0  1 V2000
  151.4452  145.0405  159.4432 C   0  0  0  0  0  0  0  0  0  0  0  0
  152.4586  144.1112  160.1293 C   0  0  1  0  0  0  0  0  0  0  0  0
  152.0762  143.8267  161.5959 C   0  0  0  0  0  0  0  0  0  0  0  0
  153.1155  142.9284  162.2859 C   0  0  0  0  0  0  0  0  0  0  0  0
  153.3304  141.6223  161.5065 C   0  0  0  0  0  0  0  0  0  0  0  0
  153.7122  141.9034  160.0438 C   0  0  0  0  0  0  0  0  0  0  0  0
  152.6670  142.7978  159.3426 C   0  0  1  0  0  0  0  0  0  0  0  0
  151.4185  142.1198  159.2573 O   0  0  0  0  0  0  0  0  0  0  0  0
  151.2259  141.3827  158.0596 C   0  0  0  0  0  0  0  0  0  0  0  0
  151.0192  142.3728  156.9096 C   0  0  0  0  0  0  0  0  0  0  0  0
  149.6468  142.3143  156.4205 N   0  0  0  0  0  0  0  0  0  0  0  0
  149.4621  141.4025  155.2957 C   0  0  0  0  0  0  0  0  0  0  0  0
  148.0477  141.5114  154.7027 C   0  0  0  0  0  0  0  0  0  0  0  0
  147.6674  140.3244  153.9575 N   0  0  0  0  0  0  0  0  0  0  0  0
  146.7847  140.2238  152.9030 C   0  0  0  0  0  0  0  0  0  0  0  0
  146.7535  138.9127  152.5227 C   0  0  0  0  0  0  0  0  0  0  0  0
  147.6626  138.2801  153.4159 C   0  0  0  0  0  0  0  0  0  0  0  0
  148.2056  139.1268  154.2756 N   0  0  0  0  0  0  0  0  0  0  0  0
  150.4517  144.5923  159.4081 H   0  0  0  0  0  0  0  0  0  0  0  0
  151.7466  145.2616  158.4191 H   0  0  0  0  0  0  0  0  0  0  0  0
  151.3619  145.9890  159.9742 H   0  0  0  0  0  0  0  0  0  0  0  0
  153.4134  144.6392  160.1390 H   0  0  0  0  0  0  0  0  0  0  0  0
  151.9844  144.7641  162.1455 H   0  0  0  0  0  0  0  0  0  0  0  0
  151.0964  143.3490  161.6383 H   0  0  0  0  0  0  0  0  0  0  0  0
  154.0621  143.4635  162.3691 H   0  0  0  0  0  0  0  0  0  0  0  0
  152.7968  142.7052  163.3044 H   0  0  0  0  0  0  0  0  0  0  0  0
  154.1090  141.0284  161.9862 H   0  0  0  0  0  0  0  0  0  0  0  0
  152.4207  141.0213  161.5391 H   0  0  0  0  0  0  0  0  0  0  0  0
  154.6827  142.4003  160.0175 H   0  0  0  0  0  0  0  0  0  0  0  0
  153.8448  140.9635  159.5092 H   0  0  0  0  0  0  0  0  0  0  0  0
  153.0180  143.0497  158.3401 H   0  0  0  0  0  0  0  0  0  0  0  0
  152.1140  140.7788  157.8690 H   0  0  0  0  0  0  0  0  0  0  0  0
  150.3787  140.6997  158.1301 H   0  0  0  0  0  0  0  0  0  0  0  0
  151.2686  143.3817  157.2403 H   0  0  0  0  0  0  0  0  0  0  0  0
  151.7043  142.1293  156.0969 H   0  0  0  0  0  0  0  0  0  0  0  0
  149.3361  143.2462  156.1636 H   0  0  0  0  0  0  0  0  0  0  0  0
  150.1885  141.6342  154.5158 H   0  0  0  0  0  0  0  0  0  0  0  0
  149.6570  140.3752  155.6058 H   0  0  0  0  0  0  0  0  0  0  0  0
  147.3122  141.6985  155.4870 H   0  0  0  0  0  0  0  0  0  0  0  0
  148.0004  142.3630  154.0232 H   0  0  0  0  0  0  0  0  0  0  0  0
  146.2605  141.0846  152.5146 H   0  0  0  0  0  0  0  0  0  0  0  0
  146.1715  138.4726  151.7267 H   0  0  0  0  0  0  0  0  0  0  0  0
  147.9415  137.2381  153.4651 H   0  0  0  0  0  0  0  0  0  0  0  0
  1  2  1  0  0  0  0
  1 19  1  0  0  0  0
  1 20  1  0  0  0  0
  1 21  1  0  0  0  0
  2  7  1  0  0  0  0
  2  3  1  0  0  0  0
  2 22  1  0  0  0  0
  3  4  1  0  0  0  0
  3 23  1  0  0  0  0
  3 24  1  0  0  0  0
  4  5  1  0  0  0  0
  4 25  1  0  0  0  0
  4 26  1  0  0  0  0
  5  6  1  0  0  0  0
  5 27  1  0  0  0  0
  5 28  1  0  0  0  0
  6  7  1  0  0  0  0
  6 29  1  0  0  0  0
  6 30  1  0  0  0  0
  7  8  1  0  0  0  0
  7 31  1  0  0  0  0
  8  9  1  0  0  0  0
  9 10  1  0  0  0  0
  9 32  1  0  0  0  0
  9 33  1  0  0  0  0
 10 11  1  0  0  0  0
 10 34  1  0  0  0  0
 10 35  1  0  0  0  0
 11 12  1  0  0  0  0
 11 36  1  0  0  0  0
 12 13  1  0  0  0  0
 12 37  1  0  0  0  0
 12 38  1  0  0  0  0
 13 14  1  0  0  0  0
 13 39  1  0  0  0  0
 13 40  1  0  0  0  0
 14 18  1  0  0  0  0
 14 15  1  0  0  0  0
 15 16  2  0  0  0  0
 15 41  1  0  0  0  0
 16 17  1  0  0  0  0
 16 42  1  0  0  0  0
 17 18  2  0  0  0  0
 17 43  1  0  0  0  0
M  END
> <s_m_source_file>
AV-unprocessed.smi

> <i_m_source_file_index>
3241

> <i_lp_mmshare_version>
43012

> <i_f3d_flags>
0

> <s_epik_input>
W0NIM11bQ0BASF0xW0NIMl1bQ0gyXVtDSDJdW0NIMl1bQ0BIXTFPW0NIMl1bQ0gyXVtOSF1bQ0gyXVtDSDJdbjJbY0hdW2NIXVtjSF1uMg==

> <s_epik_cmdline>
J2VwaWtfcHl0aG9uJywgJy1waCcsICc3LjAnLCAnLXRuJywgJzgnLCAnLW1hJywgJzIwMCcsICctbWV0YWxfYmluZGluZycsICctaW1hZScsICc8aW5maWxlLm1hZT4nLCAnLW9tYWUnLCAnPG91dGZpbGUubWFlPic=

> <r_lp_tautomer_probability>
1

> <r_epik_Ionization_Penalty>
2.47055

> <r_epik_Ionization_Penalty_Charging>
0

> <r_epik_Ionization_Penalty_Neutral>
2.47055

> <r_epik_State_Penalty>
2.6322

> <r_epik_Charging_Adjusted_Penalty>
2.6322

> <i_epik_Tot_Q>
0

> <i_epik_Tot_abs_Q>
0

> <r_epik_Metal_State_Penalty>
2.63108

> <b_epik_Metal_Only>
0

> <s_lp_Force_Field>
OPLS_2005

> <r_lp_Energy>
16.4291

> <b_lp_Chiralities_Consistent>
1

> <s_lp_Variant>
AV-unprocessed.smi:3241-6

> <Gold.Version>
5.8.1

> <Gold.Id.Protein>
6NUR|6NUR_protein|mol2

> <Gold.PLP.Fitness>
48.8311

> <Gold.PLP.PLP>
-45.2287

> <Gold.PLP.part.hbond>
-1.0000

> <Gold.PLP.part.metal>
0.0000

> <Gold.PLP.part.buried>
-1.0880

> <Gold.PLP.part.nonpolar>
-44.0547

> <Gold.PLP.part.repulsive>
0.1488

> <Gold.PLP.ligand.clash>
0.0000

> <Gold.PLP.ligand.torsion>
1.5244

> <Gold.PLP.Chemscore.Hbond>
1.0000

> <Gold.PLP.Chemscore.CHOScore>
1.1949

> <Gold.PLP.Chemscore.Metal>
0.0000

> <Gold.Chemscore.Hbonds>
donor molecule, donor type, donor heavy atom, donor atom, acceptor molecule, acceptor atom, score
      L1  H    11    36       P1  8028  1.00
      L1  C    15    41       P1 10175  0.31
      L1  C    17    43       P1  7948  0.85

> <Gold.PLP.Chemscore.Internal.Correction>
0.0665

> <Gold.Rescore>
     Score         DG    S(hbond)    S(metal)    S(lipo)     H(rot)  DE(clash)    DE(int)     intcor
     18.08     -19.79       0.99        0.00     133.29       1.79       0.16       1.55       ----

> <Gold.Chemscore.Fitness>
18.0786

> <Gold.Chemscore.DG>
-19.7865

> <Gold.Chemscore.ZeroCoef>
-5.4800

> <Gold.Chemscore.Hbond>
0.9862

> <Gold.Chemscore.Metal>
0.0000

> <Gold.Chemscore.Lipo>
133.2942

> <Gold.Chemscore.Internal_Hbond>
0.0000

> <Gold.Chemscore.DEClash>
0.1589

> <Gold.Chemscore.DEInternal>
1.5490

> <Gold.Chemscore.Rot>
1.7901

> <Gold.Chemscore.Internal.Correction>
   9.000000E+99

> <Gold.Chemscore.Hbonds>
donor molecule, donor type, donor heavy atom, donor atom, acceptor molecule, acceptor atom, score
      L1  H    11    36       P1  8028  0.99

> <Gold.Chemscore.Hbond.Weighted>
-3.2939

> <Gold.Chemscore.Metal.Weighted>
-0.0000

> <Gold.Chemscore.Lipo.Weighted>
-15.5954

> <Gold.Chemscore.Internal_Hbond.Weighted>
0.0000

> <Gold.Chemscore.DEClash.Weighted>
0.1589

> <Gold.Chemscore.DEInternal.Weighted>
1.5490

> <Gold.Chemscore.Rot.Weighted>
4.5827

> <Gold.Chemscore.Internal.Correction.Weighted>
   9.000000E+99

> <Gold.Protein.RotatedTorsions>
[ 6907 6896 6895 6894 ] final  -77.61 input  -60.11 | X-H torsion
[ 7974 7965 7964 7962 ] final  100.68 input  175.53 | X-H torsion
[ 8008 7997 7996 7995 ] final   -6.90 input   59.86 | X-H torsion
[ 10167 10162 10161 10158 ] final  -65.35 input  -65.29 | X-H torsion
[ 10718 10713 10712 10709 ] final  110.41 input   66.30 | X-H torsion
[ 10763 10752 10751 10750 ] final    5.34 input  -60.55 | X-H torsion
[ 11005 11000 10999 10996 ] final  -59.86 input  -57.11 | X-H torsion

> <Gold.Protein.ActiveResidues>
 VAL166  LYS551  ARG553  GLY616  TRP617  ASP618  TYR619  PRO620  LYS621  CYS622 
 ASP623  PHE694  ASN695  SER759  ASP760  ASP761  ALA762  ILE779  LEU786  VAL792 
 PHE793  MET794  SER795  GLU796  ALA797  LYS798  CYS799  TRP800  GLU811  SER814 

> <Gold.Protein.RotatedAtoms>
  150.6994  134.4397  159.5286 H   0  0  0  0  0  0  0  0  0  0  0  0  # atno 6907 bound_to 6896
  152.2109  134.8500  160.0506 H   0  0  0  0  0  0  0  0  0  0  0  0  # atno 6908 bound_to 6896
  151.9385  133.3596  159.3993 H   0  0  0  0  0  0  0  0  0  0  0  0  # atno 6909 bound_to 6896
  145.3824  139.2377  143.3396 H   0  0  0  0  0  0  0  0  0  0  0  0  # atno 7974 bound_to 7965
  154.5891  140.2421  155.7945 H   0  0  0  0  0  0  0  0  0  0  0  0  # atno 8008 bound_to 7997
  156.2234  140.2990  155.9963 H   0  0  0  0  0  0  0  0  0  0  0  0  # atno 8009 bound_to 7997
  155.2405  140.0407  157.2965 H   0  0  0  0  0  0  0  0  0  0  0  0  # atno 8010 bound_to 7997
  140.5736  143.2320  151.6488 H   0  0  0  0  0  0  0  0  0  0  0  0  # atno 10167 bound_to 10162
  157.6495  131.0932  150.6598 H   0  0  0  0  0  0  0  0  0  0  0  0  # atno 10718 bound_to 10713
  153.2605  135.6923  153.7583 H   0  0  0  0  0  0  0  0  0  0  0  0  # atno 10763 bound_to 10752
  153.6644  135.3355  155.3137 H   0  0  0  0  0  0  0  0  0  0  0  0  # atno 10764 bound_to 10752
  154.8428  135.4485  154.1594 H   0  0  0  0  0  0  0  0  0  0  0  0  # atno 10765 bound_to 10752
  141.1265  133.6618  156.5135 H   0  0  0  0  0  0  0  0  0  0  0  0  # atno 11005 bound_to 11000
  146.2836  140.4493  142.8767 LP  0  0  0  0  0  0  0  0  0  0  0  0  # atno 17320 bound_to 7965
  144.8498  140.6984  143.6175 LP  0  0  0  0  0  0  0  0  0  0  0  0  # atno 17321 bound_to 7965
  139.5131  144.3455  152.0700 LP  0  0  0  0  0  0  0  0  0  0  0  0  # atno 17342 bound_to 10162
  140.2596  144.4081  150.6190 LP  0  0  0  0  0  0  0  0  0  0  0  0  # atno 17343 bound_to 10162
  156.6911  130.4595  149.5599 LP  0  0  0  0  0  0  0  0  0  0  0  0  # atno 17370 bound_to 10713
  156.1861  130.6530  151.1008 LP  0  0  0  0  0  0  0  0  0  0  0  0  # atno 17371 bound_to 10713
  140.4350  134.7067  157.4962 LP  0  0  0  0  0  0  0  0  0  0  0  0  # atno 17394 bound_to 11000
  140.0268  134.6465  155.9162 LP  0  0  0  0  0  0  0  0  0  0  0  0  # atno 17395 bound_to 11000

$$$$
