AV-unprocessed.smi:3202|AV-procd|sdf|12241|dock4
  -GOLD-   2272018 73D 1   1.00000     0.00000
 Structure written by MMmdl.
 43 44  0  0  0  0  0  0  0  0  2 V2000
  145.7372  133.2786  150.6140 C   0  0  0  0  0  0  0  0  0  0  0  0
  145.7646  134.4291  151.5618 C   0  0  0  0  0  0  0  0  0  0  0  0
  145.2648  135.6967  151.4605 C   0  0  0  0  0  0  0  0  0  0  0  0
  145.6158  136.3148  152.6966 C   0  0  0  0  0  0  0  0  0  0  0  0
  145.3245  137.7242  153.1364 C   0  0  0  0  0  0  0  0  0  0  0  0
  146.5179  138.6888  152.9436 C   0  0  2  0  0  0  0  0  0  0  0  0
  146.7747  139.0321  151.4669 C   0  0  0  0  0  0  0  0  0  0  0  0
  147.7548  138.1141  153.5211 N   0  3  0  0  0  0  0  0  0  0  0  0
  148.9106  139.0357  153.6370 C   0  0  2  0  0  0  0  0  0  0  0  0
  150.1407  138.3909  154.2919 C   0  0  0  0  0  0  0  0  0  0  0  0
  150.9242  139.5483  154.9245 C   0  0  0  0  0  0  0  0  0  0  0  0
  150.0365  140.7943  154.7906 C   0  0  0  0  0  0  0  0  0  0  0  0
  148.6143  140.2862  154.4925 C   0  0  0  0  0  0  0  0  0  0  0  0
  147.8017  141.3347  153.7101 C   0  0  0  0  0  0  0  0  0  0  0  0
  147.8886  139.9525  155.8169 C   0  0  0  0  0  0  0  0  0  0  0  0
  146.2800  135.4954  153.4997 N   0  0  0  0  0  0  0  0  0  0  0  0
  146.3653  134.3507  152.7970 N   0  0  0  0  0  0  0  0  0  0  0  0
  146.8284  133.5331  153.1687 H   0  0  0  0  0  0  0  0  0  0  0  0
  145.1634  133.5234  149.7200 H   0  0  0  0  0  0  0  0  0  0  0  0
  145.2800  132.4042  151.0776 H   0  0  0  0  0  0  0  0  0  0  0  0
  146.7466  133.0092  150.3028 H   0  0  0  0  0  0  0  0  0  0  0  0
  144.7272  136.1213  150.6255 H   0  0  0  0  0  0  0  0  0  0  0  0
  144.4584  138.0843  152.5823 H   0  0  0  0  0  0  0  0  0  0  0  0
  145.0199  137.7291  154.1843 H   0  0  0  0  0  0  0  0  0  0  0  0
  146.2994  139.6252  153.4572 H   0  0  0  0  0  0  0  0  0  0  0  0
  145.9353  139.5707  151.0271 H   0  0  0  0  0  0  0  0  0  0  0  0
  146.9437  138.1334  150.8728 H   0  0  0  0  0  0  0  0  0  0  0  0
  147.6520  139.6708  151.3603 H   0  0  0  0  0  0  0  0  0  0  0  0
  147.5339  137.7514  154.4375 H   0  0  0  0  0  0  0  0  0  0  0  0
  149.1998  139.3730  152.6411 H   0  0  0  0  0  0  0  0  0  0  0  0
  149.8371  137.6889  155.0699 H   0  0  0  0  0  0  0  0  0  0  0  0
  150.7448  137.8375  153.5723 H   0  0  0  0  0  0  0  0  0  0  0  0
  151.1308  139.3316  155.9731 H   0  0  0  0  0  0  0  0  0  0  0  0
  151.8838  139.7012  154.4293 H   0  0  0  0  0  0  0  0  0  0  0  0
  150.0837  141.4325  155.6738 H   0  0  0  0  0  0  0  0  0  0  0  0
  150.4002  141.3903  153.9521 H   0  0  0  0  0  0  0  0  0  0  0  0
  147.6753  142.2485  154.2918 H   0  0  0  0  0  0  0  0  0  0  0  0
  146.8073  140.9616  153.4625 H   0  0  0  0  0  0  0  0  0  0  0  0
  148.2909  141.6082  152.7746 H   0  0  0  0  0  0  0  0  0  0  0  0
  147.7945  140.8397  156.4441 H   0  0  0  0  0  0  0  0  0  0  0  0
  148.4213  139.2010  156.4000 H   0  0  0  0  0  0  0  0  0  0  0  0
  146.8796  139.5784  155.6416 H   0  0  0  0  0  0  0  0  0  0  0  0
  148.0457  137.3429  152.9374 H   0  0  0  0  0  0  0  0  0  0  0  0
  1  2  1  0  0  0  0
  1 19  1  0  0  0  0
  1 20  1  0  0  0  0
  1 21  1  0  0  0  0
  2 17  1  0  0  0  0
  2  3  2  0  0  0  0
  3  4  1  0  0  0  0
  3 22  1  0  0  0  0
  4  5  1  0  0  0  0
  4 16  2  0  0  0  0
  5  6  1  0  0  0  0
  5 23  1  0  0  0  0
  5 24  1  0  0  0  0
  6  7  1  0  0  0  0
  6  8  1  0  0  0  0
  6 25  1  0  0  0  0
  7 26  1  0  0  0  0
  7 27  1  0  0  0  0
  7 28  1  0  0  0  0
  8  9  1  0  0  0  0
  8 29  1  0  0  0  0
  8 43  1  0  0  0  0
  9 13  1  0  0  0  0
  9 10  1  0  0  0  0
  9 30  1  0  0  0  0
 10 11  1  0  0  0  0
 10 31  1  0  0  0  0
 10 32  1  0  0  0  0
 11 12  1  0  0  0  0
 11 33  1  0  0  0  0
 11 34  1  0  0  0  0
 12 13  1  0  0  0  0
 12 35  1  0  0  0  0
 12 36  1  0  0  0  0
 13 14  1  0  0  0  0
 13 15  1  0  0  0  0
 14 37  1  0  0  0  0
 14 38  1  0  0  0  0
 14 39  1  0  0  0  0
 15 40  1  0  0  0  0
 15 41  1  0  0  0  0
 15 42  1  0  0  0  0
 16 17  1  0  0  0  0
 17 18  1  0  0  0  0
M  CHG  1   8   1
M  END
> <s_m_source_file>
AV-unprocessed.smi

> <i_m_source_file_index>
3202

> <i_lp_mmshare_version>
43012

> <i_f3d_flags>
0

> <s_epik_input>
W0NIM11jMVtjSF1jKG5bbkhdMSlbQ0gyXVtDQEhdKFtDSDNdKVtOSF1bQ0BASF0oQzIoW0NIM10pW0NIM10pW0NIMl1bQ0gyXVtDSDJdMg==

> <s_epik_cmdline>
J2VwaWtfcHl0aG9uJywgJy1waCcsICc3LjAnLCAnLXRuJywgJzgnLCAnLW1hJywgJzIwMCcsICctbWV0YWxfYmluZGluZycsICctaW1hZScsICc8aW5maWxlLm1hZT4nLCAnLW9tYWUnLCAnPG91dGZpbGUubWFlPic=

> <r_lp_tautomer_probability>
0.5

> <r_epik_Ionization_Penalty>
0.000341671

> <r_epik_Ionization_Penalty_Charging>
0.000281809

> <r_epik_Ionization_Penalty_Neutral>
5.9862e-05

> <r_epik_State_Penalty>
0.41068

> <r_epik_Charging_Adjusted_Penalty>
0.410962

> <i_epik_Tot_Q>
1

> <i_epik_Tot_abs_Q>
1

> <r_epik_Metal_State_Penalty>
0.410672

> <b_epik_Metal_Only>
0

> <s_lp_Force_Field>
OPLS_2005

> <r_lp_Energy>
28.8614

> <b_lp_Chiralities_Consistent>
1

> <s_lp_Variant>
AV-unprocessed.smi:3202-1

> <Gold.Version>
5.8.1

> <Gold.Id.Protein>
6NUR|6NUR_protein|mol2

> <Gold.PLP.Fitness>
35.9215

> <Gold.PLP.PLP>
-30.7365

> <Gold.PLP.part.hbond>
-2.0000

> <Gold.PLP.part.metal>
0.0000

> <Gold.PLP.part.buried>
2.8215

> <Gold.PLP.part.nonpolar>
-30.9954

> <Gold.PLP.part.repulsive>
0.9542

> <Gold.PLP.ligand.clash>
0.0000

> <Gold.PLP.ligand.torsion>
0.4111

> <Gold.PLP.Chemscore.Hbond>
2.0000

> <Gold.PLP.Chemscore.CHOScore>
0.0000

> <Gold.PLP.Chemscore.Metal>
0.0000

> <Gold.Chemscore.Hbonds>
donor molecule, donor type, donor heavy atom, donor atom, acceptor molecule, acceptor atom, score
      L1  H     8    43       P1  7948  2.00

> <Gold.PLP.Chemscore.Internal.Correction>
0.0072

> <Gold.Rescore>
     Score         DG    S(hbond)    S(metal)    S(lipo)     H(rot)  DE(clash)    DE(int)     intcor
     12.58     -14.09       0.99        0.00      77.31       1.46       0.11       1.40       ----

> <Gold.Chemscore.Fitness>
12.5768

> <Gold.Chemscore.DG>
-14.0912

> <Gold.Chemscore.ZeroCoef>
-5.4800

> <Gold.Chemscore.Hbond>
0.9886

> <Gold.Chemscore.Metal>
0.0000

> <Gold.Chemscore.Lipo>
77.3149

> <Gold.Chemscore.Internal_Hbond>
0.0000

> <Gold.Chemscore.DEClash>
0.1098

> <Gold.Chemscore.DEInternal>
1.4046

> <Gold.Chemscore.Rot>
1.4596

> <Gold.Chemscore.Internal.Correction>
   9.000000E+99

> <Gold.Chemscore.Hbonds>
donor molecule, donor type, donor heavy atom, donor atom, acceptor molecule, acceptor atom, score
      L1  H     8    43       P1  7948  1.00

> <Gold.Chemscore.Hbond.Weighted>
-3.3019

> <Gold.Chemscore.Metal.Weighted>
-0.0000

> <Gold.Chemscore.Lipo.Weighted>
-9.0458

> <Gold.Chemscore.Internal_Hbond.Weighted>
0.0000

> <Gold.Chemscore.DEClash.Weighted>
0.1098

> <Gold.Chemscore.DEInternal.Weighted>
1.4046

> <Gold.Chemscore.Rot.Weighted>
3.7365

> <Gold.Chemscore.Internal.Correction.Weighted>
   9.000000E+99

> <Gold.Protein.RotatedTorsions>
[ 6907 6896 6895 6894 ] final -148.44 input  -60.11 | X-H torsion
[ 7974 7965 7964 7962 ] final -164.30 input  175.53 | X-H torsion
[ 8008 7997 7996 7995 ] final  126.10 input   59.86 | X-H torsion
[ 10167 10162 10161 10158 ] final  125.36 input  -65.29 | X-H torsion
[ 10718 10713 10712 10709 ] final  131.51 input   66.30 | X-H torsion
[ 10763 10752 10751 10750 ] final   47.95 input  -60.55 | X-H torsion
[ 11005 11000 10999 10996 ] final -146.17 input  -57.11 | X-H torsion

> <Gold.Protein.ActiveResidues>
 VAL166  LYS551  ARG553  GLY616  TRP617  ASP618  TYR619  PRO620  LYS621  CYS622 
 ASP623  PHE694  ASN695  SER759  ASP760  ASP761  ALA762  ILE779  LEU786  VAL792 
 PHE793  MET794  SER795  GLU796  ALA797  LYS798  CYS799  TRP800  GLU811  SER814 

> <Gold.Protein.RotatedAtoms>
  151.1699  133.4791  159.2593 H   0  0  0  0  0  0  0  0  0  0  0  0  # atno 6907 bound_to 6896
  151.1367  135.0158  159.8617 H   0  0  0  0  0  0  0  0  0  0  0  0  # atno 6908 bound_to 6896
  152.5461  134.1596  159.8605 H   0  0  0  0  0  0  0  0  0  0  0  0  # atno 6909 bound_to 6896
  144.7301  140.2980  143.6209 H   0  0  0  0  0  0  0  0  0  0  0  0  # atno 7974 bound_to 7965
  156.2854  140.2701  156.2056 H   0  0  0  0  0  0  0  0  0  0  0  0  # atno 8008 bound_to 7997
  155.0316  140.0386  157.2494 H   0  0  0  0  0  0  0  0  0  0  0  0  # atno 8009 bound_to 7997
  154.7349  140.2714  155.6428 H   0  0  0  0  0  0  0  0  0  0  0  0  # atno 8010 bound_to 7997
  139.5690  144.6928  151.3831 H   0  0  0  0  0  0  0  0  0  0  0  0  # atno 10167 bound_to 10162
  157.4960  131.1092  150.9492 H   0  0  0  0  0  0  0  0  0  0  0  0  # atno 10718 bound_to 10713
  152.9795  135.5960  154.3846 H   0  0  0  0  0  0  0  0  0  0  0  0  # atno 10763 bound_to 10752
  154.3508  135.2767  155.2375 H   0  0  0  0  0  0  0  0  0  0  0  0  # atno 10764 bound_to 10752
  154.4415  135.6012  153.6187 H   0  0  0  0  0  0  0  0  0  0  0  0  # atno 10765 bound_to 10752
  140.7847  134.3038  157.5034 H   0  0  0  0  0  0  0  0  0  0  0  0  # atno 11005 bound_to 11000
  145.7788  139.1884  143.2169 LP  0  0  0  0  0  0  0  0  0  0  0  0  # atno 17320 bound_to 7965
  146.0851  140.7720  142.9623 LP  0  0  0  0  0  0  0  0  0  0  0  0  # atno 17321 bound_to 7965
  140.6974  143.7716  150.7348 LP  0  0  0  0  0  0  0  0  0  0  0  0  # atno 17342 bound_to 10162
  140.1216  143.4607  152.2309 LP  0  0  0  0  0  0  0  0  0  0  0  0  # atno 17343 bound_to 10162
  157.0178  130.5662  149.5328 LP  0  0  0  0  0  0  0  0  0  0  0  0  # atno 17370 bound_to 10713
  156.0201  130.5295  150.8250 LP  0  0  0  0  0  0  0  0  0  0  0  0  # atno 17371 bound_to 10713
  139.8738  134.9339  156.3593 LP  0  0  0  0  0  0  0  0  0  0  0  0  # atno 17394 bound_to 11000
  140.9448  133.7490  156.0194 LP  0  0  0  0  0  0  0  0  0  0  0  0  # atno 17395 bound_to 11000

$$$$
