AV-unprocessed.smi:2132|AV-procd|sdf|8691|dock2
  -GOLD-   2272011443D 1   1.00000     0.00000
 Structure written by MMmdl.
 38 39  0  0  0  0  0  0  0  0  1 V2000
  154.4541  136.8353  163.9465 C   0  0  0  0  0  0  0  0  0  0  0  0
  155.1345  137.9011  163.3083 O   0  0  0  0  0  0  0  0  0  0  0  0
  154.4381  138.3884  162.1729 C   0  0  0  0  0  0  0  0  0  0  0  0
  155.0086  139.7582  161.7806 C   0  0  0  0  0  0  0  0  0  0  0  0
  154.0799  140.5007  160.9375 N   0  0  0  0  0  0  0  0  0  0  0  0
  153.9740  140.3787  159.6045 C   0  0  0  0  0  0  0  0  0  0  0  0
  154.6811  139.6255  158.9349 O   0  0  0  0  0  0  0  0  0  0  0  0
  152.9766  141.2884  158.9345 C   0  0  0  0  0  0  0  0  0  0  0  0
  152.6242  142.4926  159.5850 C   0  0  0  0  0  0  0  0  0  0  0  0
  151.6885  143.3574  158.9909 C   0  0  0  0  0  0  0  0  0  0  0  0
  151.1374  142.9893  157.7521 C   0  0  0  0  0  0  0  0  0  0  0  0
  151.4738  141.8561  157.1046 N   0  0  0  0  0  0  0  0  0  0  0  0
  152.3802  141.0170  157.6651 C   0  0  0  0  0  0  0  0  0  0  0  0
  152.7323  139.8835  156.9052 N   0  0  0  0  0  0  0  0  0  0  0  0
  152.2766  139.9313  155.5216 C   0  0  0  0  0  0  0  0  0  0  0  0
  152.9554  138.8143  154.7105 C   0  0  0  0  0  0  0  0  0  0  0  0
  152.7112  137.5537  155.3294 O   0  0  0  0  0  0  0  0  0  0  0  0
  153.2282  137.4969  156.6562 C   0  0  0  0  0  0  0  0  0  0  0  0
  152.5495  138.5734  157.5201 C   0  0  0  0  0  0  0  0  0  0  0  0
  155.0266  136.5015  164.8118 H   0  0  0  0  0  0  0  0  0  0  0  0
  154.3350  135.9849  163.2740 H   0  0  0  0  0  0  0  0  0  0  0  0
  153.4688  137.1477  164.2946 H   0  0  0  0  0  0  0  0  0  0  0  0
  154.5211  137.6864  161.3414 H   0  0  0  0  0  0  0  0  0  0  0  0
  153.3778  138.4884  162.4097 H   0  0  0  0  0  0  0  0  0  0  0  0
  155.2453  140.3368  162.6748 H   0  0  0  0  0  0  0  0  0  0  0  0
  155.9458  139.6317  161.2383 H   0  0  0  0  0  0  0  0  0  0  0  0
  153.4755  141.1637  161.4009 H   0  0  0  0  0  0  0  0  0  0  0  0
  153.0563  142.7516  160.5409 H   0  0  0  0  0  0  0  0  0  0  0  0
  151.3988  144.2783  159.4746 H   0  0  0  0  0  0  0  0  0  0  0  0
  150.4130  143.6244  157.2643 H   0  0  0  0  0  0  0  0  0  0  0  0
  151.1934  139.8061  155.4983 H   0  0  0  0  0  0  0  0  0  0  0  0
  152.4955  140.9010  155.0742 H   0  0  0  0  0  0  0  0  0  0  0  0
  152.5609  138.7944  153.6945 H   0  0  0  0  0  0  0  0  0  0  0  0
  154.0295  138.9904  154.6325 H   0  0  0  0  0  0  0  0  0  0  0  0
  153.0384  136.5069  157.0706 H   0  0  0  0  0  0  0  0  0  0  0  0
  154.3107  137.6358  156.6419 H   0  0  0  0  0  0  0  0  0  0  0  0
  152.9741  138.5717  158.5247 H   0  0  0  0  0  0  0  0  0  0  0  0
  151.4850  138.3546  157.6139 H   0  0  0  0  0  0  0  0  0  0  0  0
  1  2  1  0  0  0  0
  1 20  1  0  0  0  0
  1 21  1  0  0  0  0
  1 22  1  0  0  0  0
  2  3  1  0  0  0  0
  3  4  1  0  0  0  0
  3 23  1  0  0  0  0
  3 24  1  0  0  0  0
  4  5  1  0  0  0  0
  4 25  1  0  0  0  0
  4 26  1  0  0  0  0
  5  6  1  0  0  0  0
  5 27  1  0  0  0  0
  6  7  2  0  0  0  0
  6  8  1  0  0  0  0
  8 13  1  0  0  0  0
  8  9  2  0  0  0  0
  9 10  1  0  0  0  0
  9 28  1  0  0  0  0
 10 11  2  0  0  0  0
 10 29  1  0  0  0  0
 11 12  1  0  0  0  0
 11 30  1  0  0  0  0
 12 13  2  0  0  0  0
 13 14  1  0  0  0  0
 14 19  1  0  0  0  0
 14 15  1  0  0  0  0
 15 16  1  0  0  0  0
 15 31  1  0  0  0  0
 15 32  1  0  0  0  0
 16 17  1  0  0  0  0
 16 33  1  0  0  0  0
 16 34  1  0  0  0  0
 17 18  1  0  0  0  0
 18 19  1  0  0  0  0
 18 35  1  0  0  0  0
 18 36  1  0  0  0  0
 19 37  1  0  0  0  0
 19 38  1  0  0  0  0
M  END
> <s_m_source_file>
AV-unprocessed.smi

> <i_m_source_file_index>
2132

> <i_lp_mmshare_version>
43012

> <i_f3d_flags>
0

> <s_epik_input>
W0NIM11PW0NIMl1bQ0gyXVtOSF1DKD1PKWMxW2NIXVtjSF1bY0hdbmMxTjJbQ0gyXVtDSDJdT1tDSDJdW0NIMl0y

> <s_epik_cmdline>
J2VwaWtfcHl0aG9uJywgJy1waCcsICc3LjAnLCAnLXRuJywgJzgnLCAnLW1hJywgJzIwMCcsICctbWV0YWxfYmluZGluZycsICctaW1hZScsICc8aW5maWxlLm1hZT4nLCAnLW9tYWUnLCAnPG91dGZpbGUubWFlPic=

> <r_lp_tautomer_probability>
1

> <r_epik_Ionization_Penalty>
1.38099e-05

> <r_epik_Ionization_Penalty_Charging>
0

> <r_epik_Ionization_Penalty_Neutral>
1.38099e-05

> <r_epik_State_Penalty>
-0

> <r_epik_Charging_Adjusted_Penalty>
0

> <i_epik_Tot_Q>
0

> <i_epik_Tot_abs_Q>
0

> <r_epik_Metal_State_Penalty>
-0

> <b_epik_Metal_Only>
0

> <s_lp_Force_Field>
OPLS_2005

> <r_lp_Energy>
24.8445

> <b_lp_Chiralities_Consistent>
1

> <s_lp_Variant>
AV-unprocessed.smi:2132-1

> <Gold.Version>
5.8.1

> <Gold.Id.Protein>
6NUR|6NUR_protein|mol2

> <Gold.PLP.Fitness>
41.1876

> <Gold.PLP.PLP>
-34.8977

> <Gold.PLP.part.hbond>
-3.0000

> <Gold.PLP.part.metal>
0.0000

> <Gold.PLP.part.buried>
-4.0024

> <Gold.PLP.part.nonpolar>
-26.4880

> <Gold.PLP.part.repulsive>
0.1074

> <Gold.PLP.ligand.clash>
0.0000

> <Gold.PLP.ligand.torsion>
0.7484

> <Gold.PLP.Chemscore.Hbond>
1.5041

> <Gold.PLP.Chemscore.CHOScore>
1.0000

> <Gold.PLP.Chemscore.Metal>
0.0000

> <Gold.Chemscore.Hbonds>
donor molecule, donor type, donor heavy atom, donor atom, acceptor molecule, acceptor atom, score
      P1  H  7997  8008       L1     7  1.00
      P1  H 10752 10764       L1    17  0.39
      L1  C    11    30       P1  8028  1.00

> <Gold.PLP.Chemscore.Internal.Correction>
0.2745

> <Gold.Rescore>
     Score         DG    S(hbond)    S(metal)    S(lipo)     H(rot)  DE(clash)    DE(int)     intcor
     12.56     -16.06       1.38        0.00      86.40       1.62       0.01       3.49       ----

> <Gold.Chemscore.Fitness>
12.5608

> <Gold.Chemscore.DG>
-16.0556

> <Gold.Chemscore.ZeroCoef>
-5.4800

> <Gold.Chemscore.Hbond>
1.3820

> <Gold.Chemscore.Metal>
0.0000

> <Gold.Chemscore.Lipo>
86.4035

> <Gold.Chemscore.Internal_Hbond>
0.0000

> <Gold.Chemscore.DEClash>
0.0069

> <Gold.Chemscore.DEInternal>
3.4878

> <Gold.Chemscore.Rot>
1.6209

> <Gold.Chemscore.Internal.Correction>
   9.000000E+99

> <Gold.Chemscore.Hbonds>
donor molecule, donor type, donor heavy atom, donor atom, acceptor molecule, acceptor atom, score
      P1  H  7997  8008       L1     7  0.97
      P1  H 10752 10764       L1    17  0.21

> <Gold.Chemscore.Hbond.Weighted>
-4.6160

> <Gold.Chemscore.Metal.Weighted>
-0.0000

> <Gold.Chemscore.Lipo.Weighted>
-10.1092

> <Gold.Chemscore.Internal_Hbond.Weighted>
0.0000

> <Gold.Chemscore.DEClash.Weighted>
0.0069

> <Gold.Chemscore.DEInternal.Weighted>
3.4878

> <Gold.Chemscore.Rot.Weighted>
4.1496

> <Gold.Chemscore.Internal.Correction.Weighted>
   9.000000E+99

> <Gold.Protein.RotatedTorsions>
[ 6907 6896 6895 6894 ] final   64.07 input  -60.11 | X-H torsion
[ 7974 7965 7964 7962 ] final -115.12 input  175.53 | X-H torsion
[ 8008 7997 7996 7995 ] final -133.59 input   59.86 | X-H torsion
[ 10167 10162 10161 10158 ] final -119.12 input  -65.29 | X-H torsion
[ 10718 10713 10712 10709 ] final -132.82 input   66.30 | X-H torsion
[ 10763 10752 10751 10750 ] final  -63.73 input  -60.55 | X-H torsion
[ 11005 11000 10999 10996 ] final  153.83 input  -57.11 | X-H torsion

> <Gold.Protein.ActiveResidues>
 VAL166  LYS551  ARG553  GLY616  TRP617  ASP618  TYR619  PRO620  LYS621  CYS622 
 ASP623  PHE694  ASN695  SER759  ASP760  ASP761  ALA762  ILE779  LEU786  VAL792 
 PHE793  MET794  SER795  GLU796  ALA797  LYS798  CYS799  TRP800  GLU811  SER814 

> <Gold.Protein.RotatedAtoms>
  152.4303  134.5790  159.9942 H   0  0  0  0  0  0  0  0  0  0  0  0  # atno 6907 bound_to 6896
  151.5915  133.3360  159.3036 H   0  0  0  0  0  0  0  0  0  0  0  0  # atno 6908 bound_to 6896
  150.8195  134.7432  159.6825 H   0  0  0  0  0  0  0  0  0  0  0  0  # atno 6909 bound_to 6896
  145.1122  140.8618  143.3863 H   0  0  0  0  0  0  0  0  0  0  0  0  # atno 7974 bound_to 7965
  155.3480  140.0476  157.3046 H   0  0  0  0  0  0  0  0  0  0  0  0  # atno 8008 bound_to 7997
  154.5242  140.2235  155.8885 H   0  0  0  0  0  0  0  0  0  0  0  0  # atno 8009 bound_to 7997
  156.1722  140.3093  155.9000 H   0  0  0  0  0  0  0  0  0  0  0  0  # atno 8010 bound_to 7997
  140.0501  143.5068  152.2086 H   0  0  0  0  0  0  0  0  0  0  0  0  # atno 10167 bound_to 10162
  156.2385  130.7081  151.0932 H   0  0  0  0  0  0  0  0  0  0  0  0  # atno 10718 bound_to 10713
  154.3195  135.6199  153.5501 H   0  0  0  0  0  0  0  0  0  0  0  0  # atno 10763 bound_to 10752
  152.9821  135.5720  154.5086 H   0  0  0  0  0  0  0  0  0  0  0  0  # atno 10764 bound_to 10752
  154.4751  135.2861  155.1590 H   0  0  0  0  0  0  0  0  0  0  0  0  # atno 10765 bound_to 10752
  140.1434  134.8724  157.2360 H   0  0  0  0  0  0  0  0  0  0  0  0  # atno 11005 bound_to 11000
  145.0835  139.2942  143.5771 LP  0  0  0  0  0  0  0  0  0  0  0  0  # atno 17320 bound_to 7965
  146.3525  140.0348  142.8647 LP  0  0  0  0  0  0  0  0  0  0  0  0  # atno 17321 bound_to 7965
  139.5958  144.7566  151.3289 LP  0  0  0  0  0  0  0  0  0  0  0  0  # atno 17342 bound_to 10162
  140.7220  143.7108  150.7771 LP  0  0  0  0  0  0  0  0  0  0  0  0  # atno 17343 bound_to 10162
  157.7165  131.0707  150.6307 LP  0  0  0  0  0  0  0  0  0  0  0  0  # atno 17370 bound_to 10713
  156.6379  130.4450  149.5763 LP  0  0  0  0  0  0  0  0  0  0  0  0  # atno 17371 bound_to 10713
  140.2694  134.3478  155.7379 LP  0  0  0  0  0  0  0  0  0  0  0  0  # atno 17394 bound_to 11000
  141.2189  133.7414  156.9200 LP  0  0  0  0  0  0  0  0  0  0  0  0  # atno 17395 bound_to 11000

$$$$
