AV-unprocessed.smi:1005|AV-procd|sdf|4369|dock6
  -GOLD-   22720 2273D 1   1.00000     0.00000
 Structure written by MMmdl.
 57 59  0  0  0  0  0  0  0  0  3 V2000
  153.0544  142.5938  160.7181 C   0  0  0  0  0  0  0  0  0  0  0  0
  152.3196  142.2176  159.4436 C   0  0  0  0  0  0  0  0  0  0  0  0
  152.3878  140.8847  158.9792 C   0  0  0  0  0  0  0  0  0  0  0  0
  151.7198  140.4944  157.7982 C   0  0  0  0  0  0  0  0  0  0  0  0
  151.6474  139.2619  157.1717 N   0  0  0  0  0  0  0  0  0  0  0  0
  150.8808  139.5392  156.1216 C   0  0  0  0  0  0  0  0  0  0  0  0
  150.4444  140.8070  155.9941 N   0  0  0  0  0  0  0  0  0  0  0  0
  149.6006  141.3366  154.9379 C   0  0  0  0  0  0  0  0  0  0  0  0
  148.1025  141.1017  155.2094 C   0  0  1  0  0  0  0  0  0  0  0  0
  147.5611  142.2320  155.8657 O   0  0  0  0  0  0  0  0  0  0  0  0
  147.3148  140.8696  153.9051 C   0  0  0  0  0  0  0  0  0  0  0  0
  147.8149  139.6937  153.1427 N   0  3  2  0  0  0  0  0  0  0  0  0
  146.8155  139.0666  152.2410 C   0  0  0  0  0  0  0  0  0  0  0  0
  145.8367  138.1684  153.0211 C   0  0  0  0  0  0  0  0  0  0  0  0
  146.5632  137.2073  153.7778 O   0  0  0  0  0  0  0  0  0  0  0  0
  147.4287  137.8040  154.7388 C   0  0  1  0  0  0  0  0  0  0  0  0
  148.1032  136.6717  155.5369 C   0  0  0  0  0  0  0  0  0  0  0  0
  148.5391  135.5372  154.6818 N   0  3  0  0  0  0  0  0  0  0  0  0
  147.4468  134.5920  154.3523 C   0  0  0  0  0  0  0  0  0  0  0  0
  149.7100  134.8327  155.2503 C   0  0  0  0  0  0  0  0  0  0  0  0
  148.4683  138.6646  153.9888 C   0  0  0  0  0  0  0  0  0  0  0  0
  150.9777  141.4822  157.0870 C   0  0  0  0  0  0  0  0  0  0  0  0
  150.9023  142.8114  157.5390 C   0  0  0  0  0  0  0  0  0  0  0  0
  151.5738  143.1840  158.7221 C   0  0  0  0  0  0  0  0  0  0  0  0
  151.4837  144.6212  159.2038 C   0  0  0  0  0  0  0  0  0  0  0  0
  153.5442  141.7286  161.1658 H   0  0  0  0  0  0  0  0  0  0  0  0
  152.3615  143.0021  161.4541 H   0  0  0  0  0  0  0  0  0  0  0  0
  153.8199  143.3416  160.5098 H   0  0  0  0  0  0  0  0  0  0  0  0
  152.9553  140.1482  159.5290 H   0  0  0  0  0  0  0  0  0  0  0  0
  150.6185  138.7753  155.4040 H   0  0  0  0  0  0  0  0  0  0  0  0
  149.8103  142.4009  154.8222 H   0  0  0  0  0  0  0  0  0  0  0  0
  149.8921  140.8595  154.0012 H   0  0  0  0  0  0  0  0  0  0  0  0
  148.0026  140.2434  155.8734 H   0  0  0  0  0  0  0  0  0  0  0  0
  148.2189  142.9112  155.8888 H   0  0  0  0  0  0  0  0  0  0  0  0
  146.2643  140.7226  154.1616 H   0  0  0  0  0  0  0  0  0  0  0  0
  147.3474  141.7612  153.2789 H   0  0  0  0  0  0  0  0  0  0  0  0
  146.2723  139.8166  151.6672 H   0  0  0  0  0  0  0  0  0  0  0  0
  147.3531  138.4583  151.5123 H   0  0  0  0  0  0  0  0  0  0  0  0
  145.1917  138.7540  153.6771 H   0  0  0  0  0  0  0  0  0  0  0  0
  145.1807  137.6429  152.3270 H   0  0  0  0  0  0  0  0  0  0  0  0
  146.8526  138.4414  155.4097 H   0  0  0  0  0  0  0  0  0  0  0  0
  148.9697  137.0886  156.0527 H   0  0  0  0  0  0  0  0  0  0  0  0
  147.4343  136.2999  156.3145 H   0  0  0  0  0  0  0  0  0  0  0  0
  147.0328  134.1416  155.2554 H   0  0  0  0  0  0  0  0  0  0  0  0
  147.8160  133.7885  153.7139 H   0  0  0  0  0  0  0  0  0  0  0  0
  146.6382  135.0837  153.8133 H   0  0  0  0  0  0  0  0  0  0  0  0
  149.4671  134.3857  156.2155 H   0  0  0  0  0  0  0  0  0  0  0  0
  150.5458  135.5187  155.3909 H   0  0  0  0  0  0  0  0  0  0  0  0
  150.0468  134.0395  154.5818 H   0  0  0  0  0  0  0  0  0  0  0  0
  149.0703  138.0260  153.3408 H   0  0  0  0  0  0  0  0  0  0  0  0
  149.1654  139.1318  154.6858 H   0  0  0  0  0  0  0  0  0  0  0  0
  150.3302  143.5380  156.9814 H   0  0  0  0  0  0  0  0  0  0  0  0
  150.8891  145.2324  158.5243 H   0  0  0  0  0  0  0  0  0  0  0  0
  152.4771  145.0656  159.2710 H   0  0  0  0  0  0  0  0  0  0  0  0
  151.0169  144.6648  160.1880 H   0  0  0  0  0  0  0  0  0  0  0  0
  148.8555  135.9375  153.8097 H   0  0  0  0  0  0  0  0  0  0  0  0
  148.5449  140.0673  152.5516 H   0  0  0  0  0  0  0  0  0  0  0  0
  1  2  1  0  0  0  0
  1 26  1  0  0  0  0
  1 27  1  0  0  0  0
  1 28  1  0  0  0  0
  2 24  1  0  0  0  0
  2  3  2  0  0  0  0
  3  4  1  0  0  0  0
  3 29  1  0  0  0  0
  4 22  2  0  0  0  0
  4  5  1  0  0  0  0
  5  6  2  0  0  0  0
  6  7  1  0  0  0  0
  6 30  1  0  0  0  0
  7  8  1  0  0  0  0
  7 22  1  0  0  0  0
  8  9  1  0  0  0  0
  8 31  1  0  0  0  0
  8 32  1  0  0  0  0
  9 10  1  0  0  0  0
  9 11  1  0  0  0  0
  9 33  1  0  0  0  0
 10 34  1  0  0  0  0
 11 12  1  0  0  0  0
 11 35  1  0  0  0  0
 11 36  1  0  0  0  0
 12 21  1  0  0  0  0
 12 13  1  0  0  0  0
 12 57  1  0  0  0  0
 13 14  1  0  0  0  0
 13 37  1  0  0  0  0
 13 38  1  0  0  0  0
 14 15  1  0  0  0  0
 14 39  1  0  0  0  0
 14 40  1  0  0  0  0
 15 16  1  0  0  0  0
 16 17  1  0  0  0  0
 16 21  1  0  0  0  0
 16 41  1  0  0  0  0
 17 18  1  0  0  0  0
 17 42  1  0  0  0  0
 17 43  1  0  0  0  0
 18 19  1  0  0  0  0
 18 20  1  0  0  0  0
 18 56  1  0  0  0  0
 19 44  1  0  0  0  0
 19 45  1  0  0  0  0
 19 46  1  0  0  0  0
 20 47  1  0  0  0  0
 20 48  1  0  0  0  0
 20 49  1  0  0  0  0
 21 50  1  0  0  0  0
 21 51  1  0  0  0  0
 22 23  1  0  0  0  0
 23 24  2  0  0  0  0
 23 52  1  0  0  0  0
 24 25  1  0  0  0  0
 25 53  1  0  0  0  0
 25 54  1  0  0  0  0
 25 55  1  0  0  0  0
M  CHG  1  12   1
M  CHG  1  18   1
M  END
> <s_m_source_file>
AV-unprocessed.smi

> <i_m_source_file_index>
1005

> <i_lp_mmshare_version>
43012

> <i_f3d_flags>
0

> <s_epik_input>
W0NIM11jKFtjSF0xKWMoW0NIM10pW2NIXWMoYzEyKW4oW2NIXW4yKVtDSDJdW0NASF0oW09IXSlbQ0gyXU4zW0NIMl1bQ0gyXU9bQ0BIXShbQ0gyXTMpW0NIMl1OKFtDSDNdKVtDSDNd

> <s_epik_cmdline>
J2VwaWtfcHl0aG9uJywgJy1waCcsICc3LjAnLCAnLXRuJywgJzgnLCAnLW1hJywgJzIwMCcsICctbWV0YWxfYmluZGluZycsICctaW1hZScsICc8aW5maWxlLm1hZT4nLCAnLW9tYWUnLCAnPG91dGZpbGUubWFlPic=

> <r_epik_Ionization_Penalty>
1.0968

> <r_epik_Ionization_Penalty_Charging>
1.0096

> <r_epik_Ionization_Penalty_Neutral>
0.0871956

> <r_epik_State_Penalty>
1.31185

> <r_epik_Charging_Adjusted_Penalty>
2.32145

> <i_epik_Tot_Q>
2

> <i_epik_Tot_abs_Q>
2

> <r_epik_Metal_State_Penalty>
1.22442

> <b_epik_Metal_Only>
0

> <s_lp_Force_Field>
OPLS_2005

> <r_lp_Energy>
34.9346

> <b_lp_Chiralities_Consistent>
1

> <s_lp_Variant>
AV-unprocessed.smi:1005-8

> <Gold.Version>
5.8.1

> <Gold.Id.Protein>
6NUR|6NUR_protein|mol2

> <Gold.PLP.Fitness>
55.3692

> <Gold.PLP.PLP>
-46.4143

> <Gold.PLP.part.hbond>
-3.0000

> <Gold.PLP.part.metal>
0.0000

> <Gold.PLP.part.buried>
-3.9832

> <Gold.PLP.part.nonpolar>
-40.2611

> <Gold.PLP.part.repulsive>
0.1890

> <Gold.PLP.ligand.clash>
0.0000

> <Gold.PLP.ligand.torsion>
1.5706

> <Gold.PLP.Chemscore.Hbond>
4.0000

> <Gold.PLP.Chemscore.CHOScore>
0.0000

> <Gold.PLP.Chemscore.Metal>
0.0000

> <Gold.Chemscore.Hbonds>
donor molecule, donor type, donor heavy atom, donor atom, acceptor molecule, acceptor atom, score
      L1  H    10    34       P1  8028  1.00
      L1  H    12    57       P1  7957  1.00
      L1  H    18    56       P1  7948  2.00

> <Gold.PLP.Chemscore.Internal.Correction>
0.0960

> <Gold.Rescore>
     Score         DG    S(hbond)    S(metal)    S(lipo)     H(rot)  DE(clash)    DE(int)     intcor
     21.32     -24.29       2.87        0.00     133.10       2.48       0.25       2.72       ----

> <Gold.Chemscore.Fitness>
21.3233

> <Gold.Chemscore.DG>
-24.2888

> <Gold.Chemscore.ZeroCoef>
-5.4800

> <Gold.Chemscore.Hbond>
2.8706

> <Gold.Chemscore.Metal>
0.0000

> <Gold.Chemscore.Lipo>
133.1047

> <Gold.Chemscore.Internal_Hbond>
0.0000

> <Gold.Chemscore.DEClash>
0.2491

> <Gold.Chemscore.DEInternal>
2.7164

> <Gold.Chemscore.Rot>
2.4814

> <Gold.Chemscore.Internal.Correction>
   9.000000E+99

> <Gold.Chemscore.Hbonds>
donor molecule, donor type, donor heavy atom, donor atom, acceptor molecule, acceptor atom, score
      L1  H    10    34       P1  8028  0.86
      L1  H    12    57       P1  7957  0.97
      L1  H    18    56       P1  7948  0.96

> <Gold.Chemscore.Hbond.Weighted>
-9.5879

> <Gold.Chemscore.Metal.Weighted>
-0.0000

> <Gold.Chemscore.Lipo.Weighted>
-15.5732

> <Gold.Chemscore.Internal_Hbond.Weighted>
0.0000

> <Gold.Chemscore.DEClash.Weighted>
0.2491

> <Gold.Chemscore.DEInternal.Weighted>
2.7164

> <Gold.Chemscore.Rot.Weighted>
6.3524

> <Gold.Chemscore.Internal.Correction.Weighted>
   9.000000E+99

> <Gold.Protein.RotatedTorsions>
[ 6907 6896 6895 6894 ] final  -49.85 input  -60.11 | X-H torsion
[ 7974 7965 7964 7962 ] final   39.05 input  175.53 | X-H torsion
[ 8008 7997 7996 7995 ] final -178.67 input   59.86 | X-H torsion
[ 10167 10162 10161 10158 ] final -123.57 input  -65.29 | X-H torsion
[ 10718 10713 10712 10709 ] final  -49.23 input   66.30 | X-H torsion
[ 10763 10752 10751 10750 ] final   12.38 input  -60.55 | X-H torsion
[ 11005 11000 10999 10996 ] final   -2.43 input  -57.11 | X-H torsion

> <Gold.Protein.ActiveResidues>
 VAL166  LYS551  ARG553  GLY616  TRP617  ASP618  TYR619  PRO620  LYS621  CYS622 
 ASP623  PHE694  ASN695  SER759  ASP760  ASP761  ALA762  ILE779  LEU786  VAL792 
 PHE793  MET794  SER795  GLU796  ALA797  LYS798  CYS799  TRP800  GLU811  SER814 

> <Gold.Protein.RotatedAtoms>
  150.8764  134.8147  159.7192 H   0  0  0  0  0  0  0  0  0  0  0  0  # atno 6907 bound_to 6896
  152.4749  134.4865  159.9692 H   0  0  0  0  0  0  0  0  0  0  0  0  # atno 6908 bound_to 6896
  151.4946  133.3479  159.2894 H   0  0  0  0  0  0  0  0  0  0  0  0  # atno 6909 bound_to 6896
  146.1015  139.5699  142.9411 H   0  0  0  0  0  0  0  0  0  0  0  0  # atno 7974 bound_to 7965
  156.0216  140.1262  157.0351 H   0  0  0  0  0  0  0  0  0  0  0  0  # atno 8008 bound_to 7997
  154.4314  140.1067  156.6042 H   0  0  0  0  0  0  0  0  0  0  0  0  # atno 8009 bound_to 7997
  155.5936  140.3469  155.4576 H   0  0  0  0  0  0  0  0  0  0  0  0  # atno 8010 bound_to 7997
  140.0021  143.5529  152.2299 H   0  0  0  0  0  0  0  0  0  0  0  0  # atno 10167 bound_to 10162
  156.1913  130.4153  149.9368 H   0  0  0  0  0  0  0  0  0  0  0  0  # atno 10718 bound_to 10713
  153.1828  135.6830  153.8455 H   0  0  0  0  0  0  0  0  0  0  0  0  # atno 10763 bound_to 10752
  153.7781  135.3186  155.3363 H   0  0  0  0  0  0  0  0  0  0  0  0  # atno 10764 bound_to 10752
  154.8070  135.4742  154.0513 H   0  0  0  0  0  0  0  0  0  0  0  0  # atno 10765 bound_to 10752
  140.6582  133.9344  155.8420 H   0  0  0  0  0  0  0  0  0  0  0  0  # atno 11005 bound_to 11000
  145.5846  141.0378  143.2103 LP  0  0  0  0  0  0  0  0  0  0  0  0  # atno 17320 bound_to 7965
  144.7436  139.7380  143.7301 LP  0  0  0  0  0  0  0  0  0  0  0  0  # atno 17321 bound_to 7965
  139.6264  144.7638  151.2629 LP  0  0  0  0  0  0  0  0  0  0  0  0  # atno 17342 bound_to 10162
  140.7414  143.6556  150.8209 LP  0  0  0  0  0  0  0  0  0  0  0  0  # atno 17343 bound_to 10162
  156.7108  130.8969  151.3609 LP  0  0  0  0  0  0  0  0  0  0  0  0  # atno 17370 bound_to 10713
  157.6930  130.9253  150.0567 LP  0  0  0  0  0  0  0  0  0  0  0  0  # atno 17371 bound_to 10713
  141.0485  134.0519  157.3813 LP  0  0  0  0  0  0  0  0  0  0  0  0  # atno 17394 bound_to 11000
  139.9022  135.0168  156.7321 LP  0  0  0  0  0  0  0  0  0  0  0  0  # atno 17395 bound_to 11000

$$$$
