AV-unprocessed.smi:220|AV-procd|sdf|1685|dock8
  -GOLD-   2262020123D 1   1.00000     0.00000
 Structure written by MMmdl.
 51 55  0  0  0  0  0  0  0  0  1 V2000
  151.5029  139.1354  157.9015 N   0  0  0  0  0  0  0  0  0  0  0  0
  152.3032  140.0896  158.3824 C   0  0  0  0  0  0  0  0  0  0  0  0
  153.4629  139.8610  158.7230 O   0  0  0  0  0  0  0  0  0  0  0  0
  151.7011  141.4992  158.5115 C   0  0  1  0  0  0  0  0  0  0  0  0
  152.7281  142.5025  159.0839 C   0  0  2  0  0  0  0  0  0  0  0  0
  152.5451  142.8122  160.5784 C   0  0  0  0  0  0  0  0  0  0  0  0
  151.7042  144.0887  160.6197 C   0  0  0  0  0  0  0  0  0  0  0  0
  152.1721  144.8838  159.4007 C   0  0  0  0  0  0  0  0  0  0  0  0
  152.4876  143.8231  158.3363 C   0  0  2  0  0  0  0  0  0  0  0  0
  151.3352  143.5266  157.3725 C   0  0  0  0  0  0  0  0  0  0  0  0
  151.3144  142.0806  157.2241 N   0  0  0  0  0  0  0  0  0  0  0  0
  150.2495  141.5937  156.5328 C   0  0  0  0  0  0  0  0  0  0  0  0
  150.4408  140.8624  155.4018 N   0  0  0  0  0  0  0  0  0  0  0  0
  149.3968  140.3701  154.7294 C   0  0  0  0  0  0  0  0  0  0  0  0
  148.0975  140.4834  155.0081 N   0  0  0  0  0  0  0  0  0  0  0  0
  147.8963  141.2178  156.1392 C   0  0  0  0  0  0  0  0  0  0  0  0
  148.9060  141.8066  156.9521 C   0  0  0  0  0  0  0  0  0  0  0  0
  148.3195  142.4914  158.0097 N   0  0  0  0  0  0  0  0  0  0  0  0
  147.0390  142.3088  157.8385 C   0  0  0  0  0  0  0  0  0  0  0  0
  146.6955  141.5431  156.7470 N   0  0  0  0  0  0  0  0  0  0  0  0
  145.3516  141.1767  156.3267 C   0  0  0  0  0  0  0  0  0  0  0  0
  144.5225  142.3652  155.7987 C   0  0  0  0  0  0  0  0  0  0  0  0
  145.1558  142.9366  154.5178 C   0  0  0  0  0  0  0  0  0  0  0  0
  144.3264  143.9161  153.9264 O   0  0  0  0  0  0  0  0  0  0  0  0
  143.0068  142.1373  155.7075 C   0  0  0  0  0  0  0  0  0  0  0  0
  142.7228  143.3435  156.4468 O   0  0  0  0  0  0  0  0  0  0  0  0
  144.1096  143.4138  156.8408 C   0  0  0  0  0  0  0  0  0  0  0  0
  151.8540  138.1951  157.7939 H   0  0  0  0  0  0  0  0  0  0  0  0
  150.5526  139.3577  157.6432 H   0  0  0  0  0  0  0  0  0  0  0  0
  150.8238  141.4681  159.1616 H   0  0  0  0  0  0  0  0  0  0  0  0
  153.7493  142.1630  158.8986 H   0  0  0  0  0  0  0  0  0  0  0  0
  152.0916  141.9916  161.1355 H   0  0  0  0  0  0  0  0  0  0  0  0
  153.5192  143.0096  161.0279 H   0  0  0  0  0  0  0  0  0  0  0  0
  150.6483  143.8374  160.5119 H   0  0  0  0  0  0  0  0  0  0  0  0
  151.8225  144.6406  161.5526 H   0  0  0  0  0  0  0  0  0  0  0  0
  151.4386  145.6201  159.0701 H   0  0  0  0  0  0  0  0  0  0  0  0
  153.0853  145.4241  159.6538 H   0  0  0  0  0  0  0  0  0  0  0  0
  153.3757  144.1001  157.7662 H   0  0  0  0  0  0  0  0  0  0  0  0
  150.3795  143.8609  157.7812 H   0  0  0  0  0  0  0  0  0  0  0  0
  151.4897  144.0375  156.4225 H   0  0  0  0  0  0  0  0  0  0  0  0
  149.6375  139.8020  153.8429 H   0  0  0  0  0  0  0  0  0  0  0  0
  146.3072  142.7298  158.5116 H   0  0  0  0  0  0  0  0  0  0  0  0
  145.4460  140.4073  155.5594 H   0  0  0  0  0  0  0  0  0  0  0  0
  144.8454  140.6913  157.1617 H   0  0  0  0  0  0  0  0  0  0  0  0
  146.1377  143.3687  154.7100 H   0  0  0  0  0  0  0  0  0  0  0  0
  145.3135  142.1474  153.7821 H   0  0  0  0  0  0  0  0  0  0  0  0
  143.7716  143.4955  153.2875 H   0  0  0  0  0  0  0  0  0  0  0  0
  142.6132  142.1632  154.6907 H   0  0  0  0  0  0  0  0  0  0  0  0
  142.6537  141.2526  156.2387 H   0  0  0  0  0  0  0  0  0  0  0  0
  144.2537  143.0934  157.8740 H   0  0  0  0  0  0  0  0  0  0  0  0
  144.5424  144.4014  156.6769 H   0  0  0  0  0  0  0  0  0  0  0  0
  1  2  1  0  0  0  0
  1 28  1  0  0  0  0
  1 29  1  0  0  0  0
  2  3  2  0  0  0  0
  2  4  1  0  0  0  0
  4 11  1  0  0  0  0
  4  5  1  0  0  0  0
  4 30  1  0  0  0  0
  5  9  1  0  0  0  0
  5  6  1  0  0  0  0
  5 31  1  0  0  0  0
  6  7  1  0  0  0  0
  6 32  1  0  0  0  0
  6 33  1  0  0  0  0
  7  8  1  0  0  0  0
  7 34  1  0  0  0  0
  7 35  1  0  0  0  0
  8  9  1  0  0  0  0
  8 36  1  0  0  0  0
  8 37  1  0  0  0  0
  9 10  1  0  0  0  0
  9 38  1  0  0  0  0
 10 11  1  0  0  0  0
 10 39  1  0  0  0  0
 10 40  1  0  0  0  0
 11 12  1  0  0  0  0
 12 17  1  0  0  0  0
 12 13  2  0  0  0  0
 13 14  1  0  0  0  0
 14 15  2  0  0  0  0
 14 41  1  0  0  0  0
 15 16  1  0  0  0  0
 16 20  1  0  0  0  0
 16 17  2  0  0  0  0
 17 18  1  0  0  0  0
 18 19  2  0  0  0  0
 19 20  1  0  0  0  0
 19 42  1  0  0  0  0
 20 21  1  0  0  0  0
 21 22  1  0  0  0  0
 21 43  1  0  0  0  0
 21 44  1  0  0  0  0
 22 27  1  0  0  0  0
 22 23  1  0  0  0  0
 22 25  1  0  0  0  0
 23 24  1  0  0  0  0
 23 45  1  0  0  0  0
 23 46  1  0  0  0  0
 24 47  1  0  0  0  0
 25 26  1  0  0  0  0
 25 48  1  0  0  0  0
 25 49  1  0  0  0  0
 26 27  1  0  0  0  0
 27 50  1  0  0  0  0
 27 51  1  0  0  0  0
M  END
> <s_m_source_file>
AV-unprocessed.smi

> <i_m_source_file_index>
220

> <i_lp_mmshare_version>
43012

> <i_f3d_flags>
0

> <s_epik_input>
W0NIMl0xW0NIMl1bQ0gyXVtDQEhdKFtDQEhdMTIpW0NIMl1OKFtDQEBIXTJDKD1PKVtOSDJdKWMobltjSF1uMyljKGMzNCluW2NIXW40W0NIMl1DNShbQ0gyXVtPSF0pW0NIMl1PW0NIMl01

> <s_epik_cmdline>
J2VwaWtfcHl0aG9uJywgJy1waCcsICc3LjAnLCAnLXRuJywgJzgnLCAnLW1hJywgJzIwMCcsICctbWV0YWxfYmluZGluZycsICctaW1hZScsICc8aW5maWxlLm1hZT4nLCAnLW9tYWUnLCAnPG91dGZpbGUubWFlPic=

> <r_lp_tautomer_probability>
1

> <r_epik_Ionization_Penalty>
0.00118987

> <r_epik_Ionization_Penalty_Charging>
0

> <r_epik_Ionization_Penalty_Neutral>
0.00118987

> <r_epik_State_Penalty>
0.000654261

> <r_epik_Charging_Adjusted_Penalty>
0.000654261

> <i_epik_Tot_Q>
0

> <i_epik_Tot_abs_Q>
0

> <r_epik_Metal_State_Penalty>
-0

> <b_epik_Metal_Only>
0

> <s_lp_Force_Field>
OPLS_2005

> <r_lp_Energy>
59.1601

> <b_lp_Chiralities_Consistent>
1

> <s_lp_Variant>
AV-unprocessed.smi:220-4

> <Gold.Version>
5.8.1

> <Gold.Id.Protein>
6NUR|6NUR_protein|mol2

> <Gold.PLP.Fitness>
53.7089

> <Gold.PLP.PLP>
-44.4438

> <Gold.PLP.part.hbond>
-3.0000

> <Gold.PLP.part.metal>
0.0000

> <Gold.PLP.part.buried>
-3.4767

> <Gold.PLP.part.nonpolar>
-38.1308

> <Gold.PLP.part.repulsive>
0.5102

> <Gold.PLP.ligand.clash>
0.0000

> <Gold.PLP.ligand.torsion>
0.4339

> <Gold.PLP.Chemscore.Hbond>
2.2088

> <Gold.PLP.Chemscore.CHOScore>
1.0000

> <Gold.PLP.Chemscore.Metal>
0.0000

> <Gold.Chemscore.Hbonds>
donor molecule, donor type, donor heavy atom, donor atom, acceptor molecule, acceptor atom, score
      L1  H    24    47       P1 10174  1.00
      P1  H  7989  7998       L1    13  0.20
      P1  H  7997  8009       L1     3  1.00
      L1  C    14    41       P1  7957  0.60

> <Gold.PLP.Chemscore.Internal.Correction>
0.5064

> <Gold.Rescore>
     Score         DG    S(hbond)    S(metal)    S(lipo)     H(rot)  DE(clash)    DE(int)     intcor
     13.22     -14.69       1.93        0.00      95.08       3.27       0.09       1.39       ----

> <Gold.Chemscore.Fitness>
13.2172

> <Gold.Chemscore.DG>
-14.6880

> <Gold.Chemscore.ZeroCoef>
-5.4800

> <Gold.Chemscore.Hbond>
1.9329

> <Gold.Chemscore.Metal>
0.0000

> <Gold.Chemscore.Lipo>
95.0775

> <Gold.Chemscore.Internal_Hbond>
0.0000

> <Gold.Chemscore.DEClash>
0.0853

> <Gold.Chemscore.DEInternal>
1.3854

> <Gold.Chemscore.Rot>
3.2703

> <Gold.Chemscore.Internal.Correction>
   9.000000E+99

> <Gold.Chemscore.Hbonds>
donor molecule, donor type, donor heavy atom, donor atom, acceptor molecule, acceptor atom, score
      L1  H    24    47       P1 10174  0.55
      P1  H  7989  7998       L1    13  0.01
      P1  H  7997  8009       L1     3  0.73

> <Gold.Chemscore.Hbond.Weighted>
-6.4560

> <Gold.Chemscore.Metal.Weighted>
-0.0000

> <Gold.Chemscore.Lipo.Weighted>
-11.1241

> <Gold.Chemscore.Internal_Hbond.Weighted>
0.0000

> <Gold.Chemscore.DEClash.Weighted>
0.0853

> <Gold.Chemscore.DEInternal.Weighted>
1.3854

> <Gold.Chemscore.Rot.Weighted>
8.3721

> <Gold.Chemscore.Internal.Correction.Weighted>
   9.000000E+99

> <Gold.Protein.RotatedTorsions>
[ 6907 6896 6895 6894 ] final -169.43 input  -60.11 | X-H torsion
[ 7974 7965 7964 7962 ] final  178.93 input  175.53 | X-H torsion
[ 8008 7997 7996 7995 ] final  145.10 input   59.86 | X-H torsion
[ 10167 10162 10161 10158 ] final  -35.73 input  -65.29 | X-H torsion
[ 10718 10713 10712 10709 ] final -115.69 input   66.30 | X-H torsion
[ 10763 10752 10751 10750 ] final  -38.03 input  -60.55 | X-H torsion
[ 11005 11000 10999 10996 ] final   61.43 input  -57.11 | X-H torsion

> <Gold.Protein.ActiveResidues>
 VAL166  LYS551  ARG553  GLY616  TRP617  ASP618  TYR619  PRO620  LYS621  CYS622 
 ASP623  PHE694  ASN695  SER759  ASP760  ASP761  ALA762  ILE779  LEU786  VAL792 
 PHE793  MET794  SER795  GLU796  ALA797  LYS798  CYS799  TRP800  GLU811  SER814 

> <Gold.Protein.RotatedAtoms>
  151.4915  133.3524  159.2853 H   0  0  0  0  0  0  0  0  0  0  0  0  # atno 6907 bound_to 6896
  150.8832  134.8228  159.7251 H   0  0  0  0  0  0  0  0  0  0  0  0  # atno 6908 bound_to 6896
  152.4776  134.4815  159.9719 H   0  0  0  0  0  0  0  0  0  0  0  0  # atno 6909 bound_to 6896
  144.7151  140.0471  143.6436 H   0  0  0  0  0  0  0  0  0  0  0  0  # atno 7974 bound_to 7965
  156.2892  140.2218  156.5160 H   0  0  0  0  0  0  0  0  0  0  0  0  # atno 8008 bound_to 7997
  154.7569  140.0476  157.0962 H   0  0  0  0  0  0  0  0  0  0  0  0  # atno 8009 bound_to 7997
  155.0040  140.3105  155.4859 H   0  0  0  0  0  0  0  0  0  0  0  0  # atno 8010 bound_to 7997
  140.7159  143.3457  151.2261 H   0  0  0  0  0  0  0  0  0  0  0  0  # atno 10167 bound_to 10162
  156.0912  130.6094  150.8938 H   0  0  0  0  0  0  0  0  0  0  0  0  # atno 10718 bound_to 10713
  153.9061  135.6797  153.4753 H   0  0  0  0  0  0  0  0  0  0  0  0  # atno 10763 bound_to 10752
  153.1103  135.4786  154.9021 H   0  0  0  0  0  0  0  0  0  0  0  0  # atno 10764 bound_to 10752
  154.7551  135.3195  154.8440 H   0  0  0  0  0  0  0  0  0  0  0  0  # atno 10765 bound_to 10752
  140.0162  134.6222  155.9707 H   0  0  0  0  0  0  0  0  0  0  0  0  # atno 11005 bound_to 11000
  145.9975  139.3064  143.0948 LP  0  0  0  0  0  0  0  0  0  0  0  0  # atno 17320 bound_to 7965
  145.8832  140.9350  143.0590 LP  0  0  0  0  0  0  0  0  0  0  0  0  # atno 17321 bound_to 7965
  139.6976  143.9587  152.2890 LP  0  0  0  0  0  0  0  0  0  0  0  0  # atno 17342 bound_to 10162
  139.9269  144.6765  150.8403 LP  0  0  0  0  0  0  0  0  0  0  0  0  # atno 17343 bound_to 10162
  157.6062  131.0939  150.8875 LP  0  0  0  0  0  0  0  0  0  0  0  0  # atno 17370 bound_to 10713
  156.9023  130.5251  149.5282 LP  0  0  0  0  0  0  0  0  0  0  0  0  # atno 17371 bound_to 10713
  141.1744  133.6539  156.4772 LP  0  0  0  0  0  0  0  0  0  0  0  0  # atno 17394 bound_to 11000
  140.4467  134.6966  157.5019 LP  0  0  0  0  0  0  0  0  0  0  0  0  # atno 17395 bound_to 11000

$$$$
