AV-unprocessed.smi:149|AV-procd|sdf|1237|dock10
  -GOLD-   2262018453D 1   1.00000     0.00000
 Structure written by MMmdl.
 60 64  0  0  0  0  0  0  0  0  2 V2000
  148.8089  131.8114  159.1020 C   0  0  0  0  0  0  0  0  0  0  0  0
  147.8743  132.9209  158.5826 C   0  0  1  0  0  0  0  0  0  0  0  0
  147.6007  132.7239  157.0804 C   0  0  0  0  0  0  0  0  0  0  0  0
  146.1949  133.0223  156.8646 N   0  0  0  0  0  0  0  0  0  0  0  0
  145.7520  133.4382  155.6486 C   0  0  0  0  0  0  0  0  0  0  0  0
  144.6455  134.2265  155.5910 N   0  0  0  0  0  0  0  0  0  0  0  0
  144.1833  134.6638  154.4164 C   0  0  0  0  0  0  0  0  0  0  0  0
  144.6605  134.4284  153.1938 N   0  0  0  0  0  0  0  0  0  0  0  0
  145.7592  133.6220  153.2367 C   0  0  0  0  0  0  0  0  0  0  0  0
  146.3690  133.0909  154.4100 C   0  0  0  0  0  0  0  0  0  0  0  0
  147.4719  132.3237  154.0537 N   0  0  0  0  0  0  0  0  0  0  0  0
  147.5212  132.4112  152.7531 C   0  0  0  0  0  0  0  0  0  0  0  0
  146.5096  133.1456  152.1740 N   0  0  0  0  0  0  0  0  0  0  0  0
  146.3293  133.4364  150.7761 C   0  0  0  0  0  0  0  0  0  0  0  0
  145.0737  134.1795  150.2976 C   0  0  0  0  0  0  0  0  0  0  0  0
  144.4821  132.8509  149.7780 C   0  0  0  0  0  0  0  0  0  0  0  0
  143.5435  132.1510  150.7797 C   0  0  0  0  0  0  0  0  0  0  0  0
  142.6397  133.0630  151.3706 O   0  0  0  0  0  0  0  0  0  0  0  0
  143.7438  132.9048  148.4257 C   0  0  0  0  0  0  0  0  0  0  0  0
  143.6964  134.2093  147.8830 O   0  0  0  0  0  0  0  0  0  0  0  0
  145.9408  132.3420  149.7706 C   0  0  0  0  0  0  0  0  0  0  0  0
  145.6066  133.5265  158.0916 C   0  0  0  0  0  0  0  0  0  0  0  0
  146.4681  132.9598  159.2279 C   0  0  2  0  0  0  0  0  0  0  0  0
  146.3268  133.7939  160.4598 N   0  3  0  0  0  0  0  0  0  0  0  0
  145.0431  133.5402  161.1658 C   0  0  0  0  0  0  0  0  0  0  0  0
  144.8898  134.4664  162.3830 C   0  0  0  0  0  0  0  0  0  0  0  0
  145.9905  134.2789  163.2605 O   0  0  0  0  0  0  0  0  0  0  0  0
  147.2198  134.6188  162.6354 C   0  0  0  0  0  0  0  0  0  0  0  0
  147.4585  133.7092  161.4177 C   0  0  0  0  0  0  0  0  0  0  0  0
  148.3556  130.8270  158.9803 H   0  0  0  0  0  0  0  0  0  0  0  0
  149.0609  131.9238  160.1541 H   0  0  0  0  0  0  0  0  0  0  0  0
  149.7480  131.8096  158.5479 H   0  0  0  0  0  0  0  0  0  0  0  0
  148.3506  133.8946  158.7079 H   0  0  0  0  0  0  0  0  0  0  0  0
  148.2472  133.3682  156.4828 H   0  0  0  0  0  0  0  0  0  0  0  0
  147.7819  131.6916  156.7783 H   0  0  0  0  0  0  0  0  0  0  0  0
  143.3055  135.2912  154.4623 H   0  0  0  0  0  0  0  0  0  0  0  0
  148.3031  131.9297  152.1854 H   0  0  0  0  0  0  0  0  0  0  0  0
  147.2374  133.9539  150.4639 H   0  0  0  0  0  0  0  0  0  0  0  0
  144.4850  134.6504  151.0853 H   0  0  0  0  0  0  0  0  0  0  0  0
  145.3023  134.8996  149.5107 H   0  0  0  0  0  0  0  0  0  0  0  0
  142.9578  131.3692  150.2962 H   0  0  0  0  0  0  0  0  0  0  0  0
  144.1110  131.6579  151.5698 H   0  0  0  0  0  0  0  0  0  0  0  0
  141.9073  133.1820  150.7854 H   0  0  0  0  0  0  0  0  0  0  0  0
  144.2265  132.2622  147.6890 H   0  0  0  0  0  0  0  0  0  0  0  0
  142.7183  132.5491  148.5293 H   0  0  0  0  0  0  0  0  0  0  0  0
  144.5718  134.5653  147.8795 H   0  0  0  0  0  0  0  0  0  0  0  0
  146.4421  132.4781  148.8111 H   0  0  0  0  0  0  0  0  0  0  0  0
  146.0608  131.3151  150.1134 H   0  0  0  0  0  0  0  0  0  0  0  0
  145.6420  134.6172  158.0856 H   0  0  0  0  0  0  0  0  0  0  0  0
  144.5652  133.2149  158.1795 H   0  0  0  0  0  0  0  0  0  0  0  0
  146.1524  131.9363  159.4396 H   0  0  0  0  0  0  0  0  0  0  0  0
  144.1987  133.6979  160.4951 H   0  0  0  0  0  0  0  0  0  0  0  0
  145.0037  132.4982  161.4873 H   0  0  0  0  0  0  0  0  0  0  0  0
  144.8235  135.5111  162.0747 H   0  0  0  0  0  0  0  0  0  0  0  0
  143.9690  134.2333  162.9183 H   0  0  0  0  0  0  0  0  0  0  0  0
  147.2129  135.6696  162.3404 H   0  0  0  0  0  0  0  0  0  0  0  0
  148.0274  134.4983  163.3575 H   0  0  0  0  0  0  0  0  0  0  0  0
  147.5913  132.6753  161.7409 H   0  0  0  0  0  0  0  0  0  0  0  0
  148.3824  134.0319  160.9406 H   0  0  0  0  0  0  0  0  0  0  0  0
  146.3007  134.7542  160.1476 H   0  0  0  0  0  0  0  0  0  0  0  0
  1  2  1  0  0  0  0
  1 30  1  0  0  0  0
  1 31  1  0  0  0  0
  1 32  1  0  0  0  0
  2 23  1  0  0  0  0
  2  3  1  0  0  0  0
  2 33  1  0  0  0  0
  3  4  1  0  0  0  0
  3 34  1  0  0  0  0
  3 35  1  0  0  0  0
  4  5  1  0  0  0  0
  4 22  1  0  0  0  0
  5 10  1  0  0  0  0
  5  6  2  0  0  0  0
  6  7  1  0  0  0  0
  7  8  2  0  0  0  0
  7 36  1  0  0  0  0
  8  9  1  0  0  0  0
  9 13  1  0  0  0  0
  9 10  2  0  0  0  0
 10 11  1  0  0  0  0
 11 12  2  0  0  0  0
 12 13  1  0  0  0  0
 12 37  1  0  0  0  0
 13 14  1  0  0  0  0
 14 21  1  0  0  0  0
 14 15  1  0  0  0  0
 14 38  1  0  0  0  0
 15 16  1  0  0  0  0
 15 39  1  0  0  0  0
 15 40  1  0  0  0  0
 16 17  1  0  0  0  0
 16 19  1  0  0  0  0
 16 21  1  0  0  0  0
 17 18  1  0  0  0  0
 17 41  1  0  0  0  0
 17 42  1  0  0  0  0
 18 43  1  0  0  0  0
 19 20  1  0  0  0  0
 19 44  1  0  0  0  0
 19 45  1  0  0  0  0
 20 46  1  0  0  0  0
 21 47  1  0  0  0  0
 21 48  1  0  0  0  0
 22 23  1  0  0  0  0
 22 49  1  0  0  0  0
 22 50  1  0  0  0  0
 23 24  1  0  0  0  0
 23 51  1  0  0  0  0
 24 29  1  0  0  0  0
 24 25  1  0  0  0  0
 24 60  1  0  0  0  0
 25 26  1  0  0  0  0
 25 52  1  0  0  0  0
 25 53  1  0  0  0  0
 26 27  1  0  0  0  0
 26 54  1  0  0  0  0
 26 55  1  0  0  0  0
 27 28  1  0  0  0  0
 28 29  1  0  0  0  0
 28 56  1  0  0  0  0
 28 57  1  0  0  0  0
 29 58  1  0  0  0  0
 29 59  1  0  0  0  0
M  CHG  1  24   1
M  END
> <s_m_source_file>
AV-unprocessed.smi

> <i_m_source_file_index>
149

> <i_lp_mmshare_version>
43012

> <i_f3d_flags>
0

> <s_epik_input>
W0NIMl0xW0NIMl1PW0NIMl1bQ0gyXU4xW0NAQEhdMltDSDJdTihbQ0gyXVtDQEhdMltDSDNdKWMobltjSF1uMyljKGMzNCluW2NIXW40W0NIXShbQ0gyXTUpW0NIMl1DNShbQ0gyXVtPSF0pW0NIMl1bT0hd

> <s_epik_cmdline>
J2VwaWtfcHl0aG9uJywgJy1waCcsICc3LjAnLCAnLXRuJywgJzgnLCAnLW1hJywgJzIwMCcsICctbWV0YWxfYmluZGluZycsICctaW1hZScsICc8aW5maWxlLm1hZT4nLCAnLW9tYWUnLCAnPG91dGZpbGUubWFlPic=

> <r_lp_tautomer_probability>
1

> <r_epik_Ionization_Penalty>
0.404847

> <r_epik_Ionization_Penalty_Charging>
0.404623

> <r_epik_Ionization_Penalty_Neutral>
0.000224096

> <r_epik_State_Penalty>
0.238803

> <r_epik_Charging_Adjusted_Penalty>
0.643425

> <i_epik_Tot_Q>
1

> <i_epik_Tot_abs_Q>
1

> <r_epik_Metal_State_Penalty>
0.239083

> <b_epik_Metal_Only>
0

> <s_lp_Force_Field>
OPLS_2005

> <r_lp_Energy>
71.3702

> <b_lp_Chiralities_Consistent>
1

> <s_lp_Variant>
AV-unprocessed.smi:149-4

> <Gold.Version>
5.8.1

> <Gold.Id.Protein>
6NUR|6NUR_protein|mol2

> <Gold.PLP.Fitness>
51.5092

> <Gold.PLP.PLP>
-42.9375

> <Gold.PLP.part.hbond>
-5.1293

> <Gold.PLP.part.metal>
0.0000

> <Gold.PLP.part.buried>
-4.1028

> <Gold.PLP.part.nonpolar>
-33.3589

> <Gold.PLP.part.repulsive>
0.2238

> <Gold.PLP.ligand.clash>
0.0000

> <Gold.PLP.ligand.torsion>
2.0933

> <Gold.PLP.Chemscore.Hbond>
2.9920

> <Gold.PLP.Chemscore.CHOScore>
1.0000

> <Gold.PLP.Chemscore.Metal>
0.0000

> <Gold.Chemscore.Hbonds>
donor molecule, donor type, donor heavy atom, donor atom, acceptor molecule, acceptor atom, score
      L1  H    18    43       P1 10186  0.93
      L1  H    20    46       P1  7921  1.00
      P1  H 10192 10197       L1    20  0.93
      L1  C    12    37       P1 10747  1.00

> <Gold.PLP.Chemscore.Internal.Correction>
0.7822

> <Gold.Rescore>
     Score         DG    S(hbond)    S(metal)    S(lipo)     H(rot)  DE(clash)    DE(int)     intcor
     14.47     -17.68       2.72        0.00      94.13       3.09       0.09       3.12       ----

> <Gold.Chemscore.Fitness>
14.4669

> <Gold.Chemscore.DG>
-17.6759

> <Gold.Chemscore.ZeroCoef>
-5.4800

> <Gold.Chemscore.Hbond>
2.7232

> <Gold.Chemscore.Metal>
0.0000

> <Gold.Chemscore.Lipo>
94.1347

> <Gold.Chemscore.Internal_Hbond>
0.0000

> <Gold.Chemscore.DEClash>
0.0930

> <Gold.Chemscore.DEInternal>
3.1160

> <Gold.Chemscore.Rot>
3.0912

> <Gold.Chemscore.Internal.Correction>
   9.000000E+99

> <Gold.Chemscore.Hbonds>
donor molecule, donor type, donor heavy atom, donor atom, acceptor molecule, acceptor atom, score
      L1  H    18    43       P1 10186  0.82
      L1  H    20    46       P1  7921  0.97
      P1  H 10192 10197       L1    20  0.88

> <Gold.Chemscore.Hbond.Weighted>
-9.0956

> <Gold.Chemscore.Metal.Weighted>
-0.0000

> <Gold.Chemscore.Lipo.Weighted>
-11.0138

> <Gold.Chemscore.Internal_Hbond.Weighted>
0.0000

> <Gold.Chemscore.DEClash.Weighted>
0.0930

> <Gold.Chemscore.DEInternal.Weighted>
3.1160

> <Gold.Chemscore.Rot.Weighted>
7.9135

> <Gold.Chemscore.Internal.Correction.Weighted>
   9.000000E+99

> <Gold.Protein.RotatedTorsions>
[ 6907 6896 6895 6894 ] final -153.28 input  -60.11 | X-H torsion
[ 7974 7965 7964 7962 ] final  147.52 input  175.53 | X-H torsion
[ 8008 7997 7996 7995 ] final -103.08 input   59.86 | X-H torsion
[ 10167 10162 10161 10158 ] final   40.85 input  -65.29 | X-H torsion
[ 10718 10713 10712 10709 ] final -100.43 input   66.30 | X-H torsion
[ 10763 10752 10751 10750 ] final   86.86 input  -60.55 | X-H torsion
[ 11005 11000 10999 10996 ] final   65.30 input  -57.11 | X-H torsion

> <Gold.Protein.ActiveResidues>
 VAL166  LYS551  ARG553  GLY616  TRP617  ASP618  TYR619  PRO620  LYS621  CYS622 
 ASP623  PHE694  ASN695  SER759  ASP760  ASP761  ALA762  ILE779  LEU786  VAL792 
 PHE793  MET794  SER795  GLU796  ALA797  LYS798  CYS799  TRP800  GLU811  SER814 

> <Gold.Protein.RotatedAtoms>
  151.2402  133.4403  159.2606 H   0  0  0  0  0  0  0  0  0  0  0  0  # atno 6907 bound_to 6896
  151.0712  134.9800  159.8320 H   0  0  0  0  0  0  0  0  0  0  0  0  # atno 6908 bound_to 6896
  152.5412  134.2347  159.8891 H   0  0  0  0  0  0  0  0  0  0  0  0  # atno 6909 bound_to 6896
  144.8585  139.6039  143.5941 H   0  0  0  0  0  0  0  0  0  0  0  0  # atno 7974 bound_to 7965
  154.8657  140.0425  157.1693 H   0  0  0  0  0  0  0  0  0  0  0  0  # atno 8008 bound_to 7997
  154.8792  140.2970  155.5414 H   0  0  0  0  0  0  0  0  0  0  0  0  # atno 8009 bound_to 7997
  156.2999  140.2414  156.3792 H   0  0  0  0  0  0  0  0  0  0  0  0  # atno 8010 bound_to 7997
  140.3702  144.2115  150.6133 H   0  0  0  0  0  0  0  0  0  0  0  0  # atno 10167 bound_to 10162
  156.0163  130.5327  150.6816 H   0  0  0  0  0  0  0  0  0  0  0  0  # atno 10718 bound_to 10713
  153.1611  135.4565  154.9773 H   0  0  0  0  0  0  0  0  0  0  0  0  # atno 10763 bound_to 10752
  154.7898  135.3216  154.7805 H   0  0  0  0  0  0  0  0  0  0  0  0  # atno 10764 bound_to 10752
  153.8295  135.6940  153.4871 H   0  0  0  0  0  0  0  0  0  0  0  0  # atno 10765 bound_to 10752
  139.9903  134.6602  156.0103 H   0  0  0  0  0  0  0  0  0  0  0  0  # atno 11005 bound_to 11000
  146.2842  139.6958  142.9207 LP  0  0  0  0  0  0  0  0  0  0  0  0  # atno 17320 bound_to 7965
  145.4359  141.0419  143.2885 LP  0  0  0  0  0  0  0  0  0  0  0  0  # atno 17321 bound_to 7965
  140.5041  143.2309  151.8634 LP  0  0  0  0  0  0  0  0  0  0  0  0  # atno 17342 bound_to 10162
  139.4804  144.5026  151.9041 LP  0  0  0  0  0  0  0  0  0  0  0  0  # atno 17343 bound_to 10162
  157.4517  131.0873  151.0839 LP  0  0  0  0  0  0  0  0  0  0  0  0  # atno 17370 bound_to 10713
  157.1353  130.6120  149.5540 LP  0  0  0  0  0  0  0  0  0  0  0  0  # atno 17371 bound_to 10713
  141.1560  133.6543  156.4163 LP  0  0  0  0  0  0  0  0  0  0  0  0  # atno 17394 bound_to 11000
  140.4921  134.6565  157.5215 LP  0  0  0  0  0  0  0  0  0  0  0  0  # atno 17395 bound_to 11000

$$$$
