AV-unprocessed.smi:3161|AV-procd|sdf|12060|dock1
  -GOLD-   2272017483D 1   1.00000     0.00000
 Structure written by MMmdl.
 40 41  0  0  0  0  0  0  0  0  1 V2000
  152.8967  143.2551  162.9995 C   0  0  0  0  0  0  0  0  0  0  0  0
  152.6465  143.0983  161.5274 C   0  0  0  0  0  0  0  0  0  0  0  0
  153.2904  142.2100  160.6203 C   0  0  0  0  0  0  0  0  0  0  0  0
  152.8337  142.3178  159.3835 N   0  0  0  0  0  0  0  0  0  0  0  0
  151.8977  143.2891  159.4508 N   0  0  0  0  0  0  0  0  0  0  0  0
  151.1504  143.6656  158.2617 C   0  0  0  0  0  0  0  0  0  0  0  0
  150.5162  142.4724  157.5019 C   0  0  1  0  0  0  0  0  0  0  0  0
  149.1205  142.1640  158.0628 C   0  0  0  0  0  0  0  0  0  0  0  0
  150.3978  142.7043  156.0568 N   0  0  0  0  0  0  0  0  0  0  0  0
  149.8402  141.6046  155.2711 C   0  0  0  0  0  0  0  0  0  0  0  0
  150.9091  140.5499  154.9498 C   0  0  2  0  0  0  0  0  0  0  0  0
  150.3125  139.2663  154.3358 C   0  0  0  0  0  0  0  0  0  0  0  0
  151.4049  138.2119  154.1251 C   0  0  0  0  0  0  0  0  0  0  0  0
  152.1631  137.9842  155.4369 C   0  0  0  0  0  0  0  0  0  0  0  0
  152.6594  139.3230  156.0052 C   0  0  0  0  0  0  0  0  0  0  0  0
  151.5627  140.2164  156.1726 O   0  0  0  0  0  0  0  0  0  0  0  0
  151.7517  143.7633  160.7379 C   0  0  0  0  0  0  0  0  0  0  0  0
  153.4192  142.3932  163.4154 H   0  0  0  0  0  0  0  0  0  0  0  0
  151.9666  143.3659  163.5573 H   0  0  0  0  0  0  0  0  0  0  0  0
  153.5064  144.1336  163.2114 H   0  0  0  0  0  0  0  0  0  0  0  0
  154.0689  141.4899  160.8247 H   0  0  0  0  0  0  0  0  0  0  0  0
  150.3687  144.3518  158.5906 H   0  0  0  0  0  0  0  0  0  0  0  0
  151.7980  144.2416  157.5993 H   0  0  0  0  0  0  0  0  0  0  0  0
  151.1201  141.5798  157.6692 H   0  0  0  0  0  0  0  0  0  0  0  0
  149.1692  141.9165  159.1234 H   0  0  0  0  0  0  0  0  0  0  0  0
  148.6687  141.3132  157.5517 H   0  0  0  0  0  0  0  0  0  0  0  0
  148.4489  143.0162  157.9504 H   0  0  0  0  0  0  0  0  0  0  0  0
  149.8457  143.5411  155.8979 H   0  0  0  0  0  0  0  0  0  0  0  0
  149.0440  141.1201  155.8330 H   0  0  0  0  0  0  0  0  0  0  0  0
  149.3954  141.9772  154.3474 H   0  0  0  0  0  0  0  0  0  0  0  0
  151.6451  140.9845  154.2703 H   0  0  0  0  0  0  0  0  0  0  0  0
  149.5415  138.8657  154.9954 H   0  0  0  0  0  0  0  0  0  0  0  0
  149.8262  139.4877  153.3854 H   0  0  0  0  0  0  0  0  0  0  0  0
  150.9700  137.2779  153.7685 H   0  0  0  0  0  0  0  0  0  0  0  0
  152.0982  138.5511  153.3544 H   0  0  0  0  0  0  0  0  0  0  0  0
  151.5059  137.5025  156.1618 H   0  0  0  0  0  0  0  0  0  0  0  0
  153.0021  137.3067  155.2756 H   0  0  0  0  0  0  0  0  0  0  0  0
  153.1359  139.1656  156.9728 H   0  0  0  0  0  0  0  0  0  0  0  0
  153.4094  139.7694  155.3506 H   0  0  0  0  0  0  0  0  0  0  0  0
  151.0340  144.5329  160.9814 H   0  0  0  0  0  0  0  0  0  0  0  0
  1  2  1  0  0  0  0
  1 18  1  0  0  0  0
  1 19  1  0  0  0  0
  1 20  1  0  0  0  0
  2 17  2  0  0  0  0
  2  3  1  0  0  0  0
  3  4  2  0  0  0  0
  3 21  1  0  0  0  0
  4  5  1  0  0  0  0
  5  6  1  0  0  0  0
  5 17  1  0  0  0  0
  6  7  1  0  0  0  0
  6 22  1  0  0  0  0
  6 23  1  0  0  0  0
  7  8  1  0  0  0  0
  7  9  1  0  0  0  0
  7 24  1  0  0  0  0
  8 25  1  0  0  0  0
  8 26  1  0  0  0  0
  8 27  1  0  0  0  0
  9 10  1  0  0  0  0
  9 28  1  0  0  0  0
 10 11  1  0  0  0  0
 10 29  1  0  0  0  0
 10 30  1  0  0  0  0
 11 16  1  0  0  0  0
 11 12  1  0  0  0  0
 11 31  1  0  0  0  0
 12 13  1  0  0  0  0
 12 32  1  0  0  0  0
 12 33  1  0  0  0  0
 13 14  1  0  0  0  0
 13 34  1  0  0  0  0
 13 35  1  0  0  0  0
 14 15  1  0  0  0  0
 14 36  1  0  0  0  0
 14 37  1  0  0  0  0
 15 16  1  0  0  0  0
 15 38  1  0  0  0  0
 15 39  1  0  0  0  0
 17 40  1  0  0  0  0
M  END
> <s_m_source_file>
AV-unprocessed.smi

> <i_m_source_file_index>
3161

> <i_lp_mmshare_version>
43012

> <i_f3d_flags>
0

> <s_epik_input>
W0NIM11jMVtjSF1ubihbY0hdMSlbQ0gyXVtDQEhdKFtDSDNdKVtOSF1bQ0gyXVtDQEBIXTJbQ0gyXVtDSDJdW0NIMl1bQ0gyXU8y

> <s_epik_cmdline>
J2VwaWtfcHl0aG9uJywgJy1waCcsICc3LjAnLCAnLXRuJywgJzgnLCAnLW1hJywgJzIwMCcsICctbWV0YWxfYmluZGluZycsICctaW1hZScsICc8aW5maWxlLm1hZT4nLCAnLW9tYWUnLCAnPG91dGZpbGUubWFlPic=

> <r_lp_tautomer_probability>
1

> <r_epik_Ionization_Penalty>
2.51986

> <r_epik_Ionization_Penalty_Charging>
0

> <r_epik_Ionization_Penalty_Neutral>
2.51986

> <r_epik_State_Penalty>
2.68614

> <r_epik_Charging_Adjusted_Penalty>
2.68614

> <i_epik_Tot_Q>
0

> <i_epik_Tot_abs_Q>
0

> <r_epik_Metal_State_Penalty>
2.68606

> <b_epik_Metal_Only>
0

> <s_lp_Force_Field>
OPLS_2005

> <r_lp_Energy>
14.6841

> <b_lp_Chiralities_Consistent>
1

> <s_lp_Variant>
AV-unprocessed.smi:3161-6

> <Gold.Version>
5.8.1

> <Gold.Id.Protein>
6NUR|6NUR_protein|mol2

> <Gold.PLP.Fitness>
44.2442

> <Gold.PLP.PLP>
-42.2915

> <Gold.PLP.part.hbond>
-1.0000

> <Gold.PLP.part.metal>
0.0000

> <Gold.PLP.part.buried>
-2.5680

> <Gold.PLP.part.nonpolar>
-38.1058

> <Gold.PLP.part.repulsive>
0.0000

> <Gold.PLP.ligand.clash>
0.0000

> <Gold.PLP.ligand.torsion>
0.5799

> <Gold.PLP.Chemscore.Hbond>
1.0000

> <Gold.PLP.Chemscore.CHOScore>
0.0000

> <Gold.PLP.Chemscore.Metal>
0.0000

> <Gold.Chemscore.Hbonds>
donor molecule, donor type, donor heavy atom, donor atom, acceptor molecule, acceptor atom, score
      L1  H     9    28       P1  8028  1.00

> <Gold.PLP.Chemscore.Internal.Correction>
0.1124

> <Gold.Rescore>
     Score         DG    S(hbond)    S(metal)    S(lipo)     H(rot)  DE(clash)    DE(int)     intcor
     14.94     -17.65       0.98        0.00     108.93       1.50       0.37       2.35       ----

> <Gold.Chemscore.Fitness>
14.9359

> <Gold.Chemscore.DG>
-17.6530

> <Gold.Chemscore.ZeroCoef>
-5.4800

> <Gold.Chemscore.Hbond>
0.9807

> <Gold.Chemscore.Metal>
0.0000

> <Gold.Chemscore.Lipo>
108.9340

> <Gold.Chemscore.Internal_Hbond>
0.0000

> <Gold.Chemscore.DEClash>
0.3674

> <Gold.Chemscore.DEInternal>
2.3497

> <Gold.Chemscore.Rot>
1.5030

> <Gold.Chemscore.Internal.Correction>
   9.000000E+99

> <Gold.Chemscore.Hbonds>
donor molecule, donor type, donor heavy atom, donor atom, acceptor molecule, acceptor atom, score
      L1  H     9    28       P1  8028  0.93

> <Gold.Chemscore.Hbond.Weighted>
-3.2754

> <Gold.Chemscore.Metal.Weighted>
-0.0000

> <Gold.Chemscore.Lipo.Weighted>
-12.7453

> <Gold.Chemscore.Internal_Hbond.Weighted>
0.0000

> <Gold.Chemscore.DEClash.Weighted>
0.3674

> <Gold.Chemscore.DEInternal.Weighted>
2.3497

> <Gold.Chemscore.Rot.Weighted>
3.8477

> <Gold.Chemscore.Internal.Correction.Weighted>
   9.000000E+99

> <Gold.Protein.RotatedTorsions>
[ 6907 6896 6895 6894 ] final  -78.01 input  -60.11 | X-H torsion
[ 7974 7965 7964 7962 ] final  -43.86 input  175.53 | X-H torsion
[ 8008 7997 7996 7995 ] final   51.59 input   59.86 | X-H torsion
[ 10167 10162 10161 10158 ] final  -99.39 input  -65.29 | X-H torsion
[ 10718 10713 10712 10709 ] final -153.49 input   66.30 | X-H torsion
[ 10763 10752 10751 10750 ] final -179.27 input  -60.55 | X-H torsion
[ 11005 11000 10999 10996 ] final   61.40 input  -57.11 | X-H torsion

> <Gold.Protein.ActiveResidues>
 VAL166  LYS551  ARG553  GLY616  TRP617  ASP618  TYR619  PRO620  LYS621  CYS622 
 ASP623  PHE694  ASN695  SER759  ASP760  ASP761  ALA762  ILE779  LEU786  VAL792 
 PHE793  MET794  SER795  GLU796  ALA797  LYS798  CYS799  TRP800  GLU811  SER814 

> <Gold.Protein.RotatedAtoms>
  150.6983  134.4336  159.5259 H   0  0  0  0  0  0  0  0  0  0  0  0  # atno 6907 bound_to 6896
  152.2058  134.8544  160.0512 H   0  0  0  0  0  0  0  0  0  0  0  0  # atno 6908 bound_to 6896
  151.9447  133.3613  159.4015 H   0  0  0  0  0  0  0  0  0  0  0  0  # atno 6909 bound_to 6896
  145.9977  140.7110  142.9286 H   0  0  0  0  0  0  0  0  0  0  0  0  # atno 7974 bound_to 7965
  155.4378  140.3453  155.4286 H   0  0  0  0  0  0  0  0  0  0  0  0  # atno 8008 bound_to 7997
  156.1297  140.1510  156.9114 H   0  0  0  0  0  0  0  0  0  0  0  0  # atno 8009 bound_to 7997
  154.4885  140.0848  156.7522 H   0  0  0  0  0  0  0  0  0  0  0  0  # atno 8010 bound_to 7997
  140.2629  143.3395  152.0608 H   0  0  0  0  0  0  0  0  0  0  0  0  # atno 10167 bound_to 10162
  156.4865  130.8328  151.2552 H   0  0  0  0  0  0  0  0  0  0  0  0  # atno 10718 bound_to 10713
  154.5372  135.2803  155.1128 H   0  0  0  0  0  0  0  0  0  0  0  0  # atno 10763 bound_to 10752
  154.2624  135.6319  153.5283 H   0  0  0  0  0  0  0  0  0  0  0  0  # atno 10764 bound_to 10752
  152.9970  135.5609  154.5902 H   0  0  0  0  0  0  0  0  0  0  0  0  # atno 10765 bound_to 10752
  140.0164  134.6219  155.9704 H   0  0  0  0  0  0  0  0  0  0  0  0  # atno 11005 bound_to 11000
  144.6909  140.3179  143.7237 LP  0  0  0  0  0  0  0  0  0  0  0  0  # atno 17320 bound_to 7965
  145.7535  139.1801  143.2308 LP  0  0  0  0  0  0  0  0  0  0  0  0  # atno 17321 bound_to 7965
  139.5011  144.6707  151.6250 LP  0  0  0  0  0  0  0  0  0  0  0  0  # atno 17342 bound_to 10162
  140.5951  143.9710  150.6349 LP  0  0  0  0  0  0  0  0  0  0  0  0  # atno 17343 bound_to 10162
  157.7478  131.0027  150.3012 LP  0  0  0  0  0  0  0  0  0  0  0  0  # atno 17370 bound_to 10713
  156.3469  130.3824  149.7362 LP  0  0  0  0  0  0  0  0  0  0  0  0  # atno 17371 bound_to 10713
  141.1745  133.6539  156.4777 LP  0  0  0  0  0  0  0  0  0  0  0  0  # atno 17394 bound_to 11000
  140.4464  134.6969  157.5018 LP  0  0  0  0  0  0  0  0  0  0  0  0  # atno 17395 bound_to 11000

$$$$
