AV-unprocessed.smi:2221|AV-procd|sdf|8981|dock2
  -GOLD-   2272012193D 1   1.00000     0.00000
 Structure written by MMmdl.
 54 55  0  0  0  0  0  0  0  0  3 V2000
  151.9491  145.8071  160.1989 C   0  0  0  0  0  0  0  0  0  0  0  0
  151.9332  144.4313  159.5669 C   0  0  0  0  0  0  0  0  0  0  0  0
  152.7619  143.4036  160.0563 C   0  0  0  0  0  0  0  0  0  0  0  0
  152.6997  142.1439  159.4291 C   0  0  0  0  0  0  0  0  0  0  0  0
  153.5662  140.9957  159.9027 C   0  0  0  0  0  0  0  0  0  0  0  0
  151.8792  141.8782  158.3899 N   0  0  0  0  0  0  0  0  0  0  0  0
  151.0764  142.8605  157.9109 C   0  0  0  0  0  0  0  0  0  0  0  0
  150.1808  142.6840  156.8230 N   0  0  0  0  0  0  0  0  0  0  0  0
  149.9668  141.5722  156.0982 C   0  0  0  0  0  0  0  0  0  0  0  0
  150.5306  140.4910  156.2664 O   0  0  0  0  0  0  0  0  0  0  0  0
  149.0292  141.7736  155.1606 N   0  0  0  0  0  0  0  0  0  0  0  0
  148.5587  140.7672  154.2104 C   0  0  0  0  0  0  0  0  0  0  0  0
  147.1738  141.0921  153.6067 C   0  0  0  0  0  0  0  0  0  0  0  0
  146.2892  139.9032  153.4999 N   0  3  2  0  0  0  0  0  0  0  0  0
  146.0450  139.2554  154.8138 C   0  0  0  0  0  0  0  0  0  0  0  0
  145.0334  138.1015  154.6830 C   0  0  0  0  0  0  0  0  0  0  0  0
  145.5028  137.0334  153.6669 C   0  0  2  0  0  0  0  0  0  0  0  0
  146.6954  136.2501  154.1309 N   0  3  0  0  0  0  0  0  0  0  0  0
  146.5617  134.7859  153.9270 C   0  0  0  0  0  0  0  0  0  0  0  0
  147.0889  136.5362  155.5331 C   0  0  0  0  0  0  0  0  0  0  0  0
  145.7364  137.7710  152.3269 C   0  0  0  0  0  0  0  0  0  0  0  0
  146.7417  138.9279  152.4739 C   0  0  0  0  0  0  0  0  0  0  0  0
  151.0815  144.1540  158.4787 C   0  0  0  0  0  0  0  0  0  0  0  0
  152.8529  145.9578  160.7903 H   0  0  0  0  0  0  0  0  0  0  0  0
  151.0860  145.9296  160.8538 H   0  0  0  0  0  0  0  0  0  0  0  0
  151.9129  146.5815  159.4322 H   0  0  0  0  0  0  0  0  0  0  0  0
  153.4273  143.5764  160.8898 H   0  0  0  0  0  0  0  0  0  0  0  0
  154.3792  141.3514  160.5363 H   0  0  0  0  0  0  0  0  0  0  0  0
  154.0057  140.4701  159.0542 H   0  0  0  0  0  0  0  0  0  0  0  0
  152.9700  140.2857  160.4763 H   0  0  0  0  0  0  0  0  0  0  0  0
  149.6348  143.4962  156.5769 H   0  0  0  0  0  0  0  0  0  0  0  0
  148.6287  142.6971  155.0815 H   0  0  0  0  0  0  0  0  0  0  0  0
  149.3018  140.6923  153.4165 H   0  0  0  0  0  0  0  0  0  0  0  0
  148.5365  139.7889  154.6931 H   0  0  0  0  0  0  0  0  0  0  0  0
  146.6812  141.8792  154.1793 H   0  0  0  0  0  0  0  0  0  0  0  0
  147.3302  141.5045  152.6091 H   0  0  0  0  0  0  0  0  0  0  0  0
  146.9874  138.8938  155.2278 H   0  0  0  0  0  0  0  0  0  0  0  0
  145.6535  139.9933  155.5153 H   0  0  0  0  0  0  0  0  0  0  0  0
  144.8092  137.6731  155.6585 H   0  0  0  0  0  0  0  0  0  0  0  0
  144.0829  138.5150  154.3415 H   0  0  0  0  0  0  0  0  0  0  0  0
  144.6889  136.3203  153.5252 H   0  0  0  0  0  0  0  0  0  0  0  0
  145.6595  134.4040  154.4065 H   0  0  0  0  0  0  0  0  0  0  0  0
  147.4158  134.2524  154.3457 H   0  0  0  0  0  0  0  0  0  0  0  0
  146.5334  134.5249  152.8701 H   0  0  0  0  0  0  0  0  0  0  0  0
  146.2512  136.3829  156.2149 H   0  0  0  0  0  0  0  0  0  0  0  0
  147.4540  137.5554  155.6505 H   0  0  0  0  0  0  0  0  0  0  0  0
  147.9043  135.8857  155.8515 H   0  0  0  0  0  0  0  0  0  0  0  0
  146.0429  137.0940  151.5312 H   0  0  0  0  0  0  0  0  0  0  0  0
  144.7860  138.1833  151.9843 H   0  0  0  0  0  0  0  0  0  0  0  0
  146.8489  139.4274  151.5112 H   0  0  0  0  0  0  0  0  0  0  0  0
  147.7274  138.5433  152.7403 H   0  0  0  0  0  0  0  0  0  0  0  0
  150.4365  144.9281  158.0877 H   0  0  0  0  0  0  0  0  0  0  0  0
  147.4772  136.5388  153.5607 H   0  0  0  0  0  0  0  0  0  0  0  0
  145.3922  140.2544  153.1951 H   0  0  0  0  0  0  0  0  0  0  0  0
  1  2  1  0  0  0  0
  1 24  1  0  0  0  0
  1 25  1  0  0  0  0
  1 26  1  0  0  0  0
  2 23  1  0  0  0  0
  2  3  2  0  0  0  0
  3  4  1  0  0  0  0
  3 27  1  0  0  0  0
  4  5  1  0  0  0  0
  4  6  2  0  0  0  0
  5 28  1  0  0  0  0
  5 29  1  0  0  0  0
  5 30  1  0  0  0  0
  6  7  1  0  0  0  0
  7  8  1  0  0  0  0
  7 23  2  0  0  0  0
  8  9  1  0  0  0  0
  8 31  1  0  0  0  0
  9 10  2  0  0  0  0
  9 11  1  0  0  0  0
 11 12  1  0  0  0  0
 11 32  1  0  0  0  0
 12 13  1  0  0  0  0
 12 33  1  0  0  0  0
 12 34  1  0  0  0  0
 13 14  1  0  0  0  0
 13 35  1  0  0  0  0
 13 36  1  0  0  0  0
 14 22  1  0  0  0  0
 14 15  1  0  0  0  0
 14 54  1  0  0  0  0
 15 16  1  0  0  0  0
 15 37  1  0  0  0  0
 15 38  1  0  0  0  0
 16 17  1  0  0  0  0
 16 39  1  0  0  0  0
 16 40  1  0  0  0  0
 17 18  1  0  0  0  0
 17 21  1  0  0  0  0
 17 41  1  0  0  0  0
 18 19  1  0  0  0  0
 18 20  1  0  0  0  0
 18 53  1  0  0  0  0
 19 42  1  0  0  0  0
 19 43  1  0  0  0  0
 19 44  1  0  0  0  0
 20 45  1  0  0  0  0
 20 46  1  0  0  0  0
 20 47  1  0  0  0  0
 21 22  1  0  0  0  0
 21 48  1  0  0  0  0
 21 49  1  0  0  0  0
 22 50  1  0  0  0  0
 22 51  1  0  0  0  0
 23 52  1  0  0  0  0
M  CHG  1  14   1
M  CHG  1  18   1
M  END
> <s_m_source_file>
AV-unprocessed.smi

> <i_m_source_file_index>
2221

> <i_lp_mmshare_version>
43012

> <i_f3d_flags>
0

> <s_epik_input>
W0NIM11jMVtjSF1jKFtDSDNdKW5jKFtjSF0xKVtOSF1DKD1PKVtOSF1bQ0gyXVtDSDJdTjJbQ0gyXVtDSDJdW0NIXShOKFtDSDNdKVtDSDNdKVtDSDJdW0NIMl0y

> <s_epik_cmdline>
J2VwaWtfcHl0aG9uJywgJy1waCcsICc3LjAnLCAnLXRuJywgJzgnLCAnLW1hJywgJzIwMCcsICctbWV0YWxfYmluZGluZycsICctaW1hZScsICc8aW5maWxlLm1hZT4nLCAnLW9tYWUnLCAnPG91dGZpbGUubWFlPic=

> <r_epik_Ionization_Penalty>
0.206417

> <r_epik_Ionization_Penalty_Charging>
0.206231

> <r_epik_Ionization_Penalty_Neutral>
0.00018626

> <r_epik_State_Penalty>
0.176025

> <r_epik_Charging_Adjusted_Penalty>
0.382256

> <i_epik_Tot_Q>
2

> <i_epik_Tot_abs_Q>
2

> <r_epik_Metal_State_Penalty>
0.176034

> <b_epik_Metal_Only>
0

> <s_lp_Force_Field>
OPLS_2005

> <r_lp_Energy>
43.913

> <b_lp_Chiralities_Consistent>
1

> <s_lp_Variant>
AV-unprocessed.smi:2221-2

> <Gold.Version>
5.8.1

> <Gold.Id.Protein>
6NUR|6NUR_protein|mol2

> <Gold.PLP.Fitness>
58.8459

> <Gold.PLP.PLP>
-46.2683

> <Gold.PLP.part.hbond>
-4.0000

> <Gold.PLP.part.metal>
0.0000

> <Gold.PLP.part.buried>
-3.5846

> <Gold.PLP.part.nonpolar>
-38.7141

> <Gold.PLP.part.repulsive>
0.2595

> <Gold.PLP.ligand.clash>
1.0894

> <Gold.PLP.ligand.torsion>
1.8210

> <Gold.PLP.Chemscore.Hbond>
5.7343

> <Gold.PLP.Chemscore.CHOScore>
0.0000

> <Gold.PLP.Chemscore.Metal>
0.0000

> <Gold.Chemscore.Hbonds>
donor molecule, donor type, donor heavy atom, donor atom, acceptor molecule, acceptor atom, score
      L1  H     8    31       P1  8028  1.00
      L1  H    11    32       P1  8028  0.73
      L1  H    14    54       P1 10175  2.00
      L1  H    18    53       P1  7948  0.81

> <Gold.PLP.Chemscore.Internal.Correction>
0.1060

> <Gold.Rescore>
     Score         DG    S(hbond)    S(metal)    S(lipo)     H(rot)  DE(clash)    DE(int)     intcor
     21.41     -25.36       3.43        0.00     108.89       1.68       0.39       3.57       ----

> <Gold.Chemscore.Fitness>
21.4088

> <Gold.Chemscore.DG>
-25.3592

> <Gold.Chemscore.ZeroCoef>
-5.4800

> <Gold.Chemscore.Hbond>
3.4252

> <Gold.Chemscore.Metal>
0.0000

> <Gold.Chemscore.Lipo>
108.8895

> <Gold.Chemscore.Internal_Hbond>
0.0000

> <Gold.Chemscore.DEClash>
0.3852

> <Gold.Chemscore.DEInternal>
3.5652

> <Gold.Chemscore.Rot>
1.6800

> <Gold.Chemscore.Internal.Correction>
   9.000000E+99

> <Gold.Chemscore.Hbonds>
donor molecule, donor type, donor heavy atom, donor atom, acceptor molecule, acceptor atom, score
      L1  H     8    31       P1  8028  1.00
      L1  H    11    32       P1  8028  0.71
      L1  H    14    54       P1 10175  0.99
      L1  H    18    53       P1  7948  0.38

> <Gold.Chemscore.Hbond.Weighted>
-11.4400

> <Gold.Chemscore.Metal.Weighted>
-0.0000

> <Gold.Chemscore.Lipo.Weighted>
-12.7401

> <Gold.Chemscore.Internal_Hbond.Weighted>
0.0000

> <Gold.Chemscore.DEClash.Weighted>
0.3852

> <Gold.Chemscore.DEInternal.Weighted>
3.5652

> <Gold.Chemscore.Rot.Weighted>
4.3009

> <Gold.Chemscore.Internal.Correction.Weighted>
   9.000000E+99

> <Gold.Protein.RotatedTorsions>
[ 6907 6896 6895 6894 ] final   37.49 input  -60.11 | X-H torsion
[ 7974 7965 7964 7962 ] final  -56.13 input  175.53 | X-H torsion
[ 8008 7997 7996 7995 ] final   98.60 input   59.86 | X-H torsion
[ 10167 10162 10161 10158 ] final  124.72 input  -65.29 | X-H torsion
[ 10718 10713 10712 10709 ] final   68.88 input   66.30 | X-H torsion
[ 10763 10752 10751 10750 ] final  -40.43 input  -60.55 | X-H torsion
[ 11005 11000 10999 10996 ] final  -72.94 input  -57.11 | X-H torsion

> <Gold.Protein.ActiveResidues>
 VAL166  LYS551  ARG553  GLY616  TRP617  ASP618  TYR619  PRO620  LYS621  CYS622 
 ASP623  PHE694  ASN695  SER759  ASP760  ASP761  ALA762  ILE779  LEU786  VAL792 
 PHE793  MET794  SER795  GLU796  ALA797  LYS798  CYS799  TRP800  GLU811  SER814 

> <Gold.Protein.RotatedAtoms>
  152.1439  134.9041  160.0551 H   0  0  0  0  0  0  0  0  0  0  0  0  # atno 6907 bound_to 6896
  152.0098  133.3852  159.4223 H   0  0  0  0  0  0  0  0  0  0  0  0  # atno 6908 bound_to 6896
  150.6868  134.3664  159.5017 H   0  0  0  0  0  0  0  0  0  0  0  0  # atno 6909 bound_to 6896
  145.8662  140.8249  142.9911 H   0  0  0  0  0  0  0  0  0  0  0  0  # atno 7974 bound_to 7965
  156.1020  140.3241  155.7955 H   0  0  0  0  0  0  0  0  0  0  0  0  # atno 8008 bound_to 7997
  155.4820  140.0554  157.2983 H   0  0  0  0  0  0  0  0  0  0  0  0  # atno 8009 bound_to 7997
  154.4703  140.2008  156.0026 H   0  0  0  0  0  0  0  0  0  0  0  0  # atno 8010 bound_to 7997
  139.5726  144.6947  151.3739 H   0  0  0  0  0  0  0  0  0  0  0  0  # atno 10167 bound_to 10162
  157.6314  130.9397  150.0437 H   0  0  0  0  0  0  0  0  0  0  0  0  # atno 10718 bound_to 10713
  153.9459  135.6756  153.4744 H   0  0  0  0  0  0  0  0  0  0  0  0  # atno 10763 bound_to 10752
  153.0908  135.4875  154.8683 H   0  0  0  0  0  0  0  0  0  0  0  0  # atno 10764 bound_to 10752
  154.7352  135.3147  154.8783 H   0  0  0  0  0  0  0  0  0  0  0  0  # atno 10765 bound_to 10752
  141.1616  133.6862  156.7135 H   0  0  0  0  0  0  0  0  0  0  0  0  # atno 11005 bound_to 11000
  144.6726  140.1170  143.7452 LP  0  0  0  0  0  0  0  0  0  0  0  0  # atno 17320 bound_to 7965
  145.9190  139.2534  143.1392 LP  0  0  0  0  0  0  0  0  0  0  0  0  # atno 17321 bound_to 7965
  140.7010  143.7632  150.7402 LP  0  0  0  0  0  0  0  0  0  0  0  0  # atno 17342 bound_to 10162
  140.1143  143.4670  152.2351 LP  0  0  0  0  0  0  0  0  0  0  0  0  # atno 17343 bound_to 10162
  156.1521  130.3642  149.9423 LP  0  0  0  0  0  0  0  0  0  0  0  0  # atno 17370 bound_to 10713
  156.7440  130.9090  151.3634 LP  0  0  0  0  0  0  0  0  0  0  0  0  # atno 17371 bound_to 10713
  140.2869  134.8272  157.3983 LP  0  0  0  0  0  0  0  0  0  0  0  0  # atno 17394 bound_to 11000
  140.1382  134.5006  155.8052 LP  0  0  0  0  0  0  0  0  0  0  0  0  # atno 17395 bound_to 11000

$$$$
