AV-unprocessed.smi:72|AV-procd|sdf|672|dock9
  -GOLD-   2262016573D 1   1.00000     0.00000
 Structure written by MMmdl.
 29 30  0  0  0  0  0  0  0  0  1 V2000
  150.0417  143.7693  158.1489 N   0  0  0  0  0  0  0  0  0  0  0  0
  150.4756  142.6049  157.8197 C   0  0  0  0  0  0  0  0  0  0  0  0
  151.0854  141.6904  158.6904 N   0  0  0  0  0  0  0  0  0  0  0  0
  151.4451  140.5340  158.2260 C   0  0  0  0  0  0  0  0  0  0  0  0
  151.1963  140.1316  156.8459 N   0  0  0  0  0  0  0  0  0  0  0  0
  151.6605  138.7961  156.2765 C   0  0  1  0  0  0  0  0  0  0  0  0
  153.0381  138.6986  156.4525 O   0  0  0  0  0  0  0  0  0  0  0  0
  153.2926  138.0024  157.6629 C   0  0  2  0  0  0  0  0  0  0  0  0
  154.7293  137.4494  157.6813 C   0  0  0  0  0  0  0  0  0  0  0  0
  154.9230  136.4353  156.7164 O   0  0  0  0  0  0  0  0  0  0  0  0
  152.1496  136.9784  157.7996 C   0  0  1  0  0  0  0  0  0  0  0  0
  151.7395  136.8940  159.1500 O   0  0  0  0  0  0  0  0  0  0  0  0
  151.0220  137.5506  156.9307 C   0  0  2  0  0  0  0  0  0  0  0  0
  150.6367  136.6083  155.9502 O   0  0  0  0  0  0  0  0  0  0  0  0
  150.6649  141.0833  155.9373 C   0  0  0  0  0  0  0  0  0  0  0  0
  150.5223  140.8492  154.7374 O   0  0  0  0  0  0  0  0  0  0  0  0
  150.3098  142.2726  156.4699 N   0  0  0  0  0  0  0  0  0  0  0  0
  151.4205  138.8439  155.2132 H   0  0  0  0  0  0  0  0  0  0  0  0
  153.2136  138.7463  158.4577 H   0  0  0  0  0  0  0  0  0  0  0  0
  152.4454  135.9879  157.4525 H   0  0  0  0  0  0  0  0  0  0  0  0
  150.1210  137.8074  157.4872 H   0  0  0  0  0  0  0  0  0  0  0  0
  149.6498  144.2424  157.3477 H   0  0  0  0  0  0  0  0  0  0  0  0
  151.9624  139.8009  158.8431 H   0  0  0  0  0  0  0  0  0  0  0  0
  155.4496  138.2510  157.5165 H   0  0  0  0  0  0  0  0  0  0  0  0
  154.9451  137.0236  158.6616 H   0  0  0  0  0  0  0  0  0  0  0  0
  155.8506  136.3388  156.5631 H   0  0  0  0  0  0  0  0  0  0  0  0
  151.4663  137.7535  159.4325 H   0  0  0  0  0  0  0  0  0  0  0  0
  151.0297  136.8533  155.1265 H   0  0  0  0  0  0  0  0  0  0  0  0
  149.9108  142.9597  155.8473 H   0  0  0  0  0  0  0  0  0  0  0  0
  1  2  2  0  0  0  0
  1 22  1  0  0  0  0
  2 17  1  0  0  0  0
  2  3  1  0  0  0  0
  3  4  2  0  0  0  0
  4  5  1  0  0  0  0
  4 23  1  0  0  0  0
  5  6  1  0  0  0  0
  5 15  1  0  0  0  0
  6 18  1  0  0  0  0
  6 13  1  0  0  0  0
  6  7  1  0  0  0  0
  7  8  1  0  0  0  0
  8 19  1  0  0  0  0
  8  9  1  0  0  0  0
  8 11  1  0  0  0  0
  9 10  1  0  0  0  0
  9 24  1  0  0  0  0
  9 25  1  0  0  0  0
 10 26  1  0  0  0  0
 11 20  1  0  0  0  0
 11 12  1  0  0  0  0
 11 13  1  0  0  0  0
 12 27  1  0  0  0  0
 13 21  1  0  0  0  0
 13 14  1  0  0  0  0
 14 28  1  0  0  0  0
 15 16  2  0  0  0  0
 15 17  1  0  0  0  0
 17 29  1  0  0  0  0
M  END
> <s_m_source_file>
AV-unprocessed.smi

> <i_m_source_file_index>
72

> <i_lp_mmshare_version>
43012

> <i_f3d_flags>
0

> <s_epik_input>
W05IMl1jMW5bY0hdbihjKD1PKW4xKVtDQEBIXTJPW0NASF0oW0NIMl1bT0hdKVtDQEBIXShbT0hdKVtDQEhdMltPSF0=

> <s_epik_cmdline>
J2VwaWtfcHl0aG9uJywgJy1waCcsICc3LjAnLCAnLXRuJywgJzgnLCAnLW1hJywgJzIwMCcsICctbWV0YWxfYmluZGluZycsICctaW1hZScsICc8aW5maWxlLm1hZT4nLCAnLW9tYWUnLCAnPG91dGZpbGUubWFlPic=

> <r_lp_tautomer_probability>
7.17554e-07

> <r_epik_Ionization_Penalty>
0.0066451

> <r_epik_Ionization_Penalty_Charging>
0.00663793

> <r_epik_Ionization_Penalty_Neutral>
7.17052e-06

> <r_epik_State_Penalty>
0.419231

> <r_epik_Charging_Adjusted_Penalty>
0.425868

> <i_epik_Tot_Q>
0

> <i_epik_Tot_abs_Q>
0

> <r_epik_Metal_State_Penalty>
1.44144

> <b_epik_Metal_Only>
0

> <s_epik_Chemistry_Notes>
This compound contains an acetal/aminal-like group ( X-CH(R)-Y where X, Y are N, S, or O) that may be acid/base labile, releasing an aldehyde.

> <s_lp_Force_Field>
OPLS_2005

> <r_lp_Energy>
39.4446

> <b_lp_Chiralities_Consistent>
1

> <s_lp_Variant>
AV-unprocessed.smi:72-10

> <Gold.Version>
5.8.1

> <Gold.Id.Protein>
6NUR|6NUR_protein|mol2

> <Gold.PLP.Fitness>
36.7689

> <Gold.PLP.PLP>
-19.5831

> <Gold.PLP.part.hbond>
-6.5642

> <Gold.PLP.part.metal>
0.0000

> <Gold.PLP.part.buried>
-3.1109

> <Gold.PLP.part.nonpolar>
-10.1853

> <Gold.PLP.part.repulsive>
0.1866

> <Gold.PLP.ligand.clash>
0.0000

> <Gold.PLP.ligand.torsion>
0.0615

> <Gold.PLP.Chemscore.Hbond>
5.7436

> <Gold.PLP.Chemscore.CHOScore>
0.0000

> <Gold.PLP.Chemscore.Metal>
0.0000

> <Gold.Chemscore.Hbonds>
donor molecule, donor type, donor heavy atom, donor atom, acceptor molecule, acceptor atom, score
      L1  H     1    22       P1  8028  1.00
      L1  H    17    29       P1  8028  0.91
      P1  H  6896  6908       L1    12  1.00
      P1  H  7989  7998       L1    16  0.80
      P1  H  7997  8009       L1     7  1.00
      P1  H 10752 10765       L1    10  0.95

> <Gold.PLP.Chemscore.Internal.Correction>
0.0781

> <Gold.Rescore>
     Score         DG    S(hbond)    S(metal)    S(lipo)     H(rot)  DE(clash)    DE(int)     intcor
     10.11     -10.32       4.02        0.00      15.32       4.06       0.17       0.04       ----

> <Gold.Chemscore.Fitness>
10.1052

> <Gold.Chemscore.DG>
-10.3192

> <Gold.Chemscore.ZeroCoef>
-5.4800

> <Gold.Chemscore.Hbond>
4.0241

> <Gold.Chemscore.Metal>
0.0000

> <Gold.Chemscore.Lipo>
15.3188

> <Gold.Chemscore.Internal_Hbond>
0.0000

> <Gold.Chemscore.DEClash>
0.1739

> <Gold.Chemscore.DEInternal>
0.0401

> <Gold.Chemscore.Rot>
4.0600

> <Gold.Chemscore.Internal.Correction>
   9.000000E+99

> <Gold.Chemscore.Hbonds>
donor molecule, donor type, donor heavy atom, donor atom, acceptor molecule, acceptor atom, score
      L1  H     1    22       P1  8028  0.30
      L1  H    17    29       P1  8028  0.83
      P1  H  6896  6908       L1    12  0.94
      P1  H  7989  7998       L1    16  0.79
      P1  H  7997  8009       L1     7  0.49
      P1  H 10752 10765       L1    10  0.21

> <Gold.Chemscore.Hbond.Weighted>
-13.4405

> <Gold.Chemscore.Metal.Weighted>
-0.0000

> <Gold.Chemscore.Lipo.Weighted>
-1.7923

> <Gold.Chemscore.Internal_Hbond.Weighted>
0.0000

> <Gold.Chemscore.DEClash.Weighted>
0.1739

> <Gold.Chemscore.DEInternal.Weighted>
0.0401

> <Gold.Chemscore.Rot.Weighted>
10.3936

> <Gold.Chemscore.Internal.Correction.Weighted>
   9.000000E+99

> <Gold.Protein.RotatedTorsions>
[ 6907 6896 6895 6894 ] final -122.72 input  -60.11 | X-H torsion
[ 7974 7965 7964 7962 ] final  -10.84 input  175.53 | X-H torsion
[ 8008 7997 7996 7995 ] final -166.18 input   59.86 | X-H torsion
[ 10167 10162 10161 10158 ] final   24.39 input  -65.29 | X-H torsion
[ 10718 10713 10712 10709 ] final -114.99 input   66.30 | X-H torsion
[ 10763 10752 10751 10750 ] final  -79.25 input  -60.55 | X-H torsion
[ 11005 11000 10999 10996 ] final  -77.06 input  -57.11 | X-H torsion

> <Gold.Protein.ActiveResidues>
 VAL166  LYS551  ARG553  GLY616  TRP617  ASP618  TYR619  PRO620  LYS621  CYS622 
 ASP623  PHE694  ASN695  SER759  ASP760  ASP761  ALA762  ILE779  LEU786  VAL792 
 PHE793  MET794  SER795  GLU796  ALA797  LYS798  CYS799  TRP800  GLU811  SER814 

> <Gold.Protein.RotatedAtoms>
  150.8602  133.7655  159.2994 H   0  0  0  0  0  0  0  0  0  0  0  0  # atno 6907 bound_to 6896
  151.5299  135.1066  159.9909 H   0  0  0  0  0  0  0  0  0  0  0  0  # atno 6908 bound_to 6896
  152.4620  133.7799  159.6901 H   0  0  0  0  0  0  0  0  0  0  0  0  # atno 6909 bound_to 6896
  146.2207  140.2823  142.8363 H   0  0  0  0  0  0  0  0  0  0  0  0  # atno 7974 bound_to 7965
  155.8602  140.0977  157.1618 H   0  0  0  0  0  0  0  0  0  0  0  0  # atno 8008 bound_to 7997
  154.3990  140.1366  156.4013 H   0  0  0  0  0  0  0  0  0  0  0  0  # atno 8009 bound_to 7997
  155.7865  140.3457  155.5328 H   0  0  0  0  0  0  0  0  0  0  0  0  # atno 8010 bound_to 7997
  140.5192  144.0032  150.6408 H   0  0  0  0  0  0  0  0  0  0  0  0  # atno 10167 bound_to 10162
  156.0866  130.6056  150.8847 H   0  0  0  0  0  0  0  0  0  0  0  0  # atno 10718 bound_to 10713
  154.5363  135.5702  153.6801 H   0  0  0  0  0  0  0  0  0  0  0  0  # atno 10763 bound_to 10752
  152.9952  135.6217  154.2562 H   0  0  0  0  0  0  0  0  0  0  0  0  # atno 10764 bound_to 10752
  154.2490  135.2860  155.2803 H   0  0  0  0  0  0  0  0  0  0  0  0  # atno 10765 bound_to 10752
  141.1658  133.7008  156.7764 H   0  0  0  0  0  0  0  0  0  0  0  0  # atno 11005 bound_to 11000
  144.9188  140.7843  143.5761 LP  0  0  0  0  0  0  0  0  0  0  0  0  # atno 17320 bound_to 7965
  145.2758  139.1937  143.4817 LP  0  0  0  0  0  0  0  0  0  0  0  0  # atno 17321 bound_to 7965
  140.3376  143.3039  152.0622 LP  0  0  0  0  0  0  0  0  0  0  0  0  # atno 17342 bound_to 10162
  139.4918  144.6465  151.6766 LP  0  0  0  0  0  0  0  0  0  0  0  0  # atno 17343 bound_to 10162
  157.6002  131.0941  150.8973 LP  0  0  0  0  0  0  0  0  0  0  0  0  # atno 17370 bound_to 10713
  156.9132  130.5288  149.5280 LP  0  0  0  0  0  0  0  0  0  0  0  0  # atno 17371 bound_to 10713
  140.2426  134.8601  157.3589 LP  0  0  0  0  0  0  0  0  0  0  0  0  # atno 17394 bound_to 11000
  140.1780  134.4525  155.7789 LP  0  0  0  0  0  0  0  0  0  0  0  0  # atno 17395 bound_to 11000

$$$$
