AV-unprocessed.smi:839|AV-procd|sdf|3910|dock5
  -GOLD-   22720 1373D 1   1.00000     0.00000
 Structure written by MMmdl.
 47 49  0  0  0  0  0  0  0  0  1 V2000
  146.5815  137.0922  155.4424 O   0  0  0  0  0  0  0  0  0  0  0  0
  147.2159  137.0918  154.3877 C   0  0  0  0  0  0  0  0  0  0  0  0
  146.8812  136.3442  153.3257 N   0  0  0  0  0  0  0  0  0  0  0  0
  145.7196  135.4596  153.2502 C   0  0  0  0  0  0  0  0  0  0  0  0
  146.0804  133.9996  152.9182 C   0  0  0  0  0  0  0  0  0  0  0  0
  146.8867  133.3880  153.6218 O   0  0  0  0  0  0  0  0  0  0  0  0
  145.4821  133.4251  151.8539 N   0  0  0  0  0  0  0  0  0  0  0  0
  145.6961  132.0543  151.3909 C   0  0  0  0  0  0  0  0  0  0  0  0
  144.6599  131.8207  150.2908 C   0  0  0  0  0  0  0  0  0  0  0  0
  144.3437  133.2156  149.7696 C   0  0  0  0  0  0  0  0  0  0  0  0
  144.5343  134.1215  150.9862 C   0  0  0  0  0  0  0  0  0  0  0  0
  148.3254  137.8106  154.1447 N   0  0  0  0  0  0  0  0  0  0  0  0
  148.9912  138.7337  154.9964 C   0  0  0  0  0  0  0  0  0  0  0  0
  148.6018  139.0224  156.3248 C   0  0  0  0  0  0  0  0  0  0  0  0
  149.3354  139.9738  157.0593 C   0  0  0  0  0  0  0  0  0  0  0  0
  150.4345  140.6238  156.4501 C   0  0  0  0  0  0  0  0  0  0  0  0
  151.1807  141.5834  157.1690 N   0  0  0  0  0  0  0  0  0  0  0  0
  150.6704  142.9525  157.2192 C   0  0  0  0  0  0  0  0  0  0  0  0
  151.7386  143.9036  157.7851 C   0  0  0  0  0  0  0  0  0  0  0  0
  152.1739  143.4329  159.0561 O   0  0  0  0  0  0  0  0  0  0  0  0
  152.7705  142.1436  158.9658 C   0  0  0  0  0  0  0  0  0  0  0  0
  151.7419  141.1282  158.4387 C   0  0  0  0  0  0  0  0  0  0  0  0
  150.8011  140.3477  155.1747 N   0  0  0  0  0  0  0  0  0  0  0  0
  150.0950  139.4361  154.4739 C   0  0  0  0  0  0  0  0  0  0  0  0
  147.4590  136.4042  152.5002 H   0  0  0  0  0  0  0  0  0  0  0  0
  145.2160  135.4877  154.2167 H   0  0  0  0  0  0  0  0  0  0  0  0
  145.0120  135.8434  152.5137 H   0  0  0  0  0  0  0  0  0  0  0  0
  146.7061  131.9667  150.9883 H   0  0  0  0  0  0  0  0  0  0  0  0
  145.5819  131.3228  152.1914 H   0  0  0  0  0  0  0  0  0  0  0  0
  145.0168  131.1483  149.5102 H   0  0  0  0  0  0  0  0  0  0  0  0
  143.7600  131.3815  150.7235 H   0  0  0  0  0  0  0  0  0  0  0  0
  145.0628  133.4873  148.9955 H   0  0  0  0  0  0  0  0  0  0  0  0
  143.3448  133.2908  149.3388 H   0  0  0  0  0  0  0  0  0  0  0  0
  143.5920  134.2502  151.5209 H   0  0  0  0  0  0  0  0  0  0  0  0
  144.8946  135.1083  150.6910 H   0  0  0  0  0  0  0  0  0  0  0  0
  148.7743  137.6444  153.2558 H   0  0  0  0  0  0  0  0  0  0  0  0
  147.7547  138.5466  156.7930 H   0  0  0  0  0  0  0  0  0  0  0  0
  149.0525  140.1843  158.0797 H   0  0  0  0  0  0  0  0  0  0  0  0
  150.3836  143.2856  156.2209 H   0  0  0  0  0  0  0  0  0  0  0  0
  149.7762  142.9823  157.8434 H   0  0  0  0  0  0  0  0  0  0  0  0
  152.5877  143.9847  157.1045 H   0  0  0  0  0  0  0  0  0  0  0  0
  151.3259  144.9060  157.8995 H   0  0  0  0  0  0  0  0  0  0  0  0
  153.6473  142.1813  158.3172 H   0  0  0  0  0  0  0  0  0  0  0  0
  153.1190  141.8444  159.9542 H   0  0  0  0  0  0  0  0  0  0  0  0
  150.9309  141.0110  159.1587 H   0  0  0  0  0  0  0  0  0  0  0  0
  152.2227  140.1557  158.3435 H   0  0  0  0  0  0  0  0  0  0  0  0
  150.4277  139.2599  153.4613 H   0  0  0  0  0  0  0  0  0  0  0  0
  1  2  2  0  0  0  0
  2  3  1  0  0  0  0
  2 12  1  0  0  0  0
  3  4  1  0  0  0  0
  3 25  1  0  0  0  0
  4  5  1  0  0  0  0
  4 26  1  0  0  0  0
  4 27  1  0  0  0  0
  5  6  2  0  0  0  0
  5  7  1  0  0  0  0
  7 11  1  0  0  0  0
  7  8  1  0  0  0  0
  8  9  1  0  0  0  0
  8 28  1  0  0  0  0
  8 29  1  0  0  0  0
  9 10  1  0  0  0  0
  9 30  1  0  0  0  0
  9 31  1  0  0  0  0
 10 11  1  0  0  0  0
 10 32  1  0  0  0  0
 10 33  1  0  0  0  0
 11 34  1  0  0  0  0
 11 35  1  0  0  0  0
 12 13  1  0  0  0  0
 12 36  1  0  0  0  0
 13 24  1  0  0  0  0
 13 14  2  0  0  0  0
 14 15  1  0  0  0  0
 14 37  1  0  0  0  0
 15 16  2  0  0  0  0
 15 38  1  0  0  0  0
 16 17  1  0  0  0  0
 16 23  1  0  0  0  0
 17 22  1  0  0  0  0
 17 18  1  0  0  0  0
 18 19  1  0  0  0  0
 18 39  1  0  0  0  0
 18 40  1  0  0  0  0
 19 20  1  0  0  0  0
 19 41  1  0  0  0  0
 19 42  1  0  0  0  0
 20 21  1  0  0  0  0
 21 22  1  0  0  0  0
 21 43  1  0  0  0  0
 21 44  1  0  0  0  0
 22 45  1  0  0  0  0
 22 46  1  0  0  0  0
 23 24  2  0  0  0  0
 24 47  1  0  0  0  0
M  END
> <s_m_source_file>
AV-unprocessed.smi

> <i_m_source_file_index>
839

> <i_lp_mmshare_version>
43012

> <i_f3d_flags>
0

> <s_epik_input>
W0NIMl0xW0NIMl1bQ0gyXVtDSDJdTjFDKD1PKVtDSDJdW05IXUMoPU8pW05IXWMyW2NIXVtjSF1jKG5bY0hdMilOM1tDSDJdW0NIMl1PW0NIMl1bQ0gyXTM=

> <s_epik_cmdline>
J2VwaWtfcHl0aG9uJywgJy1waCcsICc3LjAnLCAnLXRuJywgJzgnLCAnLW1hJywgJzIwMCcsICctbWV0YWxfYmluZGluZycsICctaW1hZScsICc8aW5maWxlLm1hZT4nLCAnLW9tYWUnLCAnPG91dGZpbGUubWFlPic=

> <r_lp_tautomer_probability>
1

> <r_epik_Ionization_Penalty>
0.00586185

> <r_epik_Ionization_Penalty_Charging>
0

> <r_epik_Ionization_Penalty_Neutral>
0.00586185

> <r_epik_State_Penalty>
0.00428328

> <r_epik_Charging_Adjusted_Penalty>
0.00428328

> <i_epik_Tot_Q>
0

> <i_epik_Tot_abs_Q>
0

> <r_epik_Metal_State_Penalty>
-0

> <b_epik_Metal_Only>
0

> <s_lp_Force_Field>
OPLS_2005

> <r_lp_Energy>
41.3163

> <b_lp_Chiralities_Consistent>
1

> <s_lp_Variant>
AV-unprocessed.smi:839-1

> <Gold.Version>
5.8.1

> <Gold.Id.Protein>
6NUR|6NUR_protein|mol2

> <Gold.PLP.Fitness>
44.0114

> <Gold.PLP.PLP>
-34.6926

> <Gold.PLP.part.hbond>
-3.0000

> <Gold.PLP.part.metal>
0.0000

> <Gold.PLP.part.buried>
-4.4280

> <Gold.PLP.part.nonpolar>
-28.0126

> <Gold.PLP.part.repulsive>
0.2124

> <Gold.PLP.ligand.clash>
0.0000

> <Gold.PLP.ligand.torsion>
0.3764

> <Gold.PLP.Chemscore.Hbond>
2.2580

> <Gold.PLP.Chemscore.CHOScore>
0.9851

> <Gold.PLP.Chemscore.Metal>
0.0000

> <Gold.Chemscore.Hbonds>
donor molecule, donor type, donor heavy atom, donor atom, acceptor molecule, acceptor atom, score
      L1  H     3    25       P1  7948  0.96
      L1  H    12    36       P1  7948  0.83
      P1  H  7989  7998       L1    23  0.40
      L1  C    24    47       P1  7957  0.95

> <Gold.PLP.Chemscore.Internal.Correction>
0.3422

> <Gold.Rescore>
     Score         DG    S(hbond)    S(metal)    S(lipo)     H(rot)  DE(clash)    DE(int)     intcor
     16.64     -18.15       1.84        0.00      88.51       1.50       0.03       1.48       ----

> <Gold.Chemscore.Fitness>
16.6414

> <Gold.Chemscore.DG>
-18.1490

> <Gold.Chemscore.ZeroCoef>
-5.4800

> <Gold.Chemscore.Hbond>
1.8422

> <Gold.Chemscore.Metal>
0.0000

> <Gold.Chemscore.Lipo>
88.5133

> <Gold.Chemscore.Internal_Hbond>
0.0000

> <Gold.Chemscore.DEClash>
0.0288

> <Gold.Chemscore.DEInternal>
1.4789

> <Gold.Chemscore.Rot>
1.5001

> <Gold.Chemscore.Internal.Correction>
   9.000000E+99

> <Gold.Chemscore.Hbonds>
donor molecule, donor type, donor heavy atom, donor atom, acceptor molecule, acceptor atom, score
      L1  H     3    25       P1  7948  0.92
      L1  H    12    36       P1  7948  0.81
      P1  H  7989  7998       L1    23  0.01

> <Gold.Chemscore.Hbond.Weighted>
-6.1531

> <Gold.Chemscore.Metal.Weighted>
-0.0000

> <Gold.Chemscore.Lipo.Weighted>
-10.3561

> <Gold.Chemscore.Internal_Hbond.Weighted>
0.0000

> <Gold.Chemscore.DEClash.Weighted>
0.0288

> <Gold.Chemscore.DEInternal.Weighted>
1.4789

> <Gold.Chemscore.Rot.Weighted>
3.8402

> <Gold.Chemscore.Internal.Correction.Weighted>
   9.000000E+99

> <Gold.Protein.RotatedTorsions>
[ 6907 6896 6895 6894 ] final -146.44 input  -60.11 | X-H torsion
[ 7974 7965 7964 7962 ] final   44.18 input  175.53 | X-H torsion
[ 8008 7997 7996 7995 ] final   29.75 input   59.86 | X-H torsion
[ 10167 10162 10161 10158 ] final  -91.03 input  -65.29 | X-H torsion
[ 10718 10713 10712 10709 ] final   99.02 input   66.30 | X-H torsion
[ 10763 10752 10751 10750 ] final  137.25 input  -60.55 | X-H torsion
[ 11005 11000 10999 10996 ] final  144.87 input  -57.11 | X-H torsion

> <Gold.Protein.ActiveResidues>
 VAL166  LYS551  ARG553  GLY616  TRP617  ASP618  TYR619  PRO620  LYS621  CYS622 
 ASP623  PHE694  ASN695  SER759  ASP760  ASP761  ALA762  ILE779  LEU786  VAL792 
 PHE793  MET794  SER795  GLU796  ALA797  LYS798  CYS799  TRP800  GLU811  SER814 

> <Gold.Protein.RotatedAtoms>
  151.1417  133.4967  159.2596 H   0  0  0  0  0  0  0  0  0  0  0  0  # atno 6907 bound_to 6896
  151.1648  135.0290  159.8736 H   0  0  0  0  0  0  0  0  0  0  0  0  # atno 6908 bound_to 6896
  152.5462  134.1287  159.8483 H   0  0  0  0  0  0  0  0  0  0  0  0  # atno 6909 bound_to 6896
  146.0591  139.5103  142.9670 H   0  0  0  0  0  0  0  0  0  0  0  0  # atno 7974 bound_to 7965
  155.0795  140.3208  155.4606 H   0  0  0  0  0  0  0  0  0  0  0  0  # atno 8008 bound_to 7997
  156.2771  140.2097  156.5868 H   0  0  0  0  0  0  0  0  0  0  0  0  # atno 8009 bound_to 7997
  154.6990  140.0509  157.0427 H   0  0  0  0  0  0  0  0  0  0  0  0  # atno 8010 bound_to 7997
  140.3490  143.2901  151.9748 H   0  0  0  0  0  0  0  0  0  0  0  0  # atno 10167 bound_to 10162
  157.6884  131.0657  150.4885 H   0  0  0  0  0  0  0  0  0  0  0  0  # atno 10718 bound_to 10713
  153.8700  135.3057  155.3441 H   0  0  0  0  0  0  0  0  0  0  0  0  # atno 10763 bound_to 10752
  154.7810  135.4835  153.9847 H   0  0  0  0  0  0  0  0  0  0  0  0  # atno 10764 bound_to 10752
  153.1412  135.6824  153.9120 H   0  0  0  0  0  0  0  0  0  0  0  0  # atno 10765 bound_to 10752
  140.0666  134.9175  157.1275 H   0  0  0  0  0  0  0  0  0  0  0  0  # atno 11005 bound_to 11000
  145.6592  141.0244  143.1718 LP  0  0  0  0  0  0  0  0  0  0  0  0  # atno 17320 bound_to 7965
  144.7164  139.8181  143.7397 LP  0  0  0  0  0  0  0  0  0  0  0  0  # atno 17321 bound_to 7965
  139.4829  144.6092  151.7465 LP  0  0  0  0  0  0  0  0  0  0  0  0  # atno 17342 bound_to 10162
  140.5237  144.0839  150.6030 LP  0  0  0  0  0  0  0  0  0  0  0  0  # atno 17343 bound_to 10162
  156.5212  130.4162  149.6249 LP  0  0  0  0  0  0  0  0  0  0  0  0  # atno 17370 bound_to 10713
  156.3152  130.7251  151.2152 LP  0  0  0  0  0  0  0  0  0  0  0  0  # atno 17371 bound_to 10713
  140.3689  134.2412  155.7180 LP  0  0  0  0  0  0  0  0  0  0  0  0  # atno 17394 bound_to 11000
  141.1995  133.8009  157.0532 LP  0  0  0  0  0  0  0  0  0  0  0  0  # atno 17395 bound_to 11000

$$$$
