AV-unprocessed.smi:2786|AV-procd|sdf|10754|dock1
  -GOLD-   2272015183D 1   1.00000     0.00000
 Structure written by MMmdl.
 26 27  0  0  0  0  0  0  0  0  1 V2000
  148.1167  141.9659  157.7695 C   0  0  0  0  0  0  0  0  0  0  0  0
  148.6648  141.5182  156.5039 N   0  0  0  0  0  0  0  0  0  0  0  0
  147.9515  140.9096  155.4797 C   0  0  0  0  0  0  0  0  0  0  0  0
  148.8478  140.6605  154.4691 C   0  0  0  0  0  0  0  0  0  0  0  0
  150.1077  141.1072  154.8511 N   0  0  0  0  0  0  0  0  0  0  0  0
  149.9405  141.6011  156.0764 C   0  0  0  0  0  0  0  0  0  0  0  0
  151.0366  142.2234  156.8943 C   0  0  2  0  0  0  0  0  0  0  0  0
  151.3408  141.3763  158.1492 C   0  0  0  0  0  0  0  0  0  0  0  0
  152.4145  141.9784  158.9429 N   0  0  0  0  0  0  0  0  0  0  0  0
  152.0776  143.3506  159.3247 C   0  0  0  0  0  0  0  0  0  0  0  0
  151.7824  144.2030  158.0773 C   0  0  0  0  0  0  0  0  0  0  0  0
  150.7100  143.6019  157.2819 N   0  0  0  0  0  0  0  0  0  0  0  0
  147.0309  141.8665  157.7654 H   0  0  0  0  0  0  0  0  0  0  0  0
  148.3727  143.0129  157.9352 H   0  0  0  0  0  0  0  0  0  0  0  0
  148.5234  141.3620  158.5809 H   0  0  0  0  0  0  0  0  0  0  0  0
  146.8918  140.7120  155.5512 H   0  0  0  0  0  0  0  0  0  0  0  0
  148.6850  140.2014  153.5053 H   0  0  0  0  0  0  0  0  0  0  0  0
  151.9369  142.2513  156.2799 H   0  0  0  0  0  0  0  0  0  0  0  0
  150.4401  141.2781  158.7571 H   0  0  0  0  0  0  0  0  0  0  0  0
  151.6259  140.3666  157.8532 H   0  0  0  0  0  0  0  0  0  0  0  0
  152.5667  141.4235  159.7789 H   0  0  0  0  0  0  0  0  0  0  0  0
  151.2103  143.3512  159.9864 H   0  0  0  0  0  0  0  0  0  0  0  0
  152.8993  143.7921  159.8886 H   0  0  0  0  0  0  0  0  0  0  0  0
  151.5000  145.2120  158.3775 H   0  0  0  0  0  0  0  0  0  0  0  0
  152.6858  144.2993  157.4733 H   0  0  0  0  0  0  0  0  0  0  0  0
  150.5589  144.1574  156.4461 H   0  0  0  0  0  0  0  0  0  0  0  0
  1  2  1  0  0  0  0
  1 13  1  0  0  0  0
  1 14  1  0  0  0  0
  1 15  1  0  0  0  0
  2  6  1  0  0  0  0
  2  3  1  0  0  0  0
  3  4  2  0  0  0  0
  3 16  1  0  0  0  0
  4  5  1  0  0  0  0
  4 17  1  0  0  0  0
  5  6  2  0  0  0  0
  6  7  1  0  0  0  0
  7 12  1  0  0  0  0
  7  8  1  0  0  0  0
  7 18  1  0  0  0  0
  8  9  1  0  0  0  0
  8 19  1  0  0  0  0
  8 20  1  0  0  0  0
  9 10  1  0  0  0  0
  9 21  1  0  0  0  0
 10 11  1  0  0  0  0
 10 22  1  0  0  0  0
 10 23  1  0  0  0  0
 11 12  1  0  0  0  0
 11 24  1  0  0  0  0
 11 25  1  0  0  0  0
 12 26  1  0  0  0  0
M  END
> <s_m_source_file>
AV-unprocessed.smi

> <i_m_source_file_index>
2786

> <i_lp_mmshare_version>
43012

> <i_f3d_flags>
0

> <s_epik_input>
W0NIM11uMVtjSF1bY0hdbmMxW0NAQEhdMltDSDJdW05IXVtDSDJdW0NIMl1bTkhdMg==

> <s_epik_cmdline>
J2VwaWtfcHl0aG9uJywgJy1waCcsICc3LjAnLCAnLXRuJywgJzgnLCAnLW1hJywgJzIwMCcsICctbWV0YWxfYmluZGluZycsICctaW1hZScsICc8aW5maWxlLm1hZT4nLCAnLW9tYWUnLCAnPG91dGZpbGUubWFlPic=

> <r_lp_tautomer_probability>
1

> <r_epik_Ionization_Penalty>
3.5722

> <r_epik_Ionization_Penalty_Charging>
1.66148

> <r_epik_Ionization_Penalty_Neutral>
1.91072

> <r_epik_State_Penalty>
2.63328

> <r_epik_Charging_Adjusted_Penalty>
4.29476

> <i_epik_Tot_Q>
0

> <i_epik_Tot_abs_Q>
0

> <r_epik_Metal_State_Penalty>
0.942173

> <b_epik_Metal_Only>
0

> <s_lp_Force_Field>
OPLS_2005

> <r_lp_Energy>
22.0451

> <b_lp_Chiralities_Consistent>
1

> <s_lp_Variant>
AV-unprocessed.smi:2786-7

> <Gold.Version>
5.8.1

> <Gold.Id.Protein>
6NUR|6NUR_protein|mol2

> <Gold.PLP.Fitness>
30.1623

> <Gold.PLP.PLP>
-23.6285

> <Gold.PLP.part.hbond>
-2.0000

> <Gold.PLP.part.metal>
0.0000

> <Gold.PLP.part.buried>
-3.7890

> <Gold.PLP.part.nonpolar>
-19.1170

> <Gold.PLP.part.repulsive>
0.1195

> <Gold.PLP.ligand.clash>
0.0000

> <Gold.PLP.ligand.torsion>
0.0564

> <Gold.PLP.Chemscore.Hbond>
1.2105

> <Gold.PLP.Chemscore.CHOScore>
1.0000

> <Gold.PLP.Chemscore.Metal>
0.0000

> <Gold.Chemscore.Hbonds>
donor molecule, donor type, donor heavy atom, donor atom, acceptor molecule, acceptor atom, score
      L1  H    12    26       P1  8028  0.59
      P1  H  7989  7998       L1     5  0.62
      L1  C     4    17       P1  7957  1.00

> <Gold.PLP.Chemscore.Internal.Correction>
0.0150

> <Gold.Rescore>
     Score         DG    S(hbond)    S(metal)    S(lipo)     H(rot)  DE(clash)    DE(int)     intcor
     14.68     -14.73       1.80        0.00      49.51       1.00       0.03       0.02       ----

> <Gold.Chemscore.Fitness>
14.6807

> <Gold.Chemscore.DG>
-14.7278

> <Gold.Chemscore.ZeroCoef>
-5.4800

> <Gold.Chemscore.Hbond>
1.8011

> <Gold.Chemscore.Metal>
0.0000

> <Gold.Chemscore.Lipo>
49.5058

> <Gold.Chemscore.Internal_Hbond>
0.0000

> <Gold.Chemscore.DEClash>
0.0282

> <Gold.Chemscore.DEInternal>
0.0189

> <Gold.Chemscore.Rot>
1.0000

> <Gold.Chemscore.Internal.Correction>
   9.000000E+99

> <Gold.Chemscore.Hbonds>
donor molecule, donor type, donor heavy atom, donor atom, acceptor molecule, acceptor atom, score
      L1  H    12    26       P1  8028  0.58
      P1  H  7989  7998       L1     5  0.54

> <Gold.Chemscore.Hbond.Weighted>
-6.0157

> <Gold.Chemscore.Metal.Weighted>
-0.0000

> <Gold.Chemscore.Lipo.Weighted>
-5.7922

> <Gold.Chemscore.Internal_Hbond.Weighted>
0.0000

> <Gold.Chemscore.DEClash.Weighted>
0.0282

> <Gold.Chemscore.DEInternal.Weighted>
0.0189

> <Gold.Chemscore.Rot.Weighted>
2.5600

> <Gold.Chemscore.Internal.Correction.Weighted>
   9.000000E+99

> <Gold.Protein.RotatedTorsions>
[ 6907 6896 6895 6894 ] final  -13.71 input  -60.11 | X-H torsion
[ 7974 7965 7964 7962 ] final  -63.54 input  175.53 | X-H torsion
[ 8008 7997 7996 7995 ] final  113.30 input   59.86 | X-H torsion
[ 10167 10162 10161 10158 ] final -163.73 input  -65.29 | X-H torsion
[ 10718 10713 10712 10709 ] final   97.23 input   66.30 | X-H torsion
[ 10763 10752 10751 10750 ] final  129.29 input  -60.55 | X-H torsion
[ 11005 11000 10999 10996 ] final  -48.67 input  -57.11 | X-H torsion

> <Gold.Protein.ActiveResidues>
 VAL166  LYS551  ARG553  GLY616  TRP617  ASP618  TYR619  PRO620  LYS621  CYS622 
 ASP623  PHE694  ASN695  SER759  ASP760  ASP761  ALA762  ILE779  LEU786  VAL792 
 PHE793  MET794  SER795  GLU796  ALA797  LYS798  CYS799  TRP800  GLU811  SER814 

> <Gold.Protein.RotatedAtoms>
  151.3507  135.0884  159.9401 H   0  0  0  0  0  0  0  0  0  0  0  0  # atno 6907 bound_to 6896
  152.5188  133.9355  159.7611 H   0  0  0  0  0  0  0  0  0  0  0  0  # atno 6908 bound_to 6896
  150.9730  133.6270  159.2764 H   0  0  0  0  0  0  0  0  0  0  0  0  # atno 6909 bound_to 6896
  145.7778  140.8778  143.0346 H   0  0  0  0  0  0  0  0  0  0  0  0  # atno 7974 bound_to 7965
  156.2249  140.2982  156.0042 H   0  0  0  0  0  0  0  0  0  0  0  0  # atno 8008 bound_to 7997
  155.2384  140.0421  157.2989 H   0  0  0  0  0  0  0  0  0  0  0  0  # atno 8009 bound_to 7997
  154.5899  140.2398  155.7943 H   0  0  0  0  0  0  0  0  0  0  0  0  # atno 8010 bound_to 7997
  139.6300  144.0458  152.2008 H   0  0  0  0  0  0  0  0  0  0  0  0  # atno 10167 bound_to 10162
  157.6915  131.0603  150.4613 H   0  0  0  0  0  0  0  0  0  0  0  0  # atno 10718 bound_to 10713
  153.7394  135.3226  155.3301 H   0  0  0  0  0  0  0  0  0  0  0  0  # atno 10763 bound_to 10752
  154.8300  135.4541  154.1042 H   0  0  0  0  0  0  0  0  0  0  0  0  # atno 10764 bound_to 10752
  153.2212  135.6948  153.8079 H   0  0  0  0  0  0  0  0  0  0  0  0  # atno 10765 bound_to 10752
  141.0714  133.6678  156.3475 H   0  0  0  0  0  0  0  0  0  0  0  0  # atno 11005 bound_to 11000
  144.6801  139.9946  143.7484 LP  0  0  0  0  0  0  0  0  0  0  0  0  # atno 17320 bound_to 7965
  146.0104  139.3165  143.0873 LP  0  0  0  0  0  0  0  0  0  0  0  0  # atno 17321 bound_to 7965
  140.0121  144.6216  150.7638 LP  0  0  0  0  0  0  0  0  0  0  0  0  # atno 17342 bound_to 10162
  140.7433  143.2845  151.3503 LP  0  0  0  0  0  0  0  0  0  0  0  0  # atno 17343 bound_to 10162
  156.4957  130.4105  149.6381 LP  0  0  0  0  0  0  0  0  0  0  0  0  # atno 17370 bound_to 10713
  156.3375  130.7364  151.2304 LP  0  0  0  0  0  0  0  0  0  0  0  0  # atno 17371 bound_to 10713
  140.5665  134.5883  157.5447 LP  0  0  0  0  0  0  0  0  0  0  0  0  # atno 17394 bound_to 11000
  139.9528  134.7588  156.0410 LP  0  0  0  0  0  0  0  0  0  0  0  0  # atno 17395 bound_to 11000

$$$$
