AV-unprocessed.smi:3032|AV-procd|sdf|11568|dock1
  -GOLD-   2272016533D 1   1.00000     0.00000
 Structure written by MMmdl.
 37 38  0  0  0  0  0  0  0  0  1 V2000
  153.3250  142.1967  161.7407 C   0  0  0  0  0  0  0  0  0  0  0  0
  152.3811  142.9236  160.7722 C   0  0  1  0  0  0  0  0  0  0  0  0
  152.2566  144.4171  161.1257 C   0  0  0  0  0  0  0  0  0  0  0  0
  151.3101  145.1488  160.1622 C   0  0  0  0  0  0  0  0  0  0  0  0
  151.7577  144.9792  158.6989 C   0  0  0  0  0  0  0  0  0  0  0  0
  151.9604  143.5041  158.2805 C   0  0  2  0  0  0  0  0  0  0  0  0
  150.6341  142.7741  157.9952 C   0  0  0  0  0  0  0  0  0  0  0  0
  149.8151  142.5730  158.8917 O   0  0  0  0  0  0  0  0  0  0  0  0
  150.4360  142.3752  156.7287 N   0  0  0  0  0  0  0  0  0  0  0  0
  149.2637  141.6509  156.2514 C   0  0  0  0  0  0  0  0  0  0  0  0
  149.4557  141.1550  154.8089 C   0  0  0  0  0  0  0  0  0  0  0  0
  148.4471  140.1250  154.4189 C   0  0  0  0  0  0  0  0  0  0  0  0
  147.3991  139.7602  155.1677 N   0  0  0  0  0  0  0  0  0  0  0  0
  146.7262  138.8024  154.4251 N   0  0  0  0  0  0  0  0  0  0  0  0
  147.4313  138.6862  153.2987 C   0  0  0  0  0  0  0  0  0  0  0  0
  148.5044  139.4835  153.2418 N   0  0  0  0  0  0  0  0  0  0  0  0
  152.8416  142.7538  159.3077 C   0  0  0  0  0  0  0  0  0  0  0  0
  149.1840  139.5770  152.5012 H   0  0  0  0  0  0  0  0  0  0  0  0
  154.3354  142.6037  161.6916 H   0  0  0  0  0  0  0  0  0  0  0  0
  153.3824  141.1330  161.5080 H   0  0  0  0  0  0  0  0  0  0  0  0
  152.9783  142.2893  162.7702 H   0  0  0  0  0  0  0  0  0  0  0  0
  151.3981  142.4667  160.8853 H   0  0  0  0  0  0  0  0  0  0  0  0
  151.8937  144.5302  162.1478 H   0  0  0  0  0  0  0  0  0  0  0  0
  153.2406  144.8869  161.0940 H   0  0  0  0  0  0  0  0  0  0  0  0
  150.2934  144.7792  160.2936 H   0  0  0  0  0  0  0  0  0  0  0  0
  151.2783  146.2091  160.4139 H   0  0  0  0  0  0  0  0  0  0  0  0
  151.0386  145.4644  158.0375 H   0  0  0  0  0  0  0  0  0  0  0  0
  152.6975  145.5144  158.5568 H   0  0  0  0  0  0  0  0  0  0  0  0
  152.5134  143.5182  157.3396 H   0  0  0  0  0  0  0  0  0  0  0  0
  151.1538  142.5816  156.0492 H   0  0  0  0  0  0  0  0  0  0  0  0
  149.0402  140.8161  156.9180 H   0  0  0  0  0  0  0  0  0  0  0  0
  148.4080  142.3245  156.3005 H   0  0  0  0  0  0  0  0  0  0  0  0
  149.3925  141.9928  154.1131 H   0  0  0  0  0  0  0  0  0  0  0  0
  150.4504  140.7248  154.6859 H   0  0  0  0  0  0  0  0  0  0  0  0
  147.1586  138.0091  152.5025 H   0  0  0  0  0  0  0  0  0  0  0  0
  153.8663  143.1159  159.2146 H   0  0  0  0  0  0  0  0  0  0  0  0
  152.8812  141.6928  159.0561 H   0  0  0  0  0  0  0  0  0  0  0  0
  1  2  1  0  0  0  0
  1 19  1  0  0  0  0
  1 20  1  0  0  0  0
  1 21  1  0  0  0  0
  2 17  1  0  0  0  0
  2  3  1  0  0  0  0
  2 22  1  0  0  0  0
  3  4  1  0  0  0  0
  3 23  1  0  0  0  0
  3 24  1  0  0  0  0
  4  5  1  0  0  0  0
  4 25  1  0  0  0  0
  4 26  1  0  0  0  0
  5  6  1  0  0  0  0
  5 27  1  0  0  0  0
  5 28  1  0  0  0  0
  6  7  1  0  0  0  0
  6 17  1  0  0  0  0
  6 29  1  0  0  0  0
  7  8  2  0  0  0  0
  7  9  1  0  0  0  0
  9 10  1  0  0  0  0
  9 30  1  0  0  0  0
 10 11  1  0  0  0  0
 10 31  1  0  0  0  0
 10 32  1  0  0  0  0
 11 12  1  0  0  0  0
 11 33  1  0  0  0  0
 11 34  1  0  0  0  0
 12 16  1  0  0  0  0
 12 13  2  0  0  0  0
 13 14  1  0  0  0  0
 14 15  2  0  0  0  0
 15 16  1  0  0  0  0
 15 35  1  0  0  0  0
 16 18  1  0  0  0  0
 17 36  1  0  0  0  0
 17 37  1  0  0  0  0
M  END
> <s_m_source_file>
AV-unprocessed.smi

> <i_m_source_file_index>
3032

> <i_lp_mmshare_version>
43012

> <i_f3d_flags>
0

> <s_epik_input>
W0NIM11bQ0BASF0xW0NIMl1bQ0gyXVtDSDJdW0NASF0oW0NIMl0xKUMoPU8pW05IXVtDSDJdW0NIMl1jMm5uW2NIXVtuSF0y

> <s_epik_cmdline>
J2VwaWtfcHl0aG9uJywgJy1waCcsICc3LjAnLCAnLXRuJywgJzgnLCAnLW1hJywgJzIwMCcsICctbWV0YWxfYmluZGluZycsICctaW1hZScsICc8aW5maWxlLm1hZT4nLCAnLW9tYWUnLCAnPG91dGZpbGUubWFlPic=

> <r_lp_tautomer_probability>
0.0517155

> <r_epik_Ionization_Penalty>
0.00149837

> <r_epik_Ionization_Penalty_Charging>
0

> <r_epik_Ionization_Penalty_Neutral>
0.00149837

> <r_epik_State_Penalty>
2.1109

> <r_epik_Charging_Adjusted_Penalty>
2.1109

> <i_epik_Tot_Q>
0

> <i_epik_Tot_abs_Q>
0

> <r_epik_Metal_State_Penalty>
2.23635

> <b_epik_Metal_Only>
0

> <s_lp_Force_Field>
OPLS_2005

> <r_lp_Energy>
9.23597

> <b_lp_Chiralities_Consistent>
1

> <s_lp_Variant>
AV-unprocessed.smi:3032-12

> <Gold.Version>
5.8.1

> <Gold.Id.Protein>
6NUR|6NUR_protein|mol2

> <Gold.PLP.Fitness>
44.3625

> <Gold.PLP.PLP>
-39.5828

> <Gold.PLP.part.hbond>
-2.3166

> <Gold.PLP.part.metal>
0.0000

> <Gold.PLP.part.buried>
-4.2086

> <Gold.PLP.part.nonpolar>
-33.4678

> <Gold.PLP.part.repulsive>
0.4084

> <Gold.PLP.ligand.clash>
0.0000

> <Gold.PLP.ligand.torsion>
0.1597

> <Gold.PLP.Chemscore.Hbond>
0.9357

> <Gold.PLP.Chemscore.CHOScore>
0.7426

> <Gold.PLP.Chemscore.Metal>
0.0000

> <Gold.Chemscore.Hbonds>
donor molecule, donor type, donor heavy atom, donor atom, acceptor molecule, acceptor atom, score
      L1  H    16    18       P1  7957  0.86
      L1  C    15    35       P1  7948  0.62

> <Gold.PLP.Chemscore.Internal.Correction>
0.0640

> <Gold.Rescore>
     Score         DG    S(hbond)    S(metal)    S(lipo)     H(rot)  DE(clash)    DE(int)     intcor
     14.31     -14.40       0.99        0.00      97.22       2.25       0.00       0.10       ----

> <Gold.Chemscore.Fitness>
14.3058

> <Gold.Chemscore.DG>
-14.4042

> <Gold.Chemscore.ZeroCoef>
-5.4800

> <Gold.Chemscore.Hbond>
0.9908

> <Gold.Chemscore.Metal>
0.0000

> <Gold.Chemscore.Lipo>
97.2237

> <Gold.Chemscore.Internal_Hbond>
0.0000

> <Gold.Chemscore.DEClash>
0.0009

> <Gold.Chemscore.DEInternal>
0.0975

> <Gold.Chemscore.Rot>
2.2501

> <Gold.Chemscore.Internal.Correction>
   9.000000E+99

> <Gold.Chemscore.Hbonds>
donor molecule, donor type, donor heavy atom, donor atom, acceptor molecule, acceptor atom, score
      L1  H    16    18       P1  7957  0.81

> <Gold.Chemscore.Hbond.Weighted>
-3.3094

> <Gold.Chemscore.Metal.Weighted>
-0.0000

> <Gold.Chemscore.Lipo.Weighted>
-11.3752

> <Gold.Chemscore.Internal_Hbond.Weighted>
0.0000

> <Gold.Chemscore.DEClash.Weighted>
0.0009

> <Gold.Chemscore.DEInternal.Weighted>
0.0975

> <Gold.Chemscore.Rot.Weighted>
5.7603

> <Gold.Chemscore.Internal.Correction.Weighted>
   9.000000E+99

> <Gold.Protein.RotatedTorsions>
[ 6907 6896 6895 6894 ] final   54.31 input  -60.11 | X-H torsion
[ 7974 7965 7964 7962 ] final   -7.47 input  175.53 | X-H torsion
[ 8008 7997 7996 7995 ] final -122.68 input   59.86 | X-H torsion
[ 10167 10162 10161 10158 ] final  -99.13 input  -65.29 | X-H torsion
[ 10718 10713 10712 10709 ] final  -34.66 input   66.30 | X-H torsion
[ 10763 10752 10751 10750 ] final   63.18 input  -60.55 | X-H torsion
[ 11005 11000 10999 10996 ] final   11.41 input  -57.11 | X-H torsion

> <Gold.Protein.ActiveResidues>
 VAL166  LYS551  ARG553  GLY616  TRP617  ASP618  TYR619  PRO620  LYS621  CYS622 
 ASP623  PHE694  ASN695  SER759  ASP760  ASP761  ALA762  ILE779  LEU786  VAL792 
 PHE793  MET794  SER795  GLU796  ALA797  LYS798  CYS799  TRP800  GLU811  SER814 

> <Gold.Protein.RotatedAtoms>
  152.3426  134.7114  160.0259 H   0  0  0  0  0  0  0  0  0  0  0  0  # atno 6907 bound_to 6896
  151.7494  133.3321  159.3395 H   0  0  0  0  0  0  0  0  0  0  0  0  # atno 6908 bound_to 6896
  150.7489  134.6138  159.6145 H   0  0  0  0  0  0  0  0  0  0  0  0  # atno 6909 bound_to 6896
  146.2306  140.2324  142.8340 H   0  0  0  0  0  0  0  0  0  0  0  0  # atno 7974 bound_to 7965
  155.1682  140.0407  157.2857 H   0  0  0  0  0  0  0  0  0  0  0  0  # atno 8008 bound_to 7997
  154.6288  140.2519  155.7431 H   0  0  0  0  0  0  0  0  0  0  0  0  # atno 8009 bound_to 7997
  156.2474  140.2879  156.0631 H   0  0  0  0  0  0  0  0  0  0  0  0  # atno 8010 bound_to 7997
  140.2657  143.3377  152.0583 H   0  0  0  0  0  0  0  0  0  0  0  0  # atno 10167 bound_to 10162
  156.3479  130.4304  149.7730 H   0  0  0  0  0  0  0  0  0  0  0  0  # atno 10718 bound_to 10713
  153.0009  135.5438  154.6311 H   0  0  0  0  0  0  0  0  0  0  0  0  # atno 10763 bound_to 10752
  154.5588  135.2832  155.0941 H   0  0  0  0  0  0  0  0  0  0  0  0  # atno 10764 bound_to 10752
  154.2151  135.6460  153.5180 H   0  0  0  0  0  0  0  0  0  0  0  0  # atno 10765 bound_to 10752
  140.5036  134.0722  155.7800 H   0  0  0  0  0  0  0  0  0  0  0  0  # atno 11005 bound_to 11000
  144.9548  140.8215  143.5550 LP  0  0  0  0  0  0  0  0  0  0  0  0  # atno 17320 bound_to 7965
  145.2288  139.2124  143.5054 LP  0  0  0  0  0  0  0  0  0  0  0  0  # atno 17321 bound_to 7965
  139.5003  144.6689  151.6289 LP  0  0  0  0  0  0  0  0  0  0  0  0  # atno 17342 bound_to 10162
  140.5930  143.9746  150.6336 LP  0  0  0  0  0  0  0  0  0  0  0  0  # atno 17343 bound_to 10162
  156.4941  130.8099  151.3107 LP  0  0  0  0  0  0  0  0  0  0  0  0  # atno 17370 bound_to 10713
  157.7457  130.9966  150.2784 LP  0  0  0  0  0  0  0  0  0  0  0  0  # atno 17371 bound_to 10713
  141.1423  133.9117  157.2298 LP  0  0  0  0  0  0  0  0  0  0  0  0  # atno 17394 bound_to 11000
  139.9699  135.0131  156.9485 LP  0  0  0  0  0  0  0  0  0  0  0  0  # atno 17395 bound_to 11000

$$$$
