AV-unprocessed.smi:101|AV-procd|sdf|913|dock1
  -GOLD-   2262017413D 1   1.00000     0.00000
 Structure written by MMmdl.
 44 46  0  0  0  0  0  0  0  0  1 V2000
  147.5077  136.0975  157.9592 C   0  0  0  0  0  0  0  0  0  0  0  0
  148.7142  136.3051  157.0578 C   0  0  0  0  0  0  0  0  0  0  0  0
  148.7836  137.3184  156.1569 C   0  0  0  0  0  0  0  0  0  0  0  0
  149.8711  137.5344  155.3149 N   0  0  0  0  0  0  0  0  0  0  0  0
  149.9368  138.6986  154.3373 C   0  0  2  0  0  0  0  0  0  0  0  0
  150.8134  139.6650  154.8327 O   0  0  0  0  0  0  0  0  0  0  0  0
  150.0709  140.6342  155.5618 C   0  0  1  0  0  0  0  0  0  0  0  0
  150.9272  141.8687  155.8685 C   0  0  0  0  0  0  0  0  0  0  0  0
  151.0563  141.9534  157.2774 O   0  0  0  0  0  0  0  0  0  0  0  0
  151.9798  141.2239  157.9263 C   0  0  0  0  0  0  0  0  0  0  0  0
  152.4867  140.1983  157.4679 O   0  0  0  0  0  0  0  0  0  0  0  0
  152.3225  141.7917  159.2624 C   0  0  0  0  0  0  0  0  0  0  0  0
  153.1984  141.0811  160.1154 C   0  0  0  0  0  0  0  0  0  0  0  0
  153.5373  141.5934  161.3830 C   0  0  0  0  0  0  0  0  0  0  0  0
  153.0038  142.8226  161.8130 C   0  0  0  0  0  0  0  0  0  0  0  0
  152.1309  143.5392  160.9740 C   0  0  0  0  0  0  0  0  0  0  0  0
  151.7914  143.0288  159.7061 C   0  0  0  0  0  0  0  0  0  0  0  0
  148.8569  140.8387  154.6562 C   0  0  1  0  0  0  0  0  0  0  0  0
  149.1834  141.7103  153.5852 O   0  0  0  0  0  0  0  0  0  0  0  0
  148.5644  139.4056  154.2021 C   0  0  1  0  0  0  0  0  0  0  0  0
  148.0236  139.3420  152.8956 O   0  0  0  0  0  0  0  0  0  0  0  0
  151.0015  136.6983  155.4339 C   0  0  0  0  0  0  0  0  0  0  0  0
  152.0236  136.8623  154.7688 O   0  0  0  0  0  0  0  0  0  0  0  0
  150.9273  135.6529  156.3519 N   0  0  0  0  0  0  0  0  0  0  0  0
  149.8409  135.3778  157.1849 C   0  0  0  0  0  0  0  0  0  0  0  0
  149.8907  134.4173  157.9515 O   0  0  0  0  0  0  0  0  0  0  0  0
  151.7304  135.0457  156.4265 H   0  0  0  0  0  0  0  0  0  0  0  0
  146.7372  136.8498  157.7881 H   0  0  0  0  0  0  0  0  0  0  0  0
  147.8015  136.1544  159.0078 H   0  0  0  0  0  0  0  0  0  0  0  0
  147.0626  135.1180  157.7808 H   0  0  0  0  0  0  0  0  0  0  0  0
  147.9350  137.9842  156.1139 H   0  0  0  0  0  0  0  0  0  0  0  0
  150.3299  138.2744  153.4114 H   0  0  0  0  0  0  0  0  0  0  0  0
  149.7257  140.1960  156.5006 H   0  0  0  0  0  0  0  0  0  0  0  0
  151.9047  141.7949  155.3899 H   0  0  0  0  0  0  0  0  0  0  0  0
  150.4374  142.7705  155.4990 H   0  0  0  0  0  0  0  0  0  0  0  0
  153.6199  140.1349  159.8071 H   0  0  0  0  0  0  0  0  0  0  0  0
  154.2071  141.0420  162.0261 H   0  0  0  0  0  0  0  0  0  0  0  0
  153.2639  143.2148  162.7851 H   0  0  0  0  0  0  0  0  0  0  0  0
  151.7202  144.4826  161.3026 H   0  0  0  0  0  0  0  0  0  0  0  0
  151.1183  143.6049  159.0880 H   0  0  0  0  0  0  0  0  0  0  0  0
  148.0144  141.2678  155.1996 H   0  0  0  0  0  0  0  0  0  0  0  0
  149.1611  141.2196  152.7781 H   0  0  0  0  0  0  0  0  0  0  0  0
  147.8540  138.9569  154.8981 H   0  0  0  0  0  0  0  0  0  0  0  0
  148.7162  139.5207  152.2776 H   0  0  0  0  0  0  0  0  0  0  0  0
  1  2  1  0  0  0  0
  1 28  1  0  0  0  0
  1 29  1  0  0  0  0
  1 30  1  0  0  0  0
  2 25  1  0  0  0  0
  2  3  2  0  0  0  0
  3  4  1  0  0  0  0
  3 31  1  0  0  0  0
  4  5  1  0  0  0  0
  4 22  1  0  0  0  0
  5 20  1  0  0  0  0
  5  6  1  0  0  0  0
  5 32  1  0  0  0  0
  6  7  1  0  0  0  0
  7  8  1  0  0  0  0
  7 18  1  0  0  0  0
  7 33  1  0  0  0  0
  8  9  1  0  0  0  0
  8 34  1  0  0  0  0
  8 35  1  0  0  0  0
  9 10  1  0  0  0  0
 10 11  2  0  0  0  0
 10 12  1  0  0  0  0
 12 17  1  0  0  0  0
 12 13  2  0  0  0  0
 13 14  1  0  0  0  0
 13 36  1  0  0  0  0
 14 15  2  0  0  0  0
 14 37  1  0  0  0  0
 15 16  1  0  0  0  0
 15 38  1  0  0  0  0
 16 17  2  0  0  0  0
 16 39  1  0  0  0  0
 17 40  1  0  0  0  0
 18 19  1  0  0  0  0
 18 20  1  0  0  0  0
 18 41  1  0  0  0  0
 19 42  1  0  0  0  0
 20 21  1  0  0  0  0
 20 43  1  0  0  0  0
 21 44  1  0  0  0  0
 22 23  2  0  0  0  0
 22 24  1  0  0  0  0
 24 27  1  0  0  0  0
 24 25  1  0  0  0  0
 25 26  2  0  0  0  0
M  END
> <s_m_source_file>
AV-unprocessed.smi

> <i_m_source_file_index>
101

> <i_lp_mmshare_version>
43012

> <i_f3d_flags>
0

> <s_epik_input>
Tz1jMVtuSF1jKD1PKW4oW2NIXWMxW0NIM10pW0NAQEhdMk9bQ0BIXShbQ0BASF0oW09IXSlbQ0BIXTJbT0hdKVtDSDJdT0MoPU8pYzNbY0hdW2NIXVtjSF1bY0hdW2NIXTM=

> <s_epik_cmdline>
J2VwaWtfcHl0aG9uJywgJy1waCcsICc3LjAnLCAnLXRuJywgJzgnLCAnLW1hJywgJzIwMCcsICctbWV0YWxfYmluZGluZycsICctaW1hZScsICc8aW5maWxlLm1hZT4nLCAnLW9tYWUnLCAnPG91dGZpbGUubWFlPic=

> <r_lp_tautomer_probability>
0.999537

> <r_epik_Ionization_Penalty>
0.00263537

> <r_epik_Ionization_Penalty_Charging>
0.00263428

> <r_epik_Ionization_Penalty_Neutral>
1.09111e-06

> <r_epik_State_Penalty>
0.00183335

> <r_epik_Charging_Adjusted_Penalty>
0.00446763

> <i_epik_Tot_Q>
0

> <i_epik_Tot_abs_Q>
0

> <r_epik_Metal_State_Penalty>
1.00528

> <b_epik_Metal_Only>
0

> <s_epik_Chemistry_Notes>
This compound has an ester and may undergo hydrolysis at high or low pH. This compound contains an acetal/aminal-like group ( X-CH(R)-Y where X, Y are N, S, or O) that may be acid/base labile, releasing an aldehyde.

> <s_lp_Force_Field>
OPLS_2005

> <r_lp_Energy>
35.8118

> <b_lp_Chiralities_Consistent>
1

> <s_lp_Variant>
AV-unprocessed.smi:101-1

> <Gold.Version>
5.8.1

> <Gold.Id.Protein>
6NUR|6NUR_protein|mol2

> <Gold.PLP.Fitness>
58.9569

> <Gold.PLP.PLP>
-43.9381

> <Gold.PLP.part.hbond>
-7.1363

> <Gold.PLP.part.metal>
0.0000

> <Gold.PLP.part.buried>
-5.2050

> <Gold.PLP.part.nonpolar>
-29.4006

> <Gold.PLP.part.repulsive>
0.3728

> <Gold.PLP.ligand.clash>
0.0000

> <Gold.PLP.ligand.torsion>
1.3935

> <Gold.PLP.Chemscore.Hbond>
5.8913

> <Gold.PLP.Chemscore.CHOScore>
0.0000

> <Gold.PLP.Chemscore.Metal>
0.0000

> <Gold.Chemscore.Hbonds>
donor molecule, donor type, donor heavy atom, donor atom, acceptor molecule, acceptor atom, score
      L1  H    19    42       P1  7957  0.98
      L1  H    21    44       P1  7957  0.96
      P1  H  6896  6909       L1    26  0.98
      P1  H  7989  7998       L1     6  0.95
      P1  H  7997  8008       L1    11  0.93
      P1  H 10752 10765       L1    23  0.99

> <Gold.PLP.Chemscore.Internal.Correction>
0.1321

> <Gold.Rescore>
     Score         DG    S(hbond)    S(metal)    S(lipo)     H(rot)  DE(clash)    DE(int)     intcor
     22.39     -24.49       4.96        0.00      93.49       3.32       0.61       1.49       ----

> <Gold.Chemscore.Fitness>
22.3949

> <Gold.Chemscore.DG>
-24.4911

> <Gold.Chemscore.ZeroCoef>
-5.4800

> <Gold.Chemscore.Hbond>
4.9595

> <Gold.Chemscore.Metal>
0.0000

> <Gold.Chemscore.Lipo>
93.4901

> <Gold.Chemscore.Internal_Hbond>
0.0000

> <Gold.Chemscore.DEClash>
0.6104

> <Gold.Chemscore.DEInternal>
1.4858

> <Gold.Chemscore.Rot>
3.3172

> <Gold.Chemscore.Internal.Correction>
   9.000000E+99

> <Gold.Chemscore.Hbonds>
donor molecule, donor type, donor heavy atom, donor atom, acceptor molecule, acceptor atom, score
      L1  H    19    42       P1  7957  0.92
      L1  H    21    44       P1  7957  0.90
      P1  H  6896  6909       L1    26  0.93
      P1  H  7989  7998       L1     6  0.20
      P1  H  7997  8008       L1    11  0.84
      P1  H 10752 10765       L1    23  0.85

> <Gold.Chemscore.Hbond.Weighted>
-16.5648

> <Gold.Chemscore.Metal.Weighted>
-0.0000

> <Gold.Chemscore.Lipo.Weighted>
-10.9383

> <Gold.Chemscore.Internal_Hbond.Weighted>
0.0000

> <Gold.Chemscore.DEClash.Weighted>
0.6104

> <Gold.Chemscore.DEInternal.Weighted>
1.4858

> <Gold.Chemscore.Rot.Weighted>
8.4920

> <Gold.Chemscore.Internal.Correction.Weighted>
   9.000000E+99

> <Gold.Protein.RotatedTorsions>
[ 6907 6896 6895 6894 ] final   30.31 input  -60.11 | X-H torsion
[ 7974 7965 7964 7962 ] final   28.73 input  175.53 | X-H torsion
[ 8008 7997 7996 7995 ] final  -60.50 input   59.86 | X-H torsion
[ 10167 10162 10161 10158 ] final   65.27 input  -65.29 | X-H torsion
[ 10718 10713 10712 10709 ] final -131.94 input   66.30 | X-H torsion
[ 10763 10752 10751 10750 ] final -178.04 input  -60.55 | X-H torsion
[ 11005 11000 10999 10996 ] final -131.76 input  -57.11 | X-H torsion

> <Gold.Protein.ActiveResidues>
 VAL166  LYS551  ARG553  GLY616  TRP617  ASP618  TYR619  PRO620  LYS621  CYS622 
 ASP623  PHE694  ASN695  SER759  ASP760  ASP761  ALA762  ILE779  LEU786  VAL792 
 PHE793  MET794  SER795  GLU796  ALA797  LYS798  CYS799  TRP800  GLU811  SER814 

> <Gold.Protein.RotatedAtoms>
  152.0441  134.9693  160.0573 H   0  0  0  0  0  0  0  0  0  0  0  0  # atno 6907 bound_to 6896
  152.1120  133.4301  159.4644 H   0  0  0  0  0  0  0  0  0  0  0  0  # atno 6908 bound_to 6896
  150.6844  134.2555  159.4571 H   0  0  0  0  0  0  0  0  0  0  0  0  # atno 6909 bound_to 6896
  146.1712  139.7017  142.8966 H   0  0  0  0  0  0  0  0  0  0  0  0  # atno 7974 bound_to 7965
  154.4402  140.1038  156.6283 H   0  0  0  0  0  0  0  0  0  0  0  0  # atno 8008 bound_to 7997
  155.5632  140.3488  155.4478 H   0  0  0  0  0  0  0  0  0  0  0  0  # atno 8009 bound_to 7997
  156.0444  140.1289  157.0109 H   0  0  0  0  0  0  0  0  0  0  0  0  # atno 8010 bound_to 7997
  140.1131  144.4800  150.6965 H   0  0  0  0  0  0  0  0  0  0  0  0  # atno 10167 bound_to 10162
  156.2295  130.7029  151.0843 H   0  0  0  0  0  0  0  0  0  0  0  0  # atno 10718 bound_to 10713
  154.5527  135.2814  155.0993 H   0  0  0  0  0  0  0  0  0  0  0  0  # atno 10763 bound_to 10752
  154.2433  135.6353  153.5218 H   0  0  0  0  0  0  0  0  0  0  0  0  # atno 10764 bound_to 10752
  153.0007  135.5565  154.6098 H   0  0  0  0  0  0  0  0  0  0  0  0  # atno 10765 bound_to 10752
  140.9230  134.1420  157.4299 H   0  0  0  0  0  0  0  0  0  0  0  0  # atno 11005 bound_to 11000
  145.4334  141.0417  143.2898 LP  0  0  0  0  0  0  0  0  0  0  0  0  # atno 17320 bound_to 7965
  144.8166  139.5865  143.7005 LP  0  0  0  0  0  0  0  0  0  0  0  0  # atno 17321 bound_to 7965
  140.6914  143.2378  151.5120 LP  0  0  0  0  0  0  0  0  0  0  0  0  # atno 17342 bound_to 10162
  139.5608  144.2161  152.1688 LP  0  0  0  0  0  0  0  0  0  0  0  0  # atno 17343 bound_to 10162
  157.7126  131.0726  150.6444 LP  0  0  0  0  0  0  0  0  0  0  0  0  # atno 17370 bound_to 10713
  156.6511  130.4485  149.5719 LP  0  0  0  0  0  0  0  0  0  0  0  0  # atno 17371 bound_to 10713
  139.8779  134.9978  156.5866 LP  0  0  0  0  0  0  0  0  0  0  0  0  # atno 17394 bound_to 11000
  140.7963  133.8541  155.8688 LP  0  0  0  0  0  0  0  0  0  0  0  0  # atno 17395 bound_to 11000

$$$$
