AV-unprocessed.smi:3351|AV-procd|sdf|12949|dock8
  -GOLD-   2272019383D 1   1.00000     0.00000
 Structure written by MMmdl.
 34 35  0  0  0  0  0  0  0  0  1 V2000
  144.7643  134.5982  154.2190 C   0  0  0  0  0  0  0  0  0  0  0  0
  145.4997  135.7561  153.5308 C   0  0  2  0  0  0  0  0  0  0  0  0
  145.1557  135.8247  152.0260 C   0  0  0  0  0  0  0  0  0  0  0  0
  145.2191  134.5299  151.3698 N   0  0  0  0  0  0  0  0  0  0  0  0
  146.3341  133.7125  151.2376 C   0  0  0  0  0  0  0  0  0  0  0  0
  145.9292  132.6048  150.5285 C   0  0  0  0  0  0  0  0  0  0  0  0
  144.5729  132.7101  150.2297 N   0  0  0  0  0  0  0  0  0  0  0  0
  144.2201  133.8718  150.7653 C   0  0  0  0  0  0  0  0  0  0  0  0
  146.9395  135.5913  153.7285 N   0  0  0  0  0  0  0  0  0  0  0  0
  147.5743  135.6500  154.9100 C   0  0  0  0  0  0  0  0  0  0  0  0
  146.9939  135.7803  155.9879 O   0  0  0  0  0  0  0  0  0  0  0  0
  149.1004  135.5523  154.8739 C   0  0  0  0  0  0  0  0  0  0  0  0
  149.5230  134.1535  154.8367 N   0  0  0  0  0  0  0  0  0  0  0  0
  149.2378  133.3458  153.6578 C   0  0  0  0  0  0  0  0  0  0  0  0
  149.3236  131.8769  154.0755 C   0  0  0  0  0  0  0  0  0  0  0  0
  150.4186  131.7850  155.5058 S   0  0  0  0  0  0  0  0  0  0  0  0
  150.1974  133.5278  155.8765 C   0  0  0  0  0  0  0  0  0  0  0  0
  150.5950  134.0330  156.9248 O   0  0  0  0  0  0  0  0  0  0  0  0
  143.6841  134.7040  154.1157 H   0  0  0  0  0  0  0  0  0  0  0  0
  144.9904  134.5671  155.2854 H   0  0  0  0  0  0  0  0  0  0  0  0
  145.0462  133.6361  153.7897 H   0  0  0  0  0  0  0  0  0  0  0  0
  145.1641  136.6781  154.0091 H   0  0  0  0  0  0  0  0  0  0  0  0
  144.1575  136.2410  151.8819 H   0  0  0  0  0  0  0  0  0  0  0  0
  145.8492  136.4924  151.5134 H   0  0  0  0  0  0  0  0  0  0  0  0
  147.3005  133.9845  151.6359 H   0  0  0  0  0  0  0  0  0  0  0  0
  146.5052  131.7474  150.2133 H   0  0  0  0  0  0  0  0  0  0  0  0
  143.2142  134.2602  150.7044 H   0  0  0  0  0  0  0  0  0  0  0  0
  147.5013  135.4774  152.8971 H   0  0  0  0  0  0  0  0  0  0  0  0
  149.4670  136.0730  153.9884 H   0  0  0  0  0  0  0  0  0  0  0  0
  149.5407  136.0591  155.7348 H   0  0  0  0  0  0  0  0  0  0  0  0
  148.2597  133.5792  153.2357 H   0  0  0  0  0  0  0  0  0  0  0  0
  149.9881  133.5690  152.8985 H   0  0  0  0  0  0  0  0  0  0  0  0
  148.3402  131.5211  154.3850 H   0  0  0  0  0  0  0  0  0  0  0  0
  149.6721  131.2349  153.2663 H   0  0  0  0  0  0  0  0  0  0  0  0
  1  2  1  0  0  0  0
  1 19  1  0  0  0  0
  1 20  1  0  0  0  0
  1 21  1  0  0  0  0
  2  3  1  0  0  0  0
  2  9  1  0  0  0  0
  2 22  1  0  0  0  0
  3  4  1  0  0  0  0
  3 23  1  0  0  0  0
  3 24  1  0  0  0  0
  4  8  1  0  0  0  0
  4  5  1  0  0  0  0
  5  6  2  0  0  0  0
  5 25  1  0  0  0  0
  6  7  1  0  0  0  0
  6 26  1  0  0  0  0
  7  8  2  0  0  0  0
  8 27  1  0  0  0  0
  9 10  1  0  0  0  0
  9 28  1  0  0  0  0
 10 11  2  0  0  0  0
 10 12  1  0  0  0  0
 12 13  1  0  0  0  0
 12 29  1  0  0  0  0
 12 30  1  0  0  0  0
 13 17  1  0  0  0  0
 13 14  1  0  0  0  0
 14 15  1  0  0  0  0
 14 31  1  0  0  0  0
 14 32  1  0  0  0  0
 15 16  1  0  0  0  0
 15 33  1  0  0  0  0
 15 34  1  0  0  0  0
 16 17  1  0  0  0  0
 17 18  2  0  0  0  0
M  END
> <s_m_source_file>
AV-unprocessed.smi

> <i_m_source_file_index>
3351

> <i_lp_mmshare_version>
43012

> <i_f3d_flags>
0

> <s_epik_input>
W2NIXTFuW2NIXVtjSF1uMVtDSDJdW0NAQEhdKFtDSDNdKVtOSF1DKD1PKVtDSDJdTjJbQ0gyXVtDSDJdU0MyPU8=

> <s_epik_cmdline>
J2VwaWtfcHl0aG9uJywgJy1waCcsICc3LjAnLCAnLXRuJywgJzgnLCAnLW1hJywgJzIwMCcsICctbWV0YWxfYmluZGluZycsICctaW1hZScsICc8aW5maWxlLm1hZT4nLCAnLW9tYWUnLCAnPG91dGZpbGUubWFlPic=

> <r_lp_tautomer_probability>
1

> <r_epik_Ionization_Penalty>
0.618163

> <r_epik_Ionization_Penalty_Charging>
0.618163

> <r_epik_Ionization_Penalty_Neutral>
6.6929e-08

> <r_epik_State_Penalty>
0.633954

> <r_epik_Charging_Adjusted_Penalty>
1.25212

> <i_epik_Tot_Q>
0

> <i_epik_Tot_abs_Q>
0

> <r_epik_Metal_State_Penalty>
0.305924

> <b_epik_Metal_Only>
0

> <s_lp_Force_Field>
OPLS_2005

> <r_lp_Energy>
3.88922

> <b_lp_Chiralities_Consistent>
1

> <s_lp_Variant>
AV-unprocessed.smi:3351-3

> <Gold.Version>
5.8.1

> <Gold.Id.Protein>
6NUR|6NUR_protein|mol2

> <Gold.PLP.Fitness>
40.2084

> <Gold.PLP.PLP>
-28.1643

> <Gold.PLP.part.hbond>
-1.9651

> <Gold.PLP.part.metal>
0.0000

> <Gold.PLP.part.buried>
-4.3990

> <Gold.PLP.part.nonpolar>
-22.9242

> <Gold.PLP.part.repulsive>
0.1772

> <Gold.PLP.ligand.clash>
0.0000

> <Gold.PLP.ligand.torsion>
0.5372

> <Gold.PLP.Chemscore.Hbond>
1.5138

> <Gold.PLP.Chemscore.CHOScore>
2.8483

> <Gold.PLP.Chemscore.Metal>
0.0000

> <Gold.Chemscore.Hbonds>
donor molecule, donor type, donor heavy atom, donor atom, acceptor molecule, acceptor atom, score
      L1  H     9    28       P1  7948  0.91
      P1  H  6896  6908       L1    18  0.15
      L1  C     5    25       P1  7948  0.44
      L1  C     6    26       P1 10747  0.78
      L1  C     8    27       P1 10186  1.00

> <Gold.PLP.Chemscore.Internal.Correction>
0.0321

> <Gold.Rescore>
     Score         DG    S(hbond)    S(metal)    S(lipo)     H(rot)  DE(clash)    DE(int)     intcor
      9.81     -11.29       1.94        0.00      45.22       2.33       0.00       1.48       ----

> <Gold.Chemscore.Fitness>
9.8099

> <Gold.Chemscore.DG>
-11.2873

> <Gold.Chemscore.ZeroCoef>
-5.4800

> <Gold.Chemscore.Hbond>
1.9420

> <Gold.Chemscore.Metal>
0.0000

> <Gold.Chemscore.Lipo>
45.2160

> <Gold.Chemscore.Internal_Hbond>
0.0000

> <Gold.Chemscore.DEClash>
0.0000

> <Gold.Chemscore.DEInternal>
1.4775

> <Gold.Chemscore.Rot>
2.3317

> <Gold.Chemscore.Internal.Correction>
   9.000000E+99

> <Gold.Chemscore.Hbonds>
donor molecule, donor type, donor heavy atom, donor atom, acceptor molecule, acceptor atom, score
      L1  H     9    28       P1  7948  0.89
      P1  H  6896  6908       L1    18  0.15

> <Gold.Chemscore.Hbond.Weighted>
-6.4863

> <Gold.Chemscore.Metal.Weighted>
-0.0000

> <Gold.Chemscore.Lipo.Weighted>
-5.2903

> <Gold.Chemscore.Internal_Hbond.Weighted>
0.0000

> <Gold.Chemscore.DEClash.Weighted>
0.0000

> <Gold.Chemscore.DEInternal.Weighted>
1.4775

> <Gold.Chemscore.Rot.Weighted>
5.9692

> <Gold.Chemscore.Internal.Correction.Weighted>
   9.000000E+99

> <Gold.Protein.RotatedTorsions>
[ 6907 6896 6895 6894 ] final  119.57 input  -60.11 | X-H torsion
[ 7974 7965 7964 7962 ] final   -5.95 input  175.53 | X-H torsion
[ 8008 7997 7996 7995 ] final  116.02 input   59.86 | X-H torsion
[ 10167 10162 10161 10158 ] final   20.83 input  -65.29 | X-H torsion
[ 10718 10713 10712 10709 ] final  -59.79 input   66.30 | X-H torsion
[ 10763 10752 10751 10750 ] final   74.64 input  -60.55 | X-H torsion
[ 11005 11000 10999 10996 ] final   58.28 input  -57.11 | X-H torsion

> <Gold.Protein.ActiveResidues>
 VAL166  LYS551  ARG553  GLY616  TRP617  ASP618  TYR619  PRO620  LYS621  CYS622 
 ASP623  PHE694  ASN695  SER759  ASP760  ASP761  ALA762  ILE779  LEU786  VAL792 
 PHE793  MET794  SER795  GLU796  ALA797  LYS798  CYS799  TRP800  GLU811  SER814 

> <Gold.Protein.RotatedAtoms>
  152.4462  133.7541  159.6710 H   0  0  0  0  0  0  0  0  0  0  0  0  # atno 6907 bound_to 6896
  150.8363  133.7998  159.3084 H   0  0  0  0  0  0  0  0  0  0  0  0  # atno 6908 bound_to 6896
  151.5637  135.1067  160.0030 H   0  0  0  0  0  0  0  0  0  0  0  0  # atno 6909 bound_to 6896
  146.2342  140.2098  142.8335 H   0  0  0  0  0  0  0  0  0  0  0  0  # atno 7974 bound_to 7965
  156.2415  140.2926  156.0459 H   0  0  0  0  0  0  0  0  0  0  0  0  # atno 8008 bound_to 7997
  155.1935  140.0407  157.2922 H   0  0  0  0  0  0  0  0  0  0  0  0  # atno 8009 bound_to 7997
  154.6178  140.2468  155.7594 H   0  0  0  0  0  0  0  0  0  0  0  0  # atno 8010 bound_to 7997
  140.5473  143.9571  150.6556 H   0  0  0  0  0  0  0  0  0  0  0  0  # atno 10167 bound_to 10162
  156.1037  130.4183  150.0764 H   0  0  0  0  0  0  0  0  0  0  0  0  # atno 10718 bound_to 10713
  153.0600  135.5018  154.8072 H   0  0  0  0  0  0  0  0  0  0  0  0  # atno 10763 bound_to 10752
  154.6868  135.2977  154.9538 H   0  0  0  0  0  0  0  0  0  0  0  0  # atno 10764 bound_to 10752
  154.0306  135.6730  153.4833 H   0  0  0  0  0  0  0  0  0  0  0  0  # atno 10765 bound_to 10752
  140.0389  134.5902  155.9407 H   0  0  0  0  0  0  0  0  0  0  0  0  # atno 11005 bound_to 11000
  144.9716  140.8374  143.5452 LP  0  0  0  0  0  0  0  0  0  0  0  0  # atno 17320 bound_to 7965
  145.2080  139.2219  143.5158 LP  0  0  0  0  0  0  0  0  0  0  0  0  # atno 17321 bound_to 7965
  140.2988  143.3274  152.0992 LP  0  0  0  0  0  0  0  0  0  0  0  0  # atno 17342 bound_to 10162
  139.5013  144.6710  151.6243 LP  0  0  0  0  0  0  0  0  0  0  0  0  # atno 17343 bound_to 10162
  156.8745  130.9535  151.3606 LP  0  0  0  0  0  0  0  0  0  0  0  0  # atno 17370 bound_to 10713
  157.6210  130.8655  149.9109 LP  0  0  0  0  0  0  0  0  0  0  0  0  # atno 17371 bound_to 10713
  141.1872  133.6559  156.5273 LP  0  0  0  0  0  0  0  0  0  0  0  0  # atno 17394 bound_to 11000
  140.4101  134.7280  157.4831 LP  0  0  0  0  0  0  0  0  0  0  0  0  # atno 17395 bound_to 11000

$$$$
