AV-unprocessed.smi:2043|AV-procd|sdf|8297|dock3
  -GOLD-   2272010563D 1   1.00000     0.00000
 Structure written by MMmdl.
 28 29  0  0  0  0  0  0  0  0  2 V2000
  151.8881  137.7514  153.8603 C   0  0  0  0  0  0  0  0  0  0  0  0
  152.5529  138.0118  155.1683 C   0  0  0  0  0  0  0  0  0  0  0  0
  153.2967  137.0965  155.7942 N   0  0  0  0  0  0  0  0  0  0  0  0
  153.8095  137.5706  156.9932 N   0  0  0  0  0  0  0  0  0  0  0  0
  153.4569  138.8380  157.2515 C   0  0  0  0  0  0  0  0  0  0  0  0
  153.8475  139.4836  158.3630 N   0  5  0  0  0  0  0  0  0  0  0  0
  153.0452  140.4217  158.9162 C   0  0  0  0  0  0  0  0  0  0  0  0
  151.9151  140.7344  158.5338 O   0  0  0  0  0  0  0  0  0  0  0  0
  153.5820  141.0339  159.9801 N   0  0  0  0  0  0  0  0  0  0  0  0
  152.9332  142.0752  160.7660 C   0  0  0  0  0  0  0  0  0  0  0  0
  152.9553  143.4015  160.0158 C   0  0  0  0  0  0  0  0  0  0  0  0
  151.9432  144.4972  160.3817 C   0  0  0  0  0  0  0  0  0  0  0  0
  151.9077  144.8939  158.9032 C   0  0  0  0  0  0  0  0  0  0  0  0
  152.4069  143.4825  158.5826 C   0  0  0  0  0  0  0  0  0  0  0  0
  152.4230  139.5464  156.0109 S   0  0  0  0  0  0  0  0  0  0  0  0
  152.6377  137.6373  153.0770 H   0  0  0  0  0  0  0  0  0  0  0  0
  151.2302  138.5798  153.5971 H   0  0  0  0  0  0  0  0  0  0  0  0
  151.2943  136.8387  153.9160 H   0  0  0  0  0  0  0  0  0  0  0  0
  154.5098  140.7544  160.2630 H   0  0  0  0  0  0  0  0  0  0  0  0
  151.9079  141.7710  160.9813 H   0  0  0  0  0  0  0  0  0  0  0  0
  153.4418  142.1789  161.7256 H   0  0  0  0  0  0  0  0  0  0  0  0
  153.9570  143.8370  160.0328 H   0  0  0  0  0  0  0  0  0  0  0  0
  150.9911  144.0951  160.7325 H   0  0  0  0  0  0  0  0  0  0  0  0
  152.3265  145.2659  161.0533 H   0  0  0  0  0  0  0  0  0  0  0  0
  150.9160  145.1279  158.5156 H   0  0  0  0  0  0  0  0  0  0  0  0
  152.6356  145.6677  158.6543 H   0  0  0  0  0  0  0  0  0  0  0  0
  153.1651  143.4314  157.8008 H   0  0  0  0  0  0  0  0  0  0  0  0
  151.5931  142.7790  158.3996 H   0  0  0  0  0  0  0  0  0  0  0  0
  1  2  1  0  0  0  0
  1 16  1  0  0  0  0
  1 17  1  0  0  0  0
  1 18  1  0  0  0  0
  2 15  1  0  0  0  0
  2  3  2  0  0  0  0
  3  4  1  0  0  0  0
  4  5  2  0  0  0  0
  5  6  1  0  0  0  0
  5 15  1  0  0  0  0
  6  7  1  0  0  0  0
  7  8  2  0  0  0  0
  7  9  1  0  0  0  0
  9 10  1  0  0  0  0
  9 19  1  0  0  0  0
 10 11  1  0  0  0  0
 10 20  1  0  0  0  0
 10 21  1  0  0  0  0
 11 14  1  0  0  0  0
 11 12  1  0  0  0  0
 11 22  1  0  0  0  0
 12 13  1  0  0  0  0
 12 23  1  0  0  0  0
 12 24  1  0  0  0  0
 13 14  1  0  0  0  0
 13 25  1  0  0  0  0
 13 26  1  0  0  0  0
 14 27  1  0  0  0  0
 14 28  1  0  0  0  0
M  CHG  1   6  -1
M  END
> <s_m_source_file>
AV-unprocessed.smi

> <i_m_source_file_index>
2043

> <i_lp_mmshare_version>
43012

> <i_f3d_flags>
0

> <s_epik_input>
W0NIM11jMW5uYyhzMSlbTkhdQyg9TylbTkhdW0NIMl1bQ0hdMltDSDJdW0NIMl1bQ0gyXTI=

> <s_epik_cmdline>
J2VwaWtfcHl0aG9uJywgJy1waCcsICc3LjAnLCAnLXRuJywgJzgnLCAnLW1hJywgJzIwMCcsICctbWV0YWxfYmluZGluZycsICctaW1hZScsICc8aW5maWxlLm1hZT4nLCAnLW9tYWUnLCAnPG91dGZpbGUubWFlPic=

> <r_lp_tautomer_probability>
1

> <r_epik_Ionization_Penalty>
4.53283

> <r_epik_Ionization_Penalty_Charging>
4.38642

> <r_epik_Ionization_Penalty_Neutral>
0.146407

> <r_epik_State_Penalty>
4.38606

> <r_epik_Charging_Adjusted_Penalty>
8.77248

> <i_epik_Tot_Q>
-1

> <i_epik_Tot_abs_Q>
1

> <r_epik_Metal_State_Penalty>
0.765318

> <b_epik_Metal_Only>
1

> <s_lp_Force_Field>
OPLS_2005

> <r_lp_Energy>
10.5339

> <b_lp_Chiralities_Consistent>
1

> <s_lp_Variant>
AV-unprocessed.smi:2043-2

> <Gold.Version>
5.8.1

> <Gold.Id.Protein>
6NUR|6NUR_protein|mol2

> <Gold.PLP.Fitness>
39.9997

> <Gold.PLP.PLP>
-32.0338

> <Gold.PLP.part.hbond>
-2.0000

> <Gold.PLP.part.metal>
0.0000

> <Gold.PLP.part.buried>
-1.7084

> <Gold.PLP.part.nonpolar>
-28.7324

> <Gold.PLP.part.repulsive>
0.1239

> <Gold.PLP.ligand.clash>
0.0000

> <Gold.PLP.ligand.torsion>
0.4204

> <Gold.PLP.Chemscore.Hbond>
2.9120

> <Gold.PLP.Chemscore.CHOScore>
0.0000

> <Gold.PLP.Chemscore.Metal>
0.0000

> <Gold.Chemscore.Hbonds>
donor molecule, donor type, donor heavy atom, donor atom, acceptor molecule, acceptor atom, score
      P1  H 10752 10765       L1     3  0.26

> <Gold.PLP.Chemscore.Internal.Correction>
0.0707

> <Gold.Rescore>
     Score         DG    S(hbond)    S(metal)    S(lipo)     H(rot)  DE(clash)    DE(int)     intcor
     11.89     -15.05       0.98        0.00      81.52       1.26       0.12       3.04       ----

> <Gold.Chemscore.Fitness>
11.8919

> <Gold.Chemscore.DG>
-15.0534

> <Gold.Chemscore.ZeroCoef>
-5.4800

> <Gold.Chemscore.Hbond>
0.9768

> <Gold.Chemscore.Metal>
0.0000

> <Gold.Chemscore.Lipo>
81.5192

> <Gold.Chemscore.Internal_Hbond>
0.0000

> <Gold.Chemscore.DEClash>
0.1250

> <Gold.Chemscore.DEInternal>
3.0365

> <Gold.Chemscore.Rot>
1.2605

> <Gold.Chemscore.Internal.Correction>
   9.000000E+99

> <Gold.Chemscore.Hbonds>
donor molecule, donor type, donor heavy atom, donor atom, acceptor molecule, acceptor atom, score
      P1  H 10752 10765       L1     3  0.10

> <Gold.Chemscore.Hbond.Weighted>
-3.2626

> <Gold.Chemscore.Metal.Weighted>
-0.0000

> <Gold.Chemscore.Lipo.Weighted>
-9.5377

> <Gold.Chemscore.Internal_Hbond.Weighted>
0.0000

> <Gold.Chemscore.DEClash.Weighted>
0.1250

> <Gold.Chemscore.DEInternal.Weighted>
3.0365

> <Gold.Chemscore.Rot.Weighted>
3.2269

> <Gold.Chemscore.Internal.Correction.Weighted>
   9.000000E+99

> <Gold.Protein.RotatedTorsions>
[ 6907 6896 6895 6894 ] final  116.78 input  -60.11 | X-H torsion
[ 7974 7965 7964 7962 ] final   81.30 input  175.53 | X-H torsion
[ 8008 7997 7996 7995 ] final  137.48 input   59.86 | X-H torsion
[ 10167 10162 10161 10158 ] final   16.28 input  -65.29 | X-H torsion
[ 10718 10713 10712 10709 ] final   49.39 input   66.30 | X-H torsion
[ 10763 10752 10751 10750 ] final -170.34 input  -60.55 | X-H torsion
[ 11005 11000 10999 10996 ] final   56.96 input  -57.11 | X-H torsion

> <Gold.Protein.ActiveResidues>
 VAL166  LYS551  ARG553  GLY616  TRP617  ASP618  TYR619  PRO620  LYS621  CYS622 
 ASP623  PHE694  ASN695  SER759  ASP760  ASP761  ALA762  ILE779  LEU786  VAL792 
 PHE793  MET794  SER795  GLU796  ALA797  LYS798  CYS799  TRP800  GLU811  SER814 

> <Gold.Protein.RotatedAtoms>
  152.4656  133.7915  159.6904 H   0  0  0  0  0  0  0  0  0  0  0  0  # atno 6907 bound_to 6896
  150.8618  133.7622  159.2996 H   0  0  0  0  0  0  0  0  0  0  0  0  # atno 6908 bound_to 6896
  151.5185  135.1070  159.9924 H   0  0  0  0  0  0  0  0  0  0  0  0  # atno 6909 bound_to 6896
  145.6400  139.2423  143.2036 H   0  0  0  0  0  0  0  0  0  0  0  0  # atno 7974 bound_to 7965
  156.3002  140.2418  156.3917 H   0  0  0  0  0  0  0  0  0  0  0  0  # atno 8008 bound_to 7997
  154.8608  140.0420  157.1683 H   0  0  0  0  0  0  0  0  0  0  0  0  # atno 8009 bound_to 7997
  154.8899  140.2961  155.5380 H   0  0  0  0  0  0  0  0  0  0  0  0  # atno 8010 bound_to 7997
  140.5808  143.8984  150.6788 H   0  0  0  0  0  0  0  0  0  0  0  0  # atno 10167 bound_to 10162
  157.4782  130.8298  149.8063 H   0  0  0  0  0  0  0  0  0  0  0  0  # atno 10718 bound_to 10713
  154.6426  135.2900  155.0085 H   0  0  0  0  0  0  0  0  0  0  0  0  # atno 10763 bound_to 10752
  154.1206  135.6548  153.4906 H   0  0  0  0  0  0  0  0  0  0  0  0  # atno 10764 bound_to 10752
  153.0334  135.5287  154.7299 H   0  0  0  0  0  0  0  0  0  0  0  0  # atno 10765 bound_to 10752
  140.0489  134.5766  155.9288 H   0  0  0  0  0  0  0  0  0  0  0  0  # atno 11005 bound_to 11000
  146.1288  140.7212  142.9422 LP  0  0  0  0  0  0  0  0  0  0  0  0  # atno 17320 bound_to 7965
  144.7161  140.4214  143.7043 LP  0  0  0  0  0  0  0  0  0  0  0  0  # atno 17321 bound_to 7965
  140.2483  143.3612  152.1428 LP  0  0  0  0  0  0  0  0  0  0  0  0  # atno 17342 bound_to 10162
  139.5169  144.6984  151.5565 LP  0  0  0  0  0  0  0  0  0  0  0  0  # atno 17343 bound_to 10162
  156.0108  130.3834  150.2272 LP  0  0  0  0  0  0  0  0  0  0  0  0  # atno 17370 bound_to 10713
  157.0458  131.0048  151.3269 LP  0  0  0  0  0  0  0  0  0  0  0  0  # atno 17371 bound_to 10713
  141.1920  133.6574  156.5484 LP  0  0  0  0  0  0  0  0  0  0  0  0  # atno 17394 bound_to 11000
  140.3949  134.7407  157.4744 LP  0  0  0  0  0  0  0  0  0  0  0  0  # atno 17395 bound_to 11000

$$$$
