AV-unprocessed.smi:342|AV-procd|sdf|2387|dock8
  -GOLD-   2262022313D 1   1.00000     0.00000
 Structure written by MMmdl.
 42 44  0  0  0  0  0  0  0  0  2 V2000
  149.6225  141.3778  153.9086 O   0  0  0  0  0  0  0  0  0  0  0  0
  149.8015  141.6111  155.2919 C   0  0  1  0  0  0  0  0  0  0  0  0
  148.4762  141.3015  156.0154 C   0  0  0  0  0  0  0  0  0  0  0  0
  147.5081  142.4255  155.9415 N   0  3  0  0  0  0  0  0  0  0  0  0
  146.9781  142.6296  154.5720 C   0  0  0  0  0  0  0  0  0  0  0  0
  146.0313  143.8410  154.5364 C   0  0  0  0  0  0  0  0  0  0  0  0
  144.9779  143.6491  155.4724 O   0  0  0  0  0  0  0  0  0  0  0  0
  145.4635  143.5382  156.8045 C   0  0  0  0  0  0  0  0  0  0  0  0
  146.3940  142.3186  156.9165 C   0  0  0  0  0  0  0  0  0  0  0  0
  150.9554  140.7354  155.8239 C   0  0  0  0  0  0  0  0  0  0  0  0
  151.1111  140.8139  157.2712 N   0  0  0  0  0  0  0  0  0  0  0  0
  151.0211  139.8110  158.1845 C   0  0  0  0  0  0  0  0  0  0  0  0
  150.7571  138.3828  157.7915 C   0  0  0  0  0  0  0  0  0  0  0  0
  151.6806  137.9456  156.9343 F   0  0  0  0  0  0  0  0  0  0  0  0
  150.7817  137.5800  158.8548 F   0  0  0  0  0  0  0  0  0  0  0  0
  149.5668  138.2744  157.2015 F   0  0  0  0  0  0  0  0  0  0  0  0
  151.2170  140.1719  159.4547 N   0  0  0  0  0  0  0  0  0  0  0  0
  151.4618  141.5268  159.3576 C   0  0  0  0  0  0  0  0  0  0  0  0
  151.7448  142.4829  160.3590 C   0  0  0  0  0  0  0  0  0  0  0  0
  151.9691  143.8319  160.0147 C   0  0  0  0  0  0  0  0  0  0  0  0
  151.9148  144.2428  158.6672 C   0  0  0  0  0  0  0  0  0  0  0  0
  151.6342  143.3057  157.6543 C   0  0  0  0  0  0  0  0  0  0  0  0
  151.4083  141.9604  158.0033 C   0  0  0  0  0  0  0  0  0  0  0  0
  149.3190  140.4897  153.7899 H   0  0  0  0  0  0  0  0  0  0  0  0
  150.0663  142.6588  155.4206 H   0  0  0  0  0  0  0  0  0  0  0  0
  148.0377  140.4089  155.5657 H   0  0  0  0  0  0  0  0  0  0  0  0
  148.6583  141.0547  157.0625 H   0  0  0  0  0  0  0  0  0  0  0  0
  147.8016  142.7898  153.8749 H   0  0  0  0  0  0  0  0  0  0  0  0
  146.4499  141.7319  154.2457 H   0  0  0  0  0  0  0  0  0  0  0  0
  146.5695  144.7639  154.7590 H   0  0  0  0  0  0  0  0  0  0  0  0
  145.6032  143.9546  153.5403 H   0  0  0  0  0  0  0  0  0  0  0  0
  145.9833  144.4535  157.0932 H   0  0  0  0  0  0  0  0  0  0  0  0
  144.6158  143.4266  157.4809 H   0  0  0  0  0  0  0  0  0  0  0  0
  145.8294  141.4038  156.7295 H   0  0  0  0  0  0  0  0  0  0  0  0
  146.7784  142.2533  157.9338 H   0  0  0  0  0  0  0  0  0  0  0  0
  150.7975  139.6949  155.5415 H   0  0  0  0  0  0  0  0  0  0  0  0
  151.8977  141.0288  155.3593 H   0  0  0  0  0  0  0  0  0  0  0  0
  151.7914  142.1777  161.3940 H   0  0  0  0  0  0  0  0  0  0  0  0
  152.1857  144.5542  160.7881 H   0  0  0  0  0  0  0  0  0  0  0  0
  152.0894  145.2778  158.4116 H   0  0  0  0  0  0  0  0  0  0  0  0
  151.5928  143.6193  156.6219 H   0  0  0  0  0  0  0  0  0  0  0  0
  148.0270  143.2618  156.1706 H   0  0  0  0  0  0  0  0  0  0  0  0
  1  2  1  0  0  0  0
  1 24  1  0  0  0  0
  2  3  1  0  0  0  0
  2 10  1  0  0  0  0
  2 25  1  0  0  0  0
  3  4  1  0  0  0  0
  3 26  1  0  0  0  0
  3 27  1  0  0  0  0
  4  9  1  0  0  0  0
  4  5  1  0  0  0  0
  4 42  1  0  0  0  0
  5  6  1  0  0  0  0
  5 28  1  0  0  0  0
  5 29  1  0  0  0  0
  6  7  1  0  0  0  0
  6 30  1  0  0  0  0
  6 31  1  0  0  0  0
  7  8  1  0  0  0  0
  8  9  1  0  0  0  0
  8 32  1  0  0  0  0
  8 33  1  0  0  0  0
  9 34  1  0  0  0  0
  9 35  1  0  0  0  0
 10 11  1  0  0  0  0
 10 36  1  0  0  0  0
 10 37  1  0  0  0  0
 11 23  1  0  0  0  0
 11 12  1  0  0  0  0
 12 13  1  0  0  0  0
 12 17  2  0  0  0  0
 13 14  1  0  0  0  0
 13 15  1  0  0  0  0
 13 16  1  0  0  0  0
 17 18  1  0  0  0  0
 18 23  2  0  0  0  0
 18 19  1  0  0  0  0
 19 20  2  0  0  0  0
 19 38  1  0  0  0  0
 20 21  1  0  0  0  0
 20 39  1  0  0  0  0
 21 22  2  0  0  0  0
 21 40  1  0  0  0  0
 22 23  1  0  0  0  0
 22 41  1  0  0  0  0
M  CHG  1   4   1
M  END
> <s_m_source_file>
AV-unprocessed.smi

> <i_m_source_file_index>
342

> <i_lp_mmshare_version>
43012

> <i_f3d_flags>
0

> <s_epik_input>
W2NIXTFbY0hdW2NIXVtjSF1jKGMxMiluKGMobjIpQyhGKShGKUYpW0NIMl1bQ0BIXShbT0hdKVtDSDJdTjNbQ0gyXVtDSDJdT1tDSDJdW0NIMl0z

> <s_epik_cmdline>
J2VwaWtfcHl0aG9uJywgJy1waCcsICc3LjAnLCAnLXRuJywgJzgnLCAnLW1hJywgJzIwMCcsICctbWV0YWxfYmluZGluZycsICctaW1hZScsICc8aW5maWxlLm1hZT4nLCAnLW9tYWUnLCAnPG91dGZpbGUubWFlPic=

> <r_epik_Ionization_Penalty>
0.608409

> <r_epik_Ionization_Penalty_Charging>
0.608065

> <r_epik_Ionization_Penalty_Neutral>
0.000344684

> <r_epik_State_Penalty>
0.623026

> <r_epik_Charging_Adjusted_Penalty>
1.23109

> <i_epik_Tot_Q>
1

> <i_epik_Tot_abs_Q>
1

> <r_epik_Metal_State_Penalty>
0.623013

> <b_epik_Metal_Only>
0

> <s_lp_Force_Field>
OPLS_2005

> <r_lp_Energy>
25.6933

> <b_lp_Chiralities_Consistent>
1

> <s_lp_Variant>
AV-unprocessed.smi:342-4

> <Gold.Version>
5.8.1

> <Gold.Id.Protein>
6NUR|6NUR_protein|mol2

> <Gold.PLP.Fitness>
54.5839

> <Gold.PLP.PLP>
-45.8480

> <Gold.PLP.part.hbond>
-4.0000

> <Gold.PLP.part.metal>
0.0000

> <Gold.PLP.part.buried>
-5.2607

> <Gold.PLP.part.nonpolar>
-35.3822

> <Gold.PLP.part.repulsive>
0.2248

> <Gold.PLP.ligand.clash>
0.0000

> <Gold.PLP.ligand.torsion>
0.3415

> <Gold.PLP.Chemscore.Hbond>
3.1180

> <Gold.PLP.Chemscore.CHOScore>
0.0000

> <Gold.PLP.Chemscore.Metal>
0.0000

> <Gold.Chemscore.Hbonds>
donor molecule, donor type, donor heavy atom, donor atom, acceptor molecule, acceptor atom, score
      L1  H     4    42       P1  8028  1.98
      P1  H  7989  7998       L1     1  0.13
      P1  H  8011  8017       L1     1  0.75

> <Gold.PLP.Chemscore.Internal.Correction>
0.0650

> <Gold.Rescore>
     Score         DG    S(hbond)    S(metal)    S(lipo)     H(rot)  DE(clash)    DE(int)     intcor
     13.73     -15.18       1.16        0.00     100.66       2.32       0.73       0.72       ----

> <Gold.Chemscore.Fitness>
13.7265

> <Gold.Chemscore.DG>
-15.1793

> <Gold.Chemscore.ZeroCoef>
-5.4800

> <Gold.Chemscore.Hbond>
1.1565

> <Gold.Chemscore.Metal>
0.0000

> <Gold.Chemscore.Lipo>
100.6616

> <Gold.Chemscore.Internal_Hbond>
0.0000

> <Gold.Chemscore.DEClash>
0.7318

> <Gold.Chemscore.DEInternal>
0.7210

> <Gold.Chemscore.Rot>
2.3206

> <Gold.Chemscore.Internal.Correction>
   9.000000E+99

> <Gold.Chemscore.Hbonds>
donor molecule, donor type, donor heavy atom, donor atom, acceptor molecule, acceptor atom, score
      L1  H     4    42       P1  8028  0.33
      P1  H  8011  8017       L1     1  0.68

> <Gold.Chemscore.Hbond.Weighted>
-3.8627

> <Gold.Chemscore.Metal.Weighted>
-0.0000

> <Gold.Chemscore.Lipo.Weighted>
-11.7774

> <Gold.Chemscore.Internal_Hbond.Weighted>
0.0000

> <Gold.Chemscore.DEClash.Weighted>
0.7318

> <Gold.Chemscore.DEInternal.Weighted>
0.7210

> <Gold.Chemscore.Rot.Weighted>
5.9407

> <Gold.Chemscore.Internal.Correction.Weighted>
   9.000000E+99

> <Gold.Protein.RotatedTorsions>
[ 6907 6896 6895 6894 ] final  164.80 input  -60.11 | X-H torsion
[ 7974 7965 7964 7962 ] final  122.56 input  175.53 | X-H torsion
[ 8008 7997 7996 7995 ] final   85.94 input   59.86 | X-H torsion
[ 10167 10162 10161 10158 ] final -162.83 input  -65.29 | X-H torsion
[ 10718 10713 10712 10709 ] final  141.21 input   66.30 | X-H torsion
[ 10763 10752 10751 10750 ] final  125.87 input  -60.55 | X-H torsion
[ 11005 11000 10999 10996 ] final  -30.00 input  -57.11 | X-H torsion

> <Gold.Protein.ActiveResidues>
 VAL166  LYS551  ARG553  GLY616  TRP617  ASP618  TYR619  PRO620  LYS621  CYS622 
 ASP623  PHE694  ASN695  SER759  ASP760  ASP761  ALA762  ILE779  LEU786  VAL792 
 PHE793  MET794  SER795  GLU796  ALA797  LYS798  CYS799  TRP800  GLU811  SER814 

> <Gold.Protein.RotatedAtoms>
  151.9043  133.3545  159.3841 H   0  0  0  0  0  0  0  0  0  0  0  0  # atno 6907 bound_to 6896
  150.7073  134.4797  159.5474 H   0  0  0  0  0  0  0  0  0  0  0  0  # atno 6908 bound_to 6896
  152.2391  134.8246  160.0514 H   0  0  0  0  0  0  0  0  0  0  0  0  # atno 6909 bound_to 6896
  145.1061  139.3485  143.4787 H   0  0  0  0  0  0  0  0  0  0  0  0  # atno 7974 bound_to 7965
  155.9564  140.3397  155.6452 H   0  0  0  0  0  0  0  0  0  0  0  0  # atno 8008 bound_to 7997
  155.6854  140.0742  157.2487 H   0  0  0  0  0  0  0  0  0  0  0  0  # atno 8009 bound_to 7997
  154.4133  140.1667  156.2015 H   0  0  0  0  0  0  0  0  0  0  0  0  # atno 8010 bound_to 7997
  139.6364  144.0341  152.2058 H   0  0  0  0  0  0  0  0  0  0  0  0  # atno 10167 bound_to 10162
  157.3946  131.1009  151.0612 H   0  0  0  0  0  0  0  0  0  0  0  0  # atno 10718 bound_to 10713
  153.6842  135.3309  155.3186 H   0  0  0  0  0  0  0  0  0  0  0  0  # atno 10763 bound_to 10752
  154.8458  135.4416  154.1575 H   0  0  0  0  0  0  0  0  0  0  0  0  # atno 10764 bound_to 10752
  153.2599  135.6990  153.7666 H   0  0  0  0  0  0  0  0  0  0  0  0  # atno 10765 bound_to 10752
  140.9345  133.7317  156.0984 H   0  0  0  0  0  0  0  0  0  0  0  0  # atno 11005 bound_to 11000
  146.3528  140.0960  142.8610 LP  0  0  0  0  0  0  0  0  0  0  0  0  # atno 17320 bound_to 7965
  145.0900  140.9278  143.4775 LP  0  0  0  0  0  0  0  0  0  0  0  0  # atno 17321 bound_to 7965
  140.0020  144.6286  150.7722 LP  0  0  0  0  0  0  0  0  0  0  0  0  # atno 17342 bound_to 10162
  140.7468  143.2896  151.3368 LP  0  0  0  0  0  0  0  0  0  0  0  0  # atno 17343 bound_to 10162
  157.1633  130.6235  149.5617 LP  0  0  0  0  0  0  0  0  0  0  0  0  # atno 17370 bound_to 10713
  155.9807  130.4809  150.6787 LP  0  0  0  0  0  0  0  0  0  0  0  0  # atno 17371 bound_to 10713
  140.7818  134.3716  157.5485 LP  0  0  0  0  0  0  0  0  0  0  0  0  # atno 17394 bound_to 11000
  139.8804  134.9086  156.2972 LP  0  0  0  0  0  0  0  0  0  0  0  0  # atno 17395 bound_to 11000

$$$$
