AV-unprocessed.smi:3303|AV-procd|sdf|12681|dock2
  -GOLD-   2272019 13D 1   1.00000     0.00000
 Structure written by MMmdl.
 44 45  0  0  0  0  0  0  0  0  2 V2000
  147.9589  140.7652  154.1629 C   0  0  0  0  0  0  0  0  0  0  0  0
  148.7172  139.4439  153.9425 C   0  0  2  0  0  0  0  0  0  0  0  0
  147.7502  138.2512  154.0762 C   0  0  0  0  0  0  0  0  0  0  0  0
  148.4269  136.9484  153.8464 N   0  3  2  0  0  0  0  0  0  0  0  0
  147.4443  135.8377  153.8226 C   0  0  0  0  0  0  0  0  0  0  0  0
  149.5618  136.7381  154.7936 C   0  0  1  0  0  0  0  0  0  0  0  0
  150.2893  135.3985  154.5655 C   0  0  0  0  0  0  0  0  0  0  0  0
  150.5682  137.8995  154.6767 C   0  0  0  0  0  0  0  0  0  0  0  0
  149.9060  139.2659  154.9137 C   0  0  1  0  0  0  0  0  0  0  0  0
  150.9138  140.2892  154.6676 N   0  0  0  0  0  0  0  0  0  0  0  0
  151.5045  140.7722  155.9080 C   0  0  0  0  0  0  0  0  0  0  0  0
  150.5033  141.6333  156.6969 C   0  0  0  0  0  0  0  0  0  0  0  0
  151.1500  142.4218  157.8240 C   0  0  0  0  0  0  0  0  0  0  0  0
  151.2461  143.8277  157.7495 C   0  0  0  0  0  0  0  0  0  0  0  0
  151.8719  144.5153  158.8074 C   0  0  0  0  0  0  0  0  0  0  0  0
  152.3775  143.7743  159.8928 C   0  0  0  0  0  0  0  0  0  0  0  0
  152.2325  142.3730  159.8726 C   0  0  0  0  0  0  0  0  0  0  0  0
  151.6333  141.7042  158.8641 N   0  0  0  0  0  0  0  0  0  0  0  0
  147.5879  140.8445  155.1852 H   0  0  0  0  0  0  0  0  0  0  0  0
  147.1033  140.8428  153.4915 H   0  0  0  0  0  0  0  0  0  0  0  0
  148.5945  141.6295  153.9693 H   0  0  0  0  0  0  0  0  0  0  0  0
  149.1004  139.4494  152.9203 H   0  0  0  0  0  0  0  0  0  0  0  0
  147.2899  138.2488  155.0659 H   0  0  0  0  0  0  0  0  0  0  0  0
  146.9402  138.3658  153.3544 H   0  0  0  0  0  0  0  0  0  0  0  0
  147.0424  135.6491  154.8189 H   0  0  0  0  0  0  0  0  0  0  0  0
  147.8890  134.9167  153.4469 H   0  0  0  0  0  0  0  0  0  0  0  0
  146.6101  136.0720  153.1603 H   0  0  0  0  0  0  0  0  0  0  0  0
  149.1588  136.7332  155.8081 H   0  0  0  0  0  0  0  0  0  0  0  0
  151.1688  135.3209  155.2051 H   0  0  0  0  0  0  0  0  0  0  0  0
  150.6242  135.2966  153.5327 H   0  0  0  0  0  0  0  0  0  0  0  0
  149.6580  134.5430  154.8043 H   0  0  0  0  0  0  0  0  0  0  0  0
  151.3766  137.7589  155.3957 H   0  0  0  0  0  0  0  0  0  0  0  0
  151.0301  137.8773  153.6875 H   0  0  0  0  0  0  0  0  0  0  0  0
  149.5527  139.3073  155.9457 H   0  0  0  0  0  0  0  0  0  0  0  0
  151.6430  139.9287  154.0685 H   0  0  0  0  0  0  0  0  0  0  0  0
  151.8340  139.9357  156.5252 H   0  0  0  0  0  0  0  0  0  0  0  0
  152.3895  141.3618  155.6665 H   0  0  0  0  0  0  0  0  0  0  0  0
  150.0196  142.3357  156.0171 H   0  0  0  0  0  0  0  0  0  0  0  0
  149.7047  141.0092  157.1009 H   0  0  0  0  0  0  0  0  0  0  0  0
  150.8538  144.3681  156.9006 H   0  0  0  0  0  0  0  0  0  0  0  0
  151.9645  145.5909  158.7855 H   0  0  0  0  0  0  0  0  0  0  0  0
  152.8653  144.2674  160.7206 H   0  0  0  0  0  0  0  0  0  0  0  0
  152.6103  141.7728  160.6871 H   0  0  0  0  0  0  0  0  0  0  0  0
  148.8269  136.9948  152.9200 H   0  0  0  0  0  0  0  0  0  0  0  0
  1  2  1  0  0  0  0
  1 19  1  0  0  0  0
  1 20  1  0  0  0  0
  1 21  1  0  0  0  0
  2  9  1  0  0  0  0
  2  3  1  0  0  0  0
  2 22  1  0  0  0  0
  3  4  1  0  0  0  0
  3 23  1  0  0  0  0
  3 24  1  0  0  0  0
  4  5  1  0  0  0  0
  4  6  1  0  0  0  0
  4 44  1  0  0  0  0
  5 25  1  0  0  0  0
  5 26  1  0  0  0  0
  5 27  1  0  0  0  0
  6  7  1  0  0  0  0
  6  8  1  0  0  0  0
  6 28  1  0  0  0  0
  7 29  1  0  0  0  0
  7 30  1  0  0  0  0
  7 31  1  0  0  0  0
  8  9  1  0  0  0  0
  8 32  1  0  0  0  0
  8 33  1  0  0  0  0
  9 10  1  0  0  0  0
  9 34  1  0  0  0  0
 10 11  1  0  0  0  0
 10 35  1  0  0  0  0
 11 12  1  0  0  0  0
 11 36  1  0  0  0  0
 11 37  1  0  0  0  0
 12 13  1  0  0  0  0
 12 38  1  0  0  0  0
 12 39  1  0  0  0  0
 13 18  1  0  0  0  0
 13 14  2  0  0  0  0
 14 15  1  0  0  0  0
 14 40  1  0  0  0  0
 15 16  2  0  0  0  0
 15 41  1  0  0  0  0
 16 17  1  0  0  0  0
 16 42  1  0  0  0  0
 17 18  2  0  0  0  0
 17 43  1  0  0  0  0
M  CHG  1   4   1
M  END
> <s_m_source_file>
AV-unprocessed.smi

> <i_m_source_file_index>
3303

> <i_lp_mmshare_version>
43012

> <i_f3d_flags>
0

> <s_epik_input>
W0NIM11bQ0BASF0xW0NIMl1OKFtDSDNdKVtDQEBIXShbQ0gzXSlbQ0gyXVtDQEhdMVtOSF1bQ0gyXVtDSDJdYzJbY0hdW2NIXVtjSF1bY0hdbjI=

> <s_epik_cmdline>
J2VwaWtfcHl0aG9uJywgJy1waCcsICc3LjAnLCAnLXRuJywgJzgnLCAnLW1hJywgJzIwMCcsICctbWV0YWxfYmluZGluZycsICctaW1hZScsICc8aW5maWxlLm1hZT4nLCAnLW9tYWUnLCAnPG91dGZpbGUubWFlPic=

> <r_epik_Ionization_Penalty>
2.31085

> <r_epik_Ionization_Penalty_Charging>
0.000313057

> <r_epik_Ionization_Penalty_Neutral>
2.31054

> <r_epik_State_Penalty>
2.4087

> <r_epik_Charging_Adjusted_Penalty>
2.40902

> <i_epik_Tot_Q>
1

> <i_epik_Tot_abs_Q>
1

> <r_epik_Metal_State_Penalty>
2.30979

> <b_epik_Metal_Only>
0

> <s_lp_Force_Field>
OPLS_2005

> <r_lp_Energy>
25.5146

> <b_lp_Chiralities_Consistent>
1

> <s_lp_Variant>
AV-unprocessed.smi:3303-25

> <Gold.Version>
5.8.1

> <Gold.Id.Protein>
6NUR|6NUR_protein|mol2

> <Gold.PLP.Fitness>
42.2138

> <Gold.PLP.PLP>
-37.5838

> <Gold.PLP.part.hbond>
-2.0000

> <Gold.PLP.part.metal>
0.0000

> <Gold.PLP.part.buried>
-3.0078

> <Gold.PLP.part.nonpolar>
-31.4627

> <Gold.PLP.part.repulsive>
0.0000

> <Gold.PLP.ligand.clash>
0.0000

> <Gold.PLP.ligand.torsion>
0.6880

> <Gold.PLP.Chemscore.Hbond>
2.0000

> <Gold.PLP.Chemscore.CHOScore>
0.0000

> <Gold.PLP.Chemscore.Metal>
0.0000

> <Gold.Chemscore.Hbonds>
donor molecule, donor type, donor heavy atom, donor atom, acceptor molecule, acceptor atom, score
      L1  H     4    44       P1  7948  0.68

> <Gold.PLP.Chemscore.Internal.Correction>
0.0061

> <Gold.Rescore>
     Score         DG    S(hbond)    S(metal)    S(lipo)     H(rot)  DE(clash)    DE(int)     intcor
     17.69     -18.51       0.99        0.00     112.07       1.33       0.10       0.72       ----

> <Gold.Chemscore.Fitness>
17.6902

> <Gold.Chemscore.DG>
-18.5057

> <Gold.Chemscore.ZeroCoef>
-5.4800

> <Gold.Chemscore.Hbond>
0.9915

> <Gold.Chemscore.Metal>
0.0000

> <Gold.Chemscore.Lipo>
112.0675

> <Gold.Chemscore.Internal_Hbond>
0.0000

> <Gold.Chemscore.DEClash>
0.0960

> <Gold.Chemscore.DEInternal>
0.7195

> <Gold.Chemscore.Rot>
1.3272

> <Gold.Chemscore.Internal.Correction>
   9.000000E+99

> <Gold.Chemscore.Hbonds>
donor molecule, donor type, donor heavy atom, donor atom, acceptor molecule, acceptor atom, score
      L1  H     4    44       P1  7948  0.33

> <Gold.Chemscore.Hbond.Weighted>
-3.3115

> <Gold.Chemscore.Metal.Weighted>
-0.0000

> <Gold.Chemscore.Lipo.Weighted>
-13.1119

> <Gold.Chemscore.Internal_Hbond.Weighted>
0.0000

> <Gold.Chemscore.DEClash.Weighted>
0.0960

> <Gold.Chemscore.DEInternal.Weighted>
0.7195

> <Gold.Chemscore.Rot.Weighted>
3.3976

> <Gold.Chemscore.Internal.Correction.Weighted>
   9.000000E+99

> <Gold.Protein.RotatedTorsions>
[ 6907 6896 6895 6894 ] final   31.23 input  -60.11 | X-H torsion
[ 7974 7965 7964 7962 ] final  138.33 input  175.53 | X-H torsion
[ 8008 7997 7996 7995 ] final -174.34 input   59.86 | X-H torsion
[ 10167 10162 10161 10158 ] final  -90.97 input  -65.29 | X-H torsion
[ 10718 10713 10712 10709 ] final  -47.87 input   66.30 | X-H torsion
[ 10763 10752 10751 10750 ] final  136.12 input  -60.55 | X-H torsion
[ 11005 11000 10999 10996 ] final  -94.68 input  -57.11 | X-H torsion

> <Gold.Protein.ActiveResidues>
 VAL166  LYS551  ARG553  GLY616  TRP617  ASP618  TYR619  PRO620  LYS621  CYS622 
 ASP623  PHE694  ASN695  SER759  ASP760  ASP761  ALA762  ILE779  LEU786  VAL792 
 PHE793  MET794  SER795  GLU796  ALA797  LYS798  CYS799  TRP800  GLU811  SER814 

> <Gold.Protein.RotatedAtoms>
  152.0573  134.9616  160.0574 H   0  0  0  0  0  0  0  0  0  0  0  0  # atno 6907 bound_to 6896
  152.0994  133.4237  159.4588 H   0  0  0  0  0  0  0  0  0  0  0  0  # atno 6908 bound_to 6896
  150.6839  134.2698  159.4627 H   0  0  0  0  0  0  0  0  0  0  0  0  # atno 6909 bound_to 6896
  144.9382  139.4963  143.5584 H   0  0  0  0  0  0  0  0  0  0  0  0  # atno 7974 bound_to 7965
  155.9688  140.1159  157.0831 H   0  0  0  0  0  0  0  0  0  0  0  0  # atno 8008 bound_to 7997
  154.4151  140.1167  156.5346 H   0  0  0  0  0  0  0  0  0  0  0  0  # atno 8009 bound_to 7997
  155.6624  140.3473  155.4790 H   0  0  0  0  0  0  0  0  0  0  0  0  # atno 8010 bound_to 7997
  140.3496  143.2898  151.9742 H   0  0  0  0  0  0  0  0  0  0  0  0  # atno 10167 bound_to 10162
  156.2042  130.4157  149.9200 H   0  0  0  0  0  0  0  0  0  0  0  0  # atno 10718 bound_to 10713
  153.8513  135.3079  155.3432 H   0  0  0  0  0  0  0  0  0  0  0  0  # atno 10763 bound_to 10752
  154.7890  135.4793  154.0013 H   0  0  0  0  0  0  0  0  0  0  0  0  # atno 10764 bound_to 10752
  153.1517  135.6844  153.8966 H   0  0  0  0  0  0  0  0  0  0  0  0  # atno 10765 bound_to 10752
  141.1463  133.7973  157.0331 H   0  0  0  0  0  0  0  0  0  0  0  0  # atno 11005 bound_to 11000
  146.3275  139.8382  142.8895 LP  0  0  0  0  0  0  0  0  0  0  0  0  # atno 17320 bound_to 7965
  145.3033  141.0200  143.3596 LP  0  0  0  0  0  0  0  0  0  0  0  0  # atno 17321 bound_to 7965
  139.4828  144.6087  151.7473 LP  0  0  0  0  0  0  0  0  0  0  0  0  # atno 17342 bound_to 10162
  140.5232  144.0847  150.6029 LP  0  0  0  0  0  0  0  0  0  0  0  0  # atno 17343 bound_to 10162
  156.6899  130.8892  151.3587 LP  0  0  0  0  0  0  0  0  0  0  0  0  # atno 17370 bound_to 10713
  157.7003  130.9326  150.0765 LP  0  0  0  0  0  0  0  0  0  0  0  0  # atno 17371 bound_to 10713
  140.0741  134.9686  157.1516 LP  0  0  0  0  0  0  0  0  0  0  0  0  # atno 17394 bound_to 11000
  140.3669  134.2433  155.7181 LP  0  0  0  0  0  0  0  0  0  0  0  0  # atno 17395 bound_to 11000

$$$$
