AV-unprocessed.smi:2279|AV-procd|sdf|9183|dock6
  -GOLD-   2272012403D 1   1.00000     0.00000
 Structure written by MMmdl.
 58 60  0  0  0  0  0  0  0  0  3 V2000
  151.9717  145.9061  160.1568 C   0  0  0  0  0  0  0  0  0  0  0  0
  152.0092  144.5399  159.5050 C   0  0  0  0  0  0  0  0  0  0  0  0
  152.8628  143.5300  159.9887 C   0  0  0  0  0  0  0  0  0  0  0  0
  152.8502  142.2808  159.3378 C   0  0  0  0  0  0  0  0  0  0  0  0
  153.7419  141.1498  159.8046 C   0  0  0  0  0  0  0  0  0  0  0  0
  152.0602  142.0111  158.2766 N   0  0  0  0  0  0  0  0  0  0  0  0
  151.2341  142.9761  157.8021 C   0  0  0  0  0  0  0  0  0  0  0  0
  150.3654  142.7939  156.6936 N   0  0  0  0  0  0  0  0  0  0  0  0
  150.0215  141.6433  156.0883 C   0  0  0  0  0  0  0  0  0  0  0  0
  150.4192  140.5234  156.4101 O   0  0  0  0  0  0  0  0  0  0  0  0
  149.1759  141.8661  155.0709 N   0  0  0  0  0  0  0  0  0  0  0  0
  148.6027  140.8432  154.2001 C   0  0  2  0  0  0  0  0  0  0  0  0
  147.3794  141.3989  153.4650 C   0  0  0  0  0  0  0  0  0  0  0  0
  146.7074  140.3169  152.6036 C   0  0  0  0  0  0  0  0  0  0  0  0
  146.3110  139.1159  153.3999 N   0  3  1  0  0  0  0  0  0  0  0  0
  145.5787  138.0786  152.5935 C   0  0  2  0  0  0  0  0  0  0  0  0
  144.9389  136.9772  153.4802 C   0  0  0  0  0  0  0  0  0  0  0  0
  144.2545  135.8718  152.6577 C   0  0  0  0  0  0  0  0  0  0  0  0
  145.1998  135.2505  151.7032 N   0  3  1  0  0  0  0  0  0  0  0  0
  144.6047  134.1024  150.9850 C   0  0  0  0  0  0  0  0  0  0  0  0
  145.7708  136.2589  150.7825 C   0  0  0  0  0  0  0  0  0  0  0  0
  146.4941  137.3743  151.5567 C   0  0  0  0  0  0  0  0  0  0  0  0
  147.4871  138.5694  154.1431 C   0  0  0  0  0  0  0  0  0  0  0  0
  148.1696  139.6279  155.0252 C   0  0  0  0  0  0  0  0  0  0  0  0
  151.1852  144.2567  158.3972 C   0  0  0  0  0  0  0  0  0  0  0  0
  152.6643  145.9653  160.9969 H   0  0  0  0  0  0  0  0  0  0  0  0
  150.9685  146.1205  160.5262 H   0  0  0  0  0  0  0  0  0  0  0  0
  152.2445  146.6762  159.4350 H   0  0  0  0  0  0  0  0  0  0  0  0
  153.5097  143.7074  160.8356 H   0  0  0  0  0  0  0  0  0  0  0  0
  154.3450  141.4495  160.6622 H   0  0  0  0  0  0  0  0  0  0  0  0
  154.4167  140.8440  159.0046 H   0  0  0  0  0  0  0  0  0  0  0  0
  153.1407  140.2882  160.0958 H   0  0  0  0  0  0  0  0  0  0  0  0
  149.9594  143.6384  156.3190 H   0  0  0  0  0  0  0  0  0  0  0  0
  148.9077  142.8215  154.8848 H   0  0  0  0  0  0  0  0  0  0  0  0
  149.3331  140.5153  153.4579 H   0  0  0  0  0  0  0  0  0  0  0  0
  146.6576  141.7916  154.1831 H   0  0  0  0  0  0  0  0  0  0  0  0
  147.6747  142.2383  152.8340 H   0  0  0  0  0  0  0  0  0  0  0  0
  145.8412  140.7890  152.1458 H   0  0  0  0  0  0  0  0  0  0  0  0
  147.3736  140.0139  151.7942 H   0  0  0  0  0  0  0  0  0  0  0  0
  144.7789  138.5865  152.0516 H   0  0  0  0  0  0  0  0  0  0  0  0
  145.6988  136.5333  154.1251 H   0  0  0  0  0  0  0  0  0  0  0  0
  144.1732  137.3908  154.1343 H   0  0  0  0  0  0  0  0  0  0  0  0
  143.8633  135.1082  153.3314 H   0  0  0  0  0  0  0  0  0  0  0  0
  143.4010  136.2812  152.1142 H   0  0  0  0  0  0  0  0  0  0  0  0
  143.7618  134.4185  150.3687 H   0  0  0  0  0  0  0  0  0  0  0  0
  144.2498  133.3491  151.6892 H   0  0  0  0  0  0  0  0  0  0  0  0
  145.3429  133.6282  150.3374 H   0  0  0  0  0  0  0  0  0  0  0  0
  146.4736  135.7746  150.1032 H   0  0  0  0  0  0  0  0  0  0  0  0
  144.9765  136.6834  150.1659 H   0  0  0  0  0  0  0  0  0  0  0  0
  146.8608  138.0770  150.8105 H   0  0  0  0  0  0  0  0  0  0  0  0
  147.3704  136.9601  152.0578 H   0  0  0  0  0  0  0  0  0  0  0  0
  147.1911  137.7638  154.8108 H   0  0  0  0  0  0  0  0  0  0  0  0
  148.2043  138.1522  153.4342 H   0  0  0  0  0  0  0  0  0  0  0  0
  149.0357  139.1879  155.5213 H   0  0  0  0  0  0  0  0  0  0  0  0
  147.4850  139.9374  155.8166 H   0  0  0  0  0  0  0  0  0  0  0  0
  150.5229  145.0180  158.0105 H   0  0  0  0  0  0  0  0  0  0  0  0
  145.6628  139.4445  154.1014 H   0  0  0  0  0  0  0  0  0  0  0  0
  145.9666  134.8800  152.2468 H   0  0  0  0  0  0  0  0  0  0  0  0
  1  2  1  0  0  0  0
  1 26  1  0  0  0  0
  1 27  1  0  0  0  0
  1 28  1  0  0  0  0
  2 25  1  0  0  0  0
  2  3  2  0  0  0  0
  3  4  1  0  0  0  0
  3 29  1  0  0  0  0
  4  5  1  0  0  0  0
  4  6  2  0  0  0  0
  5 30  1  0  0  0  0
  5 31  1  0  0  0  0
  5 32  1  0  0  0  0
  6  7  1  0  0  0  0
  7  8  1  0  0  0  0
  7 25  2  0  0  0  0
  8  9  1  0  0  0  0
  8 33  1  0  0  0  0
  9 10  2  0  0  0  0
  9 11  1  0  0  0  0
 11 12  1  0  0  0  0
 11 34  1  0  0  0  0
 12 24  1  0  0  0  0
 12 13  1  0  0  0  0
 12 35  1  0  0  0  0
 13 14  1  0  0  0  0
 13 36  1  0  0  0  0
 13 37  1  0  0  0  0
 14 15  1  0  0  0  0
 14 38  1  0  0  0  0
 14 39  1  0  0  0  0
 15 16  1  0  0  0  0
 15 23  1  0  0  0  0
 15 57  1  0  0  0  0
 16 22  1  0  0  0  0
 16 17  1  0  0  0  0
 16 40  1  0  0  0  0
 17 18  1  0  0  0  0
 17 41  1  0  0  0  0
 17 42  1  0  0  0  0
 18 19  1  0  0  0  0
 18 43  1  0  0  0  0
 18 44  1  0  0  0  0
 19 20  1  0  0  0  0
 19 21  1  0  0  0  0
 19 58  1  0  0  0  0
 20 45  1  0  0  0  0
 20 46  1  0  0  0  0
 20 47  1  0  0  0  0
 21 22  1  0  0  0  0
 21 48  1  0  0  0  0
 21 49  1  0  0  0  0
 22 50  1  0  0  0  0
 22 51  1  0  0  0  0
 23 24  1  0  0  0  0
 23 52  1  0  0  0  0
 23 53  1  0  0  0  0
 24 54  1  0  0  0  0
 24 55  1  0  0  0  0
 25 56  1  0  0  0  0
M  CHG  1  15   1
M  CHG  1  19   1
M  END
> <s_m_source_file>
AV-unprocessed.smi

> <i_m_source_file_index>
2279

> <i_lp_mmshare_version>
43012

> <i_f3d_flags>
0

> <s_epik_input>
W0NIM11jMVtjSF1jKFtDSDNdKW5jKFtjSF0xKVtOSF1DKD1PKVtOSF1bQ0hdMltDSDJdW0NIMl1OKFtDSDJdW0NIMl0yKVtDSF0zW0NIMl1bQ0gyXU4oW0NIM10pW0NIMl1bQ0gyXTM=

> <s_epik_cmdline>
J2VwaWtfcHl0aG9uJywgJy1waCcsICc3LjAnLCAnLXRuJywgJzgnLCAnLW1hJywgJzIwMCcsICctbWV0YWxfYmluZGluZycsICctaW1hZScsICc8aW5maWxlLm1hZT4nLCAnLW9tYWUnLCAnPG91dGZpbGUubWFlPic=

> <r_epik_Ionization_Penalty>
0.180973

> <r_epik_Ionization_Penalty_Charging>
0.180787

> <r_epik_Ionization_Penalty_Neutral>
0.000186186

> <r_epik_State_Penalty>
0.153592

> <r_epik_Charging_Adjusted_Penalty>
0.334379

> <i_epik_Tot_Q>
2

> <i_epik_Tot_abs_Q>
2

> <r_epik_Metal_State_Penalty>
0.153604

> <b_epik_Metal_Only>
0

> <s_lp_Force_Field>
OPLS_2005

> <r_lp_Energy>
41.0771

> <b_lp_Chiralities_Consistent>
1

> <s_lp_Variant>
AV-unprocessed.smi:2279-1

> <Gold.Version>
5.8.1

> <Gold.Id.Protein>
6NUR|6NUR_protein|mol2

> <Gold.PLP.Fitness>
51.0607

> <Gold.PLP.PLP>
-45.9832

> <Gold.PLP.part.hbond>
-2.7633

> <Gold.PLP.part.metal>
0.0000

> <Gold.PLP.part.buried>
0.0457

> <Gold.PLP.part.nonpolar>
-44.7886

> <Gold.PLP.part.repulsive>
0.2632

> <Gold.PLP.ligand.clash>
0.0000

> <Gold.PLP.ligand.torsion>
0.3332

> <Gold.PLP.Chemscore.Hbond>
1.9040

> <Gold.PLP.Chemscore.CHOScore>
0.0000

> <Gold.PLP.Chemscore.Metal>
0.0000

> <Gold.Chemscore.Hbonds>
donor molecule, donor type, donor heavy atom, donor atom, acceptor molecule, acceptor atom, score
      L1  H     8    33       P1  8028  1.00
      L1  H    11    34       P1  8028  0.90

> <Gold.PLP.Chemscore.Internal.Correction>
0.0319

> <Gold.Rescore>
     Score         DG    S(hbond)    S(metal)    S(lipo)     H(rot)  DE(clash)    DE(int)     intcor
     19.78     -24.84       1.94        0.00     136.70       1.21       2.03       3.04       ----

> <Gold.Chemscore.Fitness>
19.7751

> <Gold.Chemscore.DG>
-24.8442

> <Gold.Chemscore.ZeroCoef>
-5.4800

> <Gold.Chemscore.Hbond>
1.9362

> <Gold.Chemscore.Metal>
0.0000

> <Gold.Chemscore.Lipo>
136.6980

> <Gold.Chemscore.Internal_Hbond>
0.0000

> <Gold.Chemscore.DEClash>
2.0277

> <Gold.Chemscore.DEInternal>
3.0414

> <Gold.Chemscore.Rot>
1.2095

> <Gold.Chemscore.Internal.Correction>
   9.000000E+99

> <Gold.Chemscore.Hbonds>
donor molecule, donor type, donor heavy atom, donor atom, acceptor molecule, acceptor atom, score
      L1  H     8    33       P1  8028  1.00
      L1  H    11    34       P1  8028  0.81

> <Gold.Chemscore.Hbond.Weighted>
-6.4668

> <Gold.Chemscore.Metal.Weighted>
-0.0000

> <Gold.Chemscore.Lipo.Weighted>
-15.9937

> <Gold.Chemscore.Internal_Hbond.Weighted>
0.0000

> <Gold.Chemscore.DEClash.Weighted>
2.0277

> <Gold.Chemscore.DEInternal.Weighted>
3.0414

> <Gold.Chemscore.Rot.Weighted>
3.0963

> <Gold.Chemscore.Internal.Correction.Weighted>
   9.000000E+99

> <Gold.Protein.RotatedTorsions>
[ 6907 6896 6895 6894 ] final  -26.31 input  -60.11 | X-H torsion
[ 7974 7965 7964 7962 ] final   97.04 input  175.53 | X-H torsion
[ 8008 7997 7996 7995 ] final  111.83 input   59.86 | X-H torsion
[ 10167 10162 10161 10158 ] final   16.86 input  -65.29 | X-H torsion
[ 10718 10713 10712 10709 ] final  177.80 input   66.30 | X-H torsion
[ 10763 10752 10751 10750 ] final   16.29 input  -60.55 | X-H torsion
[ 11005 11000 10999 10996 ] final -116.34 input  -57.11 | X-H torsion

> <Gold.Protein.ActiveResidues>
 VAL166  LYS551  ARG553  GLY616  TRP617  ASP618  TYR619  PRO620  LYS621  CYS622 
 ASP623  PHE694  ASN695  SER759  ASP760  ASP761  ALA762  ILE779  LEU786  VAL792 
 PHE793  MET794  SER795  GLU796  ALA797  LYS798  CYS799  TRP800  GLU811  SER814 

> <Gold.Protein.RotatedAtoms>
  151.1628  135.0281  159.8717 H   0  0  0  0  0  0  0  0  0  0  0  0  # atno 6907 bound_to 6896
  152.5451  134.1260  159.8429 H   0  0  0  0  0  0  0  0  0  0  0  0  # atno 6908 bound_to 6896
  151.1357  133.4960  159.2630 H   0  0  0  0  0  0  0  0  0  0  0  0  # atno 6909 bound_to 6896
  145.4308  139.2311  143.3145 H   0  0  0  0  0  0  0  0  0  0  0  0  # atno 7974 bound_to 7965
  156.2151  140.3011  155.9821 H   0  0  0  0  0  0  0  0  0  0  0  0  # atno 8008 bound_to 7997
  155.2626  140.0430  157.3016 H   0  0  0  0  0  0  0  0  0  0  0  0  # atno 8009 bound_to 7997
  154.5756  140.2360  155.8136 H   0  0  0  0  0  0  0  0  0  0  0  0  # atno 8010 bound_to 7997
  140.5767  143.9058  150.6756 H   0  0  0  0  0  0  0  0  0  0  0  0  # atno 10167 bound_to 10162
  156.9000  130.9875  151.3037 H   0  0  0  0  0  0  0  0  0  0  0  0  # atno 10718 bound_to 10713
  153.1444  135.6766  153.8977 H   0  0  0  0  0  0  0  0  0  0  0  0  # atno 10763 bound_to 10752
  153.8423  135.3104  155.3428 H   0  0  0  0  0  0  0  0  0  0  0  0  # atno 10764 bound_to 10752
  154.7813  135.4886  153.9936 H   0  0  0  0  0  0  0  0  0  0  0  0  # atno 10765 bound_to 10752
  141.0428  133.9809  157.2967 H   0  0  0  0  0  0  0  0  0  0  0  0  # atno 11005 bound_to 11000
  146.2608  140.5045  142.8854 LP  0  0  0  0  0  0  0  0  0  0  0  0  # atno 17320 bound_to 7965
  144.8184  140.6507  143.6369 LP  0  0  0  0  0  0  0  0  0  0  0  0  # atno 17321 bound_to 7965
  140.2547  143.3567  152.1375 LP  0  0  0  0  0  0  0  0  0  0  0  0  # atno 17342 bound_to 10162
  139.5147  144.6951  151.5651 LP  0  0  0  0  0  0  0  0  0  0  0  0  # atno 17343 bound_to 10162
  157.6032  130.8528  149.8834 LP  0  0  0  0  0  0  0  0  0  0  0  0  # atno 17370 bound_to 10713
  156.0586  130.3704  150.1033 LP  0  0  0  0  0  0  0  0  0  0  0  0  # atno 17371 bound_to 10713
  139.9289  135.0201  156.8330 LP  0  0  0  0  0  0  0  0  0  0  0  0  # atno 17394 bound_to 11000
  140.6202  134.0000  155.7615 LP  0  0  0  0  0  0  0  0  0  0  0  0  # atno 17395 bound_to 11000

$$$$
