AV-unprocessed.smi:311|AV-procd|sdf|2302|dock7
  -GOLD-   2262022203D 1   1.00000     0.00000
 Structure written by MMmdl.
 44 46  0  0  0  0  0  0  0  0  2 V2000
  149.5749  138.7178  154.1394 C   0  0  0  0  0  0  0  0  0  0  0  0
  150.3227  137.6133  154.8290 C   0  0  0  0  0  0  0  0  0  0  0  0
  151.6311  137.7128  154.9939 N   0  0  0  0  0  0  0  0  0  0  0  0
  152.0239  136.5438  155.6529 O   0  0  0  0  0  0  0  0  0  0  0  0
  150.9229  135.7781  155.8625 C   0  0  0  0  0  0  0  0  0  0  0  0
  151.1376  134.4753  156.5550 C   0  0  0  0  0  0  0  0  0  0  0  0
  149.8087  136.3996  155.3691 C   0  0  0  0  0  0  0  0  0  0  0  0
  148.3767  135.9235  155.3858 C   0  0  0  0  0  0  0  0  0  0  0  0
  148.2510  134.4736  154.9018 C   0  0  0  0  0  0  0  0  0  0  0  0
  147.8893  133.5730  155.6607 O   0  0  0  0  0  0  0  0  0  0  0  0
  148.5534  134.2623  153.6125 N   0  0  0  0  0  0  0  0  0  0  0  0
  148.5096  132.9633  152.9495 C   0  0  1  0  0  0  0  0  0  0  0  0
  149.0014  131.7922  153.8229 C   0  0  0  0  0  0  0  0  0  0  0  0
  148.0712  130.6100  153.4835 C   0  0  0  0  0  0  0  0  0  0  0  0
  147.1919  131.1020  152.4056 N   0  3  1  0  0  0  0  0  0  0  0  0
  145.8782  130.4404  152.2490 C   0  0  0  0  0  0  0  0  0  0  0  0
  145.1504  131.0391  151.0279 C   0  0  0  0  0  0  0  0  0  0  0  0
  145.0621  132.5774  151.1093 C   0  0  0  0  0  0  0  0  0  0  0  0
  146.4473  133.2019  151.3666 C   0  0  0  0  0  0  0  0  0  0  0  0
  147.0778  132.5538  152.6096 C   0  0  2  0  0  0  0  0  0  0  0  0
  148.8374  138.3154  153.4449 H   0  0  0  0  0  0  0  0  0  0  0  0
  150.2439  139.3644  153.5701 H   0  0  0  0  0  0  0  0  0  0  0  0
  149.0464  139.3395  154.8621 H   0  0  0  0  0  0  0  0  0  0  0  0
  150.3483  133.7661  156.3050 H   0  0  0  0  0  0  0  0  0  0  0  0
  151.1427  134.6103  157.6366 H   0  0  0  0  0  0  0  0  0  0  0  0
  152.0902  134.0324  156.2639 H   0  0  0  0  0  0  0  0  0  0  0  0
  147.9548  135.9868  156.3895 H   0  0  0  0  0  0  0  0  0  0  0  0
  147.7518  136.5575  154.7553 H   0  0  0  0  0  0  0  0  0  0  0  0
  148.8405  135.0547  153.0560 H   0  0  0  0  0  0  0  0  0  0  0  0
  149.0974  132.9982  152.0296 H   0  0  0  0  0  0  0  0  0  0  0  0
  150.0464  131.5602  153.6141 H   0  0  0  0  0  0  0  0  0  0  0  0
  148.9248  132.0280  154.8855 H   0  0  0  0  0  0  0  0  0  0  0  0
  148.6219  129.7267  153.1593 H   0  0  0  0  0  0  0  0  0  0  0  0
  147.4782  130.3379  154.3581 H   0  0  0  0  0  0  0  0  0  0  0  0
  146.0216  129.3678  152.1135 H   0  0  0  0  0  0  0  0  0  0  0  0
  145.2830  130.5756  153.1535 H   0  0  0  0  0  0  0  0  0  0  0  0
  145.6833  130.7589  150.1183 H   0  0  0  0  0  0  0  0  0  0  0  0
  144.1509  130.6116  150.9413 H   0  0  0  0  0  0  0  0  0  0  0  0
  144.6344  132.9782  150.1898 H   0  0  0  0  0  0  0  0  0  0  0  0
  144.3821  132.8589  151.9143 H   0  0  0  0  0  0  0  0  0  0  0  0
  147.0891  133.0527  150.4972 H   0  0  0  0  0  0  0  0  0  0  0  0
  146.3537  134.2794  151.5066 H   0  0  0  0  0  0  0  0  0  0  0  0
  146.4377  132.7324  153.4771 H   0  0  0  0  0  0  0  0  0  0  0  0
  147.6989  130.9737  151.5414 H   0  0  0  0  0  0  0  0  0  0  0  0
  1  2  1  0  0  0  0
  1 21  1  0  0  0  0
  1 22  1  0  0  0  0
  1 23  1  0  0  0  0
  2  7  1  0  0  0  0
  2  3  2  0  0  0  0
  3  4  1  0  0  0  0
  4  5  1  0  0  0  0
  5  6  1  0  0  0  0
  5  7  2  0  0  0  0
  6 24  1  0  0  0  0
  6 25  1  0  0  0  0
  6 26  1  0  0  0  0
  7  8  1  0  0  0  0
  8  9  1  0  0  0  0
  8 27  1  0  0  0  0
  8 28  1  0  0  0  0
  9 10  2  0  0  0  0
  9 11  1  0  0  0  0
 11 12  1  0  0  0  0
 11 29  1  0  0  0  0
 12 20  1  0  0  0  0
 12 13  1  0  0  0  0
 12 30  1  0  0  0  0
 13 14  1  0  0  0  0
 13 31  1  0  0  0  0
 13 32  1  0  0  0  0
 14 15  1  0  0  0  0
 14 33  1  0  0  0  0
 14 34  1  0  0  0  0
 15 20  1  0  0  0  0
 15 16  1  0  0  0  0
 15 44  1  0  0  0  0
 16 17  1  0  0  0  0
 16 35  1  0  0  0  0
 16 36  1  0  0  0  0
 17 18  1  0  0  0  0
 17 37  1  0  0  0  0
 17 38  1  0  0  0  0
 18 19  1  0  0  0  0
 18 39  1  0  0  0  0
 18 40  1  0  0  0  0
 19 20  1  0  0  0  0
 19 41  1  0  0  0  0
 19 42  1  0  0  0  0
 20 43  1  0  0  0  0
M  CHG  1  15   1
M  END
> <s_m_source_file>
AV-unprocessed.smi

> <i_m_source_file_index>
311

> <i_lp_mmshare_version>
43012

> <i_f3d_flags>
0

> <s_epik_input>
W0NIM11jMW5vYyhbQ0gzXSljMVtDSDJdQyg9TylbTkhdW0NASF0oW0NIMl1bQ0gyXTIpW0NAQEhdKE4yMylbQ0gyXVtDSDJdW0NIMl1bQ0gyXTM=

> <s_epik_cmdline>
J2VwaWtfcHl0aG9uJywgJy1waCcsICc3LjAnLCAnLXRuJywgJzgnLCAnLW1hJywgJzIwMCcsICctbWV0YWxfYmluZGluZycsICctaW1hZScsICc8aW5maWxlLm1hZT4nLCAnLW9tYWUnLCAnPG91dGZpbGUubWFlPic=

> <r_epik_Ionization_Penalty>
0.00173669

> <r_epik_Ionization_Penalty_Charging>
0.0017366

> <r_epik_Ionization_Penalty_Neutral>
9.2145e-08

> <r_epik_State_Penalty>
0.00117499

> <r_epik_Charging_Adjusted_Penalty>
0.00291159

> <i_epik_Tot_Q>
1

> <i_epik_Tot_abs_Q>
1

> <r_epik_Metal_State_Penalty>
-0

> <b_epik_Metal_Only>
0

> <s_lp_Force_Field>
OPLS_2005

> <r_lp_Energy>
29.9852

> <b_lp_Chiralities_Consistent>
1

> <s_lp_Variant>
AV-unprocessed.smi:311-6

> <Gold.Version>
5.8.1

> <Gold.Id.Protein>
6NUR|6NUR_protein|mol2

> <Gold.PLP.Fitness>
40.9848

> <Gold.PLP.PLP>
-32.8378

> <Gold.PLP.part.hbond>
-2.9041

> <Gold.PLP.part.metal>
0.0000

> <Gold.PLP.part.buried>
-4.0172

> <Gold.PLP.part.nonpolar>
-25.8282

> <Gold.PLP.part.repulsive>
0.1523

> <Gold.PLP.ligand.clash>
0.0000

> <Gold.PLP.ligand.torsion>
0.4326

> <Gold.PLP.Chemscore.Hbond>
3.0000

> <Gold.PLP.Chemscore.CHOScore>
0.0000

> <Gold.PLP.Chemscore.Metal>
0.0000

> <Gold.Chemscore.Hbonds>
donor molecule, donor type, donor heavy atom, donor atom, acceptor molecule, acceptor atom, score
      L1  H    11    29       P1  7948  1.00
      L1  H    15    44       P1 10747  1.00
      P1  H 10752 10765       L1     4  1.00

> <Gold.PLP.Chemscore.Internal.Correction>
0.0122

> <Gold.Rescore>
     Score         DG    S(hbond)    S(metal)    S(lipo)     H(rot)  DE(clash)    DE(int)     intcor
     17.90     -19.91       2.48        0.00      82.17       1.36       0.11       1.90       ----

> <Gold.Chemscore.Fitness>
17.9027

> <Gold.Chemscore.DG>
-19.9101

> <Gold.Chemscore.ZeroCoef>
-5.4800

> <Gold.Chemscore.Hbond>
2.4819

> <Gold.Chemscore.Metal>
0.0000

> <Gold.Chemscore.Lipo>
82.1677

> <Gold.Chemscore.Internal_Hbond>
0.0000

> <Gold.Chemscore.DEClash>
0.1059

> <Gold.Chemscore.DEInternal>
1.9015

> <Gold.Chemscore.Rot>
1.3567

> <Gold.Chemscore.Internal.Correction>
   9.000000E+99

> <Gold.Chemscore.Hbonds>
donor molecule, donor type, donor heavy atom, donor atom, acceptor molecule, acceptor atom, score
      L1  H    11    29       P1  7948  0.35
      L1  H    15    44       P1 10747  1.00
      P1  H 10752 10765       L1     4  0.30

> <Gold.Chemscore.Hbond.Weighted>
-8.2896

> <Gold.Chemscore.Metal.Weighted>
-0.0000

> <Gold.Chemscore.Lipo.Weighted>
-9.6136

> <Gold.Chemscore.Internal_Hbond.Weighted>
0.0000

> <Gold.Chemscore.DEClash.Weighted>
0.1059

> <Gold.Chemscore.DEInternal.Weighted>
1.9015

> <Gold.Chemscore.Rot.Weighted>
3.4731

> <Gold.Chemscore.Internal.Correction.Weighted>
   9.000000E+99

> <Gold.Protein.RotatedTorsions>
[ 6907 6896 6895 6894 ] final -136.91 input  -60.11 | X-H torsion
[ 7974 7965 7964 7962 ] final   19.40 input  175.53 | X-H torsion
[ 8008 7997 7996 7995 ] final  107.76 input   59.86 | X-H torsion
[ 10167 10162 10161 10158 ] final -152.59 input  -65.29 | X-H torsion
[ 10718 10713 10712 10709 ] final  -37.26 input   66.30 | X-H torsion
[ 10763 10752 10751 10750 ] final -177.85 input  -60.55 | X-H torsion
[ 11005 11000 10999 10996 ] final   99.36 input  -57.11 | X-H torsion

> <Gold.Protein.ActiveResidues>
 VAL166  LYS551  ARG553  GLY616  TRP617  ASP618  TYR619  PRO620  LYS621  CYS622 
 ASP623  PHE694  ASN695  SER759  ASP760  ASP761  ALA762  ILE779  LEU786  VAL792 
 PHE793  MET794  SER795  GLU796  ALA797  LYS798  CYS799  TRP800  GLU811  SER814 

> <Gold.Protein.RotatedAtoms>
  151.0159  133.5921  159.2676 H   0  0  0  0  0  0  0  0  0  0  0  0  # atno 6907 bound_to 6896
  151.3056  135.0779  159.9264 H   0  0  0  0  0  0  0  0  0  0  0  0  # atno 6908 bound_to 6896
  152.5311  133.9833  159.7871 H   0  0  0  0  0  0  0  0  0  0  0  0  # atno 6909 bound_to 6896
  146.2150  139.8318  142.8658 H   0  0  0  0  0  0  0  0  0  0  0  0  # atno 7974 bound_to 7965
  156.1850  140.3089  155.9221 H   0  0  0  0  0  0  0  0  0  0  0  0  # atno 8008 bound_to 7997
  155.3301  140.0460  157.3059 H   0  0  0  0  0  0  0  0  0  0  0  0  # atno 8009 bound_to 7997
  154.5385  140.2254  155.8690 H   0  0  0  0  0  0  0  0  0  0  0  0  # atno 8010 bound_to 7997
  139.7169  143.9019  152.2489 H   0  0  0  0  0  0  0  0  0  0  0  0  # atno 10167 bound_to 10162
  156.3173  130.4260  149.7994 H   0  0  0  0  0  0  0  0  0  0  0  0  # atno 10718 bound_to 10713
  154.5550  135.2815  155.0973 H   0  0  0  0  0  0  0  0  0  0  0  0  # atno 10763 bound_to 10752
  154.2404  135.6358  153.5209 H   0  0  0  0  0  0  0  0  0  0  0  0  # atno 10764 bound_to 10752
  153.0013  135.5558  154.6127 H   0  0  0  0  0  0  0  0  0  0  0  0  # atno 10765 bound_to 10752
  139.8771  134.9092  156.4594 H   0  0  0  0  0  0  0  0  0  0  0  0  # atno 11005 bound_to 11000
  145.2989  141.0189  143.3620 LP  0  0  0  0  0  0  0  0  0  0  0  0  # atno 17320 bound_to 7965
  144.9021  139.4636  143.6628 LP  0  0  0  0  0  0  0  0  0  0  0  0  # atno 17321 bound_to 7965
  139.8904  144.6968  150.8776 LP  0  0  0  0  0  0  0  0  0  0  0  0  # atno 17342 bound_to 10162
  140.7745  143.3591  151.1864 LP  0  0  0  0  0  0  0  0  0  0  0  0  # atno 17343 bound_to 10162
  156.5315  130.8259  151.3238 LP  0  0  0  0  0  0  0  0  0  0  0  0  # atno 17370 bound_to 10713
  157.7404  130.9850  150.2376 LP  0  0  0  0  0  0  0  0  0  0  0  0  # atno 17371 bound_to 10713
  140.8875  133.7872  155.9534 LP  0  0  0  0  0  0  0  0  0  0  0  0  # atno 17394 bound_to 11000
  140.8789  134.2635  157.5154 LP  0  0  0  0  0  0  0  0  0  0  0  0  # atno 17395 bound_to 11000

$$$$
