AV-unprocessed.smi:1125|AV-procd|sdf|4836|dock7
  -GOLD-   22720 3403D 1   1.00000     0.00000
 Structure written by MMmdl.
 45 46  0  0  0  0  0  0  0  0  1 V2000
  153.2068  142.9535  160.7558 C   0  0  0  0  0  0  0  0  0  0  0  0
  152.1768  142.8476  159.7322 N   0  0  0  0  0  0  0  0  0  0  0  0
  152.2379  141.5203  159.1189 C   0  0  0  0  0  0  0  0  0  0  0  0
  151.1170  141.3646  158.0760 C   0  0  0  0  0  0  0  0  0  0  0  0
  151.2217  142.4445  156.9883 C   0  0  0  0  0  0  0  0  0  0  0  0
  150.0804  142.3506  156.0834 N   0  0  0  0  0  0  0  0  0  0  0  0
  149.8865  141.3766  155.1803 C   0  0  0  0  0  0  0  0  0  0  0  0
  150.6704  140.4428  155.0103 O   0  0  0  0  0  0  0  0  0  0  0  0
  148.6159  141.4711  154.3345 C   0  0  0  0  0  0  0  0  0  0  0  0
  147.9321  140.1363  154.2679 C   0  0  0  0  0  0  0  0  0  0  0  0
  146.7741  139.8357  153.5960 C   0  0  0  0  0  0  0  0  0  0  0  0
  146.3329  138.1625  153.7807 S   0  0  0  0  0  0  0  0  0  0  0  0
  147.7596  137.9181  154.7949 C   0  0  0  0  0  0  0  0  0  0  0  0
  148.1495  136.6095  155.4398 C   0  0  0  0  0  0  0  0  0  0  0  0
  148.0927  136.7448  156.9739 C   0  0  0  0  0  0  0  0  0  0  0  0
  149.5908  136.2047  155.0615 C   0  0  0  0  0  0  0  0  0  0  0  0
  147.2084  135.4888  154.9568 C   0  0  0  0  0  0  0  0  0  0  0  0
  148.4747  139.0394  154.9444 N   0  0  0  0  0  0  0  0  0  0  0  0
  151.2835  143.8298  157.6561 C   0  0  0  0  0  0  0  0  0  0  0  0
  152.3942  143.8817  158.7200 C   0  0  0  0  0  0  0  0  0  0  0  0
  153.0548  142.2020  161.5311 H   0  0  0  0  0  0  0  0  0  0  0  0
  153.1718  143.9333  161.2334 H   0  0  0  0  0  0  0  0  0  0  0  0
  154.2037  142.8144  160.3349 H   0  0  0  0  0  0  0  0  0  0  0  0
  153.2125  141.3641  158.6532 H   0  0  0  0  0  0  0  0  0  0  0  0
  152.1246  140.7568  159.8894 H   0  0  0  0  0  0  0  0  0  0  0  0
  151.1686  140.3733  157.6244 H   0  0  0  0  0  0  0  0  0  0  0  0
  150.1482  141.4276  158.5747 H   0  0  0  0  0  0  0  0  0  0  0  0
  152.1430  142.2773  156.4267 H   0  0  0  0  0  0  0  0  0  0  0  0
  149.3796  143.0740  156.1568 H   0  0  0  0  0  0  0  0  0  0  0  0
  147.9580  142.2301  154.7603 H   0  0  0  0  0  0  0  0  0  0  0  0
  148.8745  141.8162  153.3327 H   0  0  0  0  0  0  0  0  0  0  0  0
  146.1599  140.4953  153.0009 H   0  0  0  0  0  0  0  0  0  0  0  0
  148.3872  135.8173  157.4662 H   0  0  0  0  0  0  0  0  0  0  0  0
  147.0869  136.9886  157.3177 H   0  0  0  0  0  0  0  0  0  0  0  0
  148.7603  137.5319  157.3271 H   0  0  0  0  0  0  0  0  0  0  0  0
  150.3168  136.9514  155.3852 H   0  0  0  0  0  0  0  0  0  0  0  0
  149.7038  136.0742  153.9845 H   0  0  0  0  0  0  0  0  0  0  0  0
  149.8723  135.2604  155.5290 H   0  0  0  0  0  0  0  0  0  0  0  0
  147.4753  134.5271  155.3965 H   0  0  0  0  0  0  0  0  0  0  0  0
  147.2483  135.3777  153.8724 H   0  0  0  0  0  0  0  0  0  0  0  0
  146.1717  135.6924  155.2276 H   0  0  0  0  0  0  0  0  0  0  0  0
  151.4586  144.6028  156.9069 H   0  0  0  0  0  0  0  0  0  0  0  0
  150.3247  144.0628  158.1219 H   0  0  0  0  0  0  0  0  0  0  0  0
  152.3939  144.8632  159.1956 H   0  0  0  0  0  0  0  0  0  0  0  0
  153.3719  143.7527  158.2525 H   0  0  0  0  0  0  0  0  0  0  0  0
  1  2  1  0  0  0  0
  1 21  1  0  0  0  0
  1 22  1  0  0  0  0
  1 23  1  0  0  0  0
  2 20  1  0  0  0  0
  2  3  1  0  0  0  0
  3  4  1  0  0  0  0
  3 24  1  0  0  0  0
  3 25  1  0  0  0  0
  4  5  1  0  0  0  0
  4 26  1  0  0  0  0
  4 27  1  0  0  0  0
  5  6  1  0  0  0  0
  5 19  1  0  0  0  0
  5 28  1  0  0  0  0
  6  7  1  0  0  0  0
  6 29  1  0  0  0  0
  7  8  2  0  0  0  0
  7  9  1  0  0  0  0
  9 10  1  0  0  0  0
  9 30  1  0  0  0  0
  9 31  1  0  0  0  0
 10 18  1  0  0  0  0
 10 11  2  0  0  0  0
 11 12  1  0  0  0  0
 11 32  1  0  0  0  0
 12 13  1  0  0  0  0
 13 14  1  0  0  0  0
 13 18  2  0  0  0  0
 14 15  1  0  0  0  0
 14 16  1  0  0  0  0
 14 17  1  0  0  0  0
 15 33  1  0  0  0  0
 15 34  1  0  0  0  0
 15 35  1  0  0  0  0
 16 36  1  0  0  0  0
 16 37  1  0  0  0  0
 16 38  1  0  0  0  0
 17 39  1  0  0  0  0
 17 40  1  0  0  0  0
 17 41  1  0  0  0  0
 19 20  1  0  0  0  0
 19 42  1  0  0  0  0
 19 43  1  0  0  0  0
 20 44  1  0  0  0  0
 20 45  1  0  0  0  0
M  END
> <s_m_source_file>
AV-unprocessed.smi

> <i_m_source_file_index>
1125

> <i_lp_mmshare_version>
43012

> <i_f3d_flags>
0

> <s_epik_input>
W0NIM11OMVtDSDJdW0NIMl1bQ0hdKFtDSDJdW0NIMl0xKVtOSF1DKD1PKVtDSDJdYzJbY0hdc2MobjIpQyhbQ0gzXSkoW0NIM10pW0NIM10=

> <s_epik_cmdline>
J2VwaWtfcHl0aG9uJywgJy1waCcsICc3LjAnLCAnLXRuJywgJzgnLCAnLW1hJywgJzIwMCcsICctbWV0YWxfYmluZGluZycsICctaW1hZScsICc8aW5maWxlLm1hZT4nLCAnLW9tYWUnLCAnPG91dGZpbGUubWFlPic=

> <r_epik_Ionization_Penalty>
2.53567

> <r_epik_Ionization_Penalty_Charging>
0

> <r_epik_Ionization_Penalty_Neutral>
2.53567

> <r_epik_State_Penalty>
2.70312

> <r_epik_Charging_Adjusted_Penalty>
2.70312

> <i_epik_Tot_Q>
0

> <i_epik_Tot_abs_Q>
0

> <r_epik_Metal_State_Penalty>
2.70311

> <b_epik_Metal_Only>
0

> <s_lp_Force_Field>
OPLS_2005

> <r_lp_Energy>
6.33754

> <b_lp_Chiralities_Consistent>
1

> <s_lp_Variant>
AV-unprocessed.smi:1125-3

> <Gold.Version>
5.8.1

> <Gold.Id.Protein>
6NUR|6NUR_protein|mol2

> <Gold.PLP.Fitness>
40.2971

> <Gold.PLP.PLP>
-32.5618

> <Gold.PLP.part.hbond>
-2.0000

> <Gold.PLP.part.metal>
0.0000

> <Gold.PLP.part.buried>
-3.9284

> <Gold.PLP.part.nonpolar>
-26.5816

> <Gold.PLP.part.repulsive>
0.2752

> <Gold.PLP.ligand.clash>
0.0000

> <Gold.PLP.ligand.torsion>
0.3800

> <Gold.PLP.Chemscore.Hbond>
1.9280

> <Gold.PLP.Chemscore.CHOScore>
0.9006

> <Gold.PLP.Chemscore.Metal>
0.0000

> <Gold.Chemscore.Hbonds>
donor molecule, donor type, donor heavy atom, donor atom, acceptor molecule, acceptor atom, score
      L1  H     6    29       P1  8028  0.93
      P1  H  7989  7998       L1     8  1.00
      L1  C    11    32       P1 10175  1.00

> <Gold.PLP.Chemscore.Internal.Correction>
0.0097

> <Gold.Rescore>
     Score         DG    S(hbond)    S(metal)    S(lipo)     H(rot)  DE(clash)    DE(int)     intcor
     16.36     -18.29       1.64        0.00      92.31       1.35       0.17       1.76       ----

> <Gold.Chemscore.Fitness>
16.3608

> <Gold.Chemscore.DG>
-18.2879

> <Gold.Chemscore.ZeroCoef>
-5.4800

> <Gold.Chemscore.Hbond>
1.6376

> <Gold.Chemscore.Metal>
0.0000

> <Gold.Chemscore.Lipo>
92.3148

> <Gold.Chemscore.Internal_Hbond>
0.0000

> <Gold.Chemscore.DEClash>
0.1651

> <Gold.Chemscore.DEInternal>
1.7620

> <Gold.Chemscore.Rot>
1.3526

> <Gold.Chemscore.Internal.Correction>
   9.000000E+99

> <Gold.Chemscore.Hbonds>
donor molecule, donor type, donor heavy atom, donor atom, acceptor molecule, acceptor atom, score
      L1  H     6    29       P1  8028  0.90
      P1  H  7989  7998       L1     8  0.48

> <Gold.Chemscore.Hbond.Weighted>
-5.4697

> <Gold.Chemscore.Metal.Weighted>
-0.0000

> <Gold.Chemscore.Lipo.Weighted>
-10.8008

> <Gold.Chemscore.Internal_Hbond.Weighted>
0.0000

> <Gold.Chemscore.DEClash.Weighted>
0.1651

> <Gold.Chemscore.DEInternal.Weighted>
1.7620

> <Gold.Chemscore.Rot.Weighted>
3.4626

> <Gold.Chemscore.Internal.Correction.Weighted>
   9.000000E+99

> <Gold.Protein.RotatedTorsions>
[ 6907 6896 6895 6894 ] final -174.65 input  -60.11 | X-H torsion
[ 7974 7965 7964 7962 ] final  142.23 input  175.53 | X-H torsion
[ 8008 7997 7996 7995 ] final  -41.75 input   59.86 | X-H torsion
[ 10167 10162 10161 10158 ] final  -74.74 input  -65.29 | X-H torsion
[ 10718 10713 10712 10709 ] final   56.37 input   66.30 | X-H torsion
[ 10763 10752 10751 10750 ] final -101.88 input  -60.55 | X-H torsion
[ 11005 11000 10999 10996 ] final   29.55 input  -57.11 | X-H torsion

> <Gold.Protein.ActiveResidues>
 VAL166  LYS551  ARG553  GLY616  TRP617  ASP618  TYR619  PRO620  LYS621  CYS622 
 ASP623  PHE694  ASN695  SER759  ASP760  ASP761  ALA762  ILE779  LEU786  VAL792 
 PHE793  MET794  SER795  GLU796  ALA797  LYS798  CYS799  TRP800  GLU811  SER814 

> <Gold.Protein.RotatedAtoms>
  151.5758  133.3384  159.2998 H   0  0  0  0  0  0  0  0  0  0  0  0  # atno 6907 bound_to 6896
  150.8341  134.7610  159.6889 H   0  0  0  0  0  0  0  0  0  0  0  0  # atno 6908 bound_to 6896
  152.4420  134.5578  159.9937 H   0  0  0  0  0  0  0  0  0  0  0  0  # atno 6909 bound_to 6896
  144.9026  139.5402  143.5746 H   0  0  0  0  0  0  0  0  0  0  0  0  # atno 7974 bound_to 7965
  154.4002  140.1491  156.3242 H   0  0  0  0  0  0  0  0  0  0  0  0  # atno 8008 bound_to 7997
  155.8502  140.3458  155.5667 H   0  0  0  0  0  0  0  0  0  0  0  0  # atno 8009 bound_to 7997
  155.7992  140.0868  157.1957 H   0  0  0  0  0  0  0  0  0  0  0  0  # atno 8010 bound_to 7997
  140.5001  143.2363  151.7766 H   0  0  0  0  0  0  0  0  0  0  0  0  # atno 10167 bound_to 10162
  157.5425  130.8707  149.8843 H   0  0  0  0  0  0  0  0  0  0  0  0  # atno 10718 bound_to 10713
  154.7691  135.4881  153.9614 H   0  0  0  0  0  0  0  0  0  0  0  0  # atno 10763 bound_to 10752
  153.1345  135.6760  153.9132 H   0  0  0  0  0  0  0  0  0  0  0  0  # atno 10764 bound_to 10752
  153.8825  135.3130  155.3424 H   0  0  0  0  0  0  0  0  0  0  0  0  # atno 10765 bound_to 10752
  140.3037  134.2727  155.7748 H   0  0  0  0  0  0  0  0  0  0  0  0  # atno 11005 bound_to 11000
  146.3116  139.7769  142.9015 LP  0  0  0  0  0  0  0  0  0  0  0  0  # atno 17320 bound_to 7965
  145.3590  141.0322  143.3295 LP  0  0  0  0  0  0  0  0  0  0  0  0  # atno 17321 bound_to 7965
  139.4870  144.4533  151.9628 LP  0  0  0  0  0  0  0  0  0  0  0  0  # atno 17342 bound_to 10162
  140.3622  144.2959  150.5932 LP  0  0  0  0  0  0  0  0  0  0  0  0  # atno 17343 bound_to 10162
  156.0508  130.3718  150.1205 LP  0  0  0  0  0  0  0  0  0  0  0  0  # atno 17370 bound_to 10713
  156.9384  130.9736  151.3520 LP  0  0  0  0  0  0  0  0  0  0  0  0  # atno 17371 bound_to 10713
  141.2123  133.7663  156.9805 LP  0  0  0  0  0  0  0  0  0  0  0  0  # atno 17394 bound_to 11000
  140.1086  134.9491  157.2031 LP  0  0  0  0  0  0  0  0  0  0  0  0  # atno 17395 bound_to 11000

$$$$
