AV-unprocessed.smi:2083|AV-procd|sdf|8495|dock5
  -GOLD-   2272011203D 1   1.00000     0.00000
 Structure written by MMmdl.
 45 46  0  0  0  0  0  0  0  0  2 V2000
  151.8790  140.2644  155.9483 C   0  0  0  0  0  0  0  0  0  0  0  0
  151.5275  138.8624  155.5864 C   0  0  0  0  0  0  0  0  0  0  0  0
  150.5295  138.3194  154.8267 C   0  0  0  0  0  0  0  0  0  0  0  0
  150.7889  136.9254  154.9073 C   0  0  0  0  0  0  0  0  0  0  0  0
  149.9561  135.9897  154.2415 N   0  0  0  0  0  0  0  0  0  0  0  0
  149.5510  134.7904  154.6927 C   0  0  0  0  0  0  0  0  0  0  0  0
  149.8662  134.2962  155.7756 O   0  0  0  0  0  0  0  0  0  0  0  0
  148.7515  134.1782  153.8061 N   0  0  0  0  0  0  0  0  0  0  0  0
  148.1136  132.8785  154.0010 C   0  0  0  0  0  0  0  0  0  0  0  0
  146.5669  132.9546  153.9187 C   0  0  1  0  0  0  0  0  0  0  0  0
  145.9517  133.9946  154.8754 C   0  0  0  0  0  0  0  0  0  0  0  0
  146.0663  133.1691  152.5289 N   0  3  1  0  0  0  0  0  0  0  0  0
  146.3305  132.0566  151.5758 C   0  0  0  0  0  0  0  0  0  0  0  0
  146.0126  132.4876  150.1359 C   0  0  0  0  0  0  0  0  0  0  0  0
  144.5631  132.9818  150.0182 C   0  0  0  0  0  0  0  0  0  0  0  0
  144.2605  134.0853  151.0495 C   0  0  2  0  0  0  0  0  0  0  0  0
  144.9001  135.4352  150.6804 C   0  0  0  0  0  0  0  0  0  0  0  0
  144.6503  133.6231  152.4694 C   0  0  0  0  0  0  0  0  0  0  0  0
  151.8501  136.6428  155.6474 N   0  0  0  0  0  0  0  0  0  0  0  0
  152.3283  137.8829  156.0868 O   0  0  0  0  0  0  0  0  0  0  0  0
  151.1945  140.9715  155.4793 H   0  0  0  0  0  0  0  0  0  0  0  0
  152.8906  140.5054  155.6222 H   0  0  0  0  0  0  0  0  0  0  0  0
  151.8271  140.4091  157.0274 H   0  0  0  0  0  0  0  0  0  0  0  0
  149.7422  138.8387  154.3008 H   0  0  0  0  0  0  0  0  0  0  0  0
  149.6265  136.2695  153.3296 H   0  0  0  0  0  0  0  0  0  0  0  0
  148.5475  134.6590  152.9420 H   0  0  0  0  0  0  0  0  0  0  0  0
  148.5090  132.1618  153.2801 H   0  0  0  0  0  0  0  0  0  0  0  0
  148.4212  132.5191  154.9825 H   0  0  0  0  0  0  0  0  0  0  0  0
  146.1743  131.9906  154.2461 H   0  0  0  0  0  0  0  0  0  0  0  0
  146.1149  133.7203  155.9176 H   0  0  0  0  0  0  0  0  0  0  0  0
  144.8735  134.0717  154.7327 H   0  0  0  0  0  0  0  0  0  0  0  0
  146.3803  134.9862  154.7303 H   0  0  0  0  0  0  0  0  0  0  0  0
  147.3730  131.7447  151.6307 H   0  0  0  0  0  0  0  0  0  0  0  0
  145.7233  131.1885  151.8348 H   0  0  0  0  0  0  0  0  0  0  0  0
  146.7025  133.2723  149.8242 H   0  0  0  0  0  0  0  0  0  0  0  0
  146.1742  131.6515  149.4546 H   0  0  0  0  0  0  0  0  0  0  0  0
  144.3641  133.3370  149.0065 H   0  0  0  0  0  0  0  0  0  0  0  0
  143.8875  132.1416  150.1834 H   0  0  0  0  0  0  0  0  0  0  0  0
  143.1818  134.2467  151.0438 H   0  0  0  0  0  0  0  0  0  0  0  0
  145.9890  135.3859  150.6846 H   0  0  0  0  0  0  0  0  0  0  0  0
  144.6039  136.2134  151.3841 H   0  0  0  0  0  0  0  0  0  0  0  0
  144.5868  135.7577  149.6870 H   0  0  0  0  0  0  0  0  0  0  0  0
  143.9951  132.8079  152.7785 H   0  0  0  0  0  0  0  0  0  0  0  0
  144.4850  134.4387  153.1744 H   0  0  0  0  0  0  0  0  0  0  0  0
  146.6026  133.9524  152.1837 H   0  0  0  0  0  0  0  0  0  0  0  0
  1  2  1  0  0  0  0
  1 21  1  0  0  0  0
  1 22  1  0  0  0  0
  1 23  1  0  0  0  0
  2 20  1  0  0  0  0
  2  3  2  0  0  0  0
  3  4  1  0  0  0  0
  3 24  1  0  0  0  0
  4  5  1  0  0  0  0
  4 19  2  0  0  0  0
  5  6  1  0  0  0  0
  5 25  1  0  0  0  0
  6  7  2  0  0  0  0
  6  8  1  0  0  0  0
  8  9  1  0  0  0  0
  8 26  1  0  0  0  0
  9 10  1  0  0  0  0
  9 27  1  0  0  0  0
  9 28  1  0  0  0  0
 10 11  1  0  0  0  0
 10 12  1  0  0  0  0
 10 29  1  0  0  0  0
 11 30  1  0  0  0  0
 11 31  1  0  0  0  0
 11 32  1  0  0  0  0
 12 18  1  0  0  0  0
 12 13  1  0  0  0  0
 12 45  1  0  0  0  0
 13 14  1  0  0  0  0
 13 33  1  0  0  0  0
 13 34  1  0  0  0  0
 14 15  1  0  0  0  0
 14 35  1  0  0  0  0
 14 36  1  0  0  0  0
 15 16  1  0  0  0  0
 15 37  1  0  0  0  0
 15 38  1  0  0  0  0
 16 17  1  0  0  0  0
 16 18  1  0  0  0  0
 16 39  1  0  0  0  0
 17 40  1  0  0  0  0
 17 41  1  0  0  0  0
 17 42  1  0  0  0  0
 18 43  1  0  0  0  0
 18 44  1  0  0  0  0
 19 20  1  0  0  0  0
M  CHG  1  12   1
M  END
> <s_m_source_file>
AV-unprocessed.smi

> <i_m_source_file_index>
2083

> <i_lp_mmshare_version>
43012

> <i_f3d_flags>
0

> <s_epik_input>
W0NIM11jMVtjSF1jKG5vMSlbTkhdQyg9TylbTkhdW0NIMl1bQ0BIXShbQ0gzXSlOMltDSDJdW0NIMl1bQ0gyXVtDQEBIXShbQ0gzXSlbQ0gyXTI=

> <s_epik_cmdline>
J2VwaWtfcHl0aG9uJywgJy1waCcsICc3LjAnLCAnLXRuJywgJzgnLCAnLW1hJywgJzIwMCcsICctbWV0YWxfYmluZGluZycsICctaW1hZScsICc8aW5maWxlLm1hZT4nLCAnLW9tYWUnLCAnPG91dGZpbGUubWFlPic=

> <r_epik_Ionization_Penalty>
0.00216453

> <r_epik_Ionization_Penalty_Charging>
0.00212879

> <r_epik_Ionization_Penalty_Neutral>
3.57418e-05

> <r_epik_State_Penalty>
0.00146033

> <r_epik_Charging_Adjusted_Penalty>
0.00358912

> <i_epik_Tot_Q>
1

> <i_epik_Tot_abs_Q>
1

> <r_epik_Metal_State_Penalty>
0.0215827

> <b_epik_Metal_Only>
0

> <s_lp_Force_Field>
OPLS_2005

> <r_lp_Energy>
20.2755

> <b_lp_Chiralities_Consistent>
1

> <s_lp_Variant>
AV-unprocessed.smi:2083-6

> <Gold.Version>
5.8.1

> <Gold.Id.Protein>
6NUR|6NUR_protein|mol2

> <Gold.PLP.Fitness>
39.8658

> <Gold.PLP.PLP>
-32.2523

> <Gold.PLP.part.hbond>
-4.0000

> <Gold.PLP.part.metal>
0.0000

> <Gold.PLP.part.buried>
-2.7848

> <Gold.PLP.part.nonpolar>
-25.8186

> <Gold.PLP.part.repulsive>
0.1422

> <Gold.PLP.ligand.clash>
0.0000

> <Gold.PLP.ligand.torsion>
0.5979

> <Gold.PLP.Chemscore.Hbond>
2.8960

> <Gold.PLP.Chemscore.CHOScore>
0.0000

> <Gold.PLP.Chemscore.Metal>
0.0000

> <Gold.Chemscore.Hbonds>
donor molecule, donor type, donor heavy atom, donor atom, acceptor molecule, acceptor atom, score
      L1  H     5    25       P1  7948  1.00
      L1  H     8    26       P1  7948  0.90
      P1  H 10752 10765       L1    19  1.00

> <Gold.PLP.Chemscore.Internal.Correction>
0.1212

> <Gold.Rescore>
     Score         DG    S(hbond)    S(metal)    S(lipo)     H(rot)  DE(clash)    DE(int)     intcor
     16.27     -17.01       2.37        0.00      64.78       1.55       0.00       0.74       ----

> <Gold.Chemscore.Fitness>
16.2717

> <Gold.Chemscore.DG>
-17.0128

> <Gold.Chemscore.ZeroCoef>
-5.4800

> <Gold.Chemscore.Hbond>
2.3697

> <Gold.Chemscore.Metal>
0.0000

> <Gold.Chemscore.Lipo>
64.7810

> <Gold.Chemscore.Internal_Hbond>
0.0000

> <Gold.Chemscore.DEClash>
0.0015

> <Gold.Chemscore.DEInternal>
0.7397

> <Gold.Chemscore.Rot>
1.5474

> <Gold.Chemscore.Internal.Correction>
   9.000000E+99

> <Gold.Chemscore.Hbonds>
donor molecule, donor type, donor heavy atom, donor atom, acceptor molecule, acceptor atom, score
      L1  H     5    25       P1  7948  0.29
      L1  H     8    26       P1  7948  0.26
      P1  H 10752 10765       L1    19  0.80

> <Gold.Chemscore.Hbond.Weighted>
-7.9147

> <Gold.Chemscore.Metal.Weighted>
-0.0000

> <Gold.Chemscore.Lipo.Weighted>
-7.5794

> <Gold.Chemscore.Internal_Hbond.Weighted>
0.0000

> <Gold.Chemscore.DEClash.Weighted>
0.0015

> <Gold.Chemscore.DEInternal.Weighted>
0.7397

> <Gold.Chemscore.Rot.Weighted>
3.9612

> <Gold.Chemscore.Internal.Correction.Weighted>
   9.000000E+99

> <Gold.Protein.RotatedTorsions>
[ 6907 6896 6895 6894 ] final  130.64 input  -60.11 | X-H torsion
[ 7974 7965 7964 7962 ] final   30.27 input  175.53 | X-H torsion
[ 8008 7997 7996 7995 ] final  -88.34 input   59.86 | X-H torsion
[ 10167 10162 10161 10158 ] final -122.10 input  -65.29 | X-H torsion
[ 10718 10713 10712 10709 ] final  166.19 input   66.30 | X-H torsion
[ 10763 10752 10751 10750 ] final -165.99 input  -60.55 | X-H torsion
[ 11005 11000 10999 10996 ] final  108.93 input  -57.11 | X-H torsion

> <Gold.Protein.ActiveResidues>
 VAL166  LYS551  ARG553  GLY616  TRP617  ASP618  TYR619  PRO620  LYS621  CYS622 
 ASP623  PHE694  ASN695  SER759  ASP760  ASP761  ALA762  ILE779  LEU786  VAL792 
 PHE793  MET794  SER795  GLU796  ALA797  LYS798  CYS799  TRP800  GLU811  SER814 

> <Gold.Protein.RotatedAtoms>
  152.3506  133.6175  159.5941 H   0  0  0  0  0  0  0  0  0  0  0  0  # atno 6907 bound_to 6896
  150.7535  133.9580  159.3515 H   0  0  0  0  0  0  0  0  0  0  0  0  # atno 6908 bound_to 6896
  151.7432  135.0850  160.0370 H   0  0  0  0  0  0  0  0  0  0  0  0  # atno 6909 bound_to 6896
  146.1622  139.6811  142.9026 H   0  0  0  0  0  0  0  0  0  0  0  0  # atno 7974 bound_to 7965
  154.6737  140.0555  157.0193 H   0  0  0  0  0  0  0  0  0  0  0  0  # atno 8008 bound_to 7997
  155.1051  140.3233  155.4518 H   0  0  0  0  0  0  0  0  0  0  0  0  # atno 8009 bound_to 7997
  156.2667  140.2024  156.6177 H   0  0  0  0  0  0  0  0  0  0  0  0  # atno 8010 bound_to 7997
  140.0178  143.5375  152.2234 H   0  0  0  0  0  0  0  0  0  0  0  0  # atno 10167 bound_to 10162
  157.0694  131.0362  151.2617 H   0  0  0  0  0  0  0  0  0  0  0  0  # atno 10718 bound_to 10713
  154.6877  135.2965  154.9523 H   0  0  0  0  0  0  0  0  0  0  0  0  # atno 10763 bound_to 10752
  154.0497  135.6646  153.4803 H   0  0  0  0  0  0  0  0  0  0  0  0  # atno 10764 bound_to 10752
  153.0590  135.5127  154.7953 H   0  0  0  0  0  0  0  0  0  0  0  0  # atno 10765 bound_to 10752
  139.8853  134.9444  156.6049 H   0  0  0  0  0  0  0  0  0  0  0  0  # atno 11005 bound_to 11000
  145.4560  141.0430  143.2778 LP  0  0  0  0  0  0  0  0  0  0  0  0  # atno 17320 bound_to 7965
  144.8042  139.6082  143.7058 LP  0  0  0  0  0  0  0  0  0  0  0  0  # atno 17321 bound_to 7965
  139.6160  144.7619  151.2845 LP  0  0  0  0  0  0  0  0  0  0  0  0  # atno 17342 bound_to 10162
  140.7355  143.6735  150.8061 LP  0  0  0  0  0  0  0  0  0  0  0  0  # atno 17343 bound_to 10162
  157.4890  130.7810  149.7489 LP  0  0  0  0  0  0  0  0  0  0  0  0  # atno 17370 bound_to 10713
  155.9955  130.3911  150.2817 LP  0  0  0  0  0  0  0  0  0  0  0  0  # atno 17371 bound_to 10713
  140.7856  133.8624  155.8603 LP  0  0  0  0  0  0  0  0  0  0  0  0  # atno 17394 bound_to 11000
  140.9722  134.1516  157.4566 LP  0  0  0  0  0  0  0  0  0  0  0  0  # atno 17395 bound_to 11000

$$$$
