AV-unprocessed.smi:855|AV-procd|sdf|3958|dock8
  -GOLD-   22720 1433D 1   1.00000     0.00000
 Structure written by MMmdl.
 35 36  0  0  0  0  0  0  0  0  3 V2000
  151.7974  145.3171  158.9715 C   0  0  0  0  0  0  0  0  0  0  0  0
  152.0949  144.1507  159.8498 C   0  0  0  0  0  0  0  0  0  0  0  0
  152.9209  143.0706  159.7146 C   0  0  0  0  0  0  0  0  0  0  0  0
  152.7129  142.3538  160.9232 C   0  0  0  0  0  0  0  0  0  0  0  0
  153.4035  141.1380  161.1717 N   0  0  0  0  0  0  0  0  0  0  0  0
  154.0522  140.3442  160.2999 C   0  0  0  0  0  0  0  0  0  0  0  0
  154.0890  140.6348  159.0984 O   0  0  0  0  0  0  0  0  0  0  0  0
  154.6131  139.2632  160.9081 N   0  5  0  0  0  0  0  0  0  0  0  0
  155.8981  139.2820  161.6087 C   0  0  0  0  0  0  0  0  0  0  0  0
  155.6786  139.0063  163.1099 C   0  0  0  0  0  0  0  0  0  0  0  0
  154.7021  137.9121  163.3607 N   0  3  0  0  0  0  0  0  0  0  0  0
  154.9116  136.6989  162.5342 C   0  0  0  0  0  0  0  0  0  0  0  0
  154.6674  135.4868  163.4433 C   0  0  0  0  0  0  0  0  0  0  0  0
  153.9815  136.0609  164.6782 C   0  0  0  0  0  0  0  0  0  0  0  0
  154.5647  137.4665  164.7673 C   0  0  0  0  0  0  0  0  0  0  0  0
  151.8391  142.9456  161.7241 N   0  0  0  0  0  0  0  0  0  0  0  0
  151.4390  144.0998  161.0406 O   0  0  0  0  0  0  0  0  0  0  0  0
  152.2695  145.2010  157.9958 H   0  0  0  0  0  0  0  0  0  0  0  0
  152.1660  146.2403  159.4186 H   0  0  0  0  0  0  0  0  0  0  0  0
  150.7233  145.4204  158.8167 H   0  0  0  0  0  0  0  0  0  0  0  0
  153.5681  142.8327  158.8835 H   0  0  0  0  0  0  0  0  0  0  0  0
  153.4123  140.8321  162.1330 H   0  0  0  0  0  0  0  0  0  0  0  0
  156.5832  138.5324  161.2118 H   0  0  0  0  0  0  0  0  0  0  0  0
  156.4076  140.2401  161.4977 H   0  0  0  0  0  0  0  0  0  0  0  0
  156.6413  138.7299  163.5433 H   0  0  0  0  0  0  0  0  0  0  0  0
  155.3643  139.9140  163.6260 H   0  0  0  0  0  0  0  0  0  0  0  0
  154.2072  136.7175  161.7021 H   0  0  0  0  0  0  0  0  0  0  0  0
  155.9183  136.6572  162.1154 H   0  0  0  0  0  0  0  0  0  0  0  0
  154.0757  134.7096  162.9588 H   0  0  0  0  0  0  0  0  0  0  0  0
  155.6231  135.0459  163.7295 H   0  0  0  0  0  0  0  0  0  0  0  0
  152.9045  136.1150  164.5144 H   0  0  0  0  0  0  0  0  0  0  0  0
  154.1582  135.4694  165.5769 H   0  0  0  0  0  0  0  0  0  0  0  0
  155.5462  137.4250  165.2423 H   0  0  0  0  0  0  0  0  0  0  0  0
  153.9346  138.1396  165.3494 H   0  0  0  0  0  0  0  0  0  0  0  0
  153.8010  138.2775  163.0846 H   0  0  0  0  0  0  0  0  0  0  0  0
  1  2  1  0  0  0  0
  1 18  1  0  0  0  0
  1 19  1  0  0  0  0
  1 20  1  0  0  0  0
  2 17  1  0  0  0  0
  2  3  2  0  0  0  0
  3  4  1  0  0  0  0
  3 21  1  0  0  0  0
  4  5  1  0  0  0  0
  4 16  2  0  0  0  0
  5  6  1  0  0  0  0
  5 22  1  0  0  0  0
  6  7  2  0  0  0  0
  6  8  1  0  0  0  0
  8  9  1  0  0  0  0
  9 10  1  0  0  0  0
  9 23  1  0  0  0  0
  9 24  1  0  0  0  0
 10 11  1  0  0  0  0
 10 25  1  0  0  0  0
 10 26  1  0  0  0  0
 11 15  1  0  0  0  0
 11 12  1  0  0  0  0
 11 35  1  0  0  0  0
 12 13  1  0  0  0  0
 12 27  1  0  0  0  0
 12 28  1  0  0  0  0
 13 14  1  0  0  0  0
 13 29  1  0  0  0  0
 13 30  1  0  0  0  0
 14 15  1  0  0  0  0
 14 31  1  0  0  0  0
 14 32  1  0  0  0  0
 15 33  1  0  0  0  0
 15 34  1  0  0  0  0
 16 17  1  0  0  0  0
M  CHG  1   8  -1
M  CHG  1  11   1
M  END
> <s_m_source_file>
AV-unprocessed.smi

> <i_m_source_file_index>
855

> <i_lp_mmshare_version>
43012

> <i_f3d_flags>
0

> <s_epik_input>
W0NIM11jMVtjSF1jKG5vMSlbTkhdQyg9TylbTkhdW0NIMl1bQ0gyXU4yW0NIMl1bQ0gyXVtDSDJdW0NIMl0y

> <s_epik_cmdline>
J2VwaWtfcHl0aG9uJywgJy1waCcsICc3LjAnLCAnLXRuJywgJzgnLCAnLW1hJywgJzIwMCcsICctbWV0YWxfYmluZGluZycsICctaW1hZScsICc8aW5maWxlLm1hZT4nLCAnLW9tYWUnLCAnPG91dGZpbGUubWFlPic=

> <r_epik_Ionization_Penalty>
6.76467

> <r_epik_Ionization_Penalty_Charging>
6.76466

> <r_epik_Ionization_Penalty_Neutral>
5.76722e-06

> <r_epik_State_Penalty>
6.79042

> <r_epik_Charging_Adjusted_Penalty>
13.5551

> <i_epik_Tot_Q>
0

> <i_epik_Tot_abs_Q>
2

> <r_epik_Metal_State_Penalty>
2.72416

> <b_epik_Metal_Only>
1

> <s_lp_Force_Field>
OPLS_2005

> <r_lp_Energy>
21.5232

> <b_lp_Chiralities_Consistent>
1

> <s_lp_Variant>
AV-unprocessed.smi:855-3

> <Gold.Version>
5.8.1

> <Gold.Id.Protein>
6NUR|6NUR_protein|mol2

> <Gold.PLP.Fitness>
37.1293

> <Gold.PLP.PLP>
-35.2763

> <Gold.PLP.part.hbond>
-2.2133

> <Gold.PLP.part.metal>
0.0000

> <Gold.PLP.part.buried>
-3.2305

> <Gold.PLP.part.nonpolar>
-29.7270

> <Gold.PLP.part.repulsive>
0.3322

> <Gold.PLP.ligand.clash>
0.0000

> <Gold.PLP.ligand.torsion>
0.9412

> <Gold.PLP.Chemscore.Hbond>
1.2229

> <Gold.PLP.Chemscore.CHOScore>
0.0000

> <Gold.PLP.Chemscore.Metal>
0.0000

> <Gold.Chemscore.Hbonds>
donor molecule, donor type, donor heavy atom, donor atom, acceptor molecule, acceptor atom, score
      P1  H  6933  6945       L1    16  0.40
      P1  H  7997  8008       L1     7  0.50

> <Gold.PLP.Chemscore.Internal.Correction>
0.0667

> <Gold.Rescore>
     Score         DG    S(hbond)    S(metal)    S(lipo)     H(rot)  DE(clash)    DE(int)     intcor
     11.85     -14.24       1.00        0.00      80.84       1.57       0.09       2.30       ----

> <Gold.Chemscore.Fitness>
11.8509

> <Gold.Chemscore.DG>
-14.2440

> <Gold.Chemscore.ZeroCoef>
-5.4800

> <Gold.Chemscore.Hbond>
0.9979

> <Gold.Chemscore.Metal>
0.0000

> <Gold.Chemscore.Lipo>
80.8374

> <Gold.Chemscore.Internal_Hbond>
0.0000

> <Gold.Chemscore.DEClash>
0.0904

> <Gold.Chemscore.DEInternal>
2.3027

> <Gold.Chemscore.Rot>
1.5731

> <Gold.Chemscore.Internal.Correction>
   9.000000E+99

> <Gold.Chemscore.Hbonds>
donor molecule, donor type, donor heavy atom, donor atom, acceptor molecule, acceptor atom, score
      P1  H  6933  6945       L1    16  0.24
      P1  H  7997  8008       L1     7  0.50

> <Gold.Chemscore.Hbond.Weighted>
-3.3331

> <Gold.Chemscore.Metal.Weighted>
-0.0000

> <Gold.Chemscore.Lipo.Weighted>
-9.4580

> <Gold.Chemscore.Internal_Hbond.Weighted>
0.0000

> <Gold.Chemscore.DEClash.Weighted>
0.0904

> <Gold.Chemscore.DEInternal.Weighted>
2.3027

> <Gold.Chemscore.Rot.Weighted>
4.0271

> <Gold.Chemscore.Internal.Correction.Weighted>
   9.000000E+99

> <Gold.Protein.RotatedTorsions>
[ 6907 6896 6895 6894 ] final  118.90 input  -60.11 | X-H torsion
[ 7974 7965 7964 7962 ] final  -84.44 input  175.53 | X-H torsion
[ 8008 7997 7996 7995 ] final -121.36 input   59.86 | X-H torsion
[ 10167 10162 10161 10158 ] final -157.02 input  -65.29 | X-H torsion
[ 10718 10713 10712 10709 ] final  124.93 input   66.30 | X-H torsion
[ 10763 10752 10751 10750 ] final   63.82 input  -60.55 | X-H torsion
[ 11005 11000 10999 10996 ] final  143.36 input  -57.11 | X-H torsion

> <Gold.Protein.ActiveResidues>
 VAL166  LYS551  ARG553  GLY616  TRP617  ASP618  TYR619  PRO620  LYS621  CYS622 
 ASP623  PHE694  ASN695  SER759  ASP760  ASP761  ALA762  ILE779  LEU786  VAL792 
 PHE793  MET794  SER795  GLU796  ALA797  LYS798  CYS799  TRP800  GLU811  SER814 

> <Gold.Protein.RotatedAtoms>
  152.4510  133.7629  159.6756 H   0  0  0  0  0  0  0  0  0  0  0  0  # atno 6907 bound_to 6896
  150.8422  133.7907  159.3062 H   0  0  0  0  0  0  0  0  0  0  0  0  # atno 6908 bound_to 6896
  151.5529  135.1070  160.0006 H   0  0  0  0  0  0  0  0  0  0  0  0  # atno 6909 bound_to 6896
  145.5066  140.9543  143.1730 H   0  0  0  0  0  0  0  0  0  0  0  0  # atno 7974 bound_to 7965
  155.1467  140.0403  157.2811 H   0  0  0  0  0  0  0  0  0  0  0  0  # atno 8008 bound_to 7997
  154.6433  140.2552  155.7270 H   0  0  0  0  0  0  0  0  0  0  0  0  # atno 8009 bound_to 7997
  156.2543  140.2851  156.0836 H   0  0  0  0  0  0  0  0  0  0  0  0  # atno 8010 bound_to 7997
  139.6803  143.9592  152.2333 H   0  0  0  0  0  0  0  0  0  0  0  0  # atno 10167 bound_to 10162
  157.5544  131.1092  150.8646 H   0  0  0  0  0  0  0  0  0  0  0  0  # atno 10718 bound_to 10713
  153.0032  135.5415  154.6412 H   0  0  0  0  0  0  0  0  0  0  0  0  # atno 10763 bound_to 10752
  154.5667  135.2838  155.0869 H   0  0  0  0  0  0  0  0  0  0  0  0  # atno 10764 bound_to 10752
  154.2051  135.6477  153.5151 H   0  0  0  0  0  0  0  0  0  0  0  0  # atno 10765 bound_to 10752
  140.0548  134.9237  157.1080 H   0  0  0  0  0  0  0  0  0  0  0  0  # atno 11005 bound_to 11000
  144.7751  139.6649  143.7178 LP  0  0  0  0  0  0  0  0  0  0  0  0  # atno 17320 bound_to 7965
  146.2193  139.5606  142.9629 LP  0  0  0  0  0  0  0  0  0  0  0  0  # atno 17321 bound_to 7965
  139.9380  144.6699  150.8295 LP  0  0  0  0  0  0  0  0  0  0  0  0  # atno 17342 bound_to 10162
  140.7650  143.3263  151.2508 LP  0  0  0  0  0  0  0  0  0  0  0  0  # atno 17343 bound_to 10162
  156.9162  130.5298  149.5279 LP  0  0  0  0  0  0  0  0  0  0  0  0  # atno 17370 bound_to 10713
  156.0605  130.5659  150.9183 LP  0  0  0  0  0  0  0  0  0  0  0  0  # atno 17371 bound_to 10713
  140.3862  134.2234  155.7168 LP  0  0  0  0  0  0  0  0  0  0  0  0  # atno 17394 bound_to 11000
  141.1947  133.8123  157.0747 LP  0  0  0  0  0  0  0  0  0  0  0  0  # atno 17395 bound_to 11000

$$$$
