AV-unprocessed.smi:648|AV-procd|sdf|3170|dock8
  -GOLD-   22720 0 93D 1   1.00000     0.00000
 Structure written by MMmdl.
 46 47  0  0  0  0  0  0  0  0  2 V2000
  144.8879  133.7183  150.4298 C   0  0  0  0  0  0  0  0  0  0  0  0
  144.9261  134.6666  151.6370 C   0  0  2  0  0  0  0  0  0  0  0  0
  143.5134  134.8960  152.2073 C   0  0  0  0  0  0  0  0  0  0  0  0
  143.4827  135.8487  153.4261 C   0  0  0  0  0  0  0  0  0  0  0  0
  142.0137  136.2076  153.7294 C   0  0  0  0  0  0  0  0  0  0  0  0
  144.0415  135.1494  154.6864 C   0  0  0  0  0  0  0  0  0  0  0  0
  144.2429  137.1626  153.0863 C   0  0  0  0  0  0  0  0  0  0  0  0
  145.6591  137.0051  152.4538 C   0  0  1  0  0  0  0  0  0  0  0  0
  146.1873  138.3783  151.9510 C   0  0  0  0  0  0  0  0  0  0  0  0
  147.4217  138.2825  151.2685 O   0  0  0  0  0  0  0  0  0  0  0  0
  146.6415  136.4450  153.4219 N   0  3  0  0  0  0  0  0  0  0  0  0
  146.8165  137.1183  154.7315 C   0  0  0  0  0  0  0  0  0  0  0  0
  148.2307  136.8872  155.2870 C   0  0  0  0  0  0  0  0  0  0  0  0
  149.0658  138.0695  155.1803 N   0  0  0  0  0  0  0  0  0  0  0  0
  149.4572  138.7608  154.1087 C   0  0  0  0  0  0  0  0  0  0  0  0
  150.2344  139.7956  154.3950 N   0  0  0  0  0  0  0  0  0  0  0  0
  150.2794  139.6795  155.7554 C   0  0  0  0  0  0  0  0  0  0  0  0
  149.5980  138.6591  156.2768 N   0  0  0  0  0  0  0  0  0  0  0  0
  145.5760  136.0137  151.2645 C   0  0  0  0  0  0  0  0  0  0  0  0
  144.2931  134.1337  149.6154 H   0  0  0  0  0  0  0  0  0  0  0  0
  144.4541  132.7555  150.7004 H   0  0  0  0  0  0  0  0  0  0  0  0
  145.8911  133.5298  150.0463 H   0  0  0  0  0  0  0  0  0  0  0  0
  145.5369  134.1792  152.3965 H   0  0  0  0  0  0  0  0  0  0  0  0
  142.8859  135.3070  151.4145 H   0  0  0  0  0  0  0  0  0  0  0  0
  143.0630  133.9388  152.4745 H   0  0  0  0  0  0  0  0  0  0  0  0
  141.9373  136.8822  154.5829 H   0  0  0  0  0  0  0  0  0  0  0  0
  141.4255  135.3187  153.9610 H   0  0  0  0  0  0  0  0  0  0  0  0
  141.5350  136.6996  152.8817 H   0  0  0  0  0  0  0  0  0  0  0  0
  144.0640  135.8296  155.5382 H   0  0  0  0  0  0  0  0  0  0  0  0
  145.0475  134.7586  154.5522 H   0  0  0  0  0  0  0  0  0  0  0  0
  143.4187  134.3001  154.9697 H   0  0  0  0  0  0  0  0  0  0  0  0
  143.6272  137.7044  152.3671 H   0  0  0  0  0  0  0  0  0  0  0  0
  144.2718  137.8166  153.9574 H   0  0  0  0  0  0  0  0  0  0  0  0
  145.4808  138.8442  151.2644 H   0  0  0  0  0  0  0  0  0  0  0  0
  146.3187  139.0656  152.7878 H   0  0  0  0  0  0  0  0  0  0  0  0
  148.0121  138.9340  151.6159 H   0  0  0  0  0  0  0  0  0  0  0  0
  146.3675  135.4904  153.6055 H   0  0  0  0  0  0  0  0  0  0  0  0
  146.6351  138.1890  154.6436 H   0  0  0  0  0  0  0  0  0  0  0  0
  146.0985  136.7282  155.4505 H   0  0  0  0  0  0  0  0  0  0  0  0
  148.1717  136.6094  156.3401 H   0  0  0  0  0  0  0  0  0  0  0  0
  148.7190  136.0575  154.7733 H   0  0  0  0  0  0  0  0  0  0  0  0
  149.1709  138.5014  153.1001 H   0  0  0  0  0  0  0  0  0  0  0  0
  150.8337  140.3649  156.3792 H   0  0  0  0  0  0  0  0  0  0  0  0
  146.5730  135.8425  150.8554 H   0  0  0  0  0  0  0  0  0  0  0  0
  144.9936  136.4500  150.4521 H   0  0  0  0  0  0  0  0  0  0  0  0
  147.5437  136.4253  152.9675 H   0  0  0  0  0  0  0  0  0  0  0  0
  1  2  1  0  0  0  0
  1 20  1  0  0  0  0
  1 21  1  0  0  0  0
  1 22  1  0  0  0  0
  2 19  1  0  0  0  0
  2  3  1  0  0  0  0
  2 23  1  0  0  0  0
  3  4  1  0  0  0  0
  3 24  1  0  0  0  0
  3 25  1  0  0  0  0
  4  5  1  0  0  0  0
  4  6  1  0  0  0  0
  4  7  1  0  0  0  0
  5 26  1  0  0  0  0
  5 27  1  0  0  0  0
  5 28  1  0  0  0  0
  6 29  1  0  0  0  0
  6 30  1  0  0  0  0
  6 31  1  0  0  0  0
  7  8  1  0  0  0  0
  7 32  1  0  0  0  0
  7 33  1  0  0  0  0
  8  9  1  0  0  0  0
  8 11  1  0  0  0  0
  8 19  1  0  0  0  0
  9 10  1  0  0  0  0
  9 34  1  0  0  0  0
  9 35  1  0  0  0  0
 10 36  1  0  0  0  0
 11 12  1  0  0  0  0
 11 37  1  0  0  0  0
 11 46  1  0  0  0  0
 12 13  1  0  0  0  0
 12 38  1  0  0  0  0
 12 39  1  0  0  0  0
 13 14  1  0  0  0  0
 13 40  1  0  0  0  0
 13 41  1  0  0  0  0
 14 18  1  0  0  0  0
 14 15  1  0  0  0  0
 15 16  2  0  0  0  0
 15 42  1  0  0  0  0
 16 17  1  0  0  0  0
 17 18  2  0  0  0  0
 17 43  1  0  0  0  0
 19 44  1  0  0  0  0
 19 45  1  0  0  0  0
M  CHG  1  11   1
M  END
> <s_m_source_file>
AV-unprocessed.smi

> <i_m_source_file_index>
648

> <i_lp_mmshare_version>
43012

> <i_f3d_flags>
0

> <s_epik_input>
W0NIM11DMShbQ0gzXSlbQ0gyXVtDQEBIXShbQ0gzXSlbQ0gyXVtDQF0oW0NIMl0xKShbQ0gyXVtPSF0pW05IXVtDSDJdW0NIMl1uMltjSF1uW2NIXW4y

> <s_epik_cmdline>
J2VwaWtfcHl0aG9uJywgJy1waCcsICc3LjAnLCAnLXRuJywgJzgnLCAnLW1hJywgJzIwMCcsICctbWV0YWxfYmluZGluZycsICctaW1hZScsICc8aW5maWxlLm1hZT4nLCAnLW9tYWUnLCAnPG91dGZpbGUubWFlPic=

> <r_lp_tautomer_probability>
1

> <r_epik_Ionization_Penalty>
0.00942316

> <r_epik_Ionization_Penalty_Charging>
0.00942185

> <r_epik_Ionization_Penalty_Neutral>
1.31257e-06

> <r_epik_State_Penalty>
0.00715409

> <r_epik_Charging_Adjusted_Penalty>
0.0165759

> <i_epik_Tot_Q>
1

> <i_epik_Tot_abs_Q>
1

> <r_epik_Metal_State_Penalty>
0.00715563

> <b_epik_Metal_Only>
0

> <s_lp_Force_Field>
OPLS_2005

> <r_lp_Energy>
29.4172

> <b_lp_Chiralities_Consistent>
1

> <s_lp_Variant>
AV-unprocessed.smi:648-1

> <Gold.Version>
5.8.1

> <Gold.Id.Protein>
6NUR|6NUR_protein|mol2

> <Gold.PLP.Fitness>
47.8499

> <Gold.PLP.PLP>
-28.8276

> <Gold.PLP.part.hbond>
-5.0000

> <Gold.PLP.part.metal>
0.0000

> <Gold.PLP.part.buried>
-3.6347

> <Gold.PLP.part.nonpolar>
-21.3007

> <Gold.PLP.part.repulsive>
0.1233

> <Gold.PLP.ligand.clash>
0.0000

> <Gold.PLP.ligand.torsion>
0.5368

> <Gold.PLP.Chemscore.Hbond>
4.8480

> <Gold.PLP.Chemscore.CHOScore>
1.8409

> <Gold.PLP.Chemscore.Metal>
0.0000

> <Gold.Chemscore.Hbonds>
donor molecule, donor type, donor heavy atom, donor atom, acceptor molecule, acceptor atom, score
      L1  H    10    36       P1  7957  0.82
      L1  H    11    46       P1  7948  2.00
      P1  H  7954  7966       L1    10  1.00
      P1  H  7989  7998       L1    16  1.00
      L1  C    15    42       P1  7948  0.92
      L1  C    15    42       P1  7957  0.85

> <Gold.PLP.Chemscore.Internal.Correction>
0.0293

> <Gold.Rescore>
     Score         DG    S(hbond)    S(metal)    S(lipo)     H(rot)  DE(clash)    DE(int)     intcor
     13.92     -14.48       3.30        0.00      52.21       3.17       0.01       0.55       ----

> <Gold.Chemscore.Fitness>
13.9220

> <Gold.Chemscore.DG>
-14.4798

> <Gold.Chemscore.ZeroCoef>
-5.4800

> <Gold.Chemscore.Hbond>
3.2991

> <Gold.Chemscore.Metal>
0.0000

> <Gold.Chemscore.Lipo>
52.2104

> <Gold.Chemscore.Internal_Hbond>
0.0000

> <Gold.Chemscore.DEClash>
0.0073

> <Gold.Chemscore.DEInternal>
0.5504

> <Gold.Chemscore.Rot>
3.1750

> <Gold.Chemscore.Internal.Correction>
   9.000000E+99

> <Gold.Chemscore.Hbonds>
donor molecule, donor type, donor heavy atom, donor atom, acceptor molecule, acceptor atom, score
      L1  H    10    36       P1  7957  0.66
      L1  H    11    46       P1  7948  1.00
      P1  H  7954  7966       L1    10  0.29
      P1  H  7989  7998       L1    16  0.94

> <Gold.Chemscore.Hbond.Weighted>
-11.0191

> <Gold.Chemscore.Metal.Weighted>
-0.0000

> <Gold.Chemscore.Lipo.Weighted>
-6.1086

> <Gold.Chemscore.Internal_Hbond.Weighted>
0.0000

> <Gold.Chemscore.DEClash.Weighted>
0.0073

> <Gold.Chemscore.DEInternal.Weighted>
0.5504

> <Gold.Chemscore.Rot.Weighted>
8.1279

> <Gold.Chemscore.Internal.Correction.Weighted>
   9.000000E+99

> <Gold.Protein.RotatedTorsions>
[ 6907 6896 6895 6894 ] final  172.57 input  -60.11 | X-H torsion
[ 7974 7965 7964 7962 ] final    6.58 input  175.53 | X-H torsion
[ 8008 7997 7996 7995 ] final -117.18 input   59.86 | X-H torsion
[ 10167 10162 10161 10158 ] final   20.99 input  -65.29 | X-H torsion
[ 10718 10713 10712 10709 ] final   35.23 input   66.30 | X-H torsion
[ 10763 10752 10751 10750 ] final  120.95 input  -60.55 | X-H torsion
[ 11005 11000 10999 10996 ] final -160.36 input  -57.11 | X-H torsion

> <Gold.Protein.ActiveResidues>
 VAL166  LYS551  ARG553  GLY616  TRP617  ASP618  TYR619  PRO620  LYS621  CYS622 
 ASP623  PHE694  ASN695  SER759  ASP760  ASP761  ALA762  ILE779  LEU786  VAL792 
 PHE793  MET794  SER795  GLU796  ALA797  LYS798  CYS799  TRP800  GLU811  SER814 

> <Gold.Protein.RotatedAtoms>
  151.7822  133.3351  159.3474 H   0  0  0  0  0  0  0  0  0  0  0  0  # atno 6907 bound_to 6896
  150.7422  134.5920  159.6002 H   0  0  0  0  0  0  0  0  0  0  0  0  # atno 6908 bound_to 6896
  152.3268  134.7312  160.0351 H   0  0  0  0  0  0  0  0  0  0  0  0  # atno 6909 bound_to 6896
  146.2433  140.0212  142.8398 H   0  0  0  0  0  0  0  0  0  0  0  0  # atno 7974 bound_to 7965
  155.0797  140.0394  157.2635 H   0  0  0  0  0  0  0  0  0  0  0  0  # atno 8008 bound_to 7997
  154.6917  140.2654  155.6781 H   0  0  0  0  0  0  0  0  0  0  0  0  # atno 8009 bound_to 7997
  156.2731  140.2758  156.1497 H   0  0  0  0  0  0  0  0  0  0  0  0  # atno 8010 bound_to 7997
  140.5461  143.9591  150.6549 H   0  0  0  0  0  0  0  0  0  0  0  0  # atno 10167 bound_to 10162
  157.3202  130.7444  149.6780 H   0  0  0  0  0  0  0  0  0  0  0  0  # atno 10718 bound_to 10713
  153.6065  135.3438  155.2964 H   0  0  0  0  0  0  0  0  0  0  0  0  # atno 10763 bound_to 10752
  154.8626  135.4240  154.2356 H   0  0  0  0  0  0  0  0  0  0  0  0  # atno 10764 bound_to 10752
  153.3197  135.7037  153.7114 H   0  0  0  0  0  0  0  0  0  0  0  0  # atno 10765 bound_to 10752
  140.6324  134.4637  157.5230 H   0  0  0  0  0  0  0  0  0  0  0  0  # atno 11005 bound_to 11000
  145.1239  140.9479  143.4584 LP  0  0  0  0  0  0  0  0  0  0  0  0  # atno 17320 bound_to 7965
  145.0454  139.3226  143.5956 LP  0  0  0  0  0  0  0  0  0  0  0  0  # atno 17321 bound_to 7965
  140.3005  143.3264  152.0976 LP  0  0  0  0  0  0  0  0  0  0  0  0  # atno 17342 bound_to 10162
  139.5008  144.6700  151.6266 LP  0  0  0  0  0  0  0  0  0  0  0  0  # atno 17343 bound_to 10162
  155.9685  130.4225  150.4521 LP  0  0  0  0  0  0  0  0  0  0  0  0  # atno 17370 bound_to 10713
  157.2535  131.0551  151.2365 LP  0  0  0  0  0  0  0  0  0  0  0  0  # atno 17371 bound_to 10713
  139.9111  134.8343  156.1526 LP  0  0  0  0  0  0  0  0  0  0  0  0  # atno 17394 bound_to 11000
  141.0666  133.6816  156.2056 LP  0  0  0  0  0  0  0  0  0  0  0  0  # atno 17395 bound_to 11000

$$$$
