AV-unprocessed.smi:1824|AV-procd|sdf|7394|dock5
  -GOLD-   22720 9 63D 1   1.00000     0.00000
 Structure written by MMmdl.
 44 46  0  0  0  0  0  0  0  0  1 V2000
  151.1886  137.4245  154.5737 C   0  0  0  0  0  0  0  0  0  0  0  0
  150.4100  138.6829  154.1758 C   0  0  1  0  0  0  0  0  0  0  0  0
  148.9433  138.3727  153.8214 C   0  0  0  0  0  0  0  0  0  0  0  0
  148.1852  139.5809  153.5161 N   0  0  0  0  0  0  0  0  0  0  0  0
  146.8001  139.2572  153.1734 C   0  0  0  0  0  0  0  0  0  0  0  0
  146.6211  138.0623  152.2130 C   0  0  2  0  0  0  0  0  0  0  0  0
  146.6113  138.5381  150.8803 O   0  0  0  0  0  0  0  0  0  0  0  0
  145.3019  137.3084  152.4730 C   0  0  0  0  0  0  0  0  0  0  0  0
  145.3251  135.9516  151.9554 N   0  0  0  0  0  0  0  0  0  0  0  0
  144.6951  135.4880  150.8587 C   0  0  0  0  0  0  0  0  0  0  0  0
  144.8536  134.2007  150.5638 N   0  0  0  0  0  0  0  0  0  0  0  0
  145.6824  133.7789  151.5891 C   0  0  0  0  0  0  0  0  0  0  0  0
  146.2300  132.5048  151.8611 C   0  0  0  0  0  0  0  0  0  0  0  0
  147.0624  132.3088  152.9829 C   0  0  0  0  0  0  0  0  0  0  0  0
  147.5783  131.0812  153.2289 F   0  0  0  0  0  0  0  0  0  0  0  0
  147.3594  133.3827  153.8484 C   0  0  0  0  0  0  0  0  0  0  0  0
  148.1602  133.1863  154.9225 F   0  0  0  0  0  0  0  0  0  0  0  0
  146.8247  134.6611  153.5983 C   0  0  0  0  0  0  0  0  0  0  0  0
  145.9953  134.8515  152.4779 C   0  0  0  0  0  0  0  0  0  0  0  0
  148.2871  140.5008  154.6459 C   0  0  0  0  0  0  0  0  0  0  0  0
  149.7522  140.8132  155.0069 C   0  0  1  0  0  0  0  0  0  0  0  0
  149.8645  141.7086  156.2448 C   0  0  0  0  0  0  0  0  0  0  0  0
  150.4390  139.5933  155.2713 O   0  0  0  0  0  0  0  0  0  0  0  0
  151.2017  136.6982  153.7606 H   0  0  0  0  0  0  0  0  0  0  0  0
  150.7434  136.9442  155.4452 H   0  0  0  0  0  0  0  0  0  0  0  0
  152.2228  137.6674  154.8188 H   0  0  0  0  0  0  0  0  0  0  0  0
  150.9039  139.1445  153.3190 H   0  0  0  0  0  0  0  0  0  0  0  0
  148.9163  137.6954  152.9668 H   0  0  0  0  0  0  0  0  0  0  0  0
  148.4735  137.8437  154.6524 H   0  0  0  0  0  0  0  0  0  0  0  0
  146.2863  139.0062  154.1023 H   0  0  0  0  0  0  0  0  0  0  0  0
  146.2832  140.1385  152.7892 H   0  0  0  0  0  0  0  0  0  0  0  0
  147.4520  137.3650  152.3308 H   0  0  0  0  0  0  0  0  0  0  0  0
  145.7694  138.3409  150.4994 H   0  0  0  0  0  0  0  0  0  0  0  0
  145.1022  137.2562  153.5440 H   0  0  0  0  0  0  0  0  0  0  0  0
  144.4619  137.8410  152.0243 H   0  0  0  0  0  0  0  0  0  0  0  0
  144.0881  136.1331  150.2402 H   0  0  0  0  0  0  0  0  0  0  0  0
  146.0097  131.6758  151.2053 H   0  0  0  0  0  0  0  0  0  0  0  0
  147.0504  135.4851  154.2585 H   0  0  0  0  0  0  0  0  0  0  0  0
  147.7803  141.4370  154.4132 H   0  0  0  0  0  0  0  0  0  0  0  0
  147.7800  140.0763  155.5138 H   0  0  0  0  0  0  0  0  0  0  0  0
  150.2357  141.3149  154.1669 H   0  0  0  0  0  0  0  0  0  0  0  0
  149.3616  142.6628  156.0856 H   0  0  0  0  0  0  0  0  0  0  0  0
  150.9080  141.9185  156.4803 H   0  0  0  0  0  0  0  0  0  0  0  0
  149.4150  141.2340  157.1174 H   0  0  0  0  0  0  0  0  0  0  0  0
  1  2  1  0  0  0  0
  1 24  1  0  0  0  0
  1 25  1  0  0  0  0
  1 26  1  0  0  0  0
  2 23  1  0  0  0  0
  2  3  1  0  0  0  0
  2 27  1  0  0  0  0
  3  4  1  0  0  0  0
  3 28  1  0  0  0  0
  3 29  1  0  0  0  0
  4  5  1  0  0  0  0
  4 20  1  0  0  0  0
  5  6  1  0  0  0  0
  5 30  1  0  0  0  0
  5 31  1  0  0  0  0
  6  7  1  0  0  0  0
  6  8  1  0  0  0  0
  6 32  1  0  0  0  0
  7 33  1  0  0  0  0
  8  9  1  0  0  0  0
  8 34  1  0  0  0  0
  8 35  1  0  0  0  0
  9 19  1  0  0  0  0
  9 10  1  0  0  0  0
 10 11  2  0  0  0  0
 10 36  1  0  0  0  0
 11 12  1  0  0  0  0
 12 19  2  0  0  0  0
 12 13  1  0  0  0  0
 13 14  2  0  0  0  0
 13 37  1  0  0  0  0
 14 15  1  0  0  0  0
 14 16  1  0  0  0  0
 16 17  1  0  0  0  0
 16 18  2  0  0  0  0
 18 19  1  0  0  0  0
 18 38  1  0  0  0  0
 20 21  1  0  0  0  0
 20 39  1  0  0  0  0
 20 40  1  0  0  0  0
 21 22  1  0  0  0  0
 21 23  1  0  0  0  0
 21 41  1  0  0  0  0
 22 42  1  0  0  0  0
 22 43  1  0  0  0  0
 22 44  1  0  0  0  0
M  END
> <s_m_source_file>
AV-unprocessed.smi

> <i_m_source_file_index>
1824

> <i_lp_mmshare_version>
43012

> <i_f3d_flags>
0

> <s_epik_input>
W0NIM11bQ0BASF0xW0NIMl1OKFtDSDJdW0NASF0oTzEpW0NIM10pW0NIMl1bQ0BIXShbT0hdKVtDSDJdbihbY0hdbjIpYyhjMjMpW2NIXWMoRiljKEYpW2NIXTM=

> <s_epik_cmdline>
J2VwaWtfcHl0aG9uJywgJy1waCcsICc3LjAnLCAnLXRuJywgJzgnLCAnLW1hJywgJzIwMCcsICctbWV0YWxfYmluZGluZycsICctaW1hZScsICc8aW5maWxlLm1hZT4nLCAnLW9tYWUnLCAnPG91dGZpbGUubWFlPic=

> <r_epik_Ionization_Penalty>
0.273778

> <r_epik_Ionization_Penalty_Charging>
0

> <r_epik_Ionization_Penalty_Neutral>
0.273778

> <r_epik_State_Penalty>
0.246794

> <r_epik_Charging_Adjusted_Penalty>
0.246794

> <i_epik_Tot_Q>
0

> <i_epik_Tot_abs_Q>
0

> <r_epik_Metal_State_Penalty>
0.238234

> <b_epik_Metal_Only>
0

> <s_lp_Force_Field>
OPLS_2005

> <r_lp_Energy>
27.3836

> <b_lp_Chiralities_Consistent>
1

> <s_lp_Variant>
AV-unprocessed.smi:1824-2

> <Gold.Version>
5.8.1

> <Gold.Id.Protein>
6NUR|6NUR_protein|mol2

> <Gold.PLP.Fitness>
42.0370

> <Gold.PLP.PLP>
-34.8372

> <Gold.PLP.part.hbond>
-2.1387

> <Gold.PLP.part.metal>
0.0000

> <Gold.PLP.part.buried>
0.3276

> <Gold.PLP.part.nonpolar>
-35.5353

> <Gold.PLP.part.repulsive>
2.5570

> <Gold.PLP.ligand.clash>
0.0000

> <Gold.PLP.ligand.torsion>
0.8708

> <Gold.PLP.Chemscore.Hbond>
1.9600

> <Gold.PLP.Chemscore.CHOScore>
1.0000

> <Gold.PLP.Chemscore.Metal>
0.0000

> <Gold.Chemscore.Hbonds>
donor molecule, donor type, donor heavy atom, donor atom, acceptor molecule, acceptor atom, score
      L1  H     7    33       P1 10171  1.00
      P1  H  7954  7966       L1     7  0.96
      L1  C    10    36       P1 10171  1.00

> <Gold.PLP.Chemscore.Internal.Correction>
0.0612

> <Gold.Rescore>
     Score         DG    S(hbond)    S(metal)    S(lipo)     H(rot)  DE(clash)    DE(int)     intcor
     13.43     -14.77       1.57        0.00      84.13       2.26       0.46       0.89       ----

> <Gold.Chemscore.Fitness>
13.4261

> <Gold.Chemscore.DG>
-14.7746

> <Gold.Chemscore.ZeroCoef>
-5.4800

> <Gold.Chemscore.Hbond>
1.5695

> <Gold.Chemscore.Metal>
0.0000

> <Gold.Chemscore.Lipo>
84.1273

> <Gold.Chemscore.Internal_Hbond>
0.0000

> <Gold.Chemscore.DEClash>
0.4567

> <Gold.Chemscore.DEInternal>
0.8918

> <Gold.Chemscore.Rot>
2.2619

> <Gold.Chemscore.Internal.Correction>
   9.000000E+99

> <Gold.Chemscore.Hbonds>
donor molecule, donor type, donor heavy atom, donor atom, acceptor molecule, acceptor atom, score
      L1  H     7    33       P1 10171  0.94
      P1  H  7954  7966       L1     7  0.65

> <Gold.Chemscore.Hbond.Weighted>
-5.2422

> <Gold.Chemscore.Metal.Weighted>
-0.0000

> <Gold.Chemscore.Lipo.Weighted>
-9.8429

> <Gold.Chemscore.Internal_Hbond.Weighted>
0.0000

> <Gold.Chemscore.DEClash.Weighted>
0.4567

> <Gold.Chemscore.DEInternal.Weighted>
0.8918

> <Gold.Chemscore.Rot.Weighted>
5.7904

> <Gold.Chemscore.Internal.Correction.Weighted>
   9.000000E+99

> <Gold.Protein.RotatedTorsions>
[ 6907 6896 6895 6894 ] final   14.14 input  -60.11 | X-H torsion
[ 7974 7965 7964 7962 ] final  149.74 input  175.53 | X-H torsion
[ 8008 7997 7996 7995 ] final  -34.58 input   59.86 | X-H torsion
[ 10167 10162 10161 10158 ] final  128.35 input  -65.29 | X-H torsion
[ 10718 10713 10712 10709 ] final    9.37 input   66.30 | X-H torsion
[ 10763 10752 10751 10750 ] final -177.83 input  -60.55 | X-H torsion
[ 11005 11000 10999 10996 ] final   46.60 input  -57.11 | X-H torsion

> <Gold.Protein.ActiveResidues>
 VAL166  LYS551  ARG553  GLY616  TRP617  ASP618  TYR619  PRO620  LYS621  CYS622 
 ASP623  PHE694  ASN695  SER759  ASP760  ASP761  ALA762  ILE779  LEU786  VAL792 
 PHE793  MET794  SER795  GLU796  ALA797  LYS798  CYS799  TRP800  GLU811  SER814 

> <Gold.Protein.RotatedAtoms>
  151.7975  135.0718  160.0395 H   0  0  0  0  0  0  0  0  0  0  0  0  # atno 6907 bound_to 6896
  152.3113  133.5751  159.5691 H   0  0  0  0  0  0  0  0  0  0  0  0  # atno 6908 bound_to 6896
  150.7321  134.0065  159.3697 H   0  0  0  0  0  0  0  0  0  0  0  0  # atno 6909 bound_to 6896
  144.8415  139.6319  143.6014 H   0  0  0  0  0  0  0  0  0  0  0  0  # atno 7974 bound_to 7965
  154.4117  140.1680  156.2072 H   0  0  0  0  0  0  0  0  0  0  0  0  # atno 8008 bound_to 7997
  155.9475  140.3403  155.6356 H   0  0  0  0  0  0  0  0  0  0  0  0  # atno 8009 bound_to 7997
  155.6912  140.0734  157.2438 H   0  0  0  0  0  0  0  0  0  0  0  0  # atno 8010 bound_to 7997
  139.5531  144.6829  151.4262 H   0  0  0  0  0  0  0  0  0  0  0  0  # atno 10167 bound_to 10162
  156.9653  130.5948  149.5665 H   0  0  0  0  0  0  0  0  0  0  0  0  # atno 10718 bound_to 10713
  154.5552  135.2816  155.0971 H   0  0  0  0  0  0  0  0  0  0  0  0  # atno 10763 bound_to 10752
  154.2401  135.6358  153.5208 H   0  0  0  0  0  0  0  0  0  0  0  0  # atno 10764 bound_to 10752
  153.0014  135.5558  154.6130 H   0  0  0  0  0  0  0  0  0  0  0  0  # atno 10765 bound_to 10752
  140.1354  134.4652  155.8489 H   0  0  0  0  0  0  0  0  0  0  0  0  # atno 11005 bound_to 11000
  146.2707  139.6628  142.9298 LP  0  0  0  0  0  0  0  0  0  0  0  0  # atno 17320 bound_to 7965
  145.4683  141.0435  143.2713 LP  0  0  0  0  0  0  0  0  0  0  0  0  # atno 17321 bound_to 7965
  140.6799  143.8106  150.7107 LP  0  0  0  0  0  0  0  0  0  0  0  0  # atno 17342 bound_to 10162
  140.1556  143.4320  152.2102 LP  0  0  0  0  0  0  0  0  0  0  0  0  # atno 17343 bound_to 10162
  156.0305  130.5396  150.8521 LP  0  0  0  0  0  0  0  0  0  0  0  0  # atno 17370 bound_to 10713
  157.5630  131.0946  150.9532 LP  0  0  0  0  0  0  0  0  0  0  0  0  # atno 17371 bound_to 10713
  141.2177  133.6812  156.7147 LP  0  0  0  0  0  0  0  0  0  0  0  0  # atno 17394 bound_to 11000
  140.2789  134.8332  157.3915 LP  0  0  0  0  0  0  0  0  0  0  0  0  # atno 17395 bound_to 11000

$$$$
