AV-unprocessed.smi:946|AV-procd|sdf|4235|dock3
  -GOLD-   22720 2143D 1   1.00000     0.00000
 Structure written by MMmdl.
 42 43  0  0  0  0  0  0  0  0  1 V2000
  157.7157  141.1712  160.9163 C   0  0  0  0  0  0  0  0  0  0  0  0
  156.3966  140.4291  161.1763 C   0  0  1  0  0  0  0  0  0  0  0  0
  155.9694  140.7618  162.4944 O   0  0  0  0  0  0  0  0  0  0  0  0
  155.6386  139.6558  163.3268 C   0  0  0  0  0  0  0  0  0  0  0  0
  155.5201  140.1487  164.7751 C   0  0  2  0  0  0  0  0  0  0  0  0
  155.3867  138.9817  165.7731 C   0  0  0  0  0  0  0  0  0  0  0  0
  155.1862  139.5118  167.1976 C   0  0  0  0  0  0  0  0  0  0  0  0
  154.0106  140.4945  167.2229 C   0  0  0  0  0  0  0  0  0  0  0  0
  154.1936  141.5761  166.1465 C   0  0  0  0  0  0  0  0  0  0  0  0
  154.3559  140.9672  164.8693 O   0  0  0  0  0  0  0  0  0  0  0  0
  155.3218  140.8291  160.1531 C   0  0  0  0  0  0  0  0  0  0  0  0
  155.4263  140.4578  158.9836 O   0  0  0  0  0  0  0  0  0  0  0  0
  154.3182  141.5905  160.6281 N   0  0  0  0  0  0  0  0  0  0  0  0
  153.2106  142.1268  159.9202 C   0  0  0  0  0  0  0  0  0  0  0  0
  152.6455  143.2919  160.4838 C   0  0  0  0  0  0  0  0  0  0  0  0
  151.5452  143.9020  159.8522 C   0  0  0  0  0  0  0  0  0  0  0  0
  151.0389  143.3339  158.6699 C   0  0  0  0  0  0  0  0  0  0  0  0
  151.6600  142.1705  158.1676 C   0  0  0  0  0  0  0  0  0  0  0  0
  151.1794  141.4962  156.8902 C   0  0  0  0  0  0  0  0  0  0  0  0
  151.3261  142.3286  155.8590 F   0  0  0  0  0  0  0  0  0  0  0  0
  151.8646  140.3811  156.6332 F   0  0  0  0  0  0  0  0  0  0  0  0
  149.8896  141.1797  157.0079 F   0  0  0  0  0  0  0  0  0  0  0  0
  152.7149  141.5867  158.7800 N   0  0  0  0  0  0  0  0  0  0  0  0
  158.0967  140.9631  159.9157 H   0  0  0  0  0  0  0  0  0  0  0  0
  158.4799  140.8616  161.6295 H   0  0  0  0  0  0  0  0  0  0  0  0
  157.5960  142.2512  161.0119 H   0  0  0  0  0  0  0  0  0  0  0  0
  156.5897  139.3562  161.1172 H   0  0  0  0  0  0  0  0  0  0  0  0
  154.7109  139.1726  163.0178 H   0  0  0  0  0  0  0  0  0  0  0  0
  156.4340  138.9128  163.2538 H   0  0  0  0  0  0  0  0  0  0  0  0
  156.4059  140.7366  165.0232 H   0  0  0  0  0  0  0  0  0  0  0  0
  154.5391  138.3537  165.4946 H   0  0  0  0  0  0  0  0  0  0  0  0
  156.2722  138.3467  165.7349 H   0  0  0  0  0  0  0  0  0  0  0  0
  155.0095  138.6882  167.8897 H   0  0  0  0  0  0  0  0  0  0  0  0
  156.0938  140.0154  167.5328 H   0  0  0  0  0  0  0  0  0  0  0  0
  153.0795  139.9560  167.0421 H   0  0  0  0  0  0  0  0  0  0  0  0
  153.9219  140.9525  168.2084 H   0  0  0  0  0  0  0  0  0  0  0  0
  153.3199  142.2273  166.1176 H   0  0  0  0  0  0  0  0  0  0  0  0
  155.0539  142.2086  166.3709 H   0  0  0  0  0  0  0  0  0  0  0  0
  154.3521  141.8088  161.6130 H   0  0  0  0  0  0  0  0  0  0  0  0
  153.0472  143.7174  161.3921 H   0  0  0  0  0  0  0  0  0  0  0  0
  151.0983  144.7927  160.2683 H   0  0  0  0  0  0  0  0  0  0  0  0
  150.1970  143.7864  158.1673 H   0  0  0  0  0  0  0  0  0  0  0  0
  1  2  1  0  0  0  0
  1 24  1  0  0  0  0
  1 25  1  0  0  0  0
  1 26  1  0  0  0  0
  2  3  1  0  0  0  0
  2 11  1  0  0  0  0
  2 27  1  0  0  0  0
  3  4  1  0  0  0  0
  4  5  1  0  0  0  0
  4 28  1  0  0  0  0
  4 29  1  0  0  0  0
  5 10  1  0  0  0  0
  5  6  1  0  0  0  0
  5 30  1  0  0  0  0
  6  7  1  0  0  0  0
  6 31  1  0  0  0  0
  6 32  1  0  0  0  0
  7  8  1  0  0  0  0
  7 33  1  0  0  0  0
  7 34  1  0  0  0  0
  8  9  1  0  0  0  0
  8 35  1  0  0  0  0
  8 36  1  0  0  0  0
  9 10  1  0  0  0  0
  9 37  1  0  0  0  0
  9 38  1  0  0  0  0
 11 12  2  0  0  0  0
 11 13  1  0  0  0  0
 13 14  1  0  0  0  0
 13 39  1  0  0  0  0
 14 23  1  0  0  0  0
 14 15  2  0  0  0  0
 15 16  1  0  0  0  0
 15 40  1  0  0  0  0
 16 17  2  0  0  0  0
 16 41  1  0  0  0  0
 17 18  1  0  0  0  0
 17 42  1  0  0  0  0
 18 19  1  0  0  0  0
 18 23  2  0  0  0  0
 19 20  1  0  0  0  0
 19 21  1  0  0  0  0
 19 22  1  0  0  0  0
M  END
> <s_m_source_file>
AV-unprocessed.smi

> <i_m_source_file_index>
946

> <i_lp_mmshare_version>
43012

> <i_f3d_flags>
0

> <s_epik_input>
TzFbQ0gyXVtDSDJdW0NIMl1bQ0gyXVtDQEhdMVtDSDJdT1tDQEBIXShbQ0gzXSlDKD1PKVtOSF1jMltjSF1bY0hdW2NIXWMobjIpQyhGKShGKUY=

> <s_epik_cmdline>
J2VwaWtfcHl0aG9uJywgJy1waCcsICc3LjAnLCAnLXRuJywgJzgnLCAnLW1hJywgJzIwMCcsICctbWV0YWxfYmluZGluZycsICctaW1hZScsICc8aW5maWxlLm1hZT4nLCAnLW9tYWUnLCAnPG91dGZpbGUubWFlPic=

> <r_lp_tautomer_probability>
1

> <r_epik_Ionization_Penalty>
1.32683e-06

> <r_epik_Ionization_Penalty_Charging>
0

> <r_epik_Ionization_Penalty_Neutral>
1.32683e-06

> <r_epik_State_Penalty>
-0

> <r_epik_Charging_Adjusted_Penalty>
0

> <i_epik_Tot_Q>
0

> <i_epik_Tot_abs_Q>
0

> <r_epik_Metal_State_Penalty>
-0

> <b_epik_Metal_Only>
0

> <s_lp_Force_Field>
OPLS_2005

> <r_lp_Energy>
15.913

> <b_lp_Chiralities_Consistent>
1

> <s_lp_Variant>
AV-unprocessed.smi:946-2

> <Gold.Version>
5.8.1

> <Gold.Id.Protein>
6NUR|6NUR_protein|mol2

> <Gold.PLP.Fitness>
46.7796

> <Gold.PLP.PLP>
-46.0043

> <Gold.PLP.part.hbond>
-3.0000

> <Gold.PLP.part.metal>
0.0000

> <Gold.PLP.part.buried>
-6.7538

> <Gold.PLP.part.nonpolar>
-35.9743

> <Gold.PLP.part.repulsive>
0.0522

> <Gold.PLP.ligand.clash>
0.0000

> <Gold.PLP.ligand.torsion>
1.1521

> <Gold.PLP.Chemscore.Hbond>
1.0000

> <Gold.PLP.Chemscore.CHOScore>
0.0000

> <Gold.PLP.Chemscore.Metal>
0.0000

> <Gold.Chemscore.Hbonds>
donor molecule, donor type, donor heavy atom, donor atom, acceptor molecule, acceptor atom, score
      P1  H  7997  8009       L1    12  0.32

> <Gold.PLP.Chemscore.Internal.Correction>
0.0795

> <Gold.Rescore>
     Score         DG    S(hbond)    S(metal)    S(lipo)     H(rot)  DE(clash)    DE(int)     intcor
     11.94     -16.06       0.99        0.00     100.56       1.76       1.78       2.35       ----

> <Gold.Chemscore.Fitness>
11.9353

> <Gold.Chemscore.DG>
-16.0614

> <Gold.Chemscore.ZeroCoef>
-5.4800

> <Gold.Chemscore.Hbond>
0.9913

> <Gold.Chemscore.Metal>
0.0000

> <Gold.Chemscore.Lipo>
100.5565

> <Gold.Chemscore.Internal_Hbond>
0.0000

> <Gold.Chemscore.DEClash>
1.7789

> <Gold.Chemscore.DEInternal>
2.3473

> <Gold.Chemscore.Rot>
1.7557

> <Gold.Chemscore.Internal.Correction>
   9.000000E+99

> <Gold.Chemscore.Hbonds>
donor molecule, donor type, donor heavy atom, donor atom, acceptor molecule, acceptor atom, score
      P1  H  7997  8009       L1    12  0.32

> <Gold.Chemscore.Hbond.Weighted>
-3.3109

> <Gold.Chemscore.Metal.Weighted>
-0.0000

> <Gold.Chemscore.Lipo.Weighted>
-11.7651

> <Gold.Chemscore.Internal_Hbond.Weighted>
0.0000

> <Gold.Chemscore.DEClash.Weighted>
1.7789

> <Gold.Chemscore.DEInternal.Weighted>
2.3473

> <Gold.Chemscore.Rot.Weighted>
4.4946

> <Gold.Chemscore.Internal.Correction.Weighted>
   9.000000E+99

> <Gold.Protein.RotatedTorsions>
[ 6907 6896 6895 6894 ] final  152.42 input  -60.11 | X-H torsion
[ 7974 7965 7964 7962 ] final  102.35 input  175.53 | X-H torsion
[ 8008 7997 7996 7995 ] final  138.82 input   59.86 | X-H torsion
[ 10167 10162 10161 10158 ] final  -99.57 input  -65.29 | X-H torsion
[ 10718 10713 10712 10709 ] final   64.96 input   66.30 | X-H torsion
[ 10763 10752 10751 10750 ] final  -71.51 input  -60.55 | X-H torsion
[ 11005 11000 10999 10996 ] final  -66.84 input  -57.11 | X-H torsion

> <Gold.Protein.ActiveResidues>
 VAL166  LYS551  ARG553  GLY616  TRP617  ASP618  TYR619  PRO620  LYS621  CYS622 
 ASP623  PHE694  ASN695  SER759  ASP760  ASP761  ALA762  ILE779  LEU786  VAL792 
 PHE793  MET794  SER795  GLU796  ALA797  LYS798  CYS799  TRP800  GLU811  SER814 

> <Gold.Protein.RotatedAtoms>
  152.0870  133.4181  159.4526 H   0  0  0  0  0  0  0  0  0  0  0  0  # atno 6907 bound_to 6896
  150.6862  134.2916  159.4678 H   0  0  0  0  0  0  0  0  0  0  0  0  # atno 6908 bound_to 6896
  152.0764  134.9500  160.0624 H   0  0  0  0  0  0  0  0  0  0  0  0  # atno 6909 bound_to 6896
  145.3602  139.2419  143.3511 H   0  0  0  0  0  0  0  0  0  0  0  0  # atno 7974 bound_to 7965
  156.2994  140.2383  156.4137 H   0  0  0  0  0  0  0  0  0  0  0  0  # atno 8008 bound_to 7997
  154.8418  140.0428  157.1566 H   0  0  0  0  0  0  0  0  0  0  0  0  # atno 8009 bound_to 7997
  154.9094  140.2988  155.5278 H   0  0  0  0  0  0  0  0  0  0  0  0  # atno 8010 bound_to 7997
  140.2610  143.3407  152.0625 H   0  0  0  0  0  0  0  0  0  0  0  0  # atno 10167 bound_to 10162
  157.6074  130.9188  149.9913 H   0  0  0  0  0  0  0  0  0  0  0  0  # atno 10718 bound_to 10713
  154.4328  135.5960  153.6079 H   0  0  0  0  0  0  0  0  0  0  0  0  # atno 10763 bound_to 10752
  152.9800  135.5979  154.3818 H   0  0  0  0  0  0  0  0  0  0  0  0  # atno 10764 bound_to 10752
  154.3658  135.2841  155.2273 H   0  0  0  0  0  0  0  0  0  0  0  0  # atno 10765 bound_to 10752
  141.1493  133.6707  156.6201 H   0  0  0  0  0  0  0  0  0  0  0  0  # atno 11005 bound_to 11000
  146.2930  140.4235  142.8732 LP  0  0  0  0  0  0  0  0  0  0  0  0  # atno 17320 bound_to 7965
  144.8652  140.7196  143.6082 LP  0  0  0  0  0  0  0  0  0  0  0  0  # atno 17321 bound_to 7965
  139.5017  144.6718  151.6223 LP  0  0  0  0  0  0  0  0  0  0  0  0  # atno 17342 bound_to 10162
  140.5965  143.9686  150.6358 LP  0  0  0  0  0  0  0  0  0  0  0  0  # atno 17343 bound_to 10162
  156.1165  130.3647  149.9960 LP  0  0  0  0  0  0  0  0  0  0  0  0  # atno 17370 bound_to 10713
  156.8048  130.9303  151.3645 LP  0  0  0  0  0  0  0  0  0  0  0  0  # atno 17371 bound_to 10713
  140.3547  134.7738  157.4492 LP  0  0  0  0  0  0  0  0  0  0  0  0  # atno 17394 bound_to 11000
  140.0832  134.5702  155.8519 LP  0  0  0  0  0  0  0  0  0  0  0  0  # atno 17395 bound_to 11000

$$$$
