AV-unprocessed.smi:451|AV-procd|sdf|2609|dock7
  -GOLD-   2262023 03D 1   1.00000     0.00000
 Structure written by MMmdl.
 38 38  0  0  0  0  0  0  0  0  1 V2000
  152.0279  143.1376  158.8639 C   0  0  0  0  0  0  0  0  0  0  0  0
  151.2555  142.0636  158.0866 C   0  0  0  0  0  0  0  0  0  0  0  0
  151.0932  142.3563  156.5812 C   0  0  0  0  0  0  0  0  0  0  0  0
  150.6551  141.2122  155.8009 N   0  0  0  0  0  0  0  0  0  0  0  0
  149.5163  141.2326  154.9903 C   0  0  0  0  0  0  0  0  0  0  0  0
  148.7677  142.3991  154.9511 N   0  0  0  0  0  0  0  0  0  0  0  0
  149.1259  140.1459  154.2607 C   0  0  0  0  0  0  0  0  0  0  0  0
  148.0036  140.1395  153.4339 N   0  0  0  0  0  0  0  0  0  0  0  0
  147.1555  141.3170  153.2911 C   0  0  0  0  0  0  0  0  0  0  0  0
  147.5512  138.9289  152.7524 C   0  0  0  0  0  0  0  0  0  0  0  0
  147.0955  139.2077  151.3081 C   0  0  0  0  0  0  0  0  0  0  0  0
  147.1456  138.0403  150.4996 O   0  0  0  0  0  0  0  0  0  0  0  0
  146.2282  137.0270  150.8812 C   0  0  0  0  0  0  0  0  0  0  0  0
  149.9120  138.9062  154.3026 C   0  0  0  0  0  0  0  0  0  0  0  0
  149.6612  137.8739  153.6809 O   0  0  0  0  0  0  0  0  0  0  0  0
  151.0363  138.9487  155.1226 N   0  0  0  0  0  0  0  0  0  0  0  0
  151.4513  140.0430  155.8723 C   0  0  0  0  0  0  0  0  0  0  0  0
  152.4777  139.9535  156.5468 O   0  0  0  0  0  0  0  0  0  0  0  0
  151.6025  138.1144  155.1713 H   0  0  0  0  0  0  0  0  0  0  0  0
  152.1671  142.8375  159.9027 H   0  0  0  0  0  0  0  0  0  0  0  0
  151.4957  144.0889  158.8665 H   0  0  0  0  0  0  0  0  0  0  0  0
  153.0146  143.3039  158.4306 H   0  0  0  0  0  0  0  0  0  0  0  0
  151.7751  141.1117  158.1992 H   0  0  0  0  0  0  0  0  0  0  0  0
  150.2763  141.9249  158.5454 H   0  0  0  0  0  0  0  0  0  0  0  0
  150.4167  143.1930  156.4033 H   0  0  0  0  0  0  0  0  0  0  0  0
  152.0410  142.6700  156.1433 H   0  0  0  0  0  0  0  0  0  0  0  0
  149.0297  143.2132  155.4880 H   0  0  0  0  0  0  0  0  0  0  0  0
  147.9461  142.4876  154.3708 H   0  0  0  0  0  0  0  0  0  0  0  0
  147.7035  142.2224  153.5552 H   0  0  0  0  0  0  0  0  0  0  0  0
  146.2835  141.2491  153.9415 H   0  0  0  0  0  0  0  0  0  0  0  0
  146.8087  141.4279  152.2632 H   0  0  0  0  0  0  0  0  0  0  0  0
  148.3576  138.1946  152.7535 H   0  0  0  0  0  0  0  0  0  0  0  0
  146.7353  138.4815  153.3195 H   0  0  0  0  0  0  0  0  0  0  0  0
  146.0974  139.6485  151.2895 H   0  0  0  0  0  0  0  0  0  0  0  0
  147.7632  139.9369  150.8497 H   0  0  0  0  0  0  0  0  0  0  0  0
  146.2804  136.2054  150.1669 H   0  0  0  0  0  0  0  0  0  0  0  0
  145.2034  137.4004  150.8850 H   0  0  0  0  0  0  0  0  0  0  0  0
  146.4570  136.6205  151.8658 H   0  0  0  0  0  0  0  0  0  0  0  0
  1  2  1  0  0  0  0
  1 20  1  0  0  0  0
  1 21  1  0  0  0  0
  1 22  1  0  0  0  0
  2  3  1  0  0  0  0
  2 23  1  0  0  0  0
  2 24  1  0  0  0  0
  3  4  1  0  0  0  0
  3 25  1  0  0  0  0
  3 26  1  0  0  0  0
  4 17  1  0  0  0  0
  4  5  1  0  0  0  0
  5  6  1  0  0  0  0
  5  7  2  0  0  0  0
  6 27  1  0  0  0  0
  6 28  1  0  0  0  0
  7  8  1  0  0  0  0
  7 14  1  0  0  0  0
  8  9  1  0  0  0  0
  8 10  1  0  0  0  0
  9 29  1  0  0  0  0
  9 30  1  0  0  0  0
  9 31  1  0  0  0  0
 10 11  1  0  0  0  0
 10 32  1  0  0  0  0
 10 33  1  0  0  0  0
 11 12  1  0  0  0  0
 11 34  1  0  0  0  0
 11 35  1  0  0  0  0
 12 13  1  0  0  0  0
 13 36  1  0  0  0  0
 13 37  1  0  0  0  0
 13 38  1  0  0  0  0
 14 15  2  0  0  0  0
 14 16  1  0  0  0  0
 16 19  1  0  0  0  0
 16 17  1  0  0  0  0
 17 18  2  0  0  0  0
M  END
> <s_m_source_file>
AV-unprocessed.smi

> <i_m_source_file_index>
451

> <i_lp_mmshare_version>
43012

> <i_f3d_flags>
0

> <s_epik_input>
W0NIM11bQ0gyXVtDSDJdbjFjKFtOSDJdKWMoYyg9TylbbkhdYzE9TylOKFtDSDNdKVtDSDJdW0NIMl1PW0NIM10=

> <s_epik_cmdline>
J2VwaWtfcHl0aG9uJywgJy1waCcsICc3LjAnLCAnLXRuJywgJzgnLCAnLW1hJywgJzIwMCcsICctbWV0YWxfYmluZGluZycsICctaW1hZScsICc8aW5maWxlLm1hZT4nLCAnLW9tYWUnLCAnPG91dGZpbGUubWFlPic=

> <r_lp_tautomer_probability>
1

> <r_epik_Ionization_Penalty>
2.19941e-05

> <r_epik_Ionization_Penalty_Charging>
2.62604e-06

> <r_epik_Ionization_Penalty_Neutral>
1.93681e-05

> <r_epik_State_Penalty>
-0

> <r_epik_Charging_Adjusted_Penalty>
2.62604e-06

> <i_epik_Tot_Q>
0

> <i_epik_Tot_abs_Q>
0

> <r_epik_Metal_State_Penalty>
-0

> <b_epik_Metal_Only>
0

> <s_epik_Chemistry_Notes>
This compound has an imine and may undergo hydrolysis.

> <s_lp_Force_Field>
OPLS_2005

> <r_lp_Energy>
22.0879

> <b_lp_Chiralities_Consistent>
1

> <s_lp_Variant>
AV-unprocessed.smi:451-1

> <Gold.Version>
5.8.1

> <Gold.Id.Protein>
6NUR|6NUR_protein|mol2

> <Gold.PLP.Fitness>
38.9729

> <Gold.PLP.PLP>
-31.1108

> <Gold.PLP.part.hbond>
-2.6333

> <Gold.PLP.part.metal>
0.0000

> <Gold.PLP.part.buried>
1.0548

> <Gold.PLP.part.nonpolar>
-34.8139

> <Gold.PLP.part.repulsive>
5.9032

> <Gold.PLP.ligand.clash>
21.2512

> <Gold.PLP.ligand.torsion>
0.4146

> <Gold.PLP.Chemscore.Hbond>
2.8800

> <Gold.PLP.Chemscore.CHOScore>
0.0000

> <Gold.PLP.Chemscore.Metal>
0.0000

> <Gold.Chemscore.Hbonds>
donor molecule, donor type, donor heavy atom, donor atom, acceptor molecule, acceptor atom, score
      L1  H     6    27       P1  8028  0.89
      P1  H  7954  7966       L1    12  0.16
      P1  H  7997  8009       L1    18  1.00

> <Gold.PLP.Chemscore.Internal.Correction>
21.3024

> <Gold.Rescore>
     Score         DG    S(hbond)    S(metal)    S(lipo)     H(rot)  DE(clash)    DE(int)     intcor
     10.32     -16.08       2.49        0.00      63.34       2.00       1.67       4.09       ----

> <Gold.Chemscore.Fitness>
10.3232

> <Gold.Chemscore.DG>
-16.0832

> <Gold.Chemscore.ZeroCoef>
-5.4800

> <Gold.Chemscore.Hbond>
2.4912

> <Gold.Chemscore.Metal>
0.0000

> <Gold.Chemscore.Lipo>
63.3370

> <Gold.Chemscore.Internal_Hbond>
0.0000

> <Gold.Chemscore.DEClash>
1.6654

> <Gold.Chemscore.DEInternal>
4.0946

> <Gold.Chemscore.Rot>
2.0031

> <Gold.Chemscore.Internal.Correction>
   9.000000E+99

> <Gold.Chemscore.Hbonds>
donor molecule, donor type, donor heavy atom, donor atom, acceptor molecule, acceptor atom, score
      L1  H     6    27       P1  8028  0.80
      P1  H  7954  7966       L1    12  0.16
      P1  H  7997  8009       L1    18  1.00

> <Gold.Chemscore.Hbond.Weighted>
-8.3206

> <Gold.Chemscore.Metal.Weighted>
-0.0000

> <Gold.Chemscore.Lipo.Weighted>
-7.4104

> <Gold.Chemscore.Internal_Hbond.Weighted>
0.0000

> <Gold.Chemscore.DEClash.Weighted>
1.6654

> <Gold.Chemscore.DEInternal.Weighted>
4.0946

> <Gold.Chemscore.Rot.Weighted>
5.1278

> <Gold.Chemscore.Internal.Correction.Weighted>
   9.000000E+99

> <Gold.Protein.RotatedTorsions>
[ 6907 6896 6895 6894 ] final  152.69 input  -60.11 | X-H torsion
[ 7974 7965 7964 7962 ] final  -94.81 input  175.53 | X-H torsion
[ 8008 7997 7996 7995 ] final -165.88 input   59.86 | X-H torsion
[ 10167 10162 10161 10158 ] final  134.58 input  -65.29 | X-H torsion
[ 10718 10713 10712 10709 ] final -172.32 input   66.30 | X-H torsion
[ 10763 10752 10751 10750 ] final  -31.70 input  -60.55 | X-H torsion
[ 11005 11000 10999 10996 ] final -130.54 input  -57.11 | X-H torsion

> <Gold.Protein.ActiveResidues>
 VAL166  LYS551  ARG553  GLY616  TRP617  ASP618  TYR619  PRO620  LYS621  CYS622 
 ASP623  PHE694  ASN695  SER759  ASP760  ASP761  ALA762  ILE779  LEU786  VAL792 
 PHE793  MET794  SER795  GLU796  ALA797  LYS798  CYS799  TRP800  GLU811  SER814 

> <Gold.Protein.RotatedAtoms>
  152.0832  133.4163  159.4510 H   0  0  0  0  0  0  0  0  0  0  0  0  # atno 6907 bound_to 6896
  150.6862  134.2958  159.4695 H   0  0  0  0  0  0  0  0  0  0  0  0  # atno 6908 bound_to 6896
  152.0802  134.9475  160.0624 H   0  0  0  0  0  0  0  0  0  0  0  0  # atno 6909 bound_to 6896
  145.3683  140.9502  143.2461 H   0  0  0  0  0  0  0  0  0  0  0  0  # atno 7974 bound_to 7965
  155.8560  140.0970  157.1644 H   0  0  0  0  0  0  0  0  0  0  0  0  # atno 8008 bound_to 7997
  154.3988  140.1374  156.3964 H   0  0  0  0  0  0  0  0  0  0  0  0  # atno 8009 bound_to 7997
  155.7909  140.3456  155.5351 H   0  0  0  0  0  0  0  0  0  0  0  0  # atno 8010 bound_to 7997
  139.5250  144.6560  151.5161 H   0  0  0  0  0  0  0  0  0  0  0  0  # atno 10167 bound_to 10162
  156.7539  130.9388  151.3115 H   0  0  0  0  0  0  0  0  0  0  0  0  # atno 10718 bound_to 10713
  153.8016  135.6889  153.4855 H   0  0  0  0  0  0  0  0  0  0  0  0  # atno 10763 bound_to 10752
  153.1685  135.4552  154.9868 H   0  0  0  0  0  0  0  0  0  0  0  0  # atno 10764 bound_to 10752
  154.8004  135.3335  154.7504 H   0  0  0  0  0  0  0  0  0  0  0  0  # atno 10765 bound_to 10752
  140.9336  134.1286  157.4213 H   0  0  0  0  0  0  0  0  0  0  0  0  # atno 11005 bound_to 11000
  144.8595  139.5199  143.6819 LP  0  0  0  0  0  0  0  0  0  0  0  0  # atno 17320 bound_to 7965
  146.2897  139.7103  142.9170 LP  0  0  0  0  0  0  0  0  0  0  0  0  # atno 17321 bound_to 7965
  140.6386  143.8935  150.6670 LP  0  0  0  0  0  0  0  0  0  0  0  0  # atno 17342 bound_to 10162
  140.2262  143.3771  152.1603 LP  0  0  0  0  0  0  0  0  0  0  0  0  # atno 17343 bound_to 10162
  157.6765  130.9099  150.0162 LP  0  0  0  0  0  0  0  0  0  0  0  0  # atno 17370 bound_to 10713
  156.1383  130.3642  149.9622 LP  0  0  0  0  0  0  0  0  0  0  0  0  # atno 17371 bound_to 10713
  139.8802  135.0013  156.6062 LP  0  0  0  0  0  0  0  0  0  0  0  0  # atno 17394 bound_to 11000
  140.7829  133.8645  155.8582 LP  0  0  0  0  0  0  0  0  0  0  0  0  # atno 17395 bound_to 11000

$$$$
