AV-unprocessed.smi:1589|AV-procd|sdf|6393|dock9
  -GOLD-   22720 7 33D 1   1.00000     0.00000
 Structure written by MMmdl.
 44 45  0  0  0  0  0  0  0  0  2 V2000
  147.6925  128.4518  152.2702 C   0  0  0  0  0  0  0  0  0  0  0  0
  147.7709  129.8737  152.8653 C   0  0  0  0  0  0  0  0  0  0  0  0
  147.0997  129.8631  154.2545 C   0  0  0  0  0  0  0  0  0  0  0  0
  147.1825  130.9136  151.9598 N   0  3  0  0  0  0  0  0  0  0  0  0
  147.1194  132.2745  152.5768 C   0  0  0  0  0  0  0  0  0  0  0  0
  146.4558  133.3121  151.6532 C   0  0  0  0  0  0  0  0  0  0  0  0
  145.1277  132.8229  151.2689 N   0  0  0  0  0  0  0  0  0  0  0  0
  143.9385  133.2373  151.7751 C   0  0  0  0  0  0  0  0  0  0  0  0
  142.8869  132.6286  151.5771 O   0  0  0  0  0  0  0  0  0  0  0  0
  144.0036  134.3923  152.4643 N   0  0  0  0  0  0  0  0  0  0  0  0
  142.9518  135.0525  153.1476 C   0  0  0  0  0  0  0  0  0  0  0  0
  142.1154  134.5765  154.1966 C   0  0  0  0  0  0  0  0  0  0  0  0
  141.2478  135.5046  154.5706 N   0  0  0  0  0  0  0  0  0  0  0  0
  141.5130  136.5764  153.7823 N   0  0  0  0  0  0  0  0  0  0  0  0
  140.7325  137.7937  153.9350 C   0  0  0  0  0  0  0  0  0  0  0  0
  139.2257  137.5405  153.8050 C   0  0  0  0  0  0  0  0  0  0  0  0
  138.5656  138.2887  152.9175 N   0  0  0  0  0  0  0  0  0  0  0  0
  138.6602  136.6857  154.4851 O   0  0  0  0  0  0  0  0  0  0  0  0
  142.5454  136.3287  152.8983 C   0  0  0  0  0  0  0  0  0  0  0  0
  145.2552  131.5974  150.4814 C   0  0  0  0  0  0  0  0  0  0  0  0
  145.8758  130.4988  151.3628 C   0  0  0  0  0  0  0  0  0  0  0  0
  148.0282  127.7057  152.9911 H   0  0  0  0  0  0  0  0  0  0  0  0
  148.3332  128.3338  151.3963 H   0  0  0  0  0  0  0  0  0  0  0  0
  146.6719  128.1945  151.9844 H   0  0  0  0  0  0  0  0  0  0  0  0
  148.8263  130.1122  153.0066 H   0  0  0  0  0  0  0  0  0  0  0  0
  147.4647  129.0333  154.8606 H   0  0  0  0  0  0  0  0  0  0  0  0
  146.0174  129.7568  154.1722 H   0  0  0  0  0  0  0  0  0  0  0  0
  147.3114  130.7671  154.8247 H   0  0  0  0  0  0  0  0  0  0  0  0
  146.5726  132.2187  153.5196 H   0  0  0  0  0  0  0  0  0  0  0  0
  148.1208  132.6354  152.8065 H   0  0  0  0  0  0  0  0  0  0  0  0
  146.4440  134.2862  152.1422 H   0  0  0  0  0  0  0  0  0  0  0  0
  147.0596  133.4505  150.7550 H   0  0  0  0  0  0  0  0  0  0  0  0
  144.9122  134.8263  152.5339 H   0  0  0  0  0  0  0  0  0  0  0  0
  142.0994  133.6178  154.6930 H   0  0  0  0  0  0  0  0  0  0  0  0
  140.9580  138.2244  154.9116 H   0  0  0  0  0  0  0  0  0  0  0  0
  141.0406  138.5212  153.1825 H   0  0  0  0  0  0  0  0  0  0  0  0
  137.5711  138.1671  152.7924 H   0  0  0  0  0  0  0  0  0  0  0  0
  139.0660  138.9782  152.3752 H   0  0  0  0  0  0  0  0  0  0  0  0
  142.8936  137.0680  152.1921 H   0  0  0  0  0  0  0  0  0  0  0  0
  144.3009  131.2581  150.0755 H   0  0  0  0  0  0  0  0  0  0  0  0
  145.8893  131.7868  149.6138 H   0  0  0  0  0  0  0  0  0  0  0  0
  146.0024  129.6124  150.7432 H   0  0  0  0  0  0  0  0  0  0  0  0
  145.1812  130.2347  152.1621 H   0  0  0  0  0  0  0  0  0  0  0  0
  147.8205  131.0012  151.1819 H   0  0  0  0  0  0  0  0  0  0  0  0
  1  2  1  0  0  0  0
  1 22  1  0  0  0  0
  1 23  1  0  0  0  0
  1 24  1  0  0  0  0
  2  3  1  0  0  0  0
  2  4  1  0  0  0  0
  2 25  1  0  0  0  0
  3 26  1  0  0  0  0
  3 27  1  0  0  0  0
  3 28  1  0  0  0  0
  4 21  1  0  0  0  0
  4  5  1  0  0  0  0
  4 44  1  0  0  0  0
  5  6  1  0  0  0  0
  5 29  1  0  0  0  0
  5 30  1  0  0  0  0
  6  7  1  0  0  0  0
  6 31  1  0  0  0  0
  6 32  1  0  0  0  0
  7  8  1  0  0  0  0
  7 20  1  0  0  0  0
  8  9  2  0  0  0  0
  8 10  1  0  0  0  0
 10 11  1  0  0  0  0
 10 33  1  0  0  0  0
 11 19  2  0  0  0  0
 11 12  1  0  0  0  0
 12 13  2  0  0  0  0
 12 34  1  0  0  0  0
 13 14  1  0  0  0  0
 14 15  1  0  0  0  0
 14 19  1  0  0  0  0
 15 16  1  0  0  0  0
 15 35  1  0  0  0  0
 15 36  1  0  0  0  0
 16 17  1  0  0  0  0
 16 18  2  0  0  0  0
 17 37  1  0  0  0  0
 17 38  1  0  0  0  0
 19 39  1  0  0  0  0
 20 21  1  0  0  0  0
 20 40  1  0  0  0  0
 20 41  1  0  0  0  0
 21 42  1  0  0  0  0
 21 43  1  0  0  0  0
M  CHG  1   4   1
M  END
> <s_m_source_file>
AV-unprocessed.smi

> <i_m_source_file_index>
1589

> <i_lp_mmshare_version>
43012

> <i_f3d_flags>
0

> <s_epik_input>
W0NIM11bQ0hdKFtDSDNdKU4xW0NIMl1bQ0gyXU4oW0NIMl1bQ0gyXTEpQyg9TylbTkhdYzJbY0hdbm4oW2NIXTIpW0NIMl1DKD1PKVtOSDJd

> <s_epik_cmdline>
J2VwaWtfcHl0aG9uJywgJy1waCcsICc3LjAnLCAnLXRuJywgJzgnLCAnLW1hJywgJzIwMCcsICctbWV0YWxfYmluZGluZycsICctaW1hZScsICc8aW5maWxlLm1hZT4nLCAnLW9tYWUnLCAnPG91dGZpbGUubWFlPic=

> <r_lp_tautomer_probability>
1

> <r_epik_Ionization_Penalty>
0.241469

> <r_epik_Ionization_Penalty_Charging>
0.241445

> <r_epik_Ionization_Penalty_Neutral>
2.46507e-05

> <r_epik_State_Penalty>
0.232445

> <r_epik_Charging_Adjusted_Penalty>
0.47389

> <i_epik_Tot_Q>
1

> <i_epik_Tot_abs_Q>
1

> <r_epik_Metal_State_Penalty>
0.232446

> <b_epik_Metal_Only>
0

> <s_lp_Force_Field>
OPLS_2005

> <r_lp_Energy>
56.898

> <b_lp_Chiralities_Consistent>
1

> <s_lp_Variant>
AV-unprocessed.smi:1589-1

> <Gold.Version>
5.8.1

> <Gold.Id.Protein>
6NUR|6NUR_protein|mol2

> <Gold.PLP.Fitness>
46.9527

> <Gold.PLP.PLP>
-35.7310

> <Gold.PLP.part.hbond>
-2.1923

> <Gold.PLP.part.metal>
0.0000

> <Gold.PLP.part.buried>
-8.5533

> <Gold.PLP.part.nonpolar>
-26.7635

> <Gold.PLP.part.repulsive>
1.0948

> <Gold.PLP.ligand.clash>
0.0000

> <Gold.PLP.ligand.torsion>
0.8182

> <Gold.PLP.Chemscore.Hbond>
2.0000

> <Gold.PLP.Chemscore.CHOScore>
2.2450

> <Gold.PLP.Chemscore.Metal>
0.0000

> <Gold.Chemscore.Hbonds>
donor molecule, donor type, donor heavy atom, donor atom, acceptor molecule, acceptor atom, score
      L1  H     4    44       P1 10747  0.86
      L1  C    12    34       P1 10957  0.73
      L1  C    12    34       P1 11000  0.28

> <Gold.PLP.Chemscore.Internal.Correction>
0.1231

> <Gold.Rescore>
     Score         DG    S(hbond)    S(metal)    S(lipo)     H(rot)  DE(clash)    DE(int)     intcor
     13.69     -15.60       1.98        0.00      70.22       1.84       0.05       1.85       ----

> <Gold.Chemscore.Fitness>
13.6938

> <Gold.Chemscore.DG>
-15.5975

> <Gold.Chemscore.ZeroCoef>
-5.4800

> <Gold.Chemscore.Hbond>
1.9792

> <Gold.Chemscore.Metal>
0.0000

> <Gold.Chemscore.Lipo>
70.2156

> <Gold.Chemscore.Internal_Hbond>
0.0000

> <Gold.Chemscore.DEClash>
0.0497

> <Gold.Chemscore.DEInternal>
1.8541

> <Gold.Chemscore.Rot>
1.8392

> <Gold.Chemscore.Internal.Correction>
   9.000000E+99

> <Gold.Chemscore.Hbonds>
donor molecule, donor type, donor heavy atom, donor atom, acceptor molecule, acceptor atom, score
      L1  H     4    44       P1 10747  0.84

> <Gold.Chemscore.Hbond.Weighted>
-6.6106

> <Gold.Chemscore.Metal.Weighted>
-0.0000

> <Gold.Chemscore.Lipo.Weighted>
-8.2152

> <Gold.Chemscore.Internal_Hbond.Weighted>
0.0000

> <Gold.Chemscore.DEClash.Weighted>
0.0497

> <Gold.Chemscore.DEInternal.Weighted>
1.8541

> <Gold.Chemscore.Rot.Weighted>
4.7083

> <Gold.Chemscore.Internal.Correction.Weighted>
   9.000000E+99

> <Gold.Protein.RotatedTorsions>
[ 6907 6896 6895 6894 ] final  -53.95 input  -60.11 | X-H torsion
[ 7974 7965 7964 7962 ] final  -63.55 input  175.53 | X-H torsion
[ 8008 7997 7996 7995 ] final -144.37 input   59.86 | X-H torsion
[ 10167 10162 10161 10158 ] final -176.47 input  -65.29 | X-H torsion
[ 10718 10713 10712 10709 ] final  102.51 input   66.30 | X-H torsion
[ 10763 10752 10751 10750 ] final  -31.62 input  -60.55 | X-H torsion
[ 11005 11000 10999 10996 ] final  138.15 input  -57.11 | X-H torsion

> <Gold.Protein.ActiveResidues>
 VAL166  LYS551  ARG553  GLY616  TRP617  ASP618  TYR619  PRO620  LYS621  CYS622 
 ASP623  PHE694  ASN695  SER759  ASP760  ASP761  ALA762  ILE779  LEU786  VAL792 
 PHE793  MET794  SER795  GLU796  ALA797  LYS798  CYS799  TRP800  GLU811  SER814 

> <Gold.Protein.RotatedAtoms>
  150.8381  134.7663  159.6909 H   0  0  0  0  0  0  0  0  0  0  0  0  # atno 6907 bound_to 6896
  152.4474  134.5462  159.9863 H   0  0  0  0  0  0  0  0  0  0  0  0  # atno 6908 bound_to 6896
  151.5608  133.3366  159.3006 H   0  0  0  0  0  0  0  0  0  0  0  0  # atno 6909 bound_to 6896
  145.7777  140.8779  143.0347 H   0  0  0  0  0  0  0  0  0  0  0  0  # atno 7974 bound_to 7965
  155.5258  140.0595  157.2898 H   0  0  0  0  0  0  0  0  0  0  0  0  # atno 8008 bound_to 7997
  154.4501  140.1944  156.0490 H   0  0  0  0  0  0  0  0  0  0  0  0  # atno 8009 bound_to 7997
  156.0687  140.3263  155.7553 H   0  0  0  0  0  0  0  0  0  0  0  0  # atno 8010 bound_to 7997
  139.5528  144.2066  152.1107 H   0  0  0  0  0  0  0  0  0  0  0  0  # atno 10167 bound_to 10162
  157.6800  131.0755  150.5415 H   0  0  0  0  0  0  0  0  0  0  0  0  # atno 10718 bound_to 10713
  153.8004  135.6890  153.4856 H   0  0  0  0  0  0  0  0  0  0  0  0  # atno 10763 bound_to 10752
  153.1692  135.4549  154.9877 H   0  0  0  0  0  0  0  0  0  0  0  0  # atno 10764 bound_to 10752
  154.8009  135.3337  154.7493 H   0  0  0  0  0  0  0  0  0  0  0  0  # atno 10765 bound_to 10752
  140.0163  134.9417  157.0383 H   0  0  0  0  0  0  0  0  0  0  0  0  # atno 11005 bound_to 11000
  144.6801  139.9945  143.7484 LP  0  0  0  0  0  0  0  0  0  0  0  0  # atno 17320 bound_to 7965
  146.0106  139.3166  143.0873 LP  0  0  0  0  0  0  0  0  0  0  0  0  # atno 17321 bound_to 7965
  140.1564  144.5067  150.6657 LP  0  0  0  0  0  0  0  0  0  0  0  0  # atno 17342 bound_to 10162
  140.6794  143.2320  151.5422 LP  0  0  0  0  0  0  0  0  0  0  0  0  # atno 17343 bound_to 10162
  156.5722  130.4283  149.6014 LP  0  0  0  0  0  0  0  0  0  0  0  0  # atno 17370 bound_to 10713
  156.2731  130.7028  151.1831 LP  0  0  0  0  0  0  0  0  0  0  0  0  # atno 17371 bound_to 10713
  140.4465  134.1627  155.7178 LP  0  0  0  0  0  0  0  0  0  0  0  0  # atno 17394 bound_to 11000
  141.1745  133.8542  157.1466 LP  0  0  0  0  0  0  0  0  0  0  0  0  # atno 17395 bound_to 11000

$$$$
