AV-unprocessed.smi:52|AV-procd|sdf|511|dock4
  -GOLD-   2262016383D 1   1.00000     0.00000
 Structure written by MMmdl.
 26 27  0  0  0  0  0  0  0  0  2 V2000
  154.3050  136.9550  156.7853 O   0  0  0  0  0  0  0  0  0  0  0  0
  153.0827  137.1397  156.9774 C   0  0  0  0  0  0  0  0  0  0  0  0
  152.2174  136.3690  156.5063 O   0  5  0  0  0  0  0  0  0  0  0  0
  152.6479  138.3071  157.7878 C   0  0  0  0  0  0  0  0  0  0  0  0
  151.3630  138.6200  158.1531 C   0  0  0  0  0  0  0  0  0  0  0  0
  151.3732  139.7689  158.8969 O   0  0  0  0  0  0  0  0  0  0  0  0
  152.6870  140.1181  158.9552 C   0  0  0  0  0  0  0  0  0  0  0  0
  153.0769  141.3555  159.6944 C   0  0  0  0  0  0  0  0  0  0  0  0
  152.6811  142.5805  159.0076 N   0  0  0  0  0  0  0  0  0  0  0  0
  153.0382  143.7958  159.7216 C   0  0  0  0  0  0  0  0  0  0  0  0
  152.1417  144.9096  159.1628 C   0  0  0  0  0  0  0  0  0  0  0  0
  151.0230  144.1539  158.4269 C   0  0  2  0  0  0  0  0  0  0  0  0
  149.7323  144.6039  158.7804 O   0  0  0  0  0  0  0  0  0  0  0  0
  151.2490  142.6962  158.8297 C   0  0  0  0  0  0  0  0  0  0  0  0
  153.4933  139.2788  158.3094 N   0  0  0  0  0  0  0  0  0  0  0  0
  151.1569  144.2601  157.3495 H   0  0  0  0  0  0  0  0  0  0  0  0
  150.4019  138.1607  157.9760 H   0  0  0  0  0  0  0  0  0  0  0  0
  152.6060  141.3188  160.6772 H   0  0  0  0  0  0  0  0  0  0  0  0
  154.1547  141.3432  159.8625 H   0  0  0  0  0  0  0  0  0  0  0  0
  152.8324  143.6756  160.7867 H   0  0  0  0  0  0  0  0  0  0  0  0
  154.0990  144.0250  159.6154 H   0  0  0  0  0  0  0  0  0  0  0  0
  151.7638  145.5384  159.9702 H   0  0  0  0  0  0  0  0  0  0  0  0
  152.6907  145.5487  158.4704 H   0  0  0  0  0  0  0  0  0  0  0  0
  149.3585  145.0541  158.0384 H   0  0  0  0  0  0  0  0  0  0  0  0
  150.8754  141.9948  158.0830 H   0  0  0  0  0  0  0  0  0  0  0  0
  150.7398  142.4867  159.7726 H   0  0  0  0  0  0  0  0  0  0  0  0
  1  2  2  0  0  0  0
  2  3  1  0  0  0  0
  2  4  1  0  0  0  0
  4 15  1  0  0  0  0
  4  5  2  0  0  0  0
  5  6  1  0  0  0  0
  5 17  1  0  0  0  0
  6  7  1  0  0  0  0
  7  8  1  0  0  0  0
  7 15  2  0  0  0  0
  8  9  1  0  0  0  0
  8 18  1  0  0  0  0
  8 19  1  0  0  0  0
  9 14  1  0  0  0  0
  9 10  1  0  0  0  0
 10 11  1  0  0  0  0
 10 20  1  0  0  0  0
 10 21  1  0  0  0  0
 11 12  1  0  0  0  0
 11 22  1  0  0  0  0
 11 23  1  0  0  0  0
 12 16  1  0  0  0  0
 12 13  1  0  0  0  0
 12 14  1  0  0  0  0
 13 24  1  0  0  0  0
 14 25  1  0  0  0  0
 14 26  1  0  0  0  0
M  CHG  1   3  -1
M  END
> <s_m_source_file>
AV-unprocessed.smi

> <i_m_source_file_index>
52

> <i_lp_mmshare_version>
43012

> <i_f3d_flags>
0

> <s_epik_input>
Tz1DKFtPSF0pYzFbY0hdb2MobjEpW0NIMl1OMltDSDJdW0NIMl1bQ0BIXShbT0hdKVtDSDJdMg==

> <s_epik_cmdline>
J2VwaWtfcHl0aG9uJywgJy1waCcsICc3LjAnLCAnLXRuJywgJzgnLCAnLW1hJywgJzIwMCcsICctbWV0YWxfYmluZGluZycsICctaW1hZScsICc8aW5maWxlLm1hZT4nLCAnLW9tYWUnLCAnPG91dGZpbGUubWFlPic=

> <r_epik_Ionization_Penalty>
1.6537

> <r_epik_Ionization_Penalty_Charging>
0.000221913

> <r_epik_Ionization_Penalty_Neutral>
1.65348

> <r_epik_State_Penalty>
1.75577

> <r_epik_Charging_Adjusted_Penalty>
1.75599

> <i_epik_Tot_Q>
-1

> <i_epik_Tot_abs_Q>
1

> <r_epik_Metal_State_Penalty>
1.75577

> <b_epik_Metal_Only>
0

> <s_lp_Force_Field>
OPLS_2005

> <r_lp_Energy>
35.4981

> <b_lp_Chiralities_Consistent>
1

> <s_lp_Variant>
AV-unprocessed.smi:52-5

> <Gold.Version>
5.8.1

> <Gold.Id.Protein>
6NUR|6NUR_protein|mol2

> <Gold.PLP.Fitness>
37.4936

> <Gold.PLP.PLP>
-25.7464

> <Gold.PLP.part.hbond>
-4.4840

> <Gold.PLP.part.metal>
0.0000

> <Gold.PLP.part.buried>
-4.7758

> <Gold.PLP.part.nonpolar>
-17.2356

> <Gold.PLP.part.repulsive>
0.0000

> <Gold.PLP.ligand.clash>
0.0000

> <Gold.PLP.ligand.torsion>
0.1270

> <Gold.PLP.Chemscore.Hbond>
4.0000

> <Gold.PLP.Chemscore.CHOScore>
0.0000

> <Gold.PLP.Chemscore.Metal>
0.0000

> <Gold.Chemscore.Hbonds>
donor molecule, donor type, donor heavy atom, donor atom, acceptor molecule, acceptor atom, score
      L1  H    13    24       P1  8029  0.94
      P1  H  7997  8009       L1    15  1.00
      P1  H 10752 10765       L1     3  2.00

> <Gold.PLP.Chemscore.Internal.Correction>
0.0012

> <Gold.Rescore>
     Score         DG    S(hbond)    S(metal)    S(lipo)     H(rot)  DE(clash)    DE(int)     intcor
     15.44     -16.68       2.69        0.00      61.63       1.95       0.00       1.24       ----

> <Gold.Chemscore.Fitness>
15.4444

> <Gold.Chemscore.DG>
-16.6813

> <Gold.Chemscore.ZeroCoef>
-5.4800

> <Gold.Chemscore.Hbond>
2.6892

> <Gold.Chemscore.Metal>
0.0000

> <Gold.Chemscore.Lipo>
61.6288

> <Gold.Chemscore.Internal_Hbond>
0.0000

> <Gold.Chemscore.DEClash>
0.0000

> <Gold.Chemscore.DEInternal>
1.2369

> <Gold.Chemscore.Rot>
1.9497

> <Gold.Chemscore.Internal.Correction>
   9.000000E+99

> <Gold.Chemscore.Hbonds>
donor molecule, donor type, donor heavy atom, donor atom, acceptor molecule, acceptor atom, score
      L1  H    13    24       P1  8029  0.20
      P1  H  7997  8009       L1    15  0.90
      P1  H 10752 10765       L1     3  0.39

> <Gold.Chemscore.Hbond.Weighted>
-8.9819

> <Gold.Chemscore.Metal.Weighted>
-0.0000

> <Gold.Chemscore.Lipo.Weighted>
-7.2106

> <Gold.Chemscore.Internal_Hbond.Weighted>
0.0000

> <Gold.Chemscore.DEClash.Weighted>
0.0000

> <Gold.Chemscore.DEInternal.Weighted>
1.2369

> <Gold.Chemscore.Rot.Weighted>
4.9912

> <Gold.Chemscore.Internal.Correction.Weighted>
   9.000000E+99

> <Gold.Protein.RotatedTorsions>
[ 6907 6896 6895 6894 ] final  147.27 input  -60.11 | X-H torsion
[ 7974 7965 7964 7962 ] final   32.17 input  175.53 | X-H torsion
[ 8008 7997 7996 7995 ] final  140.08 input   59.86 | X-H torsion
[ 10167 10162 10161 10158 ] final  123.72 input  -65.29 | X-H torsion
[ 10718 10713 10712 10709 ] final  -25.00 input   66.30 | X-H torsion
[ 10763 10752 10751 10750 ] final -150.55 input  -60.55 | X-H torsion
[ 11005 11000 10999 10996 ] final   -3.73 input  -57.11 | X-H torsion

> <Gold.Protein.ActiveResidues>
 VAL166  LYS551  ARG553  GLY616  TRP617  ASP618  TYR619  PRO620  LYS621  CYS622 
 ASP623  PHE694  ASN695  SER759  ASP760  ASP761  ALA762  ILE779  LEU786  VAL792 
 PHE793  MET794  SER795  GLU796  ALA797  LYS798  CYS799  TRP800  GLU811  SER814 

> <Gold.Protein.RotatedAtoms>
  152.1569  133.4557  159.4841 H   0  0  0  0  0  0  0  0  0  0  0  0  # atno 6907 bound_to 6896
  150.6902  134.2119  159.4372 H   0  0  0  0  0  0  0  0  0  0  0  0  # atno 6908 bound_to 6896
  152.0019  134.9923  160.0616 H   0  0  0  0  0  0  0  0  0  0  0  0  # atno 6909 bound_to 6896
  146.1503  139.6561  142.9103 H   0  0  0  0  0  0  0  0  0  0  0  0  # atno 7974 bound_to 7965
  156.2983  140.2351  156.4342 H   0  0  0  0  0  0  0  0  0  0  0  0  # atno 8008 bound_to 7997
  154.8243  140.0436  157.1453 H   0  0  0  0  0  0  0  0  0  0  0  0  # atno 8009 bound_to 7997
  154.9279  140.3012  155.5186 H   0  0  0  0  0  0  0  0  0  0  0  0  # atno 8010 bound_to 7997
  139.5783  144.6974  151.3595 H   0  0  0  0  0  0  0  0  0  0  0  0  # atno 10167 bound_to 10162
  156.4702  130.4523  149.6874 H   0  0  0  0  0  0  0  0  0  0  0  0  # atno 10718 bound_to 10713
  154.8112  135.3281  154.7300 H   0  0  0  0  0  0  0  0  0  0  0  0  # atno 10763 bound_to 10752
  153.7949  135.6908  153.4869 H   0  0  0  0  0  0  0  0  0  0  0  0  # atno 10764 bound_to 10752
  153.1892  135.4557  155.0074 H   0  0  0  0  0  0  0  0  0  0  0  0  # atno 10765 bound_to 10752
  140.6725  133.9224  155.8503 H   0  0  0  0  0  0  0  0  0  0  0  0  # atno 11005 bound_to 11000
  145.4838  141.0438  143.2631 LP  0  0  0  0  0  0  0  0  0  0  0  0  # atno 17320 bound_to 7965
  144.7896  139.6355  143.7119 LP  0  0  0  0  0  0  0  0  0  0  0  0  # atno 17321 bound_to 7965
  140.7064  143.7503  150.7489 LP  0  0  0  0  0  0  0  0  0  0  0  0  # atno 17342 bound_to 10162
  140.1029  143.4771  152.2415 LP  0  0  0  0  0  0  0  0  0  0  0  0  # atno 17343 bound_to 10162
  156.3626  130.7489  151.2463 LP  0  0  0  0  0  0  0  0  0  0  0  0  # atno 17370 bound_to 10713
  157.7492  131.0346  150.4324 LP  0  0  0  0  0  0  0  0  0  0  0  0  # atno 17371 bound_to 10713
  141.0381  134.0661  157.3935 LP  0  0  0  0  0  0  0  0  0  0  0  0  # atno 17394 bound_to 11000
  139.8977  135.0151  156.7113 LP  0  0  0  0  0  0  0  0  0  0  0  0  # atno 17395 bound_to 11000

$$$$
