AV-unprocessed.smi:2732|AV-procd|sdf|10533|dock8
  -GOLD-   2272014583D 1   1.00000     0.00000
 Structure written by MMmdl.
 34 35  0  0  0  0  0  0  0  0  1 V2000
  154.1856  140.5534  160.3484 C   0  0  0  0  0  0  0  0  0  0  0  0
  152.9356  141.3991  160.0633 C   0  0  1  0  0  0  0  0  0  0  0  0
  153.3316  142.7681  160.0773 O   0  0  0  0  0  0  0  0  0  0  0  0
  152.4835  143.6392  160.8152 C   0  0  0  0  0  0  0  0  0  0  0  0
  152.2206  144.8775  159.9866 C   0  0  0  0  0  0  0  0  0  0  0  0
  150.9761  144.9785  159.1340 C   0  0  0  0  0  0  0  0  0  0  0  0
  152.3255  144.8285  158.4790 C   0  0  0  0  0  0  0  0  0  0  0  0
  152.3144  141.0379  158.7038 C   0  0  0  0  0  0  0  0  0  0  0  0
  152.8926  140.2397  157.9674 O   0  0  0  0  0  0  0  0  0  0  0  0
  151.1590  141.6636  158.4096 N   0  0  0  0  0  0  0  0  0  0  0  0
  150.3425  141.5721  157.2476 C   0  0  0  0  0  0  0  0  0  0  0  0
  148.9886  141.9817  157.1679 C   0  0  0  0  0  0  0  0  0  0  0  0
  148.3026  141.8329  155.9467 C   0  0  0  0  0  0  0  0  0  0  0  0
  148.9914  141.2834  154.8478 C   0  0  0  0  0  0  0  0  0  0  0  0
  148.3434  141.1212  153.6260 N   0  0  0  0  0  0  0  0  0  0  0  0
  150.2812  140.8933  154.9083 N   0  0  0  0  0  0  0  0  0  0  0  0
  150.9327  141.0387  156.0818 C   0  0  0  0  0  0  0  0  0  0  0  0
  153.9542  139.4877  160.3364 H   0  0  0  0  0  0  0  0  0  0  0  0
  154.5950  140.7897  161.3309 H   0  0  0  0  0  0  0  0  0  0  0  0
  154.9709  140.7353  159.6135 H   0  0  0  0  0  0  0  0  0  0  0  0
  152.2134  141.2236  160.8632 H   0  0  0  0  0  0  0  0  0  0  0  0
  151.5342  143.1631  161.0641 H   0  0  0  0  0  0  0  0  0  0  0  0
  152.9653  143.9339  161.7482 H   0  0  0  0  0  0  0  0  0  0  0  0
  152.5450  145.8016  160.4617 H   0  0  0  0  0  0  0  0  0  0  0  0
  150.3074  144.1203  159.1063 H   0  0  0  0  0  0  0  0  0  0  0  0
  150.4908  145.9501  159.0669 H   0  0  0  0  0  0  0  0  0  0  0  0
  152.7422  145.6996  157.9772 H   0  0  0  0  0  0  0  0  0  0  0  0
  152.5574  143.8701  158.0184 H   0  0  0  0  0  0  0  0  0  0  0  0
  150.8279  142.3099  159.1114 H   0  0  0  0  0  0  0  0  0  0  0  0
  148.4574  142.4078  158.0031 H   0  0  0  0  0  0  0  0  0  0  0  0
  147.2695  142.1366  155.8606 H   0  0  0  0  0  0  0  0  0  0  0  0
  147.3783  141.3894  153.4992 H   0  0  0  0  0  0  0  0  0  0  0  0
  148.8224  140.7364  152.8244 H   0  0  0  0  0  0  0  0  0  0  0  0
  151.9635  140.7153  156.0890 H   0  0  0  0  0  0  0  0  0  0  0  0
  1  2  1  0  0  0  0
  1 18  1  0  0  0  0
  1 19  1  0  0  0  0
  1 20  1  0  0  0  0
  2  3  1  0  0  0  0
  2  8  1  0  0  0  0
  2 21  1  0  0  0  0
  3  4  1  0  0  0  0
  4  5  1  0  0  0  0
  4 22  1  0  0  0  0
  4 23  1  0  0  0  0
  5  7  1  0  0  0  0
  5  6  1  0  0  0  0
  5 24  1  0  0  0  0
  6  7  1  0  0  0  0
  6 25  1  0  0  0  0
  6 26  1  0  0  0  0
  7 27  1  0  0  0  0
  7 28  1  0  0  0  0
  8  9  2  0  0  0  0
  8 10  1  0  0  0  0
 10 11  1  0  0  0  0
 10 29  1  0  0  0  0
 11 17  1  0  0  0  0
 11 12  2  0  0  0  0
 12 13  1  0  0  0  0
 12 30  1  0  0  0  0
 13 14  2  0  0  0  0
 13 31  1  0  0  0  0
 14 15  1  0  0  0  0
 14 16  1  0  0  0  0
 15 32  1  0  0  0  0
 15 33  1  0  0  0  0
 16 17  2  0  0  0  0
 17 34  1  0  0  0  0
M  END
> <s_m_source_file>
AV-unprocessed.smi

> <i_m_source_file_index>
2732

> <i_lp_mmshare_version>
43012

> <i_f3d_flags>
0

> <s_epik_input>
W0NIMl0xW0NIMl1bQ0hdMVtDSDJdT1tDQEBIXShbQ0gzXSlDKD1PKVtOSF1jMltjSF1bY0hdYyhbTkgyXSluW2NIXTI=

> <s_epik_cmdline>
J2VwaWtfcHl0aG9uJywgJy1waCcsICc3LjAnLCAnLXRuJywgJzgnLCAnLW1hJywgJzIwMCcsICctbWV0YWxfYmluZGluZycsICctaW1hZScsICc8aW5maWxlLm1hZT4nLCAnLW9tYWUnLCAnPG91dGZpbGUubWFlPic=

> <r_lp_tautomer_probability>
1

> <r_epik_Ionization_Penalty>
0.0764773

> <r_epik_Ionization_Penalty_Charging>
0

> <r_epik_Ionization_Penalty_Neutral>
0.0764773

> <r_epik_State_Penalty>
0.0673619

> <r_epik_Charging_Adjusted_Penalty>
0.0673619

> <i_epik_Tot_Q>
0

> <i_epik_Tot_abs_Q>
0

> <r_epik_Metal_State_Penalty>
0.0594329

> <b_epik_Metal_Only>
0

> <s_lp_Force_Field>
OPLS_2005

> <r_lp_Energy>
18.9716

> <b_lp_Chiralities_Consistent>
1

> <s_lp_Variant>
AV-unprocessed.smi:2732-2

> <Gold.Version>
5.8.1

> <Gold.Id.Protein>
6NUR|6NUR_protein|mol2

> <Gold.PLP.Fitness>
46.9160

> <Gold.PLP.PLP>
-40.5281

> <Gold.PLP.part.hbond>
-2.7516

> <Gold.PLP.part.metal>
0.0000

> <Gold.PLP.part.buried>
-5.9769

> <Gold.PLP.part.nonpolar>
-32.0819

> <Gold.PLP.part.repulsive>
0.3279

> <Gold.PLP.ligand.clash>
0.0000

> <Gold.PLP.ligand.torsion>
1.5785

> <Gold.PLP.Chemscore.Hbond>
2.9920

> <Gold.PLP.Chemscore.CHOScore>
0.0000

> <Gold.PLP.Chemscore.Metal>
0.0000

> <Gold.Chemscore.Hbonds>
donor molecule, donor type, donor heavy atom, donor atom, acceptor molecule, acceptor atom, score
      L1  H    15    33       P1  7957  1.00
      P1  H  7989  7998       L1    16  0.77
      P1  H  7997  8008       L1     9  0.96

> <Gold.PLP.Chemscore.Internal.Correction>
0.5689

> <Gold.Rescore>
     Score         DG    S(hbond)    S(metal)    S(lipo)     H(rot)  DE(clash)    DE(int)     intcor
     17.35     -20.45       2.70        0.00      88.64       1.72       0.04       3.06       ----

> <Gold.Chemscore.Fitness>
17.3487

> <Gold.Chemscore.DG>
-20.4496

> <Gold.Chemscore.ZeroCoef>
-5.4800

> <Gold.Chemscore.Hbond>
2.6981

> <Gold.Chemscore.Metal>
0.0000

> <Gold.Chemscore.Lipo>
88.6390

> <Gold.Chemscore.Internal_Hbond>
0.0000

> <Gold.Chemscore.DEClash>
0.0402

> <Gold.Chemscore.DEInternal>
3.0607

> <Gold.Chemscore.Rot>
1.7237

> <Gold.Chemscore.Internal.Correction>
   9.000000E+99

> <Gold.Chemscore.Hbonds>
donor molecule, donor type, donor heavy atom, donor atom, acceptor molecule, acceptor atom, score
      L1  H    15    33       P1  7957  0.99
      P1  H  7989  7998       L1    16  0.45
      P1  H  7997  8008       L1     9  0.92

> <Gold.Chemscore.Hbond.Weighted>
-9.0115

> <Gold.Chemscore.Metal.Weighted>
-0.0000

> <Gold.Chemscore.Lipo.Weighted>
-10.3708

> <Gold.Chemscore.Internal_Hbond.Weighted>
0.0000

> <Gold.Chemscore.DEClash.Weighted>
0.0402

> <Gold.Chemscore.DEInternal.Weighted>
3.0607

> <Gold.Chemscore.Rot.Weighted>
4.4127

> <Gold.Chemscore.Internal.Correction.Weighted>
   9.000000E+99

> <Gold.Protein.RotatedTorsions>
[ 6907 6896 6895 6894 ] final -110.73 input  -60.11 | X-H torsion
[ 7974 7965 7964 7962 ] final  132.47 input  175.53 | X-H torsion
[ 8008 7997 7996 7995 ] final  -75.92 input   59.86 | X-H torsion
[ 10167 10162 10161 10158 ] final -164.31 input  -65.29 | X-H torsion
[ 10718 10713 10712 10709 ] final  164.88 input   66.30 | X-H torsion
[ 10763 10752 10751 10750 ] final  -36.16 input  -60.55 | X-H torsion
[ 11005 11000 10999 10996 ] final  -69.86 input  -57.11 | X-H torsion

> <Gold.Protein.ActiveResidues>
 VAL166  LYS551  ARG553  GLY616  TRP617  ASP618  TYR619  PRO620  LYS621  CYS622 
 ASP623  PHE694  ASN695  SER759  ASP760  ASP761  ALA762  ILE779  LEU786  VAL792 
 PHE793  MET794  SER795  GLU796  ALA797  LYS798  CYS799  TRP800  GLU811  SER814 

> <Gold.Protein.RotatedAtoms>
  150.7644  133.9339  159.3434 H   0  0  0  0  0  0  0  0  0  0  0  0  # atno 6907 bound_to 6896
  151.7240  135.0886  160.0298 H   0  0  0  0  0  0  0  0  0  0  0  0  # atno 6908 bound_to 6896
  152.3632  133.6285  159.6066 H   0  0  0  0  0  0  0  0  0  0  0  0  # atno 6909 bound_to 6896
  144.9965  139.4354  143.5313 H   0  0  0  0  0  0  0  0  0  0  0  0  # atno 7974 bound_to 7965
  154.5459  140.0736  156.8588 H   0  0  0  0  0  0  0  0  0  0  0  0  # atno 8008 bound_to 7997
  155.3089  140.3389  155.4226 H   0  0  0  0  0  0  0  0  0  0  0  0  # atno 8009 bound_to 7997
  156.1917  140.1689  156.8064 H   0  0  0  0  0  0  0  0  0  0  0  0  # atno 8010 bound_to 7997
  139.6259  144.0532  152.1974 H   0  0  0  0  0  0  0  0  0  0  0  0  # atno 10167 bound_to 10162
  157.0880  131.0410  151.2548 H   0  0  0  0  0  0  0  0  0  0  0  0  # atno 10718 bound_to 10713
  153.8752  135.6827  153.4771 H   0  0  0  0  0  0  0  0  0  0  0  0  # atno 10763 bound_to 10752
  153.1265  135.4717  154.9278 H   0  0  0  0  0  0  0  0  0  0  0  0  # atno 10764 bound_to 10752
  154.7695  135.3234  154.8169 H   0  0  0  0  0  0  0  0  0  0  0  0  # atno 10765 bound_to 10752
  141.1562  133.6775  156.6664 H   0  0  0  0  0  0  0  0  0  0  0  0  # atno 11005 bound_to 11000
  146.3443  139.9327  142.8751 LP  0  0  0  0  0  0  0  0  0  0  0  0  # atno 17320 bound_to 7965
  145.2213  140.9936  143.4044 LP  0  0  0  0  0  0  0  0  0  0  0  0  # atno 17321 bound_to 7965
  140.0186  144.6170  150.7586 LP  0  0  0  0  0  0  0  0  0  0  0  0  # atno 17342 bound_to 10162
  140.7411  143.2813  151.3590 LP  0  0  0  0  0  0  0  0  0  0  0  0  # atno 17343 bound_to 10162
  157.4745  130.7728  149.7355 LP  0  0  0  0  0  0  0  0  0  0  0  0  # atno 17370 bound_to 10713
  155.9905  130.3944  150.3023 LP  0  0  0  0  0  0  0  0  0  0  0  0  # atno 17371 bound_to 10713
  140.3208  134.8009  157.4251 LP  0  0  0  0  0  0  0  0  0  0  0  0  # atno 17394 bound_to 11000
  140.1099  134.5360  155.8276 LP  0  0  0  0  0  0  0  0  0  0  0  0  # atno 17395 bound_to 11000

$$$$
