AV-unprocessed.smi:1738|AV-procd|sdf|7000|dock4
  -GOLD-   22720 8213D 1   1.00000     0.00000
 Structure written by MMmdl.
 46 48  0  0  0  0  0  0  0  0  2 V2000
  154.1771  136.0710  158.0177 C   0  0  0  0  0  0  0  0  0  0  0  0
  152.9297  137.3846  158.3347 S   0  0  0  0  0  0  0  0  0  0  0  0
  152.4906  137.2762  159.7346 O   0  0  0  0  0  0  0  0  0  0  0  0
  153.4799  138.6574  157.8426 O   0  0  0  0  0  0  0  0  0  0  0  0
  151.5531  136.9248  157.2886 C   0  0  0  0  0  0  0  0  0  0  0  0
  150.2358  136.9524  157.7882 C   0  0  0  0  0  0  0  0  0  0  0  0
  149.1850  136.6234  156.9107 C   0  0  0  0  0  0  0  0  0  0  0  0
  149.4914  136.2941  155.5663 C   0  0  0  0  0  0  0  0  0  0  0  0
  148.5351  135.9433  154.5730 N   0  0  0  0  0  0  0  0  0  0  0  0
  147.2672  135.5206  154.7176 C   0  0  0  0  0  0  0  0  0  0  0  0
  146.6936  135.3203  155.7870 O   0  0  0  0  0  0  0  0  0  0  0  0
  146.6835  135.3338  153.5248 N   0  0  0  0  0  0  0  0  0  0  0  0
  145.3020  134.9000  153.3218 C   0  0  1  0  0  0  0  0  0  0  0  0
  144.4443  135.9402  152.5768 C   0  0  0  0  0  0  0  0  0  0  0  0
  143.5640  135.1097  151.6374 C   0  0  0  0  0  0  0  0  0  0  0  0
  144.4406  133.9896  151.2766 N   0  3  2  0  0  0  0  0  0  0  0  0
  143.8609  132.8358  150.5602 C   0  0  0  0  0  0  0  0  0  0  0  0
  145.0137  131.9034  150.1287 C   0  0  0  0  0  0  0  0  0  0  0  0
  145.9393  131.5288  151.3091 C   0  0  0  0  0  0  0  0  0  0  0  0
  146.4006  132.7736  152.0983 C   0  0  0  0  0  0  0  0  0  0  0  0
  145.1636  133.5974  152.4984 C   0  0  1  0  0  0  0  0  0  0  0  0
  150.8494  136.3058  155.1806 C   0  0  0  0  0  0  0  0  0  0  0  0
  151.8647  136.6204  156.0114 N   0  0  0  0  0  0  0  0  0  0  0  0
  155.0699  136.2677  158.6108 H   0  0  0  0  0  0  0  0  0  0  0  0
  154.4377  136.0642  156.9596 H   0  0  0  0  0  0  0  0  0  0  0  0
  153.7637  135.1017  158.2959 H   0  0  0  0  0  0  0  0  0  0  0  0
  150.0297  137.2150  158.8152 H   0  0  0  0  0  0  0  0  0  0  0  0
  148.1776  136.6314  157.2939 H   0  0  0  0  0  0  0  0  0  0  0  0
  148.8476  136.0706  153.6215 H   0  0  0  0  0  0  0  0  0  0  0  0
  147.2298  135.5199  152.6965 H   0  0  0  0  0  0  0  0  0  0  0  0
  144.8393  134.7341  154.2969 H   0  0  0  0  0  0  0  0  0  0  0  0
  143.8599  136.5658  153.2524 H   0  0  0  0  0  0  0  0  0  0  0  0
  145.0789  136.6002  151.9835 H   0  0  0  0  0  0  0  0  0  0  0  0
  142.6843  134.7355  152.1636 H   0  0  0  0  0  0  0  0  0  0  0  0
  143.2340  135.6706  150.7626 H   0  0  0  0  0  0  0  0  0  0  0  0
  143.1526  132.3109  151.2027 H   0  0  0  0  0  0  0  0  0  0  0  0
  143.3104  133.1829  149.6853 H   0  0  0  0  0  0  0  0  0  0  0  0
  144.6125  131.0008  149.6670 H   0  0  0  0  0  0  0  0  0  0  0  0
  145.6055  132.4018  149.3599 H   0  0  0  0  0  0  0  0  0  0  0  0
  145.4060  130.8554  151.9812 H   0  0  0  0  0  0  0  0  0  0  0  0
  146.8049  130.9751  150.9446 H   0  0  0  0  0  0  0  0  0  0  0  0
  146.9582  132.4630  152.9821 H   0  0  0  0  0  0  0  0  0  0  0  0
  147.0767  133.3739  151.4883 H   0  0  0  0  0  0  0  0  0  0  0  0
  144.5035  132.9448  153.0743 H   0  0  0  0  0  0  0  0  0  0  0  0
  151.1320  136.0601  154.1674 H   0  0  0  0  0  0  0  0  0  0  0  0
  145.1361  134.3856  150.6604 H   0  0  0  0  0  0  0  0  0  0  0  0
  1  2  1  0  0  0  0
  1 24  1  0  0  0  0
  1 25  1  0  0  0  0
  1 26  1  0  0  0  0
  2  3  2  0  0  0  0
  2  4  2  0  0  0  0
  2  5  1  0  0  0  0
  5 23  1  0  0  0  0
  5  6  2  0  0  0  0
  6  7  1  0  0  0  0
  6 27  1  0  0  0  0
  7  8  2  0  0  0  0
  7 28  1  0  0  0  0
  8  9  1  0  0  0  0
  8 22  1  0  0  0  0
  9 10  1  0  0  0  0
  9 29  1  0  0  0  0
 10 11  2  0  0  0  0
 10 12  1  0  0  0  0
 12 13  1  0  0  0  0
 12 30  1  0  0  0  0
 13 21  1  0  0  0  0
 13 14  1  0  0  0  0
 13 31  1  0  0  0  0
 14 15  1  0  0  0  0
 14 32  1  0  0  0  0
 14 33  1  0  0  0  0
 15 16  1  0  0  0  0
 15 34  1  0  0  0  0
 15 35  1  0  0  0  0
 16 21  1  0  0  0  0
 16 17  1  0  0  0  0
 16 46  1  0  0  0  0
 17 18  1  0  0  0  0
 17 36  1  0  0  0  0
 17 37  1  0  0  0  0
 18 19  1  0  0  0  0
 18 38  1  0  0  0  0
 18 39  1  0  0  0  0
 19 20  1  0  0  0  0
 19 40  1  0  0  0  0
 19 41  1  0  0  0  0
 20 21  1  0  0  0  0
 20 42  1  0  0  0  0
 20 43  1  0  0  0  0
 21 44  1  0  0  0  0
 22 23  2  0  0  0  0
 22 45  1  0  0  0  0
M  CHG  1  16   1
M  END
> <s_m_source_file>
AV-unprocessed.smi

> <i_m_source_file_index>
1738

> <i_lp_mmshare_version>
43012

> <i_f3d_flags>
0

> <s_epik_input>
W0NIM11TKD1PKSg9TyljMVtjSF1bY0hdYyhbY0hdbjEpW05IXUMoPU8pW05IXVtDQEhdKFtDSDJdW0NIMl0yKVtDQEBIXShOMjMpW0NIMl1bQ0gyXVtDSDJdW0NIMl0z

> <s_epik_cmdline>
J2VwaWtfcHl0aG9uJywgJy1waCcsICc3LjAnLCAnLXRuJywgJzgnLCAnLW1hJywgJzIwMCcsICctbWV0YWxfYmluZGluZycsICctaW1hZScsICc8aW5maWxlLm1hZT4nLCAnLW9tYWUnLCAnPG91dGZpbGUubWFlPic=

> <r_epik_Ionization_Penalty>
0.00100042

> <r_epik_Ionization_Penalty_Charging>
0.000974069

> <r_epik_Ionization_Penalty_Neutral>
2.63543e-05

> <r_epik_State_Penalty>
0.000633842

> <r_epik_Charging_Adjusted_Penalty>
0.00160791

> <i_epik_Tot_Q>
1

> <i_epik_Tot_abs_Q>
1

> <r_epik_Metal_State_Penalty>
-0

> <b_epik_Metal_Only>
0

> <s_lp_Force_Field>
OPLS_2005

> <r_lp_Energy>
43.1339

> <b_lp_Chiralities_Consistent>
1

> <s_lp_Variant>
AV-unprocessed.smi:1738-4

> <Gold.Version>
5.8.1

> <Gold.Id.Protein>
6NUR|6NUR_protein|mol2

> <Gold.PLP.Fitness>
44.3400

> <Gold.PLP.PLP>
-26.7402

> <Gold.PLP.part.hbond>
-5.0000

> <Gold.PLP.part.metal>
0.0000

> <Gold.PLP.part.buried>
-4.4343

> <Gold.PLP.part.nonpolar>
-17.5627

> <Gold.PLP.part.repulsive>
0.0447

> <Gold.PLP.ligand.clash>
0.0000

> <Gold.PLP.ligand.torsion>
1.1985

> <Gold.PLP.Chemscore.Hbond>
4.9920

> <Gold.PLP.Chemscore.CHOScore>
1.0000

> <Gold.PLP.Chemscore.Metal>
0.0000

> <Gold.Chemscore.Hbonds>
donor molecule, donor type, donor heavy atom, donor atom, acceptor molecule, acceptor atom, score
      L1  H     9    29       P1  7948  1.00
      L1  H    12    30       P1  7948  0.99
      P1  H  6896  6907       L1     3  0.28
      P1  H  7997  8008       L1     4  1.00
      P1  H 10752 10765       L1    23  0.80
      L1  C    22    45       P1  7949  0.65

> <Gold.PLP.Chemscore.Internal.Correction>
2.0207

> <Gold.Rescore>
     Score         DG    S(hbond)    S(metal)    S(lipo)     H(rot)  DE(clash)    DE(int)     intcor
     22.19     -24.46       4.10        0.00      67.05       1.00       0.05       2.21       ----

> <Gold.Chemscore.Fitness>
22.1932

> <Gold.Chemscore.DG>
-24.4568

> <Gold.Chemscore.ZeroCoef>
-5.4800

> <Gold.Chemscore.Hbond>
4.0992

> <Gold.Chemscore.Metal>
0.0000

> <Gold.Chemscore.Lipo>
67.0548

> <Gold.Chemscore.Internal_Hbond>
0.0000

> <Gold.Chemscore.DEClash>
0.0515

> <Gold.Chemscore.DEInternal>
2.2122

> <Gold.Chemscore.Rot>
1.0000

> <Gold.Chemscore.Internal.Correction>
   9.000000E+99

> <Gold.Chemscore.Hbonds>
donor molecule, donor type, donor heavy atom, donor atom, acceptor molecule, acceptor atom, score
      L1  H     9    29       P1  7948  0.99
      L1  H    12    30       P1  7948  0.88
      P1  H  6896  6907       L1     3  0.14
      P1  H  7997  8008       L1     4  0.99
      P1  H 10752 10765       L1    23  0.11

> <Gold.Chemscore.Hbond.Weighted>
-13.6914

> <Gold.Chemscore.Metal.Weighted>
-0.0000

> <Gold.Chemscore.Lipo.Weighted>
-7.8454

> <Gold.Chemscore.Internal_Hbond.Weighted>
0.0000

> <Gold.Chemscore.DEClash.Weighted>
0.0515

> <Gold.Chemscore.DEInternal.Weighted>
2.2122

> <Gold.Chemscore.Rot.Weighted>
2.5600

> <Gold.Chemscore.Internal.Correction.Weighted>
   9.000000E+99

> <Gold.Protein.RotatedTorsions>
[ 6907 6896 6895 6894 ] final   32.98 input  -60.11 | X-H torsion
[ 7974 7965 7964 7962 ] final   -5.67 input  175.53 | X-H torsion
[ 8008 7997 7996 7995 ] final  -83.71 input   59.86 | X-H torsion
[ 10167 10162 10161 10158 ] final  100.25 input  -65.29 | X-H torsion
[ 10718 10713 10712 10709 ] final  -62.76 input   66.30 | X-H torsion
[ 10763 10752 10751 10750 ] final -143.82 input  -60.55 | X-H torsion
[ 11005 11000 10999 10996 ] final -116.61 input  -57.11 | X-H torsion

> <Gold.Protein.ActiveResidues>
 VAL166  LYS551  ARG553  GLY616  TRP617  ASP618  TYR619  PRO620  LYS621  CYS622 
 ASP623  PHE694  ASN695  SER759  ASP760  ASP761  ALA762  ILE779  LEU786  VAL792 
 PHE793  MET794  SER795  GLU796  ALA797  LYS798  CYS799  TRP800  GLU811  SER814 

> <Gold.Protein.RotatedAtoms>
  152.0820  134.9464  160.0573 H   0  0  0  0  0  0  0  0  0  0  0  0  # atno 6907 bound_to 6896
  152.0749  133.4120  159.4484 H   0  0  0  0  0  0  0  0  0  0  0  0  # atno 6908 bound_to 6896
  150.6836  134.2968  159.4733 H   0  0  0  0  0  0  0  0  0  0  0  0  # atno 6909 bound_to 6896
  146.2348  140.2055  142.8334 H   0  0  0  0  0  0  0  0  0  0  0  0  # atno 7974 bound_to 7965
  154.6220  140.0615  156.9626 H   0  0  0  0  0  0  0  0  0  0  0  0  # atno 8008 bound_to 7997
  155.1803  140.3298  155.4358 H   0  0  0  0  0  0  0  0  0  0  0  0  # atno 8009 bound_to 7997
  156.2436  140.1899  156.6899 H   0  0  0  0  0  0  0  0  0  0  0  0  # atno 8010 bound_to 7997
  139.7544  144.6974  151.0384 H   0  0  0  0  0  0  0  0  0  0  0  0  # atno 10167 bound_to 10162
  156.0834  130.4213  150.1181 H   0  0  0  0  0  0  0  0  0  0  0  0  # atno 10718 bound_to 10713
  154.8454  135.3457  154.6247 H   0  0  0  0  0  0  0  0  0  0  0  0  # atno 10763 bound_to 10752
  153.6856  135.6977  153.5109 H   0  0  0  0  0  0  0  0  0  0  0  0  # atno 10764 bound_to 10752
  153.2634  135.4315  155.0872 H   0  0  0  0  0  0  0  0  0  0  0  0  # atno 10765 bound_to 10752
  141.0410  133.9835  157.2994 H   0  0  0  0  0  0  0  0  0  0  0  0  # atno 11005 bound_to 11000
  144.9748  140.8403  143.5433 LP  0  0  0  0  0  0  0  0  0  0  0  0  # atno 17320 bound_to 7965
  145.2041  139.2237  143.5177 LP  0  0  0  0  0  0  0  0  0  0  0  0  # atno 17321 bound_to 7965
  140.7801  143.4770  151.0069 LP  0  0  0  0  0  0  0  0  0  0  0  0  # atno 17342 bound_to 10162
  139.8457  143.7504  152.3179 LP  0  0  0  0  0  0  0  0  0  0  0  0  # atno 17343 bound_to 10162
  156.9207  130.9682  151.3549 LP  0  0  0  0  0  0  0  0  0  0  0  0  # atno 17370 bound_to 10713
  157.5960  130.8478  149.8729 LP  0  0  0  0  0  0  0  0  0  0  0  0  # atno 17371 bound_to 10713
  139.9276  135.0201  156.8288 LP  0  0  0  0  0  0  0  0  0  0  0  0  # atno 17394 bound_to 11000
  140.6234  133.9972  155.7629 LP  0  0  0  0  0  0  0  0  0  0  0  0  # atno 17395 bound_to 11000

$$$$
