AV-unprocessed.smi:72|AV-procd|sdf|685|dock10
  -GOLD-   2262017 03D 1   1.00000     0.00000
 Structure written by MMmdl.
 29 30  0  0  0  0  0  0  0  0  1 V2000
  140.3075  136.0006  154.5440 N   0  0  0  0  0  0  0  0  0  0  0  0
  141.4941  136.2253  154.1063 C   0  0  0  0  0  0  0  0  0  0  0  0
  141.8575  137.2693  153.2432 N   0  0  0  0  0  0  0  0  0  0  0  0
  143.0952  137.3618  152.8647 C   0  0  0  0  0  0  0  0  0  0  0  0
  144.1119  136.4047  153.2848 N   0  0  0  0  0  0  0  0  0  0  0  0
  145.5690  136.5129  152.8622 C   0  0  2  0  0  0  0  0  0  0  0  0
  146.3956  136.6180  153.9831 O   0  0  0  0  0  0  0  0  0  0  0  0
  146.6516  137.9891  154.2606 C   0  0  1  0  0  0  0  0  0  0  0  0
  147.9010  138.1201  155.1440 C   0  0  0  0  0  0  0  0  0  0  0  0
  148.2179  139.4830  155.3303 O   0  0  0  0  0  0  0  0  0  0  0  0
  146.8263  138.5692  152.8563 C   0  0  2  0  0  0  0  0  0  0  0  0
  146.5139  139.9478  152.8515 O   0  0  0  0  0  0  0  0  0  0  0  0
  145.8170  137.7851  152.0198 C   0  0  1  0  0  0  0  0  0  0  0  0
  146.3666  137.4727  150.7565 O   0  0  0  0  0  0  0  0  0  0  0  0
  143.7673  135.3816  154.2037 C   0  0  0  0  0  0  0  0  0  0  0  0
  144.5971  134.5871  154.6462 O   0  0  0  0  0  0  0  0  0  0  0  0
  142.4670  135.3283  154.5629 N   0  0  0  0  0  0  0  0  0  0  0  0
  145.7745  135.5767  152.3398 H   0  0  0  0  0  0  0  0  0  0  0  0
  145.7824  138.4421  154.7415 H   0  0  0  0  0  0  0  0  0  0  0  0
  147.8457  138.4039  152.5030 H   0  0  0  0  0  0  0  0  0  0  0  0
  144.8874  138.3431  151.8952 H   0  0  0  0  0  0  0  0  0  0  0  0
  140.3097  135.1939  155.1521 H   0  0  0  0  0  0  0  0  0  0  0  0
  143.4410  138.1639  152.2128 H   0  0  0  0  0  0  0  0  0  0  0  0
  147.7623  137.6261  156.1061 H   0  0  0  0  0  0  0  0  0  0  0  0
  148.7556  137.6494  154.6572 H   0  0  0  0  0  0  0  0  0  0  0  0
  147.4689  139.9162  155.7102 H   0  0  0  0  0  0  0  0  0  0  0  0
  145.5800  140.0407  152.7389 H   0  0  0  0  0  0  0  0  0  0  0  0
  145.7435  137.7237  150.0912 H   0  0  0  0  0  0  0  0  0  0  0  0
  142.1868  134.6008  155.2045 H   0  0  0  0  0  0  0  0  0  0  0  0
  1  2  2  0  0  0  0
  1 22  1  0  0  0  0
  2 17  1  0  0  0  0
  2  3  1  0  0  0  0
  3  4  2  0  0  0  0
  4  5  1  0  0  0  0
  4 23  1  0  0  0  0
  5  6  1  0  0  0  0
  5 15  1  0  0  0  0
  6 18  1  0  0  0  0
  6 13  1  0  0  0  0
  6  7  1  0  0  0  0
  7  8  1  0  0  0  0
  8 19  1  0  0  0  0
  8  9  1  0  0  0  0
  8 11  1  0  0  0  0
  9 10  1  0  0  0  0
  9 24  1  0  0  0  0
  9 25  1  0  0  0  0
 10 26  1  0  0  0  0
 11 20  1  0  0  0  0
 11 12  1  0  0  0  0
 11 13  1  0  0  0  0
 12 27  1  0  0  0  0
 13 21  1  0  0  0  0
 13 14  1  0  0  0  0
 14 28  1  0  0  0  0
 15 16  2  0  0  0  0
 15 17  1  0  0  0  0
 17 29  1  0  0  0  0
M  END
> <s_m_source_file>
AV-unprocessed.smi

> <i_m_source_file_index>
72

> <i_lp_mmshare_version>
43012

> <i_f3d_flags>
0

> <s_epik_input>
W05IMl1jMW5bY0hdbihjKD1PKW4xKVtDQEBIXTJPW0NASF0oW0NIMl1bT0hdKVtDQEBIXShbT0hdKVtDQEhdMltPSF0=

> <s_epik_cmdline>
J2VwaWtfcHl0aG9uJywgJy1waCcsICc3LjAnLCAnLXRuJywgJzgnLCAnLW1hJywgJzIwMCcsICctbWV0YWxfYmluZGluZycsICctaW1hZScsICc8aW5maWxlLm1hZT4nLCAnLW9tYWUnLCAnPG91dGZpbGUubWFlPic=

> <r_lp_tautomer_probability>
7.17554e-07

> <r_epik_Ionization_Penalty>
0.0066451

> <r_epik_Ionization_Penalty_Charging>
0.00663793

> <r_epik_Ionization_Penalty_Neutral>
7.17052e-06

> <r_epik_State_Penalty>
0.419231

> <r_epik_Charging_Adjusted_Penalty>
0.425868

> <i_epik_Tot_Q>
0

> <i_epik_Tot_abs_Q>
0

> <r_epik_Metal_State_Penalty>
1.44144

> <b_epik_Metal_Only>
0

> <s_epik_Chemistry_Notes>
This compound contains an acetal/aminal-like group ( X-CH(R)-Y where X, Y are N, S, or O) that may be acid/base labile, releasing an aldehyde.

> <s_lp_Force_Field>
OPLS_2005

> <r_lp_Energy>
35.407

> <b_lp_Chiralities_Consistent>
1

> <s_lp_Variant>
AV-unprocessed.smi:72-23

> <Gold.Version>
5.8.1

> <Gold.Id.Protein>
6NUR|6NUR_protein|mol2

> <Gold.PLP.Fitness>
36.5403

> <Gold.PLP.PLP>
-18.7751

> <Gold.PLP.part.hbond>
-5.2616

> <Gold.PLP.part.metal>
0.0000

> <Gold.PLP.part.buried>
-3.3003

> <Gold.PLP.part.nonpolar>
-11.5394

> <Gold.PLP.part.repulsive>
0.4081

> <Gold.PLP.ligand.clash>
0.0000

> <Gold.PLP.ligand.torsion>
0.0582

> <Gold.PLP.Chemscore.Hbond>
3.9479

> <Gold.PLP.Chemscore.CHOScore>
2.0000

> <Gold.PLP.Chemscore.Metal>
0.0000

> <Gold.Chemscore.Hbonds>
donor molecule, donor type, donor heavy atom, donor atom, acceptor molecule, acceptor atom, score
      L1  H     1    22       P1 11000  1.00
      L1  H    12    27       P1 10175  1.00
      L1  H    14    28       P1 10171  0.80
      L1  H    17    29       P1 11000  0.09
      P1  H  7954  7966       L1    14  1.00
      L1  C     4    23       P1 10171  1.00
      L1  C     4    23       P1 10175  1.00

> <Gold.PLP.Chemscore.Internal.Correction>
0.0380

> <Gold.Rescore>
     Score         DG    S(hbond)    S(metal)    S(lipo)     H(rot)  DE(clash)    DE(int)     intcor
      6.60      -8.66       3.42        0.00      18.42       4.06       0.62       1.44       ----

> <Gold.Chemscore.Fitness>
6.5959

> <Gold.Chemscore.DG>
-8.6634

> <Gold.Chemscore.ZeroCoef>
-5.4800

> <Gold.Chemscore.Hbond>
3.4197

> <Gold.Chemscore.Metal>
0.0000

> <Gold.Chemscore.Lipo>
18.4216

> <Gold.Chemscore.Internal_Hbond>
0.0000

> <Gold.Chemscore.DEClash>
0.6230

> <Gold.Chemscore.DEInternal>
1.4445

> <Gold.Chemscore.Rot>
4.0600

> <Gold.Chemscore.Internal.Correction>
   9.000000E+99

> <Gold.Chemscore.Hbonds>
donor molecule, donor type, donor heavy atom, donor atom, acceptor molecule, acceptor atom, score
      L1  H     1    22       P1 11000  0.74
      L1  H    12    27       P1 10175  0.96
      L1  H    14    28       P1 10171  0.77
      L1  H    17    29       P1 11000  0.06
      P1  H  7954  7966       L1    14  0.36

> <Gold.Chemscore.Hbond.Weighted>
-11.4217

> <Gold.Chemscore.Metal.Weighted>
-0.0000

> <Gold.Chemscore.Lipo.Weighted>
-2.1553

> <Gold.Chemscore.Internal_Hbond.Weighted>
0.0000

> <Gold.Chemscore.DEClash.Weighted>
0.6230

> <Gold.Chemscore.DEInternal.Weighted>
1.4445

> <Gold.Chemscore.Rot.Weighted>
10.3936

> <Gold.Chemscore.Internal.Correction.Weighted>
   9.000000E+99

> <Gold.Protein.RotatedTorsions>
[ 6907 6896 6895 6894 ] final   75.80 input  -60.11 | X-H torsion
[ 7974 7965 7964 7962 ] final   -9.26 input  175.53 | X-H torsion
[ 8008 7997 7996 7995 ] final  -48.76 input   59.86 | X-H torsion
[ 10167 10162 10161 10158 ] final   93.93 input  -65.29 | X-H torsion
[ 10718 10713 10712 10709 ] final  -95.85 input   66.30 | X-H torsion
[ 10763 10752 10751 10750 ] final  -48.70 input  -60.55 | X-H torsion
[ 11005 11000 10999 10996 ] final -176.42 input  -57.11 | X-H torsion

> <Gold.Protein.ActiveResidues>
 VAL166  LYS551  ARG553  GLY616  TRP617  ASP618  TYR619  PRO620  LYS621  CYS622 
 ASP623  PHE694  ASN695  SER759  ASP760  ASP761  ALA762  ILE779  LEU786  VAL792 
 PHE793  MET794  SER795  GLU796  ALA797  LYS798  CYS799  TRP800  GLU811  SER814 

> <Gold.Protein.RotatedAtoms>
  152.5043  134.4065  159.9434 H   0  0  0  0  0  0  0  0  0  0  0  0  # atno 6907 bound_to 6896
  151.4031  133.3745  159.2742 H   0  0  0  0  0  0  0  0  0  0  0  0  # atno 6908 bound_to 6896
  150.9346  134.8781  159.7633 H   0  0  0  0  0  0  0  0  0  0  0  0  # atno 6909 bound_to 6896
  146.2257  140.2589  142.8351 H   0  0  0  0  0  0  0  0  0  0  0  0  # atno 7974 bound_to 7965
  154.4033  140.1313  156.4392 H   0  0  0  0  0  0  0  0  0  0  0  0  # atno 8008 bound_to 7997
  155.7475  140.3488  155.5114 H   0  0  0  0  0  0  0  0  0  0  0  0  # atno 8009 bound_to 7997
  155.8981  140.1014  157.1360 H   0  0  0  0  0  0  0  0  0  0  0  0  # atno 8010 bound_to 7997
  139.8132  144.6764  150.9613 H   0  0  0  0  0  0  0  0  0  0  0  0  # atno 10167 bound_to 10162
  156.0051  130.5126  150.6138 H   0  0  0  0  0  0  0  0  0  0  0  0  # atno 10718 bound_to 10713
  154.0820  135.6589  153.4839 H   0  0  0  0  0  0  0  0  0  0  0  0  # atno 10763 bound_to 10752
  153.0352  135.5182  154.7464 H   0  0  0  0  0  0  0  0  0  0  0  0  # atno 10764 bound_to 10752
  154.6562  135.3008  154.9893 H   0  0  0  0  0  0  0  0  0  0  0  0  # atno 10765 bound_to 10752
  140.4523  134.6332  157.4806 H   0  0  0  0  0  0  0  0  0  0  0  0  # atno 11005 bound_to 11000
  144.9354  140.8021  143.5663 LP  0  0  0  0  0  0  0  0  0  0  0  0  # atno 17320 bound_to 7965
  145.2537  139.2021  143.4929 LP  0  0  0  0  0  0  0  0  0  0  0  0  # atno 17321 bound_to 7965
  140.7817  143.4164  151.0911 LP  0  0  0  0  0  0  0  0  0  0  0  0  # atno 17342 bound_to 10162
  139.7829  143.8329  152.3140 LP  0  0  0  0  0  0  0  0  0  0  0  0  # atno 17343 bound_to 10162
  157.3966  131.0803  151.1346 LP  0  0  0  0  0  0  0  0  0  0  0  0  # atno 17370 bound_to 10713
  157.2021  130.6399  149.5742 LP  0  0  0  0  0  0  0  0  0  0  0  0  # atno 17371 bound_to 10713
  139.9999  134.6853  155.9547 LP  0  0  0  0  0  0  0  0  0  0  0  0  # atno 17394 bound_to 11000
  141.1659  133.6537  156.4477 LP  0  0  0  0  0  0  0  0  0  0  0  0  # atno 17395 bound_to 11000

$$$$
