AV-unprocessed.smi:2710|AV-procd|sdf|10470|dock10
  -GOLD-   2272014513D 1   1.00000     0.00000
 Structure written by MMmdl.
 53 54  0  0  0  0  0  0  0  0  2 V2000
  146.9759  129.2427  152.3512 C   0  0  0  0  0  0  0  0  0  0  0  0
  145.9398  130.3389  152.0602 C   0  0  0  0  0  0  0  0  0  0  0  0
  146.5619  131.6534  151.7243 N   0  3  2  0  0  0  0  0  0  0  0  0
  146.9322  132.4715  152.9138 C   0  0  0  0  0  0  0  0  0  0  0  0
  145.6964  133.0815  153.6052 C   0  0  0  0  0  0  0  0  0  0  0  0
  144.8434  133.8975  152.6171 C   0  0  2  0  0  0  0  0  0  0  0  0
  143.6044  134.3259  153.2613 N   0  0  0  0  0  0  0  0  0  0  0  0
  142.9804  135.4958  153.0607 C   0  0  0  0  0  0  0  0  0  0  0  0
  143.3890  136.3643  152.2905 O   0  0  0  0  0  0  0  0  0  0  0  0
  141.8777  135.5936  153.8222 N   0  0  0  0  0  0  0  0  0  0  0  0
  140.9507  136.6676  153.8840 C   0  0  0  0  0  0  0  0  0  0  0  0
  141.2871  137.9025  153.2938 C   0  0  0  0  0  0  0  0  0  0  0  0
  140.4524  138.9623  153.3286 N   0  0  0  0  0  0  0  0  0  0  0  0
  139.2787  138.8063  153.9546 C   0  0  0  0  0  0  0  0  0  0  0  0
  138.3591  140.0402  154.0019 C   0  0  0  0  0  0  0  0  0  0  0  0
  139.0095  141.2789  153.3378 C   0  0  0  0  0  0  0  0  0  0  0  0
  138.0653  140.4203  155.4685 C   0  0  0  0  0  0  0  0  0  0  0  0
  137.0472  139.7406  153.2496 C   0  0  0  0  0  0  0  0  0  0  0  0
  138.8747  137.6892  154.5738 N   0  0  0  0  0  0  0  0  0  0  0  0
  139.6979  136.6197  154.5403 C   0  0  0  0  0  0  0  0  0  0  0  0
  144.5206  133.0645  151.3636 C   0  0  0  0  0  0  0  0  0  0  0  0
  145.8057  132.4836  150.7380 C   0  0  2  0  0  0  0  0  0  0  0  0
  145.5422  131.7684  149.4007 C   0  0  0  0  0  0  0  0  0  0  0  0
  146.4854  128.2750  152.4574 H   0  0  0  0  0  0  0  0  0  0  0  0
  147.5222  129.4239  153.2761 H   0  0  0  0  0  0  0  0  0  0  0  0
  147.6982  129.1565  151.5391 H   0  0  0  0  0  0  0  0  0  0  0  0
  145.3476  129.9827  151.2200 H   0  0  0  0  0  0  0  0  0  0  0  0
  145.2488  130.4352  152.8971 H   0  0  0  0  0  0  0  0  0  0  0  0
  147.5199  131.8939  153.6255 H   0  0  0  0  0  0  0  0  0  0  0  0
  147.5898  133.2766  152.5835 H   0  0  0  0  0  0  0  0  0  0  0  0
  145.0954  132.2914  154.0563 H   0  0  0  0  0  0  0  0  0  0  0  0
  146.0181  133.7208  154.4284 H   0  0  0  0  0  0  0  0  0  0  0  0
  145.4284  134.7630  152.3004 H   0  0  0  0  0  0  0  0  0  0  0  0
  143.1898  133.6806  153.9178 H   0  0  0  0  0  0  0  0  0  0  0  0
  141.7129  134.8394  154.4726 H   0  0  0  0  0  0  0  0  0  0  0  0
  142.2298  138.0432  152.7854 H   0  0  0  0  0  0  0  0  0  0  0  0
  138.3532  142.1482  153.3919 H   0  0  0  0  0  0  0  0  0  0  0  0
  139.2223  141.1067  152.2818 H   0  0  0  0  0  0  0  0  0  0  0  0
  139.9462  141.5520  153.8258 H   0  0  0  0  0  0  0  0  0  0  0  0
  138.9862  140.6279  156.0148 H   0  0  0  0  0  0  0  0  0  0  0  0
  137.5423  139.6228  155.9971 H   0  0  0  0  0  0  0  0  0  0  0  0
  137.4381  141.3101  155.5306 H   0  0  0  0  0  0  0  0  0  0  0  0
  136.3810  140.6040  153.2529 H   0  0  0  0  0  0  0  0  0  0  0  0
  136.5035  138.9121  153.7049 H   0  0  0  0  0  0  0  0  0  0  0  0
  137.2392  139.4757  152.2093 H   0  0  0  0  0  0  0  0  0  0  0  0
  139.3472  135.7429  155.0621 H   0  0  0  0  0  0  0  0  0  0  0  0
  143.8282  132.2590  151.6124 H   0  0  0  0  0  0  0  0  0  0  0  0
  144.0072  133.6928  150.6343 H   0  0  0  0  0  0  0  0  0  0  0  0
  146.4570  133.3250  150.4953 H   0  0  0  0  0  0  0  0  0  0  0  0
  145.1965  132.4796  148.6497 H   0  0  0  0  0  0  0  0  0  0  0  0
  144.7720  131.0020  149.4855 H   0  0  0  0  0  0  0  0  0  0  0  0
  146.4490  131.3021  149.0148 H   0  0  0  0  0  0  0  0  0  0  0  0
  147.4322  131.4216  151.2672 H   0  0  0  0  0  0  0  0  0  0  0  0
  1  2  1  0  0  0  0
  1 24  1  0  0  0  0
  1 25  1  0  0  0  0
  1 26  1  0  0  0  0
  2  3  1  0  0  0  0
  2 27  1  0  0  0  0
  2 28  1  0  0  0  0
  3 22  1  0  0  0  0
  3  4  1  0  0  0  0
  3 53  1  0  0  0  0
  4  5  1  0  0  0  0
  4 29  1  0  0  0  0
  4 30  1  0  0  0  0
  5  6  1  0  0  0  0
  5 31  1  0  0  0  0
  5 32  1  0  0  0  0
  6  7  1  0  0  0  0
  6 21  1  0  0  0  0
  6 33  1  0  0  0  0
  7  8  1  0  0  0  0
  7 34  1  0  0  0  0
  8  9  2  0  0  0  0
  8 10  1  0  0  0  0
 10 11  1  0  0  0  0
 10 35  1  0  0  0  0
 11 20  1  0  0  0  0
 11 12  2  0  0  0  0
 12 13  1  0  0  0  0
 12 36  1  0  0  0  0
 13 14  2  0  0  0  0
 14 15  1  0  0  0  0
 14 19  1  0  0  0  0
 15 16  1  0  0  0  0
 15 17  1  0  0  0  0
 15 18  1  0  0  0  0
 16 37  1  0  0  0  0
 16 38  1  0  0  0  0
 16 39  1  0  0  0  0
 17 40  1  0  0  0  0
 17 41  1  0  0  0  0
 17 42  1  0  0  0  0
 18 43  1  0  0  0  0
 18 44  1  0  0  0  0
 18 45  1  0  0  0  0
 19 20  2  0  0  0  0
 20 46  1  0  0  0  0
 21 22  1  0  0  0  0
 21 47  1  0  0  0  0
 21 48  1  0  0  0  0
 22 23  1  0  0  0  0
 22 49  1  0  0  0  0
 23 50  1  0  0  0  0
 23 51  1  0  0  0  0
 23 52  1  0  0  0  0
M  CHG  1   3   1
M  END
> <s_m_source_file>
AV-unprocessed.smi

> <i_m_source_file_index>
2710

> <i_lp_mmshare_version>
43012

> <i_f3d_flags>
0

> <s_epik_input>
W0NIM11bQ0gyXU4xW0NIMl1bQ0gyXVtDQEhdKFtDSDJdW0NASF0xW0NIM10pW05IXUMoPU8pW05IXWMyW2NIXW5jKEMoW0NIM10pKFtDSDNdKVtDSDNdKW5bY0hdMg==

> <s_epik_cmdline>
J2VwaWtfcHl0aG9uJywgJy1waCcsICc3LjAnLCAnLXRuJywgJzgnLCAnLW1hJywgJzIwMCcsICctbWV0YWxfYmluZGluZycsICctaW1hZScsICc8aW5maWxlLm1hZT4nLCAnLW9tYWUnLCAnPG91dGZpbGUubWFlPic=

> <r_lp_tautomer_probability>
1

> <r_epik_Ionization_Penalty>
0.00396003

> <r_epik_Ionization_Penalty_Charging>
0.0039379

> <r_epik_Ionization_Penalty_Neutral>
2.21316e-05

> <r_epik_State_Penalty>
0.00281651

> <r_epik_Charging_Adjusted_Penalty>
0.00675441

> <i_epik_Tot_Q>
1

> <i_epik_Tot_abs_Q>
1

> <r_epik_Metal_State_Penalty>
-0

> <b_epik_Metal_Only>
0

> <s_lp_Force_Field>
OPLS_2005

> <r_lp_Energy>
21.9784

> <b_lp_Chiralities_Consistent>
1

> <s_lp_Variant>
AV-unprocessed.smi:2710-7

> <Gold.Version>
5.8.1

> <Gold.Id.Protein>
6NUR|6NUR_protein|mol2

> <Gold.PLP.Fitness>
43.7653

> <Gold.PLP.PLP>
-35.2706

> <Gold.PLP.part.hbond>
-1.5045

> <Gold.PLP.part.metal>
0.0000

> <Gold.PLP.part.buried>
-6.8421

> <Gold.PLP.part.nonpolar>
-28.0419

> <Gold.PLP.part.repulsive>
0.7639

> <Gold.PLP.ligand.clash>
0.0000

> <Gold.PLP.ligand.torsion>
0.7622

> <Gold.PLP.Chemscore.Hbond>
1.5525

> <Gold.PLP.Chemscore.CHOScore>
1.7729

> <Gold.PLP.Chemscore.Metal>
0.0000

> <Gold.Chemscore.Hbonds>
donor molecule, donor type, donor heavy atom, donor atom, acceptor molecule, acceptor atom, score
      L1  H     3    53       P1 10747  1.00
      L1  H     7    34       P1 10957  0.67
      L1  C    12    36       P1 10175  0.36
      L1  C    20    46       P1 11000  1.00

> <Gold.PLP.Chemscore.Internal.Correction>
0.0429

> <Gold.Rescore>
     Score         DG    S(hbond)    S(metal)    S(lipo)     H(rot)  DE(clash)    DE(int)     intcor
     18.65     -20.83       1.98        0.00     103.17       1.31       0.02       2.15       ----

> <Gold.Chemscore.Fitness>
18.6530

> <Gold.Chemscore.DG>
-20.8270

> <Gold.Chemscore.ZeroCoef>
-5.4800

> <Gold.Chemscore.Hbond>
1.9836

> <Gold.Chemscore.Metal>
0.0000

> <Gold.Chemscore.Lipo>
103.1669

> <Gold.Chemscore.Internal_Hbond>
0.0000

> <Gold.Chemscore.DEClash>
0.0228

> <Gold.Chemscore.DEInternal>
2.1512

> <Gold.Chemscore.Rot>
1.3081

> <Gold.Chemscore.Internal.Correction>
   9.000000E+99

> <Gold.Chemscore.Hbonds>
donor molecule, donor type, donor heavy atom, donor atom, acceptor molecule, acceptor atom, score
      L1  H     3    53       P1 10747  1.00
      L1  H     7    34       P1 10957  0.66

> <Gold.Chemscore.Hbond.Weighted>
-6.6253

> <Gold.Chemscore.Metal.Weighted>
-0.0000

> <Gold.Chemscore.Lipo.Weighted>
-12.0705

> <Gold.Chemscore.Internal_Hbond.Weighted>
0.0000

> <Gold.Chemscore.DEClash.Weighted>
0.0228

> <Gold.Chemscore.DEInternal.Weighted>
2.1512

> <Gold.Chemscore.Rot.Weighted>
3.3488

> <Gold.Chemscore.Internal.Correction.Weighted>
   9.000000E+99

> <Gold.Protein.RotatedTorsions>
[ 6907 6896 6895 6894 ] final -135.14 input  -60.11 | X-H torsion
[ 7974 7965 7964 7962 ] final  -65.71 input  175.53 | X-H torsion
[ 8008 7997 7996 7995 ] final   71.45 input   59.86 | X-H torsion
[ 10167 10162 10161 10158 ] final  157.34 input  -65.29 | X-H torsion
[ 10718 10713 10712 10709 ] final -120.84 input   66.30 | X-H torsion
[ 10763 10752 10751 10750 ] final  -69.56 input  -60.55 | X-H torsion
[ 11005 11000 10999 10996 ] final  -74.24 input  -57.11 | X-H torsion

> <Gold.Protein.ActiveResidues>
 VAL166  LYS551  ARG553  GLY616  TRP617  ASP618  TYR619  PRO620  LYS621  CYS622 
 ASP623  PHE694  ASN695  SER759  ASP760  ASP761  ALA762  ILE779  LEU786  VAL792 
 PHE793  MET794  SER795  GLU796  ALA797  LYS798  CYS799  TRP800  GLU811  SER814 

> <Gold.Protein.RotatedAtoms>
  150.9942  133.6119  159.2703 H   0  0  0  0  0  0  0  0  0  0  0  0  # atno 6907 bound_to 6896
  151.3329  135.0845  159.9354 H   0  0  0  0  0  0  0  0  0  0  0  0  # atno 6908 bound_to 6896
  152.5255  133.9568  159.7752 H   0  0  0  0  0  0  0  0  0  0  0  0  # atno 6909 bound_to 6896
  145.7509  140.8909  143.0480 H   0  0  0  0  0  0  0  0  0  0  0  0  # atno 7974 bound_to 7965
  155.7541  140.3488  155.5165 H   0  0  0  0  0  0  0  0  0  0  0  0  # atno 8008 bound_to 7997
  155.8977  140.1028  157.1394 H   0  0  0  0  0  0  0  0  0  0  0  0  # atno 8009 bound_to 7997
  154.4040  140.1292  156.4383 H   0  0  0  0  0  0  0  0  0  0  0  0  # atno 8010 bound_to 7997
  139.4823  144.4926  151.8286 H   0  0  0  0  0  0  0  0  0  0  0  0  # atno 10167 bound_to 10162
  156.1289  130.6380  150.9589 H   0  0  0  0  0  0  0  0  0  0  0  0  # atno 10718 bound_to 10713
  154.4051  135.6022  153.5920 H   0  0  0  0  0  0  0  0  0  0  0  0  # atno 10763 bound_to 10752
  152.9789  135.5916  154.4137 H   0  0  0  0  0  0  0  0  0  0  0  0  # atno 10764 bound_to 10752
  154.3941  135.2842  155.2115 H   0  0  0  0  0  0  0  0  0  0  0  0  # atno 10765 bound_to 10752
  141.1632  133.6905  156.7334 H   0  0  0  0  0  0  0  0  0  0  0  0  # atno 11005 bound_to 11000
  144.6850  139.9589  143.7480 LP  0  0  0  0  0  0  0  0  0  0  0  0  # atno 17320 bound_to 7965
  146.0358  139.3376  143.0727 LP  0  0  0  0  0  0  0  0  0  0  0  0  # atno 17321 bound_to 7965
  140.4411  144.1984  150.5891 LP  0  0  0  0  0  0  0  0  0  0  0  0  # atno 17342 bound_to 10162
  140.4682  143.2423  151.9126 LP  0  0  0  0  0  0  0  0  0  0  0  0  # atno 17343 bound_to 10162
  157.6469  131.0903  150.8134 LP  0  0  0  0  0  0  0  0  0  0  0  0  # atno 17370 bound_to 10713
  156.8222  130.4987  149.5342 LP  0  0  0  0  0  0  0  0  0  0  0  0  # atno 17371 bound_to 10713
  140.2728  134.8378  157.3863 LP  0  0  0  0  0  0  0  0  0  0  0  0  # atno 17394 bound_to 11000
  140.1505  134.4856  155.7965 LP  0  0  0  0  0  0  0  0  0  0  0  0  # atno 17395 bound_to 11000

$$$$
