AV-unprocessed.smi:545|AV-procd|sdf|2881|dock1
  -GOLD-   2262023373D 1   1.00000     0.00000
 Structure written by MMmdl.
 36 37  0  0  0  0  0  0  0  0  1 V2000
  153.9910  137.1371  162.8262 C   0  0  0  0  0  0  0  0  0  0  0  0
  154.6070  138.1407  162.0398 O   0  0  0  0  0  0  0  0  0  0  0  0
  153.7343  138.6784  161.0598 C   0  0  0  0  0  0  0  0  0  0  0  0
  154.1611  140.1112  160.7110 C   0  0  0  0  0  0  0  0  0  0  0  0
  153.1858  140.7798  159.8492 N   0  0  0  0  0  0  0  0  0  0  0  0
  152.5376  141.9725  160.0145 C   0  0  0  0  0  0  0  0  0  0  0  0
  152.6959  142.8044  161.1320 N   0  0  0  0  0  0  0  0  0  0  0  0
  151.9904  144.0714  161.2798 C   0  0  0  0  0  0  0  0  0  0  0  0
  153.3964  142.5155  162.3773 C   0  0  0  0  0  0  0  0  0  0  0  0
  151.7528  142.3128  158.9864 N   0  0  0  0  0  0  0  0  0  0  0  0
  151.8969  141.2582  158.1021 C   0  0  0  0  0  0  0  0  0  0  0  0
  152.7608  140.3355  158.5932 C   0  0  0  0  0  0  0  0  0  0  0  0
  153.1345  139.1316  157.8343 C   0  0  0  0  0  0  0  0  0  0  0  0
  153.9340  138.2910  158.2400 O   0  0  0  0  0  0  0  0  0  0  0  0
  152.5153  139.0452  156.6322 N   0  0  0  0  0  0  0  0  0  0  0  0
  151.6312  139.9339  156.0860 C   0  0  0  0  0  0  0  0  0  0  0  0
  151.1522  139.7200  154.9724 O   0  0  0  0  0  0  0  0  0  0  0  0
  151.3149  141.0483  156.8193 N   0  0  0  0  0  0  0  0  0  0  0  0
  150.3788  142.0370  156.2812 C   0  0  0  0  0  0  0  0  0  0  0  0
  152.7366  138.2347  156.0724 H   0  0  0  0  0  0  0  0  0  0  0  0
  154.7023  136.7612  163.5614 H   0  0  0  0  0  0  0  0  0  0  0  0
  153.6675  136.2967  162.2104 H   0  0  0  0  0  0  0  0  0  0  0  0
  153.1275  137.5314  163.3634 H   0  0  0  0  0  0  0  0  0  0  0  0
  153.7527  138.0567  160.1633 H   0  0  0  0  0  0  0  0  0  0  0  0
  152.7098  138.6799  161.4345 H   0  0  0  0  0  0  0  0  0  0  0  0
  154.2937  140.6932  161.6212 H   0  0  0  0  0  0  0  0  0  0  0  0
  155.1455  140.1128  160.2580 H   0  0  0  0  0  0  0  0  0  0  0  0
  151.6999  144.4699  160.3073 H   0  0  0  0  0  0  0  0  0  0  0  0
  152.6183  144.8203  161.7643 H   0  0  0  0  0  0  0  0  0  0  0  0
  151.0870  143.9369  161.8753 H   0  0  0  0  0  0  0  0  0  0  0  0
  153.3580  141.4484  162.5963 H   0  0  0  0  0  0  0  0  0  0  0  0
  152.9477  143.0281  163.2296 H   0  0  0  0  0  0  0  0  0  0  0  0
  154.4386  142.8281  162.3103 H   0  0  0  0  0  0  0  0  0  0  0  0
  149.4367  141.5643  156.0000 H   0  0  0  0  0  0  0  0  0  0  0  0
  150.7992  142.5141  155.3950 H   0  0  0  0  0  0  0  0  0  0  0  0
  150.1421  142.8239  156.9972 H   0  0  0  0  0  0  0  0  0  0  0  0
  1  2  1  0  0  0  0
  1 21  1  0  0  0  0
  1 22  1  0  0  0  0
  1 23  1  0  0  0  0
  2  3  1  0  0  0  0
  3  4  1  0  0  0  0
  3 24  1  0  0  0  0
  3 25  1  0  0  0  0
  4  5  1  0  0  0  0
  4 26  1  0  0  0  0
  4 27  1  0  0  0  0
  5 12  1  0  0  0  0
  5  6  1  0  0  0  0
  6  7  1  0  0  0  0
  6 10  2  0  0  0  0
  7  8  1  0  0  0  0
  7  9  1  0  0  0  0
  8 28  1  0  0  0  0
  8 29  1  0  0  0  0
  8 30  1  0  0  0  0
  9 31  1  0  0  0  0
  9 32  1  0  0  0  0
  9 33  1  0  0  0  0
 10 11  1  0  0  0  0
 11 18  1  0  0  0  0
 11 12  2  0  0  0  0
 12 13  1  0  0  0  0
 13 14  2  0  0  0  0
 13 15  1  0  0  0  0
 15 20  1  0  0  0  0
 15 16  1  0  0  0  0
 16 17  2  0  0  0  0
 16 18  1  0  0  0  0
 18 19  1  0  0  0  0
 19 34  1  0  0  0  0
 19 35  1  0  0  0  0
 19 36  1  0  0  0  0
M  END
> <s_m_source_file>
AV-unprocessed.smi

> <i_m_source_file_index>
545

> <i_lp_mmshare_version>
43012

> <i_f3d_flags>
0

> <s_epik_input>
W0NIM11PW0NIMl1bQ0gyXW4oYyhuMSlOKFtDSDNdKVtDSDNdKWMoYzEyKWMoPU8pW25IXWMoPU8pbjJbQ0gzXQ==

> <s_epik_cmdline>
J2VwaWtfcHl0aG9uJywgJy1waCcsICc3LjAnLCAnLXRuJywgJzgnLCAnLW1hJywgJzIwMCcsICctbWV0YWxfYmluZGluZycsICctaW1hZScsICc8aW5maWxlLm1hZT4nLCAnLW9tYWUnLCAnPG91dGZpbGUubWFlPic=

> <r_lp_tautomer_probability>
1

> <r_epik_Ionization_Penalty>
6.48997e-05

> <r_epik_Ionization_Penalty_Charging>
1.66474e-05

> <r_epik_Ionization_Penalty_Neutral>
4.82523e-05

> <r_epik_State_Penalty>
-0

> <r_epik_Charging_Adjusted_Penalty>
1.66474e-05

> <i_epik_Tot_Q>
0

> <i_epik_Tot_abs_Q>
0

> <r_epik_Metal_State_Penalty>
0.0159702

> <b_epik_Metal_Only>
0

> <s_lp_Force_Field>
OPLS_2005

> <r_lp_Energy>
27.7728

> <b_lp_Chiralities_Consistent>
1

> <s_lp_Variant>
AV-unprocessed.smi:545-1

> <Gold.Version>
5.8.1

> <Gold.Id.Protein>
6NUR|6NUR_protein|mol2

> <Gold.PLP.Fitness>
39.8957

> <Gold.PLP.PLP>
-37.2594

> <Gold.PLP.part.hbond>
-1.6338

> <Gold.PLP.part.metal>
0.0000

> <Gold.PLP.part.buried>
-2.2790

> <Gold.PLP.part.nonpolar>
-33.2198

> <Gold.PLP.part.repulsive>
0.3382

> <Gold.PLP.ligand.clash>
0.0000

> <Gold.PLP.ligand.torsion>
0.2022

> <Gold.PLP.Chemscore.Hbond>
1.0000

> <Gold.PLP.Chemscore.CHOScore>
0.0000

> <Gold.PLP.Chemscore.Metal>
0.0000

> <Gold.Chemscore.Hbonds>
donor molecule, donor type, donor heavy atom, donor atom, acceptor molecule, acceptor atom, score
      P1  H  7989  7998       L1    17  1.00

> <Gold.PLP.Chemscore.Internal.Correction>
0.0408

> <Gold.Rescore>
     Score         DG    S(hbond)    S(metal)    S(lipo)     H(rot)  DE(clash)    DE(int)     intcor
      9.40     -11.93       0.98        0.00      61.42       1.57       0.52       2.01       ----

> <Gold.Chemscore.Fitness>
9.4014

> <Gold.Chemscore.DG>
-11.9286

> <Gold.Chemscore.ZeroCoef>
-5.4800

> <Gold.Chemscore.Hbond>
0.9829

> <Gold.Chemscore.Metal>
0.0000

> <Gold.Chemscore.Lipo>
61.4216

> <Gold.Chemscore.Internal_Hbond>
0.0000

> <Gold.Chemscore.DEClash>
0.5172

> <Gold.Chemscore.DEInternal>
2.0101

> <Gold.Chemscore.Rot>
1.5705

> <Gold.Chemscore.Internal.Correction>
   9.000000E+99

> <Gold.Chemscore.Hbonds>
donor molecule, donor type, donor heavy atom, donor atom, acceptor molecule, acceptor atom, score
      P1  H  7989  7998       L1    17  0.96

> <Gold.Chemscore.Hbond.Weighted>
-3.2828

> <Gold.Chemscore.Metal.Weighted>
-0.0000

> <Gold.Chemscore.Lipo.Weighted>
-7.1863

> <Gold.Chemscore.Internal_Hbond.Weighted>
0.0000

> <Gold.Chemscore.DEClash.Weighted>
0.5172

> <Gold.Chemscore.DEInternal.Weighted>
2.0101

> <Gold.Chemscore.Rot.Weighted>
4.0205

> <Gold.Chemscore.Internal.Correction.Weighted>
   9.000000E+99

> <Gold.Protein.RotatedTorsions>
[ 6907 6896 6895 6894 ] final  -59.47 input  -60.11 | X-H torsion
[ 7974 7965 7964 7962 ] final  178.74 input  175.53 | X-H torsion
[ 8008 7997 7996 7995 ] final  158.36 input   59.86 | X-H torsion
[ 10167 10162 10161 10158 ] final  -93.77 input  -65.29 | X-H torsion
[ 10718 10713 10712 10709 ] final  102.27 input   66.30 | X-H torsion
[ 10763 10752 10751 10750 ] final  135.20 input  -60.55 | X-H torsion
[ 11005 11000 10999 10996 ] final  -40.98 input  -57.11 | X-H torsion

> <Gold.Protein.ActiveResidues>
 VAL166  LYS551  ARG553  GLY616  TRP617  ASP618  TYR619  PRO620  LYS621  CYS622 
 ASP623  PHE694  ASN695  SER759  ASP760  ASP761  ALA762  ILE779  LEU786  VAL792 
 PHE793  MET794  SER795  GLU796  ALA797  LYS798  CYS799  TRP800  GLU811  SER814 

> <Gold.Protein.RotatedAtoms>
  150.7928  134.6964  159.6524 H   0  0  0  0  0  0  0  0  0  0  0  0  # atno 6907 bound_to 6896
  152.4035  134.6242  160.0068 H   0  0  0  0  0  0  0  0  0  0  0  0  # atno 6908 bound_to 6896
  151.6506  133.3284  159.3187 H   0  0  0  0  0  0  0  0  0  0  0  0  # atno 6909 bound_to 6896
  144.7153  140.0444  143.6436 H   0  0  0  0  0  0  0  0  0  0  0  0  # atno 7974 bound_to 7965
  156.2308  140.1860  156.7248 H   0  0  0  0  0  0  0  0  0  0  0  0  # atno 8008 bound_to 7997
  154.6019  140.0635  156.9407 H   0  0  0  0  0  0  0  0  0  0  0  0  # atno 8009 bound_to 7997
  155.2161  140.3304  155.4324 H   0  0  0  0  0  0  0  0  0  0  0  0  # atno 8010 bound_to 7997
  140.3213  143.3047  152.0043 H   0  0  0  0  0  0  0  0  0  0  0  0  # atno 10167 bound_to 10162
  157.6807  131.0748  150.5379 H   0  0  0  0  0  0  0  0  0  0  0  0  # atno 10718 bound_to 10713
  153.8362  135.3097  155.3422 H   0  0  0  0  0  0  0  0  0  0  0  0  # atno 10763 bound_to 10752
  154.7952  135.4759  154.0148 H   0  0  0  0  0  0  0  0  0  0  0  0  # atno 10764 bound_to 10752
  153.1604  135.6860  153.8842 H   0  0  0  0  0  0  0  0  0  0  0  0  # atno 10765 bound_to 10752
  141.0213  133.6861  156.2395 H   0  0  0  0  0  0  0  0  0  0  0  0  # atno 11005 bound_to 11000
  145.9997  139.3081  143.0935 LP  0  0  0  0  0  0  0  0  0  0  0  0  # atno 17320 bound_to 7965
  145.8808  140.9364  143.0602 LP  0  0  0  0  0  0  0  0  0  0  0  0  # atno 17321 bound_to 7965
  139.4874  144.6309  151.7073 LP  0  0  0  0  0  0  0  0  0  0  0  0  # atno 17342 bound_to 10162
  140.5481  144.0470  150.6115 LP  0  0  0  0  0  0  0  0  0  0  0  0  # atno 17343 bound_to 10162
  156.5687  130.4274  149.6029 LP  0  0  0  0  0  0  0  0  0  0  0  0  # atno 17370 bound_to 10713
  156.2759  130.7043  151.1854 LP  0  0  0  0  0  0  0  0  0  0  0  0  # atno 17371 bound_to 10713
  140.6567  134.5010  157.5581 LP  0  0  0  0  0  0  0  0  0  0  0  0  # atno 17394 bound_to 11000
  139.9148  134.8269  156.1403 LP  0  0  0  0  0  0  0  0  0  0  0  0  # atno 17395 bound_to 11000

$$$$
