AV-unprocessed.smi:229|AV-procd|sdf|1760|dock2
  -GOLD-   2262020293D 1   1.00000     0.00000
 Structure written by MMmdl.
 58 62  0  0  0  0  0  0  0  0  1 V2000
  152.4725  144.9626  158.3213 C   0  0  0  0  0  0  0  0  0  0  0  0
  152.0499  143.8039  159.2329 C   0  0  0  0  0  0  0  0  0  0  0  0
  152.1848  142.4312  158.5572 C   0  0  1  0  0  0  0  0  0  0  0  0
  152.6511  141.3500  159.5463 C   0  0  0  0  0  0  0  0  0  0  0  0
  152.6623  140.0488  158.8873 N   0  0  0  0  0  0  0  0  0  0  0  0
  153.3358  139.0298  159.4781 C   0  0  0  0  0  0  0  0  0  0  0  0
  153.3691  137.8043  158.8889 N   0  0  0  0  0  0  0  0  0  0  0  0
  154.0297  136.7951  159.4645 C   0  0  0  0  0  0  0  0  0  0  0  0
  154.7106  136.7899  160.6121 N   0  0  0  0  0  0  0  0  0  0  0  0
  154.6752  138.0141  161.2113 C   0  0  0  0  0  0  0  0  0  0  0  0
  154.0196  139.1775  160.7182 C   0  0  0  0  0  0  0  0  0  0  0  0
  154.1934  140.2303  161.6098 N   0  0  0  0  0  0  0  0  0  0  0  0
  154.9177  139.7214  162.5688 C   0  0  0  0  0  0  0  0  0  0  0  0
  155.2473  138.3944  162.4118 N   0  0  0  0  0  0  0  0  0  0  0  0
  156.0259  137.5757  163.3244 C   0  0  0  0  0  0  0  0  0  0  0  0
  155.1501  136.8867  164.3896 C   0  0  2  0  0  0  0  0  0  0  0  0
  155.9583  136.5286  165.4955 O   0  0  0  0  0  0  0  0  0  0  0  0
  154.4226  135.6484  163.8261 C   0  0  1  0  0  0  0  0  0  0  0  0
  155.2082  134.7511  162.8634 C   0  0  0  0  0  0  0  0  0  0  0  0
  154.4887  133.4324  163.0361 C   0  0  0  0  0  0  0  0  0  0  0  0
  154.1865  133.4391  164.5323 C   0  0  0  0  0  0  0  0  0  0  0  0
  153.9573  134.8031  164.8753 O   0  0  0  0  0  0  0  0  0  0  0  0
  151.3700  139.6946  158.3130 C   0  0  0  0  0  0  0  0  0  0  0  0
  150.8754  140.8014  157.3537 C   0  0  2  0  0  0  0  0  0  0  0  0
  149.4351  140.5466  156.9192 C   0  0  0  0  0  0  0  0  0  0  0  0
  149.5918  139.8413  155.5808 C   0  0  0  0  0  0  0  0  0  0  0  0
  150.6639  140.5520  154.9912 O   0  0  0  0  0  0  0  0  0  0  0  0
  151.6296  140.8137  156.0027 C   0  0  0  0  0  0  0  0  0  0  0  0
  150.9100  142.0649  158.0246 O   0  0  0  0  0  0  0  0  0  0  0  0
  152.3748  145.9177  158.8373 H   0  0  0  0  0  0  0  0  0  0  0  0
  151.8556  145.0057  157.4235 H   0  0  0  0  0  0  0  0  0  0  0  0
  153.5119  144.8582  158.0090 H   0  0  0  0  0  0  0  0  0  0  0  0
  152.6654  143.8260  160.1329 H   0  0  0  0  0  0  0  0  0  0  0  0
  151.0208  143.9536  159.5612 H   0  0  0  0  0  0  0  0  0  0  0  0
  152.9177  142.5120  157.7540 H   0  0  0  0  0  0  0  0  0  0  0  0
  153.6489  141.5958  159.9128 H   0  0  0  0  0  0  0  0  0  0  0  0
  151.9849  141.3136  160.4096 H   0  0  0  0  0  0  0  0  0  0  0  0
  154.0089  135.8573  158.9291 H   0  0  0  0  0  0  0  0  0  0  0  0
  155.2253  140.3006  163.4274 H   0  0  0  0  0  0  0  0  0  0  0  0
  156.5640  136.8300  162.7380 H   0  0  0  0  0  0  0  0  0  0  0  0
  156.7815  138.2046  163.7967 H   0  0  0  0  0  0  0  0  0  0  0  0
  154.4018  137.5996  164.7383 H   0  0  0  0  0  0  0  0  0  0  0  0
  155.5830  136.9084  166.2750 H   0  0  0  0  0  0  0  0  0  0  0  0
  153.5201  135.9836  163.3123 H   0  0  0  0  0  0  0  0  0  0  0  0
  155.1930  135.1148  161.8357 H   0  0  0  0  0  0  0  0  0  0  0  0
  156.2485  134.6390  163.1694 H   0  0  0  0  0  0  0  0  0  0  0  0
  153.5598  133.4333  162.4640 H   0  0  0  0  0  0  0  0  0  0  0  0
  155.0836  132.5736  162.7240 H   0  0  0  0  0  0  0  0  0  0  0  0
  153.3323  132.8125  164.7900 H   0  0  0  0  0  0  0  0  0  0  0  0
  155.0505  133.0822  165.0946 H   0  0  0  0  0  0  0  0  0  0  0  0
  151.4046  138.7389  157.7911 H   0  0  0  0  0  0  0  0  0  0  0  0
  150.6620  139.5720  159.1339 H   0  0  0  0  0  0  0  0  0  0  0  0
  148.8532  139.9704  157.6391 H   0  0  0  0  0  0  0  0  0  0  0  0
  148.9174  141.4938  156.7605 H   0  0  0  0  0  0  0  0  0  0  0  0
  149.8685  138.7944  155.7148 H   0  0  0  0  0  0  0  0  0  0  0  0
  148.6911  139.8887  154.9688 H   0  0  0  0  0  0  0  0  0  0  0  0
  152.1094  141.7685  155.7897 H   0  0  0  0  0  0  0  0  0  0  0  0
  152.4000  140.0421  155.9695 H   0  0  0  0  0  0  0  0  0  0  0  0
  1  2  1  0  0  0  0
  1 30  1  0  0  0  0
  1 31  1  0  0  0  0
  1 32  1  0  0  0  0
  2  3  1  0  0  0  0
  2 33  1  0  0  0  0
  2 34  1  0  0  0  0
  3 29  1  0  0  0  0
  3  4  1  0  0  0  0
  3 35  1  0  0  0  0
  4  5  1  0  0  0  0
  4 36  1  0  0  0  0
  4 37  1  0  0  0  0
  5  6  1  0  0  0  0
  5 23  1  0  0  0  0
  6 11  1  0  0  0  0
  6  7  2  0  0  0  0
  7  8  1  0  0  0  0
  8  9  2  0  0  0  0
  8 38  1  0  0  0  0
  9 10  1  0  0  0  0
 10 14  1  0  0  0  0
 10 11  2  0  0  0  0
 11 12  1  0  0  0  0
 12 13  2  0  0  0  0
 13 14  1  0  0  0  0
 13 39  1  0  0  0  0
 14 15  1  0  0  0  0
 15 16  1  0  0  0  0
 15 40  1  0  0  0  0
 15 41  1  0  0  0  0
 16 17  1  0  0  0  0
 16 18  1  0  0  0  0
 16 42  1  0  0  0  0
 17 43  1  0  0  0  0
 18 22  1  0  0  0  0
 18 19  1  0  0  0  0
 18 44  1  0  0  0  0
 19 20  1  0  0  0  0
 19 45  1  0  0  0  0
 19 46  1  0  0  0  0
 20 21  1  0  0  0  0
 20 47  1  0  0  0  0
 20 48  1  0  0  0  0
 21 22  1  0  0  0  0
 21 49  1  0  0  0  0
 21 50  1  0  0  0  0
 23 24  1  0  0  0  0
 23 51  1  0  0  0  0
 23 52  1  0  0  0  0
 24 28  1  0  0  0  0
 24 25  1  0  0  0  0
 24 29  1  0  0  0  0
 25 26  1  0  0  0  0
 25 53  1  0  0  0  0
 25 54  1  0  0  0  0
 26 27  1  0  0  0  0
 26 55  1  0  0  0  0
 26 56  1  0  0  0  0
 27 28  1  0  0  0  0
 28 57  1  0  0  0  0
 28 58  1  0  0  0  0
M  END
> <s_m_source_file>
AV-unprocessed.smi

> <i_m_source_file_index>
229

> <i_lp_mmshare_version>
43012

> <i_f3d_flags>
0

> <s_epik_input>
W0NIMl0xT1tDSDJdW0NIMl1bQ0BdMTJbQ0gyXU4oW0NIMl1bQ0BIXShPMilbQ0gyXVtDSDNdKWMobltjSF1uMyljKGMzNCluW2NIXW40W0NIMl1bQ0BIXShbT0hdKVtDQEBIXTVbQ0gyXVtDSDJdW0NIMl1PNQ==

> <s_epik_cmdline>
J2VwaWtfcHl0aG9uJywgJy1waCcsICc3LjAnLCAnLXRuJywgJzgnLCAnLW1hJywgJzIwMCcsICctbWV0YWxfYmluZGluZycsICctaW1hZScsICc8aW5maWxlLm1hZT4nLCAnLW9tYWUnLCAnPG91dGZpbGUubWFlPic=

> <r_lp_tautomer_probability>
1

> <r_epik_Ionization_Penalty>
0.00318402

> <r_epik_Ionization_Penalty_Charging>
0

> <r_epik_Ionization_Penalty_Neutral>
0.00318402

> <r_epik_State_Penalty>
0.00215642

> <r_epik_Charging_Adjusted_Penalty>
0.00215642

> <i_epik_Tot_Q>
0

> <i_epik_Tot_abs_Q>
0

> <r_epik_Metal_State_Penalty>
-0

> <b_epik_Metal_Only>
0

> <s_lp_Force_Field>
OPLS_2005

> <r_lp_Energy>
56.4449

> <b_lp_Chiralities_Consistent>
1

> <s_lp_Variant>
AV-unprocessed.smi:229-14

> <Gold.Version>
5.8.1

> <Gold.Id.Protein>
6NUR|6NUR_protein|mol2

> <Gold.PLP.Fitness>
43.8873

> <Gold.PLP.PLP>
-43.8497

> <Gold.PLP.part.hbond>
-2.0000

> <Gold.PLP.part.metal>
0.0000

> <Gold.PLP.part.buried>
-7.5395

> <Gold.PLP.part.nonpolar>
-34.3928

> <Gold.PLP.part.repulsive>
1.3090

> <Gold.PLP.ligand.clash>
0.0000

> <Gold.PLP.ligand.torsion>
1.6791

> <Gold.PLP.Chemscore.Hbond>
1.0000

> <Gold.PLP.Chemscore.CHOScore>
0.0000

> <Gold.PLP.Chemscore.Metal>
0.0000

> <Gold.Chemscore.Hbonds>
donor molecule, donor type, donor heavy atom, donor atom, acceptor molecule, acceptor atom, score
      P1  H  7989  7998       L1    27  0.99

> <Gold.PLP.Chemscore.Internal.Correction>
0.3958

> <Gold.Rescore>
     Score         DG    S(hbond)    S(metal)    S(lipo)     H(rot)  DE(clash)    DE(int)     intcor
     10.96     -13.95       0.59        0.00     109.24       2.46       0.29       2.70       ----

> <Gold.Chemscore.Fitness>
10.9564

> <Gold.Chemscore.DG>
-13.9486

> <Gold.Chemscore.ZeroCoef>
-5.4800

> <Gold.Chemscore.Hbond>
0.5936

> <Gold.Chemscore.Metal>
0.0000

> <Gold.Chemscore.Lipo>
109.2428

> <Gold.Chemscore.Internal_Hbond>
0.0000

> <Gold.Chemscore.DEClash>
0.2887

> <Gold.Chemscore.DEInternal>
2.7035

> <Gold.Chemscore.Rot>
2.4591

> <Gold.Chemscore.Internal.Correction>
   9.000000E+99

> <Gold.Chemscore.Hbonds>
donor molecule, donor type, donor heavy atom, donor atom, acceptor molecule, acceptor atom, score
      P1  H  7989  7998       L1    27  0.28

> <Gold.Chemscore.Hbond.Weighted>
-1.9825

> <Gold.Chemscore.Metal.Weighted>
-0.0000

> <Gold.Chemscore.Lipo.Weighted>
-12.7814

> <Gold.Chemscore.Internal_Hbond.Weighted>
0.0000

> <Gold.Chemscore.DEClash.Weighted>
0.2887

> <Gold.Chemscore.DEInternal.Weighted>
2.7035

> <Gold.Chemscore.Rot.Weighted>
6.2953

> <Gold.Chemscore.Internal.Correction.Weighted>
   9.000000E+99

> <Gold.Protein.RotatedTorsions>
[ 6907 6896 6895 6894 ] final -117.12 input  -60.11 | X-H torsion
[ 7974 7965 7964 7962 ] final   14.27 input  175.53 | X-H torsion
[ 8008 7997 7996 7995 ] final  -90.90 input   59.86 | X-H torsion
[ 10167 10162 10161 10158 ] final  125.13 input  -65.29 | X-H torsion
[ 10718 10713 10712 10709 ] final -135.93 input   66.30 | X-H torsion
[ 10763 10752 10751 10750 ] final  -97.19 input  -60.55 | X-H torsion
[ 11005 11000 10999 10996 ] final -127.69 input  -57.11 | X-H torsion

> <Gold.Protein.ActiveResidues>
 VAL166  LYS551  ARG553  GLY616  TRP617  ASP618  TYR619  PRO620  LYS621  CYS622 
 ASP623  PHE694  ASN695  SER759  ASP760  ASP761  ALA762  ILE779  LEU786  VAL792 
 PHE793  MET794  SER795  GLU796  ALA797  LYS798  CYS799  TRP800  GLU811  SER814 

> <Gold.Protein.RotatedAtoms>
  150.8111  133.8420  159.3181 H   0  0  0  0  0  0  0  0  0  0  0  0  # atno 6907 bound_to 6896
  151.6206  135.1030  160.0110 H   0  0  0  0  0  0  0  0  0  0  0  0  # atno 6908 bound_to 6896
  152.4203  133.7065  159.6510 H   0  0  0  0  0  0  0  0  0  0  0  0  # atno 6909 bound_to 6896
  146.2309  139.9065  142.8531 H   0  0  0  0  0  0  0  0  0  0  0  0  # atno 7974 bound_to 7965
  154.7042  140.0525  157.0488 H   0  0  0  0  0  0  0  0  0  0  0  0  # atno 8008 bound_to 7997
  155.0643  140.3193  155.4632 H   0  0  0  0  0  0  0  0  0  0  0  0  # atno 8009 bound_to 7997
  156.2769  140.2093  156.5770 H   0  0  0  0  0  0  0  0  0  0  0  0  # atno 8010 bound_to 7997
  139.5703  144.6935  151.3797 H   0  0  0  0  0  0  0  0  0  0  0  0  # atno 10167 bound_to 10162
  156.2715  130.7268  151.1236 H   0  0  0  0  0  0  0  0  0  0  0  0  # atno 10718 bound_to 10713
  154.7307  135.5055  153.8958 H   0  0  0  0  0  0  0  0  0  0  0  0  # atno 10763 bound_to 10752
  153.0946  135.6669  153.9795 H   0  0  0  0  0  0  0  0  0  0  0  0  # atno 10764 bound_to 10752
  153.9597  135.3049  155.3413 H   0  0  0  0  0  0  0  0  0  0  0  0  # atno 10765 bound_to 10752
  140.9578  134.0977  157.3998 H   0  0  0  0  0  0  0  0  0  0  0  0  # atno 11005 bound_to 11000
  145.2272  140.9958  143.4012 LP  0  0  0  0  0  0  0  0  0  0  0  0  # atno 17320 bound_to 7965
  144.9561  139.4030  143.6379 LP  0  0  0  0  0  0  0  0  0  0  0  0  # atno 17321 bound_to 7965
  140.6987  143.7685  150.7368 LP  0  0  0  0  0  0  0  0  0  0  0  0  # atno 17342 bound_to 10162
  140.1189  143.4630  152.2325 LP  0  0  0  0  0  0  0  0  0  0  0  0  # atno 17343 bound_to 10162
  157.7285  131.0631  150.5816 LP  0  0  0  0  0  0  0  0  0  0  0  0  # atno 17370 bound_to 10713
  156.5913  130.4330  149.5935 LP  0  0  0  0  0  0  0  0  0  0  0  0  # atno 17371 bound_to 10713
  139.8868  135.0084  156.6521 LP  0  0  0  0  0  0  0  0  0  0  0  0  # atno 17394 bound_to 11000
  140.7511  133.8897  155.8347 LP  0  0  0  0  0  0  0  0  0  0  0  0  # atno 17395 bound_to 11000

$$$$
