AV-unprocessed.smi:1326|AV-procd|sdf|5474|dock6
  -GOLD-   22720 5 43D 1   1.00000     0.00000
 Structure written by MMmdl.
 39 39  0  0  0  0  0  0  0  0  1 V2000
  146.5041  138.3691  151.9212 C   0  0  0  0  0  0  0  0  0  0  0  0
  147.2560  139.3604  152.7841 C   0  0  0  0  0  0  0  0  0  0  0  0
  146.7680  140.4912  153.1761 N   0  0  0  0  0  0  0  0  0  0  0  0
  147.5612  141.3294  153.9721 C   0  0  0  0  0  0  0  0  0  0  0  0
  146.9093  142.6355  154.3937 C   0  0  0  0  0  0  0  0  0  0  0  0
  148.8292  140.9772  154.3386 C   0  0  0  0  0  0  0  0  0  0  0  0
  149.7348  141.8632  155.1944 C   0  0  0  0  0  0  0  0  0  0  0  0
  149.9842  141.3902  156.6300 C   0  0  0  0  0  0  0  0  0  0  0  0
  149.1006  140.7865  157.2374 O   0  0  0  0  0  0  0  0  0  0  0  0
  151.1795  141.6747  157.1673 N   0  0  0  0  0  0  0  0  0  0  0  0
  151.5900  141.3098  158.5151 C   0  0  0  0  0  0  0  0  0  0  0  0
  152.0991  142.5469  159.2725 C   0  0  0  0  0  0  0  0  0  0  0  0
  152.6110  142.2479  160.6965 C   0  0  0  0  0  0  0  0  0  0  0  0
  152.5812  143.4881  161.6060 C   0  0  0  0  0  0  0  0  0  0  0  0
  154.0271  141.6536  160.6507 C   0  0  0  0  0  0  0  0  0  0  0  0
  149.3754  139.6833  153.8857 C   0  0  0  0  0  0  0  0  0  0  0  0
  150.5029  139.2718  154.1542 O   0  0  0  0  0  0  0  0  0  0  0  0
  148.5408  138.9414  153.1241 N   0  0  0  0  0  0  0  0  0  0  0  0
  148.8694  138.0472  152.7898 H   0  0  0  0  0  0  0  0  0  0  0  0
  147.1058  137.4853  151.7048 H   0  0  0  0  0  0  0  0  0  0  0  0
  146.2253  138.8320  150.9741 H   0  0  0  0  0  0  0  0  0  0  0  0
  145.5937  138.0467  152.4271 H   0  0  0  0  0  0  0  0  0  0  0  0
  146.7754  142.6614  155.4753 H   0  0  0  0  0  0  0  0  0  0  0  0
  145.9275  142.7547  153.9337 H   0  0  0  0  0  0  0  0  0  0  0  0
  147.5178  143.4897  154.0991 H   0  0  0  0  0  0  0  0  0  0  0  0
  150.7063  141.9718  154.7136 H   0  0  0  0  0  0  0  0  0  0  0  0
  149.3279  142.8754  155.2207 H   0  0  0  0  0  0  0  0  0  0  0  0
  151.8494  142.1769  156.6028 H   0  0  0  0  0  0  0  0  0  0  0  0
  150.7423  140.8627  159.0355 H   0  0  0  0  0  0  0  0  0  0  0  0
  152.3734  140.5528  158.4581 H   0  0  0  0  0  0  0  0  0  0  0  0
  152.9097  142.9924  158.6938 H   0  0  0  0  0  0  0  0  0  0  0  0
  151.3118  143.3010  159.3166 H   0  0  0  0  0  0  0  0  0  0  0  0
  151.9589  141.4930  161.1380 H   0  0  0  0  0  0  0  0  0  0  0  0
  153.1795  144.2995  161.1902 H   0  0  0  0  0  0  0  0  0  0  0  0
  152.9790  143.2573  162.5947 H   0  0  0  0  0  0  0  0  0  0  0  0
  151.5668  143.8594  161.7492 H   0  0  0  0  0  0  0  0  0  0  0  0
  154.7375  142.3562  160.2136 H   0  0  0  0  0  0  0  0  0  0  0  0
  154.0532  140.7402  160.0557 H   0  0  0  0  0  0  0  0  0  0  0  0
  154.3813  141.4013  161.6507 H   0  0  0  0  0  0  0  0  0  0  0  0
  1  2  1  0  0  0  0
  1 20  1  0  0  0  0
  1 21  1  0  0  0  0
  1 22  1  0  0  0  0
  2 18  1  0  0  0  0
  2  3  2  0  0  0  0
  3  4  1  0  0  0  0
  4  5  1  0  0  0  0
  4  6  2  0  0  0  0
  5 23  1  0  0  0  0
  5 24  1  0  0  0  0
  5 25  1  0  0  0  0
  6  7  1  0  0  0  0
  6 16  1  0  0  0  0
  7  8  1  0  0  0  0
  7 26  1  0  0  0  0
  7 27  1  0  0  0  0
  8  9  2  0  0  0  0
  8 10  1  0  0  0  0
 10 11  1  0  0  0  0
 10 28  1  0  0  0  0
 11 12  1  0  0  0  0
 11 29  1  0  0  0  0
 11 30  1  0  0  0  0
 12 13  1  0  0  0  0
 12 31  1  0  0  0  0
 12 32  1  0  0  0  0
 13 14  1  0  0  0  0
 13 15  1  0  0  0  0
 13 33  1  0  0  0  0
 14 34  1  0  0  0  0
 14 35  1  0  0  0  0
 14 36  1  0  0  0  0
 15 37  1  0  0  0  0
 15 38  1  0  0  0  0
 15 39  1  0  0  0  0
 16 17  2  0  0  0  0
 16 18  1  0  0  0  0
 18 19  1  0  0  0  0
M  END
> <s_m_source_file>
AV-unprocessed.smi

> <i_m_source_file_index>
1326

> <i_lp_mmshare_version>
43012

> <i_f3d_flags>
0

> <s_epik_input>
W0NIM11jMW5jKFtDSDNdKWMoYyg9TylbbkhdMSlbQ0gyXUMoPU8pW05IXVtDSDJdW0NIMl1bQ0hdKFtDSDNdKVtDSDNd

> <s_epik_cmdline>
J2VwaWtfcHl0aG9uJywgJy1waCcsICc3LjAnLCAnLXRuJywgJzgnLCAnLW1hJywgJzIwMCcsICctbWV0YWxfYmluZGluZycsICctaW1hZScsICc8aW5maWxlLm1hZT4nLCAnLW9tYWUnLCAnPG91dGZpbGUubWFlPic=

> <r_lp_tautomer_probability>
0.839158

> <r_epik_Ionization_Penalty>
0.000369141

> <r_epik_Ionization_Penalty_Charging>
0.00033405

> <r_epik_Ionization_Penalty_Neutral>
3.5091e-05

> <r_epik_State_Penalty>
0.09125

> <r_epik_Charging_Adjusted_Penalty>
0.0915841

> <i_epik_Tot_Q>
0

> <i_epik_Tot_abs_Q>
0

> <r_epik_Metal_State_Penalty>
0.250923

> <b_epik_Metal_Only>
0

> <s_lp_Force_Field>
OPLS_2005

> <r_lp_Energy>
6.99246

> <b_lp_Chiralities_Consistent>
1

> <s_lp_Variant>
AV-unprocessed.smi:1326-1

> <Gold.Version>
5.8.1

> <Gold.Id.Protein>
6NUR|6NUR_protein|mol2

> <Gold.PLP.Fitness>
43.1317

> <Gold.PLP.PLP>
-38.5538

> <Gold.PLP.part.hbond>
-2.7700

> <Gold.PLP.part.metal>
0.0000

> <Gold.PLP.part.buried>
2.6403

> <Gold.PLP.part.nonpolar>
-38.4783

> <Gold.PLP.part.repulsive>
0.5730

> <Gold.PLP.ligand.clash>
0.0000

> <Gold.PLP.ligand.torsion>
0.7174

> <Gold.PLP.Chemscore.Hbond>
2.0000

> <Gold.PLP.Chemscore.CHOScore>
0.0000

> <Gold.PLP.Chemscore.Metal>
0.0000

> <Gold.Chemscore.Hbonds>
donor molecule, donor type, donor heavy atom, donor atom, acceptor molecule, acceptor atom, score
      L1  H    18    19       P1  7948  1.00
      P1  H  7989  7998       L1    17  0.94

> <Gold.PLP.Chemscore.Internal.Correction>
0.0128

> <Gold.Rescore>
     Score         DG    S(hbond)    S(metal)    S(lipo)     H(rot)  DE(clash)    DE(int)     intcor
     13.05     -15.86       1.45        0.00      88.83       1.89       2.13       0.68       ----

> <Gold.Chemscore.Fitness>
13.0513

> <Gold.Chemscore.DG>
-15.8640

> <Gold.Chemscore.ZeroCoef>
-5.4800

> <Gold.Chemscore.Hbond>
1.4472

> <Gold.Chemscore.Metal>
0.0000

> <Gold.Chemscore.Lipo>
88.8266

> <Gold.Chemscore.Internal_Hbond>
0.0000

> <Gold.Chemscore.DEClash>
2.1277

> <Gold.Chemscore.DEInternal>
0.6850

> <Gold.Chemscore.Rot>
1.8916

> <Gold.Chemscore.Internal.Correction>
   9.000000E+99

> <Gold.Chemscore.Hbonds>
donor molecule, donor type, donor heavy atom, donor atom, acceptor molecule, acceptor atom, score
      L1  H    18    19       P1  7948  0.95
      P1  H  7989  7998       L1    17  0.23

> <Gold.Chemscore.Hbond.Weighted>
-4.8337

> <Gold.Chemscore.Metal.Weighted>
-0.0000

> <Gold.Chemscore.Lipo.Weighted>
-10.3927

> <Gold.Chemscore.Internal_Hbond.Weighted>
0.0000

> <Gold.Chemscore.DEClash.Weighted>
2.1277

> <Gold.Chemscore.DEInternal.Weighted>
0.6850

> <Gold.Chemscore.Rot.Weighted>
4.8424

> <Gold.Chemscore.Internal.Correction.Weighted>
   9.000000E+99

> <Gold.Protein.RotatedTorsions>
[ 6907 6896 6895 6894 ] final -105.60 input  -60.11 | X-H torsion
[ 7974 7965 7964 7962 ] final  164.99 input  175.53 | X-H torsion
[ 8008 7997 7996 7995 ] final  -67.71 input   59.86 | X-H torsion
[ 10167 10162 10161 10158 ] final  -55.71 input  -65.29 | X-H torsion
[ 10718 10713 10712 10709 ] final   89.08 input   66.30 | X-H torsion
[ 10763 10752 10751 10750 ] final   75.54 input  -60.55 | X-H torsion
[ 11005 11000 10999 10996 ] final -100.87 input  -57.11 | X-H torsion

> <Gold.Protein.ActiveResidues>
 VAL166  LYS551  ARG553  GLY616  TRP617  ASP618  TYR619  PRO620  LYS621  CYS622 
 ASP623  PHE694  ASN695  SER759  ASP760  ASP761  ALA762  ILE779  LEU786  VAL792 
 PHE793  MET794  SER795  GLU796  ALA797  LYS798  CYS799  TRP800  GLU811  SER814 

> <Gold.Protein.RotatedAtoms>
  150.7345  134.0103  159.3667 H   0  0  0  0  0  0  0  0  0  0  0  0  # atno 6907 bound_to 6896
  151.8062  135.0692  160.0416 H   0  0  0  0  0  0  0  0  0  0  0  0  # atno 6908 bound_to 6896
  152.3105  133.5712  159.5714 H   0  0  0  0  0  0  0  0  0  0  0  0  # atno 6909 bound_to 6896
  144.7521  139.8405  143.6362 H   0  0  0  0  0  0  0  0  0  0  0  0  # atno 7974 bound_to 7965
  154.4818  140.0887  156.7395 H   0  0  0  0  0  0  0  0  0  0  0  0  # atno 8008 bound_to 7997
  155.4451  140.3455  155.4276 H   0  0  0  0  0  0  0  0  0  0  0  0  # atno 8009 bound_to 7997
  156.1203  140.1472  156.9203 H   0  0  0  0  0  0  0  0  0  0  0  0  # atno 8010 bound_to 7997
  140.6359  143.2482  151.5120 H   0  0  0  0  0  0  0  0  0  0  0  0  # atno 10167 bound_to 10162
  157.6953  131.0319  150.3372 H   0  0  0  0  0  0  0  0  0  0  0  0  # atno 10718 bound_to 10713
  153.0662  135.4985  154.8204 H   0  0  0  0  0  0  0  0  0  0  0  0  # atno 10763 bound_to 10752
  154.6956  135.2992  154.9418 H   0  0  0  0  0  0  0  0  0  0  0  0  # atno 10764 bound_to 10752
  154.0159  135.6748  153.4821 H   0  0  0  0  0  0  0  0  0  0  0  0  # atno 10765 bound_to 10752
  141.1253  133.8433  157.1159 H   0  0  0  0  0  0  0  0  0  0  0  0  # atno 11005 bound_to 11000
  146.1486  139.4562  143.0063 LP  0  0  0  0  0  0  0  0  0  0  0  0  # atno 17320 bound_to 7965
  145.6906  141.0165  143.1557 LP  0  0  0  0  0  0  0  0  0  0  0  0  # atno 17321 bound_to 7965
  139.5569  144.2253  152.1627 LP  0  0  0  0  0  0  0  0  0  0  0  0  # atno 17342 bound_to 10162
  140.1509  144.5115  150.6688 LP  0  0  0  0  0  0  0  0  0  0  0  0  # atno 17343 bound_to 10162
  156.3837  130.3885  149.7082 LP  0  0  0  0  0  0  0  0  0  0  0  0  # atno 17370 bound_to 10713
  156.4455  130.7882  151.2903 LP  0  0  0  0  0  0  0  0  0  0  0  0  # atno 17371 bound_to 10713
  140.0247  134.9929  157.0662 LP  0  0  0  0  0  0  0  0  0  0  0  0  # atno 17394 bound_to 11000
  140.4382  134.1708  155.7172 LP  0  0  0  0  0  0  0  0  0  0  0  0  # atno 17395 bound_to 11000

$$$$
