AV-unprocessed.smi:2309|AV-procd|sdf|9253|dock1
  -GOLD-   2272012473D 1   1.00000     0.00000
 Structure written by MMmdl.
 34 35  0  0  0  0  0  0  0  0  1 V2000
  148.3017  138.9925  153.7458 C   0  0  0  0  0  0  0  0  0  0  0  0
  149.2938  139.7567  154.6046 C   0  0  0  0  0  0  0  0  0  0  0  0
  148.8925  141.0371  154.9960 N   0  0  0  0  0  0  0  0  0  0  0  0
  149.6739  141.7615  155.7279 C   0  0  0  0  0  0  0  0  0  0  0  0
  150.9310  141.2973  156.1509 N   0  0  0  0  0  0  0  0  0  0  0  0
  151.7258  142.2236  156.9760 C   0  0  0  0  0  0  0  0  0  0  0  0
  150.9129  142.8076  158.1536 C   0  0  2  0  0  0  0  0  0  0  0  0
  150.5444  144.1369  157.8386 O   0  0  0  0  0  0  0  0  0  0  0  0
  151.7138  142.7313  159.4526 C   0  0  0  0  0  0  0  0  0  0  0  0
  152.4304  141.5541  159.7715 C   0  0  0  0  0  0  0  0  0  0  0  0
  153.1661  141.4625  160.9682 C   0  0  0  0  0  0  0  0  0  0  0  0
  154.0360  140.0192  161.3378 Cl  0  0  0  0  0  0  0  0  0  0  0  0
  153.1893  142.5470  161.8637 C   0  0  0  0  0  0  0  0  0  0  0  0
  152.4700  143.7181  161.5634 C   0  0  0  0  0  0  0  0  0  0  0  0
  151.7300  143.8147  160.3678 C   0  0  0  0  0  0  0  0  0  0  0  0
  150.8438  145.2690  160.0664 Cl  0  0  0  0  0  0  0  0  0  0  0  0
  151.3995  140.0611  155.8136 C   0  0  0  0  0  0  0  0  0  0  0  0
  152.5036  139.6613  156.1878 O   0  0  0  0  0  0  0  0  0  0  0  0
  150.4993  139.2481  154.9796 C   0  0  0  0  0  0  0  0  0  0  0  0
  150.9897  137.8612  154.5821 C   0  0  0  0  0  0  0  0  0  0  0  0
  148.7492  138.7276  152.7874 H   0  0  0  0  0  0  0  0  0  0  0  0
  147.4099  139.5873  153.5440 H   0  0  0  0  0  0  0  0  0  0  0  0
  147.9862  138.0783  154.2495 H   0  0  0  0  0  0  0  0  0  0  0  0
  149.4108  142.7687  156.0561 H   0  0  0  0  0  0  0  0  0  0  0  0
  152.5838  141.6756  157.3717 H   0  0  0  0  0  0  0  0  0  0  0  0
  152.1743  143.0237  156.3841 H   0  0  0  0  0  0  0  0  0  0  0  0
  149.9801  142.2588  158.2788 H   0  0  0  0  0  0  0  0  0  0  0  0
  149.9163  144.1158  157.1329 H   0  0  0  0  0  0  0  0  0  0  0  0
  152.4167  140.7081  159.1000 H   0  0  0  0  0  0  0  0  0  0  0  0
  153.7523  142.4801  162.7831 H   0  0  0  0  0  0  0  0  0  0  0  0
  152.4829  144.5454  162.2580 H   0  0  0  0  0  0  0  0  0  0  0  0
  151.1943  137.2649  155.4720 H   0  0  0  0  0  0  0  0  0  0  0  0
  151.9134  137.9399  154.0077 H   0  0  0  0  0  0  0  0  0  0  0  0
  150.2730  137.3090  153.9764 H   0  0  0  0  0  0  0  0  0  0  0  0
  1  2  1  0  0  0  0
  1 21  1  0  0  0  0
  1 22  1  0  0  0  0
  1 23  1  0  0  0  0
  2 19  2  0  0  0  0
  2  3  1  0  0  0  0
  3  4  2  0  0  0  0
  4  5  1  0  0  0  0
  4 24  1  0  0  0  0
  5  6  1  0  0  0  0
  5 17  1  0  0  0  0
  6  7  1  0  0  0  0
  6 25  1  0  0  0  0
  6 26  1  0  0  0  0
  7  8  1  0  0  0  0
  7  9  1  0  0  0  0
  7 27  1  0  0  0  0
  8 28  1  0  0  0  0
  9 15  1  0  0  0  0
  9 10  2  0  0  0  0
 10 11  1  0  0  0  0
 10 29  1  0  0  0  0
 11 12  1  0  0  0  0
 11 13  2  0  0  0  0
 13 14  1  0  0  0  0
 13 30  1  0  0  0  0
 14 15  2  0  0  0  0
 14 31  1  0  0  0  0
 15 16  1  0  0  0  0
 17 18  2  0  0  0  0
 17 19  1  0  0  0  0
 19 20  1  0  0  0  0
 20 32  1  0  0  0  0
 20 33  1  0  0  0  0
 20 34  1  0  0  0  0
M  END
> <s_m_source_file>
AV-unprocessed.smi

> <i_m_source_file_index>
2309

> <i_lp_mmshare_version>
43012

> <i_f3d_flags>
0

> <s_epik_input>
W0NIM11jMW5bY0hdbihjKD1PKWMxW0NIM10pW0NIMl1bQ0BIXShbT0hdKWMyW2NIXWMoQ2wpW2NIXVtjSF1jMkNs

> <s_epik_cmdline>
J2VwaWtfcHl0aG9uJywgJy1waCcsICc3LjAnLCAnLXRuJywgJzgnLCAnLW1hJywgJzIwMCcsICctbWV0YWxfYmluZGluZycsICctaW1hZScsICc8aW5maWxlLm1hZT4nLCAnLW9tYWUnLCAnPG91dGZpbGUubWFlPic=

> <r_lp_tautomer_probability>
1

> <r_epik_Ionization_Penalty>
5.09224e-05

> <r_epik_Ionization_Penalty_Charging>
7.56727e-08

> <r_epik_Ionization_Penalty_Neutral>
5.08468e-05

> <r_epik_State_Penalty>
-0

> <r_epik_Charging_Adjusted_Penalty>
7.56727e-08

> <i_epik_Tot_Q>
0

> <i_epik_Tot_abs_Q>
0

> <r_epik_Metal_State_Penalty>
-0

> <b_epik_Metal_Only>
0

> <s_lp_Force_Field>
OPLS_2005

> <r_lp_Energy>
19.5674

> <b_lp_Chiralities_Consistent>
1

> <s_lp_Variant>
AV-unprocessed.smi:2309-1

> <Gold.Version>
5.8.1

> <Gold.Id.Protein>
6NUR|6NUR_protein|mol2

> <Gold.PLP.Fitness>
52.9969

> <Gold.PLP.PLP>
-46.2853

> <Gold.PLP.part.hbond>
-2.6710

> <Gold.PLP.part.metal>
0.0000

> <Gold.PLP.part.buried>
-3.4392

> <Gold.PLP.part.nonpolar>
-39.2191

> <Gold.PLP.part.repulsive>
0.1137

> <Gold.PLP.ligand.clash>
0.0000

> <Gold.PLP.ligand.torsion>
1.1553

> <Gold.PLP.Chemscore.Hbond>
2.0000

> <Gold.PLP.Chemscore.CHOScore>
1.0000

> <Gold.PLP.Chemscore.Metal>
0.0000

> <Gold.Chemscore.Hbonds>
donor molecule, donor type, donor heavy atom, donor atom, acceptor molecule, acceptor atom, score
      L1  H     8    28       P1  8028  1.00
      P1  H  7997  8008       L1    18  1.00
      L1  C     4    24       P1  8028  1.00

> <Gold.PLP.Chemscore.Internal.Correction>
0.0223

> <Gold.Rescore>
     Score         DG    S(hbond)    S(metal)    S(lipo)     H(rot)  DE(clash)    DE(int)     intcor
     17.46     -22.01       1.94        0.00     128.20       1.93       1.70       2.86       ----

> <Gold.Chemscore.Fitness>
17.4585

> <Gold.Chemscore.DG>
-22.0133

> <Gold.Chemscore.ZeroCoef>
-5.4800

> <Gold.Chemscore.Hbond>
1.9359

> <Gold.Chemscore.Metal>
0.0000

> <Gold.Chemscore.Lipo>
128.1968

> <Gold.Chemscore.Internal_Hbond>
0.0000

> <Gold.Chemscore.DEClash>
1.6953

> <Gold.Chemscore.DEInternal>
2.8595

> <Gold.Chemscore.Rot>
1.9265

> <Gold.Chemscore.Internal.Correction>
   9.000000E+99

> <Gold.Chemscore.Hbonds>
donor molecule, donor type, donor heavy atom, donor atom, acceptor molecule, acceptor atom, score
      L1  H     8    28       P1  8028  0.78
      P1  H  7997  8008       L1    18  1.00

> <Gold.Chemscore.Hbond.Weighted>
-6.4660

> <Gold.Chemscore.Metal.Weighted>
-0.0000

> <Gold.Chemscore.Lipo.Weighted>
-14.9990

> <Gold.Chemscore.Internal_Hbond.Weighted>
0.0000

> <Gold.Chemscore.DEClash.Weighted>
1.6953

> <Gold.Chemscore.DEInternal.Weighted>
2.8595

> <Gold.Chemscore.Rot.Weighted>
4.9317

> <Gold.Chemscore.Internal.Correction.Weighted>
   9.000000E+99

> <Gold.Protein.RotatedTorsions>
[ 6907 6896 6895 6894 ] final   81.64 input  -60.11 | X-H torsion
[ 7974 7965 7964 7962 ] final  134.66 input  175.53 | X-H torsion
[ 8008 7997 7996 7995 ] final  -35.51 input   59.86 | X-H torsion
[ 10167 10162 10161 10158 ] final   -8.12 input  -65.29 | X-H torsion
[ 10718 10713 10712 10709 ] final -145.54 input   66.30 | X-H torsion
[ 10763 10752 10751 10750 ] final  163.50 input  -60.55 | X-H torsion
[ 11005 11000 10999 10996 ] final -115.92 input  -57.11 | X-H torsion

> <Gold.Protein.ActiveResidues>
 VAL166  LYS551  ARG553  GLY616  TRP617  ASP618  TYR619  PRO620  LYS621  CYS622 
 ASP623  PHE694  ASN695  SER759  ASP760  ASP761  ALA762  ILE779  LEU786  VAL792 
 PHE793  MET794  SER795  GLU796  ALA797  LYS798  CYS799  TRP800  GLU811  SER814 

> <Gold.Protein.RotatedAtoms>
  152.5275  134.3172  159.9135 H   0  0  0  0  0  0  0  0  0  0  0  0  # atno 6907 bound_to 6896
  151.3122  133.4069  159.2655 H   0  0  0  0  0  0  0  0  0  0  0  0  # atno 6908 bound_to 6896
  151.0029  134.9353  159.8021 H   0  0  0  0  0  0  0  0  0  0  0  0  # atno 6909 bound_to 6896
  144.9742  139.4573  143.5418 H   0  0  0  0  0  0  0  0  0  0  0  0  # atno 7974 bound_to 7965
  154.4094  140.1655  156.2224 H   0  0  0  0  0  0  0  0  0  0  0  0  # atno 8008 bound_to 7997
  155.9352  140.3412  155.6259 H   0  0  0  0  0  0  0  0  0  0  0  0  # atno 8009 bound_to 7997
  155.7057  140.0750  157.2383 H   0  0  0  0  0  0  0  0  0  0  0  0  # atno 8010 bound_to 7997
  140.7049  143.6004  150.8803 H   0  0  0  0  0  0  0  0  0  0  0  0  # atno 10167 bound_to 10162
  156.3837  130.7850  151.2045 H   0  0  0  0  0  0  0  0  0  0  0  0  # atno 10718 bound_to 10713
  154.2947  135.2760  155.2639 H   0  0  0  0  0  0  0  0  0  0  0  0  # atno 10763 bound_to 10752
  154.5102  135.5784  153.6602 H   0  0  0  0  0  0  0  0  0  0  0  0  # atno 10764 bound_to 10752
  152.9909  135.6179  154.3113 H   0  0  0  0  0  0  0  0  0  0  0  0  # atno 10765 bound_to 10752
  141.0456  133.9767  157.2922 H   0  0  0  0  0  0  0  0  0  0  0  0  # atno 11005 bound_to 11000
  146.3390  139.8973  142.8800 LP  0  0  0  0  0  0  0  0  0  0  0  0  # atno 17320 bound_to 7965
  145.2515  141.0045  143.3878 LP  0  0  0  0  0  0  0  0  0  0  0  0  # atno 17321 bound_to 7965
  139.9729  143.6037  152.2968 LP  0  0  0  0  0  0  0  0  0  0  0  0  # atno 17342 bound_to 10162
  139.6630  144.7662  151.1926 LP  0  0  0  0  0  0  0  0  0  0  0  0  # atno 17343 bound_to 10162
  157.7494  131.0336  150.4281 LP  0  0  0  0  0  0  0  0  0  0  0  0  # atno 17370 bound_to 10713
  156.4530  130.4015  149.6624 LP  0  0  0  0  0  0  0  0  0  0  0  0  # atno 17371 bound_to 10713
  139.9309  135.0200  156.8398 LP  0  0  0  0  0  0  0  0  0  0  0  0  # atno 17394 bound_to 11000
  140.6152  134.0045  155.7594 LP  0  0  0  0  0  0  0  0  0  0  0  0  # atno 17395 bound_to 11000

$$$$
