AV-unprocessed.smi:1040|AV-procd|sdf|4527|dock6
  -GOLD-   22720 2543D 1   1.00000     0.00000
 Structure written by MMmdl.
 55 56  0  0  0  0  0  0  0  0  2 V2000
  152.5364  138.3119  154.3684 C   0  0  0  0  0  0  0  0  0  0  0  0
  151.0188  138.5395  154.4639 C   0  0  1  0  0  0  0  0  0  0  0  0
  150.2934  137.3119  154.1445 N   0  0  0  0  0  0  0  0  0  0  0  0
  150.4631  136.1206  154.7341 C   0  0  0  0  0  0  0  0  0  0  0  0
  151.2389  135.9225  155.6688 O   0  0  0  0  0  0  0  0  0  0  0  0
  149.6959  135.1842  154.1535 N   0  0  0  0  0  0  0  0  0  0  0  0
  149.6359  133.7924  154.4448 C   0  0  0  0  0  0  0  0  0  0  0  0
  150.5577  133.1632  155.3194 C   0  0  0  0  0  0  0  0  0  0  0  0
  150.4485  131.7818  155.5729 C   0  0  0  0  0  0  0  0  0  0  0  0
  149.4176  131.0522  154.9532 C   0  0  0  0  0  0  0  0  0  0  0  0
  148.5481  131.6831  154.1366 N   0  3  0  0  0  0  0  0  0  0  0  0
  148.6036  133.0096  153.8615 C   0  0  0  0  0  0  0  0  0  0  0  0
  147.6331  133.5623  153.0033 N   0  0  0  0  0  0  0  0  0  0  0  0
  146.9739  132.6467  152.0728 C   0  0  0  0  0  0  0  0  0  0  0  0
  146.2168  133.4297  150.9864 C   0  0  0  0  0  0  0  0  0  0  0  0
  145.2409  134.4387  151.6136 C   0  0  0  0  0  0  0  0  0  0  0  0
  145.9797  135.3512  152.6063 C   0  0  0  0  0  0  0  0  0  0  0  0
  146.7439  134.5229  153.6533 C   0  0  0  0  0  0  0  0  0  0  0  0
  150.5717  139.0949  155.8214 C   0  0  0  0  0  0  0  0  0  0  0  0
  149.9791  138.3703  156.6224 O   0  0  0  0  0  0  0  0  0  0  0  0
  150.8803  140.3815  156.0638 N   0  0  0  0  0  0  0  0  0  0  0  0
  150.5877  141.1797  157.2606 C   0  0  0  0  0  0  0  0  0  0  0  0
  151.2881  140.4866  158.4426 C   0  0  0  0  0  0  0  0  0  0  0  0
  149.0687  141.2189  157.5309 C   0  0  0  0  0  0  0  0  0  0  0  0
  151.1520  142.6089  157.1131 C   0  0  0  0  0  0  0  0  0  0  0  0
  153.0867  139.2278  154.5869 H   0  0  0  0  0  0  0  0  0  0  0  0
  152.8263  137.9890  153.3683 H   0  0  0  0  0  0  0  0  0  0  0  0
  152.8685  137.5493  155.0739 H   0  0  0  0  0  0  0  0  0  0  0  0
  150.7481  139.2901  153.7180 H   0  0  0  0  0  0  0  0  0  0  0  0
  149.6330  137.3752  153.3833 H   0  0  0  0  0  0  0  0  0  0  0  0
  149.1819  135.4799  153.3365 H   0  0  0  0  0  0  0  0  0  0  0  0
  151.3417  133.7213  155.8086 H   0  0  0  0  0  0  0  0  0  0  0  0
  151.1452  131.2902  156.2361 H   0  0  0  0  0  0  0  0  0  0  0  0
  149.2582  129.9924  155.0907 H   0  0  0  0  0  0  0  0  0  0  0  0
  147.7135  131.9939  151.6072 H   0  0  0  0  0  0  0  0  0  0  0  0
  146.2788  132.0092  152.6213 H   0  0  0  0  0  0  0  0  0  0  0  0
  146.9311  133.9582  150.3533 H   0  0  0  0  0  0  0  0  0  0  0  0
  145.6776  132.7402  150.3363 H   0  0  0  0  0  0  0  0  0  0  0  0
  144.7641  135.0360  150.8357 H   0  0  0  0  0  0  0  0  0  0  0  0
  144.4426  133.9047  152.1304 H   0  0  0  0  0  0  0  0  0  0  0  0
  146.6797  135.9894  152.0651 H   0  0  0  0  0  0  0  0  0  0  0  0
  145.2717  136.0169  153.1004 H   0  0  0  0  0  0  0  0  0  0  0  0
  146.0387  133.9786  154.2826 H   0  0  0  0  0  0  0  0  0  0  0  0
  147.3019  135.1883  154.3125 H   0  0  0  0  0  0  0  0  0  0  0  0
  151.3769  140.8684  155.3317 H   0  0  0  0  0  0  0  0  0  0  0  0
  151.1172  141.0243  159.3760 H   0  0  0  0  0  0  0  0  0  0  0  0
  152.3668  140.4313  158.2901 H   0  0  0  0  0  0  0  0  0  0  0  0
  150.9229  139.4681  158.5808 H   0  0  0  0  0  0  0  0  0  0  0  0
  148.6515  140.2136  157.6006 H   0  0  0  0  0  0  0  0  0  0  0  0
  148.5249  141.7477  156.7482 H   0  0  0  0  0  0  0  0  0  0  0  0
  148.8502  141.7289  158.4698 H   0  0  0  0  0  0  0  0  0  0  0  0
  151.0216  143.1782  158.0339 H   0  0  0  0  0  0  0  0  0  0  0  0
  150.6551  143.1685  156.3208 H   0  0  0  0  0  0  0  0  0  0  0  0
  152.2188  142.5931  156.8863 H   0  0  0  0  0  0  0  0  0  0  0  0
  147.8049  131.1317  153.7075 H   0  0  0  0  0  0  0  0  0  0  0  0
  1  2  1  0  0  0  0
  1 26  1  0  0  0  0
  1 27  1  0  0  0  0
  1 28  1  0  0  0  0
  2  3  1  0  0  0  0
  2 19  1  0  0  0  0
  2 29  1  0  0  0  0
  3  4  1  0  0  0  0
  3 30  1  0  0  0  0
  4  5  2  0  0  0  0
  4  6  1  0  0  0  0
  6  7  1  0  0  0  0
  6 31  1  0  0  0  0
  7 12  1  0  0  0  0
  7  8  2  0  0  0  0
  8  9  1  0  0  0  0
  8 32  1  0  0  0  0
  9 10  2  0  0  0  0
  9 33  1  0  0  0  0
 10 11  1  0  0  0  0
 10 34  1  0  0  0  0
 11 12  2  0  0  0  0
 11 55  1  0  0  0  0
 12 13  1  0  0  0  0
 13 18  1  0  0  0  0
 13 14  1  0  0  0  0
 14 15  1  0  0  0  0
 14 35  1  0  0  0  0
 14 36  1  0  0  0  0
 15 16  1  0  0  0  0
 15 37  1  0  0  0  0
 15 38  1  0  0  0  0
 16 17  1  0  0  0  0
 16 39  1  0  0  0  0
 16 40  1  0  0  0  0
 17 18  1  0  0  0  0
 17 41  1  0  0  0  0
 17 42  1  0  0  0  0
 18 43  1  0  0  0  0
 18 44  1  0  0  0  0
 19 20  2  0  0  0  0
 19 21  1  0  0  0  0
 21 22  1  0  0  0  0
 21 45  1  0  0  0  0
 22 23  1  0  0  0  0
 22 24  1  0  0  0  0
 22 25  1  0  0  0  0
 23 46  1  0  0  0  0
 23 47  1  0  0  0  0
 23 48  1  0  0  0  0
 24 49  1  0  0  0  0
 24 50  1  0  0  0  0
 24 51  1  0  0  0  0
 25 52  1  0  0  0  0
 25 53  1  0  0  0  0
 25 54  1  0  0  0  0
M  CHG  1  11   1
M  END
> <s_m_source_file>
AV-unprocessed.smi

> <i_m_source_file_index>
1040

> <i_lp_mmshare_version>
43012

> <i_f3d_flags>
0

> <s_epik_input>
W0NIM11DKFtDSDNdKShbQ0gzXSlbTkhdQyg9TylbQ0BIXShbQ0gzXSlbTkhdQyg9TylbTkhdYzFbY0hdW2NIXVtjSF1uYzFOMltDSDJdW0NIMl1bQ0gyXVtDSDJdW0NIMl0y

> <s_epik_cmdline>
J2VwaWtfcHl0aG9uJywgJy1waCcsICc3LjAnLCAnLXRuJywgJzgnLCAnLW1hJywgJzIwMCcsICctbWV0YWxfYmluZGluZycsICctaW1hZScsICc8aW5maWxlLm1hZT4nLCAnLW9tYWUnLCAnPG91dGZpbGUubWFlPic=

> <r_lp_tautomer_probability>
0.999994

> <r_epik_Ionization_Penalty>
1.20468

> <r_epik_Ionization_Penalty_Charging>
1.20466

> <r_epik_Ionization_Penalty_Neutral>
1.88859e-05

> <r_epik_State_Penalty>
1.27057

> <r_epik_Charging_Adjusted_Penalty>
2.47523

> <i_epik_Tot_Q>
1

> <i_epik_Tot_abs_Q>
1

> <r_epik_Metal_State_Penalty>
1.34448

> <b_epik_Metal_Only>
0

> <s_lp_Force_Field>
OPLS_2005

> <r_lp_Energy>
27.4215

> <b_lp_Chiralities_Consistent>
1

> <s_lp_Variant>
AV-unprocessed.smi:1040-4

> <Gold.Version>
5.8.1

> <Gold.Id.Protein>
6NUR|6NUR_protein|mol2

> <Gold.PLP.Fitness>
45.8176

> <Gold.PLP.PLP>
-38.7364

> <Gold.PLP.part.hbond>
-4.7815

> <Gold.PLP.part.metal>
0.0000

> <Gold.PLP.part.buried>
-1.3301

> <Gold.PLP.part.nonpolar>
-31.8802

> <Gold.PLP.part.repulsive>
0.6676

> <Gold.PLP.ligand.clash>
0.0000

> <Gold.PLP.ligand.torsion>
0.8476

> <Gold.PLP.Chemscore.Hbond>
2.8000

> <Gold.PLP.Chemscore.CHOScore>
0.0000

> <Gold.PLP.Chemscore.Metal>
0.0000

> <Gold.Chemscore.Hbonds>
donor molecule, donor type, donor heavy atom, donor atom, acceptor molecule, acceptor atom, score
      L1  H     3    30       P1  7948  0.77
      L1  H     6    31       P1  7948  1.00
      P1  H 10752 10764       L1     5  1.00

> <Gold.PLP.Chemscore.Internal.Correction>
0.3764

> <Gold.Rescore>
     Score         DG    S(hbond)    S(metal)    S(lipo)     H(rot)  DE(clash)    DE(int)     intcor
     10.80     -17.07       1.84        0.00      82.32       1.64       0.70       5.57       ----

> <Gold.Chemscore.Fitness>
10.7992

> <Gold.Chemscore.DG>
-17.0665

> <Gold.Chemscore.ZeroCoef>
-5.4800

> <Gold.Chemscore.Hbond>
1.8443

> <Gold.Chemscore.Metal>
0.0000

> <Gold.Chemscore.Lipo>
82.3250

> <Gold.Chemscore.Internal_Hbond>
0.0000

> <Gold.Chemscore.DEClash>
0.6958

> <Gold.Chemscore.DEInternal>
5.5715

> <Gold.Chemscore.Rot>
1.6428

> <Gold.Chemscore.Internal.Correction>
   9.000000E+99

> <Gold.Chemscore.Hbonds>
donor molecule, donor type, donor heavy atom, donor atom, acceptor molecule, acceptor atom, score
      L1  H     3    30       P1  7948  0.58
      L1  H     6    31       P1  7948  0.39
      P1  H 10752 10764       L1     5  0.34

> <Gold.Chemscore.Hbond.Weighted>
-6.1600

> <Gold.Chemscore.Metal.Weighted>
-0.0000

> <Gold.Chemscore.Lipo.Weighted>
-9.6320

> <Gold.Chemscore.Internal_Hbond.Weighted>
0.0000

> <Gold.Chemscore.DEClash.Weighted>
0.6958

> <Gold.Chemscore.DEInternal.Weighted>
5.5715

> <Gold.Chemscore.Rot.Weighted>
4.2055

> <Gold.Chemscore.Internal.Correction.Weighted>
   9.000000E+99

> <Gold.Protein.RotatedTorsions>
[ 6907 6896 6895 6894 ] final  -16.34 input  -60.11 | X-H torsion
[ 7974 7965 7964 7962 ] final  178.47 input  175.53 | X-H torsion
[ 8008 7997 7996 7995 ] final    2.22 input   59.86 | X-H torsion
[ 10167 10162 10161 10158 ] final  120.74 input  -65.29 | X-H torsion
[ 10718 10713 10712 10709 ] final  -66.08 input   66.30 | X-H torsion
[ 10763 10752 10751 10750 ] final  -51.93 input  -60.55 | X-H torsion
[ 11005 11000 10999 10996 ] final  106.39 input  -57.11 | X-H torsion

> <Gold.Protein.ActiveResidues>
 VAL166  LYS551  ARG553  GLY616  TRP617  ASP618  TYR619  PRO620  LYS621  CYS622 
 ASP623  PHE694  ASN695  SER759  ASP760  ASP761  ALA762  ILE779  LEU786  VAL792 
 PHE793  MET794  SER795  GLU796  ALA797  LYS798  CYS799  TRP800  GLU811  SER814 

> <Gold.Protein.RotatedAtoms>
  151.3101  135.0792  159.9268 H   0  0  0  0  0  0  0  0  0  0  0  0  # atno 6907 bound_to 6896
  152.5279  133.9745  159.7788 H   0  0  0  0  0  0  0  0  0  0  0  0  # atno 6908 bound_to 6896
  151.0047  133.5970  159.2720 H   0  0  0  0  0  0  0  0  0  0  0  0  # atno 6909 bound_to 6896
  144.7156  140.0403  143.6437 H   0  0  0  0  0  0  0  0  0  0  0  0  # atno 7974 bound_to 7965
  154.6890  140.2649  155.6831 H   0  0  0  0  0  0  0  0  0  0  0  0  # atno 8008 bound_to 7997
  156.2725  140.2795  156.1385 H   0  0  0  0  0  0  0  0  0  0  0  0  # atno 8009 bound_to 7997
  155.0923  140.0373  157.2662 H   0  0  0  0  0  0  0  0  0  0  0  0  # atno 8010 bound_to 7997
  139.5963  144.7042  151.3168 H   0  0  0  0  0  0  0  0  0  0  0  0  # atno 10167 bound_to 10162
  156.0633  130.4256  150.1657 H   0  0  0  0  0  0  0  0  0  0  0  0  # atno 10718 bound_to 10713
  154.1346  135.6515  153.4929 H   0  0  0  0  0  0  0  0  0  0  0  0  # atno 10763 bound_to 10752
  153.0184  135.5301  154.6967 H   0  0  0  0  0  0  0  0  0  0  0  0  # atno 10764 bound_to 10752
  154.6211  135.2965  155.0296 H   0  0  0  0  0  0  0  0  0  0  0  0  # atno 10765 bound_to 10752
  139.8813  134.9367  156.5659 H   0  0  0  0  0  0  0  0  0  0  0  0  # atno 11005 bound_to 11000
  146.0029  139.3106  143.0917 LP  0  0  0  0  0  0  0  0  0  0  0  0  # atno 17320 bound_to 7965
  145.8772  140.9384  143.0620 LP  0  0  0  0  0  0  0  0  0  0  0  0  # atno 17321 bound_to 7965
  140.7214  143.7124  150.7759 LP  0  0  0  0  0  0  0  0  0  0  0  0  # atno 17342 bound_to 10162
  140.0691  143.5079  152.2589 LP  0  0  0  0  0  0  0  0  0  0  0  0  # atno 17343 bound_to 10162
  156.9721  130.9838  151.3456 LP  0  0  0  0  0  0  0  0  0  0  0  0  # atno 17370 bound_to 10713
  157.5657  130.8276  149.8324 LP  0  0  0  0  0  0  0  0  0  0  0  0  # atno 17371 bound_to 10713
  140.8135  133.8410  155.8831 LP  0  0  0  0  0  0  0  0  0  0  0  0  # atno 17394 bound_to 11000
  140.9484  134.1810  157.4746 LP  0  0  0  0  0  0  0  0  0  0  0  0  # atno 17395 bound_to 11000

$$$$
