AV-unprocessed.smi:1321|AV-procd|sdf|5462|dock8
  -GOLD-   22720 5 33D 1   1.00000     0.00000
 Structure written by MMmdl.
 43 44  0  0  0  0  0  0  0  0  1 V2000
  152.3026  144.7272  157.9341 C   0  0  0  0  0  0  0  0  0  0  0  0
  151.5450  144.0896  159.1229 C   0  0  0  0  0  0  0  0  0  0  0  0
  152.4920  144.0366  160.3405 C   0  0  0  0  0  0  0  0  0  0  0  0
  150.3226  144.9618  159.4728 C   0  0  0  0  0  0  0  0  0  0  0  0
  151.0466  142.6588  158.8070 C   0  0  0  0  0  0  0  0  0  0  0  0
  151.4620  141.7102  159.4738 O   0  0  0  0  0  0  0  0  0  0  0  0
  150.1537  142.5048  157.8144 N   0  0  0  0  0  0  0  0  0  0  0  0
  149.4922  141.2601  157.4386 C   0  0  0  0  0  0  0  0  0  0  0  0
  150.3540  140.4206  156.5044 C   0  0  0  0  0  0  0  0  0  0  0  0
  151.6472  140.0368  156.9192 C   0  0  0  0  0  0  0  0  0  0  0  0
  152.4573  139.2896  156.0453 C   0  0  0  0  0  0  0  0  0  0  0  0
  151.9403  138.9547  154.7809 C   0  0  0  0  0  0  0  0  0  0  0  0
  150.7073  139.3144  154.3687 N   0  0  0  0  0  0  0  0  0  0  0  0
  149.9228  140.0351  155.2070 C   0  0  0  0  0  0  0  0  0  0  0  0
  148.6378  140.3773  154.7518 N   0  0  0  0  0  0  0  0  0  0  0  0
  147.5196  139.8076  155.4956 C   0  0  0  0  0  0  0  0  0  0  0  0
  146.1972  140.1269  154.7779 C   0  0  0  0  0  0  0  0  0  0  0  0
  146.0746  141.5366  154.6095 O   0  0  0  0  0  0  0  0  0  0  0  0
  147.1306  142.0760  153.8192 C   0  0  0  0  0  0  0  0  0  0  0  0
  148.4819  141.8045  154.5035 C   0  0  0  0  0  0  0  0  0  0  0  0
  152.6751  145.7187  158.1936 H   0  0  0  0  0  0  0  0  0  0  0  0
  151.6615  144.8479  157.0596 H   0  0  0  0  0  0  0  0  0  0  0  0
  153.1653  144.1282  157.6381 H   0  0  0  0  0  0  0  0  0  0  0  0
  153.3505  143.3911  160.1506 H   0  0  0  0  0  0  0  0  0  0  0  0
  151.9882  143.6621  161.2328 H   0  0  0  0  0  0  0  0  0  0  0  0
  152.8770  145.0273  160.5837 H   0  0  0  0  0  0  0  0  0  0  0  0
  150.6227  145.9817  159.7155 H   0  0  0  0  0  0  0  0  0  0  0  0
  149.7786  144.5714  160.3339 H   0  0  0  0  0  0  0  0  0  0  0  0
  149.6210  145.0176  158.6390 H   0  0  0  0  0  0  0  0  0  0  0  0
  149.8721  143.3328  157.3103 H   0  0  0  0  0  0  0  0  0  0  0  0
  149.2961  140.6982  158.3522 H   0  0  0  0  0  0  0  0  0  0  0  0
  148.5145  141.4358  156.9891 H   0  0  0  0  0  0  0  0  0  0  0  0
  152.0197  140.3162  157.8938 H   0  0  0  0  0  0  0  0  0  0  0  0
  153.4512  138.9835  156.3356 H   0  0  0  0  0  0  0  0  0  0  0  0
  152.5321  138.3830  154.0814 H   0  0  0  0  0  0  0  0  0  0  0  0
  147.6477  138.7283  155.5855 H   0  0  0  0  0  0  0  0  0  0  0  0
  147.4962  140.2192  156.5055 H   0  0  0  0  0  0  0  0  0  0  0  0
  146.1483  139.6287  153.8087 H   0  0  0  0  0  0  0  0  0  0  0  0
  145.3537  139.7640  155.3651 H   0  0  0  0  0  0  0  0  0  0  0  0
  147.1065  141.6440  152.8177 H   0  0  0  0  0  0  0  0  0  0  0  0
  146.9764  143.1490  153.7048 H   0  0  0  0  0  0  0  0  0  0  0  0
  148.5351  142.3427  155.4509 H   0  0  0  0  0  0  0  0  0  0  0  0
  149.2970  142.1729  153.8800 H   0  0  0  0  0  0  0  0  0  0  0  0
  1  2  1  0  0  0  0
  1 21  1  0  0  0  0
  1 22  1  0  0  0  0
  1 23  1  0  0  0  0
  2  3  1  0  0  0  0
  2  4  1  0  0  0  0
  2  5  1  0  0  0  0
  3 24  1  0  0  0  0
  3 25  1  0  0  0  0
  3 26  1  0  0  0  0
  4 27  1  0  0  0  0
  4 28  1  0  0  0  0
  4 29  1  0  0  0  0
  5  6  2  0  0  0  0
  5  7  1  0  0  0  0
  7  8  1  0  0  0  0
  7 30  1  0  0  0  0
  8  9  1  0  0  0  0
  8 31  1  0  0  0  0
  8 32  1  0  0  0  0
  9 14  1  0  0  0  0
  9 10  2  0  0  0  0
 10 11  1  0  0  0  0
 10 33  1  0  0  0  0
 11 12  2  0  0  0  0
 11 34  1  0  0  0  0
 12 13  1  0  0  0  0
 12 35  1  0  0  0  0
 13 14  2  0  0  0  0
 14 15  1  0  0  0  0
 15 20  1  0  0  0  0
 15 16  1  0  0  0  0
 16 17  1  0  0  0  0
 16 36  1  0  0  0  0
 16 37  1  0  0  0  0
 17 18  1  0  0  0  0
 17 38  1  0  0  0  0
 17 39  1  0  0  0  0
 18 19  1  0  0  0  0
 19 20  1  0  0  0  0
 19 40  1  0  0  0  0
 19 41  1  0  0  0  0
 20 42  1  0  0  0  0
 20 43  1  0  0  0  0
M  END
> <s_m_source_file>
AV-unprocessed.smi

> <i_m_source_file_index>
1321

> <i_lp_mmshare_version>
43012

> <i_f3d_flags>
0

> <s_epik_input>
W0NIM11DKFtDSDNdKShbQ0gzXSlDKD1PKVtOSF1bQ0gyXWMxW2NIXVtjSF1bY0hdbmMxTjJbQ0gyXVtDSDJdT1tDSDJdW0NIMl0y

> <s_epik_cmdline>
J2VwaWtfcHl0aG9uJywgJy1waCcsICc3LjAnLCAnLXRuJywgJzgnLCAnLW1hJywgJzIwMCcsICctbWV0YWxfYmluZGluZycsICctaW1hZScsICc8aW5maWxlLm1hZT4nLCAnLW9tYWUnLCAnPG91dGZpbGUubWFlPic=

> <r_lp_tautomer_probability>
1

> <r_epik_Ionization_Penalty>
0.0052234

> <r_epik_Ionization_Penalty_Charging>
0

> <r_epik_Ionization_Penalty_Neutral>
0.0052234

> <r_epik_State_Penalty>
0.0038086

> <r_epik_Charging_Adjusted_Penalty>
0.0038086

> <i_epik_Tot_Q>
0

> <i_epik_Tot_abs_Q>
0

> <r_epik_Metal_State_Penalty>
-0

> <b_epik_Metal_Only>
0

> <s_lp_Force_Field>
OPLS_2005

> <r_lp_Energy>
23.2048

> <b_lp_Chiralities_Consistent>
1

> <s_lp_Variant>
AV-unprocessed.smi:1321-1

> <Gold.Version>
5.8.1

> <Gold.Id.Protein>
6NUR|6NUR_protein|mol2

> <Gold.PLP.Fitness>
37.7324

> <Gold.PLP.PLP>
-36.7298

> <Gold.PLP.part.hbond>
-1.4538

> <Gold.PLP.part.metal>
0.0000

> <Gold.PLP.part.buried>
-3.7279

> <Gold.PLP.part.nonpolar>
-31.0962

> <Gold.PLP.part.repulsive>
0.4571

> <Gold.PLP.ligand.clash>
0.0000

> <Gold.PLP.ligand.torsion>
0.2807

> <Gold.PLP.Chemscore.Hbond>
0.4613

> <Gold.PLP.Chemscore.CHOScore>
0.0000

> <Gold.PLP.Chemscore.Metal>
0.0000

> <Gold.Chemscore.Hbonds>
donor molecule, donor type, donor heavy atom, donor atom, acceptor molecule, acceptor atom, score
      L1  H     7    30       P1  8028  0.18
      P1  H  7989  7998       L1    13  0.23

> <Gold.PLP.Chemscore.Internal.Correction>
0.1802

> <Gold.Rescore>
     Score         DG    S(hbond)    S(metal)    S(lipo)     H(rot)  DE(clash)    DE(int)     intcor
     15.00     -15.55       0.76        0.00      97.50       1.52       0.26       0.29       ----

> <Gold.Chemscore.Fitness>
15.0003

> <Gold.Chemscore.DG>
-15.5513

> <Gold.Chemscore.ZeroCoef>
-5.4800

> <Gold.Chemscore.Hbond>
0.7629

> <Gold.Chemscore.Metal>
0.0000

> <Gold.Chemscore.Lipo>
97.4989

> <Gold.Chemscore.Internal_Hbond>
0.0000

> <Gold.Chemscore.DEClash>
0.2589

> <Gold.Chemscore.DEInternal>
0.2921

> <Gold.Chemscore.Rot>
1.5173

> <Gold.Chemscore.Internal.Correction>
   9.000000E+99

> <Gold.Chemscore.Hbonds>
donor molecule, donor type, donor heavy atom, donor atom, acceptor molecule, acceptor atom, score
      L1  H     7    30       P1  8028  0.18

> <Gold.Chemscore.Hbond.Weighted>
-2.5482

> <Gold.Chemscore.Metal.Weighted>
-0.0000

> <Gold.Chemscore.Lipo.Weighted>
-11.4074

> <Gold.Chemscore.Internal_Hbond.Weighted>
0.0000

> <Gold.Chemscore.DEClash.Weighted>
0.2589

> <Gold.Chemscore.DEInternal.Weighted>
0.2921

> <Gold.Chemscore.Rot.Weighted>
3.8843

> <Gold.Chemscore.Internal.Correction.Weighted>
   9.000000E+99

> <Gold.Protein.RotatedTorsions>
[ 6907 6896 6895 6894 ] final  170.22 input  -60.11 | X-H torsion
[ 7974 7965 7964 7962 ] final -123.03 input  175.53 | X-H torsion
[ 8008 7997 7996 7995 ] final -129.88 input   59.86 | X-H torsion
[ 10167 10162 10161 10158 ] final -158.44 input  -65.29 | X-H torsion
[ 10718 10713 10712 10709 ] final -101.16 input   66.30 | X-H torsion
[ 10763 10752 10751 10750 ] final  -49.60 input  -60.55 | X-H torsion
[ 11005 11000 10999 10996 ] final -159.50 input  -57.11 | X-H torsion

> <Gold.Protein.ActiveResidues>
 VAL166  LYS551  ARG553  GLY616  TRP617  ASP618  TYR619  PRO620  LYS621  CYS622 
 ASP623  PHE694  ASN695  SER759  ASP760  ASP761  ALA762  ILE779  LEU786  VAL792 
 PHE793  MET794  SER795  GLU796  ALA797  LYS798  CYS799  TRP800  GLU811  SER814 

> <Gold.Protein.RotatedAtoms>
  151.8195  133.3392  159.3579 H   0  0  0  0  0  0  0  0  0  0  0  0  # atno 6907 bound_to 6896
  150.7299  134.5587  159.5841 H   0  0  0  0  0  0  0  0  0  0  0  0  # atno 6908 bound_to 6896
  152.3016  134.7605  160.0407 H   0  0  0  0  0  0  0  0  0  0  0  0  # atno 6909 bound_to 6896
  145.0231  140.8005  143.4369 H   0  0  0  0  0  0  0  0  0  0  0  0  # atno 7974 bound_to 7965
  155.2866  140.0446  157.3020 H   0  0  0  0  0  0  0  0  0  0  0  0  # atno 8008 bound_to 7997
  154.5566  140.2333  155.8369 H   0  0  0  0  0  0  0  0  0  0  0  0  # atno 8009 bound_to 7997
  156.2012  140.3025  155.9538 H   0  0  0  0  0  0  0  0  0  0  0  0  # atno 8010 bound_to 7997
  139.6692  143.9776  152.2273 H   0  0  0  0  0  0  0  0  0  0  0  0  # atno 10167 bound_to 10162
  156.0186  130.5361  150.6923 H   0  0  0  0  0  0  0  0  0  0  0  0  # atno 10718 bound_to 10713
  154.0967  135.6569  153.4861 H   0  0  0  0  0  0  0  0  0  0  0  0  # atno 10763 bound_to 10752
  153.0302  135.5215  154.7326 H   0  0  0  0  0  0  0  0  0  0  0  0  # atno 10764 bound_to 10752
  154.6466  135.2995  155.0007 H   0  0  0  0  0  0  0  0  0  0  0  0  # atno 10765 bound_to 10752
  140.6419  134.4542  157.5233 H   0  0  0  0  0  0  0  0  0  0  0  0  # atno 11005 bound_to 11000
  145.1869  139.2321  143.5263 LP  0  0  0  0  0  0  0  0  0  0  0  0  # atno 17320 bound_to 7965
  146.3488  140.1656  142.8590 LP  0  0  0  0  0  0  0  0  0  0  0  0  # atno 17321 bound_to 7965
  139.9535  144.6605  150.8148 LP  0  0  0  0  0  0  0  0  0  0  0  0  # atno 17342 bound_to 10162
  140.7611  143.3167  151.2717 LP  0  0  0  0  0  0  0  0  0  0  0  0  # atno 17343 bound_to 10162
  157.4602  131.0882  151.0754 LP  0  0  0  0  0  0  0  0  0  0  0  0  # atno 17370 bound_to 10713
  157.1244  130.6075  149.5513 LP  0  0  0  0  0  0  0  0  0  0  0  0  # atno 17371 bound_to 10713
  139.9077  134.8413  156.1643 LP  0  0  0  0  0  0  0  0  0  0  0  0  # atno 17394 bound_to 11000
  141.0601  133.6846  156.1935 LP  0  0  0  0  0  0  0  0  0  0  0  0  # atno 17395 bound_to 11000

$$$$
