AV-unprocessed.smi:587|AV-procd|sdf|3003|dock5
  -GOLD-   2262023513D 1   1.00000     0.00000
 Structure written by MMmdl.
 47 49  0  0  0  0  0  0  0  0  2 V2000
  150.1644  140.6102  154.7798 C   0  0  0  0  0  0  0  0  0  0  0  0
  150.0266  139.3222  155.4266 N   0  0  0  0  0  0  0  0  0  0  0  0
  149.5608  138.1663  154.8026 C   0  0  0  0  0  0  0  0  0  0  0  0
  149.2005  138.2346  153.4643 N   0  0  0  0  0  0  0  0  0  0  0  0
  149.4622  136.9907  155.4798 C   0  0  0  0  0  0  0  0  0  0  0  0
  148.9618  135.7932  154.7366 N   0  3  0  0  0  0  0  0  0  0  0  0
  147.5319  135.4644  154.9675 C   0  0  0  0  0  0  0  0  0  0  0  0
  147.0441  134.4128  153.9571 C   0  0  0  0  0  0  0  0  0  0  0  0
  147.9200  133.1527  154.0098 C   0  0  0  0  0  0  0  0  0  0  0  0
  149.3955  133.5255  153.8074 C   0  0  0  0  0  0  0  0  0  0  0  0
  149.8362  134.5952  154.8204 C   0  0  0  0  0  0  0  0  0  0  0  0
  149.8381  136.8934  156.8939 C   0  0  0  0  0  0  0  0  0  0  0  0
  149.7718  135.8490  157.5444 O   0  0  0  0  0  0  0  0  0  0  0  0
  150.3039  138.0837  157.4949 N   0  0  0  0  0  0  0  0  0  0  0  0
  150.7288  138.0448  158.9129 C   0  0  0  0  0  0  0  0  0  0  0  0
  152.1793  138.5032  159.1313 C   0  0  0  0  0  0  0  0  0  0  0  0
  153.1040  137.6893  159.1627 O   0  0  0  0  0  0  0  0  0  0  0  0
  152.3542  139.8234  159.2863 N   0  0  0  0  0  0  0  0  0  0  0  0
  153.6062  140.4753  159.4960 C   0  0  0  0  0  0  0  0  0  0  0  0
  153.8547  141.1056  160.8493 C   0  0  0  0  0  0  0  0  0  0  0  0
  153.5935  141.9805  159.6542 C   0  0  0  0  0  0  0  0  0  0  0  0
  150.4184  139.2979  156.7861 C   0  0  0  0  0  0  0  0  0  0  0  0
  150.8547  140.3094  157.3431 O   0  0  0  0  0  0  0  0  0  0  0  0
  149.8139  140.5613  153.7512 H   0  0  0  0  0  0  0  0  0  0  0  0
  151.2234  140.8743  154.7996 H   0  0  0  0  0  0  0  0  0  0  0  0
  149.5581  141.3260  155.3379 H   0  0  0  0  0  0  0  0  0  0  0  0
  149.2612  139.0848  152.9238 H   0  0  0  0  0  0  0  0  0  0  0  0
  148.8544  137.4231  152.9712 H   0  0  0  0  0  0  0  0  0  0  0  0
  147.3885  135.0968  155.9841 H   0  0  0  0  0  0  0  0  0  0  0  0
  146.9334  136.3710  154.8696 H   0  0  0  0  0  0  0  0  0  0  0  0
  146.0045  134.1538  154.1599 H   0  0  0  0  0  0  0  0  0  0  0  0
  147.0676  134.8337  152.9509 H   0  0  0  0  0  0  0  0  0  0  0  0
  147.7942  132.6564  154.9730 H   0  0  0  0  0  0  0  0  0  0  0  0
  147.6029  132.4407  153.2472 H   0  0  0  0  0  0  0  0  0  0  0  0
  150.0216  132.6381  153.9055 H   0  0  0  0  0  0  0  0  0  0  0  0
  149.5438  133.8985  152.7932 H   0  0  0  0  0  0  0  0  0  0  0  0
  150.8678  134.8869  154.6192 H   0  0  0  0  0  0  0  0  0  0  0  0
  149.8137  134.1820  155.8294 H   0  0  0  0  0  0  0  0  0  0  0  0
  150.0741  138.6574  159.5351 H   0  0  0  0  0  0  0  0  0  0  0  0
  150.6178  137.0418  159.3281 H   0  0  0  0  0  0  0  0  0  0  0  0
  151.5372  140.4155  159.2455 H   0  0  0  0  0  0  0  0  0  0  0  0
  154.4786  140.0566  158.9961 H   0  0  0  0  0  0  0  0  0  0  0  0
  153.0687  141.0307  161.5984 H   0  0  0  0  0  0  0  0  0  0  0  0
  154.8710  141.0755  161.2370 H   0  0  0  0  0  0  0  0  0  0  0  0
  154.4349  142.5341  159.2429 H   0  0  0  0  0  0  0  0  0  0  0  0
  152.6329  142.4901  159.6063 H   0  0  0  0  0  0  0  0  0  0  0  0
  148.9956  136.0474  153.7605 H   0  0  0  0  0  0  0  0  0  0  0  0
  1  2  1  0  0  0  0
  1 24  1  0  0  0  0
  1 25  1  0  0  0  0
  1 26  1  0  0  0  0
  2 22  1  0  0  0  0
  2  3  1  0  0  0  0
  3  4  1  0  0  0  0
  3  5  2  0  0  0  0
  4 27  1  0  0  0  0
  4 28  1  0  0  0  0
  5  6  1  0  0  0  0
  5 12  1  0  0  0  0
  6 11  1  0  0  0  0
  6  7  1  0  0  0  0
  6 47  1  0  0  0  0
  7  8  1  0  0  0  0
  7 29  1  0  0  0  0
  7 30  1  0  0  0  0
  8  9  1  0  0  0  0
  8 31  1  0  0  0  0
  8 32  1  0  0  0  0
  9 10  1  0  0  0  0
  9 33  1  0  0  0  0
  9 34  1  0  0  0  0
 10 11  1  0  0  0  0
 10 35  1  0  0  0  0
 10 36  1  0  0  0  0
 11 37  1  0  0  0  0
 11 38  1  0  0  0  0
 12 13  2  0  0  0  0
 12 14  1  0  0  0  0
 14 15  1  0  0  0  0
 14 22  1  0  0  0  0
 15 16  1  0  0  0  0
 15 39  1  0  0  0  0
 15 40  1  0  0  0  0
 16 17  2  0  0  0  0
 16 18  1  0  0  0  0
 18 19  1  0  0  0  0
 18 41  1  0  0  0  0
 19 21  1  0  0  0  0
 19 20  1  0  0  0  0
 19 42  1  0  0  0  0
 20 21  1  0  0  0  0
 20 43  1  0  0  0  0
 20 44  1  0  0  0  0
 21 45  1  0  0  0  0
 21 46  1  0  0  0  0
 22 23  2  0  0  0  0
M  CHG  1   6   1
M  END
> <s_m_source_file>
AV-unprocessed.smi

> <i_m_source_file_index>
587

> <i_lp_mmshare_version>
43012

> <i_f3d_flags>
0

> <s_epik_input>
W0NIMl0xW0NIMl1bQ0gyXVtDSDJdW0NIMl1OMWMoYyhbTkgyXSluMltDSDNdKWMoPU8pbihjMj1PKVtDSDJdQyg9TylbTkhdW0NIXTNbQ0gyXVtDSDJdMw==

> <s_epik_cmdline>
J2VwaWtfcHl0aG9uJywgJy1waCcsICc3LjAnLCAnLXRuJywgJzgnLCAnLW1hJywgJzIwMCcsICctbWV0YWxfYmluZGluZycsICctaW1hZScsICc8aW5maWxlLm1hZT4nLCAnLW9tYWUnLCAnPG91dGZpbGUubWFlPic=

> <r_epik_Ionization_Penalty>
2.48068

> <r_epik_Ionization_Penalty_Charging>
2.47625

> <r_epik_Ionization_Penalty_Neutral>
0.00443673

> <r_epik_State_Penalty>
2.66159

> <r_epik_Charging_Adjusted_Penalty>
5.13784

> <i_epik_Tot_Q>
1

> <i_epik_Tot_abs_Q>
1

> <r_epik_Metal_State_Penalty>
2.66159

> <b_epik_Metal_Only>
0

> <s_lp_Force_Field>
OPLS_2005

> <r_lp_Energy>
35.5709

> <b_lp_Chiralities_Consistent>
1

> <s_lp_Variant>
AV-unprocessed.smi:587-2

> <Gold.Version>
5.8.1

> <Gold.Id.Protein>
6NUR|6NUR_protein|mol2

> <Gold.PLP.Fitness>
41.2913

> <Gold.PLP.PLP>
-30.6169

> <Gold.PLP.part.hbond>
-3.0000

> <Gold.PLP.part.metal>
0.0000

> <Gold.PLP.part.buried>
-3.4801

> <Gold.PLP.part.nonpolar>
-24.6995

> <Gold.PLP.part.repulsive>
0.1994

> <Gold.PLP.ligand.clash>
0.0000

> <Gold.PLP.ligand.torsion>
0.7400

> <Gold.PLP.Chemscore.Hbond>
3.9833

> <Gold.PLP.Chemscore.CHOScore>
0.0000

> <Gold.PLP.Chemscore.Metal>
0.0000

> <Gold.Chemscore.Hbonds>
donor molecule, donor type, donor heavy atom, donor atom, acceptor molecule, acceptor atom, score
      L1  H     4    27       P1  7957  0.99
      L1  H     4    28       P1  7948  1.00
      L1  H     6    47       P1  7948  2.00

> <Gold.PLP.Chemscore.Internal.Correction>
0.2045

> <Gold.Rescore>
     Score         DG    S(hbond)    S(metal)    S(lipo)     H(rot)  DE(clash)    DE(int)     intcor
     13.52     -17.99       2.87        0.00      65.94       1.87       1.30       3.18       ----

> <Gold.Chemscore.Fitness>
13.5186

> <Gold.Chemscore.DG>
-17.9905

> <Gold.Chemscore.ZeroCoef>
-5.4800

> <Gold.Chemscore.Hbond>
2.8670

> <Gold.Chemscore.Metal>
0.0000

> <Gold.Chemscore.Lipo>
65.9377

> <Gold.Chemscore.Internal_Hbond>
0.0000

> <Gold.Chemscore.DEClash>
1.2963

> <Gold.Chemscore.DEInternal>
3.1756

> <Gold.Chemscore.Rot>
1.8672

> <Gold.Chemscore.Internal.Correction>
   9.000000E+99

> <Gold.Chemscore.Hbonds>
donor molecule, donor type, donor heavy atom, donor atom, acceptor molecule, acceptor atom, score
      L1  H     4    27       P1  7957  0.88
      L1  H     4    28       P1  7948  0.95
      L1  H     6    47       P1  7948  0.97

> <Gold.Chemscore.Hbond.Weighted>
-9.5757

> <Gold.Chemscore.Metal.Weighted>
-0.0000

> <Gold.Chemscore.Lipo.Weighted>
-7.7147

> <Gold.Chemscore.Internal_Hbond.Weighted>
0.0000

> <Gold.Chemscore.DEClash.Weighted>
1.2963

> <Gold.Chemscore.DEInternal.Weighted>
3.1756

> <Gold.Chemscore.Rot.Weighted>
4.7799

> <Gold.Chemscore.Internal.Correction.Weighted>
   9.000000E+99

> <Gold.Protein.RotatedTorsions>
[ 6907 6896 6895 6894 ] final -161.31 input  -60.11 | X-H torsion
[ 7974 7965 7964 7962 ] final  -60.42 input  175.53 | X-H torsion
[ 8008 7997 7996 7995 ] final  -73.82 input   59.86 | X-H torsion
[ 10167 10162 10161 10158 ] final   -1.91 input  -65.29 | X-H torsion
[ 10718 10713 10712 10709 ] final -110.81 input   66.30 | X-H torsion
[ 10763 10752 10751 10750 ] final  -81.64 input  -60.55 | X-H torsion
[ 11005 11000 10999 10996 ] final   11.23 input  -57.11 | X-H torsion

> <Gold.Protein.ActiveResidues>
 VAL166  LYS551  ARG553  GLY616  TRP617  ASP618  TYR619  PRO620  LYS621  CYS622 
 ASP623  PHE694  ASN695  SER759  ASP760  ASP761  ALA762  ILE779  LEU786  VAL792 
 PHE793  MET794  SER795  GLU796  ALA797  LYS798  CYS799  TRP800  GLU811  SER814 

> <Gold.Protein.RotatedAtoms>
  151.3627  133.3883  159.2691 H   0  0  0  0  0  0  0  0  0  0  0  0  # atno 6907 bound_to 6896
  150.9712  134.9086  159.7800 H   0  0  0  0  0  0  0  0  0  0  0  0  # atno 6908 bound_to 6896
  152.5185  134.3589  159.9330 H   0  0  0  0  0  0  0  0  0  0  0  0  # atno 6909 bound_to 6896
  145.8158  140.8571  143.0158 H   0  0  0  0  0  0  0  0  0  0  0  0  # atno 7974 bound_to 7965
  154.5279  140.0772  156.8291 H   0  0  0  0  0  0  0  0  0  0  0  0  # atno 8008 bound_to 7997
  155.3437  140.3409  155.4221 H   0  0  0  0  0  0  0  0  0  0  0  0  # atno 8009 bound_to 7997
  156.1750  140.1632  156.8365 H   0  0  0  0  0  0  0  0  0  0  0  0  # atno 8010 bound_to 7997
  140.6829  143.6720  150.8177 H   0  0  0  0  0  0  0  0  0  0  0  0  # atno 10167 bound_to 10162
  156.0612  130.5835  150.8288 H   0  0  0  0  0  0  0  0  0  0  0  0  # atno 10718 bound_to 10713
  154.5660  135.5619  153.7051 H   0  0  0  0  0  0  0  0  0  0  0  0  # atno 10763 bound_to 10752
  153.0033  135.6285  154.2180 H   0  0  0  0  0  0  0  0  0  0  0  0  # atno 10764 bound_to 10752
  154.2119  135.2873  155.2935 H   0  0  0  0  0  0  0  0  0  0  0  0  # atno 10765 bound_to 10752
  140.5056  134.0703  155.7804 H   0  0  0  0  0  0  0  0  0  0  0  0  # atno 11005 bound_to 11000
  144.6752  140.0461  143.7480 LP  0  0  0  0  0  0  0  0  0  0  0  0  # atno 17320 bound_to 7965
  145.9729  139.2883  143.1088 LP  0  0  0  0  0  0  0  0  0  0  0  0  # atno 17321 bound_to 7965
  140.0423  143.5334  152.2712 LP  0  0  0  0  0  0  0  0  0  0  0  0  # atno 17342 bound_to 10162
  139.6165  144.7620  151.2834 LP  0  0  0  0  0  0  0  0  0  0  0  0  # atno 17343 bound_to 10162
  157.5621  131.0946  150.9543 LP  0  0  0  0  0  0  0  0  0  0  0  0  # atno 17370 bound_to 10713
  156.9778  130.5515  149.5294 LP  0  0  0  0  0  0  0  0  0  0  0  0  # atno 17371 bound_to 10713
  141.1413  133.9133  157.2320 LP  0  0  0  0  0  0  0  0  0  0  0  0  # atno 17394 bound_to 11000
  139.9688  135.0134  156.9458 LP  0  0  0  0  0  0  0  0  0  0  0  0  # atno 17395 bound_to 11000

$$$$
