AV-unprocessed.smi:2336|AV-procd|sdf|9327|dock4
  -GOLD-   2272012543D 1   1.00000     0.00000
 Structure written by MMmdl.
 50 51  0  0  0  0  0  0  0  0  2 V2000
  145.5305  136.8622  151.7400 C   0  0  0  0  0  0  0  0  0  0  0  0
  144.8628  135.8135  152.6476 C   0  0  0  0  0  0  0  0  0  0  0  0
  143.8209  136.4672  153.5731 C   0  0  0  0  0  0  0  0  0  0  0  0
  145.8787  134.8898  153.4064 C   0  0  2  0  0  0  0  0  0  0  0  0
  146.5935  135.6051  154.5981 C   0  0  0  0  0  0  0  0  0  0  0  0
  147.6917  136.4685  154.1807 N   0  0  0  0  0  0  0  0  0  0  0  0
  148.0826  137.5735  154.8324 C   0  0  0  0  0  0  0  0  0  0  0  0
  147.5460  137.9708  155.8670 O   0  0  0  0  0  0  0  0  0  0  0  0
  149.1007  138.1767  154.1953 N   0  0  0  0  0  0  0  0  0  0  0  0
  149.7783  139.3829  154.5254 C   0  0  0  0  0  0  0  0  0  0  0  0
  149.1449  140.5473  155.0246 C   0  0  0  0  0  0  0  0  0  0  0  0
  149.9393  141.6731  155.3210 C   0  0  0  0  0  0  0  0  0  0  0  0
  151.2794  141.7016  155.1631 N   0  0  0  0  0  0  0  0  0  0  0  0
  151.8815  140.5861  154.7001 C   0  0  0  0  0  0  0  0  0  0  0  0
  151.1809  139.4083  154.3717 C   0  0  0  0  0  0  0  0  0  0  0  0
  151.8486  138.3211  153.9148 F   0  0  0  0  0  0  0  0  0  0  0  0
  146.8280  134.2973  152.4324 N   0  0  0  0  0  0  0  0  0  0  0  0
  147.8607  133.3886  152.9526 C   0  0  0  0  0  0  0  0  0  0  0  0
  147.2554  132.0612  153.4571 C   0  0  0  0  0  0  0  0  0  0  0  0
  146.5711  131.3630  152.3465 N   0  3  0  0  0  0  0  0  0  0  0  0
  146.0190  130.0517  152.7482 C   0  0  0  0  0  0  0  0  0  0  0  0
  145.5574  132.2452  151.7254 C   0  0  0  0  0  0  0  0  0  0  0  0
  146.1896  133.5919  151.3055 C   0  0  0  0  0  0  0  0  0  0  0  0
  146.0506  137.6280  152.3153 H   0  0  0  0  0  0  0  0  0  0  0  0
  144.7882  137.3706  151.1239 H   0  0  0  0  0  0  0  0  0  0  0  0
  146.2512  136.3986  151.0660 H   0  0  0  0  0  0  0  0  0  0  0  0
  144.2615  135.2070  151.9761 H   0  0  0  0  0  0  0  0  0  0  0  0
  144.2448  137.2635  154.1822 H   0  0  0  0  0  0  0  0  0  0  0  0
  143.3695  135.7340  154.2419 H   0  0  0  0  0  0  0  0  0  0  0  0
  143.0150  136.9129  152.9894 H   0  0  0  0  0  0  0  0  0  0  0  0
  145.3177  134.0648  153.8415 H   0  0  0  0  0  0  0  0  0  0  0  0
  145.9129  136.2435  155.1597 H   0  0  0  0  0  0  0  0  0  0  0  0
  146.9746  134.8792  155.3165 H   0  0  0  0  0  0  0  0  0  0  0  0
  148.1803  136.2107  153.3354 H   0  0  0  0  0  0  0  0  0  0  0  0
  149.3885  137.7530  153.3253 H   0  0  0  0  0  0  0  0  0  0  0  0
  148.0817  140.6014  155.1962 H   0  0  0  0  0  0  0  0  0  0  0  0
  149.4841  142.5751  155.7028 H   0  0  0  0  0  0  0  0  0  0  0  0
  152.9548  140.6323  154.5890 H   0  0  0  0  0  0  0  0  0  0  0  0
  148.5689  133.1758  152.1504 H   0  0  0  0  0  0  0  0  0  0  0  0
  148.4586  133.8699  153.7254 H   0  0  0  0  0  0  0  0  0  0  0  0
  148.0509  131.4242  153.8449 H   0  0  0  0  0  0  0  0  0  0  0  0
  146.5559  132.2274  154.2773 H   0  0  0  0  0  0  0  0  0  0  0  0
  145.2507  130.1682  153.5140 H   0  0  0  0  0  0  0  0  0  0  0  0
  146.8050  129.4094  153.1467 H   0  0  0  0  0  0  0  0  0  0  0  0
  145.5749  129.5432  151.8920 H   0  0  0  0  0  0  0  0  0  0  0  0
  145.1507  131.7499  150.8431 H   0  0  0  0  0  0  0  0  0  0  0  0
  144.7191  132.3929  152.4067 H   0  0  0  0  0  0  0  0  0  0  0  0
  145.4370  134.2003  150.8101 H   0  0  0  0  0  0  0  0  0  0  0  0
  146.9493  133.4060  150.5448 H   0  0  0  0  0  0  0  0  0  0  0  0
  147.2721  131.1843  151.6416 H   0  0  0  0  0  0  0  0  0  0  0  0
  1  2  1  0  0  0  0
  1 24  1  0  0  0  0
  1 25  1  0  0  0  0
  1 26  1  0  0  0  0
  2  3  1  0  0  0  0
  2  4  1  0  0  0  0
  2 27  1  0  0  0  0
  3 28  1  0  0  0  0
  3 29  1  0  0  0  0
  3 30  1  0  0  0  0
  4  5  1  0  0  0  0
  4 17  1  0  0  0  0
  4 31  1  0  0  0  0
  5  6  1  0  0  0  0
  5 32  1  0  0  0  0
  5 33  1  0  0  0  0
  6  7  1  0  0  0  0
  6 34  1  0  0  0  0
  7  8  2  0  0  0  0
  7  9  1  0  0  0  0
  9 10  1  0  0  0  0
  9 35  1  0  0  0  0
 10 15  1  0  0  0  0
 10 11  2  0  0  0  0
 11 12  1  0  0  0  0
 11 36  1  0  0  0  0
 12 13  2  0  0  0  0
 12 37  1  0  0  0  0
 13 14  1  0  0  0  0
 14 15  2  0  0  0  0
 14 38  1  0  0  0  0
 15 16  1  0  0  0  0
 17 23  1  0  0  0  0
 17 18  1  0  0  0  0
 18 19  1  0  0  0  0
 18 39  1  0  0  0  0
 18 40  1  0  0  0  0
 19 20  1  0  0  0  0
 19 41  1  0  0  0  0
 19 42  1  0  0  0  0
 20 21  1  0  0  0  0
 20 22  1  0  0  0  0
 20 50  1  0  0  0  0
 21 43  1  0  0  0  0
 21 44  1  0  0  0  0
 21 45  1  0  0  0  0
 22 23  1  0  0  0  0
 22 46  1  0  0  0  0
 22 47  1  0  0  0  0
 23 48  1  0  0  0  0
 23 49  1  0  0  0  0
M  CHG  1  20   1
M  END
> <s_m_source_file>
AV-unprocessed.smi

> <i_m_source_file_index>
2336

> <i_lp_mmshare_version>
43012

> <i_f3d_flags>
0

> <s_epik_input>
W0NIMl0xW0NIMl1OKFtDSDNdKVtDSDJdW0NIMl1OMVtDQEhdKFtDSF0oW0NIM10pW0NIM10pW0NIMl1bTkhdQyg9TylbTkhdYzJbY0hdW2NIXW5bY0hdYzJG

> <s_epik_cmdline>
J2VwaWtfcHl0aG9uJywgJy1waCcsICc3LjAnLCAnLXRuJywgJzgnLCAnLW1hJywgJzIwMCcsICctbWV0YWxfYmluZGluZycsICctaW1hZScsICc8aW5maWxlLm1hZT4nLCAnLW9tYWUnLCAnPG91dGZpbGUubWFlPic=

> <r_epik_Ionization_Penalty>
0.0313013

> <r_epik_Ionization_Penalty_Charging>
0.0272987

> <r_epik_Ionization_Penalty_Neutral>
0.00400259

> <r_epik_State_Penalty>
0.0776825

> <r_epik_Charging_Adjusted_Penalty>
0.104981

> <i_epik_Tot_Q>
1

> <i_epik_Tot_abs_Q>
1

> <r_epik_Metal_State_Penalty>
0.0776139

> <b_epik_Metal_Only>
0

> <s_lp_Force_Field>
OPLS_2005

> <r_lp_Energy>
31.6665

> <b_lp_Chiralities_Consistent>
1

> <s_lp_Variant>
AV-unprocessed.smi:2336-1

> <Gold.Version>
5.8.1

> <Gold.Id.Protein>
6NUR|6NUR_protein|mol2

> <Gold.PLP.Fitness>
48.5622

> <Gold.PLP.PLP>
-38.3521

> <Gold.PLP.part.hbond>
-3.7409

> <Gold.PLP.part.metal>
0.0000

> <Gold.PLP.part.buried>
-0.1995

> <Gold.PLP.part.nonpolar>
-35.1472

> <Gold.PLP.part.repulsive>
0.9961

> <Gold.PLP.ligand.clash>
0.0000

> <Gold.PLP.ligand.torsion>
0.7395

> <Gold.PLP.Chemscore.Hbond>
2.8560

> <Gold.PLP.Chemscore.CHOScore>
0.9883

> <Gold.PLP.Chemscore.Metal>
0.0000

> <Gold.Chemscore.Hbonds>
donor molecule, donor type, donor heavy atom, donor atom, acceptor molecule, acceptor atom, score
      L1  H     6    34       P1  7948  1.00
      L1  H     9    35       P1  7948  0.72
      L1  H    20    50       P1 10747  0.55
      L1  C    12    37       P1  8028  1.00

> <Gold.PLP.Chemscore.Internal.Correction>
0.1562

> <Gold.Rescore>
     Score         DG    S(hbond)    S(metal)    S(lipo)     H(rot)  DE(clash)    DE(int)     intcor
     17.78     -20.26       2.76        0.00      84.15       1.67       0.09       2.39       ----

> <Gold.Chemscore.Fitness>
17.7811

> <Gold.Chemscore.DG>
-20.2587

> <Gold.Chemscore.ZeroCoef>
-5.4800

> <Gold.Chemscore.Hbond>
2.7601

> <Gold.Chemscore.Metal>
0.0000

> <Gold.Chemscore.Lipo>
84.1462

> <Gold.Chemscore.Internal_Hbond>
0.0000

> <Gold.Chemscore.DEClash>
0.0923

> <Gold.Chemscore.DEInternal>
2.3853

> <Gold.Chemscore.Rot>
1.6739

> <Gold.Chemscore.Internal.Correction>
   9.000000E+99

> <Gold.Chemscore.Hbonds>
donor molecule, donor type, donor heavy atom, donor atom, acceptor molecule, acceptor atom, score
      L1  H     6    34       P1  7948  1.00
      L1  H     9    35       P1  7948  0.65
      L1  H    20    50       P1 10747  0.56

> <Gold.Chemscore.Hbond.Weighted>
-9.2187

> <Gold.Chemscore.Metal.Weighted>
-0.0000

> <Gold.Chemscore.Lipo.Weighted>
-9.8451

> <Gold.Chemscore.Internal_Hbond.Weighted>
0.0000

> <Gold.Chemscore.DEClash.Weighted>
0.0923

> <Gold.Chemscore.DEInternal.Weighted>
2.3853

> <Gold.Chemscore.Rot.Weighted>
4.2851

> <Gold.Chemscore.Internal.Correction.Weighted>
   9.000000E+99

> <Gold.Protein.RotatedTorsions>
[ 6907 6896 6895 6894 ] final   87.79 input  -60.11 | X-H torsion
[ 7974 7965 7964 7962 ] final   67.95 input  175.53 | X-H torsion
[ 8008 7997 7996 7995 ] final  -71.28 input   59.86 | X-H torsion
[ 10167 10162 10161 10158 ] final  -23.16 input  -65.29 | X-H torsion
[ 10718 10713 10712 10709 ] final  133.51 input   66.30 | X-H torsion
[ 10763 10752 10751 10750 ] final  145.05 input  -60.55 | X-H torsion
[ 11005 11000 10999 10996 ] final -126.96 input  -57.11 | X-H torsion

> <Gold.Protein.ActiveResidues>
 VAL166  LYS551  ARG553  GLY616  TRP617  ASP618  TYR619  PRO620  LYS621  CYS622 
 ASP623  PHE694  ASN695  SER759  ASP760  ASP761  ALA762  ILE779  LEU786  VAL792 
 PHE793  MET794  SER795  GLU796  ALA797  LYS798  CYS799  TRP800  GLU811  SER814 

> <Gold.Protein.RotatedAtoms>
  152.5416  134.2222  159.8791 H   0  0  0  0  0  0  0  0  0  0  0  0  # atno 6907 bound_to 6896
  151.2199  133.4502  159.2608 H   0  0  0  0  0  0  0  0  0  0  0  0  # atno 6908 bound_to 6896
  151.0816  134.9874  159.8414 H   0  0  0  0  0  0  0  0  0  0  0  0  # atno 6909 bound_to 6896
  145.8085  139.3019  143.1113 H   0  0  0  0  0  0  0  0  0  0  0  0  # atno 7974 bound_to 7965
  154.5076  140.0818  156.7925 H   0  0  0  0  0  0  0  0  0  0  0  0  # atno 8008 bound_to 7997
  155.3858  140.3430  155.4231 H   0  0  0  0  0  0  0  0  0  0  0  0  # atno 8009 bound_to 7997
  156.1534  140.1565  156.8720 H   0  0  0  0  0  0  0  0  0  0  0  0  # atno 8010 bound_to 7997
  140.7287  143.4468  151.0575 H   0  0  0  0  0  0  0  0  0  0  0  0  # atno 10167 bound_to 10162
  157.4765  131.1083  150.9736 H   0  0  0  0  0  0  0  0  0  0  0  0  # atno 10718 bound_to 10713
  153.9990  135.2925  155.3404 H   0  0  0  0  0  0  0  0  0  0  0  0  # atno 10763 bound_to 10752
  154.7171  135.5125  153.8757 H   0  0  0  0  0  0  0  0  0  0  0  0  # atno 10764 bound_to 10752
  153.0775  135.6668  154.0233 H   0  0  0  0  0  0  0  0  0  0  0  0  # atno 10765 bound_to 10752
  140.9638  134.0899  157.3941 H   0  0  0  0  0  0  0  0  0  0  0  0  # atno 11005 bound_to 11000
  145.9803  140.8688  143.0118 LP  0  0  0  0  0  0  0  0  0  0  0  0  # atno 17320 bound_to 7965
  144.6760  140.2070  143.7381 LP  0  0  0  0  0  0  0  0  0  0  0  0  # atno 17321 bound_to 7965
  139.8140  143.7911  152.3173 LP  0  0  0  0  0  0  0  0  0  0  0  0  # atno 17342 bound_to 10162
  139.7970  144.7388  150.9876 LP  0  0  0  0  0  0  0  0  0  0  0  0  # atno 17343 bound_to 10162
  157.0483  130.5777  149.5366 LP  0  0  0  0  0  0  0  0  0  0  0  0  # atno 17370 bound_to 10713
  156.0099  130.5190  150.7956 LP  0  0  0  0  0  0  0  0  0  0  0  0  # atno 17371 bound_to 10713
  139.8887  135.0100  156.6638 LP  0  0  0  0  0  0  0  0  0  0  0  0  # atno 17394 bound_to 11000
  140.7428  133.8963  155.8290 LP  0  0  0  0  0  0  0  0  0  0  0  0  # atno 17395 bound_to 11000

$$$$
