AV-unprocessed.smi:3278|AV-procd|sdf|12544|dock2
  -GOLD-   2272018463D 1   1.00000     0.00000
 Structure written by MMmdl.
 38 39  0  0  0  0  0  0  0  0  1 V2000
  145.5398  142.9988  154.3072 C   0  0  0  0  0  0  0  0  0  0  0  0
  146.6679  142.0922  154.3160 N   0  0  0  0  0  0  0  0  0  0  0  0
  147.7710  142.0989  155.1414 C   0  0  0  0  0  0  0  0  0  0  0  0
  148.5707  141.0514  154.7754 C   0  0  0  0  0  0  0  0  0  0  0  0
  149.8991  140.6279  155.3667 C   0  0  1  0  0  0  0  0  0  0  0  0
  149.6610  139.6527  156.5323 C   0  0  0  0  0  0  0  0  0  0  0  0
  150.6984  139.9196  154.4375 O   0  0  0  0  0  0  0  0  0  0  0  0
  150.7260  141.8391  155.8531 C   0  0  0  0  0  0  0  0  0  0  0  0
  150.1006  142.5111  156.9961 N   0  0  0  0  0  0  0  0  0  0  0  0
  151.0067  143.2471  157.8820 C   0  0  2  0  0  0  0  0  0  0  0  0
  151.8067  142.2350  158.7254 C   0  0  0  0  0  0  0  0  0  0  0  0
  152.8691  142.8999  159.6141 C   0  0  0  0  0  0  0  0  0  0  0  0
  152.2524  143.8624  160.6364 C   0  0  0  0  0  0  0  0  0  0  0  0
  151.3858  145.2209  159.8087 S   0  0  0  0  0  0  0  0  0  0  0  0
  150.2485  144.2438  158.7869 C   0  0  0  0  0  0  0  0  0  0  0  0
  147.8508  140.4586  153.6962 C   0  0  0  0  0  0  0  0  0  0  0  0
  146.7157  141.0821  153.4248 N   0  0  0  0  0  0  0  0  0  0  0  0
  145.6005  143.6799  155.1564 H   0  0  0  0  0  0  0  0  0  0  0  0
  144.6094  142.4338  154.3725 H   0  0  0  0  0  0  0  0  0  0  0  0
  145.5422  143.5803  153.3849 H   0  0  0  0  0  0  0  0  0  0  0  0
  147.8980  142.8424  155.9144 H   0  0  0  0  0  0  0  0  0  0  0  0
  149.0753  140.1176  157.3261 H   0  0  0  0  0  0  0  0  0  0  0  0
  150.6011  139.3195  156.9739 H   0  0  0  0  0  0  0  0  0  0  0  0
  149.1191  138.7655  156.2022 H   0  0  0  0  0  0  0  0  0  0  0  0
  150.5392  138.9949  154.5481 H   0  0  0  0  0  0  0  0  0  0  0  0
  151.7214  141.4998  156.1424 H   0  0  0  0  0  0  0  0  0  0  0  0
  150.8667  142.5300  155.0225 H   0  0  0  0  0  0  0  0  0  0  0  0
  149.3644  143.1263  156.6649 H   0  0  0  0  0  0  0  0  0  0  0  0
  151.7134  143.8072  157.2680 H   0  0  0  0  0  0  0  0  0  0  0  0
  151.1285  141.6469  159.3456 H   0  0  0  0  0  0  0  0  0  0  0  0
  152.3032  141.5249  158.0625 H   0  0  0  0  0  0  0  0  0  0  0  0
  153.4291  142.1276  160.1416 H   0  0  0  0  0  0  0  0  0  0  0  0
  153.5912  143.4317  158.9936 H   0  0  0  0  0  0  0  0  0  0  0  0
  151.5521  143.3336  161.2839 H   0  0  0  0  0  0  0  0  0  0  0  0
  153.0282  144.2813  161.2775 H   0  0  0  0  0  0  0  0  0  0  0  0
  149.6659  144.9533  158.2014 H   0  0  0  0  0  0  0  0  0  0  0  0
  149.5504  143.7165  159.4383 H   0  0  0  0  0  0  0  0  0  0  0  0
  148.1200  139.5968  153.1035 H   0  0  0  0  0  0  0  0  0  0  0  0
  1  2  1  0  0  0  0
  1 18  1  0  0  0  0
  1 19  1  0  0  0  0
  1 20  1  0  0  0  0
  2 17  1  0  0  0  0
  2  3  1  0  0  0  0
  3  4  2  0  0  0  0
  3 21  1  0  0  0  0
  4  5  1  0  0  0  0
  4 16  1  0  0  0  0
  5  6  1  0  0  0  0
  5  7  1  0  0  0  0
  5  8  1  0  0  0  0
  6 22  1  0  0  0  0
  6 23  1  0  0  0  0
  6 24  1  0  0  0  0
  7 25  1  0  0  0  0
  8  9  1  0  0  0  0
  8 26  1  0  0  0  0
  8 27  1  0  0  0  0
  9 10  1  0  0  0  0
  9 28  1  0  0  0  0
 10 15  1  0  0  0  0
 10 11  1  0  0  0  0
 10 29  1  0  0  0  0
 11 12  1  0  0  0  0
 11 30  1  0  0  0  0
 11 31  1  0  0  0  0
 12 13  1  0  0  0  0
 12 32  1  0  0  0  0
 12 33  1  0  0  0  0
 13 14  1  0  0  0  0
 13 34  1  0  0  0  0
 13 35  1  0  0  0  0
 14 15  1  0  0  0  0
 15 36  1  0  0  0  0
 15 37  1  0  0  0  0
 16 17  2  0  0  0  0
 16 38  1  0  0  0  0
M  END
> <s_m_source_file>
AV-unprocessed.smi

> <i_m_source_file_index>
3278

> <i_lp_mmshare_version>
43012

> <i_f3d_flags>
0

> <s_epik_input>
W0NIM11uMVtjSF1jKFtjSF1uMSlbQ0BAXShbQ0gzXSkoW09IXSlbQ0gyXVtOSF1bQ0BASF0yW0NIMl1bQ0gyXVtDSDJdU1tDSDJdMg==

> <s_epik_cmdline>
J2VwaWtfcHl0aG9uJywgJy1waCcsICc3LjAnLCAnLXRuJywgJzgnLCAnLW1hJywgJzIwMCcsICctbWV0YWxfYmluZGluZycsICctaW1hZScsICc8aW5maWxlLm1hZT4nLCAnLW9tYWUnLCAnPG91dGZpbGUubWFlPic=

> <r_lp_tautomer_probability>
1

> <r_epik_Ionization_Penalty>
2.06123

> <r_epik_Ionization_Penalty_Charging>
0

> <r_epik_Ionization_Penalty_Neutral>
2.06123

> <r_epik_State_Penalty>
2.1944

> <r_epik_Charging_Adjusted_Penalty>
2.1944

> <i_epik_Tot_Q>
0

> <i_epik_Tot_abs_Q>
0

> <r_epik_Metal_State_Penalty>
2.19434

> <b_epik_Metal_Only>
0

> <s_lp_Force_Field>
OPLS_2005

> <r_lp_Energy>
12.429

> <b_lp_Chiralities_Consistent>
1

> <s_lp_Variant>
AV-unprocessed.smi:3278-5

> <Gold.Version>
5.8.1

> <Gold.Id.Protein>
6NUR|6NUR_protein|mol2

> <Gold.PLP.Fitness>
46.1365

> <Gold.PLP.PLP>
-37.9541

> <Gold.PLP.part.hbond>
-2.0000

> <Gold.PLP.part.metal>
0.0000

> <Gold.PLP.part.buried>
-1.9722

> <Gold.PLP.part.nonpolar>
-34.1039

> <Gold.PLP.part.repulsive>
0.2002

> <Gold.PLP.ligand.clash>
0.0000

> <Gold.PLP.ligand.torsion>
1.3946

> <Gold.PLP.Chemscore.Hbond>
2.0000

> <Gold.PLP.Chemscore.CHOScore>
1.6475

> <Gold.PLP.Chemscore.Metal>
0.0000

> <Gold.Chemscore.Hbonds>
donor molecule, donor type, donor heavy atom, donor atom, acceptor molecule, acceptor atom, score
      L1  H     9    28       P1  8028  0.96
      P1  H  7989  7998       L1     7  1.00
      L1  C     3    21       P1  8028  0.90
      L1  C    16    38       P1  7957  0.72

> <Gold.PLP.Chemscore.Internal.Correction>
0.0292

> <Gold.Rescore>
     Score         DG    S(hbond)    S(metal)    S(lipo)     H(rot)  DE(clash)    DE(int)     intcor
     16.46     -18.69       1.76        0.00     105.03       1.93       0.89       1.35       ----

> <Gold.Chemscore.Fitness>
16.4581

> <Gold.Chemscore.DG>
-18.6923

> <Gold.Chemscore.ZeroCoef>
-5.4800

> <Gold.Chemscore.Hbond>
1.7582

> <Gold.Chemscore.Metal>
0.0000

> <Gold.Chemscore.Lipo>
105.0265

> <Gold.Chemscore.Internal_Hbond>
0.0000

> <Gold.Chemscore.DEClash>
0.8858

> <Gold.Chemscore.DEInternal>
1.3485

> <Gold.Chemscore.Rot>
1.9329

> <Gold.Chemscore.Internal.Correction>
   9.000000E+99

> <Gold.Chemscore.Hbonds>
donor molecule, donor type, donor heavy atom, donor atom, acceptor molecule, acceptor atom, score
      L1  H     9    28       P1  8028  0.91
      P1  H  7989  7998       L1     7  0.88

> <Gold.Chemscore.Hbond.Weighted>
-5.8725

> <Gold.Chemscore.Metal.Weighted>
-0.0000

> <Gold.Chemscore.Lipo.Weighted>
-12.2881

> <Gold.Chemscore.Internal_Hbond.Weighted>
0.0000

> <Gold.Chemscore.DEClash.Weighted>
0.8858

> <Gold.Chemscore.DEInternal.Weighted>
1.3485

> <Gold.Chemscore.Rot.Weighted>
4.9483

> <Gold.Chemscore.Internal.Correction.Weighted>
   9.000000E+99

> <Gold.Protein.RotatedTorsions>
[ 6907 6896 6895 6894 ] final  -46.71 input  -60.11 | X-H torsion
[ 7974 7965 7964 7962 ] final -129.41 input  175.53 | X-H torsion
[ 8008 7997 7996 7995 ] final   53.94 input   59.86 | X-H torsion
[ 10167 10162 10161 10158 ] final -137.45 input  -65.29 | X-H torsion
[ 10718 10713 10712 10709 ] final   54.01 input   66.30 | X-H torsion
[ 10763 10752 10751 10750 ] final  -94.59 input  -60.55 | X-H torsion
[ 11005 11000 10999 10996 ] final  -62.24 input  -57.11 | X-H torsion

> <Gold.Protein.ActiveResidues>
 VAL166  LYS551  ARG553  GLY616  TRP617  ASP618  TYR619  PRO620  LYS621  CYS622 
 ASP623  PHE694  ASN695  SER759  ASP760  ASP761  ALA762  ILE779  LEU786  VAL792 
 PHE793  MET794  SER795  GLU796  ALA797  LYS798  CYS799  TRP800  GLU811  SER814 

> <Gold.Protein.RotatedAtoms>
  150.9083  134.8499  159.7407 H   0  0  0  0  0  0  0  0  0  0  0  0  # atno 6907 bound_to 6896
  152.4931  134.4397  159.9549 H   0  0  0  0  0  0  0  0  0  0  0  0  # atno 6908 bound_to 6896
  151.4442  133.3596  159.2821 H   0  0  0  0  0  0  0  0  0  0  0  0  # atno 6909 bound_to 6896
  144.9574  140.7411  143.4750 H   0  0  0  0  0  0  0  0  0  0  0  0  # atno 7974 bound_to 7965
  155.4766  140.3467  155.4333 H   0  0  0  0  0  0  0  0  0  0  0  0  # atno 8008 bound_to 7997
  156.1066  140.1449  156.9424 H   0  0  0  0  0  0  0  0  0  0  0  0  # atno 8009 bound_to 7997
  154.4728  140.0895  156.7167 H   0  0  0  0  0  0  0  0  0  0  0  0  # atno 8010 bound_to 7997
  139.8576  143.7118  152.2653 H   0  0  0  0  0  0  0  0  0  0  0  0  # atno 10167 bound_to 10162
  157.5218  130.8570  149.8569 H   0  0  0  0  0  0  0  0  0  0  0  0  # atno 10718 bound_to 10713
  154.7069  135.5152  153.8608 H   0  0  0  0  0  0  0  0  0  0  0  0  # atno 10763 bound_to 10752
  153.0748  135.6613  154.0177 H   0  0  0  0  0  0  0  0  0  0  0  0  # atno 10764 bound_to 10752
  154.0026  135.3009  155.3380 H   0  0  0  0  0  0  0  0  0  0  0  0  # atno 10765 bound_to 10752
  141.1353  133.6638  156.5498 H   0  0  0  0  0  0  0  0  0  0  0  0  # atno 11005 bound_to 11000
  145.2751  139.1939  143.4821 LP  0  0  0  0  0  0  0  0  0  0  0  0  # atno 17320 bound_to 7965
  146.3342  140.2704  142.8605 LP  0  0  0  0  0  0  0  0  0  0  0  0  # atno 17321 bound_to 7965
  139.7405  144.7561  151.0661 LP  0  0  0  0  0  0  0  0  0  0  0  0  # atno 17342 bound_to 10162
  140.7779  143.4979  150.9809 LP  0  0  0  0  0  0  0  0  0  0  0  0  # atno 17343 bound_to 10162
  156.0359  130.3751  150.1562 LP  0  0  0  0  0  0  0  0  0  0  0  0  # atno 17370 bound_to 10713
  156.9750  130.9846  151.3450 LP  0  0  0  0  0  0  0  0  0  0  0  0  # atno 17371 bound_to 10713
  140.4073  134.7303  157.4815 LP  0  0  0  0  0  0  0  0  0  0  0  0  # atno 17394 bound_to 11000
  140.0453  134.6209  155.8929 LP  0  0  0  0  0  0  0  0  0  0  0  0  # atno 17395 bound_to 11000

$$$$
