AV-unprocessed.smi:34|AV-procd|sdf|221|dock8
  -GOLD-   2262015543D 1   1.00000     0.00000
 Structure written by MMmdl.
 55 59  0  0  0  0  0  0  0  0  1 V2000
  152.4551  139.4700  158.7661 O   0  0  0  0  0  0  0  0  0  0  0  0
  152.0058  140.4855  158.2341 C   0  0  0  0  0  0  0  0  0  0  0  0
  151.4106  140.4652  156.9093 N   0  0  0  0  0  0  0  0  0  0  0  0
  151.1662  139.3935  156.1186 C   0  0  0  0  0  0  0  0  0  0  0  0
  151.2416  139.4550  154.7630 N   0  0  0  0  0  0  0  0  0  0  0  0
  150.9989  138.3676  154.0254 C   0  0  0  0  0  0  0  0  0  0  0  0
  150.6717  137.1402  154.4332 N   0  0  0  0  0  0  0  0  0  0  0  0
  150.5932  137.0697  155.7933 C   0  0  0  0  0  0  0  0  0  0  0  0
  150.8239  138.1436  156.6976 C   0  0  0  0  0  0  0  0  0  0  0  0
  150.6566  137.7021  158.0038 N   0  0  0  0  0  0  0  0  0  0  0  0
  150.3472  136.4396  157.8740 C   0  0  0  0  0  0  0  0  0  0  0  0
  150.2847  135.9776  156.5782 N   0  0  0  0  0  0  0  0  0  0  0  0
  149.9678  134.5937  156.1158 C   0  0  2  0  0  0  0  0  0  0  0  0
  150.1401  133.7331  157.1966 O   0  0  0  0  0  0  0  0  0  0  0  0
  150.5946  132.4835  156.7028 C   0  0  2  0  0  0  0  0  0  0  0  0
  151.2306  131.6507  157.8223 C   0  0  0  0  0  0  0  0  0  0  0  0
  151.2611  132.4188  159.0139 O   0  0  0  0  0  0  0  0  0  0  0  0
  150.5689  132.0123  160.0959 C   0  0  0  0  0  0  0  0  0  0  0  0
  150.1501  130.8626  160.2457 O   0  0  0  0  0  0  0  0  0  0  0  0
  150.3608  133.1009  161.0942 C   0  0  0  0  0  0  0  0  0  0  0  0
  150.2954  134.4433  160.6527 C   0  0  0  0  0  0  0  0  0  0  0  0
  150.0981  135.4920  161.5719 C   0  0  0  0  0  0  0  0  0  0  0  0
  149.9628  135.2111  162.9440 C   0  0  0  0  0  0  0  0  0  0  0  0
  150.0254  133.8802  163.3959 C   0  0  0  0  0  0  0  0  0  0  0  0
  150.2232  132.8301  162.4782 C   0  0  0  0  0  0  0  0  0  0  0  0
  151.5600  132.8828  155.5845 C   0  0  2  0  0  0  0  0  0  0  0  0
  152.7650  133.1760  156.0758 F   0  0  0  0  0  0  0  0  0  0  0  0
  150.9291  134.1425  155.0009 C   0  0  1  0  0  0  0  0  0  0  0  0
  150.2407  133.8219  153.8087 O   0  0  0  0  0  0  0  0  0  0  0  0
  152.1226  141.8339  158.8841 C   0  0  0  0  0  0  0  0  0  0  0  0
  151.4144  142.9368  158.3558 C   0  0  0  0  0  0  0  0  0  0  0  0
  151.5311  144.2095  158.9483 C   0  0  0  0  0  0  0  0  0  0  0  0
  152.3619  144.3917  160.0699 C   0  0  0  0  0  0  0  0  0  0  0  0
  153.0807  143.3014  160.5953 C   0  0  0  0  0  0  0  0  0  0  0  0
  152.9654  142.0284  160.0035 C   0  0  0  0  0  0  0  0  0  0  0  0
  151.1205  141.3597  156.5422 H   0  0  0  0  0  0  0  0  0  0  0  0
  151.0787  138.4999  152.9566 H   0  0  0  0  0  0  0  0  0  0  0  0
  150.1547  135.8056  158.7275 H   0  0  0  0  0  0  0  0  0  0  0  0
  148.9210  134.6241  155.8091 H   0  0  0  0  0  0  0  0  0  0  0  0
  149.7479  131.9493  156.2675 H   0  0  0  0  0  0  0  0  0  0  0  0
  150.6400  130.7503  157.9961 H   0  0  0  0  0  0  0  0  0  0  0  0
  152.2374  131.3375  157.5419 H   0  0  0  0  0  0  0  0  0  0  0  0
  150.3966  134.6835  159.6040 H   0  0  0  0  0  0  0  0  0  0  0  0
  150.0506  136.5132  161.2231 H   0  0  0  0  0  0  0  0  0  0  0  0
  149.8113  136.0153  163.6489 H   0  0  0  0  0  0  0  0  0  0  0  0
  149.9210  133.6632  164.4488 H   0  0  0  0  0  0  0  0  0  0  0  0
  150.2646  131.8199  162.8586 H   0  0  0  0  0  0  0  0  0  0  0  0
  151.7095  132.0861  154.8546 H   0  0  0  0  0  0  0  0  0  0  0  0
  151.6765  134.9085  154.7875 H   0  0  0  0  0  0  0  0  0  0  0  0
  149.6776  134.5468  153.5841 H   0  0  0  0  0  0  0  0  0  0  0  0
  150.7734  142.8142  157.4944 H   0  0  0  0  0  0  0  0  0  0  0  0
  150.9833  145.0463  158.5408 H   0  0  0  0  0  0  0  0  0  0  0  0
  152.4512  145.3674  160.5242 H   0  0  0  0  0  0  0  0  0  0  0  0
  153.7237  143.4423  161.4517 H   0  0  0  0  0  0  0  0  0  0  0  0
  153.5343  141.2082  160.4171 H   0  0  0  0  0  0  0  0  0  0  0  0
  1  2  2  0  0  0  0
  2  3  1  0  0  0  0
  2 30  1  0  0  0  0
  3  4  1  0  0  0  0
  3 36  1  0  0  0  0
  4  9  1  0  0  0  0
  4  5  2  0  0  0  0
  5  6  1  0  0  0  0
  6  7  2  0  0  0  0
  6 37  1  0  0  0  0
  7  8  1  0  0  0  0
  8 12  1  0  0  0  0
  8  9  2  0  0  0  0
  9 10  1  0  0  0  0
 10 11  2  0  0  0  0
 11 12  1  0  0  0  0
 11 38  1  0  0  0  0
 12 13  1  0  0  0  0
 13 28  1  0  0  0  0
 13 14  1  0  0  0  0
 13 39  1  0  0  0  0
 14 15  1  0  0  0  0
 15 16  1  0  0  0  0
 15 26  1  0  0  0  0
 15 40  1  0  0  0  0
 16 17  1  0  0  0  0
 16 41  1  0  0  0  0
 16 42  1  0  0  0  0
 17 18  1  0  0  0  0
 18 19  2  0  0  0  0
 18 20  1  0  0  0  0
 20 25  1  0  0  0  0
 20 21  2  0  0  0  0
 21 22  1  0  0  0  0
 21 43  1  0  0  0  0
 22 23  2  0  0  0  0
 22 44  1  0  0  0  0
 23 24  1  0  0  0  0
 23 45  1  0  0  0  0
 24 25  2  0  0  0  0
 24 46  1  0  0  0  0
 25 47  1  0  0  0  0
 26 27  1  0  0  0  0
 26 28  1  0  0  0  0
 26 48  1  0  0  0  0
 28 29  1  0  0  0  0
 28 49  1  0  0  0  0
 29 50  1  0  0  0  0
 30 35  1  0  0  0  0
 30 31  2  0  0  0  0
 31 32  1  0  0  0  0
 31 51  1  0  0  0  0
 32 33  2  0  0  0  0
 32 52  1  0  0  0  0
 33 34  1  0  0  0  0
 33 53  1  0  0  0  0
 34 35  2  0  0  0  0
 34 54  1  0  0  0  0
 35 55  1  0  0  0  0
M  END
> <s_m_source_file>
AV-unprocessed.smi

> <i_m_source_file_index>
34

> <i_lp_mmshare_version>
43012

> <i_f3d_flags>
0

> <s_epik_input>
W2NIXTFbY0hdW2NIXVtjSF1bY0hdYzFDKD1PKVtOSF1jKG5bY0hdbjIpYyhjMjMpbltjSF1uM1tDQEBIXTRPW0NASF0oW0NAQEhdKEYpW0NASF00W09IXSlbQ0gyXU9DKD1PKWM1W2NIXVtjSF1bY0hdW2NIXVtjSF01

> <s_epik_cmdline>
J2VwaWtfcHl0aG9uJywgJy1waCcsICc3LjAnLCAnLXRuJywgJzgnLCAnLW1hJywgJzIwMCcsICctbWV0YWxfYmluZGluZycsICctaW1hZScsICc8aW5maWxlLm1hZT4nLCAnLW9tYWUnLCAnPG91dGZpbGUubWFlPic=

> <r_lp_tautomer_probability>
1

> <r_epik_Ionization_Penalty>
0.00257489

> <r_epik_Ionization_Penalty_Charging>
0

> <r_epik_Ionization_Penalty_Neutral>
0.00257489

> <r_epik_State_Penalty>
0.00519398

> <r_epik_Charging_Adjusted_Penalty>
0.00519398

> <i_epik_Tot_Q>
0

> <i_epik_Tot_abs_Q>
0

> <r_epik_Metal_State_Penalty>
0.335891

> <b_epik_Metal_Only>
0

> <s_epik_Chemistry_Notes>
This compound has an ester and may undergo hydrolysis at high or low pH. This compound contains an acetal/aminal-like group ( X-CH(R)-Y where X, Y are N, S, or O) that may be acid/base labile, releasing an aldehyde.

> <s_lp_Force_Field>
OPLS_2005

> <r_lp_Energy>
45.7986

> <b_lp_Chiralities_Consistent>
1

> <s_lp_Variant>
AV-unprocessed.smi:34-7

> <Gold.Version>
5.8.1

> <Gold.Id.Protein>
6NUR|6NUR_protein|mol2

> <Gold.PLP.Fitness>
57.9886

> <Gold.PLP.PLP>
-56.0163

> <Gold.PLP.part.hbond>
-3.0000

> <Gold.PLP.part.metal>
0.0000

> <Gold.PLP.part.buried>
-8.1112

> <Gold.PLP.part.nonpolar>
-46.7236

> <Gold.PLP.part.repulsive>
1.0893

> <Gold.PLP.ligand.clash>
0.0000

> <Gold.PLP.ligand.torsion>
2.4463

> <Gold.PLP.Chemscore.Hbond>
1.9424

> <Gold.PLP.Chemscore.CHOScore>
0.2941

> <Gold.PLP.Chemscore.Metal>
0.0000

> <Gold.Chemscore.Hbonds>
donor molecule, donor type, donor heavy atom, donor atom, acceptor molecule, acceptor atom, score
      P1  H  6896  6908       L1    14  0.57
      P1  H  7989  7998       L1     5  1.00
      L1  C     6    37       P1  7949  0.05
      L1  C     6    37       P1  7957  0.27

> <Gold.PLP.Chemscore.Internal.Correction>
0.1553

> <Gold.Rescore>
     Score         DG    S(hbond)    S(metal)    S(lipo)     H(rot)  DE(clash)    DE(int)     intcor
     10.54     -16.49       0.83        0.00     130.05       2.72       1.20       4.75       ----

> <Gold.Chemscore.Fitness>
10.5422

> <Gold.Chemscore.DG>
-16.4913

> <Gold.Chemscore.ZeroCoef>
-5.4800

> <Gold.Chemscore.Hbond>
0.8272

> <Gold.Chemscore.Metal>
0.0000

> <Gold.Chemscore.Lipo>
130.0475

> <Gold.Chemscore.Internal_Hbond>
0.0000

> <Gold.Chemscore.DEClash>
1.1962

> <Gold.Chemscore.DEInternal>
4.7529

> <Gold.Chemscore.Rot>
2.7215

> <Gold.Chemscore.Internal.Correction>
   9.000000E+99

> <Gold.Chemscore.Hbonds>
donor molecule, donor type, donor heavy atom, donor atom, acceptor molecule, acceptor atom, score
      P1  H  6896  6908       L1    14  0.38
      P1  H  7989  7998       L1     5  0.50

> <Gold.Chemscore.Hbond.Weighted>
-2.7628

> <Gold.Chemscore.Metal.Weighted>
-0.0000

> <Gold.Chemscore.Lipo.Weighted>
-15.2156

> <Gold.Chemscore.Internal_Hbond.Weighted>
0.0000

> <Gold.Chemscore.DEClash.Weighted>
1.1962

> <Gold.Chemscore.DEInternal.Weighted>
4.7529

> <Gold.Chemscore.Rot.Weighted>
6.9670

> <Gold.Chemscore.Internal.Correction.Weighted>
   9.000000E+99

> <Gold.Protein.RotatedTorsions>
[ 6907 6896 6895 6894 ] final  129.75 input  -60.11 | X-H torsion
[ 7974 7965 7964 7962 ] final  176.59 input  175.53 | X-H torsion
[ 8008 7997 7996 7995 ] final  -26.03 input   59.86 | X-H torsion
[ 10167 10162 10161 10158 ] final   22.49 input  -65.29 | X-H torsion
[ 10718 10713 10712 10709 ] final -118.95 input   66.30 | X-H torsion
[ 10763 10752 10751 10750 ] final -109.07 input  -60.55 | X-H torsion
[ 11005 11000 10999 10996 ] final -136.07 input  -57.11 | X-H torsion

> <Gold.Protein.ActiveResidues>
 VAL166  LYS551  ARG553  GLY616  TRP617  ASP618  TYR619  PRO620  LYS621  CYS622 
 ASP623  PHE694  ASN695  SER759  ASP760  ASP761  ALA762  ILE779  LEU786  VAL792 
 PHE793  MET794  SER795  GLU796  ALA797  LYS798  CYS799  TRP800  GLU811  SER814 

> <Gold.Protein.RotatedAtoms>
  152.3593  133.6277  159.6002 H   0  0  0  0  0  0  0  0  0  0  0  0  # atno 6907 bound_to 6896
  150.7590  133.9449  159.3476 H   0  0  0  0  0  0  0  0  0  0  0  0  # atno 6908 bound_to 6896
  151.7289  135.0880  160.0348 H   0  0  0  0  0  0  0  0  0  0  0  0  # atno 6909 bound_to 6896
  144.7182  140.0119  143.6440 H   0  0  0  0  0  0  0  0  0  0  0  0  # atno 7974 bound_to 7965
  154.4445  140.1910  156.0712 H   0  0  0  0  0  0  0  0  0  0  0  0  # atno 8008 bound_to 7997
  156.0509  140.3308  155.7324 H   0  0  0  0  0  0  0  0  0  0  0  0  # atno 8009 bound_to 7997
  155.5558  140.0599  157.2831 H   0  0  0  0  0  0  0  0  0  0  0  0  # atno 8010 bound_to 7997
  140.5344  143.9786  150.6483 H   0  0  0  0  0  0  0  0  0  0  0  0  # atno 10167 bound_to 10162
  156.1145  130.6275  150.9356 H   0  0  0  0  0  0  0  0  0  0  0  0  # atno 10718 bound_to 10713
  154.8172  135.4614  154.0677 H   0  0  0  0  0  0  0  0  0  0  0  0  # atno 10763 bound_to 10752
  153.2060  135.6875  153.8179 H   0  0  0  0  0  0  0  0  0  0  0  0  # atno 10764 bound_to 10752
  153.7647  135.3279  155.3319 H   0  0  0  0  0  0  0  0  0  0  0  0  # atno 10765 bound_to 10752
  140.8839  134.1897  157.4573 H   0  0  0  0  0  0  0  0  0  0  0  0  # atno 11005 bound_to 11000
  146.0251  139.3285  143.0789 LP  0  0  0  0  0  0  0  0  0  0  0  0  # atno 17320 bound_to 7965
  145.8521  140.9523  143.0744 LP  0  0  0  0  0  0  0  0  0  0  0  0  # atno 17321 bound_to 7965
  140.3170  143.3162  152.0823 LP  0  0  0  0  0  0  0  0  0  0  0  0  # atno 17342 bound_to 10162
  139.4965  144.6599  151.6488 LP  0  0  0  0  0  0  0  0  0  0  0  0  # atno 17343 bound_to 10162
  157.6327  131.0919  150.8409 LP  0  0  0  0  0  0  0  0  0  0  0  0  # atno 17370 bound_to 10713
  156.8514  130.5082  149.5311 LP  0  0  0  0  0  0  0  0  0  0  0  0  # atno 17371 bound_to 10713
  139.8722  134.9829  156.5177 LP  0  0  0  0  0  0  0  0  0  0  0  0  # atno 17394 bound_to 11000
  140.8428  133.8192  155.9092 LP  0  0  0  0  0  0  0  0  0  0  0  0  # atno 17395 bound_to 11000

$$$$
