AV-unprocessed.smi:589|AV-procd|sdf|3005|dock5
  -GOLD-   2262023513D 1   1.00000     0.00000
 Structure written by MMmdl.
 40 41  0  0  0  0  0  0  0  0  1 V2000
  151.7138  145.6115  160.1010 C   0  0  0  0  0  0  0  0  0  0  0  0
  151.9259  144.1598  159.7259 C   0  0  0  0  0  0  0  0  0  0  0  0
  153.0996  143.4794  160.0952 C   0  0  0  0  0  0  0  0  0  0  0  0
  153.2471  142.1264  159.7278 C   0  0  0  0  0  0  0  0  0  0  0  0
  154.5041  141.3927  160.1724 C   0  0  0  0  0  0  0  0  0  0  0  0
  152.2080  141.5005  158.9813 C   0  0  0  0  0  0  0  0  0  0  0  0
  152.2991  140.0536  158.5635 C   0  0  0  0  0  0  0  0  0  0  0  0
  151.1512  139.3703  158.5646 N   0  0  0  0  0  0  0  0  0  0  0  0
  153.3763  139.5359  158.2740 O   0  0  0  0  0  0  0  0  0  0  0  0
  151.0549  142.2787  158.6707 C   0  0  0  0  0  0  0  0  0  0  0  0
  149.9865  141.7323  157.9378 N   0  0  0  0  0  0  0  0  0  0  0  0
  150.3138  141.4323  156.5510 C   0  0  0  0  0  0  0  0  0  0  0  0
  149.1458  140.6768  155.8885 C   0  0  2  0  0  0  0  0  0  0  0  0
  149.3909  140.4301  154.3963 C   0  0  0  0  0  0  0  0  0  0  0  0
  147.9529  141.4471  156.0244 O   0  0  0  0  0  0  0  0  0  0  0  0
  147.5969  141.6755  157.3869 C   0  0  2  0  0  0  0  0  0  0  0  0
  146.2698  142.4399  157.4178 C   0  0  0  0  0  0  0  0  0  0  0  0
  148.7304  142.4569  158.0763 C   0  0  0  0  0  0  0  0  0  0  0  0
  150.9282  143.5774  159.0339 N   0  0  0  0  0  0  0  0  0  0  0  0
  152.5477  145.9947  160.6898 H   0  0  0  0  0  0  0  0  0  0  0  0
  150.8033  145.7214  160.6906 H   0  0  0  0  0  0  0  0  0  0  0  0
  151.6194  146.2248  159.2045 H   0  0  0  0  0  0  0  0  0  0  0  0
  153.8697  143.9847  160.6597 H   0  0  0  0  0  0  0  0  0  0  0  0
  154.2600  140.4204  160.6015 H   0  0  0  0  0  0  0  0  0  0  0  0
  155.0409  141.9597  160.9335 H   0  0  0  0  0  0  0  0  0  0  0  0
  155.1791  141.2453  159.3294 H   0  0  0  0  0  0  0  0  0  0  0  0
  151.1432  138.3989  158.2903 H   0  0  0  0  0  0  0  0  0  0  0  0
  150.2945  139.8310  158.8356 H   0  0  0  0  0  0  0  0  0  0  0  0
  150.5140  142.3605  156.0138 H   0  0  0  0  0  0  0  0  0  0  0  0
  151.2231  140.8311  156.5092 H   0  0  0  0  0  0  0  0  0  0  0  0
  149.0061  139.7132  156.3820 H   0  0  0  0  0  0  0  0  0  0  0  0
  150.2909  139.8351  154.2398 H   0  0  0  0  0  0  0  0  0  0  0  0
  149.5115  141.3693  153.8560 H   0  0  0  0  0  0  0  0  0  0  0  0
  148.5550  139.8928  153.9478 H   0  0  0  0  0  0  0  0  0  0  0  0
  147.4572  140.7147  157.8860 H   0  0  0  0  0  0  0  0  0  0  0  0
  145.9524  142.6320  158.4430 H   0  0  0  0  0  0  0  0  0  0  0  0
  145.4803  141.8706  156.9265 H   0  0  0  0  0  0  0  0  0  0  0  0
  146.3557  143.3999  156.9081 H   0  0  0  0  0  0  0  0  0  0  0  0
  148.5029  142.5968  159.1339 H   0  0  0  0  0  0  0  0  0  0  0  0
  148.8252  143.4479  157.6303 H   0  0  0  0  0  0  0  0  0  0  0  0
  1  2  1  0  0  0  0
  1 20  1  0  0  0  0
  1 21  1  0  0  0  0
  1 22  1  0  0  0  0
  2 19  1  0  0  0  0
  2  3  2  0  0  0  0
  3  4  1  0  0  0  0
  3 23  1  0  0  0  0
  4  5  1  0  0  0  0
  4  6  2  0  0  0  0
  5 24  1  0  0  0  0
  5 25  1  0  0  0  0
  5 26  1  0  0  0  0
  6  7  1  0  0  0  0
  6 10  1  0  0  0  0
  7  8  1  0  0  0  0
  7  9  2  0  0  0  0
  8 27  1  0  0  0  0
  8 28  1  0  0  0  0
 10 11  1  0  0  0  0
 10 19  2  0  0  0  0
 11 18  1  0  0  0  0
 11 12  1  0  0  0  0
 12 13  1  0  0  0  0
 12 29  1  0  0  0  0
 12 30  1  0  0  0  0
 13 14  1  0  0  0  0
 13 15  1  0  0  0  0
 13 31  1  0  0  0  0
 14 32  1  0  0  0  0
 14 33  1  0  0  0  0
 14 34  1  0  0  0  0
 15 16  1  0  0  0  0
 16 17  1  0  0  0  0
 16 18  1  0  0  0  0
 16 35  1  0  0  0  0
 17 36  1  0  0  0  0
 17 37  1  0  0  0  0
 17 38  1  0  0  0  0
 18 39  1  0  0  0  0
 18 40  1  0  0  0  0
M  END
> <s_m_source_file>
AV-unprocessed.smi

> <i_m_source_file_index>
589

> <i_lp_mmshare_version>
43012

> <i_f3d_flags>
0

> <s_epik_input>
W0NIM11jMVtjSF1jKFtDSDNdKWMoQyg9TylbTkgyXSljKG4xKU4yW0NIMl1bQ0BASF0oW0NIM10pT1tDQEBIXShbQ0gzXSlbQ0gyXTI=

> <s_epik_cmdline>
J2VwaWtfcHl0aG9uJywgJy1waCcsICc3LjAnLCAnLXRuJywgJzgnLCAnLW1hJywgJzIwMCcsICctbWV0YWxfYmluZGluZycsICctaW1hZScsICc8aW5maWxlLm1hZT4nLCAnLW9tYWUnLCAnPG91dGZpbGUubWFlPic=

> <r_lp_tautomer_probability>
1

> <r_epik_Ionization_Penalty>
0.000626871

> <r_epik_Ionization_Penalty_Charging>
0

> <r_epik_Ionization_Penalty_Neutral>
0.000626871

> <r_epik_State_Penalty>
0.000395665

> <r_epik_Charging_Adjusted_Penalty>
0.000395665

> <i_epik_Tot_Q>
0

> <i_epik_Tot_abs_Q>
0

> <r_epik_Metal_State_Penalty>
-0

> <b_epik_Metal_Only>
0

> <s_lp_Force_Field>
OPLS_2005

> <r_lp_Energy>
24.7039

> <b_lp_Chiralities_Consistent>
1

> <s_lp_Variant>
AV-unprocessed.smi:589-1

> <Gold.Version>
5.8.1

> <Gold.Id.Protein>
6NUR|6NUR_protein|mol2

> <Gold.PLP.Fitness>
37.5146

> <Gold.PLP.PLP>
-35.8430

> <Gold.PLP.part.hbond>
-1.0000

> <Gold.PLP.part.metal>
0.0000

> <Gold.PLP.part.buried>
-5.1342

> <Gold.PLP.part.nonpolar>
-29.8565

> <Gold.PLP.part.repulsive>
0.3928

> <Gold.PLP.ligand.clash>
0.0000

> <Gold.PLP.ligand.torsion>
0.8192

> <Gold.PLP.Chemscore.Hbond>
0.9920

> <Gold.PLP.Chemscore.CHOScore>
0.0000

> <Gold.PLP.Chemscore.Metal>
0.0000

> <Gold.Chemscore.Hbonds>
donor molecule, donor type, donor heavy atom, donor atom, acceptor molecule, acceptor atom, score
      P1  H  7997  8009       L1     9  0.99

> <Gold.PLP.Chemscore.Internal.Correction>
0.3340

> <Gold.Rescore>
     Score         DG    S(hbond)    S(metal)    S(lipo)     H(rot)  DE(clash)    DE(int)     intcor
     12.93     -16.59       0.98        0.00      89.03       1.00       0.01       3.65       ----

> <Gold.Chemscore.Fitness>
12.9350

> <Gold.Chemscore.DG>
-16.5950

> <Gold.Chemscore.ZeroCoef>
-5.4800

> <Gold.Chemscore.Hbond>
0.9754

> <Gold.Chemscore.Metal>
0.0000

> <Gold.Chemscore.Lipo>
89.0350

> <Gold.Chemscore.Internal_Hbond>
0.0000

> <Gold.Chemscore.DEClash>
0.0098

> <Gold.Chemscore.DEInternal>
3.6502

> <Gold.Chemscore.Rot>
1.0000

> <Gold.Chemscore.Internal.Correction>
   9.000000E+99

> <Gold.Chemscore.Hbonds>
donor molecule, donor type, donor heavy atom, donor atom, acceptor molecule, acceptor atom, score
      P1  H  7997  8009       L1     9  0.94

> <Gold.Chemscore.Hbond.Weighted>
-3.2579

> <Gold.Chemscore.Metal.Weighted>
-0.0000

> <Gold.Chemscore.Lipo.Weighted>
-10.4171

> <Gold.Chemscore.Internal_Hbond.Weighted>
0.0000

> <Gold.Chemscore.DEClash.Weighted>
0.0098

> <Gold.Chemscore.DEInternal.Weighted>
3.6502

> <Gold.Chemscore.Rot.Weighted>
2.5600

> <Gold.Chemscore.Internal.Correction.Weighted>
   9.000000E+99

> <Gold.Protein.RotatedTorsions>
[ 6907 6896 6895 6894 ] final   18.13 input  -60.11 | X-H torsion
[ 7974 7965 7964 7962 ] final  -58.25 input  175.53 | X-H torsion
[ 8008 7997 7996 7995 ] final  132.26 input   59.86 | X-H torsion
[ 10167 10162 10161 10158 ] final -133.70 input  -65.29 | X-H torsion
[ 10718 10713 10712 10709 ] final  151.75 input   66.30 | X-H torsion
[ 10763 10752 10751 10750 ] final -138.00 input  -60.55 | X-H torsion
[ 11005 11000 10999 10996 ] final  112.24 input  -57.11 | X-H torsion

> <Gold.Protein.ActiveResidues>
 VAL166  LYS551  ARG553  GLY616  TRP617  ASP618  TYR619  PRO620  LYS621  CYS622 
 ASP623  PHE694  ASN695  SER759  ASP760  ASP761  ALA762  ILE779  LEU786  VAL792 
 PHE793  MET794  SER795  GLU796  ALA797  LYS798  CYS799  TRP800  GLU811  SER814 

> <Gold.Protein.RotatedAtoms>
  151.8604  135.0526  160.0468 H   0  0  0  0  0  0  0  0  0  0  0  0  # atno 6907 bound_to 6896
  152.2667  133.5341  159.5423 H   0  0  0  0  0  0  0  0  0  0  0  0  # atno 6908 bound_to 6896
  150.7136  134.0670  159.3893 H   0  0  0  0  0  0  0  0  0  0  0  0  # atno 6909 bound_to 6896
  145.8415  140.8414  143.0032 H   0  0  0  0  0  0  0  0  0  0  0  0  # atno 7974 bound_to 7965
  156.2980  140.2551  156.3060 H   0  0  0  0  0  0  0  0  0  0  0  0  # atno 8008 bound_to 7997
  154.9372  140.0397  157.2097 H   0  0  0  0  0  0  0  0  0  0  0  0  # atno 8009 bound_to 7997
  154.8161  140.2852  155.5823 H   0  0  0  0  0  0  0  0  0  0  0  0  # atno 8010 bound_to 7997
  139.8955  143.6670  152.2604 H   0  0  0  0  0  0  0  0  0  0  0  0  # atno 10167 bound_to 10162
  157.2667  131.0809  151.1628 H   0  0  0  0  0  0  0  0  0  0  0  0  # atno 10718 bound_to 10713
  154.8648  135.3625  154.5314 H   0  0  0  0  0  0  0  0  0  0  0  0  # atno 10763 bound_to 10752
  153.5939  135.7015  153.5416 H   0  0  0  0  0  0  0  0  0  0  0  0  # atno 10764 bound_to 10752
  153.3349  135.4114  155.1487 H   0  0  0  0  0  0  0  0  0  0  0  0  # atno 10765 bound_to 10752
  139.8923  134.9525  156.6556 H   0  0  0  0  0  0  0  0  0  0  0  0  # atno 11005 bound_to 11000
  144.6733  140.0819  143.7469 LP  0  0  0  0  0  0  0  0  0  0  0  0  # atno 17320 bound_to 7965
  145.9460  139.2701  143.1241 LP  0  0  0  0  0  0  0  0  0  0  0  0  # atno 17321 bound_to 7965
  139.7071  144.7626  151.1174 LP  0  0  0  0  0  0  0  0  0  0  0  0  # atno 17342 bound_to 10162
  140.7718  143.5380  150.9346 LP  0  0  0  0  0  0  0  0  0  0  0  0  # atno 17343 bound_to 10162
  157.3116  130.6892  149.6219 LP  0  0  0  0  0  0  0  0  0  0  0  0  # atno 17370 bound_to 10713
  155.9663  130.4362  150.5123 LP  0  0  0  0  0  0  0  0  0  0  0  0  # atno 17371 bound_to 10713
  140.7487  133.8916  155.8331 LP  0  0  0  0  0  0  0  0  0  0  0  0  # atno 17394 bound_to 11000
  141.0019  134.1139  157.4309 LP  0  0  0  0  0  0  0  0  0  0  0  0  # atno 17395 bound_to 11000

$$$$
