AV-unprocessed.smi:35|AV-procd|sdf|278|dock10
  -GOLD-   2262016 53D 1   1.00000     0.00000
 Structure written by MMmdl.
 28 29  0  0  0  0  0  0  0  0  2 V2000
  152.9022  140.9462  158.7008 O   0  0  0  0  0  0  0  0  0  0  0  0
  152.1132  140.9305  157.7580 C   0  0  0  0  0  0  0  0  0  0  0  0
  152.2750  140.1248  156.6694 N   0  5  0  0  0  0  0  0  0  0  0  0
  151.4029  140.1210  155.6188 C   0  0  0  0  0  0  0  0  0  0  0  0
  151.5348  139.3856  154.6401 O   0  0  0  0  0  0  0  0  0  0  0  0
  150.2865  141.0033  155.6431 N   0  0  0  0  0  0  0  0  0  0  0  0
  149.3229  140.9898  154.4685 C   0  0  1  0  0  0  0  0  0  0  0  0
  148.9153  139.6762  154.2130 O   0  0  0  0  0  0  0  0  0  0  0  0
  147.6557  139.4358  154.8335 C   0  0  2  0  0  0  0  0  0  0  0  0
  146.9784  138.1820  154.2546 C   0  0  0  0  0  0  0  0  0  0  0  0
  147.9149  137.1298  154.1652 O   0  0  0  0  0  0  0  0  0  0  0  0
  146.9278  140.7610  154.5894 C   0  0  2  0  0  0  0  0  0  0  0  0
  146.3905  140.7984  153.2767 O   0  0  0  0  0  0  0  0  0  0  0  0
  148.0414  141.7867  154.7998 C   0  0  2  0  0  0  0  0  0  0  0  0
  147.8755  142.9424  153.9999 O   0  0  0  0  0  0  0  0  0  0  0  0
  150.0815  141.8107  156.7519 C   0  0  0  0  0  0  0  0  0  0  0  0
  150.9441  141.8044  157.7880 C   0  0  0  0  0  0  0  0  0  0  0  0
  150.5268  143.0153  159.3002 Br  0  0  0  0  0  0  0  0  0  0  0  0
  149.8939  141.3717  153.6203 H   0  0  0  0  0  0  0  0  0  0  0  0
  147.7945  139.3199  155.9101 H   0  0  0  0  0  0  0  0  0  0  0  0
  146.1752  137.8512  154.9136 H   0  0  0  0  0  0  0  0  0  0  0  0
  146.5386  138.3801  153.2766 H   0  0  0  0  0  0  0  0  0  0  0  0
  148.2035  137.0650  153.2674 H   0  0  0  0  0  0  0  0  0  0  0  0
  146.1093  140.9088  155.2945 H   0  0  0  0  0  0  0  0  0  0  0  0
  145.4577  140.6565  153.3368 H   0  0  0  0  0  0  0  0  0  0  0  0
  148.0603  142.0813  155.8503 H   0  0  0  0  0  0  0  0  0  0  0  0
  148.1172  143.6947  154.5199 H   0  0  0  0  0  0  0  0  0  0  0  0
  149.2227  142.4611  156.8100 H   0  0  0  0  0  0  0  0  0  0  0  0
  1  2  2  0  0  0  0
  2 17  1  0  0  0  0
  2  3  1  0  0  0  0
  3  4  1  0  0  0  0
  4  5  2  0  0  0  0
  4  6  1  0  0  0  0
  6  7  1  0  0  0  0
  6 16  1  0  0  0  0
  7 14  1  0  0  0  0
  7  8  1  0  0  0  0
  7 19  1  0  0  0  0
  8  9  1  0  0  0  0
  9 10  1  0  0  0  0
  9 12  1  0  0  0  0
  9 20  1  0  0  0  0
 10 11  1  0  0  0  0
 10 21  1  0  0  0  0
 10 22  1  0  0  0  0
 11 23  1  0  0  0  0
 12 13  1  0  0  0  0
 12 14  1  0  0  0  0
 12 24  1  0  0  0  0
 13 25  1  0  0  0  0
 14 15  1  0  0  0  0
 14 26  1  0  0  0  0
 15 27  1  0  0  0  0
 16 17  2  0  0  0  0
 16 28  1  0  0  0  0
 17 18  1  0  0  0  0
M  CHG  1   3  -1
M  END
> <s_m_source_file>
AV-unprocessed.smi

> <i_m_source_file_index>
35

> <i_lp_mmshare_version>
43012

> <i_f3d_flags>
0

> <s_epik_input>
Tz1jMVtuSF1jKD1PKW4oW2NIXWMxQnIpW0NAQEhdMk9bQ0BASF0oW0NIMl1bT0hdKVtDQEBIXShbT0hdKVtDQEhdMltPSF0=

> <s_epik_cmdline>
J2VwaWtfcHl0aG9uJywgJy1waCcsICc3LjAnLCAnLXRuJywgJzgnLCAnLW1hJywgJzIwMCcsICctbWV0YWxfYmluZGluZycsICctaW1hZScsICc8aW5maWxlLm1hZT4nLCAnLW9tYWUnLCAnPG91dGZpbGUubWFlPic=

> <r_epik_Ionization_Penalty>
1.06112

> <r_epik_Ionization_Penalty_Charging>
2.1796e-09

> <r_epik_Ionization_Penalty_Neutral>
1.06112

> <r_epik_State_Penalty>
1.11484

> <r_epik_Charging_Adjusted_Penalty>
1.11484

> <i_epik_Tot_Q>
-1

> <i_epik_Tot_abs_Q>
1

> <r_epik_Metal_State_Penalty>
0.0032876

> <b_epik_Metal_Only>
0

> <s_epik_Chemistry_Notes>
This compound contains an acetal/aminal-like group ( X-CH(R)-Y where X, Y are N, S, or O) that may be acid/base labile, releasing an aldehyde.

> <s_lp_Force_Field>
OPLS_2005

> <r_lp_Energy>
41.3474

> <b_lp_Chiralities_Consistent>
1

> <s_lp_Variant>
AV-unprocessed.smi:35-32

> <Gold.Version>
5.8.1

> <Gold.Id.Protein>
6NUR|6NUR_protein|mol2

> <Gold.PLP.Fitness>
44.1568

> <Gold.PLP.PLP>
-25.3257

> <Gold.PLP.part.hbond>
-7.0000

> <Gold.PLP.part.metal>
0.0000

> <Gold.PLP.part.buried>
0.6972

> <Gold.PLP.part.nonpolar>
-18.5348

> <Gold.PLP.part.repulsive>
0.1922

> <Gold.PLP.ligand.clash>
0.0000

> <Gold.PLP.ligand.torsion>
0.2862

> <Gold.PLP.Chemscore.Hbond>
5.4612

> <Gold.PLP.Chemscore.CHOScore>
1.0000

> <Gold.PLP.Chemscore.Metal>
0.0000

> <Gold.Chemscore.Hbonds>
donor molecule, donor type, donor heavy atom, donor atom, acceptor molecule, acceptor atom, score
      L1  H    11    23       P1  7948  1.00
      L1  H    13    25       P1 10175  1.00
      L1  H    15    27       P1  8028  1.00
      P1  H  7989  7998       L1     5  0.60
      P1  H  7997  8008       L1     3  1.76
      L1  C    16    28       P1  8028  0.91

> <Gold.PLP.Chemscore.Internal.Correction>
0.0197

> <Gold.Rescore>
     Score         DG    S(hbond)    S(metal)    S(lipo)     H(rot)  DE(clash)    DE(int)     intcor
      9.07     -11.49       3.35        0.00      35.09       3.63       0.68       1.74       ----

> <Gold.Chemscore.Fitness>
9.0738

> <Gold.Chemscore.DG>
-11.4942

> <Gold.Chemscore.ZeroCoef>
-5.4800

> <Gold.Chemscore.Hbond>
3.3507

> <Gold.Chemscore.Metal>
0.0000

> <Gold.Chemscore.Lipo>
35.0902

> <Gold.Chemscore.Internal_Hbond>
0.0000

> <Gold.Chemscore.DEClash>
0.6799

> <Gold.Chemscore.DEInternal>
1.7405

> <Gold.Chemscore.Rot>
3.6261

> <Gold.Chemscore.Internal.Correction>
   9.000000E+99

> <Gold.Chemscore.Hbonds>
donor molecule, donor type, donor heavy atom, donor atom, acceptor molecule, acceptor atom, score
      L1  H    11    23       P1  7948  0.98
      L1  H    13    25       P1 10175  0.81
      L1  H    15    27       P1  8028  0.78
      P1  H  7989  7998       L1     5  0.04
      P1  H  7997  8008       L1     3  0.21

> <Gold.Chemscore.Hbond.Weighted>
-11.1914

> <Gold.Chemscore.Metal.Weighted>
-0.0000

> <Gold.Chemscore.Lipo.Weighted>
-4.1055

> <Gold.Chemscore.Internal_Hbond.Weighted>
0.0000

> <Gold.Chemscore.DEClash.Weighted>
0.6799

> <Gold.Chemscore.DEInternal.Weighted>
1.7405

> <Gold.Chemscore.Rot.Weighted>
9.2828

> <Gold.Chemscore.Internal.Correction.Weighted>
   9.000000E+99

> <Gold.Protein.RotatedTorsions>
[ 6907 6896 6895 6894 ] final -143.00 input  -60.11 | X-H torsion
[ 7974 7965 7964 7962 ] final -132.13 input  175.53 | X-H torsion
[ 8008 7997 7996 7995 ] final  -55.54 input   59.86 | X-H torsion
[ 10167 10162 10161 10158 ] final  -40.40 input  -65.29 | X-H torsion
[ 10718 10713 10712 10709 ] final -130.40 input   66.30 | X-H torsion
[ 10763 10752 10751 10750 ] final -139.34 input  -60.55 | X-H torsion
[ 11005 11000 10999 10996 ] final  156.27 input  -57.11 | X-H torsion

> <Gold.Protein.ActiveResidues>
 VAL166  LYS551  ARG553  GLY616  TRP617  ASP618  TYR619  PRO620  LYS621  CYS622 
 ASP623  PHE694  ASN695  SER759  ASP760  ASP761  ALA762  ILE779  LEU786  VAL792 
 PHE793  MET794  SER795  GLU796  ALA797  LYS798  CYS799  TRP800  GLU811  SER814 

> <Gold.Protein.RotatedAtoms>
  151.0946  133.5289  159.2612 H   0  0  0  0  0  0  0  0  0  0  0  0  # atno 6907 bound_to 6896
  151.2143  135.0493  159.8934 H   0  0  0  0  0  0  0  0  0  0  0  0  # atno 6908 bound_to 6896
  152.5437  134.0758  159.8267 H   0  0  0  0  0  0  0  0  0  0  0  0  # atno 6909 bound_to 6896
  144.9314  140.7133  143.4903 H   0  0  0  0  0  0  0  0  0  0  0  0  # atno 7974 bound_to 7965
  154.4198  140.1150  156.5493 H   0  0  0  0  0  0  0  0  0  0  0  0  # atno 8008 bound_to 7997
  155.6426  140.3496  155.4701 H   0  0  0  0  0  0  0  0  0  0  0  0  # atno 8009 bound_to 7997
  155.9858  140.1169  157.0674 H   0  0  0  0  0  0  0  0  0  0  0  0  # atno 8010 bound_to 7997
  140.7035  143.3155  151.2920 H   0  0  0  0  0  0  0  0  0  0  0  0  # atno 10167 bound_to 10162
  156.2141  130.6937  151.0683 H   0  0  0  0  0  0  0  0  0  0  0  0  # atno 10718 bound_to 10713
  154.8612  135.3585  154.5530 H   0  0  0  0  0  0  0  0  0  0  0  0  # atno 10763 bound_to 10752
  153.6148  135.7008  153.5338 H   0  0  0  0  0  0  0  0  0  0  0  0  # atno 10764 bound_to 10752
  153.3179  135.4160  155.1352 H   0  0  0  0  0  0  0  0  0  0  0  0  # atno 10765 bound_to 10752
  140.1659  134.8577  157.2632 H   0  0  0  0  0  0  0  0  0  0  0  0  # atno 11005 bound_to 11000
  145.3135  139.1811  143.4626 LP  0  0  0  0  0  0  0  0  0  0  0  0  # atno 17320 bound_to 7965
  146.3249  140.3143  142.8629 LP  0  0  0  0  0  0  0  0  0  0  0  0  # atno 17321 bound_to 7965
  139.6593  144.0219  152.2681 LP  0  0  0  0  0  0  0  0  0  0  0  0  # atno 17342 bound_to 10162
  139.9781  144.6447  150.7926 LP  0  0  0  0  0  0  0  0  0  0  0  0  # atno 17343 bound_to 10162
  157.7054  131.0758  150.6684 LP  0  0  0  0  0  0  0  0  0  0  0  0  # atno 17370 bound_to 10713
  156.6745  130.4549  149.5647 LP  0  0  0  0  0  0  0  0  0  0  0  0  # atno 17371 bound_to 10713
  140.2434  134.3768  155.7471 LP  0  0  0  0  0  0  0  0  0  0  0  0  # atno 17394 bound_to 11000
  141.2213  133.7277  156.8824 LP  0  0  0  0  0  0  0  0  0  0  0  0  # atno 17395 bound_to 11000

$$$$
