AV-unprocessed.smi:893|AV-procd|sdf|4070|dock3
  -GOLD-   22720 1553D 1   1.00000     0.00000
 Structure written by MMmdl.
 26 27  0  0  0  0  0  0  0  0  2 V2000
  151.8832  137.5979  159.0997 C   0  0  0  0  0  0  0  0  0  0  0  0
  152.2177  139.0688  159.4144 C   0  0  0  0  0  0  0  0  0  0  0  0
  151.8528  140.1109  158.3213 C   0  0  1  0  0  0  0  0  0  0  0  0
  152.0933  141.5230  158.8323 C   0  0  0  0  0  0  0  0  0  0  0  0
  152.6608  141.9151  160.0818 C   0  0  0  0  0  0  0  0  0  0  0  0
  152.7392  143.2271  160.2327 N   0  0  0  0  0  0  0  0  0  0  0  0
  152.2301  143.7240  159.0881 N   0  0  0  0  0  0  0  0  0  0  0  0
  152.1585  145.1571  158.9009 C   0  0  0  0  0  0  0  0  0  0  0  0
  151.8362  142.7239  158.2266 C   0  0  0  0  0  0  0  0  0  0  0  0
  152.5910  139.8425  157.0933 N   0  5  0  0  0  0  0  0  0  0  0  0
  151.7064  139.6553  156.0849 C   0  0  0  0  0  0  0  0  0  0  0  0
  151.9514  139.4230  154.9034 O   0  0  0  0  0  0  0  0  0  0  0  0
  150.4509  139.7508  156.5338 N   0  0  0  0  0  0  0  0  0  0  0  0
  150.4113  139.9966  157.8399 C   0  0  0  0  0  0  0  0  0  0  0  0
  149.4090  140.1078  158.5456 O   0  0  0  0  0  0  0  0  0  0  0  0
  152.2012  136.9504  159.9168 H   0  0  0  0  0  0  0  0  0  0  0  0
  152.3900  137.2565  158.1971 H   0  0  0  0  0  0  0  0  0  0  0  0
  150.8127  137.4458  158.9631 H   0  0  0  0  0  0  0  0  0  0  0  0
  151.7123  139.3320  160.3444 H   0  0  0  0  0  0  0  0  0  0  0  0
  153.2842  139.1424  159.6317 H   0  0  0  0  0  0  0  0  0  0  0  0
  153.0144  141.2821  160.8823 H   0  0  0  0  0  0  0  0  0  0  0  0
  151.7136  145.3856  157.9318 H   0  0  0  0  0  0  0  0  0  0  0  0
  153.1606  145.5851  158.9406 H   0  0  0  0  0  0  0  0  0  0  0  0
  151.5460  145.6022  159.6855 H   0  0  0  0  0  0  0  0  0  0  0  0
  151.4067  142.9445  157.2603 H   0  0  0  0  0  0  0  0  0  0  0  0
  149.6333  139.6347  155.9540 H   0  0  0  0  0  0  0  0  0  0  0  0
  1  2  1  0  0  0  0
  1 16  1  0  0  0  0
  1 17  1  0  0  0  0
  1 18  1  0  0  0  0
  2  3  1  0  0  0  0
  2 19  1  0  0  0  0
  2 20  1  0  0  0  0
  3 14  1  0  0  0  0
  3  4  1  0  0  0  0
  3 10  1  0  0  0  0
  4  9  2  0  0  0  0
  4  5  1  0  0  0  0
  5  6  2  0  0  0  0
  5 21  1  0  0  0  0
  6  7  1  0  0  0  0
  7  8  1  0  0  0  0
  7  9  1  0  0  0  0
  8 22  1  0  0  0  0
  8 23  1  0  0  0  0
  8 24  1  0  0  0  0
  9 25  1  0  0  0  0
 10 11  1  0  0  0  0
 11 12  2  0  0  0  0
 11 13  1  0  0  0  0
 13 14  1  0  0  0  0
 13 26  1  0  0  0  0
 14 15  2  0  0  0  0
M  CHG  1  10  -1
M  END
> <s_m_source_file>
AV-unprocessed.smi

> <i_m_source_file_index>
893

> <i_lp_mmshare_version>
43012

> <i_f3d_flags>
0

> <s_epik_input>
Tz1DMVtOSF1DKD1PKVtOSF1bQ0BAXTEoW0NIMl1bQ0gzXSljMltjSF1ubihbQ0gzXSlbY0hdMg==

> <s_epik_cmdline>
J2VwaWtfcHl0aG9uJywgJy1waCcsICc3LjAnLCAnLXRuJywgJzgnLCAnLW1hJywgJzIwMCcsICctbWV0YWxfYmluZGluZycsICctaW1hZScsICc8aW5maWxlLm1hZT4nLCAnLW9tYWUnLCAnPG91dGZpbGUubWFlPic=

> <r_lp_tautomer_probability>
1

> <r_epik_Ionization_Penalty>
4.97057

> <r_epik_Ionization_Penalty_Charging>
4.97009

> <r_epik_Ionization_Penalty_Neutral>
0.000472554

> <r_epik_State_Penalty>
4.98892

> <r_epik_Charging_Adjusted_Penalty>
9.95901

> <i_epik_Tot_Q>
-1

> <i_epik_Tot_abs_Q>
1

> <r_epik_Metal_State_Penalty>
1.41037

> <b_epik_Metal_Only>
1

> <s_lp_Force_Field>
OPLS_2005

> <r_lp_Energy>
9.72866

> <b_lp_Chiralities_Consistent>
1

> <s_lp_Variant>
AV-unprocessed.smi:893-5

> <Gold.Version>
5.8.1

> <Gold.Id.Protein>
6NUR|6NUR_protein|mol2

> <Gold.PLP.Fitness>
37.9300

> <Gold.PLP.PLP>
-29.3109

> <Gold.PLP.part.hbond>
-2.2370

> <Gold.PLP.part.metal>
0.0000

> <Gold.PLP.part.buried>
-4.8951

> <Gold.PLP.part.nonpolar>
-22.3829

> <Gold.PLP.part.repulsive>
0.1073

> <Gold.PLP.ligand.clash>
0.0000

> <Gold.PLP.ligand.torsion>
0.1263

> <Gold.PLP.Chemscore.Hbond>
2.9280

> <Gold.PLP.Chemscore.CHOScore>
0.0000

> <Gold.PLP.Chemscore.Metal>
0.0000

> <Gold.Chemscore.Hbonds>
donor molecule, donor type, donor heavy atom, donor atom, acceptor molecule, acceptor atom, score
      P1  H  7989  7998       L1    12  0.96
      P1  H  7997  8010       L1    10  2.00

> <Gold.PLP.Chemscore.Internal.Correction>
0.0877

> <Gold.Rescore>
     Score         DG    S(hbond)    S(metal)    S(lipo)     H(rot)  DE(clash)    DE(int)     intcor
     15.21     -15.41       1.97        0.00      56.64       1.28       0.09       0.11       ----

> <Gold.Chemscore.Fitness>
15.2107

> <Gold.Chemscore.DG>
-15.4125

> <Gold.Chemscore.ZeroCoef>
-5.4800

> <Gold.Chemscore.Hbond>
1.9713

> <Gold.Chemscore.Metal>
0.0000

> <Gold.Chemscore.Lipo>
56.6377

> <Gold.Chemscore.Internal_Hbond>
0.0000

> <Gold.Chemscore.DEClash>
0.0899

> <Gold.Chemscore.DEInternal>
0.1119

> <Gold.Chemscore.Rot>
1.2805

> <Gold.Chemscore.Internal.Correction>
   9.000000E+99

> <Gold.Chemscore.Hbonds>
donor molecule, donor type, donor heavy atom, donor atom, acceptor molecule, acceptor atom, score
      P1  H  7989  7998       L1    12  0.84
      P1  H  7997  8010       L1    10  0.90

> <Gold.Chemscore.Hbond.Weighted>
-6.5841

> <Gold.Chemscore.Metal.Weighted>
-0.0000

> <Gold.Chemscore.Lipo.Weighted>
-6.6266

> <Gold.Chemscore.Internal_Hbond.Weighted>
0.0000

> <Gold.Chemscore.DEClash.Weighted>
0.0899

> <Gold.Chemscore.DEInternal.Weighted>
0.1119

> <Gold.Chemscore.Rot.Weighted>
3.2782

> <Gold.Chemscore.Internal.Correction.Weighted>
   9.000000E+99

> <Gold.Protein.RotatedTorsions>
[ 6907 6896 6895 6894 ] final    7.15 input  -60.11 | X-H torsion
[ 7974 7965 7964 7962 ] final   22.31 input  175.53 | X-H torsion
[ 8008 7997 7996 7995 ] final   65.32 input   59.86 | X-H torsion
[ 10167 10162 10161 10158 ] final  122.87 input  -65.29 | X-H torsion
[ 10718 10713 10712 10709 ] final   55.67 input   66.30 | X-H torsion
[ 10763 10752 10751 10750 ] final  -63.72 input  -60.55 | X-H torsion
[ 11005 11000 10999 10996 ] final -103.07 input  -57.11 | X-H torsion

> <Gold.Protein.ActiveResidues>
 VAL166  LYS551  ARG553  GLY616  TRP617  ASP618  TYR619  PRO620  LYS621  CYS622 
 ASP623  PHE694  ASN695  SER759  ASP760  ASP761  ALA762  ILE779  LEU786  VAL792 
 PHE793  MET794  SER795  GLU796  ALA797  LYS798  CYS799  TRP800  GLU811  SER814 

> <Gold.Protein.RotatedAtoms>
  151.6852  135.0955  160.0223 H   0  0  0  0  0  0  0  0  0  0  0  0  # atno 6907 bound_to 6896
  152.3811  133.6544  159.6171 H   0  0  0  0  0  0  0  0  0  0  0  0  # atno 6908 bound_to 6896
  150.7748  133.9028  159.3387 H   0  0  0  0  0  0  0  0  0  0  0  0  # atno 6909 bound_to 6896
  146.2034  139.7904  142.8744 H   0  0  0  0  0  0  0  0  0  0  0  0  # atno 7974 bound_to 7965
  155.6599  140.3497  155.4779 H   0  0  0  0  0  0  0  0  0  0  0  0  # atno 8008 bound_to 7997
  155.9777  140.1168  157.0778 H   0  0  0  0  0  0  0  0  0  0  0  0  # atno 8009 bound_to 7997
  154.4183  140.1144  156.5379 H   0  0  0  0  0  0  0  0  0  0  0  0  # atno 8010 bound_to 7997
  139.5833  144.6995  151.3474 H   0  0  0  0  0  0  0  0  0  0  0  0  # atno 10167 bound_to 10162
  157.5365  130.8667  149.8761 H   0  0  0  0  0  0  0  0  0  0  0  0  # atno 10718 bound_to 10713
  154.3193  135.6199  153.5500 H   0  0  0  0  0  0  0  0  0  0  0  0  # atno 10763 bound_to 10752
  152.9821  135.5720  154.5088 H   0  0  0  0  0  0  0  0  0  0  0  0  # atno 10764 bound_to 10752
  154.4753  135.2861  155.1588 H   0  0  0  0  0  0  0  0  0  0  0  0  # atno 10765 bound_to 10752
  141.1162  133.8610  157.1439 H   0  0  0  0  0  0  0  0  0  0  0  0  # atno 11005 bound_to 11000
  145.3404  141.0286  143.3396 LP  0  0  0  0  0  0  0  0  0  0  0  0  # atno 17320 bound_to 7965
  144.8736  139.5003  143.6756 LP  0  0  0  0  0  0  0  0  0  0  0  0  # atno 17321 bound_to 7965
  140.7108  143.7395  150.7564 LP  0  0  0  0  0  0  0  0  0  0  0  0  # atno 17342 bound_to 10162
  140.0933  143.4857  152.2466 LP  0  0  0  0  0  0  0  0  0  0  0  0  # atno 17343 bound_to 10162
  156.0463  130.3727  150.1310 LP  0  0  0  0  0  0  0  0  0  0  0  0  # atno 17370 bound_to 10713
  156.9492  130.9769  151.3501 LP  0  0  0  0  0  0  0  0  0  0  0  0  # atno 17371 bound_to 10713
  140.0086  134.9998  157.0346 LP  0  0  0  0  0  0  0  0  0  0  0  0  # atno 17394 bound_to 11000
  140.4639  134.1456  155.7194 LP  0  0  0  0  0  0  0  0  0  0  0  0  # atno 17395 bound_to 11000

$$$$
