AV-unprocessed.smi:1033|AV-procd|sdf|4494|dock3
  -GOLD-   22720 2483D 1   1.00000     0.00000
 Structure written by MMmdl.
 56 58  0  0  0  0  0  0  0  0  2 V2000
  153.3261  142.8426  163.5384 C   0  0  0  0  0  0  0  0  0  0  0  0
  152.9116  142.8137  162.0778 C   0  0  0  0  0  0  0  0  0  0  0  0
  152.0658  143.8316  161.5836 C   0  0  0  0  0  0  0  0  0  0  0  0
  151.6718  143.8511  160.2281 C   0  0  0  0  0  0  0  0  0  0  0  0
  150.8884  144.7565  159.5347 N   0  0  0  0  0  0  0  0  0  0  0  0
  150.9275  144.2570  158.3032 C   0  0  0  0  0  0  0  0  0  0  0  0
  151.6526  143.1381  158.1138 N   0  0  0  0  0  0  0  0  0  0  0  0
  151.8702  142.4492  156.8541 C   0  0  0  0  0  0  0  0  0  0  0  0
  150.7955  141.3759  156.5788 C   0  0  2  0  0  0  0  0  0  0  0  0
  150.1418  141.1106  157.8022 O   0  0  0  0  0  0  0  0  0  0  0  0
  151.3709  140.0442  156.0362 C   0  0  0  0  0  0  0  0  0  0  0  0
  151.0218  139.7187  154.6476 N   0  0  0  0  0  0  0  0  0  0  0  0
  151.5816  138.4567  154.1579 C   0  0  0  0  0  0  0  0  0  0  0  0
  150.9497  137.2057  154.8021 C   0  0  0  0  0  0  0  0  0  0  0  0
  149.4696  137.1995  154.6570 N   0  3  0  0  0  0  0  0  0  0  0  0
  148.8175  136.0479  155.3351 C   0  0  0  0  0  0  0  0  0  0  0  0
  149.6203  134.7336  155.2520 C   0  0  2  0  0  0  0  0  0  0  0  0
  149.2006  133.8429  154.0736 C   0  0  0  0  0  0  0  0  0  0  0  0
  149.4041  134.0118  156.4462 O   0  0  0  0  0  0  0  0  0  0  0  0
  148.8830  138.4901  155.1055 C   0  0  0  0  0  0  0  0  0  0  0  0
  149.5779  139.6861  154.4230 C   0  0  0  0  0  0  0  0  0  0  0  0
  152.1494  142.8149  159.3726 C   0  0  0  0  0  0  0  0  0  0  0  0
  152.9740  141.7843  159.8586 C   0  0  0  0  0  0  0  0  0  0  0  0
  153.3638  141.7842  161.2140 C   0  0  0  0  0  0  0  0  0  0  0  0
  154.2719  140.6794  161.7236 C   0  0  0  0  0  0  0  0  0  0  0  0
  152.9094  143.7085  164.0541 H   0  0  0  0  0  0  0  0  0  0  0  0
  154.4117  142.8919  163.6275 H   0  0  0  0  0  0  0  0  0  0  0  0
  152.9759  141.9470  164.0522 H   0  0  0  0  0  0  0  0  0  0  0  0
  151.7190  144.6151  162.2414 H   0  0  0  0  0  0  0  0  0  0  0  0
  150.4148  144.7430  157.4858 H   0  0  0  0  0  0  0  0  0  0  0  0
  151.8969  143.1841  156.0484 H   0  0  0  0  0  0  0  0  0  0  0  0
  152.8602  141.9916  156.8906 H   0  0  0  0  0  0  0  0  0  0  0  0
  150.0477  141.7902  155.9030 H   0  0  0  0  0  0  0  0  0  0  0  0
  149.2249  141.3187  157.7043 H   0  0  0  0  0  0  0  0  0  0  0  0
  152.4527  140.0458  156.1441 H   0  0  0  0  0  0  0  0  0  0  0  0
  151.0409  139.2332  156.6876 H   0  0  0  0  0  0  0  0  0  0  0  0
  151.4345  138.4035  153.0783 H   0  0  0  0  0  0  0  0  0  0  0  0
  152.6608  138.4335  154.3040 H   0  0  0  0  0  0  0  0  0  0  0  0
  151.3799  136.3234  154.3304 H   0  0  0  0  0  0  0  0  0  0  0  0
  151.1988  137.1476  155.8560 H   0  0  0  0  0  0  0  0  0  0  0  0
  148.6387  136.3089  156.3800 H   0  0  0  0  0  0  0  0  0  0  0  0
  147.8352  135.8864  154.8875 H   0  0  0  0  0  0  0  0  0  0  0  0
  150.6899  134.9337  155.1994 H   0  0  0  0  0  0  0  0  0  0  0  0
  149.3871  134.3356  153.1191 H   0  0  0  0  0  0  0  0  0  0  0  0
  148.1395  133.5950  154.1192 H   0  0  0  0  0  0  0  0  0  0  0  0
  149.7600  132.9069  154.0714 H   0  0  0  0  0  0  0  0  0  0  0  0
  149.5345  134.5921  157.1811 H   0  0  0  0  0  0  0  0  0  0  0  0
  147.8201  138.5058  154.8623 H   0  0  0  0  0  0  0  0  0  0  0  0
  148.9534  138.5724  156.1910 H   0  0  0  0  0  0  0  0  0  0  0  0
  149.1293  140.6190  154.7669 H   0  0  0  0  0  0  0  0  0  0  0  0
  149.3848  139.6437  153.3501 H   0  0  0  0  0  0  0  0  0  0  0  0
  153.3215  141.0122  159.1880 H   0  0  0  0  0  0  0  0  0  0  0  0
  154.5114  139.9655  160.9348 H   0  0  0  0  0  0  0  0  0  0  0  0
  153.7895  140.1318  162.5337 H   0  0  0  0  0  0  0  0  0  0  0  0
  155.2091  141.0950  162.0950 H   0  0  0  0  0  0  0  0  0  0  0  0
  149.2701  137.1196  153.6701 H   0  0  0  0  0  0  0  0  0  0  0  0
  1  2  1  0  0  0  0
  1 26  1  0  0  0  0
  1 27  1  0  0  0  0
  1 28  1  0  0  0  0
  2 24  1  0  0  0  0
  2  3  2  0  0  0  0
  3  4  1  0  0  0  0
  3 29  1  0  0  0  0
  4 22  2  0  0  0  0
  4  5  1  0  0  0  0
  5  6  2  0  0  0  0
  6  7  1  0  0  0  0
  6 30  1  0  0  0  0
  7  8  1  0  0  0  0
  7 22  1  0  0  0  0
  8  9  1  0  0  0  0
  8 31  1  0  0  0  0
  8 32  1  0  0  0  0
  9 10  1  0  0  0  0
  9 11  1  0  0  0  0
  9 33  1  0  0  0  0
 10 34  1  0  0  0  0
 11 12  1  0  0  0  0
 11 35  1  0  0  0  0
 11 36  1  0  0  0  0
 12 21  1  0  0  0  0
 12 13  1  0  0  0  0
 13 14  1  0  0  0  0
 13 37  1  0  0  0  0
 13 38  1  0  0  0  0
 14 15  1  0  0  0  0
 14 39  1  0  0  0  0
 14 40  1  0  0  0  0
 15 16  1  0  0  0  0
 15 20  1  0  0  0  0
 15 56  1  0  0  0  0
 16 17  1  0  0  0  0
 16 41  1  0  0  0  0
 16 42  1  0  0  0  0
 17 18  1  0  0  0  0
 17 19  1  0  0  0  0
 17 43  1  0  0  0  0
 18 44  1  0  0  0  0
 18 45  1  0  0  0  0
 18 46  1  0  0  0  0
 19 47  1  0  0  0  0
 20 21  1  0  0  0  0
 20 48  1  0  0  0  0
 20 49  1  0  0  0  0
 21 50  1  0  0  0  0
 21 51  1  0  0  0  0
 22 23  1  0  0  0  0
 23 24  2  0  0  0  0
 23 52  1  0  0  0  0
 24 25  1  0  0  0  0
 25 53  1  0  0  0  0
 25 54  1  0  0  0  0
 25 55  1  0  0  0  0
M  CHG  1  15   1
M  END
> <s_m_source_file>
AV-unprocessed.smi

> <i_m_source_file_index>
1033

> <i_lp_mmshare_version>
43012

> <i_f3d_flags>
0

> <s_epik_input>
W0NIM11jKFtjSF0xKWMoW0NIM10pW2NIXWMoYzEyKW4oW2NIXW4yKVtDSDJdW0NASF0oW09IXSlbQ0gyXU4zW0NIMl1bQ0gyXU4oW0NIMl1bQ0gyXTMpW0NIMl1bQ0BIXShbQ0gzXSlbT0hd

> <s_epik_cmdline>
J2VwaWtfcHl0aG9uJywgJy1waCcsICc3LjAnLCAnLXRuJywgJzgnLCAnLW1hJywgJzIwMCcsICctbWV0YWxfYmluZGluZycsICctaW1hZScsICc8aW5maWxlLm1hZT4nLCAnLW9tYWUnLCAnPG91dGZpbGUubWFlPic=

> <r_epik_Ionization_Penalty>
0.129152

> <r_epik_Ionization_Penalty_Charging>
0.00083231

> <r_epik_Ionization_Penalty_Neutral>
0.128319

> <r_epik_State_Penalty>
0.556973

> <r_epik_Charging_Adjusted_Penalty>
0.557805

> <i_epik_Tot_Q>
1

> <i_epik_Tot_abs_Q>
1

> <r_epik_Metal_State_Penalty>
0.490047

> <b_epik_Metal_Only>
0

> <s_lp_Force_Field>
OPLS_2005

> <r_lp_Energy>
33.6507

> <b_lp_Chiralities_Consistent>
1

> <s_lp_Variant>
AV-unprocessed.smi:1033-5

> <Gold.Version>
5.8.1

> <Gold.Id.Protein>
6NUR|6NUR_protein|mol2

> <Gold.PLP.Fitness>
62.5966

> <Gold.PLP.PLP>
-55.1427

> <Gold.PLP.part.hbond>
-2.0000

> <Gold.PLP.part.metal>
0.0000

> <Gold.PLP.part.buried>
-7.9663

> <Gold.PLP.part.nonpolar>
-44.6740

> <Gold.PLP.part.repulsive>
0.2259

> <Gold.PLP.ligand.clash>
0.0000

> <Gold.PLP.ligand.torsion>
2.3525

> <Gold.PLP.Chemscore.Hbond>
2.9825

> <Gold.PLP.Chemscore.CHOScore>
1.0320

> <Gold.PLP.Chemscore.Metal>
0.0000

> <Gold.Chemscore.Hbonds>
donor molecule, donor type, donor heavy atom, donor atom, acceptor molecule, acceptor atom, score
      L1  H    15    56       P1  7948  2.00
      P1  H  7989  7998       L1    12  1.00
      L1  C     6    30       P1  8028  1.00
      L1  C     6    30       P1  8029  0.02

> <Gold.PLP.Chemscore.Internal.Correction>
0.1155

> <Gold.Rescore>
     Score         DG    S(hbond)    S(metal)    S(lipo)     H(rot)  DE(clash)    DE(int)     intcor
     15.41     -18.88       1.16        0.00     148.55       3.07       1.55       1.92       ----

> <Gold.Chemscore.Fitness>
15.4086

> <Gold.Chemscore.DG>
-18.8801

> <Gold.Chemscore.ZeroCoef>
-5.4800

> <Gold.Chemscore.Hbond>
1.1576

> <Gold.Chemscore.Metal>
0.0000

> <Gold.Chemscore.Lipo>
148.5475

> <Gold.Chemscore.Internal_Hbond>
0.0000

> <Gold.Chemscore.DEClash>
1.5503

> <Gold.Chemscore.DEInternal>
1.9212

> <Gold.Chemscore.Rot>
3.0650

> <Gold.Chemscore.Internal.Correction>
   9.000000E+99

> <Gold.Chemscore.Hbonds>
donor molecule, donor type, donor heavy atom, donor atom, acceptor molecule, acceptor atom, score
      L1  H    15    56       P1  7948  0.92
      P1  H  7989  7998       L1    12  0.15

> <Gold.Chemscore.Hbond.Weighted>
-3.8665

> <Gold.Chemscore.Metal.Weighted>
-0.0000

> <Gold.Chemscore.Lipo.Weighted>
-17.3801

> <Gold.Chemscore.Internal_Hbond.Weighted>
0.0000

> <Gold.Chemscore.DEClash.Weighted>
1.5503

> <Gold.Chemscore.DEInternal.Weighted>
1.9212

> <Gold.Chemscore.Rot.Weighted>
7.8465

> <Gold.Chemscore.Internal.Correction.Weighted>
   9.000000E+99

> <Gold.Protein.RotatedTorsions>
[ 6907 6896 6895 6894 ] final  175.38 input  -60.11 | X-H torsion
[ 7974 7965 7964 7962 ] final  -58.54 input  175.53 | X-H torsion
[ 8008 7997 7996 7995 ] final  102.73 input   59.86 | X-H torsion
[ 10167 10162 10161 10158 ] final  152.77 input  -65.29 | X-H torsion
[ 10718 10713 10712 10709 ] final   26.99 input   66.30 | X-H torsion
[ 10763 10752 10751 10750 ] final -146.93 input  -60.55 | X-H torsion
[ 11005 11000 10999 10996 ] final -121.10 input  -57.11 | X-H torsion

> <Gold.Protein.ActiveResidues>
 VAL166  LYS551  ARG553  GLY616  TRP617  ASP618  TYR619  PRO620  LYS621  CYS622 
 ASP623  PHE694  ASN695  SER759  ASP760  ASP761  ALA762  ILE779  LEU786  VAL792 
 PHE793  MET794  SER795  GLU796  ALA797  LYS798  CYS799  TRP800  GLU811  SER814 

> <Gold.Protein.RotatedAtoms>
  151.7372  133.3320  159.3355 H   0  0  0  0  0  0  0  0  0  0  0  0  # atno 6907 bound_to 6896
  150.7588  134.6310  159.6196 H   0  0  0  0  0  0  0  0  0  0  0  0  # atno 6908 bound_to 6896
  152.3554  134.6950  160.0275 H   0  0  0  0  0  0  0  0  0  0  0  0  # atno 6909 bound_to 6896
  145.8380  140.8436  143.0049 H   0  0  0  0  0  0  0  0  0  0  0  0  # atno 7974 bound_to 7965
  156.1420  140.3176  155.8510 H   0  0  0  0  0  0  0  0  0  0  0  0  # atno 8008 bound_to 7997
  155.4137  140.0507  157.3047 H   0  0  0  0  0  0  0  0  0  0  0  0  # atno 8009 bound_to 7997
  154.4984  140.2120  155.9410 H   0  0  0  0  0  0  0  0  0  0  0  0  # atno 8010 bound_to 7997
  139.4831  144.5330  151.7691 H   0  0  0  0  0  0  0  0  0  0  0  0  # atno 10167 bound_to 10162
  157.2142  130.6948  149.6241 H   0  0  0  0  0  0  0  0  0  0  0  0  # atno 10718 bound_to 10713
  154.8311  135.3373  154.6739 H   0  0  0  0  0  0  0  0  0  0  0  0  # atno 10763 bound_to 10752
  153.7359  135.6949  153.4983 H   0  0  0  0  0  0  0  0  0  0  0  0  # atno 10764 bound_to 10752
  153.2279  135.4426  155.0514 H   0  0  0  0  0  0  0  0  0  0  0  0  # atno 10765 bound_to 10752
  141.0095  134.0285  157.3433 H   0  0  0  0  0  0  0  0  0  0  0  0  # atno 11005 bound_to 11000
  144.6735  140.0771  143.7471 LP  0  0  0  0  0  0  0  0  0  0  0  0  # atno 17320 bound_to 7965
  145.9496  139.2725  143.1220 LP  0  0  0  0  0  0  0  0  0  0  0  0  # atno 17321 bound_to 7965
  140.4859  144.1382  150.5941 LP  0  0  0  0  0  0  0  0  0  0  0  0  # atno 17342 bound_to 10162
  140.4226  143.2604  151.9696 LP  0  0  0  0  0  0  0  0  0  0  0  0  # atno 17343 bound_to 10162
  155.9688  130.4541  150.5837 LP  0  0  0  0  0  0  0  0  0  0  0  0  # atno 17370 bound_to 10713
  157.3642  131.0755  151.1612 LP  0  0  0  0  0  0  0  0  0  0  0  0  # atno 17371 bound_to 10713
  139.9082  135.0184  156.7577 LP  0  0  0  0  0  0  0  0  0  0  0  0  # atno 17394 bound_to 11000
  140.6757  133.9519  155.7882 LP  0  0  0  0  0  0  0  0  0  0  0  0  # atno 17395 bound_to 11000

$$$$
