AV-unprocessed.smi:193|AV-procd|sdf|1498|dock3
  -GOLD-   2262019323D 1   1.00000     0.00000
 Structure written by MMmdl.
 62 66  0  0  0  0  0  0  0  0  2 V2000
  143.4838  132.4147  149.9674 C   0  0  0  0  0  0  0  0  0  0  0  0
  144.6379  132.4302  150.9820 C   0  0  2  0  0  0  0  0  0  0  0  0
  144.9954  133.8936  151.3187 C   0  0  0  0  0  0  0  0  0  0  0  0
  145.9049  134.0364  152.4510 N   0  0  0  0  0  0  0  0  0  0  0  0
  146.0081  135.3198  152.8561 C   0  0  0  0  0  0  0  0  0  0  0  0
  145.4919  136.2738  152.0437 N   0  0  0  0  0  0  0  0  0  0  0  0
  145.5707  137.5613  152.3954 C   0  0  0  0  0  0  0  0  0  0  0  0
  146.1165  138.0967  153.4900 N   0  0  0  0  0  0  0  0  0  0  0  0
  146.6426  137.1367  154.3040 C   0  0  0  0  0  0  0  0  0  0  0  0
  146.6322  135.7341  154.0657 C   0  0  0  0  0  0  0  0  0  0  0  0
  147.2649  135.0689  155.1087 N   0  0  0  0  0  0  0  0  0  0  0  0
  147.6279  136.0257  155.9196 C   0  0  0  0  0  0  0  0  0  0  0  0
  147.2898  137.2982  155.5163 N   0  0  0  0  0  0  0  0  0  0  0  0
  147.5716  138.5404  156.2202 C   0  0  0  0  0  0  0  0  0  0  0  0
  149.0760  138.9037  156.2762 C   0  0  0  0  0  0  0  0  0  0  0  0
  149.6562  138.1679  157.3400 O   0  0  0  0  0  0  0  0  0  0  0  0
  149.7771  138.4967  154.9647 C   0  0  0  0  0  0  0  0  0  0  0  0
  151.2342  138.9896  154.9079 C   0  0  0  0  0  0  0  0  0  0  0  0
  151.2805  140.3974  155.1050 O   0  0  0  0  0  0  0  0  0  0  0  0
  150.7994  140.7900  156.3847 C   0  0  0  0  0  0  0  0  0  0  0  0
  149.3161  140.4074  156.5337 C   0  0  0  0  0  0  0  0  0  0  0  0
  147.1783  133.3231  152.4252 C   0  0  0  0  0  0  0  0  0  0  0  0
  146.9773  131.8200  152.6693 C   0  0  0  0  0  0  0  0  0  0  0  0
  146.7320  131.0298  151.4351 N   0  3  1  0  0  0  0  0  0  0  0  0
  146.3069  129.6468  151.7518 C   0  0  2  0  0  0  0  0  0  0  0  0
  146.9319  129.0916  153.0109 C   0  0  0  0  0  0  0  0  0  0  0  0
  147.4198  128.6263  151.6558 C   0  0  1  0  0  0  0  0  0  0  0  0
  147.1360  127.2157  151.1881 C   0  0  0  0  0  0  0  0  0  0  0  0
  145.8553  131.6640  150.4124 C   0  0  0  0  0  0  0  0  0  0  0  0
  143.7706  132.8960  149.0318 H   0  0  0  0  0  0  0  0  0  0  0  0
  142.6100  132.9384  150.3564 H   0  0  0  0  0  0  0  0  0  0  0  0
  143.1743  131.3948  149.7368 H   0  0  0  0  0  0  0  0  0  0  0  0
  144.2701  131.9292  151.8784 H   0  0  0  0  0  0  0  0  0  0  0  0
  145.4256  134.3849  150.4445 H   0  0  0  0  0  0  0  0  0  0  0  0
  144.0769  134.4353  151.5524 H   0  0  0  0  0  0  0  0  0  0  0  0
  145.1341  138.2633  151.7001 H   0  0  0  0  0  0  0  0  0  0  0  0
  148.1534  135.8295  156.8430 H   0  0  0  0  0  0  0  0  0  0  0  0
  147.0040  139.3399  155.7421 H   0  0  0  0  0  0  0  0  0  0  0  0
  147.1730  138.4516  157.2317 H   0  0  0  0  0  0  0  0  0  0  0  0
  150.0203  138.7783  157.9630 H   0  0  0  0  0  0  0  0  0  0  0  0
  149.7424  137.4147  154.8308 H   0  0  0  0  0  0  0  0  0  0  0  0
  149.2370  138.9251  154.1192 H   0  0  0  0  0  0  0  0  0  0  0  0
  151.8510  138.4852  155.6533 H   0  0  0  0  0  0  0  0  0  0  0  0
  151.6667  138.7592  153.9341 H   0  0  0  0  0  0  0  0  0  0  0  0
  151.4041  140.3327  157.1692 H   0  0  0  0  0  0  0  0  0  0  0  0
  150.9168  141.8690  156.4869 H   0  0  0  0  0  0  0  0  0  0  0  0
  148.7345  140.9908  155.8189 H   0  0  0  0  0  0  0  0  0  0  0  0
  148.9618  140.6959  157.5242 H   0  0  0  0  0  0  0  0  0  0  0  0
  147.7135  133.5065  151.4927 H   0  0  0  0  0  0  0  0  0  0  0  0
  147.8103  133.7149  153.2243 H   0  0  0  0  0  0  0  0  0  0  0  0
  147.8802  131.4189  153.1304 H   0  0  0  0  0  0  0  0  0  0  0  0
  146.1765  131.6616  153.3940 H   0  0  0  0  0  0  0  0  0  0  0  0
  145.2854  129.3830  151.4825 H   0  0  0  0  0  0  0  0  0  0  0  0
  147.5971  129.7322  153.5870 H   0  0  0  0  0  0  0  0  0  0  0  0
  146.3369  128.3955  153.5989 H   0  0  0  0  0  0  0  0  0  0  0  0
  148.3978  128.9954  151.3514 H   0  0  0  0  0  0  0  0  0  0  0  0
  146.1464  126.8914  151.5116 H   0  0  0  0  0  0  0  0  0  0  0  0
  147.8776  126.5295  151.5977 H   0  0  0  0  0  0  0  0  0  0  0  0
  147.1796  127.1667  150.1001 H   0  0  0  0  0  0  0  0  0  0  0  0
  145.5241  130.8889  149.7196 H   0  0  0  0  0  0  0  0  0  0  0  0
  146.4613  132.3375  149.8055 H   0  0  0  0  0  0  0  0  0  0  0  0
  147.6306  130.9380  150.9834 H   0  0  0  0  0  0  0  0  0  0  0  0
  1  2  1  0  0  0  0
  1 30  1  0  0  0  0
  1 31  1  0  0  0  0
  1 32  1  0  0  0  0
  2 29  1  0  0  0  0
  2  3  1  0  0  0  0
  2 33  1  0  0  0  0
  3  4  1  0  0  0  0
  3 34  1  0  0  0  0
  3 35  1  0  0  0  0
  4  5  1  0  0  0  0
  4 22  1  0  0  0  0
  5 10  1  0  0  0  0
  5  6  2  0  0  0  0
  6  7  1  0  0  0  0
  7  8  2  0  0  0  0
  7 36  1  0  0  0  0
  8  9  1  0  0  0  0
  9 13  1  0  0  0  0
  9 10  2  0  0  0  0
 10 11  1  0  0  0  0
 11 12  2  0  0  0  0
 12 13  1  0  0  0  0
 12 37  1  0  0  0  0
 13 14  1  0  0  0  0
 14 15  1  0  0  0  0
 14 38  1  0  0  0  0
 14 39  1  0  0  0  0
 15 21  1  0  0  0  0
 15 16  1  0  0  0  0
 15 17  1  0  0  0  0
 16 40  1  0  0  0  0
 17 18  1  0  0  0  0
 17 41  1  0  0  0  0
 17 42  1  0  0  0  0
 18 19  1  0  0  0  0
 18 43  1  0  0  0  0
 18 44  1  0  0  0  0
 19 20  1  0  0  0  0
 20 21  1  0  0  0  0
 20 45  1  0  0  0  0
 20 46  1  0  0  0  0
 21 47  1  0  0  0  0
 21 48  1  0  0  0  0
 22 23  1  0  0  0  0
 22 49  1  0  0  0  0
 22 50  1  0  0  0  0
 23 24  1  0  0  0  0
 23 51  1  0  0  0  0
 23 52  1  0  0  0  0
 24 25  1  0  0  0  0
 24 29  1  0  0  0  0
 24 62  1  0  0  0  0
 25 27  1  0  0  0  0
 25 26  1  0  0  0  0
 25 53  1  0  0  0  0
 26 27  1  0  0  0  0
 26 54  1  0  0  0  0
 26 55  1  0  0  0  0
 27 28  1  0  0  0  0
 27 56  1  0  0  0  0
 28 57  1  0  0  0  0
 28 58  1  0  0  0  0
 28 59  1  0  0  0  0
 29 60  1  0  0  0  0
 29 61  1  0  0  0  0
M  CHG  1  24   1
M  END
> <s_m_source_file>
AV-unprocessed.smi

> <i_m_source_file_index>
193

> <i_lp_mmshare_version>
43012

> <i_f3d_flags>
0

> <s_epik_input>
W0NIM11bQ0BASF0xW0NIMl1bQ0BIXTFOKFtDSDJdMilbQ0gyXVtDSDJdTihbQ0gyXVtDQEhdMltDSDNdKWMobltjSF1uMyljKGMzNCluW2NIXW40W0NIMl1DNShbT0hdKVtDSDJdW0NIMl1PW0NIMl1bQ0gyXTU=

> <s_epik_cmdline>
J2VwaWtfcHl0aG9uJywgJy1waCcsICc3LjAnLCAnLXRuJywgJzgnLCAnLW1hJywgJzIwMCcsICctbWV0YWxfYmluZGluZycsICctaW1hZScsICc8aW5maWxlLm1hZT4nLCAnLW9tYWUnLCAnPG91dGZpbGUubWFlPic=

> <r_lp_tautomer_probability>
1

> <r_epik_Ionization_Penalty>
0.0540825

> <r_epik_Ionization_Penalty_Charging>
0.0538476

> <r_epik_Ionization_Penalty_Neutral>
0.000234891

> <r_epik_State_Penalty>
0.0200719

> <r_epik_Charging_Adjusted_Penalty>
0.0739194

> <i_epik_Tot_Q>
1

> <i_epik_Tot_abs_Q>
1

> <r_epik_Metal_State_Penalty>
0.0199414

> <b_epik_Metal_Only>
0

> <s_lp_Force_Field>
OPLS_2005

> <r_lp_Energy>
56.0511

> <b_lp_Chiralities_Consistent>
1

> <s_lp_Variant>
AV-unprocessed.smi:193-3

> <Gold.Version>
5.8.1

> <Gold.Id.Protein>
6NUR|6NUR_protein|mol2

> <Gold.PLP.Fitness>
45.8820

> <Gold.PLP.PLP>
-37.0178

> <Gold.PLP.part.hbond>
-2.0000

> <Gold.PLP.part.metal>
0.0000

> <Gold.PLP.part.buried>
-2.2984

> <Gold.PLP.part.nonpolar>
-34.2547

> <Gold.PLP.part.repulsive>
0.6155

> <Gold.PLP.ligand.clash>
0.0000

> <Gold.PLP.ligand.torsion>
1.4150

> <Gold.PLP.Chemscore.Hbond>
1.9913

> <Gold.PLP.Chemscore.CHOScore>
1.3752

> <Gold.PLP.Chemscore.Metal>
0.0000

> <Gold.Chemscore.Hbonds>
donor molecule, donor type, donor heavy atom, donor atom, acceptor molecule, acceptor atom, score
      L1  H    24    62       P1 10747  0.98
      P1  H  7989  7998       L1    19  0.95
      L1  C     7    36       P1 10171  1.00
      L1  C     7    36       P1 10175  0.45

> <Gold.PLP.Chemscore.Internal.Correction>
1.5947

> <Gold.Rescore>
     Score         DG    S(hbond)    S(metal)    S(lipo)     H(rot)  DE(clash)    DE(int)     intcor
     16.69     -19.15       1.96        0.00     109.15       2.20       0.87       1.60       ----

> <Gold.Chemscore.Fitness>
16.6857

> <Gold.Chemscore.DG>
-19.1524

> <Gold.Chemscore.ZeroCoef>
-5.4800

> <Gold.Chemscore.Hbond>
1.9576

> <Gold.Chemscore.Metal>
0.0000

> <Gold.Chemscore.Lipo>
109.1508

> <Gold.Chemscore.Internal_Hbond>
0.0000

> <Gold.Chemscore.DEClash>
0.8662

> <Gold.Chemscore.DEInternal>
1.6005

> <Gold.Chemscore.Rot>
2.2018

> <Gold.Chemscore.Internal.Correction>
   9.000000E+99

> <Gold.Chemscore.Hbonds>
donor molecule, donor type, donor heavy atom, donor atom, acceptor molecule, acceptor atom, score
      L1  H    24    62       P1 10747  0.91
      P1  H  7989  7998       L1    19  0.20

> <Gold.Chemscore.Hbond.Weighted>
-6.5383

> <Gold.Chemscore.Metal.Weighted>
-0.0000

> <Gold.Chemscore.Lipo.Weighted>
-12.7706

> <Gold.Chemscore.Internal_Hbond.Weighted>
0.0000

> <Gold.Chemscore.DEClash.Weighted>
0.8662

> <Gold.Chemscore.DEInternal.Weighted>
1.6005

> <Gold.Chemscore.Rot.Weighted>
5.6366

> <Gold.Chemscore.Internal.Correction.Weighted>
   9.000000E+99

> <Gold.Protein.RotatedTorsions>
[ 6907 6896 6895 6894 ] final   25.75 input  -60.11 | X-H torsion
[ 7974 7965 7964 7962 ] final  129.35 input  175.53 | X-H torsion
[ 8008 7997 7996 7995 ] final  142.06 input   59.86 | X-H torsion
[ 10167 10162 10161 10158 ] final   64.13 input  -65.29 | X-H torsion
[ 10718 10713 10712 10709 ] final  164.74 input   66.30 | X-H torsion
[ 10763 10752 10751 10750 ] final  121.85 input  -60.55 | X-H torsion
[ 11005 11000 10999 10996 ] final  174.49 input  -57.11 | X-H torsion

> <Gold.Protein.ActiveResidues>
 VAL166  LYS551  ARG553  GLY616  TRP617  ASP618  TYR619  PRO620  LYS621  CYS622 
 ASP623  PHE694  ASN695  SER759  ASP760  ASP761  ALA762  ILE779  LEU786  VAL792 
 PHE793  MET794  SER795  GLU796  ALA797  LYS798  CYS799  TRP800  GLU811  SER814 

> <Gold.Protein.RotatedAtoms>
  151.9772  135.0047  160.0555 H   0  0  0  0  0  0  0  0  0  0  0  0  # atno 6907 bound_to 6896
  152.1729  133.4651  159.4927 H   0  0  0  0  0  0  0  0  0  0  0  0  # atno 6908 bound_to 6896
  150.6904  134.1848  159.4305 H   0  0  0  0  0  0  0  0  0  0  0  0  # atno 6909 bound_to 6896
  145.0296  139.4058  143.5156 H   0  0  0  0  0  0  0  0  0  0  0  0  # atno 7974 bound_to 7965
  156.2956  140.2299  156.4666 H   0  0  0  0  0  0  0  0  0  0  0  0  # atno 8008 bound_to 7997
  154.7971  140.0450  157.1266 H   0  0  0  0  0  0  0  0  0  0  0  0  # atno 8009 bound_to 7997
  154.9576  140.3050  155.5049 H   0  0  0  0  0  0  0  0  0  0  0  0  # atno 8010 bound_to 7997
  140.1255  144.4692  150.6895 H   0  0  0  0  0  0  0  0  0  0  0  0  # atno 10167 bound_to 10162
  157.0901  131.0415  151.2541 H   0  0  0  0  0  0  0  0  0  0  0  0  # atno 10718 bound_to 10713
  153.6205  135.3414  155.3009 H   0  0  0  0  0  0  0  0  0  0  0  0  # atno 10763 bound_to 10752
  154.8601  135.4272  154.2213 H   0  0  0  0  0  0  0  0  0  0  0  0  # atno 10764 bound_to 10752
  153.3084  135.7030  153.7210 H   0  0  0  0  0  0  0  0  0  0  0  0  # atno 10765 bound_to 10752
  140.3519  134.7187  157.4273 H   0  0  0  0  0  0  0  0  0  0  0  0  # atno 11005 bound_to 11000
  146.3497  139.9839  142.8693 LP  0  0  0  0  0  0  0  0  0  0  0  0  # atno 17320 bound_to 7965
  145.1788  140.9757  143.4278 LP  0  0  0  0  0  0  0  0  0  0  0  0  # atno 17321 bound_to 7965
  140.6847  143.2344  151.5291 LP  0  0  0  0  0  0  0  0  0  0  0  0  # atno 17342 bound_to 10162
  139.5546  144.2307  152.1590 LP  0  0  0  0  0  0  0  0  0  0  0  0  # atno 17343 bound_to 10162
  157.4728  130.7719  149.7340 LP  0  0  0  0  0  0  0  0  0  0  0  0  # atno 17370 bound_to 10713
  155.9900  130.3947  150.3046 LP  0  0  0  0  0  0  0  0  0  0  0  0  # atno 17371 bound_to 10713
  140.0696  134.5881  155.8657 LP  0  0  0  0  0  0  0  0  0  0  0  0  # atno 17394 bound_to 11000
  141.2009  133.6615  156.5924 LP  0  0  0  0  0  0  0  0  0  0  0  0  # atno 17395 bound_to 11000

$$$$
