AV-unprocessed.smi:2024|AV-procd|sdf|8194|dock1
  -GOLD-   2272010453D 1   1.00000     0.00000
 Structure written by MMmdl.
 43 44  0  0  0  0  0  0  0  0  3 V2000
  152.1720  144.0051  158.3661 C   0  0  0  0  0  0  0  0  0  0  0  0
  151.1015  143.2099  159.0102 N   0  3  0  0  0  0  0  0  0  0  0  0
  151.5682  141.9198  159.5693 C   0  0  0  0  0  0  0  0  0  0  0  0
  151.7726  140.8570  158.4687 C   0  0  0  0  0  0  0  0  0  0  0  0
  150.5121  140.6496  157.7404 N   0  0  0  0  0  0  0  0  0  0  0  0
  150.4508  139.4603  156.8515 C   0  0  0  0  0  0  0  0  0  0  0  0
  149.1319  139.4266  156.0442 C   0  0  0  0  0  0  0  0  0  0  0  0
  151.6369  139.4684  155.8530 C   0  0  0  0  0  0  0  0  0  0  0  0
  150.5699  138.1636  157.7086 C   0  0  0  0  0  0  0  0  0  0  0  0
  149.5877  138.1154  158.7936 N   0  0  0  0  0  0  0  0  0  0  0  0
  149.1720  137.0204  159.4469 C   0  0  0  0  0  0  0  0  0  0  0  0
  149.6968  135.9275  159.2220 O   0  0  0  0  0  0  0  0  0  0  0  0
  148.1557  137.2541  160.3070 N   0  5  0  0  0  0  0  0  0  0  0  0
  147.6473  136.2440  161.0312 C   0  0  0  0  0  0  0  0  0  0  0  0
  147.3825  135.0376  160.5177 N   0  0  0  0  0  0  0  0  0  0  0  0
  146.8642  134.1388  161.4519 C   0  0  0  0  0  0  0  0  0  0  0  0
  146.7376  134.6717  162.7075 C   0  0  0  0  0  0  0  0  0  0  0  0
  147.2708  136.3280  162.7551 S   0  0  0  0  0  0  0  0  0  0  0  0
  150.1735  141.9234  157.0865 C   0  0  0  0  0  0  0  0  0  0  0  0
  149.9110  143.0020  158.1543 C   0  0  0  0  0  0  0  0  0  0  0  0
  152.5935  143.4951  157.5001 H   0  0  0  0  0  0  0  0  0  0  0  0
  152.9804  144.1974  159.0720 H   0  0  0  0  0  0  0  0  0  0  0  0
  151.7849  144.9699  158.0371 H   0  0  0  0  0  0  0  0  0  0  0  0
  152.4891  142.0687  160.1342 H   0  0  0  0  0  0  0  0  0  0  0  0
  150.8245  141.5632  160.2838 H   0  0  0  0  0  0  0  0  0  0  0  0
  152.5722  141.1441  157.7853 H   0  0  0  0  0  0  0  0  0  0  0  0
  152.0965  139.9478  158.9704 H   0  0  0  0  0  0  0  0  0  0  0  0
  149.1267  138.5870  155.3486 H   0  0  0  0  0  0  0  0  0  0  0  0
  148.9916  140.3317  155.4532 H   0  0  0  0  0  0  0  0  0  0  0  0
  148.2577  139.3060  156.6841 H   0  0  0  0  0  0  0  0  0  0  0  0
  151.7248  138.5097  155.3409 H   0  0  0  0  0  0  0  0  0  0  0  0
  152.5890  139.6562  156.3513 H   0  0  0  0  0  0  0  0  0  0  0  0
  151.5146  140.2166  155.0696 H   0  0  0  0  0  0  0  0  0  0  0  0
  150.5318  137.2609  157.0992 H   0  0  0  0  0  0  0  0  0  0  0  0
  151.5549  138.1292  158.1750 H   0  0  0  0  0  0  0  0  0  0  0  0
  149.1329  138.9858  159.0270 H   0  0  0  0  0  0  0  0  0  0  0  0
  146.6140  133.1372  161.1350 H   0  0  0  0  0  0  0  0  0  0  0  0
  146.3681  134.1937  163.6019 H   0  0  0  0  0  0  0  0  0  0  0  0
  150.9729  142.2359  156.4141 H   0  0  0  0  0  0  0  0  0  0  0  0
  149.2794  141.8345  156.4747 H   0  0  0  0  0  0  0  0  0  0  0  0
  149.0734  142.6979  158.7845 H   0  0  0  0  0  0  0  0  0  0  0  0
  149.6178  143.9420  157.6857 H   0  0  0  0  0  0  0  0  0  0  0  0
  150.7912  143.7640  159.7955 H   0  0  0  0  0  0  0  0  0  0  0  0
  1  2  1  0  0  0  0
  1 21  1  0  0  0  0
  1 22  1  0  0  0  0
  1 23  1  0  0  0  0
  2 20  1  0  0  0  0
  2  3  1  0  0  0  0
  2 43  1  0  0  0  0
  3  4  1  0  0  0  0
  3 24  1  0  0  0  0
  3 25  1  0  0  0  0
  4  5  1  0  0  0  0
  4 26  1  0  0  0  0
  4 27  1  0  0  0  0
  5  6  1  0  0  0  0
  5 19  1  0  0  0  0
  6  7  1  0  0  0  0
  6  8  1  0  0  0  0
  6  9  1  0  0  0  0
  7 28  1  0  0  0  0
  7 29  1  0  0  0  0
  7 30  1  0  0  0  0
  8 31  1  0  0  0  0
  8 32  1  0  0  0  0
  8 33  1  0  0  0  0
  9 10  1  0  0  0  0
  9 34  1  0  0  0  0
  9 35  1  0  0  0  0
 10 11  1  0  0  0  0
 10 36  1  0  0  0  0
 11 12  2  0  0  0  0
 11 13  1  0  0  0  0
 13 14  1  0  0  0  0
 14 18  1  0  0  0  0
 14 15  2  0  0  0  0
 15 16  1  0  0  0  0
 16 17  2  0  0  0  0
 16 37  1  0  0  0  0
 17 18  1  0  0  0  0
 17 38  1  0  0  0  0
 19 20  1  0  0  0  0
 19 39  1  0  0  0  0
 19 40  1  0  0  0  0
 20 41  1  0  0  0  0
 20 42  1  0  0  0  0
M  CHG  1   2   1
M  CHG  1  13  -1
M  END
> <s_m_source_file>
AV-unprocessed.smi

> <i_m_source_file_index>
2024

> <i_lp_mmshare_version>
43012

> <i_f3d_flags>
0

> <s_epik_input>
W0NIM11OMVtDSDJdW0NIMl1OKFtDSDJdW0NIMl0xKUMoW0NIM10pKFtDSDNdKVtDSDJdW05IXUMoPU8pW05IXWMybltjSF1bY0hdczI=

> <s_epik_cmdline>
J2VwaWtfcHl0aG9uJywgJy1waCcsICc3LjAnLCAnLXRuJywgJzgnLCAnLW1hJywgJzIwMCcsICctbWV0YWxfYmluZGluZycsICctaW1hZScsICc8aW5maWxlLm1hZT4nLCAnLW9tYWUnLCAnPG91dGZpbGUubWFlPic=

> <r_lp_tautomer_probability>
0.999

> <r_epik_Ionization_Penalty>
7.04933

> <r_epik_Ionization_Penalty_Charging>
5.90256

> <r_epik_Ionization_Penalty_Neutral>
1.14676

> <r_epik_State_Penalty>
6.00717

> <r_epik_Charging_Adjusted_Penalty>
11.9097

> <i_epik_Tot_Q>
0

> <i_epik_Tot_abs_Q>
2

> <r_epik_Metal_State_Penalty>
1.97542

> <b_epik_Metal_Only>
1

> <s_lp_Force_Field>
OPLS_2005

> <r_lp_Energy>
14.8551

> <b_lp_Chiralities_Consistent>
1

> <s_lp_Variant>
AV-unprocessed.smi:2024-4

> <Gold.Version>
5.8.1

> <Gold.Id.Protein>
6NUR|6NUR_protein|mol2

> <Gold.PLP.Fitness>
43.8621

> <Gold.PLP.PLP>
-35.1016

> <Gold.PLP.part.hbond>
-3.0000

> <Gold.PLP.part.metal>
0.0000

> <Gold.PLP.part.buried>
-5.5573

> <Gold.PLP.part.nonpolar>
-29.0228

> <Gold.PLP.part.repulsive>
0.2783

> <Gold.PLP.ligand.clash>
0.0000

> <Gold.PLP.ligand.torsion>
0.6722

> <Gold.PLP.Chemscore.Hbond>
3.3440

> <Gold.PLP.Chemscore.CHOScore>
0.0000

> <Gold.PLP.Chemscore.Metal>
0.0000

> <Gold.Chemscore.Hbonds>
donor molecule, donor type, donor heavy atom, donor atom, acceptor molecule, acceptor atom, score
      P1  H  6896  6909       L1    12  1.00
      P1  H  6931  6943       L1    13  1.04
      P1  H  6934  6947       L1    13  1.11

> <Gold.PLP.Chemscore.Internal.Correction>
0.0730

> <Gold.Rescore>
     Score         DG    S(hbond)    S(metal)    S(lipo)     H(rot)  DE(clash)    DE(int)     intcor
     14.33     -16.43       1.56        0.00      83.23       1.57       0.01       2.09       ----

> <Gold.Chemscore.Fitness>
14.3293

> <Gold.Chemscore.DG>
-16.4297

> <Gold.Chemscore.ZeroCoef>
-5.4800

> <Gold.Chemscore.Hbond>
1.5646

> <Gold.Chemscore.Metal>
0.0000

> <Gold.Chemscore.Lipo>
83.2274

> <Gold.Chemscore.Internal_Hbond>
0.0000

> <Gold.Chemscore.DEClash>
0.0089

> <Gold.Chemscore.DEInternal>
2.0915

> <Gold.Chemscore.Rot>
1.5678

> <Gold.Chemscore.Internal.Correction>
   9.000000E+99

> <Gold.Chemscore.Hbonds>
donor molecule, donor type, donor heavy atom, donor atom, acceptor molecule, acceptor atom, score
      P1  H  6896  6909       L1    12  0.99
      P1  H  6931  6943       L1    13  0.04
      P1  H  6934  6947       L1    13  0.35

> <Gold.Chemscore.Hbond.Weighted>
-5.2257

> <Gold.Chemscore.Metal.Weighted>
-0.0000

> <Gold.Chemscore.Lipo.Weighted>
-9.7376

> <Gold.Chemscore.Internal_Hbond.Weighted>
0.0000

> <Gold.Chemscore.DEClash.Weighted>
0.0089

> <Gold.Chemscore.DEInternal.Weighted>
2.0915

> <Gold.Chemscore.Rot.Weighted>
4.0136

> <Gold.Chemscore.Internal.Correction.Weighted>
   9.000000E+99

> <Gold.Protein.RotatedTorsions>
[ 6907 6896 6895 6894 ] final   82.52 input  -60.11 | X-H torsion
[ 7974 7965 7964 7962 ] final   50.04 input  175.53 | X-H torsion
[ 8008 7997 7996 7995 ] final  -48.68 input   59.86 | X-H torsion
[ 10167 10162 10161 10158 ] final   48.02 input  -65.29 | X-H torsion
[ 10718 10713 10712 10709 ] final   76.21 input   66.30 | X-H torsion
[ 10763 10752 10751 10750 ] final   85.62 input  -60.55 | X-H torsion
[ 11005 11000 10999 10996 ] final  137.78 input  -57.11 | X-H torsion

> <Gold.Protein.ActiveResidues>
 VAL166  LYS551  ARG553  GLY616  TRP617  ASP618  TYR619  PRO620  LYS621  CYS622 
 ASP623  PHE694  ASN695  SER759  ASP760  ASP761  ALA762  ILE779  LEU786  VAL792 
 PHE793  MET794  SER795  GLU796  ALA797  LYS798  CYS799  TRP800  GLU811  SER814 

> <Gold.Protein.RotatedAtoms>
  152.5301  134.3038  159.9087 H   0  0  0  0  0  0  0  0  0  0  0  0  # atno 6907 bound_to 6896
  151.2988  133.4125  159.2646 H   0  0  0  0  0  0  0  0  0  0  0  0  # atno 6908 bound_to 6896
  151.0137  134.9432  159.8078 H   0  0  0  0  0  0  0  0  0  0  0  0  # atno 6909 bound_to 6896
  146.0051  139.4481  142.9991 H   0  0  0  0  0  0  0  0  0  0  0  0  # atno 7974 bound_to 7965
  154.4032  140.1315  156.4379 H   0  0  0  0  0  0  0  0  0  0  0  0  # atno 8008 bound_to 7997
  155.7487  140.3488  155.5120 H   0  0  0  0  0  0  0  0  0  0  0  0  # atno 8009 bound_to 7997
  155.8970  140.1013  157.1368 H   0  0  0  0  0  0  0  0  0  0  0  0  # atno 8010 bound_to 7997
  140.2976  144.2972  150.6226 H   0  0  0  0  0  0  0  0  0  0  0  0  # atno 10167 bound_to 10162
  157.6664  130.9763  150.1464 H   0  0  0  0  0  0  0  0  0  0  0  0  # atno 10718 bound_to 10713
  153.1493  135.4610  154.9612 H   0  0  0  0  0  0  0  0  0  0  0  0  # atno 10763 bound_to 10752
  154.7811  135.3189  154.7989 H   0  0  0  0  0  0  0  0  0  0  0  0  # atno 10764 bound_to 10752
  153.8497  135.6922  153.4848 H   0  0  0  0  0  0  0  0  0  0  0  0  # atno 10765 bound_to 10752
  140.0138  134.9427  157.0332 H   0  0  0  0  0  0  0  0  0  0  0  0  # atno 11005 bound_to 11000
  145.7428  141.0002  143.1292 LP  0  0  0  0  0  0  0  0  0  0  0  0  # atno 17320 bound_to 7965
  144.6933  139.9120  143.7464 LP  0  0  0  0  0  0  0  0  0  0  0  0  # atno 17321 bound_to 7965
  140.5678  143.2184  151.7652 LP  0  0  0  0  0  0  0  0  0  0  0  0  # atno 17342 bound_to 10162
  139.4922  144.4258  151.9927 LP  0  0  0  0  0  0  0  0  0  0  0  0  # atno 17343 bound_to 10162
  156.2274  130.3679  149.8485 LP  0  0  0  0  0  0  0  0  0  0  0  0  # atno 17370 bound_to 10713
  156.6321  130.8670  151.3497 LP  0  0  0  0  0  0  0  0  0  0  0  0  # atno 17371 bound_to 10713
  140.4508  134.1584  155.7181 LP  0  0  0  0  0  0  0  0  0  0  0  0  # atno 17394 bound_to 11000
  141.1729  133.8573  157.1515 LP  0  0  0  0  0  0  0  0  0  0  0  0  # atno 17395 bound_to 11000

$$$$
