AV-unprocessed.smi:1817|AV-procd|sdf|7370|dock1
  -GOLD-   22720 9 33D 1   1.00000     0.00000
 Structure written by MMmdl.
 43 44  0  0  0  0  0  0  0  0  2 V2000
  150.6703  137.6229  158.0008 C   0  0  0  0  0  0  0  0  0  0  0  0
  150.6046  138.5906  156.8105 C   0  0  0  0  0  0  0  0  0  0  0  0
  150.8236  137.9059  155.5342 N   0  0  0  0  0  0  0  0  0  0  0  0
  149.8761  136.8282  155.2388 C   0  0  0  0  0  0  0  0  0  0  0  0
  148.4565  137.3551  154.9402 C   0  0  0  0  0  0  0  0  0  0  0  0
  148.4731  138.3163  153.8041 N   0  3  0  0  0  0  0  0  0  0  0  0
  147.1355  138.8387  153.3741 C   0  0  2  0  0  0  0  0  0  0  0  0
  146.4168  139.6823  154.4515 C   0  0  0  0  0  0  0  0  0  0  0  0
  146.1974  137.6992  152.8972 C   0  0  0  0  0  0  0  0  0  0  0  0
  144.7824  138.0670  152.9230 N   0  0  0  0  0  0  0  0  0  0  0  0
  143.7684  137.2578  153.2614 C   0  0  0  0  0  0  0  0  0  0  0  0
  143.9248  136.0907  153.6186 O   0  0  0  0  0  0  0  0  0  0  0  0
  142.5881  137.8904  153.1661 N   0  0  0  0  0  0  0  0  0  0  0  0
  141.2991  137.3782  153.4577 C   0  0  0  0  0  0  0  0  0  0  0  0
  141.2198  136.2337  154.1463 N   0  0  0  0  0  0  0  0  0  0  0  0
  139.9030  135.8451  154.3593 N   0  0  0  0  0  0  0  0  0  0  0  0
  139.0398  136.7130  153.8228 C   0  0  0  0  0  0  0  0  0  0  0  0
  139.7495  138.0910  152.9997 S   0  0  0  0  0  0  0  0  0  0  0  0
  149.4456  139.4037  154.0959 C   0  0  0  0  0  0  0  0  0  0  0  0
  150.8441  138.8281  154.3980 C   0  0  0  0  0  0  0  0  0  0  0  0
  150.6355  138.1742  158.9405 H   0  0  0  0  0  0  0  0  0  0  0  0
  151.5957  137.0463  157.9918 H   0  0  0  0  0  0  0  0  0  0  0  0
  149.8342  136.9241  158.0082 H   0  0  0  0  0  0  0  0  0  0  0  0
  149.6611  139.1349  156.8205 H   0  0  0  0  0  0  0  0  0  0  0  0
  151.3913  139.3348  156.9400 H   0  0  0  0  0  0  0  0  0  0  0  0
  150.2443  136.2782  154.3717 H   0  0  0  0  0  0  0  0  0  0  0  0
  149.8495  136.1082  156.0558 H   0  0  0  0  0  0  0  0  0  0  0  0
  147.8450  136.4880  154.6940 H   0  0  0  0  0  0  0  0  0  0  0  0
  148.0102  137.8184  155.8207 H   0  0  0  0  0  0  0  0  0  0  0  0
  147.3047  139.5053  152.5270 H   0  0  0  0  0  0  0  0  0  0  0  0
  145.4198  139.9713  154.1170 H   0  0  0  0  0  0  0  0  0  0  0  0
  146.9492  140.6093  154.6654 H   0  0  0  0  0  0  0  0  0  0  0  0
  146.3005  139.1326  155.3864 H   0  0  0  0  0  0  0  0  0  0  0  0
  146.4433  137.4425  151.8665 H   0  0  0  0  0  0  0  0  0  0  0  0
  146.3574  136.7793  153.4594 H   0  0  0  0  0  0  0  0  0  0  0  0
  144.5578  139.0108  152.6417 H   0  0  0  0  0  0  0  0  0  0  0  0
  142.6108  138.8492  152.8513 H   0  0  0  0  0  0  0  0  0  0  0  0
  137.9776  136.5395  153.9111 H   0  0  0  0  0  0  0  0  0  0  0  0
  149.5362  140.0729  153.2423 H   0  0  0  0  0  0  0  0  0  0  0  0
  149.0871  140.0152  154.9246 H   0  0  0  0  0  0  0  0  0  0  0  0
  151.5524  139.6346  154.5923 H   0  0  0  0  0  0  0  0  0  0  0  0
  151.2179  138.2977  153.5210 H   0  0  0  0  0  0  0  0  0  0  0  0
  148.8422  137.8034  153.0158 H   0  0  0  0  0  0  0  0  0  0  0  0
  1  2  1  0  0  0  0
  1 21  1  0  0  0  0
  1 22  1  0  0  0  0
  1 23  1  0  0  0  0
  2  3  1  0  0  0  0
  2 24  1  0  0  0  0
  2 25  1  0  0  0  0
  3 20  1  0  0  0  0
  3  4  1  0  0  0  0
  4  5  1  0  0  0  0
  4 26  1  0  0  0  0
  4 27  1  0  0  0  0
  5  6  1  0  0  0  0
  5 28  1  0  0  0  0
  5 29  1  0  0  0  0
  6  7  1  0  0  0  0
  6 19  1  0  0  0  0
  6 43  1  0  0  0  0
  7  8  1  0  0  0  0
  7  9  1  0  0  0  0
  7 30  1  0  0  0  0
  8 31  1  0  0  0  0
  8 32  1  0  0  0  0
  8 33  1  0  0  0  0
  9 10  1  0  0  0  0
  9 34  1  0  0  0  0
  9 35  1  0  0  0  0
 10 11  1  0  0  0  0
 10 36  1  0  0  0  0
 11 12  2  0  0  0  0
 11 13  1  0  0  0  0
 13 14  1  0  0  0  0
 13 37  1  0  0  0  0
 14 18  1  0  0  0  0
 14 15  2  0  0  0  0
 15 16  1  0  0  0  0
 16 17  2  0  0  0  0
 17 18  1  0  0  0  0
 17 38  1  0  0  0  0
 19 20  1  0  0  0  0
 19 39  1  0  0  0  0
 19 40  1  0  0  0  0
 20 41  1  0  0  0  0
 20 42  1  0  0  0  0
M  CHG  1   6   1
M  END
> <s_m_source_file>
AV-unprocessed.smi

> <i_m_source_file_index>
1817

> <i_lp_mmshare_version>
43012

> <i_f3d_flags>
0

> <s_epik_input>
W0NIM11bQ0gyXU4xW0NIMl1bQ0gyXU4oW0NIMl1bQ0gyXTEpW0NASF0oW0NIM10pW0NIMl1bTkhdQyg9TylbTkhdYzJubltjSF1zMg==

> <s_epik_cmdline>
J2VwaWtfcHl0aG9uJywgJy1waCcsICc3LjAnLCAnLXRuJywgJzgnLCAnLW1hJywgJzIwMCcsICctbWV0YWxfYmluZGluZycsICctaW1hZScsICc8aW5maWxlLm1hZT4nLCAnLW9tYWUnLCAnPG91dGZpbGUubWFlPic=

> <r_epik_Ionization_Penalty>
0.153808

> <r_epik_Ionization_Penalty_Charging>
0.148467

> <r_epik_Ionization_Penalty_Neutral>
0.00534086

> <r_epik_State_Penalty>
0.974087

> <r_epik_Charging_Adjusted_Penalty>
1.12255

> <i_epik_Tot_Q>
1

> <i_epik_Tot_abs_Q>
1

> <r_epik_Metal_State_Penalty>
1.30894

> <b_epik_Metal_Only>
0

> <s_lp_Force_Field>
OPLS_2005

> <r_lp_Energy>
26.4186

> <b_lp_Chiralities_Consistent>
1

> <s_lp_Variant>
AV-unprocessed.smi:1817-3

> <Gold.Version>
5.8.1

> <Gold.Id.Protein>
6NUR|6NUR_protein|mol2

> <Gold.PLP.Fitness>
41.8000

> <Gold.PLP.PLP>
-27.7025

> <Gold.PLP.part.hbond>
-4.2802

> <Gold.PLP.part.metal>
0.0000

> <Gold.PLP.part.buried>
-4.4351

> <Gold.PLP.part.nonpolar>
-19.6037

> <Gold.PLP.part.repulsive>
0.3011

> <Gold.PLP.ligand.clash>
0.0000

> <Gold.PLP.ligand.torsion>
0.4924

> <Gold.PLP.Chemscore.Hbond>
5.0000

> <Gold.PLP.Chemscore.CHOScore>
0.0000

> <Gold.PLP.Chemscore.Metal>
0.0000

> <Gold.Chemscore.Hbonds>
donor molecule, donor type, donor heavy atom, donor atom, acceptor molecule, acceptor atom, score
      L1  H     6    43       P1  7948  2.00
      L1  H    10    36       P1 10175  1.00
      L1  H    13    37       P1 10175  1.00
      P1  H 11000 11005       L1    16  1.00

> <Gold.PLP.Chemscore.Internal.Correction>
0.0824

> <Gold.Rescore>
     Score         DG    S(hbond)    S(metal)    S(lipo)     H(rot)  DE(clash)    DE(int)     intcor
     18.23     -20.30       3.79        0.00      60.49       1.92       0.13       1.94       ----

> <Gold.Chemscore.Fitness>
18.2316

> <Gold.Chemscore.DG>
-20.3019

> <Gold.Chemscore.ZeroCoef>
-5.4800

> <Gold.Chemscore.Hbond>
3.7899

> <Gold.Chemscore.Metal>
0.0000

> <Gold.Chemscore.Lipo>
60.4944

> <Gold.Chemscore.Internal_Hbond>
0.0000

> <Gold.Chemscore.DEClash>
0.1292

> <Gold.Chemscore.DEInternal>
1.9412

> <Gold.Chemscore.Rot>
1.9196

> <Gold.Chemscore.Internal.Correction>
   9.000000E+99

> <Gold.Chemscore.Hbonds>
donor molecule, donor type, donor heavy atom, donor atom, acceptor molecule, acceptor atom, score
      L1  H     6    43       P1  7948  0.97
      L1  H    10    36       P1 10175  0.99
      L1  H    13    37       P1 10175  0.94
      P1  H 11000 11005       L1    16  0.29

> <Gold.Chemscore.Hbond.Weighted>
-12.6582

> <Gold.Chemscore.Metal.Weighted>
-0.0000

> <Gold.Chemscore.Lipo.Weighted>
-7.0778

> <Gold.Chemscore.Internal_Hbond.Weighted>
0.0000

> <Gold.Chemscore.DEClash.Weighted>
0.1292

> <Gold.Chemscore.DEInternal.Weighted>
1.9412

> <Gold.Chemscore.Rot.Weighted>
4.9141

> <Gold.Chemscore.Internal.Correction.Weighted>
   9.000000E+99

> <Gold.Protein.RotatedTorsions>
[ 6907 6896 6895 6894 ] final   -8.79 input  -60.11 | X-H torsion
[ 7974 7965 7964 7962 ] final -113.46 input  175.53 | X-H torsion
[ 8008 7997 7996 7995 ] final   36.21 input   59.86 | X-H torsion
[ 10167 10162 10161 10158 ] final   72.56 input  -65.29 | X-H torsion
[ 10718 10713 10712 10709 ] final -178.65 input   66.30 | X-H torsion
[ 10763 10752 10751 10750 ] final   90.74 input  -60.55 | X-H torsion
[ 11005 11000 10999 10996 ] final   44.96 input  -57.11 | X-H torsion

> <Gold.Protein.ActiveResidues>
 VAL166  LYS551  ARG553  GLY616  TRP617  ASP618  TYR619  PRO620  LYS621  CYS622 
 ASP623  PHE694  ASN695  SER759  ASP760  ASP761  ALA762  ILE779  LEU786  VAL792 
 PHE793  MET794  SER795  GLU796  ALA797  LYS798  CYS799  TRP800  GLU811  SER814 

> <Gold.Protein.RotatedAtoms>
  151.4280  135.1006  159.9633 H   0  0  0  0  0  0  0  0  0  0  0  0  # atno 6907 bound_to 6896
  152.4966  133.8644  159.7277 H   0  0  0  0  0  0  0  0  0  0  0  0  # atno 6908 bound_to 6896
  150.9175  133.6862  159.2867 H   0  0  0  0  0  0  0  0  0  0  0  0  # atno 6909 bound_to 6896
  145.1318  140.8729  143.3753 H   0  0  0  0  0  0  0  0  0  0  0  0  # atno 7974 bound_to 7965
  155.1836  140.3302  155.4370 H   0  0  0  0  0  0  0  0  0  0  0  0  # atno 8008 bound_to 7997
  156.2468  140.1922  156.6883 H   0  0  0  0  0  0  0  0  0  0  0  0  # atno 8009 bound_to 7997
  154.6254  140.0590  156.9653 H   0  0  0  0  0  0  0  0  0  0  0  0  # atno 8010 bound_to 7997
  140.0339  144.5443  150.7485 H   0  0  0  0  0  0  0  0  0  0  0  0  # atno 10167 bound_to 10162
  156.8474  130.9707  151.3095 H   0  0  0  0  0  0  0  0  0  0  0  0  # atno 10718 bound_to 10713
  153.2008  135.4423  155.0264 H   0  0  0  0  0  0  0  0  0  0  0  0  # atno 10763 bound_to 10752
  154.8146  135.3309  154.7215 H   0  0  0  0  0  0  0  0  0  0  0  0  # atno 10764 bound_to 10752
  153.7660  135.6988  153.4971 H   0  0  0  0  0  0  0  0  0  0  0  0  # atno 10765 bound_to 10752
  140.1504  134.4469  155.8386 H   0  0  0  0  0  0  0  0  0  0  0  0  # atno 11005 bound_to 11000
  145.0627  139.3093  143.5872 LP  0  0  0  0  0  0  0  0  0  0  0  0  # atno 17320 bound_to 7965
  146.3513  140.0074  142.8670 LP  0  0  0  0  0  0  0  0  0  0  0  0  # atno 17321 bound_to 7965
  140.7290  143.2667  151.4020 LP  0  0  0  0  0  0  0  0  0  0  0  0  # atno 17342 bound_to 10162
  139.6058  144.1201  152.2247 LP  0  0  0  0  0  0  0  0  0  0  0  0  # atno 17343 bound_to 10162
  157.6322  130.8738  149.9294 LP  0  0  0  0  0  0  0  0  0  0  0  0  # atno 17370 bound_to 10713
  156.0847  130.3669  150.0511 LP  0  0  0  0  0  0  0  0  0  0  0  0  # atno 17371 bound_to 10713
  141.2198  133.6870  156.7410 LP  0  0  0  0  0  0  0  0  0  0  0  0  # atno 17394 bound_to 11000
  140.2612  134.8465  157.3760 LP  0  0  0  0  0  0  0  0  0  0  0  0  # atno 17395 bound_to 11000

$$$$
