AV-unprocessed.smi:2445|AV-procd|sdf|9634|dock7
  -GOLD-   2272013263D 1   1.00000     0.00000
 Structure written by MMmdl.
 40 41  0  0  0  0  0  0  0  0  1 V2000
  144.0830  133.3755  147.8320 C   0  0  0  0  0  0  0  0  0  0  0  0
  144.3445  133.5388  149.2908 C   0  0  0  0  0  0  0  0  0  0  0  0
  143.4914  134.0302  150.2475 C   0  0  0  0  0  0  0  0  0  0  0  0
  144.0385  134.0553  151.5321 N   0  0  0  0  0  0  0  0  0  0  0  0
  145.2911  133.5913  151.5643 C   0  0  0  0  0  0  0  0  0  0  0  0
  146.1145  133.5037  152.8109 C   0  0  1  0  0  0  0  0  0  0  0  0
  147.5799  133.1542  152.4982 C   0  0  0  0  0  0  0  0  0  0  0  0
  145.9358  134.7562  153.6963 C   0  0  0  0  0  0  0  0  0  0  0  0
  146.9994  135.7378  153.5087 N   0  0  0  0  0  0  0  0  0  0  0  0
  147.2406  136.7743  154.3225 C   0  0  0  0  0  0  0  0  0  0  0  0
  146.5763  137.0322  155.3265 O   0  0  0  0  0  0  0  0  0  0  0  0
  148.2996  137.4873  153.9166 N   0  0  0  0  0  0  0  0  0  0  0  0
  148.8398  138.6530  154.6090 C   0  0  2  0  0  0  0  0  0  0  0  0
  148.4559  139.9433  153.9148 C   0  0  0  0  0  0  0  0  0  0  0  0
  149.5530  140.8992  154.3747 C   0  0  0  0  0  0  0  0  0  0  0  0
  150.6973  140.0948  154.6450 O   0  0  0  0  0  0  0  0  0  0  0  0
  150.3700  138.7135  154.5331 C   0  0  1  0  0  0  0  0  0  0  0  0
  151.0951  137.9084  155.6183 C   0  0  0  0  0  0  0  0  0  0  0  0
  145.8797  133.0863  149.9840 S   0  0  0  0  0  0  0  0  0  0  0  0
  143.0779  133.7094  147.5728 H   0  0  0  0  0  0  0  0  0  0  0  0
  144.1771  132.3303  147.5371 H   0  0  0  0  0  0  0  0  0  0  0  0
  144.7930  133.9583  147.2449 H   0  0  0  0  0  0  0  0  0  0  0  0
  142.4808  134.3828  150.1032 H   0  0  0  0  0  0  0  0  0  0  0  0
  145.7145  132.6588  153.3730 H   0  0  0  0  0  0  0  0  0  0  0  0
  147.6446  132.2397  151.9079 H   0  0  0  0  0  0  0  0  0  0  0  0
  148.1579  132.9937  153.4083 H   0  0  0  0  0  0  0  0  0  0  0  0
  148.0644  133.9505  151.9325 H   0  0  0  0  0  0  0  0  0  0  0  0
  144.9880  135.2434  153.4656 H   0  0  0  0  0  0  0  0  0  0  0  0
  145.8862  134.4710  154.7487 H   0  0  0  0  0  0  0  0  0  0  0  0
  147.6013  135.6088  152.7085 H   0  0  0  0  0  0  0  0  0  0  0  0
  148.7790  137.1933  153.0781 H   0  0  0  0  0  0  0  0  0  0  0  0
  148.5054  138.6959  155.6477 H   0  0  0  0  0  0  0  0  0  0  0  0
  148.5055  139.8246  152.8311 H   0  0  0  0  0  0  0  0  0  0  0  0
  147.4550  140.2894  154.1735 H   0  0  0  0  0  0  0  0  0  0  0  0
  149.7722  141.6652  153.6306 H   0  0  0  0  0  0  0  0  0  0  0  0
  149.2590  141.3999  155.2979 H   0  0  0  0  0  0  0  0  0  0  0  0
  150.7031  138.3842  153.5472 H   0  0  0  0  0  0  0  0  0  0  0  0
  150.8755  136.8442  155.5325 H   0  0  0  0  0  0  0  0  0  0  0  0
  150.7979  138.2331  156.6155 H   0  0  0  0  0  0  0  0  0  0  0  0
  152.1752  138.0304  155.5355 H   0  0  0  0  0  0  0  0  0  0  0  0
  1  2  1  0  0  0  0
  1 20  1  0  0  0  0
  1 21  1  0  0  0  0
  1 22  1  0  0  0  0
  2 19  1  0  0  0  0
  2  3  2  0  0  0  0
  3  4  1  0  0  0  0
  3 23  1  0  0  0  0
  4  5  2  0  0  0  0
  5  6  1  0  0  0  0
  5 19  1  0  0  0  0
  6  7  1  0  0  0  0
  6  8  1  0  0  0  0
  6 24  1  0  0  0  0
  7 25  1  0  0  0  0
  7 26  1  0  0  0  0
  7 27  1  0  0  0  0
  8  9  1  0  0  0  0
  8 28  1  0  0  0  0
  8 29  1  0  0  0  0
  9 10  1  0  0  0  0
  9 30  1  0  0  0  0
 10 11  2  0  0  0  0
 10 12  1  0  0  0  0
 12 13  1  0  0  0  0
 12 31  1  0  0  0  0
 13 17  1  0  0  0  0
 13 14  1  0  0  0  0
 13 32  1  0  0  0  0
 14 15  1  0  0  0  0
 14 33  1  0  0  0  0
 14 34  1  0  0  0  0
 15 16  1  0  0  0  0
 15 35  1  0  0  0  0
 15 36  1  0  0  0  0
 16 17  1  0  0  0  0
 17 18  1  0  0  0  0
 17 37  1  0  0  0  0
 18 38  1  0  0  0  0
 18 39  1  0  0  0  0
 18 40  1  0  0  0  0
M  END
> <s_m_source_file>
AV-unprocessed.smi

> <i_m_source_file_index>
2445

> <i_lp_mmshare_version>
43012

> <i_f3d_flags>
0

> <s_epik_input>
W0NIM11jMVtjSF1uYyhzMSlbQ0BIXShbQ0gzXSlbQ0gyXVtOSF1DKD1PKVtOSF1bQ0BASF0yW0NIMl1bQ0gyXU9bQ0BIXTJbQ0gzXQ==

> <s_epik_cmdline>
J2VwaWtfcHl0aG9uJywgJy1waCcsICc3LjAnLCAnLXRuJywgJzgnLCAnLW1hJywgJzIwMCcsICctbWV0YWxfYmluZGluZycsICctaW1hZScsICc8aW5maWxlLm1hZT4nLCAnLW9tYWUnLCAnPG91dGZpbGUubWFlPic=

> <r_epik_Ionization_Penalty>
0.000649483

> <r_epik_Ionization_Penalty_Charging>
0

> <r_epik_Ionization_Penalty_Neutral>
0.000649483

> <r_epik_State_Penalty>
0.000379895

> <r_epik_Charging_Adjusted_Penalty>
0.000379895

> <i_epik_Tot_Q>
0

> <i_epik_Tot_abs_Q>
0

> <r_epik_Metal_State_Penalty>
-0

> <b_epik_Metal_Only>
0

> <s_lp_Force_Field>
OPLS_2005

> <r_lp_Energy>
5.33919

> <b_lp_Chiralities_Consistent>
1

> <s_lp_Variant>
AV-unprocessed.smi:2445-2

> <Gold.Version>
5.8.1

> <Gold.Id.Protein>
6NUR|6NUR_protein|mol2

> <Gold.PLP.Fitness>
43.6622

> <Gold.PLP.PLP>
-33.9910

> <Gold.PLP.part.hbond>
-2.8785

> <Gold.PLP.part.metal>
0.0000

> <Gold.PLP.part.buried>
-3.5424

> <Gold.PLP.part.nonpolar>
-28.0681

> <Gold.PLP.part.repulsive>
0.2757

> <Gold.PLP.ligand.clash>
0.0000

> <Gold.PLP.ligand.torsion>
1.1457

> <Gold.PLP.Chemscore.Hbond>
2.9440

> <Gold.PLP.Chemscore.CHOScore>
1.0000

> <Gold.PLP.Chemscore.Metal>
0.0000

> <Gold.Chemscore.Hbonds>
donor molecule, donor type, donor heavy atom, donor atom, acceptor molecule, acceptor atom, score
      L1  H     9    30       P1  7948  0.93
      L1  H    12    31       P1  7948  1.00
      P1  H  7989  7998       L1    16  0.65

> <Gold.PLP.Chemscore.Internal.Correction>
0.1305

> <Gold.Rescore>
     Score         DG    S(hbond)    S(metal)    S(lipo)     H(rot)  DE(clash)    DE(int)     intcor
     19.66     -20.61       2.51        0.00      91.23       1.53       0.07       0.88       ----

> <Gold.Chemscore.Fitness>
19.6551

> <Gold.Chemscore.DG>
-20.6087

> <Gold.Chemscore.ZeroCoef>
-5.4800

> <Gold.Chemscore.Hbond>
2.5085

> <Gold.Chemscore.Metal>
0.0000

> <Gold.Chemscore.Lipo>
91.2283

> <Gold.Chemscore.Internal_Hbond>
0.0000

> <Gold.Chemscore.DEClash>
0.0686

> <Gold.Chemscore.DEInternal>
0.8850

> <Gold.Chemscore.Rot>
1.5325

> <Gold.Chemscore.Internal.Correction>
   9.000000E+99

> <Gold.Chemscore.Hbonds>
donor molecule, donor type, donor heavy atom, donor atom, acceptor molecule, acceptor atom, score
      L1  H     9    30       P1  7948  0.90
      L1  H    12    31       P1  7948  0.92
      P1  H  7989  7998       L1    16  0.06

> <Gold.Chemscore.Hbond.Weighted>
-8.3783

> <Gold.Chemscore.Metal.Weighted>
-0.0000

> <Gold.Chemscore.Lipo.Weighted>
-10.6737

> <Gold.Chemscore.Internal_Hbond.Weighted>
0.0000

> <Gold.Chemscore.DEClash.Weighted>
0.0686

> <Gold.Chemscore.DEInternal.Weighted>
0.8850

> <Gold.Chemscore.Rot.Weighted>
3.9233

> <Gold.Chemscore.Internal.Correction.Weighted>
   9.000000E+99

> <Gold.Protein.RotatedTorsions>
[ 6907 6896 6895 6894 ] final  175.27 input  -60.11 | X-H torsion
[ 7974 7965 7964 7962 ] final  127.94 input  175.53 | X-H torsion
[ 8008 7997 7996 7995 ] final  -60.17 input   59.86 | X-H torsion
[ 10167 10162 10161 10158 ] final  120.67 input  -65.29 | X-H torsion
[ 10718 10713 10712 10709 ] final  -97.97 input   66.30 | X-H torsion
[ 10763 10752 10751 10750 ] final   25.48 input  -60.55 | X-H torsion
[ 11005 11000 10999 10996 ] final  -98.32 input  -57.11 | X-H torsion

> <Gold.Protein.ActiveResidues>
 VAL166  LYS551  ARG553  GLY616  TRP617  ASP618  TYR619  PRO620  LYS621  CYS622 
 ASP623  PHE694  ASN695  SER759  ASP760  ASP761  ALA762  ILE779  LEU786  VAL792 
 PHE793  MET794  SER795  GLU796  ALA797  LYS798  CYS799  TRP800  GLU811  SER814 

> <Gold.Protein.RotatedAtoms>
  151.7389  133.3321  159.3360 H   0  0  0  0  0  0  0  0  0  0  0  0  # atno 6907 bound_to 6896
  150.7581  134.6296  159.6188 H   0  0  0  0  0  0  0  0  0  0  0  0  # atno 6908 bound_to 6896
  152.3543  134.6964  160.0278 H   0  0  0  0  0  0  0  0  0  0  0  0  # atno 6909 bound_to 6896
  145.0450  139.3930  143.5082 H   0  0  0  0  0  0  0  0  0  0  0  0  # atno 7974 bound_to 7965
  154.4386  140.1045  156.6232 H   0  0  0  0  0  0  0  0  0  0  0  0  # atno 8008 bound_to 7997
  155.5685  140.3489  155.4490 H   0  0  0  0  0  0  0  0  0  0  0  0  # atno 8009 bound_to 7997
  156.0407  140.1281  157.0148 H   0  0  0  0  0  0  0  0  0  0  0  0  # atno 8010 bound_to 7997
  139.5967  144.7044  151.3159 H   0  0  0  0  0  0  0  0  0  0  0  0  # atno 10167 bound_to 10162
  156.0096  130.5217  150.6453 H   0  0  0  0  0  0  0  0  0  0  0  0  # atno 10718 bound_to 10713
  153.0689  135.6582  154.0292 H   0  0  0  0  0  0  0  0  0  0  0  0  # atno 10763 bound_to 10752
  153.9943  135.2943  155.3410 H   0  0  0  0  0  0  0  0  0  0  0  0  # atno 10764 bound_to 10752
  154.7056  135.5226  153.8660 H   0  0  0  0  0  0  0  0  0  0  0  0  # atno 10765 bound_to 10752
  141.1349  133.8236  157.0824 H   0  0  0  0  0  0  0  0  0  0  0  0  # atno 11005 bound_to 11000
  146.3513  140.0071  142.8670 LP  0  0  0  0  0  0  0  0  0  0  0  0  # atno 17320 bound_to 7965
  145.1599  140.9667  143.4383 LP  0  0  0  0  0  0  0  0  0  0  0  0  # atno 17321 bound_to 7965
  140.7218  143.7116  150.7765 LP  0  0  0  0  0  0  0  0  0  0  0  0  # atno 17342 bound_to 10162
  140.0683  143.5086  152.2593 LP  0  0  0  0  0  0  0  0  0  0  0  0  # atno 17343 bound_to 10162
  157.4225  131.0838  151.1117 LP  0  0  0  0  0  0  0  0  0  0  0  0  # atno 17370 bound_to 10713
  157.1714  130.6269  149.5642 LP  0  0  0  0  0  0  0  0  0  0  0  0  # atno 17371 bound_to 10713
  140.0443  134.9838  157.1020 LP  0  0  0  0  0  0  0  0  0  0  0  0  # atno 17394 bound_to 11000
  140.4086  134.2005  155.7163 LP  0  0  0  0  0  0  0  0  0  0  0  0  # atno 17395 bound_to 11000

$$$$
