AV-unprocessed.smi:101|AV-procd|sdf|933|dock7
  -GOLD-   2262017453D 1   1.00000     0.00000
 Structure written by MMmdl.
 43 45  0  0  0  0  0  0  0  0  2 V2000
  147.5533  135.4704  157.1197 C   0  0  0  0  0  0  0  0  0  0  0  0
  147.4256  136.4950  156.0058 C   0  0  0  0  0  0  0  0  0  0  0  0
  148.4452  137.3098  155.6541 C   0  0  0  0  0  0  0  0  0  0  0  0
  148.3247  138.2479  154.6405 N   0  0  0  0  0  0  0  0  0  0  0  0
  149.4806  139.1481  154.2302 C   0  0  2  0  0  0  0  0  0  0  0  0
  150.5708  138.9520  155.0805 O   0  0  0  0  0  0  0  0  0  0  0  0
  150.5373  139.9113  156.1280 C   0  0  1  0  0  0  0  0  0  0  0  0
  151.9369  140.0490  156.7400 C   0  0  0  0  0  0  0  0  0  0  0  0
  151.8814  140.9305  157.8498 O   0  0  0  0  0  0  0  0  0  0  0  0
  152.8014  140.8464  158.8295 C   0  0  0  0  0  0  0  0  0  0  0  0
  153.6556  139.9595  158.8895 O   0  0  0  0  0  0  0  0  0  0  0  0
  152.6766  141.9403  159.8357 C   0  0  0  0  0  0  0  0  0  0  0  0
  153.1568  141.7319  161.1498 C   0  0  0  0  0  0  0  0  0  0  0  0
  153.0490  142.7455  162.1218 C   0  0  0  0  0  0  0  0  0  0  0  0
  152.4598  143.9798  161.7920 C   0  0  0  0  0  0  0  0  0  0  0  0
  151.9796  144.2001  160.4879 C   0  0  0  0  0  0  0  0  0  0  0  0
  152.0872  143.1882  159.5139 C   0  0  0  0  0  0  0  0  0  0  0  0
  150.0249  141.1751  155.4345 C   0  0  2  0  0  0  0  0  0  0  0  0
  149.3026  141.9765  156.3487 O   0  0  0  0  0  0  0  0  0  0  0  0
  149.0994  140.6426  154.3405 C   0  0  1  0  0  0  0  0  0  0  0  0
  149.3403  141.3294  153.1291 O   0  0  0  0  0  0  0  0  0  0  0  0
  147.1124  138.3188  153.9030 C   0  0  0  0  0  0  0  0  0  0  0  0
  147.0521  139.1154  152.9664 O   0  0  0  0  0  0  0  0  0  0  0  0
  146.0753  137.5078  154.2565 N   0  5  0  0  0  0  0  0  0  0  0  0
  146.1575  136.6066  155.2760 C   0  0  0  0  0  0  0  0  0  0  0  0
  145.2090  135.8899  155.5939 O   0  0  0  0  0  0  0  0  0  0  0  0
  148.5501  135.4858  157.5617 H   0  0  0  0  0  0  0  0  0  0  0  0
  147.3689  134.4660  156.7373 H   0  0  0  0  0  0  0  0  0  0  0  0
  146.8305  135.6769  157.9095 H   0  0  0  0  0  0  0  0  0  0  0  0
  149.3775  137.2064  156.1864 H   0  0  0  0  0  0  0  0  0  0  0  0
  149.7383  138.8202  153.2214 H   0  0  0  0  0  0  0  0  0  0  0  0
  149.8260  139.5766  156.8847 H   0  0  0  0  0  0  0  0  0  0  0  0
  152.2931  139.0754  157.0785 H   0  0  0  0  0  0  0  0  0  0  0  0
  152.6420  140.4136  155.9916 H   0  0  0  0  0  0  0  0  0  0  0  0
  153.6121  140.7920  161.4270 H   0  0  0  0  0  0  0  0  0  0  0  0
  153.4190  142.5748  163.1221 H   0  0  0  0  0  0  0  0  0  0  0  0
  152.3764  144.7562  162.5382 H   0  0  0  0  0  0  0  0  0  0  0  0
  151.5279  145.1474  160.2330 H   0  0  0  0  0  0  0  0  0  0  0  0
  151.7091  143.3908  158.5223 H   0  0  0  0  0  0  0  0  0  0  0  0
  150.8564  141.7398  155.0094 H   0  0  0  0  0  0  0  0  0  0  0  0
  149.2931  142.8635  156.0232 H   0  0  0  0  0  0  0  0  0  0  0  0
  148.0487  140.7456  154.6171 H   0  0  0  0  0  0  0  0  0  0  0  0
  149.2009  140.7296  152.4127 H   0  0  0  0  0  0  0  0  0  0  0  0
  1  2  1  0  0  0  0
  1 27  1  0  0  0  0
  1 28  1  0  0  0  0
  1 29  1  0  0  0  0
  2 25  1  0  0  0  0
  2  3  2  0  0  0  0
  3  4  1  0  0  0  0
  3 30  1  0  0  0  0
  4  5  1  0  0  0  0
  4 22  1  0  0  0  0
  5 20  1  0  0  0  0
  5  6  1  0  0  0  0
  5 31  1  0  0  0  0
  6  7  1  0  0  0  0
  7  8  1  0  0  0  0
  7 18  1  0  0  0  0
  7 32  1  0  0  0  0
  8  9  1  0  0  0  0
  8 33  1  0  0  0  0
  8 34  1  0  0  0  0
  9 10  1  0  0  0  0
 10 11  2  0  0  0  0
 10 12  1  0  0  0  0
 12 17  1  0  0  0  0
 12 13  2  0  0  0  0
 13 14  1  0  0  0  0
 13 35  1  0  0  0  0
 14 15  2  0  0  0  0
 14 36  1  0  0  0  0
 15 16  1  0  0  0  0
 15 37  1  0  0  0  0
 16 17  2  0  0  0  0
 16 38  1  0  0  0  0
 17 39  1  0  0  0  0
 18 19  1  0  0  0  0
 18 20  1  0  0  0  0
 18 40  1  0  0  0  0
 19 41  1  0  0  0  0
 20 21  1  0  0  0  0
 20 42  1  0  0  0  0
 21 43  1  0  0  0  0
 22 23  2  0  0  0  0
 22 24  1  0  0  0  0
 24 25  1  0  0  0  0
 25 26  2  0  0  0  0
M  CHG  1  24  -1
M  END
> <s_m_source_file>
AV-unprocessed.smi

> <i_m_source_file_index>
101

> <i_lp_mmshare_version>
43012

> <i_f3d_flags>
0

> <s_epik_input>
Tz1jMVtuSF1jKD1PKW4oW2NIXWMxW0NIM10pW0NAQEhdMk9bQ0BIXShbQ0BASF0oW09IXSlbQ0BIXTJbT0hdKVtDSDJdT0MoPU8pYzNbY0hdW2NIXVtjSF1bY0hdW2NIXTM=

> <s_epik_cmdline>
J2VwaWtfcHl0aG9uJywgJy1waCcsICc3LjAnLCAnLXRuJywgJzgnLCAnLW1hJywgJzIwMCcsICctbWV0YWxfYmluZGluZycsICctaW1hZScsICc8aW5maWxlLm1hZT4nLCAnLW9tYWUnLCAnPG91dGZpbGUubWFlPic=

> <r_lp_tautomer_probability>
0.999537

> <r_epik_Ionization_Penalty>
3.21006

> <r_epik_Ionization_Penalty_Charging>
5.75142e-08

> <r_epik_Ionization_Penalty_Neutral>
3.21006

> <r_epik_State_Penalty>
3.20925

> <r_epik_Charging_Adjusted_Penalty>
3.20925

> <i_epik_Tot_Q>
-1

> <i_epik_Tot_abs_Q>
1

> <r_epik_Metal_State_Penalty>
0.119957

> <b_epik_Metal_Only>
1

> <s_epik_Chemistry_Notes>
This compound has an ester and may undergo hydrolysis at high or low pH. This compound contains an acetal/aminal-like group ( X-CH(R)-Y where X, Y are N, S, or O) that may be acid/base labile, releasing an aldehyde.

> <s_lp_Force_Field>
OPLS_2005

> <r_lp_Energy>
40.7876

> <b_lp_Chiralities_Consistent>
1

> <s_lp_Variant>
AV-unprocessed.smi:101-21

> <Gold.Version>
5.8.1

> <Gold.Id.Protein>
6NUR|6NUR_protein|mol2

> <Gold.PLP.Fitness>
52.7715

> <Gold.PLP.PLP>
-42.8903

> <Gold.PLP.part.hbond>
-4.4497

> <Gold.PLP.part.metal>
0.0000

> <Gold.PLP.part.buried>
-4.9480

> <Gold.PLP.part.nonpolar>
-33.7262

> <Gold.PLP.part.repulsive>
0.4308

> <Gold.PLP.ligand.clash>
0.0000

> <Gold.PLP.ligand.torsion>
0.4875

> <Gold.PLP.Chemscore.Hbond>
3.5941

> <Gold.PLP.Chemscore.CHOScore>
0.0000

> <Gold.PLP.Chemscore.Metal>
0.0000

> <Gold.Chemscore.Hbonds>
donor molecule, donor type, donor heavy atom, donor atom, acceptor molecule, acceptor atom, score
      L1  H    19    41       P1  8028  1.00
      L1  H    21    43       P1  7957  0.88
      P1  H  7997  8009       L1    11  0.98
      P1  H  8011  8017       L1    21  0.59

> <Gold.PLP.Chemscore.Internal.Correction>
0.0741

> <Gold.Rescore>
     Score         DG    S(hbond)    S(metal)    S(lipo)     H(rot)  DE(clash)    DE(int)     intcor
     17.12     -17.93       2.87        0.00      95.92       3.27       0.21       0.60       ----

> <Gold.Chemscore.Fitness>
17.1240

> <Gold.Chemscore.DG>
-17.9329

> <Gold.Chemscore.ZeroCoef>
-5.4800

> <Gold.Chemscore.Hbond>
2.8713

> <Gold.Chemscore.Metal>
0.0000

> <Gold.Chemscore.Lipo>
95.9209

> <Gold.Chemscore.Internal_Hbond>
0.0000

> <Gold.Chemscore.DEClash>
0.2108

> <Gold.Chemscore.DEInternal>
0.5981

> <Gold.Chemscore.Rot>
3.2656

> <Gold.Chemscore.Internal.Correction>
   9.000000E+99

> <Gold.Chemscore.Hbonds>
donor molecule, donor type, donor heavy atom, donor atom, acceptor molecule, acceptor atom, score
      L1  H    19    41       P1  8028  0.99
      L1  H    21    43       P1  7957  0.81
      P1  H  7997  8009       L1    11  0.65
      P1  H  8011  8017       L1    21  0.08

> <Gold.Chemscore.Hbond.Weighted>
-9.5900

> <Gold.Chemscore.Metal.Weighted>
-0.0000

> <Gold.Chemscore.Lipo.Weighted>
-11.2227

> <Gold.Chemscore.Internal_Hbond.Weighted>
0.0000

> <Gold.Chemscore.DEClash.Weighted>
0.2108

> <Gold.Chemscore.DEInternal.Weighted>
0.5981

> <Gold.Chemscore.Rot.Weighted>
8.3598

> <Gold.Chemscore.Internal.Correction.Weighted>
   9.000000E+99

> <Gold.Protein.RotatedTorsions>
[ 6907 6896 6895 6894 ] final  166.30 input  -60.11 | X-H torsion
[ 7974 7965 7964 7962 ] final   13.87 input  175.53 | X-H torsion
[ 8008 7997 7996 7995 ] final  133.27 input   59.86 | X-H torsion
[ 10167 10162 10161 10158 ] final   61.38 input  -65.29 | X-H torsion
[ 10718 10713 10712 10709 ] final   41.66 input   66.30 | X-H torsion
[ 10763 10752 10751 10750 ] final -179.01 input  -60.55 | X-H torsion
[ 11005 11000 10999 10996 ] final   51.80 input  -57.11 | X-H torsion

> <Gold.Protein.ActiveResidues>
 VAL166  LYS551  ARG553  GLY616  TRP617  ASP618  TYR619  PRO620  LYS621  CYS622 
 ASP623  PHE694  ASN695  SER759  ASP760  ASP761  ALA762  ILE779  LEU786  VAL792 
 PHE793  MET794  SER795  GLU796  ALA797  LYS798  CYS799  TRP800  GLU811  SER814 

> <Gold.Protein.RotatedAtoms>
  151.8810  133.3495  159.3766 H   0  0  0  0  0  0  0  0  0  0  0  0  # atno 6907 bound_to 6896
  150.7127  134.5018  159.5574 H   0  0  0  0  0  0  0  0  0  0  0  0  # atno 6908 bound_to 6896
  152.2570  134.8074  160.0488 H   0  0  0  0  0  0  0  0  0  0  0  0  # atno 6909 bound_to 6896
  146.2319  139.9124  142.8522 H   0  0  0  0  0  0  0  0  0  0  0  0  # atno 7974 bound_to 7965
  156.2991  140.2525  156.3225 H   0  0  0  0  0  0  0  0  0  0  0  0  # atno 8008 bound_to 7997
  154.9221  140.0400  157.2022 H   0  0  0  0  0  0  0  0  0  0  0  0  # atno 8009 bound_to 7997
  154.8301  140.2874  155.5732 H   0  0  0  0  0  0  0  0  0  0  0  0  # atno 8010 bound_to 7997
  140.1553  144.4423  150.6737 H   0  0  0  0  0  0  0  0  0  0  0  0  # atno 10167 bound_to 10162
  157.3961  130.7833  149.7309 H   0  0  0  0  0  0  0  0  0  0  0  0  # atno 10718 bound_to 10713
  154.5405  135.2806  155.1099 H   0  0  0  0  0  0  0  0  0  0  0  0  # atno 10763 bound_to 10752
  154.2584  135.6326  153.5269 H   0  0  0  0  0  0  0  0  0  0  0  0  # atno 10764 bound_to 10752
  152.9978  135.5599  154.5943 H   0  0  0  0  0  0  0  0  0  0  0  0  # atno 10765 bound_to 10752
  140.0902  134.5219  155.8859 H   0  0  0  0  0  0  0  0  0  0  0  0  # atno 11005 bound_to 11000
  145.2216  140.9937  143.4042 LP  0  0  0  0  0  0  0  0  0  0  0  0  # atno 17320 bound_to 7965
  144.9605  139.3985  143.6358 LP  0  0  0  0  0  0  0  0  0  0  0  0  # atno 17321 bound_to 7965
  140.6677  143.2274  151.5703 LP  0  0  0  0  0  0  0  0  0  0  0  0  # atno 17342 bound_to 10162
  139.5406  144.2658  152.1343 LP  0  0  0  0  0  0  0  0  0  0  0  0  # atno 17343 bound_to 10162
  155.9810  130.4023  150.3493 LP  0  0  0  0  0  0  0  0  0  0  0  0  # atno 17370 bound_to 10713
  157.1615  131.0346  151.2839 LP  0  0  0  0  0  0  0  0  0  0  0  0  # atno 17371 bound_to 10713
  141.2075  133.6665  156.6312 LP  0  0  0  0  0  0  0  0  0  0  0  0  # atno 17394 bound_to 11000
  140.3363  134.7887  157.4364 LP  0  0  0  0  0  0  0  0  0  0  0  0  # atno 17395 bound_to 11000

$$$$
