AV-unprocessed.smi:16|AV-procd|sdf|92|dock4
  -GOLD-   2262015233D 1   1.00000     0.00000
 Structure written by MMmdl.
 60 64  0  0  0  0  0  0  0  0  2 V2000
  151.9220  144.4339  157.7323 C   0  0  0  0  0  0  0  0  0  0  0  0
  150.9009  143.5617  158.4778 C   0  0  0  0  0  0  0  0  0  0  0  0
  151.5354  142.4294  159.1995 N   0  3  2  0  0  0  0  0  0  0  0  0
  152.4280  142.8953  160.2933 C   0  0  0  0  0  0  0  0  0  0  0  0
  152.9883  141.7141  161.1026 C   0  0  0  0  0  0  0  0  0  0  0  0
  153.7169  140.7313  160.1801 C   0  0  1  0  0  0  0  0  0  0  0  0
  154.1811  139.6169  160.9327 O   0  0  0  0  0  0  0  0  0  0  0  0
  154.9288  138.7141  160.1243 C   0  0  0  0  0  0  0  0  0  0  0  0
  154.0356  138.1726  158.9959 C   0  0  0  0  0  0  0  0  0  0  0  0
  153.4474  139.2686  158.2317 N   0  0  0  0  0  0  0  0  0  0  0  0
  152.7604  138.7935  157.1676 C   0  0  0  0  0  0  0  0  0  0  0  0
  153.0180  139.2659  155.9191 N   0  0  0  0  0  0  0  0  0  0  0  0
  152.3333  138.7921  154.8732 C   0  0  0  0  0  0  0  0  0  0  0  0
  151.3706  137.8673  154.8553 N   0  0  0  0  0  0  0  0  0  0  0  0
  151.1068  137.4001  156.1096 C   0  0  0  0  0  0  0  0  0  0  0  0
  151.7523  137.8056  157.3103 C   0  0  0  0  0  0  0  0  0  0  0  0
  151.2382  137.1034  158.3919 N   0  0  0  0  0  0  0  0  0  0  0  0
  150.3403  136.3196  157.8591 C   0  0  0  0  0  0  0  0  0  0  0  0
  150.1781  136.4509  156.4973 N   0  0  0  0  0  0  0  0  0  0  0  0
  149.2989  135.6934  155.6563 C   0  0  0  0  0  0  0  0  0  0  0  0
  148.5927  134.4416  156.1807 C   0  0  0  0  0  0  0  0  0  0  0  0
  148.6596  133.8213  154.7663 C   0  0  0  0  0  0  0  0  0  0  0  0
  149.0256  132.3291  154.7124 C   0  0  0  0  0  0  0  0  0  0  0  0
  150.1749  132.0567  155.4881 O   0  0  0  0  0  0  0  0  0  0  0  0
  147.4236  134.0730  153.8793 C   0  0  0  0  0  0  0  0  0  0  0  0
  147.6614  133.6902  152.5397 O   0  0  0  0  0  0  0  0  0  0  0  0
  149.8386  134.7936  154.5422 C   0  0  0  0  0  0  0  0  0  0  0  0
  152.7541  140.2442  159.0782 C   0  0  2  0  0  0  0  0  0  0  0  0
  152.2239  141.4692  158.2943 C   0  0  0  0  0  0  0  0  0  0  0  0
  154.5733  141.2402  159.7325 H   0  0  0  0  0  0  0  0  0  0  0  0
  151.9105  139.7419  159.5551 H   0  0  0  0  0  0  0  0  0  0  0  0
  151.4133  145.1918  157.1360 H   0  0  0  0  0  0  0  0  0  0  0  0
  152.5306  143.8354  157.0539 H   0  0  0  0  0  0  0  0  0  0  0  0
  152.5919  144.9582  158.4131 H   0  0  0  0  0  0  0  0  0  0  0  0
  150.3101  144.1643  159.1691 H   0  0  0  0  0  0  0  0  0  0  0  0
  150.2025  143.1685  157.7380 H   0  0  0  0  0  0  0  0  0  0  0  0
  153.2451  143.4819  159.8702 H   0  0  0  0  0  0  0  0  0  0  0  0
  151.8767  143.5562  160.9634 H   0  0  0  0  0  0  0  0  0  0  0  0
  153.6697  142.0794  161.8716 H   0  0  0  0  0  0  0  0  0  0  0  0
  152.1764  141.2036  161.6227 H   0  0  0  0  0  0  0  0  0  0  0  0
  155.8097  139.2134  159.7177 H   0  0  0  0  0  0  0  0  0  0  0  0
  155.2868  137.8935  160.7462 H   0  0  0  0  0  0  0  0  0  0  0  0
  154.6232  137.5304  158.3380 H   0  0  0  0  0  0  0  0  0  0  0  0
  153.2409  137.5564  159.4195 H   0  0  0  0  0  0  0  0  0  0  0  0
  152.5925  139.2146  153.9135 H   0  0  0  0  0  0  0  0  0  0  0  0
  149.7657  135.6224  158.4518 H   0  0  0  0  0  0  0  0  0  0  0  0
  148.5745  136.4067  155.2598 H   0  0  0  0  0  0  0  0  0  0  0  0
  149.1949  133.9020  156.9140 H   0  0  0  0  0  0  0  0  0  0  0  0
  147.5868  134.6210  156.5617 H   0  0  0  0  0  0  0  0  0  0  0  0
  148.2109  131.7168  155.1001 H   0  0  0  0  0  0  0  0  0  0  0  0
  149.1988  131.9933  153.6898 H   0  0  0  0  0  0  0  0  0  0  0  0
  150.8812  132.6042  155.1810 H   0  0  0  0  0  0  0  0  0  0  0  0
  146.5607  133.5109  154.2368 H   0  0  0  0  0  0  0  0  0  0  0  0
  147.1267  135.1219  153.8963 H   0  0  0  0  0  0  0  0  0  0  0  0
  147.8005  134.4703  152.0249 H   0  0  0  0  0  0  0  0  0  0  0  0
  149.8665  135.2610  153.5575 H   0  0  0  0  0  0  0  0  0  0  0  0
  150.8047  134.3506  154.7918 H   0  0  0  0  0  0  0  0  0  0  0  0
  151.5266  141.1429  157.5245 H   0  0  0  0  0  0  0  0  0  0  0  0
  153.0447  141.9730  157.7810 H   0  0  0  0  0  0  0  0  0  0  0  0
  150.7856  141.9222  159.6480 H   0  0  0  0  0  0  0  0  0  0  0  0
  1  2  1  0  0  0  0
  1 32  1  0  0  0  0
  1 33  1  0  0  0  0
  1 34  1  0  0  0  0
  2  3  1  0  0  0  0
  2 35  1  0  0  0  0
  2 36  1  0  0  0  0
  3 29  1  0  0  0  0
  3  4  1  0  0  0  0
  3 60  1  0  0  0  0
  4  5  1  0  0  0  0
  4 37  1  0  0  0  0
  4 38  1  0  0  0  0
  5  6  1  0  0  0  0
  5 39  1  0  0  0  0
  5 40  1  0  0  0  0
  6 30  1  0  0  0  0
  6 28  1  0  0  0  0
  6  7  1  0  0  0  0
  7  8  1  0  0  0  0
  8  9  1  0  0  0  0
  8 41  1  0  0  0  0
  8 42  1  0  0  0  0
  9 10  1  0  0  0  0
  9 43  1  0  0  0  0
  9 44  1  0  0  0  0
 10 11  1  0  0  0  0
 10 28  1  0  0  0  0
 11 16  1  0  0  0  0
 11 12  2  0  0  0  0
 12 13  1  0  0  0  0
 13 14  2  0  0  0  0
 13 45  1  0  0  0  0
 14 15  1  0  0  0  0
 15 19  1  0  0  0  0
 15 16  2  0  0  0  0
 16 17  1  0  0  0  0
 17 18  2  0  0  0  0
 18 19  1  0  0  0  0
 18 46  1  0  0  0  0
 19 20  1  0  0  0  0
 20 27  1  0  0  0  0
 20 21  1  0  0  0  0
 20 47  1  0  0  0  0
 21 22  1  0  0  0  0
 21 48  1  0  0  0  0
 21 49  1  0  0  0  0
 22 23  1  0  0  0  0
 22 25  1  0  0  0  0
 22 27  1  0  0  0  0
 23 24  1  0  0  0  0
 23 50  1  0  0  0  0
 23 51  1  0  0  0  0
 24 52  1  0  0  0  0
 25 26  1  0  0  0  0
 25 53  1  0  0  0  0
 25 54  1  0  0  0  0
 26 55  1  0  0  0  0
 27 56  1  0  0  0  0
 27 57  1  0  0  0  0
 28 31  1  0  0  0  0
 28 29  1  0  0  0  0
 29 58  1  0  0  0  0
 29 59  1  0  0  0  0
M  CHG  1   3   1
M  END
> <s_m_source_file>
AV-unprocessed.smi

> <i_m_source_file_index>
16

> <i_lp_mmshare_version>
43012

> <i_f3d_flags>
0

> <s_epik_input>
W0NIM11bQ0gyXU4oW0NIMl1bQ0gyXTEpW0NIMl1bQ0BASF0oW0NAQEhdMTIpTihbQ0gyXVtDSDJdTzIpYyhuW2NIXW4zKWMoYzM0KW5bY0hdbjRbQ0hdKFtDSDJdNSlbQ0gyXUM1KFtDSDJdW09IXSlbQ0gyXVtPSF0=

> <s_epik_cmdline>
J2VwaWtfcHl0aG9uJywgJy1waCcsICc3LjAnLCAnLXRuJywgJzgnLCAnLW1hJywgJzIwMCcsICctbWV0YWxfYmluZGluZycsICctaW1hZScsICc8aW5maWxlLm1hZT4nLCAnLW9tYWUnLCAnPG91dGZpbGUubWFlPic=

> <r_lp_tautomer_probability>
1

> <r_epik_Ionization_Penalty>
0.0135603

> <r_epik_Ionization_Penalty_Charging>
0.0131385

> <r_epik_Ionization_Penalty_Neutral>
0.000421734

> <r_epik_State_Penalty>
0.0102091

> <r_epik_Charging_Adjusted_Penalty>
0.0233476

> <i_epik_Tot_Q>
1

> <i_epik_Tot_abs_Q>
1

> <r_epik_Metal_State_Penalty>
0.0103746

> <b_epik_Metal_Only>
0

> <s_lp_Force_Field>
OPLS_2005

> <r_lp_Energy>
53.4104

> <b_lp_Chiralities_Consistent>
1

> <s_lp_Variant>
AV-unprocessed.smi:16-6

> <Gold.Version>
5.8.1

> <Gold.Id.Protein>
6NUR|6NUR_protein|mol2

> <Gold.PLP.Fitness>
46.4939

> <Gold.PLP.PLP>
-40.4896

> <Gold.PLP.part.hbond>
-3.0000

> <Gold.PLP.part.metal>
0.0000

> <Gold.PLP.part.buried>
-4.8898

> <Gold.PLP.part.nonpolar>
-32.8578

> <Gold.PLP.part.repulsive>
0.1970

> <Gold.PLP.ligand.clash>
0.0000

> <Gold.PLP.ligand.torsion>
0.5924

> <Gold.PLP.Chemscore.Hbond>
2.1888

> <Gold.PLP.Chemscore.CHOScore>
0.0000

> <Gold.PLP.Chemscore.Metal>
0.0000

> <Gold.Chemscore.Hbonds>
donor molecule, donor type, donor heavy atom, donor atom, acceptor molecule, acceptor atom, score
      L1  H    26    55       P1  7948  0.83
      P1  H  7997  8009       L1    10  0.68
      P1  H  7997  8010       L1    12  0.62

> <Gold.PLP.Chemscore.Internal.Correction>
0.6226

> <Gold.Rescore>
     Score         DG    S(hbond)    S(metal)    S(lipo)     H(rot)  DE(clash)    DE(int)     intcor
     13.45     -14.66       1.62        0.00     105.07       3.33       0.05       1.16       ----

> <Gold.Chemscore.Fitness>
13.4452

> <Gold.Chemscore.DG>
-14.6610

> <Gold.Chemscore.ZeroCoef>
-5.4800

> <Gold.Chemscore.Hbond>
1.6168

> <Gold.Chemscore.Metal>
0.0000

> <Gold.Chemscore.Lipo>
105.0686

> <Gold.Chemscore.Internal_Hbond>
0.0000

> <Gold.Chemscore.DEClash>
0.0512

> <Gold.Chemscore.DEInternal>
1.1645

> <Gold.Chemscore.Rot>
3.3251

> <Gold.Chemscore.Internal.Correction>
   9.000000E+99

> <Gold.Chemscore.Hbonds>
donor molecule, donor type, donor heavy atom, donor atom, acceptor molecule, acceptor atom, score
      L1  H    26    55       P1  7948  0.23
      P1  H  7997  8009       L1    10  0.04
      P1  H  7997  8010       L1    12  0.56

> <Gold.Chemscore.Hbond.Weighted>
-5.4001

> <Gold.Chemscore.Metal.Weighted>
-0.0000

> <Gold.Chemscore.Lipo.Weighted>
-12.2930

> <Gold.Chemscore.Internal_Hbond.Weighted>
0.0000

> <Gold.Chemscore.DEClash.Weighted>
0.0512

> <Gold.Chemscore.DEInternal.Weighted>
1.1645

> <Gold.Chemscore.Rot.Weighted>
8.5122

> <Gold.Chemscore.Internal.Correction.Weighted>
   9.000000E+99

> <Gold.Protein.RotatedTorsions>
[ 6907 6896 6895 6894 ] final -162.98 input  -60.11 | X-H torsion
[ 7974 7965 7964 7962 ] final  -92.25 input  175.53 | X-H torsion
[ 8008 7997 7996 7995 ] final  117.95 input   59.86 | X-H torsion
[ 10167 10162 10161 10158 ] final -179.75 input  -65.29 | X-H torsion
[ 10718 10713 10712 10709 ] final  -40.73 input   66.30 | X-H torsion
[ 10763 10752 10751 10750 ] final   71.96 input  -60.55 | X-H torsion
[ 11005 11000 10999 10996 ] final -114.57 input  -57.11 | X-H torsion

> <Gold.Protein.ActiveResidues>
 VAL166  LYS551  ARG553  GLY616  TRP617  ASP618  TYR619  PRO620  LYS621  CYS622 
 ASP623  PHE694  ASN695  SER759  ASP760  ASP761  ALA762  ILE779  LEU786  VAL792 
 PHE793  MET794  SER795  GLU796  ALA797  LYS798  CYS799  TRP800  GLU811  SER814 

> <Gold.Protein.RotatedAtoms>
  151.3888  133.3796  159.2718 H   0  0  0  0  0  0  0  0  0  0  0  0  # atno 6907 bound_to 6896
  150.9520  134.8920  159.7689 H   0  0  0  0  0  0  0  0  0  0  0  0  # atno 6908 bound_to 6896
  152.5116  134.3844  159.9414 H   0  0  0  0  0  0  0  0  0  0  0  0  # atno 6909 bound_to 6896
  145.4023  140.9538  143.2280 H   0  0  0  0  0  0  0  0  0  0  0  0  # atno 7974 bound_to 7965
  156.2521  140.2885  156.0759 H   0  0  0  0  0  0  0  0  0  0  0  0  # atno 8008 bound_to 7997
  155.1620  140.0400  157.2862 H   0  0  0  0  0  0  0  0  0  0  0  0  # atno 8009 bound_to 7997
  154.6386  140.2517  155.7355 H   0  0  0  0  0  0  0  0  0  0  0  0  # atno 8010 bound_to 7997
  139.5372  144.2463  152.0820 H   0  0  0  0  0  0  0  0  0  0  0  0  # atno 10167 bound_to 10162
  156.2781  130.4214  149.8366 H   0  0  0  0  0  0  0  0  0  0  0  0  # atno 10718 bound_to 10713
  153.0430  135.5117  154.7672 H   0  0  0  0  0  0  0  0  0  0  0  0  # atno 10763 bound_to 10752
  154.6594  135.2936  154.9888 H   0  0  0  0  0  0  0  0  0  0  0  0  # atno 10764 bound_to 10752
  154.0744  135.6673  153.4881 H   0  0  0  0  0  0  0  0  0  0  0  0  # atno 10765 bound_to 10752
  141.0543  133.9637  157.2781 H   0  0  0  0  0  0  0  0  0  0  0  0  # atno 11005 bound_to 11000
  144.8365  139.5541  143.6919 LP  0  0  0  0  0  0  0  0  0  0  0  0  # atno 17320 bound_to 7965
  146.2746  139.6720  142.9272 LP  0  0  0  0  0  0  0  0  0  0  0  0  # atno 17321 bound_to 7965
  140.1936  144.4728  150.6466 LP  0  0  0  0  0  0  0  0  0  0  0  0  # atno 17342 bound_to 10162
  140.6585  143.2245  151.5912 LP  0  0  0  0  0  0  0  0  0  0  0  0  # atno 17343 bound_to 10162
  156.5823  130.8471  151.3386 LP  0  0  0  0  0  0  0  0  0  0  0  0  # atno 17370 bound_to 10713
  157.7306  130.9687  150.1839 LP  0  0  0  0  0  0  0  0  0  0  0  0  # atno 17371 bound_to 10713
  139.9377  135.0195  156.8608 LP  0  0  0  0  0  0  0  0  0  0  0  0  # atno 17394 bound_to 11000
  140.5994  134.0186  155.7531 LP  0  0  0  0  0  0  0  0  0  0  0  0  # atno 17395 bound_to 11000

$$$$
