AV-unprocessed.smi:467|AV-procd|sdf|2644|dock8
  -GOLD-   2262023 53D 1   1.00000     0.00000
 Structure written by MMmdl.
 44 46  0  0  0  0  0  0  0  0  1 V2000
  152.8810  142.9512  161.6020 C   0  0  0  0  0  0  0  0  0  0  0  0
  152.3810  142.6143  160.2084 C   0  0  0  0  0  0  0  0  0  0  0  0
  152.6824  141.3483  159.6571 C   0  0  0  0  0  0  0  0  0  0  0  0
  152.2304  140.9940  158.3669 C   0  0  0  0  0  0  0  0  0  0  0  0
  152.4004  139.8252  157.6442 N   0  0  0  0  0  0  0  0  0  0  0  0
  151.7463  140.1074  156.5211 C   0  0  0  0  0  0  0  0  0  0  0  0
  151.1736  141.3229  156.4293 N   0  0  0  0  0  0  0  0  0  0  0  0
  150.4140  141.8477  155.3082 C   0  0  0  0  0  0  0  0  0  0  0  0
  149.3596  140.8513  154.7892 C   0  0  1  0  0  0  0  0  0  0  0  0
  149.9851  139.9041  153.9456 O   0  0  0  0  0  0  0  0  0  0  0  0
  148.6799  140.0945  155.9476 C   0  0  0  0  0  0  0  0  0  0  0  0
  147.5142  140.7559  156.5374 N   0  0  0  0  0  0  0  0  0  0  0  0
  147.8674  141.9339  157.3284 C   0  0  0  0  0  0  0  0  0  0  0  0
  146.6286  142.5931  157.9604 C   0  0  0  0  0  0  0  0  0  0  0  0
  145.9294  141.6396  158.7532 O   0  0  0  0  0  0  0  0  0  0  0  0
  145.5258  140.4967  158.0064 C   0  0  0  0  0  0  0  0  0  0  0  0
  146.7623  139.8307  157.3790 C   0  0  0  0  0  0  0  0  0  0  0  0
  151.4676  141.9506  157.6351 C   0  0  0  0  0  0  0  0  0  0  0  0
  151.1638  143.2141  158.1718 C   0  0  0  0  0  0  0  0  0  0  0  0
  151.6176  143.5497  159.4645 C   0  0  0  0  0  0  0  0  0  0  0  0
  151.2736  144.9124  160.0390 C   0  0  0  0  0  0  0  0  0  0  0  0
  153.4950  142.1479  162.0102 H   0  0  0  0  0  0  0  0  0  0  0  0
  152.0415  143.1091  162.2794 H   0  0  0  0  0  0  0  0  0  0  0  0
  153.4869  143.8571  161.5839 H   0  0  0  0  0  0  0  0  0  0  0  0
  153.2622  140.6348  160.2238 H   0  0  0  0  0  0  0  0  0  0  0  0
  151.6786  139.3889  155.7174 H   0  0  0  0  0  0  0  0  0  0  0  0
  149.9426  142.7831  155.6131 H   0  0  0  0  0  0  0  0  0  0  0  0
  151.1154  142.0996  154.5114 H   0  0  0  0  0  0  0  0  0  0  0  0
  148.6252  141.4039  154.2045 H   0  0  0  0  0  0  0  0  0  0  0  0
  149.5930  139.9664  153.0878 H   0  0  0  0  0  0  0  0  0  0  0  0
  148.3846  139.1115  155.5773 H   0  0  0  0  0  0  0  0  0  0  0  0
  149.4149  139.9048  156.7315 H   0  0  0  0  0  0  0  0  0  0  0  0
  148.5687  141.6546  158.1161 H   0  0  0  0  0  0  0  0  0  0  0  0
  148.3712  142.6741  156.7087 H   0  0  0  0  0  0  0  0  0  0  0  0
  146.9250  143.4321  158.5899 H   0  0  0  0  0  0  0  0  0  0  0  0
  145.9667  142.9896  157.1886 H   0  0  0  0  0  0  0  0  0  0  0  0
  145.0144  139.7990  158.6694 H   0  0  0  0  0  0  0  0  0  0  0  0
  144.8115  140.7899  157.2353 H   0  0  0  0  0  0  0  0  0  0  0  0
  146.4448  138.9691  156.7904 H   0  0  0  0  0  0  0  0  0  0  0  0
  147.4051  139.4461  158.1727 H   0  0  0  0  0  0  0  0  0  0  0  0
  150.5794  143.9152  157.5944 H   0  0  0  0  0  0  0  0  0  0  0  0
  150.6649  145.4938  159.3458 H   0  0  0  0  0  0  0  0  0  0  0  0
  152.1806  145.4804  160.2464 H   0  0  0  0  0  0  0  0  0  0  0  0
  150.7112  144.8045  160.9668 H   0  0  0  0  0  0  0  0  0  0  0  0
  1  2  1  0  0  0  0
  1 22  1  0  0  0  0
  1 23  1  0  0  0  0
  1 24  1  0  0  0  0
  2 20  1  0  0  0  0
  2  3  2  0  0  0  0
  3  4  1  0  0  0  0
  3 25  1  0  0  0  0
  4 18  2  0  0  0  0
  4  5  1  0  0  0  0
  5  6  2  0  0  0  0
  6  7  1  0  0  0  0
  6 26  1  0  0  0  0
  7  8  1  0  0  0  0
  7 18  1  0  0  0  0
  8  9  1  0  0  0  0
  8 27  1  0  0  0  0
  8 28  1  0  0  0  0
  9 10  1  0  0  0  0
  9 11  1  0  0  0  0
  9 29  1  0  0  0  0
 10 30  1  0  0  0  0
 11 12  1  0  0  0  0
 11 31  1  0  0  0  0
 11 32  1  0  0  0  0
 12 17  1  0  0  0  0
 12 13  1  0  0  0  0
 13 14  1  0  0  0  0
 13 33  1  0  0  0  0
 13 34  1  0  0  0  0
 14 15  1  0  0  0  0
 14 35  1  0  0  0  0
 14 36  1  0  0  0  0
 15 16  1  0  0  0  0
 16 17  1  0  0  0  0
 16 37  1  0  0  0  0
 16 38  1  0  0  0  0
 17 39  1  0  0  0  0
 17 40  1  0  0  0  0
 18 19  1  0  0  0  0
 19 20  2  0  0  0  0
 19 41  1  0  0  0  0
 20 21  1  0  0  0  0
 21 42  1  0  0  0  0
 21 43  1  0  0  0  0
 21 44  1  0  0  0  0
M  END
> <s_m_source_file>
AV-unprocessed.smi

> <i_m_source_file_index>
467

> <i_lp_mmshare_version>
43012

> <i_f3d_flags>
0

> <s_epik_input>
W0NIM11jKFtjSF0xKWMoW0NIM10pW2NIXWMoYzEyKW4oW2NIXW4yKVtDSDJdW0NASF0oW09IXSlbQ0gyXU4zW0NIMl1bQ0gyXU9bQ0gyXVtDSDJdMw==

> <s_epik_cmdline>
J2VwaWtfcHl0aG9uJywgJy1waCcsICc3LjAnLCAnLXRuJywgJzgnLCAnLW1hJywgJzIwMCcsICctbWV0YWxfYmluZGluZycsICctaW1hZScsICc8aW5maWxlLm1hZT4nLCAnLW9tYWUnLCAnPG91dGZpbGUubWFlPic=

> <r_epik_Ionization_Penalty>
0.345029

> <r_epik_Ionization_Penalty_Charging>
0

> <r_epik_Ionization_Penalty_Neutral>
0.345029

> <r_epik_State_Penalty>
0.314465

> <r_epik_Charging_Adjusted_Penalty>
0.314465

> <i_epik_Tot_Q>
0

> <i_epik_Tot_abs_Q>
0

> <r_epik_Metal_State_Penalty>
0.239717

> <b_epik_Metal_Only>
0

> <s_lp_Force_Field>
OPLS_2005

> <r_lp_Energy>
29.8688

> <b_lp_Chiralities_Consistent>
1

> <s_lp_Variant>
AV-unprocessed.smi:467-2

> <Gold.Version>
5.8.1

> <Gold.Id.Protein>
6NUR|6NUR_protein|mol2

> <Gold.PLP.Fitness>
46.9396

> <Gold.PLP.PLP>
-37.7702

> <Gold.PLP.part.hbond>
-4.0000

> <Gold.PLP.part.metal>
0.0000

> <Gold.PLP.part.buried>
-4.1898

> <Gold.PLP.part.nonpolar>
-28.9088

> <Gold.PLP.part.repulsive>
0.0304

> <Gold.PLP.ligand.clash>
0.0000

> <Gold.PLP.ligand.torsion>
0.7450

> <Gold.PLP.Chemscore.Hbond>
3.5408

> <Gold.PLP.Chemscore.CHOScore>
0.0000

> <Gold.PLP.Chemscore.Metal>
0.0000

> <Gold.Chemscore.Hbonds>
donor molecule, donor type, donor heavy atom, donor atom, acceptor molecule, acceptor atom, score
      L1  H    10    30       P1  7957  1.00
      P1  H  6934  6946       L1    15  0.24
      P1  H  7989  7998       L1    10  0.68
      P1  H  7997  8010       L1     5  0.40

> <Gold.PLP.Chemscore.Internal.Correction>
0.0370

> <Gold.Rescore>
     Score         DG    S(hbond)    S(metal)    S(lipo)     H(rot)  DE(clash)    DE(int)     intcor
     17.48     -19.63       2.26        0.00     100.83       2.02       1.48       0.68       ----

> <Gold.Chemscore.Fitness>
17.4761

> <Gold.Chemscore.DG>
-19.6348

> <Gold.Chemscore.ZeroCoef>
-5.4800

> <Gold.Chemscore.Hbond>
2.2563

> <Gold.Chemscore.Metal>
0.0000

> <Gold.Chemscore.Lipo>
100.8262

> <Gold.Chemscore.Internal_Hbond>
0.0000

> <Gold.Chemscore.DEClash>
1.4833

> <Gold.Chemscore.DEInternal>
0.6754

> <Gold.Chemscore.Rot>
2.0227

> <Gold.Chemscore.Internal.Correction>
   9.000000E+99

> <Gold.Chemscore.Hbonds>
donor molecule, donor type, donor heavy atom, donor atom, acceptor molecule, acceptor atom, score
      L1  H    10    30       P1  7957  0.98
      P1  H  6934  6946       L1    15  0.13
      P1  H  7989  7998       L1    10  0.02
      P1  H  7997  8010       L1     5  0.02

> <Gold.Chemscore.Hbond.Weighted>
-7.5362

> <Gold.Chemscore.Metal.Weighted>
-0.0000

> <Gold.Chemscore.Lipo.Weighted>
-11.7967

> <Gold.Chemscore.Internal_Hbond.Weighted>
0.0000

> <Gold.Chemscore.DEClash.Weighted>
1.4833

> <Gold.Chemscore.DEInternal.Weighted>
0.6754

> <Gold.Chemscore.Rot.Weighted>
5.1780

> <Gold.Chemscore.Internal.Correction.Weighted>
   9.000000E+99

> <Gold.Protein.RotatedTorsions>
[ 6907 6896 6895 6894 ] final   21.52 input  -60.11 | X-H torsion
[ 7974 7965 7964 7962 ] final -165.77 input  175.53 | X-H torsion
[ 8008 7997 7996 7995 ] final   51.82 input   59.86 | X-H torsion
[ 10167 10162 10161 10158 ] final    7.80 input  -65.29 | X-H torsion
[ 10718 10713 10712 10709 ] final  -33.26 input   66.30 | X-H torsion
[ 10763 10752 10751 10750 ] final -152.56 input  -60.55 | X-H torsion
[ 11005 11000 10999 10996 ] final  -45.20 input  -57.11 | X-H torsion

> <Gold.Protein.ActiveResidues>
 VAL166  LYS551  ARG553  GLY616  TRP617  ASP618  TYR619  PRO620  LYS621  CYS622 
 ASP623  PHE694  ASN695  SER759  ASP760  ASP761  ALA762  ILE779  LEU786  VAL792 
 PHE793  MET794  SER795  GLU796  ALA797  LYS798  CYS799  TRP800  GLU811  SER814 

> <Gold.Protein.RotatedAtoms>
  151.9130  135.0331  160.0515 H   0  0  0  0  0  0  0  0  0  0  0  0  # atno 6907 bound_to 6896
  152.2263  133.5018  159.5199 H   0  0  0  0  0  0  0  0  0  0  0  0  # atno 6908 bound_to 6896
  150.7013  134.1192  159.4071 H   0  0  0  0  0  0  0  0  0  0  0  0  # atno 6909 bound_to 6896
  144.7261  140.2765  143.6242 H   0  0  0  0  0  0  0  0  0  0  0  0  # atno 7974 bound_to 7965
  155.4416  140.3454  155.4290 H   0  0  0  0  0  0  0  0  0  0  0  0  # atno 8008 bound_to 7997
  156.1275  140.1505  156.9144 H   0  0  0  0  0  0  0  0  0  0  0  0  # atno 8009 bound_to 7997
  154.4869  140.0852  156.7487 H   0  0  0  0  0  0  0  0  0  0  0  0  # atno 8010 bound_to 7997
  140.6351  143.7905  150.7348 H   0  0  0  0  0  0  0  0  0  0  0  0  # atno 10167 bound_to 10162
  156.3648  130.4330  149.7593 H   0  0  0  0  0  0  0  0  0  0  0  0  # atno 10718 bound_to 10713
  154.7986  135.3233  154.7606 H   0  0  0  0  0  0  0  0  0  0  0  0  # atno 10763 bound_to 10752
  153.8279  135.6882  153.4822 H   0  0  0  0  0  0  0  0  0  0  0  0  # atno 10764 bound_to 10752
  153.1690  135.4630  154.9819 H   0  0  0  0  0  0  0  0  0  0  0  0  # atno 10765 bound_to 10752
  141.0500  133.6746  156.2979 H   0  0  0  0  0  0  0  0  0  0  0  0  # atno 11005 bound_to 11000
  145.7992  139.1957  143.2058 LP  0  0  0  0  0  0  0  0  0  0  0  0  # atno 17320 bound_to 7965
  146.0691  140.7888  142.9697 LP  0  0  0  0  0  0  0  0  0  0  0  0  # atno 17321 bound_to 7965
  140.1525  143.4345  152.2122 LP  0  0  0  0  0  0  0  0  0  0  0  0  # atno 17342 bound_to 10162
  139.5562  144.7374  151.4288 LP  0  0  0  0  0  0  0  0  0  0  0  0  # atno 17343 bound_to 10162
  156.4744  130.8011  151.3028 LP  0  0  0  0  0  0  0  0  0  0  0  0  # atno 17370 bound_to 10713
  157.7477  131.0026  150.3005 LP  0  0  0  0  0  0  0  0  0  0  0  0  # atno 17371 bound_to 10713
  140.6074  134.5493  157.5528 LP  0  0  0  0  0  0  0  0  0  0  0  0  # atno 17394 bound_to 11000
  139.9342  134.7906  156.0847 LP  0  0  0  0  0  0  0  0  0  0  0  0  # atno 17395 bound_to 11000

$$$$
