AV-unprocessed.smi:1263|AV-procd|sdf|5311|dock3
  -GOLD-   22720 4433D 1   1.00000     0.00000
 Structure written by MMmdl.
 44 46  0  0  0  0  0  0  0  0  2 V2000
  151.8890  138.2675  154.5725 C   0  0  0  0  0  0  0  0  0  0  0  0
  150.5325  138.3472  154.1484 O   0  0  0  0  0  0  0  0  0  0  0  0
  149.8350  139.5168  154.3847 C   0  0  0  0  0  0  0  0  0  0  0  0
  150.4773  140.5357  155.0093 N   0  0  0  0  0  0  0  0  0  0  0  0
  149.7961  141.6751  155.2477 C   0  0  0  0  0  0  0  0  0  0  0  0
  148.4487  141.8568  154.8860 C   0  0  0  0  0  0  0  0  0  0  0  0
  147.7806  140.8023  154.2368 C   0  0  0  0  0  0  0  0  0  0  0  0
  148.4867  139.6048  153.9658 C   0  0  0  0  0  0  0  0  0  0  0  0
  147.9057  138.4706  153.3334 N   0  0  0  0  0  0  0  0  0  0  0  0
  146.6252  138.2688  152.9787 C   0  0  0  0  0  0  0  0  0  0  0  0
  145.7073  139.0753  153.1265 O   0  0  0  0  0  0  0  0  0  0  0  0
  146.4639  137.0631  152.4147 N   0  0  0  0  0  0  0  0  0  0  0  0
  145.2031  136.5369  151.8993 C   0  0  2  0  0  0  0  0  0  0  0  0
  144.5220  135.6231  152.9360 C   0  0  0  0  0  0  0  0  0  0  0  0
  143.2480  134.9772  152.3591 C   0  0  0  0  0  0  0  0  0  0  0  0
  143.5154  134.2421  151.0963 N   0  3  2  0  0  0  0  0  0  0  0  0
  144.2145  132.9525  151.3062 C   0  0  0  0  0  0  0  0  0  0  0  0
  144.9823  132.4732  150.0964 C   0  0  0  0  0  0  0  0  0  0  0  0
  143.6665  131.8244  150.4638 C   0  0  0  0  0  0  0  0  0  0  0  0
  144.1632  135.1046  150.0750 C   0  0  0  0  0  0  0  0  0  0  0  0
  145.4580  135.7531  150.6007 C   0  0  0  0  0  0  0  0  0  0  0  0
  152.2882  137.2845  154.3227 H   0  0  0  0  0  0  0  0  0  0  0  0
  151.9781  138.3957  155.6523 H   0  0  0  0  0  0  0  0  0  0  0  0
  152.5079  139.0127  154.0708 H   0  0  0  0  0  0  0  0  0  0  0  0
  150.3399  142.4634  155.7469 H   0  0  0  0  0  0  0  0  0  0  0  0
  147.9376  142.7824  155.1058 H   0  0  0  0  0  0  0  0  0  0  0  0
  146.7416  140.9285  153.9759 H   0  0  0  0  0  0  0  0  0  0  0  0
  148.5595  137.7491  153.0661 H   0  0  0  0  0  0  0  0  0  0  0  0
  147.2759  136.4690  152.3283 H   0  0  0  0  0  0  0  0  0  0  0  0
  144.5375  137.3713  151.6691 H   0  0  0  0  0  0  0  0  0  0  0  0
  145.2156  134.8473  153.2629 H   0  0  0  0  0  0  0  0  0  0  0  0
  144.2640  136.1944  153.8284 H   0  0  0  0  0  0  0  0  0  0  0  0
  142.7961  134.3068  153.0907 H   0  0  0  0  0  0  0  0  0  0  0  0
  142.5084  135.7526  152.1555 H   0  0  0  0  0  0  0  0  0  0  0  0
  144.5926  132.7544  152.3071 H   0  0  0  0  0  0  0  0  0  0  0  0
  145.0004  133.1067  149.2113 H   0  0  0  0  0  0  0  0  0  0  0  0
  145.8884  131.8972  150.2737 H   0  0  0  0  0  0  0  0  0  0  0  0
  143.7051  130.8211  150.8833 H   0  0  0  0  0  0  0  0  0  0  0  0
  142.8108  132.0275  149.8221 H   0  0  0  0  0  0  0  0  0  0  0  0
  144.3667  134.5255  149.1736 H   0  0  0  0  0  0  0  0  0  0  0  0
  143.4573  135.8841  149.7854 H   0  0  0  0  0  0  0  0  0  0  0  0
  145.8669  136.4182  149.8393 H   0  0  0  0  0  0  0  0  0  0  0  0
  146.2127  134.9841  150.7700 H   0  0  0  0  0  0  0  0  0  0  0  0
  142.6111  133.9945  150.7200 H   0  0  0  0  0  0  0  0  0  0  0  0
  1  2  1  0  0  0  0
  1 22  1  0  0  0  0
  1 23  1  0  0  0  0
  1 24  1  0  0  0  0
  2  3  1  0  0  0  0
  3  8  1  0  0  0  0
  3  4  2  0  0  0  0
  4  5  1  0  0  0  0
  5  6  2  0  0  0  0
  5 25  1  0  0  0  0
  6  7  1  0  0  0  0
  6 26  1  0  0  0  0
  7  8  2  0  0  0  0
  7 27  1  0  0  0  0
  8  9  1  0  0  0  0
  9 10  1  0  0  0  0
  9 28  1  0  0  0  0
 10 11  2  0  0  0  0
 10 12  1  0  0  0  0
 12 13  1  0  0  0  0
 12 29  1  0  0  0  0
 13 21  1  0  0  0  0
 13 14  1  0  0  0  0
 13 30  1  0  0  0  0
 14 15  1  0  0  0  0
 14 31  1  0  0  0  0
 14 32  1  0  0  0  0
 15 16  1  0  0  0  0
 15 33  1  0  0  0  0
 15 34  1  0  0  0  0
 16 17  1  0  0  0  0
 16 20  1  0  0  0  0
 16 44  1  0  0  0  0
 17 19  1  0  0  0  0
 17 18  1  0  0  0  0
 17 35  1  0  0  0  0
 18 19  1  0  0  0  0
 18 36  1  0  0  0  0
 18 37  1  0  0  0  0
 19 38  1  0  0  0  0
 19 39  1  0  0  0  0
 20 21  1  0  0  0  0
 20 40  1  0  0  0  0
 20 41  1  0  0  0  0
 21 42  1  0  0  0  0
 21 43  1  0  0  0  0
M  CHG  1  16   1
M  END
> <s_m_source_file>
AV-unprocessed.smi

> <i_m_source_file_index>
1263

> <i_lp_mmshare_version>
43012

> <i_f3d_flags>
0

> <s_epik_input>
W0NIM11PYzFuW2NIXVtjSF1bY0hdYzFbTkhdQyg9TylbTkhdW0NIXTJbQ0gyXVtDSDJdTihbQ0gyXVtDSDJdMilbQ0hdM1tDSDJdW0NIMl0z

> <s_epik_cmdline>
J2VwaWtfcHl0aG9uJywgJy1waCcsICc3LjAnLCAnLXRuJywgJzgnLCAnLW1hJywgJzIwMCcsICctbWV0YWxfYmluZGluZycsICctaW1hZScsICc8aW5maWxlLm1hZT4nLCAnLW9tYWUnLCAnPG91dGZpbGUubWFlPic=

> <r_lp_tautomer_probability>
1

> <r_epik_Ionization_Penalty>
0.115628

> <r_epik_Ionization_Penalty_Charging>
0.115549

> <r_epik_Ionization_Penalty_Neutral>
7.89431e-05

> <r_epik_State_Penalty>
0.105184

> <r_epik_Charging_Adjusted_Penalty>
0.220733

> <i_epik_Tot_Q>
1

> <i_epik_Tot_abs_Q>
1

> <r_epik_Metal_State_Penalty>
0.105186

> <b_epik_Metal_Only>
0

> <s_lp_Force_Field>
OPLS_2005

> <r_lp_Energy>
30.2009

> <b_lp_Chiralities_Consistent>
1

> <s_lp_Variant>
AV-unprocessed.smi:1263-2

> <Gold.Version>
5.8.1

> <Gold.Id.Protein>
6NUR|6NUR_protein|mol2

> <Gold.PLP.Fitness>
48.8534

> <Gold.PLP.PLP>
-34.9452

> <Gold.PLP.part.hbond>
-4.5537

> <Gold.PLP.part.metal>
0.0000

> <Gold.PLP.part.buried>
-1.4538

> <Gold.PLP.part.nonpolar>
-33.9071

> <Gold.PLP.part.repulsive>
4.2627

> <Gold.PLP.ligand.clash>
0.0000

> <Gold.PLP.ligand.torsion>
1.1844

> <Gold.PLP.Chemscore.Hbond>
4.6384

> <Gold.PLP.Chemscore.CHOScore>
0.3617

> <Gold.PLP.Chemscore.Metal>
0.0000

> <Gold.Chemscore.Hbonds>
donor molecule, donor type, donor heavy atom, donor atom, acceptor molecule, acceptor atom, score
      L1  H     9    28       P1  7948  0.94
      L1  H    12    29       P1  7948  1.00
      L1  H    16    44       P1 10186  2.00
      P1  H  7989  7998       L1     4  0.64
      L1  C     5    25       P1  8028  0.36

> <Gold.PLP.Chemscore.Internal.Correction>
1.2769

> <Gold.Rescore>
     Score         DG    S(hbond)    S(metal)    S(lipo)     H(rot)  DE(clash)    DE(int)     intcor
     17.01     -21.76       2.70        0.00      93.50       1.43       2.35       2.39       ----

> <Gold.Chemscore.Fitness>
17.0147

> <Gold.Chemscore.DG>
-21.7564

> <Gold.Chemscore.ZeroCoef>
-5.4800

> <Gold.Chemscore.Hbond>
2.6953

> <Gold.Chemscore.Metal>
0.0000

> <Gold.Chemscore.Lipo>
93.4999

> <Gold.Chemscore.Internal_Hbond>
0.0000

> <Gold.Chemscore.DEClash>
2.3486

> <Gold.Chemscore.DEInternal>
2.3932

> <Gold.Chemscore.Rot>
1.4318

> <Gold.Chemscore.Internal.Correction>
   9.000000E+99

> <Gold.Chemscore.Hbonds>
donor molecule, donor type, donor heavy atom, donor atom, acceptor molecule, acceptor atom, score
      L1  H     9    28       P1  7948  0.90
      L1  H    12    29       P1  7948  0.94
      L1  H    16    44       P1 10186  0.66
      P1  H  7989  7998       L1     4  0.03

> <Gold.Chemscore.Hbond.Weighted>
-9.0022

> <Gold.Chemscore.Metal.Weighted>
-0.0000

> <Gold.Chemscore.Lipo.Weighted>
-10.9395

> <Gold.Chemscore.Internal_Hbond.Weighted>
0.0000

> <Gold.Chemscore.DEClash.Weighted>
2.3486

> <Gold.Chemscore.DEInternal.Weighted>
2.3932

> <Gold.Chemscore.Rot.Weighted>
3.6653

> <Gold.Chemscore.Internal.Correction.Weighted>
   9.000000E+99

> <Gold.Protein.RotatedTorsions>
[ 6907 6896 6895 6894 ] final   17.68 input  -60.11 | X-H torsion
[ 7974 7965 7964 7962 ] final -125.07 input  175.53 | X-H torsion
[ 8008 7997 7996 7995 ] final   57.12 input   59.86 | X-H torsion
[ 10167 10162 10161 10158 ] final   88.31 input  -65.29 | X-H torsion
[ 10718 10713 10712 10709 ] final   -4.96 input   66.30 | X-H torsion
[ 10763 10752 10751 10750 ] final   -5.48 input  -60.55 | X-H torsion
[ 11005 11000 10999 10996 ] final  143.43 input  -57.11 | X-H torsion

> <Gold.Protein.ActiveResidues>
 VAL166  LYS551  ARG553  GLY616  TRP617  ASP618  TYR619  PRO620  LYS621  CYS622 
 ASP623  PHE694  ASN695  SER759  ASP760  ASP761  ALA762  ILE779  LEU786  VAL792 
 PHE793  MET794  SER795  GLU796  ALA797  LYS798  CYS799  TRP800  GLU811  SER814 

> <Gold.Protein.RotatedAtoms>
  151.8534  135.0550  160.0461 H   0  0  0  0  0  0  0  0  0  0  0  0  # atno 6907 bound_to 6896
  152.2719  133.5386  159.5453 H   0  0  0  0  0  0  0  0  0  0  0  0  # atno 6908 bound_to 6896
  150.7155  134.0602  159.3871 H   0  0  0  0  0  0  0  0  0  0  0  0  # atno 6909 bound_to 6896
  145.0014  140.7824  143.4494 H   0  0  0  0  0  0  0  0  0  0  0  0  # atno 7974 bound_to 7965
  155.5286  140.3481  155.4421 H   0  0  0  0  0  0  0  0  0  0  0  0  # atno 8008 bound_to 7997
  156.0734  140.1368  156.9827 H   0  0  0  0  0  0  0  0  0  0  0  0  # atno 8009 bound_to 7997
  154.4540  140.0961  156.6679 H   0  0  0  0  0  0  0  0  0  0  0  0  # atno 8010 bound_to 7997
  139.8686  144.6505  150.8976 H   0  0  0  0  0  0  0  0  0  0  0  0  # atno 10167 bound_to 10162
  156.7535  130.5247  149.5799 H   0  0  0  0  0  0  0  0  0  0  0  0  # atno 10718 bound_to 10713
  153.3991  135.7004  153.6439 H   0  0  0  0  0  0  0  0  0  0  0  0  # atno 10763 bound_to 10752
  153.4980  135.3658  155.2526 H   0  0  0  0  0  0  0  0  0  0  0  0  # atno 10764 bound_to 10752
  154.8709  135.4105  154.3322 H   0  0  0  0  0  0  0  0  0  0  0  0  # atno 10765 bound_to 10752
  140.0553  134.9234  157.1089 H   0  0  0  0  0  0  0  0  0  0  0  0  # atno 11005 bound_to 11000
  145.2147  139.2187  143.5124 LP  0  0  0  0  0  0  0  0  0  0  0  0  # atno 17320 bound_to 7965
  146.3452  140.1993  142.8589 LP  0  0  0  0  0  0  0  0  0  0  0  0  # atno 17321 bound_to 7965
  140.7764  143.3683  151.1697 LP  0  0  0  0  0  0  0  0  0  0  0  0  # atno 17342 bound_to 10162
  139.7305  143.9079  152.3018 LP  0  0  0  0  0  0  0  0  0  0  0  0  # atno 17343 bound_to 10162
  156.1385  130.6228  151.0434 LP  0  0  0  0  0  0  0  0  0  0  0  0  # atno 17370 bound_to 10713
  157.6766  131.0849  150.7478 LP  0  0  0  0  0  0  0  0  0  0  0  0  # atno 17371 bound_to 10713
  140.3854  134.2242  155.7168 LP  0  0  0  0  0  0  0  0  0  0  0  0  # atno 17394 bound_to 11000
  141.1949  133.8118  157.0738 LP  0  0  0  0  0  0  0  0  0  0  0  0  # atno 17395 bound_to 11000

$$$$
