AV-unprocessed.smi:1891|AV-procd|sdf|7665|dock5
  -GOLD-   22720 9403D 1   1.00000     0.00000
 Structure written by MMmdl.
 36 38  0  0  0  0  0  0  0  0  1 V2000
  151.4432  145.9914  160.0677 O   0  0  0  0  0  0  0  0  0  0  0  0
  152.1629  145.5936  158.9213 C   0  0  0  0  0  0  0  0  0  0  0  0
  151.8951  144.1738  158.5218 C   0  0  0  0  0  0  0  0  0  0  0  0
  151.1398  143.8773  157.4633 N   0  0  0  0  0  0  0  0  0  0  0  0
  151.1758  142.4972  157.4389 C   0  0  0  0  0  0  0  0  0  0  0  0
  150.5743  141.5784  156.5494 C   0  0  0  0  0  0  0  0  0  0  0  0
  150.7629  140.1912  156.7206 C   0  0  0  0  0  0  0  0  0  0  0  0
  151.5550  139.7041  157.7804 C   0  0  0  0  0  0  0  0  0  0  0  0
  152.1620  140.6025  158.6789 C   0  0  0  0  0  0  0  0  0  0  0  0
  151.9678  141.9864  158.5056 C   0  0  0  0  0  0  0  0  0  0  0  0
  152.4077  143.1117  159.1961 N   0  0  0  0  0  0  0  0  0  0  0  0
  153.2577  143.1050  160.3810 C   0  0  0  0  0  0  0  0  0  0  0  0
  152.4537  143.0321  161.6955 C   0  0  2  0  0  0  0  0  0  0  0  0
  151.5035  144.0789  161.7432 O   0  0  0  0  0  0  0  0  0  0  0  0
  153.3802  143.0318  162.9038 C   0  0  0  0  0  0  0  0  0  0  0  0
  153.3860  144.1246  163.7998 C   0  0  0  0  0  0  0  0  0  0  0  0
  154.2512  144.1297  164.9110 C   0  0  0  0  0  0  0  0  0  0  0  0
  155.1199  143.0444  165.1321 C   0  0  0  0  0  0  0  0  0  0  0  0
  155.9537  143.0503  166.1989 F   0  0  0  0  0  0  0  0  0  0  0  0
  155.1235  141.9546  164.2407 C   0  0  0  0  0  0  0  0  0  0  0  0
  154.2593  141.9476  163.1281 C   0  0  0  0  0  0  0  0  0  0  0  0
  154.2831  140.8952  162.2751 F   0  0  0  0  0  0  0  0  0  0  0  0
  150.5935  146.3021  159.7957 H   0  0  0  0  0  0  0  0  0  0  0  0
  151.8906  146.2561  158.0988 H   0  0  0  0  0  0  0  0  0  0  0  0
  153.2305  145.7342  159.0894 H   0  0  0  0  0  0  0  0  0  0  0  0
  149.9682  141.9416  155.7327 H   0  0  0  0  0  0  0  0  0  0  0  0
  150.2993  139.4978  156.0345 H   0  0  0  0  0  0  0  0  0  0  0  0
  151.6962  138.6404  157.9034 H   0  0  0  0  0  0  0  0  0  0  0  0
  152.7694  140.2313  159.4909 H   0  0  0  0  0  0  0  0  0  0  0  0
  153.9219  142.2430  160.3063 H   0  0  0  0  0  0  0  0  0  0  0  0
  153.9019  143.9833  160.3828 H   0  0  0  0  0  0  0  0  0  0  0  0
  151.8757  142.1083  161.7084 H   0  0  0  0  0  0  0  0  0  0  0  0
  150.6564  143.7259  161.5180 H   0  0  0  0  0  0  0  0  0  0  0  0
  152.7286  144.9661  163.6363 H   0  0  0  0  0  0  0  0  0  0  0  0
  154.2497  144.9677  165.5924 H   0  0  0  0  0  0  0  0  0  0  0  0
  155.7919  141.1231  164.4089 H   0  0  0  0  0  0  0  0  0  0  0  0
  1  2  1  0  0  0  0
  1 23  1  0  0  0  0
  2  3  1  0  0  0  0
  2 24  1  0  0  0  0
  2 25  1  0  0  0  0
  3 11  1  0  0  0  0
  3  4  2  0  0  0  0
  4  5  1  0  0  0  0
  5 10  2  0  0  0  0
  5  6  1  0  0  0  0
  6  7  2  0  0  0  0
  6 26  1  0  0  0  0
  7  8  1  0  0  0  0
  7 27  1  0  0  0  0
  8  9  2  0  0  0  0
  8 28  1  0  0  0  0
  9 10  1  0  0  0  0
  9 29  1  0  0  0  0
 10 11  1  0  0  0  0
 11 12  1  0  0  0  0
 12 13  1  0  0  0  0
 12 30  1  0  0  0  0
 12 31  1  0  0  0  0
 13 14  1  0  0  0  0
 13 15  1  0  0  0  0
 13 32  1  0  0  0  0
 14 33  1  0  0  0  0
 15 21  1  0  0  0  0
 15 16  2  0  0  0  0
 16 17  1  0  0  0  0
 16 34  1  0  0  0  0
 17 18  2  0  0  0  0
 17 35  1  0  0  0  0
 18 19  1  0  0  0  0
 18 20  1  0  0  0  0
 20 21  2  0  0  0  0
 20 36  1  0  0  0  0
 21 22  1  0  0  0  0
M  END
> <s_m_source_file>
AV-unprocessed.smi

> <i_m_source_file_index>
1891

> <i_lp_mmshare_version>
43012

> <i_f3d_flags>
0

> <s_epik_input>
W2NIXTFbY0hdW2NIXVtjSF1jKGMxMiluKGMobjIpW0NIMl1bT0hdKVtDSDJdW0NASF0oW09IXSljM1tjSF1bY0hdYyhGKVtjSF1jM0Y=

> <s_epik_cmdline>
J2VwaWtfcHl0aG9uJywgJy1waCcsICc3LjAnLCAnLXRuJywgJzgnLCAnLW1hJywgJzIwMCcsICctbWV0YWxfYmluZGluZycsICctaW1hZScsICc8aW5maWxlLm1hZT4nLCAnLW9tYWUnLCAnPG91dGZpbGUubWFlPic=

> <r_epik_Ionization_Penalty>
0.0634724

> <r_epik_Ionization_Penalty_Charging>
0

> <r_epik_Ionization_Penalty_Neutral>
0.0634724

> <r_epik_State_Penalty>
0.0551572

> <r_epik_Charging_Adjusted_Penalty>
0.0551572

> <i_epik_Tot_Q>
0

> <i_epik_Tot_abs_Q>
0

> <r_epik_Metal_State_Penalty>
5.78034e-05

> <b_epik_Metal_Only>
0

> <s_lp_Force_Field>
OPLS_2005

> <r_lp_Energy>
12.6206

> <b_lp_Chiralities_Consistent>
1

> <s_lp_Variant>
AV-unprocessed.smi:1891-1

> <Gold.Version>
5.8.1

> <Gold.Id.Protein>
6NUR|6NUR_protein|mol2

> <Gold.PLP.Fitness>
53.1397

> <Gold.PLP.PLP>
-54.4812

> <Gold.PLP.part.hbond>
-3.6469

> <Gold.PLP.part.metal>
0.0000

> <Gold.PLP.part.buried>
-2.8522

> <Gold.PLP.part.nonpolar>
-46.4924

> <Gold.PLP.part.repulsive>
0.9934

> <Gold.PLP.ligand.clash>
0.0000

> <Gold.PLP.ligand.torsion>
0.6890

> <Gold.PLP.Chemscore.Hbond>
0.0000

> <Gold.PLP.Chemscore.CHOScore>
0.0000

> <Gold.PLP.Chemscore.Metal>
0.0000

> <Gold.PLP.Chemscore.Internal.Correction>
0.0364

> <Gold.Rescore>
     Score         DG    S(hbond)    S(metal)    S(lipo)     H(rot)  DE(clash)    DE(int)     intcor
     12.60     -15.10       0.00        0.00     145.13       2.88       1.73       0.77       ----

> <Gold.Chemscore.Fitness>
12.5973

> <Gold.Chemscore.DG>
-15.0961

> <Gold.Chemscore.ZeroCoef>
-5.4800

> <Gold.Chemscore.Hbond>
0.0000

> <Gold.Chemscore.Metal>
0.0000

> <Gold.Chemscore.Lipo>
145.1327

> <Gold.Chemscore.Internal_Hbond>
0.0000

> <Gold.Chemscore.DEClash>
1.7286

> <Gold.Chemscore.DEInternal>
0.7702

> <Gold.Chemscore.Rot>
2.8767

> <Gold.Chemscore.Internal.Correction>
   9.000000E+99

> <Gold.Chemscore.Hbond.Weighted>
-0.0000

> <Gold.Chemscore.Metal.Weighted>
-0.0000

> <Gold.Chemscore.Lipo.Weighted>
-16.9805

> <Gold.Chemscore.Internal_Hbond.Weighted>
0.0000

> <Gold.Chemscore.DEClash.Weighted>
1.7286

> <Gold.Chemscore.DEInternal.Weighted>
0.7702

> <Gold.Chemscore.Rot.Weighted>
7.3644

> <Gold.Chemscore.Internal.Correction.Weighted>
   9.000000E+99

> <Gold.Protein.RotatedTorsions>
[ 6907 6896 6895 6894 ] final  170.53 input  -60.11 | X-H torsion
[ 7974 7965 7964 7962 ] final  116.69 input  175.53 | X-H torsion
[ 8008 7997 7996 7995 ] final  -54.43 input   59.86 | X-H torsion
[ 10167 10162 10161 10158 ] final -162.83 input  -65.29 | X-H torsion
[ 10718 10713 10712 10709 ] final  170.59 input   66.30 | X-H torsion
[ 10763 10752 10751 10750 ] final    1.47 input  -60.55 | X-H torsion
[ 11005 11000 10999 10996 ] final   63.83 input  -57.11 | X-H torsion

> <Gold.Protein.ActiveResidues>
 VAL166  LYS551  ARG553  GLY616  TRP617  ASP618  TYR619  PRO620  LYS621  CYS622 
 ASP623  PHE694  ASN695  SER759  ASP760  ASP761  ALA762  ILE779  LEU786  VAL792 
 PHE793  MET794  SER795  GLU796  ALA797  LYS798  CYS799  TRP800  GLU811  SER814 

> <Gold.Protein.RotatedAtoms>
  151.8146  133.3386  159.3565 H   0  0  0  0  0  0  0  0  0  0  0  0  # atno 6907 bound_to 6896
  150.7314  134.5631  159.5862 H   0  0  0  0  0  0  0  0  0  0  0  0  # atno 6908 bound_to 6896
  152.3050  134.7567  160.0400 H   0  0  0  0  0  0  0  0  0  0  0  0  # atno 6909 bound_to 6896
  145.1765  139.3073  143.4440 H   0  0  0  0  0  0  0  0  0  0  0  0  # atno 7974 bound_to 7965
  154.4162  140.1176  156.5314 H   0  0  0  0  0  0  0  0  0  0  0  0  # atno 8008 bound_to 7997
  155.6602  140.3496  155.4760 H   0  0  0  0  0  0  0  0  0  0  0  0  # atno 8009 bound_to 7997
  155.9720  140.1143  157.0794 H   0  0  0  0  0  0  0  0  0  0  0  0  # atno 8010 bound_to 7997
  139.6364  144.0342  152.2057 H   0  0  0  0  0  0  0  0  0  0  0  0  # atno 10167 bound_to 10162
  157.0059  131.0190  151.2817 H   0  0  0  0  0  0  0  0  0  0  0  0  # atno 10718 bound_to 10713
  153.3076  135.6960  153.7145 H   0  0  0  0  0  0  0  0  0  0  0  0  # atno 10763 bound_to 10752
  153.6035  135.3457  155.2954 H   0  0  0  0  0  0  0  0  0  0  0  0  # atno 10764 bound_to 10752
  154.8567  135.4346  154.2205 H   0  0  0  0  0  0  0  0  0  0  0  0  # atno 10765 bound_to 10752
  139.9998  134.6459  155.9949 H   0  0  0  0  0  0  0  0  0  0  0  0  # atno 11005 bound_to 11000
  146.3460  140.1930  142.8589 LP  0  0  0  0  0  0  0  0  0  0  0  0  # atno 17320 bound_to 7965
  145.0179  140.8769  143.5184 LP  0  0  0  0  0  0  0  0  0  0  0  0  # atno 17321 bound_to 7965
  140.0021  144.6286  150.7721 LP  0  0  0  0  0  0  0  0  0  0  0  0  # atno 17342 bound_to 10162
  140.7467  143.2895  151.3369 LP  0  0  0  0  0  0  0  0  0  0  0  0  # atno 17343 bound_to 10162
  157.5356  130.8087  149.7968 LP  0  0  0  0  0  0  0  0  0  0  0  0  # atno 17370 bound_to 10713
  156.0154  130.3816  150.2128 LP  0  0  0  0  0  0  0  0  0  0  0  0  # atno 17371 bound_to 10713
  141.1633  133.6538  156.4394 LP  0  0  0  0  0  0  0  0  0  0  0  0  # atno 17394 bound_to 11000
  140.4748  134.6719  157.5145 LP  0  0  0  0  0  0  0  0  0  0  0  0  # atno 17395 bound_to 11000

$$$$
