AV-unprocessed.smi:2871|AV-procd|sdf|11032|dock9
  -GOLD-   2272015493D 1   1.00000     0.00000
 Structure written by MMmdl.
 38 40  0  0  0  0  0  0  0  0  1 V2000
  152.1789  144.0761  161.5026 C   0  0  0  0  0  0  0  0  0  0  0  0
  152.1354  143.4770  160.1751 N   0  0  0  0  0  0  0  0  0  0  0  0
  151.7612  144.2838  159.0185 C   0  0  0  0  0  0  0  0  0  0  0  0
  152.4723  142.1168  159.9998 C   0  0  0  0  0  0  0  0  0  0  0  0
  153.6261  141.5449  160.5897 C   0  0  0  0  0  0  0  0  0  0  0  0
  153.8622  140.1742  160.3394 C   0  0  0  0  0  0  0  0  0  0  0  0
  155.0672  139.4436  160.9125 C   0  0  0  0  0  0  0  0  0  0  0  0
  155.0993  139.5162  162.2438 F   0  0  0  0  0  0  0  0  0  0  0  0
  155.0225  138.1586  160.5602 F   0  0  0  0  0  0  0  0  0  0  0  0
  156.1890  139.9822  160.4338 F   0  0  0  0  0  0  0  0  0  0  0  0
  153.0236  139.4410  159.5731 N   0  0  0  0  0  0  0  0  0  0  0  0
  151.9652  140.0685  159.0620 C   0  0  0  0  0  0  0  0  0  0  0  0
  151.1331  139.2914  158.2777 N   0  0  0  0  0  0  0  0  0  0  0  0
  150.4168  139.7738  157.1020 C   0  0  2  0  0  0  0  0  0  0  0  0
  149.5194  138.7110  156.4639 C   0  0  0  0  0  0  0  0  0  0  0  0
  149.9939  138.7346  155.0038 C   0  0  2  0  0  0  0  0  0  0  0  0
  151.3542  138.0443  154.8419 C   0  0  0  0  0  0  0  0  0  0  0  0
  152.2963  139.0608  155.4839 C   0  0  0  0  0  0  0  0  0  0  0  0
  151.3215  140.1688  155.9177 C   0  0  1  0  0  0  0  0  0  0  0  0
  150.3766  140.0927  154.8636 O   0  0  0  0  0  0  0  0  0  0  0  0
  151.6515  141.3555  159.2373 N   0  0  0  0  0  0  0  0  0  0  0  0
  151.4856  143.5683  162.1737 H   0  0  0  0  0  0  0  0  0  0  0  0
  151.9001  145.1296  161.4716 H   0  0  0  0  0  0  0  0  0  0  0  0
  153.1830  144.0102  161.9223 H   0  0  0  0  0  0  0  0  0  0  0  0
  150.8853  143.8638  158.5235 H   0  0  0  0  0  0  0  0  0  0  0  0
  152.5799  144.3213  158.2991 H   0  0  0  0  0  0  0  0  0  0  0  0
  151.5223  145.3074  159.3069 H   0  0  0  0  0  0  0  0  0  0  0  0
  154.3042  142.1180  161.2033 H   0  0  0  0  0  0  0  0  0  0  0  0
  151.1013  138.3031  158.4814 H   0  0  0  0  0  0  0  0  0  0  0  0
  149.8012  140.6278  157.3880 H   0  0  0  0  0  0  0  0  0  0  0  0
  149.6229  137.7208  156.9102 H   0  0  0  0  0  0  0  0  0  0  0  0
  148.4726  139.0075  156.5387 H   0  0  0  0  0  0  0  0  0  0  0  0
  149.2416  138.4017  154.2882 H   0  0  0  0  0  0  0  0  0  0  0  0
  151.3869  137.0688  155.3281 H   0  0  0  0  0  0  0  0  0  0  0  0
  151.5988  137.9100  153.7877 H   0  0  0  0  0  0  0  0  0  0  0  0
  152.8698  138.6463  156.3132 H   0  0  0  0  0  0  0  0  0  0  0  0
  153.0027  139.4408  154.7453 H   0  0  0  0  0  0  0  0  0  0  0  0
  151.7880  141.1487  156.0235 H   0  0  0  0  0  0  0  0  0  0  0  0
  1  2  1  0  0  0  0
  1 22  1  0  0  0  0
  1 23  1  0  0  0  0
  1 24  1  0  0  0  0
  2  3  1  0  0  0  0
  2  4  1  0  0  0  0
  3 25  1  0  0  0  0
  3 26  1  0  0  0  0
  3 27  1  0  0  0  0
  4 21  1  0  0  0  0
  4  5  2  0  0  0  0
  5  6  1  0  0  0  0
  5 28  1  0  0  0  0
  6  7  1  0  0  0  0
  6 11  2  0  0  0  0
  7  8  1  0  0  0  0
  7  9  1  0  0  0  0
  7 10  1  0  0  0  0
 11 12  1  0  0  0  0
 12 13  1  0  0  0  0
 12 21  2  0  0  0  0
 13 14  1  0  0  0  0
 13 29  1  0  0  0  0
 14 19  1  0  0  0  0
 14 15  1  0  0  0  0
 14 30  1  0  0  0  0
 15 16  1  0  0  0  0
 15 31  1  0  0  0  0
 15 32  1  0  0  0  0
 16 20  1  0  0  0  0
 16 17  1  0  0  0  0
 16 33  1  0  0  0  0
 17 18  1  0  0  0  0
 17 34  1  0  0  0  0
 17 35  1  0  0  0  0
 18 19  1  0  0  0  0
 18 36  1  0  0  0  0
 18 37  1  0  0  0  0
 19 20  1  0  0  0  0
 19 38  1  0  0  0  0
M  END
> <s_m_source_file>
AV-unprocessed.smi

> <i_m_source_file_index>
2871

> <i_lp_mmshare_version>
43012

> <i_f3d_flags>
0

> <s_epik_input>
W0NIM11OKFtDSDNdKWMxW2NIXWMoQyhGKShGKUYpbmMobjEpW05IXVtDQEhdKFtDSDJdW0NAQEhdMjMpW0NAQEhdKE8zKVtDSDJdW0NIMl0y

> <s_epik_cmdline>
J2VwaWtfcHl0aG9uJywgJy1waCcsICc3LjAnLCAnLXRuJywgJzgnLCAnLW1hJywgJzIwMCcsICctbWV0YWxfYmluZGluZycsICctaW1hZScsICc8aW5maWxlLm1hZT4nLCAnLW9tYWUnLCAnPG91dGZpbGUubWFlPic=

> <r_lp_tautomer_probability>
1

> <r_epik_Ionization_Penalty>
0.00695968

> <r_epik_Ionization_Penalty_Charging>
0

> <r_epik_Ionization_Penalty_Neutral>
0.00695968

> <r_epik_State_Penalty>
0.0050343

> <r_epik_Charging_Adjusted_Penalty>
0.0050343

> <i_epik_Tot_Q>
0

> <i_epik_Tot_abs_Q>
0

> <r_epik_Metal_State_Penalty>
-0

> <b_epik_Metal_Only>
0

> <s_lp_Force_Field>
OPLS_2005

> <r_lp_Energy>
33.2945

> <b_lp_Chiralities_Consistent>
1

> <s_lp_Variant>
AV-unprocessed.smi:2871-3

> <Gold.Version>
5.8.1

> <Gold.Id.Protein>
6NUR|6NUR_protein|mol2

> <Gold.PLP.Fitness>
45.3909

> <Gold.PLP.PLP>
-44.5249

> <Gold.PLP.part.hbond>
-1.0000

> <Gold.PLP.part.metal>
0.0000

> <Gold.PLP.part.buried>
-4.6812

> <Gold.PLP.part.nonpolar>
-38.8832

> <Gold.PLP.part.repulsive>
0.1785

> <Gold.PLP.ligand.clash>
0.0000

> <Gold.PLP.ligand.torsion>
1.0809

> <Gold.PLP.Chemscore.Hbond>
1.0000

> <Gold.PLP.Chemscore.CHOScore>
0.0000

> <Gold.PLP.Chemscore.Metal>
0.0000

> <Gold.Chemscore.Hbonds>
donor molecule, donor type, donor heavy atom, donor atom, acceptor molecule, acceptor atom, score
      P1  H  7989  7998       L1    20  0.70

> <Gold.PLP.Chemscore.Internal.Correction>
0.0277

> <Gold.Rescore>
     Score         DG    S(hbond)    S(metal)    S(lipo)     H(rot)  DE(clash)    DE(int)     intcor
     14.93     -16.15       0.97        0.00      85.45       1.00       0.01       1.22       ----

> <Gold.Chemscore.Fitness>
14.9299

> <Gold.Chemscore.DG>
-16.1534

> <Gold.Chemscore.ZeroCoef>
-5.4800

> <Gold.Chemscore.Hbond>
0.9687

> <Gold.Chemscore.Metal>
0.0000

> <Gold.Chemscore.Lipo>
85.4513

> <Gold.Chemscore.Internal_Hbond>
0.0000

> <Gold.Chemscore.DEClash>
0.0053

> <Gold.Chemscore.DEInternal>
1.2182

> <Gold.Chemscore.Rot>
1.0000

> <Gold.Chemscore.Internal.Correction>
   9.000000E+99

> <Gold.Chemscore.Hbonds>
donor molecule, donor type, donor heavy atom, donor atom, acceptor molecule, acceptor atom, score
      P1  H  7989  7998       L1    20  0.07

> <Gold.Chemscore.Hbond.Weighted>
-3.2356

> <Gold.Chemscore.Metal.Weighted>
-0.0000

> <Gold.Chemscore.Lipo.Weighted>
-9.9978

> <Gold.Chemscore.Internal_Hbond.Weighted>
0.0000

> <Gold.Chemscore.DEClash.Weighted>
0.0053

> <Gold.Chemscore.DEInternal.Weighted>
1.2182

> <Gold.Chemscore.Rot.Weighted>
2.5600

> <Gold.Chemscore.Internal.Correction.Weighted>
   9.000000E+99

> <Gold.Protein.RotatedTorsions>
[ 6907 6896 6895 6894 ] final  -94.26 input  -60.11 | X-H torsion
[ 7974 7965 7964 7962 ] final  126.54 input  175.53 | X-H torsion
[ 8008 7997 7996 7995 ] final -149.94 input   59.86 | X-H torsion
[ 10167 10162 10161 10158 ] final -106.02 input  -65.29 | X-H torsion
[ 10718 10713 10712 10709 ] final -117.74 input   66.30 | X-H torsion
[ 10763 10752 10751 10750 ] final  145.81 input  -60.55 | X-H torsion
[ 11005 11000 10999 10996 ] final  164.52 input  -57.11 | X-H torsion

> <Gold.Protein.ActiveResidues>
 VAL166  LYS551  ARG553  GLY616  TRP617  ASP618  TYR619  PRO620  LYS621  CYS622 
 ASP623  PHE694  ASN695  SER759  ASP760  ASP761  ALA762  ILE779  LEU786  VAL792 
 PHE793  MET794  SER795  GLU796  ALA797  LYS798  CYS799  TRP800  GLU811  SER814 

> <Gold.Protein.RotatedAtoms>
  150.6938  134.1840  159.4259 H   0  0  0  0  0  0  0  0  0  0  0  0  # atno 6907 bound_to 6896
  151.9814  135.0024  160.0567 H   0  0  0  0  0  0  0  0  0  0  0  0  # atno 6908 bound_to 6896
  152.1752  133.4635  159.4966 H   0  0  0  0  0  0  0  0  0  0  0  0  # atno 6909 bound_to 6896
  145.0606  139.3809  143.5008 H   0  0  0  0  0  0  0  0  0  0  0  0  # atno 7974 bound_to 7965
  155.6156  140.0676  157.2693 H   0  0  0  0  0  0  0  0  0  0  0  0  # atno 8008 bound_to 7997
  154.4242  140.1793  156.1365 H   0  0  0  0  0  0  0  0  0  0  0  0  # atno 8009 bound_to 7997
  156.0050  140.3332  155.6887 H   0  0  0  0  0  0  0  0  0  0  0  0  # atno 8010 bound_to 7997
  140.1923  143.3882  152.1196 H   0  0  0  0  0  0  0  0  0  0  0  0  # atno 10167 bound_to 10162
  156.1055  130.6207  150.9202 H   0  0  0  0  0  0  0  0  0  0  0  0  # atno 10718 bound_to 10713
  154.0115  135.2914  155.3391 H   0  0  0  0  0  0  0  0  0  0  0  0  # atno 10763 bound_to 10752
  154.7100  135.5153  153.8655 H   0  0  0  0  0  0  0  0  0  0  0  0  # atno 10764 bound_to 10752
  153.0721  135.6651  154.0346 H   0  0  0  0  0  0  0  0  0  0  0  0  # atno 10765 bound_to 10752
  140.2468  134.8008  157.3463 H   0  0  0  0  0  0  0  0  0  0  0  0  # atno 11005 bound_to 11000
  146.3524  140.0301  142.8651 LP  0  0  0  0  0  0  0  0  0  0  0  0  # atno 17320 bound_to 7965
  145.1414  140.9573  143.4486 LP  0  0  0  0  0  0  0  0  0  0  0  0  # atno 17321 bound_to 7965
  139.5251  144.7091  151.5261 LP  0  0  0  0  0  0  0  0  0  0  0  0  # atno 17342 bound_to 10162
  140.6447  143.8818  150.6726 LP  0  0  0  0  0  0  0  0  0  0  0  0  # atno 17343 bound_to 10162
  157.6231  131.0928  150.8584 LP  0  0  0  0  0  0  0  0  0  0  0  0  # atno 17370 bound_to 10713
  156.8704  130.5144  149.5297 LP  0  0  0  0  0  0  0  0  0  0  0  0  # atno 17371 bound_to 10713
  140.1598  134.4743  155.7902 LP  0  0  0  0  0  0  0  0  0  0  0  0  # atno 17394 bound_to 11000
  141.2205  133.6896  156.7524 LP  0  0  0  0  0  0  0  0  0  0  0  0  # atno 17395 bound_to 11000

$$$$
