AV-unprocessed.smi:3250|AV-procd|sdf|12430|dock8
  -GOLD-   2272018323D 1   1.00000     0.00000
 Structure written by MMmdl.
 38 39  0  0  0  0  0  0  0  0  1 V2000
  152.9340  139.9214  159.7244 C   0  0  0  0  0  0  0  0  0  0  0  0
  152.0195  138.8101  159.1899 C   0  0  0  0  0  0  0  0  0  0  0  0
  151.5597  138.9982  157.8151 N   0  0  0  0  0  0  0  0  0  0  0  0
  152.6089  138.7373  156.8324 C   0  0  0  0  0  0  0  0  0  0  0  0
  152.1184  138.9759  155.3945 C   0  0  0  0  0  0  0  0  0  0  0  0
  151.6209  140.3042  155.2763 O   0  0  0  0  0  0  0  0  0  0  0  0
  150.5494  140.5792  156.1759 C   0  0  2  0  0  0  0  0  0  0  0  0
  150.0925  142.0275  155.9582 C   0  0  0  0  0  0  0  0  0  0  0  0
  150.9958  142.9765  156.5912 N   0  0  0  0  0  0  0  0  0  0  0  0
  150.7163  143.6426  157.7693 C   0  0  0  0  0  0  0  0  0  0  0  0
  151.6907  144.4293  158.2311 N   0  0  0  0  0  0  0  0  0  0  0  0
  151.4503  145.0909  159.3838 C   0  0  0  0  0  0  0  0  0  0  0  0
  150.2282  144.9625  160.0734 C   0  0  0  0  0  0  0  0  0  0  0  0
  149.2673  144.1083  159.4955 C   0  0  0  0  0  0  0  0  0  0  0  0
  148.0473  143.9405  160.1170 O   0  0  0  0  0  0  0  0  0  0  0  0
  147.6636  144.8882  161.1072 C   0  0  0  0  0  0  0  0  0  0  0  0
  149.5205  143.4483  158.3376 N   0  0  0  0  0  0  0  0  0  0  0  0
  151.0507  140.3512  157.6156 C   0  0  0  0  0  0  0  0  0  0  0  0
  153.3138  139.6614  160.7125 H   0  0  0  0  0  0  0  0  0  0  0  0
  152.4085  140.8711  159.8207 H   0  0  0  0  0  0  0  0  0  0  0  0
  153.7926  140.0732  159.0697 H   0  0  0  0  0  0  0  0  0  0  0  0
  152.5759  137.8738  159.2491 H   0  0  0  0  0  0  0  0  0  0  0  0
  151.1630  138.6916  159.8549 H   0  0  0  0  0  0  0  0  0  0  0  0
  153.4698  139.3775  157.0306 H   0  0  0  0  0  0  0  0  0  0  0  0
  152.9577  137.7085  156.9146 H   0  0  0  0  0  0  0  0  0  0  0  0
  152.9357  138.8363  154.6867 H   0  0  0  0  0  0  0  0  0  0  0  0
  151.3373  138.2620  155.1283 H   0  0  0  0  0  0  0  0  0  0  0  0
  149.7182  139.9014  155.9714 H   0  0  0  0  0  0  0  0  0  0  0  0
  150.0604  142.2443  154.8899 H   0  0  0  0  0  0  0  0  0  0  0  0
  149.0830  142.1685  156.3461 H   0  0  0  0  0  0  0  0  0  0  0  0
  151.9212  143.0884  156.2030 H   0  0  0  0  0  0  0  0  0  0  0  0
  152.2378  145.7273  159.7588 H   0  0  0  0  0  0  0  0  0  0  0  0
  150.0381  145.4919  160.9953 H   0  0  0  0  0  0  0  0  0  0  0  0
  146.6864  144.6178  161.5066 H   0  0  0  0  0  0  0  0  0  0  0  0
  147.5842  145.8927  160.6891 H   0  0  0  0  0  0  0  0  0  0  0  0
  148.3688  144.9024  161.9398 H   0  0  0  0  0  0  0  0  0  0  0  0
  150.2345  140.5425  158.3134 H   0  0  0  0  0  0  0  0  0  0  0  0
  151.8330  141.0765  157.8459 H   0  0  0  0  0  0  0  0  0  0  0  0
  1  2  1  0  0  0  0
  1 19  1  0  0  0  0
  1 20  1  0  0  0  0
  1 21  1  0  0  0  0
  2  3  1  0  0  0  0
  2 22  1  0  0  0  0
  2 23  1  0  0  0  0
  3 18  1  0  0  0  0
  3  4  1  0  0  0  0
  4  5  1  0  0  0  0
  4 24  1  0  0  0  0
  4 25  1  0  0  0  0
  5  6  1  0  0  0  0
  5 26  1  0  0  0  0
  5 27  1  0  0  0  0
  6  7  1  0  0  0  0
  7  8  1  0  0  0  0
  7 18  1  0  0  0  0
  7 28  1  0  0  0  0
  8  9  1  0  0  0  0
  8 29  1  0  0  0  0
  8 30  1  0  0  0  0
  9 10  1  0  0  0  0
  9 31  1  0  0  0  0
 10 17  1  0  0  0  0
 10 11  2  0  0  0  0
 11 12  1  0  0  0  0
 12 13  2  0  0  0  0
 12 32  1  0  0  0  0
 13 14  1  0  0  0  0
 13 33  1  0  0  0  0
 14 15  1  0  0  0  0
 14 17  2  0  0  0  0
 15 16  1  0  0  0  0
 16 34  1  0  0  0  0
 16 35  1  0  0  0  0
 16 36  1  0  0  0  0
 18 37  1  0  0  0  0
 18 38  1  0  0  0  0
M  END
> <s_m_source_file>
AV-unprocessed.smi

> <i_m_source_file_index>
3250

> <i_lp_mmshare_version>
43012

> <i_f3d_flags>
0

> <s_epik_input>
W0NIM11bQ0gyXU4xW0NIMl1bQ0gyXU9bQ0BIXShbQ0gyXTEpW0NIMl1bTkhdYzJuW2NIXVtjSF1jKG4yKU9bQ0gzXQ==

> <s_epik_cmdline>
J2VwaWtfcHl0aG9uJywgJy1waCcsICc3LjAnLCAnLXRuJywgJzgnLCAnLW1hJywgJzIwMCcsICctbWV0YWxfYmluZGluZycsICctaW1hZScsICc8aW5maWxlLm1hZT4nLCAnLW9tYWUnLCAnPG91dGZpbGUubWFlPic=

> <r_lp_tautomer_probability>
1

> <r_epik_Ionization_Penalty>
0.832605

> <r_epik_Ionization_Penalty_Charging>
0

> <r_epik_Ionization_Penalty_Neutral>
0.832605

> <r_epik_State_Penalty>
0.927194

> <r_epik_Charging_Adjusted_Penalty>
0.927194

> <i_epik_Tot_Q>
0

> <i_epik_Tot_abs_Q>
0

> <r_epik_Metal_State_Penalty>
0.908632

> <b_epik_Metal_Only>
0

> <s_lp_Force_Field>
OPLS_2005

> <r_lp_Energy>
15.3414

> <b_lp_Chiralities_Consistent>
1

> <s_lp_Variant>
AV-unprocessed.smi:3250-6

> <Gold.Version>
5.8.1

> <Gold.Id.Protein>
6NUR|6NUR_protein|mol2

> <Gold.PLP.Fitness>
36.9670

> <Gold.PLP.PLP>
-32.5645

> <Gold.PLP.part.hbond>
-3.0000

> <Gold.PLP.part.metal>
0.0000

> <Gold.PLP.part.buried>
-3.6616

> <Gold.PLP.part.nonpolar>
-26.8831

> <Gold.PLP.part.repulsive>
0.6128

> <Gold.PLP.ligand.clash>
0.0000

> <Gold.PLP.ligand.torsion>
0.5671

> <Gold.PLP.Chemscore.Hbond>
1.8400

> <Gold.PLP.Chemscore.CHOScore>
0.0000

> <Gold.PLP.Chemscore.Metal>
0.0000

> <Gold.Chemscore.Hbonds>
donor molecule, donor type, donor heavy atom, donor atom, acceptor molecule, acceptor atom, score
      P1  H  6933  6944       L1    15  0.69
      P1  H  7989  7998       L1     6  0.90

> <Gold.PLP.Chemscore.Internal.Correction>
0.0167

> <Gold.Rescore>
     Score         DG    S(hbond)    S(metal)    S(lipo)     H(rot)  DE(clash)    DE(int)     intcor
     12.76     -14.29       1.45        0.00      70.45       1.67       0.77       0.76       ----

> <Gold.Chemscore.Fitness>
12.7576

> <Gold.Chemscore.DG>
-14.2898

> <Gold.Chemscore.ZeroCoef>
-5.4800

> <Gold.Chemscore.Hbond>
1.4466

> <Gold.Chemscore.Metal>
0.0000

> <Gold.Chemscore.Lipo>
70.4475

> <Gold.Chemscore.Internal_Hbond>
0.0000

> <Gold.Chemscore.DEClash>
0.7680

> <Gold.Chemscore.DEInternal>
0.7642

> <Gold.Chemscore.Rot>
1.6657

> <Gold.Chemscore.Internal.Correction>
   9.000000E+99

> <Gold.Chemscore.Hbonds>
donor molecule, donor type, donor heavy atom, donor atom, acceptor molecule, acceptor atom, score
      P1  H  6933  6944       L1    15  0.03
      P1  H  7989  7998       L1     6  0.69

> <Gold.Chemscore.Hbond.Weighted>
-4.8317

> <Gold.Chemscore.Metal.Weighted>
-0.0000

> <Gold.Chemscore.Lipo.Weighted>
-8.2424

> <Gold.Chemscore.Internal_Hbond.Weighted>
0.0000

> <Gold.Chemscore.DEClash.Weighted>
0.7680

> <Gold.Chemscore.DEInternal.Weighted>
0.7642

> <Gold.Chemscore.Rot.Weighted>
4.2642

> <Gold.Chemscore.Internal.Correction.Weighted>
   9.000000E+99

> <Gold.Protein.RotatedTorsions>
[ 6907 6896 6895 6894 ] final  -19.37 input  -60.11 | X-H torsion
[ 7974 7965 7964 7962 ] final   -6.60 input  175.53 | X-H torsion
[ 8008 7997 7996 7995 ] final   22.98 input   59.86 | X-H torsion
[ 10167 10162 10161 10158 ] final  164.24 input  -65.29 | X-H torsion
[ 10718 10713 10712 10709 ] final  114.05 input   66.30 | X-H torsion
[ 10763 10752 10751 10750 ] final  -33.57 input  -60.55 | X-H torsion
[ 11005 11000 10999 10996 ] final -177.42 input  -57.11 | X-H torsion

> <Gold.Protein.ActiveResidues>
 VAL166  LYS551  ARG553  GLY616  TRP617  ASP618  TYR619  PRO620  LYS621  CYS622 
 ASP623  PHE694  ASN695  SER759  ASP760  ASP761  ALA762  ILE779  LEU786  VAL792 
 PHE793  MET794  SER795  GLU796  ALA797  LYS798  CYS799  TRP800  GLU811  SER814 

> <Gold.Protein.RotatedAtoms>
  151.2641  135.0663  159.9108 H   0  0  0  0  0  0  0  0  0  0  0  0  # atno 6907 bound_to 6896
  152.5361  134.0200  159.7987 H   0  0  0  0  0  0  0  0  0  0  0  0  # atno 6908 bound_to 6896
  151.0428  133.5642  159.2680 H   0  0  0  0  0  0  0  0  0  0  0  0  # atno 6909 bound_to 6896
  146.2327  140.2194  142.8337 H   0  0  0  0  0  0  0  0  0  0  0  0  # atno 7974 bound_to 7965
  154.9739  140.3093  155.4975 H   0  0  0  0  0  0  0  0  0  0  0  0  # atno 8008 bound_to 7997
  156.2962  140.2279  156.4773 H   0  0  0  0  0  0  0  0  0  0  0  0  # atno 8009 bound_to 7997
  154.7851  140.0443  157.1146 H   0  0  0  0  0  0  0  0  0  0  0  0  # atno 8010 bound_to 7997
  139.4886  144.4255  151.9134 H   0  0  0  0  0  0  0  0  0  0  0  0  # atno 10167 bound_to 10162
  157.6303  131.0993  150.7129 H   0  0  0  0  0  0  0  0  0  0  0  0  # atno 10718 bound_to 10713
  153.8324  135.6865  153.4813 H   0  0  0  0  0  0  0  0  0  0  0  0  # atno 10763 bound_to 10752
  153.1503  135.4621  154.9625 H   0  0  0  0  0  0  0  0  0  0  0  0  # atno 10764 bound_to 10752
  154.7881  135.3292  154.7785 H   0  0  0  0  0  0  0  0  0  0  0  0  # atno 10765 bound_to 10752
  140.4411  134.6431  157.4758 H   0  0  0  0  0  0  0  0  0  0  0  0  # atno 11005 bound_to 11000
  144.9644  140.8307  143.5494 LP  0  0  0  0  0  0  0  0  0  0  0  0  # atno 17320 bound_to 7965
  145.2168  139.2178  143.5114 LP  0  0  0  0  0  0  0  0  0  0  0  0  # atno 17321 bound_to 7965
  140.3701  144.2866  150.5921 LP  0  0  0  0  0  0  0  0  0  0  0  0  # atno 17342 bound_to 10162
  140.5327  143.2240  151.8213 LP  0  0  0  0  0  0  0  0  0  0  0  0  # atno 17343 bound_to 10162
  156.7470  130.4757  149.5465 LP  0  0  0  0  0  0  0  0  0  0  0  0  # atno 17370 bound_to 10713
  156.1503  130.6305  151.0586 LP  0  0  0  0  0  0  0  0  0  0  0  0  # atno 17371 bound_to 10713
  140.0069  134.6749  155.9440 LP  0  0  0  0  0  0  0  0  0  0  0  0  # atno 17394 bound_to 11000
  141.1705  133.6537  156.4635 LP  0  0  0  0  0  0  0  0  0  0  0  0  # atno 17395 bound_to 11000

$$$$
