AV-unprocessed.smi:2878|AV-procd|sdf|11047|dock2
  -GOLD-   2272015513D 1   1.00000     0.00000
 Structure written by MMmdl.
 42 43  0  0  0  0  0  0  0  0  1 V2000
  153.9192  140.7559  161.0203 C   0  0  0  0  0  0  0  0  0  0  0  0
  152.8138  141.9242  161.8575 S   0  0  0  0  0  0  0  0  0  0  0  0
  152.6689  143.2286  160.5943 C   0  0  2  0  0  0  0  0  0  0  0  0
  151.5116  144.1880  160.9337 C   0  0  0  0  0  0  0  0  0  0  0  0
  151.3988  145.3198  159.9001 C   0  0  0  0  0  0  0  0  0  0  0  0
  151.2453  144.7623  158.4772 C   0  0  0  0  0  0  0  0  0  0  0  0
  152.3932  143.7990  158.1291 C   0  0  0  0  0  0  0  0  0  0  0  0
  152.5324  142.6580  159.1607 C   0  0  2  0  0  0  0  0  0  0  0  0
  151.4039  141.7304  159.0704 N   0  0  0  0  0  0  0  0  0  0  0  0
  150.8836  141.2518  157.9322 C   0  0  0  0  0  0  0  0  0  0  0  0
  151.2855  141.5538  156.8084 O   0  0  0  0  0  0  0  0  0  0  0  0
  149.8727  140.4036  158.1654 N   0  0  0  0  0  0  0  0  0  0  0  0
  149.0974  139.7270  157.1316 C   0  0  0  0  0  0  0  0  0  0  0  0
  149.6434  138.3204  156.8380 C   0  0  0  0  0  0  0  0  0  0  0  0
  149.3026  137.3438  157.9135 C   0  0  0  0  0  0  0  0  0  0  0  0
  148.5573  137.5652  158.9936 N   0  0  0  0  0  0  0  0  0  0  0  0
  148.5460  136.3273  159.5604 C   0  0  0  0  0  0  0  0  0  0  0  0
  147.8327  136.0254  160.8338 C   0  0  0  0  0  0  0  0  0  0  0  0
  149.2060  135.3817  158.9033 N   0  0  0  0  0  0  0  0  0  0  0  0
  149.7109  136.0585  157.7834 O   0  0  0  0  0  0  0  0  0  0  0  0
  154.1597  139.9276  161.6866 H   0  0  0  0  0  0  0  0  0  0  0  0
  154.8487  141.2481  160.7339 H   0  0  0  0  0  0  0  0  0  0  0  0
  153.4486  140.3474  160.1265 H   0  0  0  0  0  0  0  0  0  0  0  0
  153.5930  143.8066  160.6425 H   0  0  0  0  0  0  0  0  0  0  0  0
  150.5704  143.6383  160.9773 H   0  0  0  0  0  0  0  0  0  0  0  0
  151.6625  144.6156  161.9255 H   0  0  0  0  0  0  0  0  0  0  0  0
  150.5506  145.9610  160.1414 H   0  0  0  0  0  0  0  0  0  0  0  0
  152.2874  145.9502  159.9507 H   0  0  0  0  0  0  0  0  0  0  0  0
  150.2888  144.2459  158.3868 H   0  0  0  0  0  0  0  0  0  0  0  0
  151.2200  145.5824  157.7590 H   0  0  0  0  0  0  0  0  0  0  0  0
  152.2490  143.3939  157.1270 H   0  0  0  0  0  0  0  0  0  0  0  0
  153.3277  144.3605  158.0930 H   0  0  0  0  0  0  0  0  0  0  0  0
  153.4442  142.1077  158.9254 H   0  0  0  0  0  0  0  0  0  0  0  0
  151.0050  141.4186  159.9437 H   0  0  0  0  0  0  0  0  0  0  0  0
  149.6177  140.2166  159.1241 H   0  0  0  0  0  0  0  0  0  0  0  0
  148.0643  139.6590  157.4737 H   0  0  0  0  0  0  0  0  0  0  0  0
  149.0845  140.3297  156.2216 H   0  0  0  0  0  0  0  0  0  0  0  0
  149.2444  137.9452  155.8947 H   0  0  0  0  0  0  0  0  0  0  0  0
  150.7279  138.3533  156.7277 H   0  0  0  0  0  0  0  0  0  0  0  0
  148.4606  135.4201  161.4882 H   0  0  0  0  0  0  0  0  0  0  0  0
  146.9134  135.4763  160.6286 H   0  0  0  0  0  0  0  0  0  0  0  0
  147.5763  136.9460  161.3592 H   0  0  0  0  0  0  0  0  0  0  0  0
  1  2  1  0  0  0  0
  1 21  1  0  0  0  0
  1 22  1  0  0  0  0
  1 23  1  0  0  0  0
  2  3  1  0  0  0  0
  3  8  1  0  0  0  0
  3  4  1  0  0  0  0
  3 24  1  0  0  0  0
  4  5  1  0  0  0  0
  4 25  1  0  0  0  0
  4 26  1  0  0  0  0
  5  6  1  0  0  0  0
  5 27  1  0  0  0  0
  5 28  1  0  0  0  0
  6  7  1  0  0  0  0
  6 29  1  0  0  0  0
  6 30  1  0  0  0  0
  7  8  1  0  0  0  0
  7 31  1  0  0  0  0
  7 32  1  0  0  0  0
  8  9  1  0  0  0  0
  8 33  1  0  0  0  0
  9 10  1  0  0  0  0
  9 34  1  0  0  0  0
 10 11  2  0  0  0  0
 10 12  1  0  0  0  0
 12 13  1  0  0  0  0
 12 35  1  0  0  0  0
 13 14  1  0  0  0  0
 13 36  1  0  0  0  0
 13 37  1  0  0  0  0
 14 15  1  0  0  0  0
 14 38  1  0  0  0  0
 14 39  1  0  0  0  0
 15 20  1  0  0  0  0
 15 16  2  0  0  0  0
 16 17  1  0  0  0  0
 17 18  1  0  0  0  0
 17 19  2  0  0  0  0
 18 40  1  0  0  0  0
 18 41  1  0  0  0  0
 18 42  1  0  0  0  0
 19 20  1  0  0  0  0
M  END
> <s_m_source_file>
AV-unprocessed.smi

> <i_m_source_file_index>
2878

> <i_lp_mmshare_version>
43012

> <i_f3d_flags>
0

> <s_epik_input>
W0NIM11TW0NAQEhdMVtDSDJdW0NIMl1bQ0gyXVtDSDJdW0NASF0xW05IXUMoPU8pW05IXVtDSDJdW0NIMl1jMm5jKFtDSDNdKW5vMg==

> <s_epik_cmdline>
J2VwaWtfcHl0aG9uJywgJy1waCcsICc3LjAnLCAnLXRuJywgJzgnLCAnLW1hJywgJzIwMCcsICctbWV0YWxfYmluZGluZycsICctaW1hZScsICc8aW5maWxlLm1hZT4nLCAnLW9tYWUnLCAnPG91dGZpbGUubWFlPic=

> <r_lp_tautomer_probability>
1

> <r_epik_Ionization_Penalty>
4.9299e-05

> <r_epik_Ionization_Penalty_Charging>
0

> <r_epik_Ionization_Penalty_Neutral>
4.9299e-05

> <r_epik_State_Penalty>
-0

> <r_epik_Charging_Adjusted_Penalty>
0

> <i_epik_Tot_Q>
0

> <i_epik_Tot_abs_Q>
0

> <r_epik_Metal_State_Penalty>
-0

> <b_epik_Metal_Only>
0

> <s_lp_Force_Field>
OPLS_2005

> <r_lp_Energy>
0.628987

> <b_lp_Chiralities_Consistent>
1

> <s_lp_Variant>
AV-unprocessed.smi:2878-3

> <Gold.Version>
5.8.1

> <Gold.Id.Protein>
6NUR|6NUR_protein|mol2

> <Gold.PLP.Fitness>
44.5907

> <Gold.PLP.PLP>
-42.5099

> <Gold.PLP.part.hbond>
-2.8699

> <Gold.PLP.part.metal>
0.0000

> <Gold.PLP.part.buried>
-5.7593

> <Gold.PLP.part.nonpolar>
-34.8462

> <Gold.PLP.part.repulsive>
0.3970

> <Gold.PLP.ligand.clash>
0.0000

> <Gold.PLP.ligand.torsion>
0.5280

> <Gold.PLP.Chemscore.Hbond>
1.0208

> <Gold.PLP.Chemscore.CHOScore>
0.0000

> <Gold.PLP.Chemscore.Metal>
0.0000

> <Gold.Chemscore.Hbonds>
donor molecule, donor type, donor heavy atom, donor atom, acceptor molecule, acceptor atom, score
      P1  H  6896  6908       L1    19  1.00

> <Gold.PLP.Chemscore.Internal.Correction>
0.0745

> <Gold.Rescore>
     Score         DG    S(hbond)    S(metal)    S(lipo)     H(rot)  DE(clash)    DE(int)     intcor
     14.00     -15.98       0.97        0.00     107.87       2.09       0.03       1.95       ----

> <Gold.Chemscore.Fitness>
13.9995

> <Gold.Chemscore.DG>
-15.9754

> <Gold.Chemscore.ZeroCoef>
-5.4800

> <Gold.Chemscore.Hbond>
0.9672

> <Gold.Chemscore.Metal>
0.0000

> <Gold.Chemscore.Lipo>
107.8746

> <Gold.Chemscore.Internal_Hbond>
0.0000

> <Gold.Chemscore.DEClash>
0.0294

> <Gold.Chemscore.DEInternal>
1.9465

> <Gold.Chemscore.Rot>
2.0923

> <Gold.Chemscore.Internal.Correction>
   9.000000E+99

> <Gold.Chemscore.Hbonds>
donor molecule, donor type, donor heavy atom, donor atom, acceptor molecule, acceptor atom, score
      P1  H  6896  6908       L1    19  0.40

> <Gold.Chemscore.Hbond.Weighted>
-3.2303

> <Gold.Chemscore.Metal.Weighted>
-0.0000

> <Gold.Chemscore.Lipo.Weighted>
-12.6213

> <Gold.Chemscore.Internal_Hbond.Weighted>
0.0000

> <Gold.Chemscore.DEClash.Weighted>
0.0294

> <Gold.Chemscore.DEInternal.Weighted>
1.9465

> <Gold.Chemscore.Rot.Weighted>
5.3562

> <Gold.Chemscore.Internal.Correction.Weighted>
   9.000000E+99

> <Gold.Protein.RotatedTorsions>
[ 6907 6896 6895 6894 ] final  162.69 input  -60.11 | X-H torsion
[ 7974 7965 7964 7962 ] final -124.93 input  175.53 | X-H torsion
[ 8008 7997 7996 7995 ] final  -59.17 input   59.86 | X-H torsion
[ 10167 10162 10161 10158 ] final  -16.00 input  -65.29 | X-H torsion
[ 10718 10713 10712 10709 ] final   12.57 input   66.30 | X-H torsion
[ 10763 10752 10751 10750 ] final -174.79 input  -60.55 | X-H torsion
[ 11005 11000 10999 10996 ] final -116.79 input  -57.11 | X-H torsion

> <Gold.Protein.ActiveResidues>
 VAL166  LYS551  ARG553  GLY616  TRP617  ASP618  TYR619  PRO620  LYS621  CYS622 
 ASP623  PHE694  ASN695  SER759  ASP760  ASP761  ALA762  ILE779  LEU786  VAL792 
 PHE793  MET794  SER795  GLU796  ALA797  LYS798  CYS799  TRP800  GLU811  SER814 

> <Gold.Protein.RotatedAtoms>
  151.9366  133.3626  159.3949 H   0  0  0  0  0  0  0  0  0  0  0  0  # atno 6907 bound_to 6896
  150.7006  134.4483  159.5333 H   0  0  0  0  0  0  0  0  0  0  0  0  # atno 6908 bound_to 6896
  152.2132  134.8482  160.0545 H   0  0  0  0  0  0  0  0  0  0  0  0  # atno 6909 bound_to 6896
  145.0029  140.7836  143.4485 H   0  0  0  0  0  0  0  0  0  0  0  0  # atno 7974 bound_to 7965
  154.4340  140.1067  156.6073 H   0  0  0  0  0  0  0  0  0  0  0  0  # atno 8008 bound_to 7997
  155.5847  140.3491  155.4531 H   0  0  0  0  0  0  0  0  0  0  0  0  # atno 8009 bound_to 7997
  156.0292  140.1257  157.0265 H   0  0  0  0  0  0  0  0  0  0  0  0  # atno 8010 bound_to 7997
  140.7227  143.5160  150.9691 H   0  0  0  0  0  0  0  0  0  0  0  0  # atno 10167 bound_to 10162
  157.0121  130.6121  149.5709 H   0  0  0  0  0  0  0  0  0  0  0  0  # atno 10718 bound_to 10713
  154.5920  135.2846  155.0625 H   0  0  0  0  0  0  0  0  0  0  0  0  # atno 10763 bound_to 10752
  154.1922  135.6439  153.5067 H   0  0  0  0  0  0  0  0  0  0  0  0  # atno 10764 bound_to 10752
  153.0125  135.5449  154.6609 H   0  0  0  0  0  0  0  0  0  0  0  0  # atno 10765 bound_to 10752
  141.0398  133.9853  157.3012 H   0  0  0  0  0  0  0  0  0  0  0  0  # atno 11005 bound_to 11000
  145.2128  139.2196  143.5134 LP  0  0  0  0  0  0  0  0  0  0  0  0  # atno 17320 bound_to 7965
  146.3455  140.1970  142.8589 LP  0  0  0  0  0  0  0  0  0  0  0  0  # atno 17321 bound_to 7965
  139.8876  143.6994  152.3149 LP  0  0  0  0  0  0  0  0  0  0  0  0  # atno 17342 bound_to 10162
  139.7298  144.7585  151.0820 LP  0  0  0  0  0  0  0  0  0  0  0  0  # atno 17343 bound_to 10162
  156.0132  130.5225  150.8055 LP  0  0  0  0  0  0  0  0  0  0  0  0  # atno 17370 bound_to 10713
  157.5313  131.0936  150.9951 LP  0  0  0  0  0  0  0  0  0  0  0  0  # atno 17371 bound_to 10713
  139.9267  135.0201  156.8260 LP  0  0  0  0  0  0  0  0  0  0  0  0  # atno 17394 bound_to 11000
  140.6255  133.9954  155.7638 LP  0  0  0  0  0  0  0  0  0  0  0  0  # atno 17395 bound_to 11000

$$$$
