AV-unprocessed.smi:1102|AV-procd|sdf|4769|dock8
  -GOLD-   22720 3313D 1   1.00000     0.00000
 Structure written by MMmdl.
 39 40  0  0  0  0  0  0  0  0  1 V2000
  151.2377  145.5181  159.9639 C   0  0  0  0  0  0  0  0  0  0  0  0
  151.7322  144.2079  159.5606 N   0  0  0  0  0  0  0  0  0  0  0  0
  151.3062  143.6288  158.2905 C   0  0  0  0  0  0  0  0  0  0  0  0
  152.5818  143.4720  160.4182 C   0  0  0  0  0  0  0  0  0  0  0  0
  152.8587  143.9072  161.7380 C   0  0  0  0  0  0  0  0  0  0  0  0
  153.7120  143.1372  162.5510 C   0  0  0  0  0  0  0  0  0  0  0  0
  154.2794  141.9569  162.0343 C   0  0  0  0  0  0  0  0  0  0  0  0
  155.1193  141.1889  162.8853 N   0  0  0  0  0  0  0  0  0  0  0  0
  155.5346  139.9205  162.7272 C   0  0  0  0  0  0  0  0  0  0  0  0
  155.2961  139.2103  161.7508 O   0  0  0  0  0  0  0  0  0  0  0  0
  156.2723  139.5191  163.7720 N   0  0  0  0  0  0  0  0  0  0  0  0
  156.8582  138.1919  163.9245 C   0  0  0  0  0  0  0  0  0  0  0  0
  155.7768  137.0993  163.9698 C   0  0  2  0  0  0  0  0  0  0  0  0
  154.5724  137.4670  164.8355 C   0  0  0  0  0  0  0  0  0  0  0  0
  154.0353  136.1046  165.2087 C   0  0  0  0  0  0  0  0  0  0  0  0
  155.3228  135.3148  165.4195 C   0  0  0  0  0  0  0  0  0  0  0  0
  156.2839  135.8951  164.5423 O   0  0  0  0  0  0  0  0  0  0  0  0
  153.9385  141.5932  160.7105 C   0  0  0  0  0  0  0  0  0  0  0  0
  153.1197  142.3280  159.9287 N   0  0  0  0  0  0  0  0  0  0  0  0
  150.6621  145.4428  160.8870 H   0  0  0  0  0  0  0  0  0  0  0  0
  150.5887  145.9492  159.2018 H   0  0  0  0  0  0  0  0  0  0  0  0
  152.0660  146.2090  160.1229 H   0  0  0  0  0  0  0  0  0  0  0  0
  150.7531  142.7039  158.4579 H   0  0  0  0  0  0  0  0  0  0  0  0
  152.1693  143.4080  157.6615 H   0  0  0  0  0  0  0  0  0  0  0  0
  150.6582  144.3100  157.7389 H   0  0  0  0  0  0  0  0  0  0  0  0
  152.4343  144.8131  162.1432 H   0  0  0  0  0  0  0  0  0  0  0  0
  153.9287  143.4549  163.5605 H   0  0  0  0  0  0  0  0  0  0  0  0
  155.4731  141.6745  163.6965 H   0  0  0  0  0  0  0  0  0  0  0  0
  156.4242  140.1722  164.5264 H   0  0  0  0  0  0  0  0  0  0  0  0
  157.5792  137.9898  163.1305 H   0  0  0  0  0  0  0  0  0  0  0  0
  157.4205  138.1867  164.8586 H   0  0  0  0  0  0  0  0  0  0  0  0
  155.4300  136.8691  162.9609 H   0  0  0  0  0  0  0  0  0  0  0  0
  154.8899  137.9990  165.7337 H   0  0  0  0  0  0  0  0  0  0  0  0
  153.8440  138.0857  164.3107 H   0  0  0  0  0  0  0  0  0  0  0  0
  153.3944  136.1202  166.0905 H   0  0  0  0  0  0  0  0  0  0  0  0
  153.4667  135.6852  164.3776 H   0  0  0  0  0  0  0  0  0  0  0  0
  155.6776  135.4296  166.4443 H   0  0  0  0  0  0  0  0  0  0  0  0
  155.1948  134.2503  165.2229 H   0  0  0  0  0  0  0  0  0  0  0  0
  154.2999  140.6852  160.2538 H   0  0  0  0  0  0  0  0  0  0  0  0
  1  2  1  0  0  0  0
  1 20  1  0  0  0  0
  1 21  1  0  0  0  0
  1 22  1  0  0  0  0
  2  3  1  0  0  0  0
  2  4  1  0  0  0  0
  3 23  1  0  0  0  0
  3 24  1  0  0  0  0
  3 25  1  0  0  0  0
  4 19  1  0  0  0  0
  4  5  2  0  0  0  0
  5  6  1  0  0  0  0
  5 26  1  0  0  0  0
  6  7  2  0  0  0  0
  6 27  1  0  0  0  0
  7  8  1  0  0  0  0
  7 18  1  0  0  0  0
  8  9  1  0  0  0  0
  8 28  1  0  0  0  0
  9 10  2  0  0  0  0
  9 11  1  0  0  0  0
 11 12  1  0  0  0  0
 11 29  1  0  0  0  0
 12 13  1  0  0  0  0
 12 30  1  0  0  0  0
 12 31  1  0  0  0  0
 13 17  1  0  0  0  0
 13 14  1  0  0  0  0
 13 32  1  0  0  0  0
 14 15  1  0  0  0  0
 14 33  1  0  0  0  0
 14 34  1  0  0  0  0
 15 16  1  0  0  0  0
 15 35  1  0  0  0  0
 15 36  1  0  0  0  0
 16 17  1  0  0  0  0
 16 37  1  0  0  0  0
 16 38  1  0  0  0  0
 18 19  2  0  0  0  0
 18 39  1  0  0  0  0
M  END
> <s_m_source_file>
AV-unprocessed.smi

> <i_m_source_file_index>
1102

> <i_lp_mmshare_version>
43012

> <i_f3d_flags>
0

> <s_epik_input>
W0NIM11OKFtDSDNdKWMxW2NIXVtjSF1jKFtjSF1uMSlbTkhdQyg9TylbTkhdW0NIMl1bQ0BASF0yW0NIMl1bQ0gyXVtDSDJdTzI=

> <s_epik_cmdline>
J2VwaWtfcHl0aG9uJywgJy1waCcsICc3LjAnLCAnLXRuJywgJzgnLCAnLW1hJywgJzIwMCcsICctbWV0YWxfYmluZGluZycsICctaW1hZScsICc8aW5maWxlLm1hZT4nLCAnLW9tYWUnLCAnPG91dGZpbGUubWFlPic=

> <r_lp_tautomer_probability>
1

> <r_epik_Ionization_Penalty>
0.605145

> <r_epik_Ionization_Penalty_Charging>
0

> <r_epik_Ionization_Penalty_Neutral>
0.605145

> <r_epik_State_Penalty>
0.618734

> <r_epik_Charging_Adjusted_Penalty>
0.618734

> <i_epik_Tot_Q>
0

> <i_epik_Tot_abs_Q>
0

> <r_epik_Metal_State_Penalty>
0.302184

> <b_epik_Metal_Only>
0

> <s_lp_Force_Field>
OPLS_2005

> <r_lp_Energy>
22.0104

> <b_lp_Chiralities_Consistent>
1

> <s_lp_Variant>
AV-unprocessed.smi:1102-3

> <Gold.Version>
5.8.1

> <Gold.Id.Protein>
6NUR|6NUR_protein|mol2

> <Gold.PLP.Fitness>
42.3508

> <Gold.PLP.PLP>
-42.8054

> <Gold.PLP.part.hbond>
-1.0000

> <Gold.PLP.part.metal>
0.0000

> <Gold.PLP.part.buried>
-4.2720

> <Gold.PLP.part.nonpolar>
-37.4862

> <Gold.PLP.part.repulsive>
0.0472

> <Gold.PLP.ligand.clash>
0.0000

> <Gold.PLP.ligand.torsion>
0.2318

> <Gold.PLP.Chemscore.Hbond>
0.0000

> <Gold.PLP.Chemscore.CHOScore>
0.0000

> <Gold.PLP.Chemscore.Metal>
0.0000

> <Gold.PLP.Chemscore.Internal.Correction>
0.0089

> <Gold.Rescore>
     Score         DG    S(hbond)    S(metal)    S(lipo)     H(rot)  DE(clash)    DE(int)     intcor
     12.49     -14.01       0.00        0.00      99.47       1.21       0.01       1.51       ----

> <Gold.Chemscore.Fitness>
12.4907

> <Gold.Chemscore.DG>
-14.0092

> <Gold.Chemscore.ZeroCoef>
-5.4800

> <Gold.Chemscore.Hbond>
0.0000

> <Gold.Chemscore.Metal>
0.0000

> <Gold.Chemscore.Lipo>
99.4747

> <Gold.Chemscore.Internal_Hbond>
0.0000

> <Gold.Chemscore.DEClash>
0.0050

> <Gold.Chemscore.DEInternal>
1.5135

> <Gold.Chemscore.Rot>
1.2146

> <Gold.Chemscore.Internal.Correction>
   9.000000E+99

> <Gold.Chemscore.Hbond.Weighted>
-0.0000

> <Gold.Chemscore.Metal.Weighted>
-0.0000

> <Gold.Chemscore.Lipo.Weighted>
-11.6385

> <Gold.Chemscore.Internal_Hbond.Weighted>
0.0000

> <Gold.Chemscore.DEClash.Weighted>
0.0050

> <Gold.Chemscore.DEInternal.Weighted>
1.5135

> <Gold.Chemscore.Rot.Weighted>
3.1093

> <Gold.Chemscore.Internal.Correction.Weighted>
   9.000000E+99

> <Gold.Protein.RotatedTorsions>
[ 6907 6896 6895 6894 ] final   -4.23 input  -60.11 | X-H torsion
[ 7974 7965 7964 7962 ] final   -0.19 input  175.53 | X-H torsion
[ 8008 7997 7996 7995 ] final -111.26 input   59.86 | X-H torsion
[ 10167 10162 10161 10158 ] final  -97.06 input  -65.29 | X-H torsion
[ 10718 10713 10712 10709 ] final   88.64 input   66.30 | X-H torsion
[ 10763 10752 10751 10750 ] final -121.47 input  -60.55 | X-H torsion
[ 11005 11000 10999 10996 ] final  -10.01 input  -57.11 | X-H torsion

> <Gold.Protein.ActiveResidues>
 VAL166  LYS551  ARG553  GLY616  TRP617  ASP618  TYR619  PRO620  LYS621  CYS622 
 ASP623  PHE694  ASN695  SER759  ASP760  ASP761  ALA762  ILE779  LEU786  VAL792 
 PHE793  MET794  SER795  GLU796  ALA797  LYS798  CYS799  TRP800  GLU811  SER814 

> <Gold.Protein.RotatedAtoms>
  151.5011  135.1062  159.9828 H   0  0  0  0  0  0  0  0  0  0  0  0  # atno 6907 bound_to 6896
  152.4701  133.8007  159.6962 H   0  0  0  0  0  0  0  0  0  0  0  0  # atno 6908 bound_to 6896
  150.8706  133.7448  159.2988 H   0  0  0  0  0  0  0  0  0  0  0  0  # atno 6909 bound_to 6896
  146.2429  140.1232  142.8340 H   0  0  0  0  0  0  0  0  0  0  0  0  # atno 7974 bound_to 7965
  154.9872  140.0395  157.2303 H   0  0  0  0  0  0  0  0  0  0  0  0  # atno 8008 bound_to 7997
  154.7661  140.2793  155.6152 H   0  0  0  0  0  0  0  0  0  0  0  0  # atno 8009 bound_to 7997
  156.2913  140.2619  156.2452 H   0  0  0  0  0  0  0  0  0  0  0  0  # atno 8010 bound_to 7997
  140.2873  143.3244  152.0381 H   0  0  0  0  0  0  0  0  0  0  0  0  # atno 10167 bound_to 10162
  157.6950  131.0303  150.3306 H   0  0  0  0  0  0  0  0  0  0  0  0  # atno 10718 bound_to 10713
  154.8669  135.4167  154.2626 H   0  0  0  0  0  0  0  0  0  0  0  0  # atno 10763 bound_to 10752
  153.3551  135.7000  153.6763 H   0  0  0  0  0  0  0  0  0  0  0  0  # atno 10764 bound_to 10752
  153.5687  135.3595  155.2801 H   0  0  0  0  0  0  0  0  0  0  0  0  # atno 10765 bound_to 10752
  140.7402  133.8677  155.8961 H   0  0  0  0  0  0  0  0  0  0  0  0  # atno 11005 bound_to 11000
  145.0389  140.8929  143.5065 LP  0  0  0  0  0  0  0  0  0  0  0  0  # atno 17320 bound_to 7965
  145.1309  139.2632  143.5540 LP  0  0  0  0  0  0  0  0  0  0  0  0  # atno 17321 bound_to 7965
  139.4947  144.6550  151.6593 LP  0  0  0  0  0  0  0  0  0  0  0  0  # atno 17342 bound_to 10162
  140.5762  144.0025  150.6243 LP  0  0  0  0  0  0  0  0  0  0  0  0  # atno 17343 bound_to 10162
  156.3780  130.3875  149.7124 LP  0  0  0  0  0  0  0  0  0  0  0  0  # atno 17370 bound_to 10713
  156.4515  130.7909  151.2930 LP  0  0  0  0  0  0  0  0  0  0  0  0  # atno 17371 bound_to 10713
  140.9843  134.1363  157.4466 LP  0  0  0  0  0  0  0  0  0  0  0  0  # atno 17394 bound_to 11000
  139.8808  135.0020  156.6104 LP  0  0  0  0  0  0  0  0  0  0  0  0  # atno 17395 bound_to 11000

$$$$
