AV-unprocessed.smi:3281|AV-procd|sdf|12559|dock6
  -GOLD-   2272018483D 1   1.00000     0.00000
 Structure written by MMmdl.
 36 37  0  0  0  0  0  0  0  0  1 V2000
  150.5987  144.6257  159.6974 C   0  0  0  0  0  0  0  0  0  0  0  0
  152.1232  144.5195  159.5831 C   0  0  0  0  0  0  0  0  0  0  0  0
  152.6983  143.4033  160.3912 C   0  0  0  0  0  0  0  0  0  0  0  0
  152.5259  143.1656  161.7324 C   0  0  0  0  0  0  0  0  0  0  0  0
  153.1917  142.0287  162.1955 N   0  0  0  0  0  0  0  0  0  0  0  0
  153.8755  141.4090  161.2307 C   0  0  0  0  0  0  0  0  0  0  0  0
  154.6438  140.1451  161.4495 C   0  0  0  0  0  0  0  0  0  0  0  0
  154.3771  139.0783  160.3754 C   0  0  0  0  0  0  0  0  0  0  0  0
  153.5205  138.0259  160.9059 N   0  0  0  0  0  0  0  0  0  0  0  0
  154.2124  137.1929  161.8809 C   0  0  1  0  0  0  0  0  0  0  0  0
  153.4089  137.1422  163.1999 C   0  0  0  0  0  0  0  0  0  0  0  0
  154.0827  136.2665  164.2689 C   0  0  0  0  0  0  0  0  0  0  0  0
  154.2391  134.8074  163.8199 C   0  0  0  0  0  0  0  0  0  0  0  0
  155.3008  134.6845  162.3560 S   0  0  0  0  0  0  0  0  0  0  0  0
  154.3721  135.7927  161.2617 C   0  0  0  0  0  0  0  0  0  0  0  0
  153.7233  142.1938  159.6620 S   0  0  0  0  0  0  0  0  0  0  0  0
  150.2207  145.4474  159.0889 H   0  0  0  0  0  0  0  0  0  0  0  0
  150.2905  144.8058  160.7275 H   0  0  0  0  0  0  0  0  0  0  0  0
  150.1149  143.7096  159.3576 H   0  0  0  0  0  0  0  0  0  0  0  0
  152.3959  144.3884  158.5355 H   0  0  0  0  0  0  0  0  0  0  0  0
  152.5754  145.4609  159.8960 H   0  0  0  0  0  0  0  0  0  0  0  0
  151.9440  143.7503  162.4297 H   0  0  0  0  0  0  0  0  0  0  0  0
  155.7076  140.3821  161.4933 H   0  0  0  0  0  0  0  0  0  0  0  0
  154.3787  139.7472  162.4297 H   0  0  0  0  0  0  0  0  0  0  0  0
  153.8834  139.5355  159.5171 H   0  0  0  0  0  0  0  0  0  0  0  0
  155.3246  138.6717  160.0228 H   0  0  0  0  0  0  0  0  0  0  0  0
  153.2018  137.4506  160.1392 H   0  0  0  0  0  0  0  0  0  0  0  0
  155.2069  137.6029  162.0637 H   0  0  0  0  0  0  0  0  0  0  0  0
  153.2854  138.1446  163.6094 H   0  0  0  0  0  0  0  0  0  0  0  0
  152.4019  136.7686  163.0072 H   0  0  0  0  0  0  0  0  0  0  0  0
  155.0591  136.6802  164.5236 H   0  0  0  0  0  0  0  0  0  0  0  0
  153.4898  136.2983  165.1833 H   0  0  0  0  0  0  0  0  0  0  0  0
  154.6766  134.2107  164.6204 H   0  0  0  0  0  0  0  0  0  0  0  0
  153.2653  134.3728  163.5918 H   0  0  0  0  0  0  0  0  0  0  0  0
  153.3974  135.3479  161.0555 H   0  0  0  0  0  0  0  0  0  0  0  0
  154.9039  135.8533  160.3113 H   0  0  0  0  0  0  0  0  0  0  0  0
  1  2  1  0  0  0  0
  1 17  1  0  0  0  0
  1 18  1  0  0  0  0
  1 19  1  0  0  0  0
  2  3  1  0  0  0  0
  2 20  1  0  0  0  0
  2 21  1  0  0  0  0
  3 16  1  0  0  0  0
  3  4  2  0  0  0  0
  4  5  1  0  0  0  0
  4 22  1  0  0  0  0
  5  6  2  0  0  0  0
  6  7  1  0  0  0  0
  6 16  1  0  0  0  0
  7  8  1  0  0  0  0
  7 23  1  0  0  0  0
  7 24  1  0  0  0  0
  8  9  1  0  0  0  0
  8 25  1  0  0  0  0
  8 26  1  0  0  0  0
  9 10  1  0  0  0  0
  9 27  1  0  0  0  0
 10 15  1  0  0  0  0
 10 11  1  0  0  0  0
 10 28  1  0  0  0  0
 11 12  1  0  0  0  0
 11 29  1  0  0  0  0
 11 30  1  0  0  0  0
 12 13  1  0  0  0  0
 12 31  1  0  0  0  0
 12 32  1  0  0  0  0
 13 14  1  0  0  0  0
 13 33  1  0  0  0  0
 13 34  1  0  0  0  0
 14 15  1  0  0  0  0
 15 35  1  0  0  0  0
 15 36  1  0  0  0  0
M  END
> <s_m_source_file>
AV-unprocessed.smi

> <i_m_source_file_index>
3281

> <i_lp_mmshare_version>
43012

> <i_f3d_flags>
0

> <s_epik_input>
W0NIM11bQ0gyXWMxW2NIXW5jKHMxKVtDSDJdW0NIMl1bTkhdW0NAQEhdMltDSDJdW0NIMl1bQ0gyXVNbQ0gyXTI=

> <s_epik_cmdline>
J2VwaWtfcHl0aG9uJywgJy1waCcsICc3LjAnLCAnLXRuJywgJzgnLCAnLW1hJywgJzIwMCcsICctbWV0YWxfYmluZGluZycsICctaW1hZScsICc8aW5maWxlLm1hZT4nLCAnLW9tYWUnLCAnPG91dGZpbGUubWFlPic=

> <r_epik_Ionization_Penalty>
2.53829

> <r_epik_Ionization_Penalty_Charging>
0

> <r_epik_Ionization_Penalty_Neutral>
2.53829

> <r_epik_State_Penalty>
2.70274

> <r_epik_Charging_Adjusted_Penalty>
2.70274

> <i_epik_Tot_Q>
0

> <i_epik_Tot_abs_Q>
0

> <r_epik_Metal_State_Penalty>
2.69977

> <b_epik_Metal_Only>
0

> <s_lp_Force_Field>
OPLS_2005

> <r_lp_Energy>
0.42492

> <b_lp_Chiralities_Consistent>
1

> <s_lp_Variant>
AV-unprocessed.smi:3281-4

> <Gold.Version>
5.8.1

> <Gold.Id.Protein>
6NUR|6NUR_protein|mol2

> <Gold.PLP.Fitness>
38.4822

> <Gold.PLP.PLP>
-41.0195

> <Gold.PLP.part.hbond>
0.0000

> <Gold.PLP.part.metal>
0.0000

> <Gold.PLP.part.buried>
-5.2809

> <Gold.PLP.part.nonpolar>
-35.0593

> <Gold.PLP.part.repulsive>
0.0494

> <Gold.PLP.ligand.clash>
0.0000

> <Gold.PLP.ligand.torsion>
1.2821

> <Gold.PLP.Chemscore.Hbond>
0.0000

> <Gold.PLP.Chemscore.CHOScore>
0.0000

> <Gold.PLP.Chemscore.Metal>
0.0000

> <Gold.PLP.Chemscore.Internal.Correction>
0.0269

> <Gold.Rescore>
     Score         DG    S(hbond)    S(metal)    S(lipo)     H(rot)  DE(clash)    DE(int)     intcor
     15.75     -17.18       0.00        0.00     128.39       1.30       0.18       1.25       ----

> <Gold.Chemscore.Fitness>
15.7498

> <Gold.Chemscore.DG>
-17.1806

> <Gold.Chemscore.ZeroCoef>
-5.4800

> <Gold.Chemscore.Hbond>
0.0000

> <Gold.Chemscore.Metal>
0.0000

> <Gold.Chemscore.Lipo>
128.3880

> <Gold.Chemscore.Internal_Hbond>
0.0000

> <Gold.Chemscore.DEClash>
0.1799

> <Gold.Chemscore.DEInternal>
1.2509

> <Gold.Chemscore.Rot>
1.2972

> <Gold.Chemscore.Internal.Correction>
   9.000000E+99

> <Gold.Chemscore.Hbond.Weighted>
-0.0000

> <Gold.Chemscore.Metal.Weighted>
-0.0000

> <Gold.Chemscore.Lipo.Weighted>
-15.0214

> <Gold.Chemscore.Internal_Hbond.Weighted>
0.0000

> <Gold.Chemscore.DEClash.Weighted>
0.1799

> <Gold.Chemscore.DEInternal.Weighted>
1.2509

> <Gold.Chemscore.Rot.Weighted>
3.3208

> <Gold.Chemscore.Internal.Correction.Weighted>
   9.000000E+99

> <Gold.Protein.RotatedTorsions>
[ 6907 6896 6895 6894 ] final  -85.29 input  -60.11 | X-H torsion
[ 7974 7965 7964 7962 ] final  -76.44 input  175.53 | X-H torsion
[ 8008 7997 7996 7995 ] final -162.44 input   59.86 | X-H torsion
[ 10167 10162 10161 10158 ] final  157.84 input  -65.29 | X-H torsion
[ 10718 10713 10712 10709 ] final  147.78 input   66.30 | X-H torsion
[ 10763 10752 10751 10750 ] final   18.01 input  -60.55 | X-H torsion
[ 11005 11000 10999 10996 ] final   12.68 input  -57.11 | X-H torsion

> <Gold.Protein.ActiveResidues>
 VAL166  LYS551  ARG553  GLY616  TRP617  ASP618  TYR619  PRO620  LYS621  CYS622 
 ASP623  PHE694  ASN695  SER759  ASP760  ASP761  ALA762  ILE779  LEU786  VAL792 
 PHE793  MET794  SER795  GLU796  ALA797  LYS798  CYS799  TRP800  GLU811  SER814 

> <Gold.Protein.RotatedAtoms>
  150.6871  134.3228  159.4793 H   0  0  0  0  0  0  0  0  0  0  0  0  # atno 6907 bound_to 6896
  152.1101  134.9277  160.0576 H   0  0  0  0  0  0  0  0  0  0  0  0  # atno 6908 bound_to 6896
  152.0523  133.3990  159.4419 H   0  0  0  0  0  0  0  0  0  0  0  0  # atno 6909 bound_to 6896
  145.6128  140.9382  143.1180 H   0  0  0  0  0  0  0  0  0  0  0  0  # atno 7974 bound_to 7965
  155.8068  140.0900  157.1926 H   0  0  0  0  0  0  0  0  0  0  0  0  # atno 8008 bound_to 7997
  154.3980  140.1462  156.3399 H   0  0  0  0  0  0  0  0  0  0  0  0  # atno 8009 bound_to 7997
  155.8406  140.3439  155.5632 H   0  0  0  0  0  0  0  0  0  0  0  0  # atno 8010 bound_to 7997
  139.4824  144.4880  151.8349 H   0  0  0  0  0  0  0  0  0  0  0  0  # atno 10167 bound_to 10162
  157.3168  131.0897  151.1272 H   0  0  0  0  0  0  0  0  0  0  0  0  # atno 10718 bound_to 10713
  153.1288  135.6735  153.9213 H   0  0  0  0  0  0  0  0  0  0  0  0  # atno 10763 bound_to 10752
  153.8706  135.3070  155.3443 H   0  0  0  0  0  0  0  0  0  0  0  0  # atno 10764 bound_to 10752
  154.7688  135.4950  153.9689 H   0  0  0  0  0  0  0  0  0  0  0  0  # atno 10765 bound_to 10752
  140.4892  134.0857  155.7767 H   0  0  0  0  0  0  0  0  0  0  0  0  # atno 11005 bound_to 11000
  144.7263  139.7866  143.7364 LP  0  0  0  0  0  0  0  0  0  0  0  0  # atno 17320 bound_to 7965
  146.1491  139.4569  143.0060 LP  0  0  0  0  0  0  0  0  0  0  0  0  # atno 17321 bound_to 7965
  140.4362  144.2048  150.5889 LP  0  0  0  0  0  0  0  0  0  0  0  0  # atno 17342 bound_to 10162
  140.4729  143.2406  151.9063 LP  0  0  0  0  0  0  0  0  0  0  0  0  # atno 17343 bound_to 10162
  157.2573  130.6642  149.5958 LP  0  0  0  0  0  0  0  0  0  0  0  0  # atno 17370 bound_to 10713
  155.9682  130.4519  150.5755 LP  0  0  0  0  0  0  0  0  0  0  0  0  # atno 17371 bound_to 10713
  141.1492  133.8999  157.2139 LP  0  0  0  0  0  0  0  0  0  0  0  0  # atno 17394 bound_to 11000
  139.9779  135.0108  156.9678 LP  0  0  0  0  0  0  0  0  0  0  0  0  # atno 17395 bound_to 11000

$$$$
