AV-unprocessed.smi:529|AV-procd|sdf|2841|dock2
  -GOLD-   2262023333D 1   1.00000     0.00000
 Structure written by MMmdl.
 30 31  0  0  0  0  0  0  0  0  1 V2000
  149.7240  142.3408  157.1196 N   0  0  0  0  0  0  0  0  0  0  0  0
  149.7696  141.3569  156.2917 C   0  0  0  0  0  0  0  0  0  0  0  0
  149.2418  141.3792  154.5423 S   0  0  0  0  0  0  0  0  0  0  0  0
  149.7135  139.7002  154.3879 C   0  0  0  0  0  0  0  0  0  0  0  0
  150.2003  139.2084  155.5260 C   0  0  0  0  0  0  0  0  0  0  0  0
  150.2433  140.0788  156.5960 N   0  0  0  0  0  0  0  0  0  0  0  0
  150.8027  139.7004  157.8942 C   0  0  0  0  0  0  0  0  0  0  0  0
  151.9578  140.6049  158.3447 C   0  0  0  0  0  0  0  0  0  0  0  0
  153.1245  140.2100  158.3138 O   0  0  0  0  0  0  0  0  0  0  0  0
  151.6082  141.8240  158.7820 N   0  0  0  0  0  0  0  0  0  0  0  0
  152.5395  142.8460  159.2519 C   0  0  0  0  0  0  0  0  0  0  0  0
  152.2276  143.2894  160.6970 C   0  0  0  0  0  0  0  0  0  0  0  0
  152.1879  144.8184  160.6730 C   0  0  0  0  0  0  0  0  0  0  0  0
  151.7410  145.1617  159.2559 C   0  0  0  0  0  0  0  0  0  0  0  0
  152.4325  144.1133  158.3841 C   0  0  0  0  0  0  0  0  0  0  0  0
  149.3432  143.1598  156.6676 H   0  0  0  0  0  0  0  0  0  0  0  0
  149.6046  139.1714  153.4526 H   0  0  0  0  0  0  0  0  0  0  0  0
  150.5618  138.2034  155.6874 H   0  0  0  0  0  0  0  0  0  0  0  0
  150.0201  139.7015  158.6548 H   0  0  0  0  0  0  0  0  0  0  0  0
  151.1699  138.6746  157.8436 H   0  0  0  0  0  0  0  0  0  0  0  0
  150.6280  142.0660  158.7796 H   0  0  0  0  0  0  0  0  0  0  0  0
  153.5586  142.4597  159.1868 H   0  0  0  0  0  0  0  0  0  0  0  0
  151.2531  142.9147  161.0144 H   0  0  0  0  0  0  0  0  0  0  0  0
  152.9625  142.9128  161.4090 H   0  0  0  0  0  0  0  0  0  0  0  0
  151.5280  145.2333  161.4353 H   0  0  0  0  0  0  0  0  0  0  0  0
  153.1892  145.2145  160.8473 H   0  0  0  0  0  0  0  0  0  0  0  0
  150.6587  145.0515  159.1753 H   0  0  0  0  0  0  0  0  0  0  0  0
  151.9957  146.1822  158.9689 H   0  0  0  0  0  0  0  0  0  0  0  0
  153.4356  144.4619  158.1344 H   0  0  0  0  0  0  0  0  0  0  0  0
  151.9074  143.9521  157.4416 H   0  0  0  0  0  0  0  0  0  0  0  0
  1  2  2  0  0  0  0
  1 16  1  0  0  0  0
  2  6  1  0  0  0  0
  2  3  1  0  0  0  0
  3  4  1  0  0  0  0
  4  5  2  0  0  0  0
  4 17  1  0  0  0  0
  5  6  1  0  0  0  0
  5 18  1  0  0  0  0
  6  7  1  0  0  0  0
  7  8  1  0  0  0  0
  7 19  1  0  0  0  0
  7 20  1  0  0  0  0
  8  9  2  0  0  0  0
  8 10  1  0  0  0  0
 10 11  1  0  0  0  0
 10 21  1  0  0  0  0
 11 15  1  0  0  0  0
 11 12  1  0  0  0  0
 11 22  1  0  0  0  0
 12 13  1  0  0  0  0
 12 23  1  0  0  0  0
 12 24  1  0  0  0  0
 13 14  1  0  0  0  0
 13 25  1  0  0  0  0
 13 26  1  0  0  0  0
 14 15  1  0  0  0  0
 14 27  1  0  0  0  0
 14 28  1  0  0  0  0
 15 29  1  0  0  0  0
 15 30  1  0  0  0  0
M  END
> <s_m_source_file>
AV-unprocessed.smi

> <i_m_source_file_index>
529

> <i_lp_mmshare_version>
43012

> <i_f3d_flags>
0

> <s_epik_input>
W0hdL049YzFcc1tjSF1bY0hdbjFbQ0gyXUMoPU8pW05IXVtDSF0yW0NIMl1bQ0gyXVtDSDJdW0NIMl0y

> <s_epik_cmdline>
J2VwaWtfcHl0aG9uJywgJy1waCcsICc3LjAnLCAnLXRuJywgJzgnLCAnLW1hJywgJzIwMCcsICctbWV0YWxfYmluZGluZycsICctaW1hZScsICc8aW5maWxlLm1hZT4nLCAnLW9tYWUnLCAnPG91dGZpbGUubWFlPic=

> <r_epik_Ionization_Penalty>
2.18041

> <r_epik_Ionization_Penalty_Charging>
2.18041

> <r_epik_Ionization_Penalty_Neutral>
1.25369e-07

> <r_epik_State_Penalty>
2.33404

> <r_epik_Charging_Adjusted_Penalty>
4.51444

> <i_epik_Tot_Q>
0

> <i_epik_Tot_abs_Q>
0

> <r_epik_Metal_State_Penalty>
2.33404

> <b_epik_Metal_Only>
0

> <s_lp_Force_Field>
OPLS_2005

> <r_lp_Energy>
18.55

> <b_lp_Chiralities_Consistent>
1

> <s_lp_Variant>
AV-unprocessed.smi:529-3

> <Gold.Version>
5.8.1

> <Gold.Id.Protein>
6NUR|6NUR_protein|mol2

> <Gold.PLP.Fitness>
44.0113

> <Gold.PLP.PLP>
-35.5111

> <Gold.PLP.part.hbond>
-2.0000

> <Gold.PLP.part.metal>
0.0000

> <Gold.PLP.part.buried>
-3.3421

> <Gold.PLP.part.nonpolar>
-29.6720

> <Gold.PLP.part.repulsive>
0.1004

> <Gold.PLP.ligand.clash>
0.0000

> <Gold.PLP.ligand.torsion>
0.1953

> <Gold.PLP.Chemscore.Hbond>
1.9600

> <Gold.PLP.Chemscore.CHOScore>
1.0000

> <Gold.PLP.Chemscore.Metal>
0.0000

> <Gold.Chemscore.Hbonds>
donor molecule, donor type, donor heavy atom, donor atom, acceptor molecule, acceptor atom, score
      L1  H     1    16       P1  8028  1.00
      P1  H  7997  8008       L1     9  0.96
      L1  C     4    17       P1  7957  1.00

> <Gold.PLP.Chemscore.Internal.Correction>
0.0108

> <Gold.Rescore>
     Score         DG    S(hbond)    S(metal)    S(lipo)     H(rot)  DE(clash)    DE(int)     intcor
     17.87     -18.04       1.91        0.00      86.94       1.56       0.01       0.16       ----

> <Gold.Chemscore.Fitness>
17.8663

> <Gold.Chemscore.DG>
-18.0396

> <Gold.Chemscore.ZeroCoef>
-5.4800

> <Gold.Chemscore.Hbond>
1.9134

> <Gold.Chemscore.Metal>
0.0000

> <Gold.Chemscore.Lipo>
86.9351

> <Gold.Chemscore.Internal_Hbond>
0.0000

> <Gold.Chemscore.DEClash>
0.0133

> <Gold.Chemscore.DEInternal>
0.1600

> <Gold.Chemscore.Rot>
1.5635

> <Gold.Chemscore.Internal.Correction>
   9.000000E+99

> <Gold.Chemscore.Hbonds>
donor molecule, donor type, donor heavy atom, donor atom, acceptor molecule, acceptor atom, score
      L1  H     1    16       P1  8028  0.99
      P1  H  7997  8008       L1     9  0.91

> <Gold.Chemscore.Hbond.Weighted>
-6.3907

> <Gold.Chemscore.Metal.Weighted>
-0.0000

> <Gold.Chemscore.Lipo.Weighted>
-10.1714

> <Gold.Chemscore.Internal_Hbond.Weighted>
0.0000

> <Gold.Chemscore.DEClash.Weighted>
0.0133

> <Gold.Chemscore.DEInternal.Weighted>
0.1600

> <Gold.Chemscore.Rot.Weighted>
4.0025

> <Gold.Chemscore.Internal.Correction.Weighted>
   9.000000E+99

> <Gold.Protein.RotatedTorsions>
[ 6907 6896 6895 6894 ] final -165.49 input  -60.11 | X-H torsion
[ 7974 7965 7964 7962 ] final  169.40 input  175.53 | X-H torsion
[ 8008 7997 7996 7995 ] final  -86.84 input   59.86 | X-H torsion
[ 10167 10162 10161 10158 ] final    7.28 input  -65.29 | X-H torsion
[ 10718 10713 10712 10709 ] final   60.17 input   66.30 | X-H torsion
[ 10763 10752 10751 10750 ] final  -22.44 input  -60.55 | X-H torsion
[ 11005 11000 10999 10996 ] final  -37.78 input  -57.11 | X-H torsion

> <Gold.Protein.ActiveResidues>
 VAL166  LYS551  ARG553  GLY616  TRP617  ASP618  TYR619  PRO620  LYS621  CYS622 
 ASP623  PHE694  ASN695  SER759  ASP760  ASP761  ALA762  ILE779  LEU786  VAL792 
 PHE793  MET794  SER795  GLU796  ALA797  LYS798  CYS799  TRP800  GLU811  SER814 

> <Gold.Protein.RotatedAtoms>
  151.4285  133.3677  159.2765 H   0  0  0  0  0  0  0  0  0  0  0  0  # atno 6907 bound_to 6896
  150.9242  134.8661  159.7520 H   0  0  0  0  0  0  0  0  0  0  0  0  # atno 6908 bound_to 6896
  152.4997  134.4225  159.9537 H   0  0  0  0  0  0  0  0  0  0  0  0  # atno 6909 bound_to 6896
  144.7356  139.9048  143.6411 H   0  0  0  0  0  0  0  0  0  0  0  0  # atno 7974 bound_to 7965
  154.6564  140.0573  157.0014 H   0  0  0  0  0  0  0  0  0  0  0  0  # atno 8008 bound_to 7997
  155.1293  140.3255  155.4459 H   0  0  0  0  0  0  0  0  0  0  0  0  # atno 8009 bound_to 7997
  156.2599  140.1983  156.6413 H   0  0  0  0  0  0  0  0  0  0  0  0  # atno 8010 bound_to 7997
  140.6380  143.7840  150.7387 H   0  0  0  0  0  0  0  0  0  0  0  0  # atno 10167 bound_to 10162
  157.5732  130.8924  149.9303 H   0  0  0  0  0  0  0  0  0  0  0  0  # atno 10718 bound_to 10713
  153.6520  135.6980  153.5206 H   0  0  0  0  0  0  0  0  0  0  0  0  # atno 10763 bound_to 10752
  153.2699  135.4218  155.0977 H   0  0  0  0  0  0  0  0  0  0  0  0  # atno 10764 bound_to 10752
  154.8474  135.3576  154.6064 H   0  0  0  0  0  0  0  0  0  0  0  0  # atno 10765 bound_to 10752
  140.9978  133.6971  156.1966 H   0  0  0  0  0  0  0  0  0  0  0  0  # atno 11005 bound_to 11000
  146.1045  139.4043  143.0326 LP  0  0  0  0  0  0  0  0  0  0  0  0  # atno 17320 bound_to 7965
  145.7532  140.9964  143.1239 LP  0  0  0  0  0  0  0  0  0  0  0  0  # atno 17321 bound_to 7965
  140.1466  143.4394  152.2159 LP  0  0  0  0  0  0  0  0  0  0  0  0  # atno 17342 bound_to 10162
  139.5590  144.7393  151.4210 LP  0  0  0  0  0  0  0  0  0  0  0  0  # atno 17343 bound_to 10162
  156.0777  130.3677  150.0643 LP  0  0  0  0  0  0  0  0  0  0  0  0  # atno 17370 bound_to 10713
  156.8793  130.9551  151.3601 LP  0  0  0  0  0  0  0  0  0  0  0  0  # atno 17371 bound_to 10713
  140.6938  134.4638  157.5588 LP  0  0  0  0  0  0  0  0  0  0  0  0  # atno 17394 bound_to 11000
  139.9023  134.8527  156.1844 LP  0  0  0  0  0  0  0  0  0  0  0  0  # atno 17395 bound_to 11000

$$$$
