AV-unprocessed.smi:2528|AV-procd|sdf|9953|dock4
  -GOLD-   2272013593D 1   1.00000     0.00000
 Structure written by MMmdl.
 44 46  0  0  0  0  0  0  0  0  2 V2000
  144.7148  137.4602  152.4201 O   0  0  0  0  0  0  0  0  0  0  0  0
  145.9128  137.1761  152.3904 C   0  0  0  0  0  0  0  0  0  0  0  0
  146.8830  138.0518  152.6898 N   0  0  0  0  0  0  0  0  0  0  0  0
  146.6599  139.4335  153.1025 C   0  0  0  0  0  0  0  0  0  0  0  0
  147.5902  139.8481  154.2564 C   0  0  1  0  0  0  0  0  0  0  0  0
  147.8540  141.3700  154.2588 C   0  0  0  0  0  0  0  0  0  0  0  0
  148.6573  141.7815  155.4357 N   0  3  2  0  0  0  0  0  0  0  0  0
  150.1058  141.4650  155.3026 C   0  0  0  0  0  0  0  0  0  0  0  0
  150.9023  141.9694  156.5145 C   0  0  0  0  0  0  0  0  0  0  0  0
  150.3416  141.3792  157.8131 C   0  0  0  0  0  0  0  0  0  0  0  0
  148.8502  141.7187  157.9374 C   0  0  0  0  0  0  0  0  0  0  0  0
  148.0400  141.2854  156.6970 C   0  0  2  0  0  0  0  0  0  0  0  0
  147.7840  139.7656  156.6180 C   0  0  0  0  0  0  0  0  0  0  0  0
  146.9687  139.4849  155.4862 O   0  0  0  0  0  0  0  0  0  0  0  0
  146.4217  135.9760  152.0611 N   0  0  0  0  0  0  0  0  0  0  0  0
  145.7201  134.7975  151.6912 C   0  0  0  0  0  0  0  0  0  0  0  0
  146.5365  133.6815  151.3984 C   0  0  0  0  0  0  0  0  0  0  0  0
  145.9367  132.4637  151.0230 C   0  0  0  0  0  0  0  0  0  0  0  0
  144.5340  132.3934  150.9493 C   0  0  0  0  0  0  0  0  0  0  0  0
  143.7950  133.5511  151.2549 C   0  0  0  0  0  0  0  0  0  0  0  0
  144.3678  134.7193  151.6148 N   0  0  0  0  0  0  0  0  0  0  0  0
  147.8419  137.7404  152.6372 H   0  0  0  0  0  0  0  0  0  0  0  0
  146.8018  140.0938  152.2451 H   0  0  0  0  0  0  0  0  0  0  0  0
  145.6173  139.5391  153.4036 H   0  0  0  0  0  0  0  0  0  0  0  0
  148.5352  139.3124  154.1586 H   0  0  0  0  0  0  0  0  0  0  0  0
  148.3516  141.6794  153.3388 H   0  0  0  0  0  0  0  0  0  0  0  0
  146.9037  141.9049  154.2904 H   0  0  0  0  0  0  0  0  0  0  0  0
  150.2568  140.3914  155.1916 H   0  0  0  0  0  0  0  0  0  0  0  0
  150.4935  141.9295  154.3953 H   0  0  0  0  0  0  0  0  0  0  0  0
  151.9536  141.7008  156.4069 H   0  0  0  0  0  0  0  0  0  0  0  0
  150.8624  143.0587  156.5557 H   0  0  0  0  0  0  0  0  0  0  0  0
  150.4843  140.2980  157.8234 H   0  0  0  0  0  0  0  0  0  0  0  0
  150.8883  141.7724  158.6708 H   0  0  0  0  0  0  0  0  0  0  0  0
  148.4354  141.2644  158.8379 H   0  0  0  0  0  0  0  0  0  0  0  0
  148.7466  142.7967  158.0696 H   0  0  0  0  0  0  0  0  0  0  0  0
  147.0627  141.7643  156.7771 H   0  0  0  0  0  0  0  0  0  0  0  0
  148.7130  139.1970  156.5620 H   0  0  0  0  0  0  0  0  0  0  0  0
  147.2607  139.4263  157.5119 H   0  0  0  0  0  0  0  0  0  0  0  0
  147.4272  135.8921  152.0866 H   0  0  0  0  0  0  0  0  0  0  0  0
  147.6128  133.7525  151.4616 H   0  0  0  0  0  0  0  0  0  0  0  0
  146.5432  131.5993  150.7962 H   0  0  0  0  0  0  0  0  0  0  0  0
  144.0374  131.4774  150.6654 H   0  0  0  0  0  0  0  0  0  0  0  0
  142.7160  133.5401  151.2090 H   0  0  0  0  0  0  0  0  0  0  0  0
  148.6084  142.7898  155.4744 H   0  0  0  0  0  0  0  0  0  0  0  0
  1  2  2  0  0  0  0
  2  3  1  0  0  0  0
  2 15  1  0  0  0  0
  3  4  1  0  0  0  0
  3 22  1  0  0  0  0
  4  5  1  0  0  0  0
  4 23  1  0  0  0  0
  4 24  1  0  0  0  0
  5 14  1  0  0  0  0
  5  6  1  0  0  0  0
  5 25  1  0  0  0  0
  6  7  1  0  0  0  0
  6 26  1  0  0  0  0
  6 27  1  0  0  0  0
  7 12  1  0  0  0  0
  7  8  1  0  0  0  0
  7 44  1  0  0  0  0
  8  9  1  0  0  0  0
  8 28  1  0  0  0  0
  8 29  1  0  0  0  0
  9 10  1  0  0  0  0
  9 30  1  0  0  0  0
  9 31  1  0  0  0  0
 10 11  1  0  0  0  0
 10 32  1  0  0  0  0
 10 33  1  0  0  0  0
 11 12  1  0  0  0  0
 11 34  1  0  0  0  0
 11 35  1  0  0  0  0
 12 13  1  0  0  0  0
 12 36  1  0  0  0  0
 13 14  1  0  0  0  0
 13 37  1  0  0  0  0
 13 38  1  0  0  0  0
 15 16  1  0  0  0  0
 15 39  1  0  0  0  0
 16 21  1  0  0  0  0
 16 17  2  0  0  0  0
 17 18  1  0  0  0  0
 17 40  1  0  0  0  0
 18 19  2  0  0  0  0
 18 41  1  0  0  0  0
 19 20  1  0  0  0  0
 19 42  1  0  0  0  0
 20 21  2  0  0  0  0
 20 43  1  0  0  0  0
M  CHG  1   7   1
M  END
> <s_m_source_file>
AV-unprocessed.smi

> <i_m_source_file_index>
2528

> <i_lp_mmshare_version>
43012

> <i_f3d_flags>
0

> <s_epik_input>
bjFbY0hdW2NIXVtjSF1bY0hdYzFbTkhdQyg9TylbTkhdW0NIMl1bQ0BIXShbQ0gyXTIpT1tDSDJdW0NAQEhdKE4yMylbQ0gyXVtDSDJdW0NIMl1bQ0gyXTM=

> <s_epik_cmdline>
J2VwaWtfcHl0aG9uJywgJy1waCcsICc3LjAnLCAnLXRuJywgJzgnLCAnLW1hJywgJzIwMCcsICctbWV0YWxfYmluZGluZycsICctaW1hZScsICc8aW5maWxlLm1hZT4nLCAnLW9tYWUnLCAnPG91dGZpbGUubWFlPic=

> <r_epik_Ionization_Penalty>
0.0932337

> <r_epik_Ionization_Penalty_Charging>
0.0931942

> <r_epik_Ionization_Penalty_Neutral>
3.9565e-05

> <r_epik_State_Penalty>
0.0834605

> <r_epik_Charging_Adjusted_Penalty>
0.176655

> <i_epik_Tot_Q>
1

> <i_epik_Tot_abs_Q>
1

> <r_epik_Metal_State_Penalty>
0.0834607

> <b_epik_Metal_Only>
0

> <s_lp_Force_Field>
OPLS_2005

> <r_lp_Energy>
28.0088

> <b_lp_Chiralities_Consistent>
1

> <s_lp_Variant>
AV-unprocessed.smi:2528-6

> <Gold.Version>
5.8.1

> <Gold.Id.Protein>
6NUR|6NUR_protein|mol2

> <Gold.PLP.Fitness>
45.2447

> <Gold.PLP.PLP>
-31.6670

> <Gold.PLP.part.hbond>
-3.0000

> <Gold.PLP.part.metal>
0.0000

> <Gold.PLP.part.buried>
-6.1214

> <Gold.PLP.part.nonpolar>
-24.5050

> <Gold.PLP.part.repulsive>
1.6334

> <Gold.PLP.ligand.clash>
0.0000

> <Gold.PLP.ligand.torsion>
0.4362

> <Gold.PLP.Chemscore.Hbond>
3.8160

> <Gold.PLP.Chemscore.CHOScore>
0.9999

> <Gold.PLP.Chemscore.Metal>
0.0000

> <Gold.Chemscore.Hbonds>
donor molecule, donor type, donor heavy atom, donor atom, acceptor molecule, acceptor atom, score
      L1  H     3    22       P1  7948  0.82
      L1  H     7    44       P1  8028  2.00
      L1  H    15    39       P1  7948  1.00
      L1  C    20    43       P1 10186  1.00

> <Gold.PLP.Chemscore.Internal.Correction>
0.0023

> <Gold.Rescore>
     Score         DG    S(hbond)    S(metal)    S(lipo)     H(rot)  DE(clash)    DE(int)     intcor
     17.81     -19.61       2.77        0.00      69.94       1.29       0.11       1.70       ----

> <Gold.Chemscore.Fitness>
17.8058

> <Gold.Chemscore.DG>
-19.6147

> <Gold.Chemscore.ZeroCoef>
-5.4800

> <Gold.Chemscore.Hbond>
2.7685

> <Gold.Chemscore.Metal>
0.0000

> <Gold.Chemscore.Lipo>
69.9387

> <Gold.Chemscore.Internal_Hbond>
0.0000

> <Gold.Chemscore.DEClash>
0.1059

> <Gold.Chemscore.DEInternal>
1.7029

> <Gold.Chemscore.Rot>
1.2870

> <Gold.Chemscore.Internal.Correction>
   9.000000E+99

> <Gold.Chemscore.Hbonds>
donor molecule, donor type, donor heavy atom, donor atom, acceptor molecule, acceptor atom, score
      L1  H     3    22       P1  7948  0.78
      L1  H     7    44       P1  8028  0.99
      L1  H    15    39       P1  7948  0.96

> <Gold.Chemscore.Hbond.Weighted>
-9.2467

> <Gold.Chemscore.Metal.Weighted>
-0.0000

> <Gold.Chemscore.Lipo.Weighted>
-8.1828

> <Gold.Chemscore.Internal_Hbond.Weighted>
0.0000

> <Gold.Chemscore.DEClash.Weighted>
0.1059

> <Gold.Chemscore.DEInternal.Weighted>
1.7029

> <Gold.Chemscore.Rot.Weighted>
3.2948

> <Gold.Chemscore.Internal.Correction.Weighted>
   9.000000E+99

> <Gold.Protein.RotatedTorsions>
[ 6907 6896 6895 6894 ] final  135.59 input  -60.11 | X-H torsion
[ 7974 7965 7964 7962 ] final  -94.83 input  175.53 | X-H torsion
[ 8008 7997 7996 7995 ] final  -37.40 input   59.86 | X-H torsion
[ 10167 10162 10161 10158 ] final -143.18 input  -65.29 | X-H torsion
[ 10718 10713 10712 10709 ] final   65.60 input   66.30 | X-H torsion
[ 10763 10752 10751 10750 ] final  165.79 input  -60.55 | X-H torsion
[ 11005 11000 10999 10996 ] final  -95.32 input  -57.11 | X-H torsion

> <Gold.Protein.ActiveResidues>
 VAL166  LYS551  ARG553  GLY616  TRP617  ASP618  TYR619  PRO620  LYS621  CYS622 
 ASP623  PHE694  ASN695  SER759  ASP760  ASP761  ALA762  ILE779  LEU786  VAL792 
 PHE793  MET794  SER795  GLU796  ALA797  LYS798  CYS799  TRP800  GLU811  SER814 

> <Gold.Protein.RotatedAtoms>
  152.2987  133.5633  159.5604 H   0  0  0  0  0  0  0  0  0  0  0  0  # atno 6907 bound_to 6896
  150.7268  134.0323  159.3746 H   0  0  0  0  0  0  0  0  0  0  0  0  # atno 6908 bound_to 6896
  151.8224  135.0648  160.0477 H   0  0  0  0  0  0  0  0  0  0  0  0  # atno 6909 bound_to 6896
  145.3680  140.9501  143.2463 H   0  0  0  0  0  0  0  0  0  0  0  0  # atno 7974 bound_to 7965
  154.4054  140.1605  156.2531 H   0  0  0  0  0  0  0  0  0  0  0  0  # atno 8008 bound_to 7997
  155.9102  140.3428  155.6070 H   0  0  0  0  0  0  0  0  0  0  0  0  # atno 8009 bound_to 7997
  155.7345  140.0784  157.2264 H   0  0  0  0  0  0  0  0  0  0  0  0  # atno 8010 bound_to 7997
  139.8018  143.7823  152.2658 H   0  0  0  0  0  0  0  0  0  0  0  0  # atno 10167 bound_to 10162
  157.6116  130.9223  149.9998 H   0  0  0  0  0  0  0  0  0  0  0  0  # atno 10718 bound_to 10713
  154.3292  135.2755  155.2480 H   0  0  0  0  0  0  0  0  0  0  0  0  # atno 10763 bound_to 10752
  154.4799  135.5861  153.6385 H   0  0  0  0  0  0  0  0  0  0  0  0  # atno 10764 bound_to 10752
  152.9868  135.6109  154.3483 H   0  0  0  0  0  0  0  0  0  0  0  0  # atno 10765 bound_to 10752
  141.1445  133.8018  157.0419 H   0  0  0  0  0  0  0  0  0  0  0  0  # atno 11005 bound_to 11000
  144.8597  139.5196  143.6818 LP  0  0  0  0  0  0  0  0  0  0  0  0  # atno 17320 bound_to 7965
  146.2898  139.7106  142.9169 LP  0  0  0  0  0  0  0  0  0  0  0  0  # atno 17321 bound_to 7965
  139.7945  144.7398  150.9909 LP  0  0  0  0  0  0  0  0  0  0  0  0  # atno 17342 bound_to 10162
  140.7820  143.4408  151.0555 LP  0  0  0  0  0  0  0  0  0  0  0  0  # atno 17343 bound_to 10162
  156.1221  130.3645  149.9870 LP  0  0  0  0  0  0  0  0  0  0  0  0  # atno 17370 bound_to 10713
  156.7948  130.9269  151.3646 LP  0  0  0  0  0  0  0  0  0  0  0  0  # atno 17371 bound_to 10713
  140.0687  134.9714  157.1430 LP  0  0  0  0  0  0  0  0  0  0  0  0  # atno 17394 bound_to 11000
  140.3742  134.2357  155.7175 LP  0  0  0  0  0  0  0  0  0  0  0  0  # atno 17395 bound_to 11000

$$$$
