AV-unprocessed.smi:2279|AV-procd|sdf|9183|dock10
  -GOLD-   2272012403D 1   1.00000     0.00000
 Structure written by MMmdl.
 58 60  0  0  0  0  0  0  0  0  3 V2000
  151.8113  145.6845  159.6201 C   0  0  0  0  0  0  0  0  0  0  0  0
  151.7877  144.2427  159.1582 C   0  0  0  0  0  0  0  0  0  0  0  0
  152.6120  143.2748  159.7635 C   0  0  0  0  0  0  0  0  0  0  0  0
  152.5427  141.9509  159.2873 C   0  0  0  0  0  0  0  0  0  0  0  0
  153.4003  140.8594  159.8917 C   0  0  0  0  0  0  0  0  0  0  0  0
  151.7253  141.5716  158.2817 N   0  0  0  0  0  0  0  0  0  0  0  0
  150.9270  142.4952  157.6913 C   0  0  0  0  0  0  0  0  0  0  0  0
  150.0335  142.1992  156.6279 N   0  0  0  0  0  0  0  0  0  0  0  0
  149.6628  140.9918  156.1663 C   0  0  0  0  0  0  0  0  0  0  0  0
  150.0531  139.9106  156.6078 O   0  0  0  0  0  0  0  0  0  0  0  0
  148.7993  141.1082  155.1463 N   0  0  0  0  0  0  0  0  0  0  0  0
  148.1955  140.0003  154.4106 C   0  0  2  0  0  0  0  0  0  0  0  0
  147.6111  140.5005  153.0864 C   0  0  0  0  0  0  0  0  0  0  0  0
  146.8963  139.3689  152.3294 C   0  0  0  0  0  0  0  0  0  0  0  0
  145.8187  138.7281  153.1428 N   0  3  1  0  0  0  0  0  0  0  0  0
  145.0515  137.6730  152.3940 C   0  0  2  0  0  0  0  0  0  0  0  0
  144.0971  136.8651  153.3135 C   0  0  0  0  0  0  0  0  0  0  0  0
  143.3671  135.7339  152.5691 C   0  0  0  0  0  0  0  0  0  0  0  0
  144.3266  134.8120  151.9210 N   0  3  1  0  0  0  0  0  0  0  0  0
  143.6594  133.6463  151.3011 C   0  0  0  0  0  0  0  0  0  0  0  0
  145.2030  135.5330  150.9709 C   0  0  0  0  0  0  0  0  0  0  0  0
  145.9802  136.6591  151.6741 C   0  0  0  0  0  0  0  0  0  0  0  0
  146.3635  138.2510  154.4503 C   0  0  0  0  0  0  0  0  0  0  0  0
  147.0712  139.3676  155.2357 C   0  0  0  0  0  0  0  0  0  0  0  0
  150.9351  143.8451  158.1087 C   0  0  0  0  0  0  0  0  0  0  0  0
  152.5197  145.8294  160.4362 H   0  0  0  0  0  0  0  0  0  0  0  0
  150.8229  145.9850  159.9692 H   0  0  0  0  0  0  0  0  0  0  0  0
  152.0995  146.3395  158.7978 H   0  0  0  0  0  0  0  0  0  0  0  0
  153.2793  143.5394  160.5708 H   0  0  0  0  0  0  0  0  0  0  0  0
  154.0285  141.2482  160.6937 H   0  0  0  0  0  0  0  0  0  0  0  0
  154.0497  140.4231  159.1322 H   0  0  0  0  0  0  0  0  0  0  0  0
  152.7731  140.0686  160.3036 H   0  0  0  0  0  0  0  0  0  0  0  0
  149.6305  143.0008  156.1661 H   0  0  0  0  0  0  0  0  0  0  0  0
  148.5393  142.0397  154.8562 H   0  0  0  0  0  0  0  0  0  0  0  0
  148.9395  139.2317  154.1924 H   0  0  0  0  0  0  0  0  0  0  0  0
  146.9082  141.3145  153.2711 H   0  0  0  0  0  0  0  0  0  0  0  0
  148.4048  140.9140  152.4626 H   0  0  0  0  0  0  0  0  0  0  0  0
  146.4926  139.8176  151.4248 H   0  0  0  0  0  0  0  0  0  0  0  0
  147.6174  138.6113  152.0183 H   0  0  0  0  0  0  0  0  0  0  0  0
  144.4483  138.1783  151.6376 H   0  0  0  0  0  0  0  0  0  0  0  0
  144.6566  136.4473  154.1518 H   0  0  0  0  0  0  0  0  0  0  0  0
  143.3229  137.5022  153.7378 H   0  0  0  0  0  0  0  0  0  0  0  0
  142.7471  135.1775  153.2734 H   0  0  0  0  0  0  0  0  0  0  0  0
  142.6947  136.1511  151.8173 H   0  0  0  0  0  0  0  0  0  0  0  0
  142.9924  133.9575  150.4959 H   0  0  0  0  0  0  0  0  0  0  0  0
  143.0718  133.1005  152.0402 H   0  0  0  0  0  0  0  0  0  0  0  0
  144.3953  132.9557  150.8880 H   0  0  0  0  0  0  0  0  0  0  0  0
  145.9077  134.8316  150.5220 H   0  0  0  0  0  0  0  0  0  0  0  0
  144.6023  135.9424  150.1566 H   0  0  0  0  0  0  0  0  0  0  0  0
  146.5771  137.1461  150.9048 H   0  0  0  0  0  0  0  0  0  0  0  0
  146.6805  136.2259  152.3899 H   0  0  0  0  0  0  0  0  0  0  0  0
  145.5703  137.8822  155.0963 H   0  0  0  0  0  0  0  0  0  0  0  0
  147.0499  137.4202  154.2777 H   0  0  0  0  0  0  0  0  0  0  0  0
  147.4748  138.9625  156.1647 H   0  0  0  0  0  0  0  0  0  0  0  0
  146.3428  140.1283  155.5215 H   0  0  0  0  0  0  0  0  0  0  0  0
  150.2946  144.5724  157.6308 H   0  0  0  0  0  0  0  0  0  0  0  0
  145.1590  139.4606  153.3633 H   0  0  0  0  0  0  0  0  0  0  0  0
  144.9215  134.4451  152.6505 H   0  0  0  0  0  0  0  0  0  0  0  0
  1  2  1  0  0  0  0
  1 26  1  0  0  0  0
  1 27  1  0  0  0  0
  1 28  1  0  0  0  0
  2 25  1  0  0  0  0
  2  3  2  0  0  0  0
  3  4  1  0  0  0  0
  3 29  1  0  0  0  0
  4  5  1  0  0  0  0
  4  6  2  0  0  0  0
  5 30  1  0  0  0  0
  5 31  1  0  0  0  0
  5 32  1  0  0  0  0
  6  7  1  0  0  0  0
  7  8  1  0  0  0  0
  7 25  2  0  0  0  0
  8  9  1  0  0  0  0
  8 33  1  0  0  0  0
  9 10  2  0  0  0  0
  9 11  1  0  0  0  0
 11 12  1  0  0  0  0
 11 34  1  0  0  0  0
 12 24  1  0  0  0  0
 12 13  1  0  0  0  0
 12 35  1  0  0  0  0
 13 14  1  0  0  0  0
 13 36  1  0  0  0  0
 13 37  1  0  0  0  0
 14 15  1  0  0  0  0
 14 38  1  0  0  0  0
 14 39  1  0  0  0  0
 15 16  1  0  0  0  0
 15 23  1  0  0  0  0
 15 57  1  0  0  0  0
 16 22  1  0  0  0  0
 16 17  1  0  0  0  0
 16 40  1  0  0  0  0
 17 18  1  0  0  0  0
 17 41  1  0  0  0  0
 17 42  1  0  0  0  0
 18 19  1  0  0  0  0
 18 43  1  0  0  0  0
 18 44  1  0  0  0  0
 19 20  1  0  0  0  0
 19 21  1  0  0  0  0
 19 58  1  0  0  0  0
 20 45  1  0  0  0  0
 20 46  1  0  0  0  0
 20 47  1  0  0  0  0
 21 22  1  0  0  0  0
 21 48  1  0  0  0  0
 21 49  1  0  0  0  0
 22 50  1  0  0  0  0
 22 51  1  0  0  0  0
 23 24  1  0  0  0  0
 23 52  1  0  0  0  0
 23 53  1  0  0  0  0
 24 54  1  0  0  0  0
 24 55  1  0  0  0  0
 25 56  1  0  0  0  0
M  CHG  1  15   1
M  CHG  1  19   1
M  END
> <s_m_source_file>
AV-unprocessed.smi

> <i_m_source_file_index>
2279

> <i_lp_mmshare_version>
43012

> <i_f3d_flags>
0

> <s_epik_input>
W0NIM11jMVtjSF1jKFtDSDNdKW5jKFtjSF0xKVtOSF1DKD1PKVtOSF1bQ0hdMltDSDJdW0NIMl1OKFtDSDJdW0NIMl0yKVtDSF0zW0NIMl1bQ0gyXU4oW0NIM10pW0NIMl1bQ0gyXTM=

> <s_epik_cmdline>
J2VwaWtfcHl0aG9uJywgJy1waCcsICc3LjAnLCAnLXRuJywgJzgnLCAnLW1hJywgJzIwMCcsICctbWV0YWxfYmluZGluZycsICctaW1hZScsICc8aW5maWxlLm1hZT4nLCAnLW9tYWUnLCAnPG91dGZpbGUubWFlPic=

> <r_epik_Ionization_Penalty>
0.180973

> <r_epik_Ionization_Penalty_Charging>
0.180787

> <r_epik_Ionization_Penalty_Neutral>
0.000186186

> <r_epik_State_Penalty>
0.153592

> <r_epik_Charging_Adjusted_Penalty>
0.334379

> <i_epik_Tot_Q>
2

> <i_epik_Tot_abs_Q>
2

> <r_epik_Metal_State_Penalty>
0.153604

> <b_epik_Metal_Only>
0

> <s_lp_Force_Field>
OPLS_2005

> <r_lp_Energy>
41.0771

> <b_lp_Chiralities_Consistent>
1

> <s_lp_Variant>
AV-unprocessed.smi:2279-1

> <Gold.Version>
5.8.1

> <Gold.Id.Protein>
6NUR|6NUR_protein|mol2

> <Gold.PLP.Fitness>
48.9100

> <Gold.PLP.PLP>
-43.1265

> <Gold.PLP.part.hbond>
-2.0000

> <Gold.PLP.part.metal>
0.0000

> <Gold.PLP.part.buried>
1.1598

> <Gold.PLP.part.nonpolar>
-42.6988

> <Gold.PLP.part.repulsive>
0.1627

> <Gold.PLP.ligand.clash>
0.0000

> <Gold.PLP.ligand.torsion>
0.4463

> <Gold.PLP.Chemscore.Hbond>
2.2152

> <Gold.PLP.Chemscore.CHOScore>
0.0000

> <Gold.PLP.Chemscore.Metal>
0.0000

> <Gold.Chemscore.Hbonds>
donor molecule, donor type, donor heavy atom, donor atom, acceptor molecule, acceptor atom, score
      L1  H     8    33       P1  8028  1.00
      L1  H    15    57       P1 10175  1.54

> <Gold.PLP.Chemscore.Internal.Correction>
0.0304

> <Gold.Rescore>
     Score         DG    S(hbond)    S(metal)    S(lipo)     H(rot)  DE(clash)    DE(int)     intcor
     19.19     -22.89       1.70        0.00     126.84       1.21       2.14       1.56       ----

> <Gold.Chemscore.Fitness>
19.1873

> <Gold.Chemscore.DG>
-22.8855

> <Gold.Chemscore.ZeroCoef>
-5.4800

> <Gold.Chemscore.Hbond>
1.6951

> <Gold.Chemscore.Metal>
0.0000

> <Gold.Chemscore.Lipo>
126.8383

> <Gold.Chemscore.Internal_Hbond>
0.0000

> <Gold.Chemscore.DEClash>
2.1431

> <Gold.Chemscore.DEInternal>
1.5552

> <Gold.Chemscore.Rot>
1.2095

> <Gold.Chemscore.Internal.Correction>
   9.000000E+99

> <Gold.Chemscore.Hbonds>
donor molecule, donor type, donor heavy atom, donor atom, acceptor molecule, acceptor atom, score
      L1  H     8    33       P1  8028  0.99
      L1  H    15    57       P1 10175  0.75

> <Gold.Chemscore.Hbond.Weighted>
-5.6617

> <Gold.Chemscore.Metal.Weighted>
-0.0000

> <Gold.Chemscore.Lipo.Weighted>
-14.8401

> <Gold.Chemscore.Internal_Hbond.Weighted>
0.0000

> <Gold.Chemscore.DEClash.Weighted>
2.1431

> <Gold.Chemscore.DEInternal.Weighted>
1.5552

> <Gold.Chemscore.Rot.Weighted>
3.0963

> <Gold.Chemscore.Internal.Correction.Weighted>
   9.000000E+99

> <Gold.Protein.RotatedTorsions>
[ 6907 6896 6895 6894 ] final  -39.71 input  -60.11 | X-H torsion
[ 7974 7965 7964 7962 ] final   15.16 input  175.53 | X-H torsion
[ 8008 7997 7996 7995 ] final -104.90 input   59.86 | X-H torsion
[ 10167 10162 10161 10158 ] final -130.94 input  -65.29 | X-H torsion
[ 10718 10713 10712 10709 ] final  -32.12 input   66.30 | X-H torsion
[ 10763 10752 10751 10750 ] final  -61.54 input  -60.55 | X-H torsion
[ 11005 11000 10999 10996 ] final  105.76 input  -57.11 | X-H torsion

> <Gold.Protein.ActiveResidues>
 VAL166  LYS551  ARG553  GLY616  TRP617  ASP618  TYR619  PRO620  LYS621  CYS622 
 ASP623  PHE694  ASN695  SER759  ASP760  ASP761  ALA762  ILE779  LEU786  VAL792 
 PHE793  MET794  SER795  GLU796  ALA797  LYS798  CYS799  TRP800  GLU811  SER814 

> <Gold.Protein.RotatedAtoms>
  150.9871  134.9214  159.7877 H   0  0  0  0  0  0  0  0  0  0  0  0  # atno 6907 bound_to 6896
  152.5240  134.3331  159.9200 H   0  0  0  0  0  0  0  0  0  0  0  0  # atno 6908 bound_to 6896
  151.3338  133.3949  159.2699 H   0  0  0  0  0  0  0  0  0  0  0  0  # atno 6909 bound_to 6896
  146.2286  139.8934  142.8551 H   0  0  0  0  0  0  0  0  0  0  0  0  # atno 7974 bound_to 7965
  154.8920  140.0415  157.1844 H   0  0  0  0  0  0  0  0  0  0  0  0  # atno 8008 bound_to 7997
  154.8531  140.2932  155.5565 H   0  0  0  0  0  0  0  0  0  0  0  0  # atno 8009 bound_to 7997
  156.2996  140.2461  156.3493 H   0  0  0  0  0  0  0  0  0  0  0  0  # atno 8010 bound_to 7997
  139.9241  143.6348  152.2546 H   0  0  0  0  0  0  0  0  0  0  0  0  # atno 10167 bound_to 10162
  156.3788  130.4352  149.7485 H   0  0  0  0  0  0  0  0  0  0  0  0  # atno 10718 bound_to 10713
  154.2862  135.6262  153.5366 H   0  0  0  0  0  0  0  0  0  0  0  0  # atno 10763 bound_to 10752
  152.9859  135.5644  154.5441 H   0  0  0  0  0  0  0  0  0  0  0  0  # atno 10764 bound_to 10752
  154.5042  135.2873  155.1372 H   0  0  0  0  0  0  0  0  0  0  0  0  # atno 10765 bound_to 10752
  139.8806  134.9347  156.5563 H   0  0  0  0  0  0  0  0  0  0  0  0  # atno 11005 bound_to 11000
  145.2394  141.0003  143.3944 LP  0  0  0  0  0  0  0  0  0  0  0  0  # atno 17320 bound_to 7965
  144.9464  139.4131  143.6424 LP  0  0  0  0  0  0  0  0  0  0  0  0  # atno 17321 bound_to 7965
  139.6837  144.7653  151.1563 LP  0  0  0  0  0  0  0  0  0  0  0  0  # atno 17342 bound_to 10162
  140.7654  143.5688  150.9018 LP  0  0  0  0  0  0  0  0  0  0  0  0  # atno 17343 bound_to 10162
  156.4584  130.7940  151.2960 LP  0  0  0  0  0  0  0  0  0  0  0  0  # atno 17370 bound_to 10713
  157.7490  131.0073  150.3187 LP  0  0  0  0  0  0  0  0  0  0  0  0  # atno 17371 bound_to 10713
  140.8202  133.8359  155.8889 LP  0  0  0  0  0  0  0  0  0  0  0  0  # atno 17394 bound_to 11000
  140.9425  134.1883  157.4787 LP  0  0  0  0  0  0  0  0  0  0  0  0  # atno 17395 bound_to 11000

$$$$
