AV-unprocessed.smi:538|AV-procd|sdf|2866|dock8
  -GOLD-   2262023353D 1   1.00000     0.00000
 Structure written by MMmdl.
 43 44  0  0  0  0  0  0  0  0  1 V2000
  146.4281  142.6736  154.1327 C   0  0  0  0  0  0  0  0  0  0  0  0
  146.7721  141.4154  153.5804 O   0  0  0  0  0  0  0  0  0  0  0  0
  147.7213  140.7181  154.3706 C   0  0  0  0  0  0  0  0  0  0  0  0
  148.9446  141.6151  154.5979 C   0  0  0  0  0  0  0  0  0  0  0  0
  149.9939  140.9287  155.3289 N   0  0  0  0  0  0  0  0  0  0  0  0
  150.6778  141.2464  156.4958 C   0  0  0  0  0  0  0  0  0  0  0  0
  150.4690  142.3486  157.2191 N   0  0  0  0  0  0  0  0  0  0  0  0
  151.3826  142.2117  158.2550 C   0  0  0  0  0  0  0  0  0  0  0  0
  152.0944  141.0669  158.1279 C   0  0  0  0  0  0  0  0  0  0  0  0
  153.1400  140.6717  159.0771 C   0  0  0  0  0  0  0  0  0  0  0  0
  153.7798  139.6285  158.9335 O   0  0  0  0  0  0  0  0  0  0  0  0
  153.3254  141.5573  160.1049 N   0  0  0  0  0  0  0  0  0  0  0  0
  154.3674  141.1924  161.0830 C   0  0  0  0  0  0  0  0  0  0  0  0
  152.6136  142.7320  160.2835 C   0  0  0  0  0  0  0  0  0  0  0  0
  152.8244  143.4751  161.2456 O   0  0  0  0  0  0  0  0  0  0  0  0
  151.6533  143.0606  159.3592 N   0  0  0  0  0  0  0  0  0  0  0  0
  150.8825  144.2979  159.5123 C   0  0  0  0  0  0  0  0  0  0  0  0
  151.6356  140.4180  156.9808 N   0  0  0  0  0  0  0  0  0  0  0  0
  152.0845  139.1446  156.4249 C   0  0  0  0  0  0  0  0  0  0  0  0
  152.5351  139.2792  154.9637 C   0  0  0  0  0  0  0  0  0  0  0  0
  152.4249  138.0238  154.3131 O   0  0  0  0  0  0  0  0  0  0  0  0
  151.1291  137.4639  154.4277 C   0  0  0  0  0  0  0  0  0  0  0  0
  145.7022  143.1702  153.4889 H   0  0  0  0  0  0  0  0  0  0  0  0
  147.3021  143.3207  154.2168 H   0  0  0  0  0  0  0  0  0  0  0  0
  145.9793  142.5604  155.1204 H   0  0  0  0  0  0  0  0  0  0  0  0
  147.2722  140.4662  155.3324 H   0  0  0  0  0  0  0  0  0  0  0  0
  148.0121  139.7808  153.8933 H   0  0  0  0  0  0  0  0  0  0  0  0
  149.3398  141.9704  153.6460 H   0  0  0  0  0  0  0  0  0  0  0  0
  148.6539  142.4968  155.1694 H   0  0  0  0  0  0  0  0  0  0  0  0
  150.2595  140.0462  154.9162 H   0  0  0  0  0  0  0  0  0  0  0  0
  154.5668  141.9439  161.8471 H   0  0  0  0  0  0  0  0  0  0  0  0
  155.3198  141.0114  160.5817 H   0  0  0  0  0  0  0  0  0  0  0  0
  154.0871  140.2775  161.6075 H   0  0  0  0  0  0  0  0  0  0  0  0
  151.5464  145.1629  159.5475 H   0  0  0  0  0  0  0  0  0  0  0  0
  150.3036  144.2743  160.4367 H   0  0  0  0  0  0  0  0  0  0  0  0
  150.1816  144.4636  158.6939 H   0  0  0  0  0  0  0  0  0  0  0  0
  152.8937  138.7531  157.0402 H   0  0  0  0  0  0  0  0  0  0  0  0
  151.2810  138.4117  156.5008 H   0  0  0  0  0  0  0  0  0  0  0  0
  151.9233  140.0218  154.4492 H   0  0  0  0  0  0  0  0  0  0  0  0
  153.5683  139.6276  154.9276 H   0  0  0  0  0  0  0  0  0  0  0  0
  151.0957  136.5089  153.9033 H   0  0  0  0  0  0  0  0  0  0  0  0
  150.3757  138.1174  153.9860 H   0  0  0  0  0  0  0  0  0  0  0  0
  150.8691  137.2839  155.4715 H   0  0  0  0  0  0  0  0  0  0  0  0
  1  2  1  0  0  0  0
  1 23  1  0  0  0  0
  1 24  1  0  0  0  0
  1 25  1  0  0  0  0
  2  3  1  0  0  0  0
  3  4  1  0  0  0  0
  3 26  1  0  0  0  0
  3 27  1  0  0  0  0
  4  5  1  0  0  0  0
  4 28  1  0  0  0  0
  4 29  1  0  0  0  0
  5  6  1  0  0  0  0
  5 30  1  0  0  0  0
  6 18  1  0  0  0  0
  6  7  2  0  0  0  0
  7  8  1  0  0  0  0
  8 16  1  0  0  0  0
  8  9  2  0  0  0  0
  9 10  1  0  0  0  0
  9 18  1  0  0  0  0
 10 11  2  0  0  0  0
 10 12  1  0  0  0  0
 12 13  1  0  0  0  0
 12 14  1  0  0  0  0
 13 31  1  0  0  0  0
 13 32  1  0  0  0  0
 13 33  1  0  0  0  0
 14 15  2  0  0  0  0
 14 16  1  0  0  0  0
 16 17  1  0  0  0  0
 17 34  1  0  0  0  0
 17 35  1  0  0  0  0
 17 36  1  0  0  0  0
 18 19  1  0  0  0  0
 19 20  1  0  0  0  0
 19 37  1  0  0  0  0
 19 38  1  0  0  0  0
 20 21  1  0  0  0  0
 20 39  1  0  0  0  0
 20 40  1  0  0  0  0
 21 22  1  0  0  0  0
 22 41  1  0  0  0  0
 22 42  1  0  0  0  0
 22 43  1  0  0  0  0
M  END
> <s_m_source_file>
AV-unprocessed.smi

> <i_m_source_file_index>
538

> <i_lp_mmshare_version>
43012

> <i_f3d_flags>
0

> <s_epik_input>
W0NIM11PW0NIMl1bQ0gyXVtOSF1jKG4xKW4oW0NIMl1bQ0gyXU9bQ0gzXSljKGMxMiljKD1PKW4oW0NIM10pYyg9TyluMltDSDNd

> <s_epik_cmdline>
J2VwaWtfcHl0aG9uJywgJy1waCcsICc3LjAnLCAnLXRuJywgJzgnLCAnLW1hJywgJzIwMCcsICctbWV0YWxfYmluZGluZycsICctaW1hZScsICc8aW5maWxlLm1hZT4nLCAnLW9tYWUnLCAnPG91dGZpbGUubWFlPic=

> <r_lp_tautomer_probability>
1

> <r_epik_Ionization_Penalty>
5.57243e-05

> <r_epik_Ionization_Penalty_Charging>
2.44156e-09

> <r_epik_Ionization_Penalty_Neutral>
5.57218e-05

> <r_epik_State_Penalty>
-0

> <r_epik_Charging_Adjusted_Penalty>
2.44156e-09

> <i_epik_Tot_Q>
0

> <i_epik_Tot_abs_Q>
0

> <r_epik_Metal_State_Penalty>
-0

> <b_epik_Metal_Only>
0

> <s_lp_Force_Field>
OPLS_2005

> <r_lp_Energy>
28.2468

> <b_lp_Chiralities_Consistent>
1

> <s_lp_Variant>
AV-unprocessed.smi:538-1

> <Gold.Version>
5.8.1

> <Gold.Id.Protein>
6NUR|6NUR_protein|mol2

> <Gold.PLP.Fitness>
47.0410

> <Gold.PLP.PLP>
-44.4184

> <Gold.PLP.part.hbond>
-1.7344

> <Gold.PLP.part.metal>
0.0000

> <Gold.PLP.part.buried>
-2.9941

> <Gold.PLP.part.nonpolar>
-39.8466

> <Gold.PLP.part.repulsive>
0.6456

> <Gold.PLP.ligand.clash>
0.0000

> <Gold.PLP.ligand.torsion>
0.1879

> <Gold.PLP.Chemscore.Hbond>
0.9913

> <Gold.PLP.Chemscore.CHOScore>
0.0000

> <Gold.PLP.Chemscore.Metal>
0.0000

> <Gold.Chemscore.Hbonds>
donor molecule, donor type, donor heavy atom, donor atom, acceptor molecule, acceptor atom, score
      P1  H  7997  8008       L1    11  0.98

> <Gold.PLP.Chemscore.Internal.Correction>
0.0246

> <Gold.Rescore>
     Score         DG    S(hbond)    S(metal)    S(lipo)     H(rot)  DE(clash)    DE(int)     intcor
      9.09      -9.39       0.48        0.00      69.45       2.28       0.16       0.14       ----

> <Gold.Chemscore.Fitness>
9.0853

> <Gold.Chemscore.DG>
-9.3857

> <Gold.Chemscore.ZeroCoef>
-5.4800

> <Gold.Chemscore.Hbond>
0.4840

> <Gold.Chemscore.Metal>
0.0000

> <Gold.Chemscore.Lipo>
69.4464

> <Gold.Chemscore.Internal_Hbond>
0.0000

> <Gold.Chemscore.DEClash>
0.1582

> <Gold.Chemscore.DEInternal>
0.1422

> <Gold.Chemscore.Rot>
2.2797

> <Gold.Chemscore.Internal.Correction>
   9.000000E+99

> <Gold.Chemscore.Hbonds>
donor molecule, donor type, donor heavy atom, donor atom, acceptor molecule, acceptor atom, score
      P1  H  7997  8008       L1    11  0.27

> <Gold.Chemscore.Hbond.Weighted>
-1.6166

> <Gold.Chemscore.Metal.Weighted>
-0.0000

> <Gold.Chemscore.Lipo.Weighted>
-8.1252

> <Gold.Chemscore.Internal_Hbond.Weighted>
0.0000

> <Gold.Chemscore.DEClash.Weighted>
0.1582

> <Gold.Chemscore.DEInternal.Weighted>
0.1422

> <Gold.Chemscore.Rot.Weighted>
5.8361

> <Gold.Chemscore.Internal.Correction.Weighted>
   9.000000E+99

> <Gold.Protein.RotatedTorsions>
[ 6907 6896 6895 6894 ] final   51.37 input  -60.11 | X-H torsion
[ 7974 7965 7964 7962 ] final -117.17 input  175.53 | X-H torsion
[ 8008 7997 7996 7995 ] final -103.36 input   59.86 | X-H torsion
[ 10167 10162 10161 10158 ] final -125.66 input  -65.29 | X-H torsion
[ 10718 10713 10712 10709 ] final -133.11 input   66.30 | X-H torsion
[ 10763 10752 10751 10750 ] final   77.45 input  -60.55 | X-H torsion
[ 11005 11000 10999 10996 ] final   70.45 input  -57.11 | X-H torsion

> <Gold.Protein.ActiveResidues>
 VAL166  LYS551  ARG553  GLY616  TRP617  ASP618  TYR619  PRO620  LYS621  CYS622 
 ASP623  PHE694  ASN695  SER759  ASP760  ASP761  ALA762  ILE779  LEU786  VAL792 
 PHE793  MET794  SER795  GLU796  ALA797  LYS798  CYS799  TRP800  GLU811  SER814 

> <Gold.Protein.RotatedAtoms>
  152.3119  134.7486  160.0334 H   0  0  0  0  0  0  0  0  0  0  0  0  # atno 6907 bound_to 6896
  151.7964  133.3359  159.3522 H   0  0  0  0  0  0  0  0  0  0  0  0  # atno 6908 bound_to 6896
  150.7325  134.5725  159.5942 H   0  0  0  0  0  0  0  0  0  0  0  0  # atno 6909 bound_to 6896
  145.0883  140.8473  143.3998 H   0  0  0  0  0  0  0  0  0  0  0  0  # atno 7974 bound_to 7965
  154.8698  140.0423  157.1717 H   0  0  0  0  0  0  0  0  0  0  0  0  # atno 8008 bound_to 7997
  154.8751  140.2964  155.5437 H   0  0  0  0  0  0  0  0  0  0  0  0  # atno 8009 bound_to 7997
  156.2999  140.2422  156.3745 H   0  0  0  0  0  0  0  0  0  0  0  0  # atno 8010 bound_to 7997
  139.9797  143.5755  152.2383 H   0  0  0  0  0  0  0  0  0  0  0  0  # atno 10167 bound_to 10162
  156.2415  130.7099  151.0962 H   0  0  0  0  0  0  0  0  0  0  0  0  # atno 10718 bound_to 10713
  153.0800  135.4913  154.8483 H   0  0  0  0  0  0  0  0  0  0  0  0  # atno 10763 bound_to 10752
  154.7138  135.3025  154.9158 H   0  0  0  0  0  0  0  0  0  0  0  0  # atno 10764 bound_to 10752
  153.9844  135.6786  153.4804 H   0  0  0  0  0  0  0  0  0  0  0  0  # atno 10765 bound_to 10752
  139.9597  134.7083  156.0674 H   0  0  0  0  0  0  0  0  0  0  0  0  # atno 11005 bound_to 11000
  145.1096  139.2766  143.5644 LP  0  0  0  0  0  0  0  0  0  0  0  0  # atno 17320 bound_to 7965
  146.3531  140.0688  142.8624 LP  0  0  0  0  0  0  0  0  0  0  0  0  # atno 17321 bound_to 7965
  139.6419  144.7655  151.2322 LP  0  0  0  0  0  0  0  0  0  0  0  0  # atno 17342 bound_to 10162
  140.7493  143.6303  150.8429 LP  0  0  0  0  0  0  0  0  0  0  0  0  # atno 17343 bound_to 10162
  157.7177  131.0700  150.6261 LP  0  0  0  0  0  0  0  0  0  0  0  0  # atno 17370 bound_to 10713
  156.6334  130.4438  149.5778 LP  0  0  0  0  0  0  0  0  0  0  0  0  # atno 17371 bound_to 10713
  141.1272  133.6596  156.3369 LP  0  0  0  0  0  0  0  0  0  0  0  0  # atno 17394 bound_to 11000
  140.5529  134.6010  157.5412 LP  0  0  0  0  0  0  0  0  0  0  0  0  # atno 17395 bound_to 11000

$$$$
