AV-unprocessed.smi:3279|AV-procd|sdf|12548|dock5
  -GOLD-   2272018463D 1   1.00000     0.00000
 Structure written by MMmdl.
 35 35  0  0  0  0  0  0  0  0  2 V2000
  148.2040  138.9218  153.8095 C   0  0  0  0  0  0  0  0  0  0  0  0
  149.2512  139.4092  154.8226 C   0  0  2  0  0  0  0  0  0  0  0  0
  149.3639  140.9499  154.8665 C   0  0  0  0  0  0  0  0  0  0  0  0
  150.3234  141.4080  155.8663 N   0  0  0  0  0  0  0  0  0  0  0  0
  150.0051  141.9443  157.0541 C   0  0  0  0  0  0  0  0  0  0  0  0
  148.8484  142.1664  157.4117 O   0  0  0  0  0  0  0  0  0  0  0  0
  151.1690  142.2485  157.9938 C   0  0  0  0  0  0  0  0  0  0  0  0
  150.8753  143.4424  158.7146 O   0  0  0  0  0  0  0  0  0  0  0  0
  151.9710  144.2113  159.2171 C   0  0  0  0  0  0  0  0  0  0  0  0
  151.4842  145.4136  160.0509 C   0  0  0  0  0  0  0  0  0  0  0  0
  152.6922  144.7191  157.9585 C   0  0  0  0  0  0  0  0  0  0  0  0
  152.9264  143.3175  160.0323 C   0  0  0  0  0  0  0  0  0  0  0  0
  150.5818  138.7406  154.6112 C   0  0  0  0  0  0  0  0  0  0  0  0
  151.7333  139.4222  154.5096 N   0  0  0  0  0  0  0  0  0  0  0  0
  152.6482  138.4645  154.3080 N   0  0  0  0  0  0  0  0  0  0  0  0
  152.0529  137.2659  154.2931 N   0  0  0  0  0  0  0  0  0  0  0  0
  150.7352  137.4126  154.4839 N   0  5  0  0  0  0  0  0  0  0  0  0
  148.0824  137.8395  153.8640 H   0  0  0  0  0  0  0  0  0  0  0  0
  148.4899  139.1749  152.7881 H   0  0  0  0  0  0  0  0  0  0  0  0
  147.2311  139.3735  154.0035 H   0  0  0  0  0  0  0  0  0  0  0  0
  148.8585  139.1154  155.7976 H   0  0  0  0  0  0  0  0  0  0  0  0
  149.7000  141.3217  153.8980 H   0  0  0  0  0  0  0  0  0  0  0  0
  148.3870  141.4022  155.0448 H   0  0  0  0  0  0  0  0  0  0  0  0
  151.3009  141.2540  155.6639 H   0  0  0  0  0  0  0  0  0  0  0  0
  151.3084  141.4065  158.6722 H   0  0  0  0  0  0  0  0  0  0  0  0
  152.0705  142.3485  157.3905 H   0  0  0  0  0  0  0  0  0  0  0  0
  152.3151  146.0692  160.3132 H   0  0  0  0  0  0  0  0  0  0  0  0
  151.0192  145.1008  160.9859 H   0  0  0  0  0  0  0  0  0  0  0  0
  150.7566  146.0083  159.4977 H   0  0  0  0  0  0  0  0  0  0  0  0
  152.0323  145.3366  157.3479 H   0  0  0  0  0  0  0  0  0  0  0  0
  153.0344  143.8904  157.3376 H   0  0  0  0  0  0  0  0  0  0  0  0
  153.5644  145.3216  158.2151 H   0  0  0  0  0  0  0  0  0  0  0  0
  153.8398  143.8546  160.2900 H   0  0  0  0  0  0  0  0  0  0  0  0
  153.2142  142.4302  159.4671 H   0  0  0  0  0  0  0  0  0  0  0  0
  152.4807  142.9845  160.9692 H   0  0  0  0  0  0  0  0  0  0  0  0
  1  2  1  0  0  0  0
  1 18  1  0  0  0  0
  1 19  1  0  0  0  0
  1 20  1  0  0  0  0
  2  3  1  0  0  0  0
  2 13  1  0  0  0  0
  2 21  1  0  0  0  0
  3  4  1  0  0  0  0
  3 22  1  0  0  0  0
  3 23  1  0  0  0  0
  4  5  1  0  0  0  0
  4 24  1  0  0  0  0
  5  6  2  0  0  0  0
  5  7  1  0  0  0  0
  7  8  1  0  0  0  0
  7 25  1  0  0  0  0
  7 26  1  0  0  0  0
  8  9  1  0  0  0  0
  9 10  1  0  0  0  0
  9 11  1  0  0  0  0
  9 12  1  0  0  0  0
 10 27  1  0  0  0  0
 10 28  1  0  0  0  0
 10 29  1  0  0  0  0
 11 30  1  0  0  0  0
 11 31  1  0  0  0  0
 11 32  1  0  0  0  0
 12 33  1  0  0  0  0
 12 34  1  0  0  0  0
 12 35  1  0  0  0  0
 13 17  1  0  0  0  0
 13 14  2  0  0  0  0
 14 15  1  0  0  0  0
 15 16  2  0  0  0  0
 16 17  1  0  0  0  0
M  CHG  1  17  -1
M  END
> <s_m_source_file>
AV-unprocessed.smi

> <i_m_source_file_index>
3279

> <i_lp_mmshare_version>
43012

> <i_f3d_flags>
0

> <s_epik_input>
W25IXTFubm5jMVtDQEhdKFtDSDNdKVtDSDJdW05IXUMoPU8pW0NIMl1PQyhbQ0gzXSkoW0NIM10pW0NIM10=

> <s_epik_cmdline>
J2VwaWtfcHl0aG9uJywgJy1waCcsICc3LjAnLCAnLXRuJywgJzgnLCAnLW1hJywgJzIwMCcsICctbWV0YWxfYmluZGluZycsICctaW1hZScsICc8aW5maWxlLm1hZT4nLCAnLW9tYWUnLCAnPG91dGZpbGUubWFlPic=

> <r_epik_Ionization_Penalty>
0.054353

> <r_epik_Ionization_Penalty_Charging>
0.054353

> <r_epik_Ionization_Penalty_Neutral>
3.0997e-08

> <r_epik_State_Penalty>
0.0139445

> <r_epik_Charging_Adjusted_Penalty>
0.0682975

> <i_epik_Tot_Q>
-1

> <i_epik_Tot_abs_Q>
1

> <r_epik_Metal_State_Penalty>
0.0109703

> <b_epik_Metal_Only>
0

> <s_lp_Force_Field>
OPLS_2005

> <r_lp_Energy>
-0.4509

> <b_lp_Chiralities_Consistent>
1

> <s_lp_Variant>
AV-unprocessed.smi:3279-1

> <Gold.Version>
5.8.1

> <Gold.Id.Protein>
6NUR|6NUR_protein|mol2

> <Gold.PLP.Fitness>
39.7766

> <Gold.PLP.PLP>
-35.3241

> <Gold.PLP.part.hbond>
-2.0966

> <Gold.PLP.part.metal>
0.0000

> <Gold.PLP.part.buried>
-6.2651

> <Gold.PLP.part.nonpolar>
-28.1952

> <Gold.PLP.part.repulsive>
1.8470

> <Gold.PLP.ligand.clash>
0.0000

> <Gold.PLP.ligand.torsion>
0.7070

> <Gold.PLP.Chemscore.Hbond>
1.9120

> <Gold.PLP.Chemscore.CHOScore>
0.0000

> <Gold.PLP.Chemscore.Metal>
0.0000

> <Gold.Chemscore.Hbonds>
donor molecule, donor type, donor heavy atom, donor atom, acceptor molecule, acceptor atom, score
      P1  H  7989  7998       L1    14  1.00
      P1  H 10752 10763       L1    16  0.88

> <Gold.PLP.Chemscore.Internal.Correction>
0.1304

> <Gold.Rescore>
     Score         DG    S(hbond)    S(metal)    S(lipo)     H(rot)  DE(clash)    DE(int)     intcor
     11.51     -13.88       1.85        0.00      76.86       2.64       0.38       1.99       ----

> <Gold.Chemscore.Fitness>
11.5096

> <Gold.Chemscore.DG>
-13.8804

> <Gold.Chemscore.ZeroCoef>
-5.4800

> <Gold.Chemscore.Hbond>
1.8468

> <Gold.Chemscore.Metal>
0.0000

> <Gold.Chemscore.Lipo>
76.8614

> <Gold.Chemscore.Internal_Hbond>
0.0000

> <Gold.Chemscore.DEClash>
0.3844

> <Gold.Chemscore.DEInternal>
1.9864

> <Gold.Chemscore.Rot>
2.6409

> <Gold.Chemscore.Internal.Correction>
   9.000000E+99

> <Gold.Chemscore.Hbonds>
donor molecule, donor type, donor heavy atom, donor atom, acceptor molecule, acceptor atom, score
      P1  H  7989  7998       L1    14  0.86
      P1  H 10752 10763       L1    16  0.86

> <Gold.Chemscore.Hbond.Weighted>
-6.1683

> <Gold.Chemscore.Metal.Weighted>
-0.0000

> <Gold.Chemscore.Lipo.Weighted>
-8.9928

> <Gold.Chemscore.Internal_Hbond.Weighted>
0.0000

> <Gold.Chemscore.DEClash.Weighted>
0.3844

> <Gold.Chemscore.DEInternal.Weighted>
1.9864

> <Gold.Chemscore.Rot.Weighted>
6.7607

> <Gold.Chemscore.Internal.Correction.Weighted>
   9.000000E+99

> <Gold.Protein.RotatedTorsions>
[ 6907 6896 6895 6894 ] final  138.15 input  -60.11 | X-H torsion
[ 7974 7965 7964 7962 ] final  -91.18 input  175.53 | X-H torsion
[ 8008 7997 7996 7995 ] final -173.35 input   59.86 | X-H torsion
[ 10167 10162 10161 10158 ] final   -3.19 input  -65.29 | X-H torsion
[ 10718 10713 10712 10709 ] final  115.77 input   66.30 | X-H torsion
[ 10763 10752 10751 10750 ] final   48.04 input  -60.55 | X-H torsion
[ 11005 11000 10999 10996 ] final  -95.86 input  -57.11 | X-H torsion

> <Gold.Protein.ActiveResidues>
 VAL166  LYS551  ARG553  GLY616  TRP617  ASP618  TYR619  PRO620  LYS621  CYS622 
 ASP623  PHE694  ASN695  SER759  ASP760  ASP761  ALA762  ILE779  LEU786  VAL792 
 PHE793  MET794  SER795  GLU796  ALA797  LYS798  CYS799  TRP800  GLU811  SER814 

> <Gold.Protein.RotatedAtoms>
  152.2699  133.5373  159.5432 H   0  0  0  0  0  0  0  0  0  0  0  0  # atno 6907 bound_to 6896
  150.7155  134.0712  159.3874 H   0  0  0  0  0  0  0  0  0  0  0  0  # atno 6908 bound_to 6896
  151.8627  135.0518  160.0522 H   0  0  0  0  0  0  0  0  0  0  0  0  # atno 6909 bound_to 6896
  145.4166  140.9548  143.2204 H   0  0  0  0  0  0  0  0  0  0  0  0  # atno 7974 bound_to 7965
  155.9563  140.1136  157.0934 H   0  0  0  0  0  0  0  0  0  0  0  0  # atno 8008 bound_to 7997
  154.4121  140.1190  156.5186 H   0  0  0  0  0  0  0  0  0  0  0  0  # atno 8009 bound_to 7997
  155.6777  140.3473  155.4845 H   0  0  0  0  0  0  0  0  0  0  0  0  # atno 8010 bound_to 7997
  140.6881  143.6568  150.8301 H   0  0  0  0  0  0  0  0  0  0  0  0  # atno 10167 bound_to 10162
  157.6202  131.1017  150.7377 H   0  0  0  0  0  0  0  0  0  0  0  0  # atno 10718 bound_to 10713
  152.9795  135.5957  154.3861 H   0  0  0  0  0  0  0  0  0  0  0  0  # atno 10763 bound_to 10752
  154.3521  135.2767  155.2368 H   0  0  0  0  0  0  0  0  0  0  0  0  # atno 10764 bound_to 10752
  154.4403  135.6015  153.6180 H   0  0  0  0  0  0  0  0  0  0  0  0  # atno 10765 bound_to 10752
  141.1429  133.8056  157.0492 H   0  0  0  0  0  0  0  0  0  0  0  0  # atno 11005 bound_to 11000
  144.8273  139.5688  143.6959 LP  0  0  0  0  0  0  0  0  0  0  0  0  # atno 17320 bound_to 7965
  146.2678  139.6561  142.9317 LP  0  0  0  0  0  0  0  0  0  0  0  0  # atno 17321 bound_to 7965
  140.0278  143.5475  152.2773 LP  0  0  0  0  0  0  0  0  0  0  0  0  # atno 17342 bound_to 10162
  139.6257  144.7637  151.2644 LP  0  0  0  0  0  0  0  0  0  0  0  0  # atno 17343 bound_to 10162
  156.7736  130.4837  149.5414 LP  0  0  0  0  0  0  0  0  0  0  0  0  # atno 17370 bound_to 10713
  156.1343  130.6200  151.0378 LP  0  0  0  0  0  0  0  0  0  0  0  0  # atno 17371 bound_to 10713
  140.0643  134.9738  157.1358 LP  0  0  0  0  0  0  0  0  0  0  0  0  # atno 17394 bound_to 11000
  140.3803  134.2294  155.7171 LP  0  0  0  0  0  0  0  0  0  0  0  0  # atno 17395 bound_to 11000

$$$$
