AV-unprocessed.smi:1039|AV-procd|sdf|4523|dock2
  -GOLD-   22720 2543D 1   1.00000     0.00000
 Structure written by MMmdl.
 41 42  0  0  0  0  0  0  0  0  2 V2000
  145.5899  131.7906  149.0430 C   0  0  0  0  0  0  0  0  0  0  0  0
  145.4764  132.3426  150.4705 C   0  0  0  0  0  0  0  0  0  0  0  0
  144.1171  133.0355  150.7077 C   0  0  0  0  0  0  0  0  0  0  0  0
  144.0569  133.6767  152.1057 C   0  0  0  0  0  0  0  0  0  0  0  0
  145.1767  134.6241  152.2401 N   0  0  0  0  0  0  0  0  0  0  0  0
  145.0911  135.9784  152.2259 C   0  0  0  0  0  0  0  0  0  0  0  0
  144.0690  136.5888  151.9108 O   0  0  0  0  0  0  0  0  0  0  0  0
  146.2277  136.6165  152.5515 N   0  0  0  0  0  0  0  0  0  0  0  0
  146.4089  138.0648  152.5826 C   0  0  0  0  0  0  0  0  0  0  0  0
  146.7914  138.6058  153.9765 C   0  0  0  0  0  0  0  0  0  0  0  0
  146.9603  140.0956  154.0489 C   0  0  0  0  0  0  0  0  0  0  0  0
  146.0483  140.9890  153.6464 N   0  3  0  0  0  0  0  0  0  0  0  0
  146.5111  142.2624  153.8301 C   0  0  0  0  0  0  0  0  0  0  0  0
  147.7632  142.1430  154.3725 C   0  0  0  0  0  0  0  0  0  0  0  0
  148.0151  140.8002  154.4966 N   0  0  0  0  0  0  0  0  0  0  0  0
  149.2375  140.2020  155.0433 C   0  0  0  0  0  0  0  0  0  0  0  0
  149.8339  139.4408  154.1261 F   0  0  0  0  0  0  0  0  0  0  0  0
  150.0695  141.1475  155.4772 F   0  0  0  0  0  0  0  0  0  0  0  0
  146.4674  133.9257  152.2014 C   0  0  0  0  0  0  0  0  0  0  0  0
  146.6475  133.2900  150.8105 C   0  0  0  0  0  0  0  0  0  0  0  0
  145.5472  132.5911  148.3039 H   0  0  0  0  0  0  0  0  0  0  0  0
  144.7800  131.0938  148.8260 H   0  0  0  0  0  0  0  0  0  0  0  0
  146.5302  131.2569  148.9024 H   0  0  0  0  0  0  0  0  0  0  0  0
  145.5337  131.4949  151.1548 H   0  0  0  0  0  0  0  0  0  0  0  0
  143.9548  133.8034  149.9499 H   0  0  0  0  0  0  0  0  0  0  0  0
  143.3065  132.3148  150.5961 H   0  0  0  0  0  0  0  0  0  0  0  0
  143.0751  134.1220  152.2653 H   0  0  0  0  0  0  0  0  0  0  0  0
  144.1480  132.9050  152.8717 H   0  0  0  0  0  0  0  0  0  0  0  0
  147.0267  136.0522  152.8020 H   0  0  0  0  0  0  0  0  0  0  0  0
  147.1499  138.3683  151.8417 H   0  0  0  0  0  0  0  0  0  0  0  0
  145.4660  138.5071  152.2640 H   0  0  0  0  0  0  0  0  0  0  0  0
  146.0194  138.3501  154.7034 H   0  0  0  0  0  0  0  0  0  0  0  0
  147.7133  138.1449  154.3295 H   0  0  0  0  0  0  0  0  0  0  0  0
  145.9293  143.1345  153.5691 H   0  0  0  0  0  0  0  0  0  0  0  0
  148.4762  142.8971  154.6733 H   0  0  0  0  0  0  0  0  0  0  0  0
  148.9830  139.5662  155.8919 H   0  0  0  0  0  0  0  0  0  0  0  0
  147.3105  134.5819  152.4216 H   0  0  0  0  0  0  0  0  0  0  0  0
  146.4862  133.1540  152.9724 H   0  0  0  0  0  0  0  0  0  0  0  0
  147.5915  132.7458  150.7721 H   0  0  0  0  0  0  0  0  0  0  0  0
  146.7156  134.0791  150.0600 H   0  0  0  0  0  0  0  0  0  0  0  0
  145.1438  140.7505  153.2588 H   0  0  0  0  0  0  0  0  0  0  0  0
  1  2  1  0  0  0  0
  1 21  1  0  0  0  0
  1 22  1  0  0  0  0
  1 23  1  0  0  0  0
  2 20  1  0  0  0  0
  2  3  1  0  0  0  0
  2 24  1  0  0  0  0
  3  4  1  0  0  0  0
  3 25  1  0  0  0  0
  3 26  1  0  0  0  0
  4  5  1  0  0  0  0
  4 27  1  0  0  0  0
  4 28  1  0  0  0  0
  5  6  1  0  0  0  0
  5 19  1  0  0  0  0
  6  7  2  0  0  0  0
  6  8  1  0  0  0  0
  8  9  1  0  0  0  0
  8 29  1  0  0  0  0
  9 10  1  0  0  0  0
  9 30  1  0  0  0  0
  9 31  1  0  0  0  0
 10 11  1  0  0  0  0
 10 32  1  0  0  0  0
 10 33  1  0  0  0  0
 11 15  1  0  0  0  0
 11 12  2  0  0  0  0
 12 13  1  0  0  0  0
 12 41  1  0  0  0  0
 13 14  2  0  0  0  0
 13 34  1  0  0  0  0
 14 15  1  0  0  0  0
 14 35  1  0  0  0  0
 15 16  1  0  0  0  0
 16 17  1  0  0  0  0
 16 18  1  0  0  0  0
 16 36  1  0  0  0  0
 19 20  1  0  0  0  0
 19 37  1  0  0  0  0
 19 38  1  0  0  0  0
 20 39  1  0  0  0  0
 20 40  1  0  0  0  0
M  CHG  1  12   1
M  END
> <s_m_source_file>
AV-unprocessed.smi

> <i_m_source_file_index>
1039

> <i_lp_mmshare_version>
43012

> <i_f3d_flags>
0

> <s_epik_input>
W0NIM11bQ0hdMVtDSDJdW0NIMl1OKFtDSDJdW0NIMl0xKUMoPU8pW05IXVtDSDJdW0NIMl1jMm5bY0hdW2NIXW4yW0NIXShGKUY=

> <s_epik_cmdline>
J2VwaWtfcHl0aG9uJywgJy1waCcsICc3LjAnLCAnLXRuJywgJzgnLCAnLW1hJywgJzIwMCcsICctbWV0YWxfYmluZGluZycsICctaW1hZScsICc8aW5maWxlLm1hZT4nLCAnLW9tYWUnLCAnPG91dGZpbGUubWFlPic=

> <r_lp_tautomer_probability>
1

> <r_epik_Ionization_Penalty>
1.09425

> <r_epik_Ionization_Penalty_Charging>
0

> <r_epik_Ionization_Penalty_Neutral>
1.09425

> <r_epik_State_Penalty>
1.15074

> <r_epik_Charging_Adjusted_Penalty>
1.15074

> <i_epik_Tot_Q>
1

> <i_epik_Tot_abs_Q>
1

> <r_epik_Metal_State_Penalty>
1.2388

> <b_epik_Metal_Only>
0

> <s_lp_Force_Field>
OPLS_2005

> <r_lp_Energy>
37.2769

> <b_lp_Chiralities_Consistent>
1

> <s_lp_Variant>
AV-unprocessed.smi:1039-2

> <Gold.Version>
5.8.1

> <Gold.Id.Protein>
6NUR|6NUR_protein|mol2

> <Gold.PLP.Fitness>
46.0053

> <Gold.PLP.PLP>
-36.9738

> <Gold.PLP.part.hbond>
-2.0000

> <Gold.PLP.part.metal>
0.0000

> <Gold.PLP.part.buried>
-1.5935

> <Gold.PLP.part.nonpolar>
-33.6347

> <Gold.PLP.part.repulsive>
1.5812

> <Gold.PLP.ligand.clash>
1.1497

> <Gold.PLP.ligand.torsion>
0.1522

> <Gold.PLP.Chemscore.Hbond>
2.4800

> <Gold.PLP.Chemscore.CHOScore>
1.0000

> <Gold.PLP.Chemscore.Metal>
0.0000

> <Gold.Chemscore.Hbonds>
donor molecule, donor type, donor heavy atom, donor atom, acceptor molecule, acceptor atom, score
      L1  H     8    29       P1  7948  0.33
      L1  H    12    41       P1 10175  2.00
      L1  C    14    35       P1  8028  1.00

> <Gold.PLP.Chemscore.Internal.Correction>
0.0457

> <Gold.Rescore>
     Score         DG    S(hbond)    S(metal)    S(lipo)     H(rot)  DE(clash)    DE(int)     intcor
     14.89     -15.78       1.56        0.00      78.53       1.61       0.73       0.16       ----

> <Gold.Chemscore.Fitness>
14.8938

> <Gold.Chemscore.DG>
-15.7789

> <Gold.Chemscore.ZeroCoef>
-5.4800

> <Gold.Chemscore.Hbond>
1.5628

> <Gold.Chemscore.Metal>
0.0000

> <Gold.Chemscore.Lipo>
78.5326

> <Gold.Chemscore.Internal_Hbond>
0.0000

> <Gold.Chemscore.DEClash>
0.7272

> <Gold.Chemscore.DEInternal>
0.1580

> <Gold.Chemscore.Rot>
1.6051

> <Gold.Chemscore.Internal.Correction>
   9.000000E+99

> <Gold.Chemscore.Hbonds>
donor molecule, donor type, donor heavy atom, donor atom, acceptor molecule, acceptor atom, score
      L1  H     8    29       P1  7948  0.33
      L1  H    12    41       P1 10175  0.82

> <Gold.Chemscore.Hbond.Weighted>
-5.2198

> <Gold.Chemscore.Metal.Weighted>
-0.0000

> <Gold.Chemscore.Lipo.Weighted>
-9.1883

> <Gold.Chemscore.Internal_Hbond.Weighted>
0.0000

> <Gold.Chemscore.DEClash.Weighted>
0.7272

> <Gold.Chemscore.DEInternal.Weighted>
0.1580

> <Gold.Chemscore.Rot.Weighted>
4.1092

> <Gold.Chemscore.Internal.Correction.Weighted>
   9.000000E+99

> <Gold.Protein.RotatedTorsions>
[ 6907 6896 6895 6894 ] final  -39.10 input  -60.11 | X-H torsion
[ 7974 7965 7964 7962 ] final -105.58 input  175.53 | X-H torsion
[ 8008 7997 7996 7995 ] final  121.47 input   59.86 | X-H torsion
[ 10167 10162 10161 10158 ] final  -55.52 input  -65.29 | X-H torsion
[ 10718 10713 10712 10709 ] final -140.92 input   66.30 | X-H torsion
[ 10763 10752 10751 10750 ] final  -10.32 input  -60.55 | X-H torsion
[ 11005 11000 10999 10996 ] final -175.37 input  -57.11 | X-H torsion

> <Gold.Protein.ActiveResidues>
 VAL166  LYS551  ARG553  GLY616  TRP617  ASP618  TYR619  PRO620  LYS621  CYS622 
 ASP623  PHE694  ASN695  SER759  ASP760  ASP761  ALA762  ILE779  LEU786  VAL792 
 PHE793  MET794  SER795  GLU796  ALA797  LYS798  CYS799  TRP800  GLU811  SER814 

> <Gold.Protein.RotatedAtoms>
  150.9945  134.9272  159.7918 H   0  0  0  0  0  0  0  0  0  0  0  0  # atno 6907 bound_to 6896
  152.5260  134.3237  159.9168 H   0  0  0  0  0  0  0  0  0  0  0  0  # atno 6908 bound_to 6896
  151.3243  133.3985  159.2691 H   0  0  0  0  0  0  0  0  0  0  0  0  # atno 6909 bound_to 6896
  145.2286  140.9162  143.3218 H   0  0  0  0  0  0  0  0  0  0  0  0  # atno 7974 bound_to 7965
  156.2688  140.2807  156.1313 H   0  0  0  0  0  0  0  0  0  0  0  0  # atno 8008 bound_to 7997
  155.1051  140.0390  157.2725 H   0  0  0  0  0  0  0  0  0  0  0  0  # atno 8009 bound_to 7997
  154.6786  140.2603  155.6938 H   0  0  0  0  0  0  0  0  0  0  0  0  # atno 8010 bound_to 7997
  140.6370  143.2487  151.5092 H   0  0  0  0  0  0  0  0  0  0  0  0  # atno 10167 bound_to 10162
  156.3280  130.7570  151.1682 H   0  0  0  0  0  0  0  0  0  0  0  0  # atno 10718 bound_to 10713
  153.4676  135.7016  153.6013 H   0  0  0  0  0  0  0  0  0  0  0  0  # atno 10763 bound_to 10752
  153.4281  135.3809  155.2153 H   0  0  0  0  0  0  0  0  0  0  0  0  # atno 10764 bound_to 10752
  154.8726  135.3944  154.4109 H   0  0  0  0  0  0  0  0  0  0  0  0  # atno 10765 bound_to 10752
  140.4641  134.6227  157.4855 H   0  0  0  0  0  0  0  0  0  0  0  0  # atno 11005 bound_to 11000
  144.9698  139.3892  143.6315 LP  0  0  0  0  0  0  0  0  0  0  0  0  # atno 17320 bound_to 7965
  146.3358  139.8790  142.8827 LP  0  0  0  0  0  0  0  0  0  0  0  0  # atno 17321 bound_to 7965
  139.5580  144.2228  152.1644 LP  0  0  0  0  0  0  0  0  0  0  0  0  # atno 17342 bound_to 10162
  140.1487  144.5135  150.6700 LP  0  0  0  0  0  0  0  0  0  0  0  0  # atno 17343 bound_to 10162
  157.7425  131.0489  150.5020 LP  0  0  0  0  0  0  0  0  0  0  0  0  # atno 17370 bound_to 10713
  156.5182  130.4155  149.6265 LP  0  0  0  0  0  0  0  0  0  0  0  0  # atno 17371 bound_to 10713
  139.9927  134.6960  155.9662 LP  0  0  0  0  0  0  0  0  0  0  0  0  # atno 17394 bound_to 11000
  141.1608  133.6539  156.4311 LP  0  0  0  0  0  0  0  0  0  0  0  0  # atno 17395 bound_to 11000

$$$$
