AV-unprocessed.smi:3019|AV-procd|sdf|11491|dock1
  -GOLD-   2272016433D 1   1.00000     0.00000
 Structure written by MMmdl.
 30 31  0  0  0  0  0  0  0  0  1 V2000
  152.1545  144.0090  161.1855 C   0  0  0  0  0  0  0  0  0  0  0  0
  152.2418  142.6330  160.5092 C   0  0  0  0  0  0  0  0  0  0  0  0
  153.6422  142.0087  160.5992 C   0  0  0  0  0  0  0  0  0  0  0  0
  151.7464  142.6784  159.0964 C   0  0  0  0  0  0  0  0  0  0  0  0
  151.2542  143.8005  158.5724 N   0  0  0  0  0  0  0  0  0  0  0  0
  150.9341  143.4099  157.3209 N   0  0  0  0  0  0  0  0  0  0  0  0
  151.2439  142.1210  157.1655 C   0  0  0  0  0  0  0  0  0  0  0  0
  150.9939  141.3923  155.8831 C   0  0  2  0  0  0  0  0  0  0  0  0
  149.5139  141.4477  155.4567 C   0  0  0  0  0  0  0  0  0  0  0  0
  149.3040  140.6478  154.2507 N   0  0  0  0  0  0  0  0  0  0  0  0
  149.7726  139.2756  154.4394 C   0  0  0  0  0  0  0  0  0  0  0  0
  151.2424  139.2694  154.8967 C   0  0  0  0  0  0  0  0  0  0  0  0
  151.3742  140.0345  156.0899 O   0  0  0  0  0  0  0  0  0  0  0  0
  151.7663  141.5904  158.2671 N   0  0  0  0  0  0  0  0  0  0  0  0
  150.5260  144.0304  156.6365 H   0  0  0  0  0  0  0  0  0  0  0  0
  151.1340  144.3920  161.1634 H   0  0  0  0  0  0  0  0  0  0  0  0
  152.7946  144.7377  160.6874 H   0  0  0  0  0  0  0  0  0  0  0  0
  152.4644  143.9539  162.2294 H   0  0  0  0  0  0  0  0  0  0  0  0
  151.5742  141.9733  161.0659 H   0  0  0  0  0  0  0  0  0  0  0  0
  153.6517  141.0058  160.1712 H   0  0  0  0  0  0  0  0  0  0  0  0
  153.9713  141.9296  161.6355 H   0  0  0  0  0  0  0  0  0  0  0  0
  154.3787  142.6069  160.0617 H   0  0  0  0  0  0  0  0  0  0  0  0
  151.6253  141.8311  155.1077 H   0  0  0  0  0  0  0  0  0  0  0  0
  148.8832  141.0706  156.2629 H   0  0  0  0  0  0  0  0  0  0  0  0
  149.2122  142.4800  155.2788 H   0  0  0  0  0  0  0  0  0  0  0  0
  148.3164  140.6397  154.0162 H   0  0  0  0  0  0  0  0  0  0  0  0
  149.1564  138.7721  155.1854 H   0  0  0  0  0  0  0  0  0  0  0  0
  149.6664  138.7122  153.5123 H   0  0  0  0  0  0  0  0  0  0  0  0
  151.5686  138.2483  155.0944 H   0  0  0  0  0  0  0  0  0  0  0  0
  151.8959  139.6675  154.1190 H   0  0  0  0  0  0  0  0  0  0  0  0
  1  2  1  0  0  0  0
  1 16  1  0  0  0  0
  1 17  1  0  0  0  0
  1 18  1  0  0  0  0
  2  3  1  0  0  0  0
  2  4  1  0  0  0  0
  2 19  1  0  0  0  0
  3 20  1  0  0  0  0
  3 21  1  0  0  0  0
  3 22  1  0  0  0  0
  4 14  1  0  0  0  0
  4  5  2  0  0  0  0
  5  6  1  0  0  0  0
  6 15  1  0  0  0  0
  6  7  1  0  0  0  0
  7  8  1  0  0  0  0
  7 14  2  0  0  0  0
  8 13  1  0  0  0  0
  8  9  1  0  0  0  0
  8 23  1  0  0  0  0
  9 10  1  0  0  0  0
  9 24  1  0  0  0  0
  9 25  1  0  0  0  0
 10 11  1  0  0  0  0
 10 26  1  0  0  0  0
 11 12  1  0  0  0  0
 11 27  1  0  0  0  0
 11 28  1  0  0  0  0
 12 13  1  0  0  0  0
 12 29  1  0  0  0  0
 12 30  1  0  0  0  0
M  END
> <s_m_source_file>
AV-unprocessed.smi

> <i_m_source_file_index>
3019

> <i_lp_mmshare_version>
43012

> <i_f3d_flags>
0

> <s_epik_input>
W0NIM11bQ0hdKFtDSDNdKWMxbltuSF1jKG4xKVtDQEBIXTJbQ0gyXVtOSF1bQ0gyXVtDSDJdTzI=

> <s_epik_cmdline>
J2VwaWtfcHl0aG9uJywgJy1waCcsICc3LjAnLCAnLXRuJywgJzgnLCAnLW1hJywgJzIwMCcsICctbWV0YWxfYmluZGluZycsICctaW1hZScsICc8aW5maWxlLm1hZT4nLCAnLW9tYWUnLCAnPG91dGZpbGUubWFlPic=

> <r_epik_Ionization_Penalty>
0.981987

> <r_epik_Ionization_Penalty_Charging>
0

> <r_epik_Ionization_Penalty_Neutral>
0.981987

> <r_epik_State_Penalty>
2.09479

> <r_epik_Charging_Adjusted_Penalty>
2.09479

> <i_epik_Tot_Q>
0

> <i_epik_Tot_abs_Q>
0

> <r_epik_Metal_State_Penalty>
2.40362

> <b_epik_Metal_Only>
0

> <s_lp_Force_Field>
OPLS_2005

> <r_lp_Energy>
8.95245

> <b_lp_Chiralities_Consistent>
1

> <s_lp_Variant>
AV-unprocessed.smi:3019-7

> <Gold.Version>
5.8.1

> <Gold.Id.Protein>
6NUR|6NUR_protein|mol2

> <Gold.PLP.Fitness>
33.9235

> <Gold.PLP.PLP>
-31.0892

> <Gold.PLP.part.hbond>
-1.9446

> <Gold.PLP.part.metal>
0.0000

> <Gold.PLP.part.buried>
-5.0280

> <Gold.PLP.part.nonpolar>
-23.5729

> <Gold.PLP.part.repulsive>
0.1014

> <Gold.PLP.ligand.clash>
0.0000

> <Gold.PLP.ligand.torsion>
0.1127

> <Gold.PLP.Chemscore.Hbond>
1.0000

> <Gold.PLP.Chemscore.CHOScore>
0.0000

> <Gold.PLP.Chemscore.Metal>
0.0000

> <Gold.Chemscore.Hbonds>
donor molecule, donor type, donor heavy atom, donor atom, acceptor molecule, acceptor atom, score
      L1  H     6    15       P1  8028  1.00

> <Gold.PLP.Chemscore.Internal.Correction>
0.0597

> <Gold.Rescore>
     Score         DG    S(hbond)    S(metal)    S(lipo)     H(rot)  DE(clash)    DE(int)     intcor
     12.88     -12.97       1.00        0.00      63.09       1.26       0.00       0.09       ----

> <Gold.Chemscore.Fitness>
12.8823

> <Gold.Chemscore.DG>
-12.9707

> <Gold.Chemscore.ZeroCoef>
-5.4800

> <Gold.Chemscore.Hbond>
0.9985

> <Gold.Chemscore.Metal>
0.0000

> <Gold.Chemscore.Lipo>
63.0854

> <Gold.Chemscore.Internal_Hbond>
0.0000

> <Gold.Chemscore.DEClash>
0.0004

> <Gold.Chemscore.DEInternal>
0.0880

> <Gold.Chemscore.Rot>
1.2598

> <Gold.Chemscore.Internal.Correction>
   9.000000E+99

> <Gold.Chemscore.Hbonds>
donor molecule, donor type, donor heavy atom, donor atom, acceptor molecule, acceptor atom, score
      L1  H     6    15       P1  8028  0.90

> <Gold.Chemscore.Hbond.Weighted>
-3.3348

> <Gold.Chemscore.Metal.Weighted>
-0.0000

> <Gold.Chemscore.Lipo.Weighted>
-7.3810

> <Gold.Chemscore.Internal_Hbond.Weighted>
0.0000

> <Gold.Chemscore.DEClash.Weighted>
0.0004

> <Gold.Chemscore.DEInternal.Weighted>
0.0880

> <Gold.Chemscore.Rot.Weighted>
3.2251

> <Gold.Chemscore.Internal.Correction.Weighted>
   9.000000E+99

> <Gold.Protein.RotatedTorsions>
[ 6907 6896 6895 6894 ] final   84.89 input  -60.11 | X-H torsion
[ 7974 7965 7964 7962 ] final  -87.71 input  175.53 | X-H torsion
[ 8008 7997 7996 7995 ] final   92.45 input   59.86 | X-H torsion
[ 10167 10162 10161 10158 ] final  -77.42 input  -65.29 | X-H torsion
[ 10718 10713 10712 10709 ] final  132.61 input   66.30 | X-H torsion
[ 10763 10752 10751 10750 ] final   68.87 input  -60.55 | X-H torsion
[ 11005 11000 10999 10996 ] final   22.95 input  -57.11 | X-H torsion

> <Gold.Protein.ActiveResidues>
 VAL166  LYS551  ARG553  GLY616  TRP617  ASP618  TYR619  PRO620  LYS621  CYS622 
 ASP623  PHE694  ASN695  SER759  ASP760  ASP761  ALA762  ILE779  LEU786  VAL792 
 PHE793  MET794  SER795  GLU796  ALA797  LYS798  CYS799  TRP800  GLU811  SER814 

> <Gold.Protein.RotatedAtoms>
  152.5362  134.2671  159.8957 H   0  0  0  0  0  0  0  0  0  0  0  0  # atno 6907 bound_to 6896
  151.2629  133.4286  159.2624 H   0  0  0  0  0  0  0  0  0  0  0  0  # atno 6908 bound_to 6896
  151.0436  134.9639  159.8231 H   0  0  0  0  0  0  0  0  0  0  0  0  # atno 6909 bound_to 6896
  145.4629  140.9561  143.1959 H   0  0  0  0  0  0  0  0  0  0  0  0  # atno 7974 bound_to 7965
  156.0355  140.3325  155.7186 H   0  0  0  0  0  0  0  0  0  0  0  0  # atno 8008 bound_to 7997
  155.5822  140.0638  157.2798 H   0  0  0  0  0  0  0  0  0  0  0  0  # atno 8009 bound_to 7997
  154.4371  140.1842  156.0977 H   0  0  0  0  0  0  0  0  0  0  0  0  # atno 8010 bound_to 7997
  140.4772  143.2411  151.8115 H   0  0  0  0  0  0  0  0  0  0  0  0  # atno 10167 bound_to 10162
  157.4855  131.1088  150.9626 H   0  0  0  0  0  0  0  0  0  0  0  0  # atno 10718 bound_to 10713
  153.0257  135.5231  154.7201 H   0  0  0  0  0  0  0  0  0  0  0  0  # atno 10763 bound_to 10752
  154.6259  135.2894  155.0275 H   0  0  0  0  0  0  0  0  0  0  0  0  # atno 10764 bound_to 10752
  154.1245  135.6602  153.4962 H   0  0  0  0  0  0  0  0  0  0  0  0  # atno 10765 bound_to 10752
  140.3749  134.1983  155.7665 H   0  0  0  0  0  0  0  0  0  0  0  0  # atno 11005 bound_to 11000
  144.7992  139.6175  143.7079 LP  0  0  0  0  0  0  0  0  0  0  0  0  # atno 17320 bound_to 7965
  146.2441  139.6061  142.9472 LP  0  0  0  0  0  0  0  0  0  0  0  0  # atno 17321 bound_to 7965
  139.4827  144.4818  151.9296 LP  0  0  0  0  0  0  0  0  0  0  0  0  # atno 17342 bound_to 10162
  140.3904  144.2623  150.5900 LP  0  0  0  0  0  0  0  0  0  0  0  0  # atno 17343 bound_to 10162
  157.0345  130.5724  149.5347 LP  0  0  0  0  0  0  0  0  0  0  0  0  # atno 17370 bound_to 10713
  156.0144  130.5238  150.8090 LP  0  0  0  0  0  0  0  0  0  0  0  0  # atno 17371 bound_to 10713
  141.1942  133.8132  157.0765 LP  0  0  0  0  0  0  0  0  0  0  0  0  # atno 17394 bound_to 11000
  140.0523  134.9799  157.1158 LP  0  0  0  0  0  0  0  0  0  0  0  0  # atno 17395 bound_to 11000

$$$$
