AV-unprocessed.smi:828|AV-procd|sdf|3865|dock6
  -GOLD-   22720 1313D 1   1.00000     0.00000
 Structure written by MMmdl.
 34 35  0  0  0  0  0  0  0  0  3 V2000
  148.9672  125.7394  149.9208 C   0  0  0  0  0  0  0  0  0  0  0  0
  148.3311  126.3316  151.1313 C   0  0  0  0  0  0  0  0  0  0  0  0
  148.0653  125.6186  152.2285 N   0  0  0  0  0  0  0  0  0  0  0  0
  147.4726  126.3864  153.2202 N   0  0  0  0  0  0  0  0  0  0  0  0
  147.2895  127.6638  152.8571 C   0  0  0  0  0  0  0  0  0  0  0  0
  146.7331  128.5721  153.6756 N   0  5  0  0  0  0  0  0  0  0  0  0
  147.0042  129.8857  153.5102 C   0  0  0  0  0  0  0  0  0  0  0  0
  148.0935  130.3745  153.2023 O   0  0  0  0  0  0  0  0  0  0  0  0
  145.9475  130.6823  153.7247 N   0  0  0  0  0  0  0  0  0  0  0  0
  145.9332  132.1395  153.6442 C   0  0  0  0  0  0  0  0  0  0  0  0
  145.3870  132.6327  152.2900 C   0  0  1  0  0  0  0  0  0  0  0  0
  145.3309  131.5579  151.1988 C   0  0  0  0  0  0  0  0  0  0  0  0
  144.2756  132.0955  150.2438 C   0  0  0  0  0  0  0  0  0  0  0  0
  143.2624  132.7634  151.1755 C   0  0  0  0  0  0  0  0  0  0  0  0
  143.9954  133.1294  152.4114 N   0  3  2  0  0  0  0  0  0  0  0  0
  143.8902  134.5618  152.7661 C   0  0  0  0  0  0  0  0  0  0  0  0
  147.8679  128.0220  151.2301 S   0  0  0  0  0  0  0  0  0  0  0  0
  148.2586  125.0895  149.4072 H   0  0  0  0  0  0  0  0  0  0  0  0
  149.8415  125.1533  150.2045 H   0  0  0  0  0  0  0  0  0  0  0  0
  149.2825  126.5257  149.2348 H   0  0  0  0  0  0  0  0  0  0  0  0
  145.0776  130.2317  153.9685 H   0  0  0  0  0  0  0  0  0  0  0  0
  145.3650  132.5728  154.4692 H   0  0  0  0  0  0  0  0  0  0  0  0
  146.9604  132.4796  153.7750 H   0  0  0  0  0  0  0  0  0  0  0  0
  146.0140  133.4475  151.9217 H   0  0  0  0  0  0  0  0  0  0  0  0
  146.2942  131.3922  150.7149 H   0  0  0  0  0  0  0  0  0  0  0  0
  144.9954  130.6070  151.6155 H   0  0  0  0  0  0  0  0  0  0  0  0
  144.7231  132.8415  149.5857 H   0  0  0  0  0  0  0  0  0  0  0  0
  143.8314  131.3192  149.6200 H   0  0  0  0  0  0  0  0  0  0  0  0
  142.7836  133.6182  150.6955 H   0  0  0  0  0  0  0  0  0  0  0  0
  142.4768  132.0575  151.4467 H   0  0  0  0  0  0  0  0  0  0  0  0
  144.3198  135.1923  151.9865 H   0  0  0  0  0  0  0  0  0  0  0  0
  144.4130  134.7678  153.7002 H   0  0  0  0  0  0  0  0  0  0  0  0
  142.8456  134.8449  152.8988 H   0  0  0  0  0  0  0  0  0  0  0  0
  143.5663  132.6016  153.1580 H   0  0  0  0  0  0  0  0  0  0  0  0
  1  2  1  0  0  0  0
  1 18  1  0  0  0  0
  1 19  1  0  0  0  0
  1 20  1  0  0  0  0
  2 17  1  0  0  0  0
  2  3  2  0  0  0  0
  3  4  1  0  0  0  0
  4  5  2  0  0  0  0
  5  6  1  0  0  0  0
  5 17  1  0  0  0  0
  6  7  1  0  0  0  0
  7  8  2  0  0  0  0
  7  9  1  0  0  0  0
  9 10  1  0  0  0  0
  9 21  1  0  0  0  0
 10 11  1  0  0  0  0
 10 22  1  0  0  0  0
 10 23  1  0  0  0  0
 11 15  1  0  0  0  0
 11 12  1  0  0  0  0
 11 24  1  0  0  0  0
 12 13  1  0  0  0  0
 12 25  1  0  0  0  0
 12 26  1  0  0  0  0
 13 14  1  0  0  0  0
 13 27  1  0  0  0  0
 13 28  1  0  0  0  0
 14 15  1  0  0  0  0
 14 29  1  0  0  0  0
 14 30  1  0  0  0  0
 15 16  1  0  0  0  0
 15 34  1  0  0  0  0
 16 31  1  0  0  0  0
 16 32  1  0  0  0  0
 16 33  1  0  0  0  0
M  CHG  1   6  -1
M  CHG  1  15   1
M  END
> <s_m_source_file>
AV-unprocessed.smi

> <i_m_source_file_index>
828

> <i_lp_mmshare_version>
43012

> <i_f3d_flags>
0

> <s_epik_input>
W0NIM11jMW5uYyhzMSlbTkhdQyg9TylbTkhdW0NIMl1bQ0BASF0yW0NIMl1bQ0gyXVtDSDJdTjJbQ0gzXQ==

> <s_epik_cmdline>
J2VwaWtfcHl0aG9uJywgJy1waCcsICc3LjAnLCAnLXRuJywgJzgnLCAnLW1hJywgJzIwMCcsICctbWV0YWxfYmluZGluZycsICctaW1hZScsICc8aW5maWxlLm1hZT4nLCAnLW9tYWUnLCAnPG91dGZpbGUubWFlPic=

> <r_lp_tautomer_probability>
1

> <r_epik_Ionization_Penalty>
3.94379

> <r_epik_Ionization_Penalty_Charging>
3.83377

> <r_epik_Ionization_Penalty_Neutral>
0.110023

> <r_epik_State_Penalty>
3.83036

> <r_epik_Charging_Adjusted_Penalty>
7.66413

> <i_epik_Tot_Q>
0

> <i_epik_Tot_abs_Q>
2

> <r_epik_Metal_State_Penalty>
0.575095

> <b_epik_Metal_Only>
1

> <s_lp_Force_Field>
OPLS_2005

> <r_lp_Energy>
18.3481

> <b_lp_Chiralities_Consistent>
1

> <s_lp_Variant>
AV-unprocessed.smi:828-8

> <Gold.Version>
5.8.1

> <Gold.Id.Protein>
6NUR|6NUR_protein|mol2

> <Gold.PLP.Fitness>
36.3754

> <Gold.PLP.PLP>
-30.8930

> <Gold.PLP.part.hbond>
-3.6543

> <Gold.PLP.part.metal>
0.0000

> <Gold.PLP.part.buried>
-4.9062

> <Gold.PLP.part.nonpolar>
-23.5853

> <Gold.PLP.part.repulsive>
0.5247

> <Gold.PLP.ligand.clash>
0.2348

> <Gold.PLP.ligand.torsion>
1.1911

> <Gold.PLP.Chemscore.Hbond>
2.6947

> <Gold.PLP.Chemscore.CHOScore>
0.0000

> <Gold.PLP.Chemscore.Metal>
0.0000

> <Gold.Chemscore.Hbonds>
donor molecule, donor type, donor heavy atom, donor atom, acceptor molecule, acceptor atom, score
      L1  H     9    21       P1 10956  0.66
      L1  H    15    34       P1 10957  1.90

> <Gold.PLP.Chemscore.Internal.Correction>
0.0153

> <Gold.Rescore>
     Score         DG    S(hbond)    S(metal)    S(lipo)     H(rot)  DE(clash)    DE(int)     intcor
     11.19     -12.63       1.15        0.00      56.97       1.31       0.19       1.25       ----

> <Gold.Chemscore.Fitness>
11.1907

> <Gold.Chemscore.DG>
-12.6271

> <Gold.Chemscore.ZeroCoef>
-5.4800

> <Gold.Chemscore.Hbond>
1.1519

> <Gold.Chemscore.Metal>
0.0000

> <Gold.Chemscore.Lipo>
56.9743

> <Gold.Chemscore.Internal_Hbond>
0.0000

> <Gold.Chemscore.DEClash>
0.1870

> <Gold.Chemscore.DEInternal>
1.2495

> <Gold.Chemscore.Rot>
1.3149

> <Gold.Chemscore.Internal.Correction>
   9.000000E+99

> <Gold.Chemscore.Hbonds>
donor molecule, donor type, donor heavy atom, donor atom, acceptor molecule, acceptor atom, score
      L1  H     9    21       P1 10956  0.08
      L1  H    15    34       P1 10957  0.20

> <Gold.Chemscore.Hbond.Weighted>
-3.8473

> <Gold.Chemscore.Metal.Weighted>
-0.0000

> <Gold.Chemscore.Lipo.Weighted>
-6.6660

> <Gold.Chemscore.Internal_Hbond.Weighted>
0.0000

> <Gold.Chemscore.DEClash.Weighted>
0.1870

> <Gold.Chemscore.DEInternal.Weighted>
1.2495

> <Gold.Chemscore.Rot.Weighted>
3.3662

> <Gold.Chemscore.Internal.Correction.Weighted>
   9.000000E+99

> <Gold.Protein.RotatedTorsions>
[ 6907 6896 6895 6894 ] final   33.54 input  -60.11 | X-H torsion
[ 7974 7965 7964 7962 ] final   84.86 input  175.53 | X-H torsion
[ 8008 7997 7996 7995 ] final  -52.40 input   59.86 | X-H torsion
[ 10167 10162 10161 10158 ] final  131.54 input  -65.29 | X-H torsion
[ 10718 10713 10712 10709 ] final  114.27 input   66.30 | X-H torsion
[ 10763 10752 10751 10750 ] final   68.99 input  -60.55 | X-H torsion
[ 11005 11000 10999 10996 ] final   -3.13 input  -57.11 | X-H torsion

> <Gold.Protein.ActiveResidues>
 VAL166  LYS551  ARG553  GLY616  TRP617  ASP618  TYR619  PRO620  LYS621  CYS622 
 ASP623  PHE694  ASN695  SER759  ASP760  ASP761  ALA762  ILE779  LEU786  VAL792 
 PHE793  MET794  SER795  GLU796  ALA797  LYS798  CYS799  TRP800  GLU811  SER814 

> <Gold.Protein.RotatedAtoms>
  152.0900  134.9414  160.0571 H   0  0  0  0  0  0  0  0  0  0  0  0  # atno 6907 bound_to 6896
  152.0669  133.4083  159.4450 H   0  0  0  0  0  0  0  0  0  0  0  0  # atno 6908 bound_to 6896
  150.6837  134.3056  159.4768 H   0  0  0  0  0  0  0  0  0  0  0  0  # atno 6909 bound_to 6896
  145.5932  139.2341  143.2287 H   0  0  0  0  0  0  0  0  0  0  0  0  # atno 7974 bound_to 7965
  154.4106  140.1225  156.4985 H   0  0  0  0  0  0  0  0  0  0  0  0  # atno 8008 bound_to 7997
  155.6919  140.3495  155.4877 H   0  0  0  0  0  0  0  0  0  0  0  0  # atno 8009 bound_to 7997
  155.9461  140.1096  157.1005 H   0  0  0  0  0  0  0  0  0  0  0  0  # atno 8010 bound_to 7997
  139.5379  144.6702  151.4722 H   0  0  0  0  0  0  0  0  0  0  0  0  # atno 10167 bound_to 10162
  157.6291  131.0996  150.7162 H   0  0  0  0  0  0  0  0  0  0  0  0  # atno 10718 bound_to 10713
  153.0264  135.5227  154.7220 H   0  0  0  0  0  0  0  0  0  0  0  0  # atno 10763 bound_to 10752
  154.6273  135.2896  155.0260 H   0  0  0  0  0  0  0  0  0  0  0  0  # atno 10764 bound_to 10752
  154.1225  135.6605  153.4958 H   0  0  0  0  0  0  0  0  0  0  0  0  # atno 10765 bound_to 10752
  140.6659  133.9279  155.8464 H   0  0  0  0  0  0  0  0  0  0  0  0  # atno 11005 bound_to 11000
  146.1631  140.6758  142.9268 LP  0  0  0  0  0  0  0  0  0  0  0  0  # atno 17320 bound_to 7965
  144.7342  140.4760  143.6916 LP  0  0  0  0  0  0  0  0  0  0  0  0  # atno 17321 bound_to 7965
  140.6595  143.8528  150.6872 LP  0  0  0  0  0  0  0  0  0  0  0  0  # atno 17342 bound_to 10162
  140.1918  143.4030  152.1857 LP  0  0  0  0  0  0  0  0  0  0  0  0  # atno 17343 bound_to 10162
  156.7505  130.4767  149.5458 LP  0  0  0  0  0  0  0  0  0  0  0  0  # atno 17370 bound_to 10713
  156.1482  130.6291  151.0559 LP  0  0  0  0  0  0  0  0  0  0  0  0  # atno 17371 bound_to 10713
  141.0429  134.0595  157.3879 LP  0  0  0  0  0  0  0  0  0  0  0  0  # atno 17394 bound_to 11000
  139.8997  135.0160  156.7209 LP  0  0  0  0  0  0  0  0  0  0  0  0  # atno 17395 bound_to 11000

$$$$
