AV-unprocessed.smi:1493|AV-procd|sdf|6048|dock8
  -GOLD-   22720 6163D 1   1.00000     0.00000
 Structure written by MMmdl.
 33 33  0  0  0  0  0  0  0  0  2 V2000
  151.4148  144.9180  158.7009 C   0  0  0  0  0  0  0  0  0  0  0  0
  152.1700  144.5230  159.9747 C   0  0  0  0  0  0  0  0  0  0  0  0
  151.7646  143.1317  160.4913 C   0  0  0  0  0  0  0  0  0  0  0  0
  152.3884  141.9667  159.6994 C   0  0  2  0  0  0  0  0  0  0  0  0
  153.9241  142.0291  159.7254 C   0  0  0  0  0  0  0  0  0  0  0  0
  151.9110  141.9792  158.3186 N   0  0  0  0  0  0  0  0  0  0  0  0
  150.8698  141.2754  157.8473 C   0  0  0  0  0  0  0  0  0  0  0  0
  150.1812  140.5363  158.5529 O   0  0  0  0  0  0  0  0  0  0  0  0
  150.5627  141.4551  156.3523 C   0  0  0  0  0  0  0  0  0  0  0  0
  150.7150  140.2251  155.5611 N   0  0  0  0  0  0  0  0  0  0  0  0
  152.1041  139.8284  155.3464 N   0  5  0  0  0  0  0  0  0  0  0  0
  152.3694  138.7169  154.6099 C   0  0  0  0  0  0  0  0  0  0  0  0
  153.5119  138.3321  154.3722 O   0  0  0  0  0  0  0  0  0  0  0  0
  151.2453  137.9556  154.0909 C   0  0  0  0  0  0  0  0  0  0  0  0
  149.9726  138.3296  154.3282 C   0  0  0  0  0  0  0  0  0  0  0  0
  149.6415  139.5152  155.1093 C   0  0  0  0  0  0  0  0  0  0  0  0
  148.4810  139.8541  155.3425 O   0  0  0  0  0  0  0  0  0  0  0  0
  151.7227  145.9060  158.3583 H   0  0  0  0  0  0  0  0  0  0  0  0
  150.3385  144.9460  158.8731 H   0  0  0  0  0  0  0  0  0  0  0  0
  151.6076  144.2107  157.8939 H   0  0  0  0  0  0  0  0  0  0  0  0
  153.2420  144.5407  159.7759 H   0  0  0  0  0  0  0  0  0  0  0  0
  151.9873  145.2756  160.7422 H   0  0  0  0  0  0  0  0  0  0  0  0
  152.0321  143.0435  161.5453 H   0  0  0  0  0  0  0  0  0  0  0  0
  150.6782  143.0444  160.4476 H   0  0  0  0  0  0  0  0  0  0  0  0
  152.0768  141.0351  160.1754 H   0  0  0  0  0  0  0  0  0  0  0  0
  154.3000  142.0041  160.7485 H   0  0  0  0  0  0  0  0  0  0  0  0
  154.2919  142.9429  159.2573 H   0  0  0  0  0  0  0  0  0  0  0  0
  154.3638  141.1835  159.1952 H   0  0  0  0  0  0  0  0  0  0  0  0
  152.4147  142.5652  157.6687 H   0  0  0  0  0  0  0  0  0  0  0  0
  149.5474  141.8454  156.2638 H   0  0  0  0  0  0  0  0  0  0  0  0
  151.2114  142.2299  155.9394 H   0  0  0  0  0  0  0  0  0  0  0  0
  151.4347  137.0690  153.5039 H   0  0  0  0  0  0  0  0  0  0  0  0
  149.1688  137.7327  153.9243 H   0  0  0  0  0  0  0  0  0  0  0  0
  1  2  1  0  0  0  0
  1 18  1  0  0  0  0
  1 19  1  0  0  0  0
  1 20  1  0  0  0  0
  2  3  1  0  0  0  0
  2 21  1  0  0  0  0
  2 22  1  0  0  0  0
  3  4  1  0  0  0  0
  3 23  1  0  0  0  0
  3 24  1  0  0  0  0
  4  5  1  0  0  0  0
  4  6  1  0  0  0  0
  4 25  1  0  0  0  0
  5 26  1  0  0  0  0
  5 27  1  0  0  0  0
  5 28  1  0  0  0  0
  6  7  1  0  0  0  0
  6 29  1  0  0  0  0
  7  8  2  0  0  0  0
  7  9  1  0  0  0  0
  9 30  1  0  0  0  0
  9 31  1  0  0  0  0
  9 10  1  0  0  0  0
 10 11  1  0  0  0  0
 10 16  1  0  0  0  0
 11 12  1  0  0  0  0
 12 13  2  0  0  0  0
 12 14  1  0  0  0  0
 14 32  1  0  0  0  0
 14 15  2  0  0  0  0
 15 33  1  0  0  0  0
 15 16  1  0  0  0  0
 16 17  2  0  0  0  0
M  CHG  1  11  -1
M  END
> <s_m_source_file>
AV-unprocessed.smi

> <i_m_source_file_index>
1493

> <i_lp_mmshare_version>
43012

> <i_f3d_flags>
0

> <s_epik_input>
W0NIM11bQ0gyXVtDSDJdW0NASF0oW0NIM10pW05IXUMoPU8pW0NIMl1uMVtuSF1jKD1PKVtjSF1bY0hdYzE9Tw==

> <s_epik_cmdline>
J2VwaWtfcHl0aG9uJywgJy1waCcsICc3LjAnLCAnLXRuJywgJzgnLCAnLW1hJywgJzIwMCcsICctbWV0YWxfYmluZGluZycsICctaW1hZScsICc8aW5maWxlLm1hZT4nLCAnLW9tYWUnLCAnPG91dGZpbGUubWFlPic=

> <r_lp_tautomer_probability>
1

> <r_epik_Ionization_Penalty>
0.0986298

> <r_epik_Ionization_Penalty_Charging>
0.0986298

> <r_epik_Ionization_Penalty_Neutral>
1.93017e-08

> <r_epik_State_Penalty>
0.0347731

> <r_epik_Charging_Adjusted_Penalty>
0.133403

> <i_epik_Tot_Q>
-1

> <i_epik_Tot_abs_Q>
1

> <r_epik_Metal_State_Penalty>
0.0347731

> <b_epik_Metal_Only>
0

> <s_lp_Force_Field>
OPLS_2005

> <r_lp_Energy>
18.8288

> <b_lp_Chiralities_Consistent>
1

> <s_lp_Variant>
AV-unprocessed.smi:1493-1

> <Gold.Version>
5.8.1

> <Gold.Id.Protein>
6NUR|6NUR_protein|mol2

> <Gold.PLP.Fitness>
45.4262

> <Gold.PLP.PLP>
-40.5831

> <Gold.PLP.part.hbond>
-2.8313

> <Gold.PLP.part.metal>
0.0000

> <Gold.PLP.part.buried>
-4.2328

> <Gold.PLP.part.nonpolar>
-32.6112

> <Gold.PLP.part.repulsive>
0.1651

> <Gold.PLP.ligand.clash>
0.0000

> <Gold.PLP.ligand.torsion>
0.5910

> <Gold.PLP.Chemscore.Hbond>
2.0000

> <Gold.PLP.Chemscore.CHOScore>
0.0000

> <Gold.PLP.Chemscore.Metal>
0.0000

> <Gold.Chemscore.Hbonds>
donor molecule, donor type, donor heavy atom, donor atom, acceptor molecule, acceptor atom, score
      P1  H  7997  8010       L1    11  0.07

> <Gold.PLP.Chemscore.Internal.Correction>
0.0251

> <Gold.Rescore>
     Score         DG    S(hbond)    S(metal)    S(lipo)     H(rot)  DE(clash)    DE(int)     intcor
     11.30     -12.12       0.80        0.00      80.55       2.14       0.03       0.79       ----

> <Gold.Chemscore.Fitness>
11.2961

> <Gold.Chemscore.DG>
-12.1163

> <Gold.Chemscore.ZeroCoef>
-5.4800

> <Gold.Chemscore.Hbond>
0.8035

> <Gold.Chemscore.Metal>
0.0000

> <Gold.Chemscore.Lipo>
80.5461

> <Gold.Chemscore.Internal_Hbond>
0.0000

> <Gold.Chemscore.DEClash>
0.0340

> <Gold.Chemscore.DEInternal>
0.7862

> <Gold.Chemscore.Rot>
2.1372

> <Gold.Chemscore.Internal.Correction>
   9.000000E+99

> <Gold.Chemscore.Hbonds>
donor molecule, donor type, donor heavy atom, donor atom, acceptor molecule, acceptor atom, score
      P1  H  7997  8010       L1    11  0.01

> <Gold.Chemscore.Hbond.Weighted>
-2.6837

> <Gold.Chemscore.Metal.Weighted>
-0.0000

> <Gold.Chemscore.Lipo.Weighted>
-9.4239

> <Gold.Chemscore.Internal_Hbond.Weighted>
0.0000

> <Gold.Chemscore.DEClash.Weighted>
0.0340

> <Gold.Chemscore.DEInternal.Weighted>
0.7862

> <Gold.Chemscore.Rot.Weighted>
5.4713

> <Gold.Chemscore.Internal.Correction.Weighted>
   9.000000E+99

> <Gold.Protein.RotatedTorsions>
[ 6907 6896 6895 6894 ] final  -54.70 input  -60.11 | X-H torsion
[ 7974 7965 7964 7962 ] final -156.73 input  175.53 | X-H torsion
[ 8008 7997 7996 7995 ] final   95.23 input   59.86 | X-H torsion
[ 10167 10162 10161 10158 ] final   -8.91 input  -65.29 | X-H torsion
[ 10718 10713 10712 10709 ] final  134.63 input   66.30 | X-H torsion
[ 10763 10752 10751 10750 ] final   13.62 input  -60.55 | X-H torsion
[ 11005 11000 10999 10996 ] final -150.35 input  -57.11 | X-H torsion

> <Gold.Protein.ActiveResidues>
 VAL166  LYS551  ARG553  GLY616  TRP617  ASP618  TYR619  PRO620  LYS621  CYS622 
 ASP623  PHE694  ASN695  SER759  ASP760  ASP761  ALA762  ILE779  LEU786  VAL792 
 PHE793  MET794  SER795  GLU796  ALA797  LYS798  CYS799  TRP800  GLU811  SER814 

> <Gold.Protein.RotatedAtoms>
  150.8315  134.7571  159.6857 H   0  0  0  0  0  0  0  0  0  0  0  0  # atno 6907 bound_to 6896
  152.4419  134.5570  159.9893 H   0  0  0  0  0  0  0  0  0  0  0  0  # atno 6908 bound_to 6896
  151.5730  133.3350  159.3029 H   0  0  0  0  0  0  0  0  0  0  0  0  # atno 6909 bound_to 6896
  144.7580  140.4068  143.5998 H   0  0  0  0  0  0  0  0  0  0  0  0  # atno 7974 bound_to 7965
  156.0666  140.3289  155.7525 H   0  0  0  0  0  0  0  0  0  0  0  0  # atno 8008 bound_to 7997
  155.5371  140.0598  157.2895 H   0  0  0  0  0  0  0  0  0  0  0  0  # atno 8009 bound_to 7997
  154.4508  140.1917  156.0542 H   0  0  0  0  0  0  0  0  0  0  0  0  # atno 8010 bound_to 7997
  140.7072  143.5916  150.8888 H   0  0  0  0  0  0  0  0  0  0  0  0  # atno 10167 bound_to 10162
  157.4653  131.1076  150.9870 H   0  0  0  0  0  0  0  0  0  0  0  0  # atno 10718 bound_to 10713
  153.1702  135.6811  153.8618 H   0  0  0  0  0  0  0  0  0  0  0  0  # atno 10763 bound_to 10752
  153.7984  135.3159  155.3388 H   0  0  0  0  0  0  0  0  0  0  0  0  # atno 10764 bound_to 10752
  154.7993  135.4788  154.0328 H   0  0  0  0  0  0  0  0  0  0  0  0  # atno 10765 bound_to 10752
  140.7411  134.3513  157.5147 H   0  0  0  0  0  0  0  0  0  0  0  0  # atno 11005 bound_to 11000
  145.6715  139.1600  143.2752 LP  0  0  0  0  0  0  0  0  0  0  0  0  # atno 17320 bound_to 7965
  146.1611  140.6786  142.9277 LP  0  0  0  0  0  0  0  0  0  0  0  0  # atno 17321 bound_to 7965
  139.9641  143.6130  152.2993 LP  0  0  0  0  0  0  0  0  0  0  0  0  # atno 17342 bound_to 10162
  139.6693  144.7661  151.1813 LP  0  0  0  0  0  0  0  0  0  0  0  0  # atno 17343 bound_to 10162
  157.0653  130.5842  149.5393 LP  0  0  0  0  0  0  0  0  0  0  0  0  # atno 17370 bound_to 10713
  156.0047  130.5132  150.7789 LP  0  0  0  0  0  0  0  0  0  0  0  0  # atno 17371 bound_to 10713
  139.8806  134.9081  156.2960 LP  0  0  0  0  0  0  0  0  0  0  0  0  # atno 17394 bound_to 11000
  140.9836  133.7252  156.0708 LP  0  0  0  0  0  0  0  0  0  0  0  0  # atno 17395 bound_to 11000

$$$$
