AV-unprocessed.smi:1916|AV-procd|sdf|7767|dock6
  -GOLD-   22720 9513D 1   1.00000     0.00000
 Structure written by MMmdl.
 46 48  0  0  0  0  0  0  0  0  2 V2000
  150.7007  139.4200  154.2667 O   0  0  0  0  0  0  0  0  0  0  0  0
  151.1727  139.1147  155.3620 C   0  0  0  0  0  0  0  0  0  0  0  0
  151.2617  139.9741  156.3882 N   0  0  0  0  0  0  0  0  0  0  0  0
  150.8211  141.3661  156.3610 C   0  0  0  0  0  0  0  0  0  0  0  0
  149.8602  141.7338  157.5115 C   0  0  0  0  0  0  0  0  0  0  0  0
  150.3430  142.8879  158.3736 C   0  0  0  0  0  0  0  0  0  0  0  0
  151.0795  142.6797  159.5597 C   0  0  0  0  0  0  0  0  0  0  0  0
  151.5120  143.7955  160.3069 C   0  0  0  0  0  0  0  0  0  0  0  0
  151.2012  145.0939  159.8521 C   0  0  0  0  0  0  0  0  0  0  0  0
  150.4634  145.2444  158.6603 C   0  0  0  0  0  0  0  0  0  0  0  0
  150.0658  144.1510  157.9740 N   0  3  0  0  0  0  0  0  0  0  0  0
  151.7226  137.7004  155.6029 C   0  0  1  0  0  0  0  0  0  0  0  0
  151.4418  137.2185  157.0381 C   0  0  0  0  0  0  0  0  0  0  0  0
  150.4285  136.1005  156.8604 C   0  0  0  0  0  0  0  0  0  0  0  0
  149.9041  135.5301  157.8154 O   0  0  0  0  0  0  0  0  0  0  0  0
  150.2040  135.8498  155.5614 N   0  0  0  0  0  0  0  0  0  0  0  0
  149.3091  134.8456  154.9684 C   0  0  0  0  0  0  0  0  0  0  0  0
  148.7452  133.8429  155.9998 C   0  0  0  0  0  0  0  0  0  0  0  0
  149.3138  132.4734  155.6202 C   0  0  0  0  0  0  0  0  0  0  0  0
  149.5391  132.5602  154.1136 C   0  0  0  0  0  0  0  0  0  0  0  0
  150.0021  133.9990  153.8797 C   0  0  0  0  0  0  0  0  0  0  0  0
  151.0525  136.6503  154.6920 C   0  0  0  0  0  0  0  0  0  0  0  0
  151.6601  139.6385  157.2536 H   0  0  0  0  0  0  0  0  0  0  0  0
  151.6864  142.0307  156.3631 H   0  0  0  0  0  0  0  0  0  0  0  0
  150.3162  141.5244  155.4077 H   0  0  0  0  0  0  0  0  0  0  0  0
  148.8797  141.9881  157.1066 H   0  0  0  0  0  0  0  0  0  0  0  0
  149.7006  140.8610  158.1455 H   0  0  0  0  0  0  0  0  0  0  0  0
  151.3131  141.6788  159.8928 H   0  0  0  0  0  0  0  0  0  0  0  0
  152.0769  143.6566  161.2171 H   0  0  0  0  0  0  0  0  0  0  0  0
  151.5241  145.9610  160.4098 H   0  0  0  0  0  0  0  0  0  0  0  0
  150.1818  146.1981  158.2381 H   0  0  0  0  0  0  0  0  0  0  0  0
  152.7989  137.7022  155.4212 H   0  0  0  0  0  0  0  0  0  0  0  0
  152.3446  136.8193  157.5013 H   0  0  0  0  0  0  0  0  0  0  0  0
  151.0427  137.9950  157.6930 H   0  0  0  0  0  0  0  0  0  0  0  0
  148.4629  135.3635  154.5139 H   0  0  0  0  0  0  0  0  0  0  0  0
  148.9682  134.1047  157.0349 H   0  0  0  0  0  0  0  0  0  0  0  0
  147.6584  133.8150  155.9121 H   0  0  0  0  0  0  0  0  0  0  0  0
  150.2678  132.3149  156.1241 H   0  0  0  0  0  0  0  0  0  0  0  0
  148.6522  131.6531  155.8994 H   0  0  0  0  0  0  0  0  0  0  0  0
  150.2581  131.8244  153.7527 H   0  0  0  0  0  0  0  0  0  0  0  0
  148.5966  132.3883  153.5921 H   0  0  0  0  0  0  0  0  0  0  0  0
  149.7623  134.3466  152.8745 H   0  0  0  0  0  0  0  0  0  0  0  0
  151.0873  134.0394  153.9797 H   0  0  0  0  0  0  0  0  0  0  0  0
  150.4658  137.0978  153.8875 H   0  0  0  0  0  0  0  0  0  0  0  0
  151.8021  136.0058  154.2308 H   0  0  0  0  0  0  0  0  0  0  0  0
  149.5338  144.2820  157.1130 H   0  0  0  0  0  0  0  0  0  0  0  0
  1  2  2  0  0  0  0
  2  3  1  0  0  0  0
  2 12  1  0  0  0  0
  3  4  1  0  0  0  0
  3 23  1  0  0  0  0
  4  5  1  0  0  0  0
  4 24  1  0  0  0  0
  4 25  1  0  0  0  0
  5  6  1  0  0  0  0
  5 26  1  0  0  0  0
  5 27  1  0  0  0  0
  6 11  1  0  0  0  0
  6  7  2  0  0  0  0
  7  8  1  0  0  0  0
  7 28  1  0  0  0  0
  8  9  2  0  0  0  0
  8 29  1  0  0  0  0
  9 10  1  0  0  0  0
  9 30  1  0  0  0  0
 10 11  2  0  0  0  0
 10 31  1  0  0  0  0
 11 46  1  0  0  0  0
 12 22  1  0  0  0  0
 12 13  1  0  0  0  0
 12 32  1  0  0  0  0
 13 14  1  0  0  0  0
 13 33  1  0  0  0  0
 13 34  1  0  0  0  0
 14 15  2  0  0  0  0
 14 16  1  0  0  0  0
 16 17  1  0  0  0  0
 16 22  1  0  0  0  0
 17 21  1  0  0  0  0
 17 18  1  0  0  0  0
 17 35  1  0  0  0  0
 18 19  1  0  0  0  0
 18 36  1  0  0  0  0
 18 37  1  0  0  0  0
 19 20  1  0  0  0  0
 19 38  1  0  0  0  0
 19 39  1  0  0  0  0
 20 21  1  0  0  0  0
 20 40  1  0  0  0  0
 20 41  1  0  0  0  0
 21 42  1  0  0  0  0
 21 43  1  0  0  0  0
 22 44  1  0  0  0  0
 22 45  1  0  0  0  0
M  CHG  1  11   1
M  END
> <s_m_source_file>
AV-unprocessed.smi

> <i_m_source_file_index>
1916

> <i_lp_mmshare_version>
43012

> <i_f3d_flags>
0

> <s_epik_input>
W0NIMl0xW0NIMl1bQ0gyXVtDSDJdW0NIXTFOKFtDSDJdMilDKD1PKVtDSDJdW0NASF0yQyg9TylbTkhdW0NIMl1bQ0gyXWMzW2NIXVtjSF1bY0hdW2NIXW4z

> <s_epik_cmdline>
J2VwaWtfcHl0aG9uJywgJy1waCcsICc3LjAnLCAnLXRuJywgJzgnLCAnLW1hJywgJzIwMCcsICctbWV0YWxfYmluZGluZycsICctaW1hZScsICc8aW5maWxlLm1hZT4nLCAnLW9tYWUnLCAnPG91dGZpbGUubWFlPic=

> <r_epik_Ionization_Penalty>
1.88249

> <r_epik_Ionization_Penalty_Charging>
1.88249

> <r_epik_Ionization_Penalty_Neutral>
3.64574e-08

> <r_epik_State_Penalty>
2.00238

> <r_epik_Charging_Adjusted_Penalty>
3.88487

> <i_epik_Tot_Q>
1

> <i_epik_Tot_abs_Q>
1

> <r_epik_Metal_State_Penalty>
2.02676

> <b_epik_Metal_Only>
0

> <s_lp_Force_Field>
OPLS_2005

> <r_lp_Energy>
36.1777

> <b_lp_Chiralities_Consistent>
1

> <s_lp_Variant>
AV-unprocessed.smi:1916-4

> <Gold.Version>
5.8.1

> <Gold.Id.Protein>
6NUR|6NUR_protein|mol2

> <Gold.PLP.Fitness>
47.3977

> <Gold.PLP.PLP>
-40.1790

> <Gold.PLP.part.hbond>
-3.0000

> <Gold.PLP.part.metal>
0.0000

> <Gold.PLP.part.buried>
-5.7647

> <Gold.PLP.part.nonpolar>
-32.4595

> <Gold.PLP.part.repulsive>
0.3239

> <Gold.PLP.ligand.clash>
0.5032

> <Gold.PLP.ligand.torsion>
1.7295

> <Gold.PLP.Chemscore.Hbond>
3.7040

> <Gold.PLP.Chemscore.CHOScore>
0.0000

> <Gold.PLP.Chemscore.Metal>
0.0000

> <Gold.Chemscore.Hbonds>
donor molecule, donor type, donor heavy atom, donor atom, acceptor molecule, acceptor atom, score
      L1  H    11    46       P1  8028  2.00
      P1  H  6896  6909       L1    15  0.71
      P1  H  7989  7998       L1     1  1.00

> <Gold.PLP.Chemscore.Internal.Correction>
0.0690

> <Gold.Rescore>
     Score         DG    S(hbond)    S(metal)    S(lipo)     H(rot)  DE(clash)    DE(int)     intcor
     19.21     -22.35       2.78        0.00     102.50       1.72       0.27       2.87       ----

> <Gold.Chemscore.Fitness>
19.2079

> <Gold.Chemscore.DG>
-22.3499

> <Gold.Chemscore.ZeroCoef>
-5.4800

> <Gold.Chemscore.Hbond>
2.7754

> <Gold.Chemscore.Metal>
0.0000

> <Gold.Chemscore.Lipo>
102.4986

> <Gold.Chemscore.Internal_Hbond>
0.0000

> <Gold.Chemscore.DEClash>
0.2716

> <Gold.Chemscore.DEInternal>
2.8704

> <Gold.Chemscore.Rot>
1.7158

> <Gold.Chemscore.Internal.Correction>
   9.000000E+99

> <Gold.Chemscore.Hbonds>
donor molecule, donor type, donor heavy atom, donor atom, acceptor molecule, acceptor atom, score
      L1  H    11    46       P1  8028  0.30
      P1  H  6896  6909       L1    15  0.68
      P1  H  7989  7998       L1     1  0.82

> <Gold.Chemscore.Hbond.Weighted>
-9.2699

> <Gold.Chemscore.Metal.Weighted>
-0.0000

> <Gold.Chemscore.Lipo.Weighted>
-11.9923

> <Gold.Chemscore.Internal_Hbond.Weighted>
0.0000

> <Gold.Chemscore.DEClash.Weighted>
0.2716

> <Gold.Chemscore.DEInternal.Weighted>
2.8704

> <Gold.Chemscore.Rot.Weighted>
4.3924

> <Gold.Chemscore.Internal.Correction.Weighted>
   9.000000E+99

> <Gold.Protein.RotatedTorsions>
[ 6907 6896 6895 6894 ] final   48.73 input  -60.11 | X-H torsion
[ 7974 7965 7964 7962 ] final  -45.14 input  175.53 | X-H torsion
[ 8008 7997 7996 7995 ] final -146.85 input   59.86 | X-H torsion
[ 10167 10162 10161 10158 ] final   87.10 input  -65.29 | X-H torsion
[ 10718 10713 10712 10709 ] final   29.67 input   66.30 | X-H torsion
[ 10763 10752 10751 10750 ] final  165.97 input  -60.55 | X-H torsion
[ 11005 11000 10999 10996 ] final   20.74 input  -57.11 | X-H torsion

> <Gold.Protein.ActiveResidues>
 VAL166  LYS551  ARG553  GLY616  TRP617  ASP618  TYR619  PRO620  LYS621  CYS622 
 ASP623  PHE694  ASN695  SER759  ASP760  ASP761  ALA762  ILE779  LEU786  VAL792 
 PHE793  MET794  SER795  GLU796  ALA797  LYS798  CYS799  TRP800  GLU811  SER814 

> <Gold.Protein.RotatedAtoms>
  152.2828  134.7810  160.0393 H   0  0  0  0  0  0  0  0  0  0  0  0  # atno 6907 bound_to 6896
  151.8383  133.3414  159.3643 H   0  0  0  0  0  0  0  0  0  0  0  0  # atno 6908 bound_to 6896
  150.7196  134.5344  159.5760 H   0  0  0  0  0  0  0  0  0  0  0  0  # atno 6909 bound_to 6896
  145.9851  140.7242  142.9344 H   0  0  0  0  0  0  0  0  0  0  0  0  # atno 7974 bound_to 7965
  155.5661  140.0630  157.2817 H   0  0  0  0  0  0  0  0  0  0  0  0  # atno 8008 bound_to 7997
  154.4375  140.1877  156.0877 H   0  0  0  0  0  0  0  0  0  0  0  0  # atno 8009 bound_to 7997
  156.0411  140.3295  155.7248 H   0  0  0  0  0  0  0  0  0  0  0  0  # atno 8010 bound_to 7997
  139.8808  144.6441  150.8845 H   0  0  0  0  0  0  0  0  0  0  0  0  # atno 10167 bound_to 10162
  157.2496  130.7108  149.6398 H   0  0  0  0  0  0  0  0  0  0  0  0  # atno 10718 bound_to 10713
  154.3320  135.2754  155.2467 H   0  0  0  0  0  0  0  0  0  0  0  0  # atno 10763 bound_to 10752
  154.4775  135.5867  153.6369 H   0  0  0  0  0  0  0  0  0  0  0  0  # atno 10764 bound_to 10752
  152.9865  135.6103  154.3513 H   0  0  0  0  0  0  0  0  0  0  0  0  # atno 10765 bound_to 10752
  140.3993  134.1736  155.7663 H   0  0  0  0  0  0  0  0  0  0  0  0  # atno 11005 bound_to 11000
  144.6872  140.2974  143.7268 LP  0  0  0  0  0  0  0  0  0  0  0  0  # atno 17320 bound_to 7965
  145.7713  139.1858  143.2211 LP  0  0  0  0  0  0  0  0  0  0  0  0  # atno 17321 bound_to 7965
  140.7745  143.3587  151.1870 LP  0  0  0  0  0  0  0  0  0  0  0  0  # atno 17342 bound_to 10162
  139.7197  143.9242  152.2981 LP  0  0  0  0  0  0  0  0  0  0  0  0  # atno 17343 bound_to 10162
  155.9667  130.4432  150.5411 LP  0  0  0  0  0  0  0  0  0  0  0  0  # atno 17370 bound_to 10713
  157.3292  131.0696  151.1874 LP  0  0  0  0  0  0  0  0  0  0  0  0  # atno 17371 bound_to 10713
  141.1863  133.8306  157.1075 LP  0  0  0  0  0  0  0  0  0  0  0  0  # atno 17394 bound_to 11000
  140.0348  134.9883  157.0850 LP  0  0  0  0  0  0  0  0  0  0  0  0  # atno 17395 bound_to 11000

$$$$
