AV-unprocessed.smi:2134|AV-procd|sdf|8696|dock4
  -GOLD-   2272011453D 1   1.00000     0.00000
 Structure written by MMmdl.
 34 35  0  0  0  0  0  0  0  0  2 V2000
  146.4272  141.7425  157.8219 C   0  0  0  0  0  0  0  0  0  0  0  0
  146.8410  141.5951  156.4270 N   0  0  0  0  0  0  0  0  0  0  0  0
  148.1605  141.2229  156.2821 N   0  0  0  0  0  0  0  0  0  0  0  0
  148.6484  140.8102  155.1538 C   0  0  0  0  0  0  0  0  0  0  0  0
  150.0778  140.3858  155.0814 C   0  0  0  0  0  0  0  0  0  0  0  0
  150.3894  139.7443  154.0708 O   0  0  0  0  0  0  0  0  0  0  0  0
  150.9078  140.7197  156.1136 N   0  5  0  0  0  0  0  0  0  0  0  0
  150.9491  142.0199  156.7821 C   0  0  0  0  0  0  0  0  0  0  0  0
  151.7294  141.9026  158.1103 C   0  0  0  0  0  0  0  0  0  0  0  0
  151.6573  143.1403  159.0004 C   0  0  0  0  0  0  0  0  0  0  0  0
  152.2019  143.1354  160.3028 C   0  0  0  0  0  0  0  0  0  0  0  0
  152.1101  144.3036  161.0837 C   0  0  0  0  0  0  0  0  0  0  0  0
  151.4794  145.4341  160.5274 C   0  0  0  0  0  0  0  0  0  0  0  0
  150.9613  145.4571  159.2810 N   0  0  0  0  0  0  0  0  0  0  0  0
  151.0514  144.3317  158.5397 C   0  0  0  0  0  0  0  0  0  0  0  0
  147.7612  140.7159  153.9265 C   0  0  0  0  0  0  0  0  0  0  0  0
  146.5836  141.7084  153.9859 C   0  0  0  0  0  0  0  0  0  0  0  0
  145.9913  141.8246  155.3933 C   0  0  0  0  0  0  0  0  0  0  0  0
  144.8076  142.1349  155.5272 O   0  0  0  0  0  0  0  0  0  0  0  0
  145.3994  142.0862  157.9433 H   0  0  0  0  0  0  0  0  0  0  0  0
  147.0723  142.4595  158.3312 H   0  0  0  0  0  0  0  0  0  0  0  0
  146.5171  140.7866  158.3393 H   0  0  0  0  0  0  0  0  0  0  0  0
  151.4191  142.7873  156.1652 H   0  0  0  0  0  0  0  0  0  0  0  0
  149.9442  142.3846  156.9968 H   0  0  0  0  0  0  0  0  0  0  0  0
  151.3452  141.0520  158.6742 H   0  0  0  0  0  0  0  0  0  0  0  0
  152.7765  141.6743  157.9060 H   0  0  0  0  0  0  0  0  0  0  0  0
  152.6783  142.2505  160.6987 H   0  0  0  0  0  0  0  0  0  0  0  0
  152.5117  144.3317  162.0856 H   0  0  0  0  0  0  0  0  0  0  0  0
  151.3913  146.3461  161.0988 H   0  0  0  0  0  0  0  0  0  0  0  0
  150.6215  144.3817  157.5500 H   0  0  0  0  0  0  0  0  0  0  0  0
  148.3323  140.9203  153.0203 H   0  0  0  0  0  0  0  0  0  0  0  0
  147.3857  139.6965  153.8319 H   0  0  0  0  0  0  0  0  0  0  0  0
  146.9260  142.7011  153.6913 H   0  0  0  0  0  0  0  0  0  0  0  0
  145.8089  141.4191  153.2750 H   0  0  0  0  0  0  0  0  0  0  0  0
  1  2  1  0  0  0  0
  1 20  1  0  0  0  0
  1 21  1  0  0  0  0
  1 22  1  0  0  0  0
  2 18  1  0  0  0  0
  2  3  1  0  0  0  0
  3  4  2  0  0  0  0
  4  5  1  0  0  0  0
  4 16  1  0  0  0  0
  5  6  2  0  0  0  0
  5  7  1  0  0  0  0
  7  8  1  0  0  0  0
  8  9  1  0  0  0  0
  8 23  1  0  0  0  0
  8 24  1  0  0  0  0
  9 10  1  0  0  0  0
  9 25  1  0  0  0  0
  9 26  1  0  0  0  0
 10 15  1  0  0  0  0
 10 11  2  0  0  0  0
 11 12  1  0  0  0  0
 11 27  1  0  0  0  0
 12 13  2  0  0  0  0
 12 28  1  0  0  0  0
 13 14  1  0  0  0  0
 13 29  1  0  0  0  0
 14 15  2  0  0  0  0
 15 30  1  0  0  0  0
 16 17  1  0  0  0  0
 16 31  1  0  0  0  0
 16 32  1  0  0  0  0
 17 18  1  0  0  0  0
 17 33  1  0  0  0  0
 17 34  1  0  0  0  0
 18 19  2  0  0  0  0
M  CHG  1   7  -1
M  END
> <s_m_source_file>
AV-unprocessed.smi

> <i_m_source_file_index>
2134

> <i_lp_mmshare_version>
43012

> <i_f3d_flags>
0

> <s_epik_input>
Tz1DMVtDSDJdW0NIMl1DKD1OTjFbQ0gzXSlDKD1PKVtOSF1bQ0gyXVtDSDJdYzJbY0hdW2NIXVtjSF1uW2NIXTI=

> <s_epik_cmdline>
J2VwaWtfcHl0aG9uJywgJy1waCcsICc3LjAnLCAnLXRuJywgJzgnLCAnLW1hJywgJzIwMCcsICctbWV0YWxfYmluZGluZycsICctaW1hZScsICc8aW5maWxlLm1hZT4nLCAnLW9tYWUnLCAnPG91dGZpbGUubWFlPic=

> <r_epik_Ionization_Penalty>
5.39184

> <r_epik_Ionization_Penalty_Charging>
5.3715

> <r_epik_Ionization_Penalty_Neutral>
0.0203369

> <r_epik_State_Penalty>
5.3785

> <r_epik_Charging_Adjusted_Penalty>
10.75

> <i_epik_Tot_Q>
-1

> <i_epik_Tot_abs_Q>
1

> <r_epik_Metal_State_Penalty>
1.41656

> <b_epik_Metal_Only>
1

> <s_epik_Chemistry_Notes>
This compound has an imine and may undergo hydrolysis.

> <s_lp_Force_Field>
OPLS_2005

> <r_lp_Energy>
21.6515

> <b_lp_Chiralities_Consistent>
1

> <s_lp_Variant>
AV-unprocessed.smi:2134-3

> <Gold.Version>
5.8.1

> <Gold.Id.Protein>
6NUR|6NUR_protein|mol2

> <Gold.PLP.Fitness>
43.4238

> <Gold.PLP.PLP>
-40.0008

> <Gold.PLP.part.hbond>
-2.0000

> <Gold.PLP.part.metal>
0.0000

> <Gold.PLP.part.buried>
-6.3672

> <Gold.PLP.part.nonpolar>
-32.7155

> <Gold.PLP.part.repulsive>
1.1414

> <Gold.PLP.ligand.clash>
0.0000

> <Gold.PLP.ligand.torsion>
0.5888

> <Gold.PLP.Chemscore.Hbond>
0.7000

> <Gold.PLP.Chemscore.CHOScore>
0.8103

> <Gold.PLP.Chemscore.Metal>
0.0000

> <Gold.Chemscore.Hbonds>
donor molecule, donor type, donor heavy atom, donor atom, acceptor molecule, acceptor atom, score
      P1  H  7989  7998       L1     6  0.85
      L1  C    15    30       P1  8028  0.94

> <Gold.PLP.Chemscore.Internal.Correction>
0.0698

> <Gold.Rescore>
     Score         DG    S(hbond)    S(metal)    S(lipo)     H(rot)  DE(clash)    DE(int)     intcor
     11.40     -13.23       0.06        0.00      95.69       1.42       0.07       1.76       ----

> <Gold.Chemscore.Fitness>
11.4042

> <Gold.Chemscore.DG>
-13.2333

> <Gold.Chemscore.ZeroCoef>
-5.4800

> <Gold.Chemscore.Hbond>
0.0559

> <Gold.Chemscore.Metal>
0.0000

> <Gold.Chemscore.Lipo>
95.6928

> <Gold.Chemscore.Internal_Hbond>
0.0000

> <Gold.Chemscore.DEClash>
0.0666

> <Gold.Chemscore.DEInternal>
1.7625

> <Gold.Chemscore.Rot>
1.4178

> <Gold.Chemscore.Internal.Correction>
   9.000000E+99

> <Gold.Chemscore.Hbonds>
donor molecule, donor type, donor heavy atom, donor atom, acceptor molecule, acceptor atom, score
      P1  H  7989  7998       L1     6  0.14

> <Gold.Chemscore.Hbond.Weighted>
-0.1867

> <Gold.Chemscore.Metal.Weighted>
-0.0000

> <Gold.Chemscore.Lipo.Weighted>
-11.1961

> <Gold.Chemscore.Internal_Hbond.Weighted>
0.0000

> <Gold.Chemscore.DEClash.Weighted>
0.0666

> <Gold.Chemscore.DEInternal.Weighted>
1.7625

> <Gold.Chemscore.Rot.Weighted>
3.6295

> <Gold.Chemscore.Internal.Correction.Weighted>
   9.000000E+99

> <Gold.Protein.RotatedTorsions>
[ 6907 6896 6895 6894 ] final -133.97 input  -60.11 | X-H torsion
[ 7974 7965 7964 7962 ] final   50.89 input  175.53 | X-H torsion
[ 8008 7997 7996 7995 ] final   77.55 input   59.86 | X-H torsion
[ 10167 10162 10161 10158 ] final -128.97 input  -65.29 | X-H torsion
[ 10718 10713 10712 10709 ] final  -46.04 input   66.30 | X-H torsion
[ 10763 10752 10751 10750 ] final  -69.18 input  -60.55 | X-H torsion
[ 11005 11000 10999 10996 ] final  167.94 input  -57.11 | X-H torsion

> <Gold.Protein.ActiveResidues>
 VAL166  LYS551  ARG553  GLY616  TRP617  ASP618  TYR619  PRO620  LYS621  CYS622 
 ASP623  PHE694  ASN695  SER759  ASP760  ASP761  ALA762  ILE779  LEU786  VAL792 
 PHE793  MET794  SER795  GLU796  ALA797  LYS798  CYS799  TRP800  GLU811  SER814 

> <Gold.Protein.RotatedAtoms>
  150.9803  133.6252  159.2723 H   0  0  0  0  0  0  0  0  0  0  0  0  # atno 6907 bound_to 6896
  151.3509  135.0883  159.9412 H   0  0  0  0  0  0  0  0  0  0  0  0  # atno 6908 bound_to 6896
  152.5213  133.9396  159.7674 H   0  0  0  0  0  0  0  0  0  0  0  0  # atno 6909 bound_to 6896
  145.9968  139.4396  143.0040 H   0  0  0  0  0  0  0  0  0  0  0  0  # atno 7974 bound_to 7965
  155.8431  140.3461  155.5645 H   0  0  0  0  0  0  0  0  0  0  0  0  # atno 8008 bound_to 7997
  155.8119  140.0900  157.1919 H   0  0  0  0  0  0  0  0  0  0  0  0  # atno 8009 bound_to 7997
  154.4005  140.1446  156.3384 H   0  0  0  0  0  0  0  0  0  0  0  0  # atno 8010 bound_to 7997
  139.9447  143.6124  152.2493 H   0  0  0  0  0  0  0  0  0  0  0  0  # atno 10167 bound_to 10162
  156.2223  130.4167  149.8977 H   0  0  0  0  0  0  0  0  0  0  0  0  # atno 10718 bound_to 10713
  154.3997  135.6034  153.5890 H   0  0  0  0  0  0  0  0  0  0  0  0  # atno 10763 bound_to 10752
  152.9788  135.5903  154.4199 H   0  0  0  0  0  0  0  0  0  0  0  0  # atno 10764 bound_to 10752
  154.3996  135.2843  155.2083 H   0  0  0  0  0  0  0  0  0  0  0  0  # atno 10765 bound_to 10752
  140.2821  134.7742  157.3767 H   0  0  0  0  0  0  0  0  0  0  0  0  # atno 11005 bound_to 11000
  145.7548  140.9958  143.1231 LP  0  0  0  0  0  0  0  0  0  0  0  0  # atno 17320 bound_to 7965
  144.6906  139.9258  143.7470 LP  0  0  0  0  0  0  0  0  0  0  0  0  # atno 17321 bound_to 7965
  139.6677  144.7662  151.1843 LP  0  0  0  0  0  0  0  0  0  0  0  0  # atno 17342 bound_to 10162
  140.7601  143.5913  150.8793 LP  0  0  0  0  0  0  0  0  0  0  0  0  # atno 17343 bound_to 10162
  156.6619  130.8785  151.3549 LP  0  0  0  0  0  0  0  0  0  0  0  0  # atno 17370 bound_to 10713
  157.7093  130.9422  150.1036 LP  0  0  0  0  0  0  0  0  0  0  0  0  # atno 17371 bound_to 10713
  140.1274  134.5140  155.8133 LP  0  0  0  0  0  0  0  0  0  0  0  0  # atno 17394 bound_to 11000
  141.2161  133.6777  156.6976 LP  0  0  0  0  0  0  0  0  0  0  0  0  # atno 17395 bound_to 11000

$$$$
