AV-unprocessed.smi:1844|AV-procd|sdf|7509|dock8
  -GOLD-   22720 9213D 1   1.00000     0.00000
 Structure written by MMmdl.
 45 46  0  0  0  0  0  0  0  0  1 V2000
  146.1749  133.1049  150.4905 C   0  0  0  0  0  0  0  0  0  0  0  0
  147.1131  132.9987  151.5976 N   0  0  0  0  0  0  0  0  0  0  0  0
  147.0395  133.7185  152.7293 C   0  0  0  0  0  0  0  0  0  0  0  0
  146.1444  134.5449  152.9132 O   0  0  0  0  0  0  0  0  0  0  0  0
  148.1070  133.4246  153.6886 C   0  0  0  0  0  0  0  0  0  0  0  0
  148.8564  132.1771  153.6894 C   0  0  0  0  0  0  0  0  0  0  0  0
  149.8472  131.9732  154.5795 C   0  0  0  0  0  0  0  0  0  0  0  0
  150.2118  132.9854  155.5747 C   0  0  0  0  0  0  0  0  0  0  0  0
  151.1350  132.8156  156.3709 O   0  0  0  0  0  0  0  0  0  0  0  0
  149.4699  134.1342  155.5524 N   0  0  0  0  0  0  0  0  0  0  0  0
  149.7640  135.2439  156.4790 C   0  0  0  0  0  0  0  0  0  0  0  0
  150.7210  136.3061  155.9097 C   0  0  0  0  0  0  0  0  0  0  0  0
  151.8690  135.9843  155.6066 O   0  0  0  0  0  0  0  0  0  0  0  0
  150.2490  137.5550  155.7641 N   0  0  0  0  0  0  0  0  0  0  0  0
  150.9723  138.7071  155.2339 C   0  0  1  0  0  0  0  0  0  0  0  0
  150.1825  139.3609  154.0796 C   0  0  0  0  0  0  0  0  0  0  0  0
  148.8876  140.0306  154.5725 C   0  0  0  0  0  0  0  0  0  0  0  0
  149.1793  141.0480  155.6857 C   0  0  0  0  0  0  0  0  0  0  0  0
  149.9535  140.4036  156.8469 C   0  0  0  0  0  0  0  0  0  0  0  0
  151.2558  139.7319  156.3606 C   0  0  1  0  0  0  0  0  0  0  0  0
  152.0451  139.1245  157.5339 C   0  0  0  0  0  0  0  0  0  0  0  0
  148.4381  134.3436  154.6165 C   0  0  0  0  0  0  0  0  0  0  0  0
  146.4539  132.4085  149.6997 H   0  0  0  0  0  0  0  0  0  0  0  0
  146.1780  134.1131  150.0740 H   0  0  0  0  0  0  0  0  0  0  0  0
  145.1619  132.8646  150.8150 H   0  0  0  0  0  0  0  0  0  0  0  0
  147.8684  132.3361  151.4995 H   0  0  0  0  0  0  0  0  0  0  0  0
  148.6377  131.3896  152.9833 H   0  0  0  0  0  0  0  0  0  0  0  0
  150.3892  131.0391  154.5606 H   0  0  0  0  0  0  0  0  0  0  0  0
  148.8377  135.7433  156.7671 H   0  0  0  0  0  0  0  0  0  0  0  0
  150.1810  134.8651  157.4135 H   0  0  0  0  0  0  0  0  0  0  0  0
  149.2933  137.7229  156.0436 H   0  0  0  0  0  0  0  0  0  0  0  0
  151.9304  138.3591  154.8434 H   0  0  0  0  0  0  0  0  0  0  0  0
  150.8103  140.1111  153.5971 H   0  0  0  0  0  0  0  0  0  0  0  0
  149.9507  138.6237  153.3101 H   0  0  0  0  0  0  0  0  0  0  0  0
  148.3866  140.5255  153.7400 H   0  0  0  0  0  0  0  0  0  0  0  0
  148.1947  139.2723  154.9401 H   0  0  0  0  0  0  0  0  0  0  0  0
  149.7581  141.8777  155.2780 H   0  0  0  0  0  0  0  0  0  0  0  0
  148.2452  141.4743  156.0528 H   0  0  0  0  0  0  0  0  0  0  0  0
  150.1845  141.1640  157.5936 H   0  0  0  0  0  0  0  0  0  0  0  0
  149.3178  139.6703  157.3454 H   0  0  0  0  0  0  0  0  0  0  0  0
  151.8834  140.5143  155.9313 H   0  0  0  0  0  0  0  0  0  0  0  0
  151.4670  138.3657  158.0627 H   0  0  0  0  0  0  0  0  0  0  0  0
  152.3177  139.8918  158.2587 H   0  0  0  0  0  0  0  0  0  0  0  0
  152.9675  138.6589  157.1859 H   0  0  0  0  0  0  0  0  0  0  0  0
  147.9543  135.3072  154.6985 H   0  0  0  0  0  0  0  0  0  0  0  0
  1  2  1  0  0  0  0
  1 23  1  0  0  0  0
  1 24  1  0  0  0  0
  1 25  1  0  0  0  0
  2  3  1  0  0  0  0
  2 26  1  0  0  0  0
  3  4  2  0  0  0  0
  3  5  1  0  0  0  0
  5 22  2  0  0  0  0
  5  6  1  0  0  0  0
  6  7  2  0  0  0  0
  6 27  1  0  0  0  0
  7  8  1  0  0  0  0
  7 28  1  0  0  0  0
  8  9  2  0  0  0  0
  8 10  1  0  0  0  0
 10 11  1  0  0  0  0
 10 22  1  0  0  0  0
 11 12  1  0  0  0  0
 11 29  1  0  0  0  0
 11 30  1  0  0  0  0
 12 13  2  0  0  0  0
 12 14  1  0  0  0  0
 14 15  1  0  0  0  0
 14 31  1  0  0  0  0
 15 20  1  0  0  0  0
 15 16  1  0  0  0  0
 15 32  1  0  0  0  0
 16 17  1  0  0  0  0
 16 33  1  0  0  0  0
 16 34  1  0  0  0  0
 17 18  1  0  0  0  0
 17 35  1  0  0  0  0
 17 36  1  0  0  0  0
 18 19  1  0  0  0  0
 18 37  1  0  0  0  0
 18 38  1  0  0  0  0
 19 20  1  0  0  0  0
 19 39  1  0  0  0  0
 19 40  1  0  0  0  0
 20 21  1  0  0  0  0
 20 41  1  0  0  0  0
 21 42  1  0  0  0  0
 21 43  1  0  0  0  0
 21 44  1  0  0  0  0
 22 45  1  0  0  0  0
M  END
> <s_m_source_file>
AV-unprocessed.smi

> <i_m_source_file_index>
1844

> <i_lp_mmshare_version>
43012

> <i_f3d_flags>
0

> <s_epik_input>
W0NIM11bTkhdQyg9TyljMVtjSF1bY0hdYyg9TyluKFtjSF0xKVtDSDJdQyg9TylbTkhdW0NAQEhdMltDSDJdW0NIMl1bQ0gyXVtDSDJdW0NASF0yW0NIM10=

> <s_epik_cmdline>
J2VwaWtfcHl0aG9uJywgJy1waCcsICc3LjAnLCAnLXRuJywgJzgnLCAnLW1hJywgJzIwMCcsICctbWV0YWxfYmluZGluZycsICctaW1hZScsICc8aW5maWxlLm1hZT4nLCAnLW9tYWUnLCAnPG91dGZpbGUubWFlPic=

> <r_lp_tautomer_probability>
1

> <r_epik_Ionization_Penalty>
3.66612e-07

> <r_epik_Ionization_Penalty_Charging>
5.18929e-08

> <r_epik_Ionization_Penalty_Neutral>
3.14719e-07

> <r_epik_State_Penalty>
-0

> <r_epik_Charging_Adjusted_Penalty>
5.18929e-08

> <i_epik_Tot_Q>
0

> <i_epik_Tot_abs_Q>
0

> <r_epik_Metal_State_Penalty>
-0

> <b_epik_Metal_Only>
0

> <s_lp_Force_Field>
OPLS_2005

> <r_lp_Energy>
21.2081

> <b_lp_Chiralities_Consistent>
1

> <s_lp_Variant>
AV-unprocessed.smi:1844-2

> <Gold.Version>
5.8.1

> <Gold.Id.Protein>
6NUR|6NUR_protein|mol2

> <Gold.PLP.Fitness>
36.4934

> <Gold.PLP.PLP>
-32.2224

> <Gold.PLP.part.hbond>
-1.8522

> <Gold.PLP.part.metal>
0.0000

> <Gold.PLP.part.buried>
-2.0563

> <Gold.PLP.part.nonpolar>
-29.1656

> <Gold.PLP.part.repulsive>
0.2021

> <Gold.PLP.ligand.clash>
0.0000

> <Gold.PLP.ligand.torsion>
0.6423

> <Gold.PLP.Chemscore.Hbond>
1.8480

> <Gold.PLP.Chemscore.CHOScore>
0.0000

> <Gold.PLP.Chemscore.Metal>
0.0000

> <Gold.Chemscore.Hbonds>
donor molecule, donor type, donor heavy atom, donor atom, acceptor molecule, acceptor atom, score
      L1  H     2    26       P1 10747  0.55
      P1  H 10752 10764       L1    13  0.89

> <Gold.PLP.Chemscore.Internal.Correction>
0.0115

> <Gold.Rescore>
     Score         DG    S(hbond)    S(metal)    S(lipo)     H(rot)  DE(clash)    DE(int)     intcor
     15.60     -16.31       1.86        0.00      72.23       1.49       0.03       0.68       ----

> <Gold.Chemscore.Fitness>
15.6034

> <Gold.Chemscore.DG>
-16.3126

> <Gold.Chemscore.ZeroCoef>
-5.4800

> <Gold.Chemscore.Hbond>
1.8571

> <Gold.Chemscore.Metal>
0.0000

> <Gold.Chemscore.Lipo>
72.2255

> <Gold.Chemscore.Internal_Hbond>
0.0000

> <Gold.Chemscore.DEClash>
0.0265

> <Gold.Chemscore.DEInternal>
0.6827

> <Gold.Chemscore.Rot>
1.4923

> <Gold.Chemscore.Internal.Correction>
   9.000000E+99

> <Gold.Chemscore.Hbonds>
donor molecule, donor type, donor heavy atom, donor atom, acceptor molecule, acceptor atom, score
      L1  H     2    26       P1 10747  0.51
      P1  H 10752 10764       L1    13  0.85

> <Gold.Chemscore.Hbond.Weighted>
-6.2026

> <Gold.Chemscore.Metal.Weighted>
-0.0000

> <Gold.Chemscore.Lipo.Weighted>
-8.4504

> <Gold.Chemscore.Internal_Hbond.Weighted>
0.0000

> <Gold.Chemscore.DEClash.Weighted>
0.0265

> <Gold.Chemscore.DEInternal.Weighted>
0.6827

> <Gold.Chemscore.Rot.Weighted>
3.8204

> <Gold.Chemscore.Internal.Correction.Weighted>
   9.000000E+99

> <Gold.Protein.RotatedTorsions>
[ 6907 6896 6895 6894 ] final  132.07 input  -60.11 | X-H torsion
[ 7974 7965 7964 7962 ] final  -35.09 input  175.53 | X-H torsion
[ 8008 7997 7996 7995 ] final  -57.60 input   59.86 | X-H torsion
[ 10167 10162 10161 10158 ] final -119.57 input  -65.29 | X-H torsion
[ 10718 10713 10712 10709 ] final  165.06 input   66.30 | X-H torsion
[ 10763 10752 10751 10750 ] final  -55.67 input  -60.55 | X-H torsion
[ 11005 11000 10999 10996 ] final  -91.67 input  -57.11 | X-H torsion

> <Gold.Protein.ActiveResidues>
 VAL166  LYS551  ARG553  GLY616  TRP617  ASP618  TYR619  PRO620  LYS621  CYS622 
 ASP623  PHE694  ASN695  SER759  ASP760  ASP761  ALA762  ILE779  LEU786  VAL792 
 PHE793  MET794  SER795  GLU796  ALA797  LYS798  CYS799  TRP800  GLU811  SER814 

> <Gold.Protein.RotatedAtoms>
  152.3361  133.6013  159.5843 H   0  0  0  0  0  0  0  0  0  0  0  0  # atno 6907 bound_to 6896
  150.7451  133.9793  159.3580 H   0  0  0  0  0  0  0  0  0  0  0  0  # atno 6908 bound_to 6896
  151.7663  135.0798  160.0404 H   0  0  0  0  0  0  0  0  0  0  0  0  # atno 6909 bound_to 6896
  146.0776  140.6117  142.8923 H   0  0  0  0  0  0  0  0  0  0  0  0  # atno 7974 bound_to 7965
  154.4275  140.1103  156.5824 H   0  0  0  0  0  0  0  0  0  0  0  0  # atno 8008 bound_to 7997
  155.6098  140.3494  155.4600 H   0  0  0  0  0  0  0  0  0  0  0  0  # atno 8009 bound_to 7997
  156.0108  140.1218  157.0445 H   0  0  0  0  0  0  0  0  0  0  0  0  # atno 8010 bound_to 7997
  140.0452  143.5114  152.2110 H   0  0  0  0  0  0  0  0  0  0  0  0  # atno 10167 bound_to 10162
  157.0855  131.0403  151.2558 H   0  0  0  0  0  0  0  0  0  0  0  0  # atno 10718 bound_to 10713
  154.1945  135.6421  153.5069 H   0  0  0  0  0  0  0  0  0  0  0  0  # atno 10763 bound_to 10752
  153.0027  135.5436  154.6380 H   0  0  0  0  0  0  0  0  0  0  0  0  # atno 10764 bound_to 10752
  154.5777  135.2922  155.0737 H   0  0  0  0  0  0  0  0  0  0  0  0  # atno 10765 bound_to 10752
  141.1539  133.7771  156.9912 H   0  0  0  0  0  0  0  0  0  0  0  0  # atno 11005 bound_to 11000
  144.7271  140.4560  143.6965 LP  0  0  0  0  0  0  0  0  0  0  0  0  # atno 17320 bound_to 7965
  145.6278  139.1532  143.2986 LP  0  0  0  0  0  0  0  0  0  0  0  0  # atno 17321 bound_to 7965
  139.5988  144.7576  151.3221 LP  0  0  0  0  0  0  0  0  0  0  0  0  # atno 17342 bound_to 10162
  140.7242  143.7050  150.7814 LP  0  0  0  0  0  0  0  0  0  0  0  0  # atno 17343 bound_to 10162
  157.4765  130.7739  149.7372 LP  0  0  0  0  0  0  0  0  0  0  0  0  # atno 17370 bound_to 10713
  155.9912  130.3939  150.2995 LP  0  0  0  0  0  0  0  0  0  0  0  0  # atno 17371 bound_to 10713
  140.1002  134.9540  157.1911 LP  0  0  0  0  0  0  0  0  0  0  0  0  # atno 17394 bound_to 11000
  140.3329  134.2790  155.7225 LP  0  0  0  0  0  0  0  0  0  0  0  0  # atno 17395 bound_to 11000

$$$$
