AV-unprocessed.smi:1271|AV-procd|sdf|5333|dock6
  -GOLD-   22720 4463D 1   1.00000     0.00000
 Structure written by MMmdl.
 35 36  0  0  0  0  0  0  0  0  1 V2000
  147.7137  141.5771  156.8471 C   0  0  0  0  0  0  0  0  0  0  0  0
  149.1160  141.3839  156.2490 C   0  0  1  0  0  0  0  0  0  0  0  0
  149.1146  141.6007  154.7234 C   0  0  0  0  0  0  0  0  0  0  0  0
  148.3237  140.6014  154.0259 N   0  0  0  0  0  0  0  0  0  0  0  0
  147.1784  140.7846  153.2802 C   0  0  0  0  0  0  0  0  0  0  0  0
  146.7825  139.5561  152.8354 C   0  0  0  0  0  0  0  0  0  0  0  0
  147.7621  138.6717  153.3675 C   0  0  0  0  0  0  0  0  0  0  0  0
  148.6847  139.3003  154.0779 N   0  0  0  0  0  0  0  0  0  0  0  0
  150.0605  142.3032  156.8783 N   0  0  0  0  0  0  0  0  0  0  0  0
  151.0472  141.9668  157.7255 C   0  0  0  0  0  0  0  0  0  0  0  0
  151.2177  140.8079  158.1067 O   0  0  0  0  0  0  0  0  0  0  0  0
  151.8328  143.0024  158.1161 N   0  0  0  0  0  0  0  0  0  0  0  0
  151.5745  144.4295  157.8614 C   0  0  0  0  0  0  0  0  0  0  0  0
  150.9243  145.0507  159.1083 C   0  0  0  0  0  0  0  0  0  0  0  0
  152.0480  144.9648  160.5379 S   0  0  0  0  0  0  0  0  0  0  0  0
  152.5142  143.2064  160.4593 C   0  0  0  0  0  0  0  0  0  0  0  0
  152.9577  142.8132  159.0396 C   0  0  0  0  0  0  0  0  0  0  0  0
  146.9963  140.8947  156.3907 H   0  0  0  0  0  0  0  0  0  0  0  0
  147.3517  142.5937  156.6911 H   0  0  0  0  0  0  0  0  0  0  0  0
  147.7111  141.3834  157.9202 H   0  0  0  0  0  0  0  0  0  0  0  0
  149.4324  140.3573  156.4440 H   0  0  0  0  0  0  0  0  0  0  0  0
  148.7006  142.5811  154.4847 H   0  0  0  0  0  0  0  0  0  0  0  0
  150.1329  141.5895  154.3303 H   0  0  0  0  0  0  0  0  0  0  0  0
  146.7436  141.7625  153.1339 H   0  0  0  0  0  0  0  0  0  0  0  0
  145.9226  139.3237  152.2247 H   0  0  0  0  0  0  0  0  0  0  0  0
  147.8292  137.5992  153.2602 H   0  0  0  0  0  0  0  0  0  0  0  0
  149.9879  143.2743  156.6108 H   0  0  0  0  0  0  0  0  0  0  0  0
  152.5113  144.9417  157.6370 H   0  0  0  0  0  0  0  0  0  0  0  0
  150.9479  144.6029  156.9862 H   0  0  0  0  0  0  0  0  0  0  0  0
  150.6705  146.0950  158.9255 H   0  0  0  0  0  0  0  0  0  0  0  0
  149.9955  144.5331  159.3514 H   0  0  0  0  0  0  0  0  0  0  0  0
  153.3180  143.0253  161.1730 H   0  0  0  0  0  0  0  0  0  0  0  0
  151.6650  142.5987  160.7741 H   0  0  0  0  0  0  0  0  0  0  0  0
  153.3220  141.7848  159.0359 H   0  0  0  0  0  0  0  0  0  0  0  0
  153.8079  143.4213  158.7276 H   0  0  0  0  0  0  0  0  0  0  0  0
  1  2  1  0  0  0  0
  1 18  1  0  0  0  0
  1 19  1  0  0  0  0
  1 20  1  0  0  0  0
  2  3  1  0  0  0  0
  2  9  1  0  0  0  0
  2 21  1  0  0  0  0
  3  4  1  0  0  0  0
  3 22  1  0  0  0  0
  3 23  1  0  0  0  0
  4  8  1  0  0  0  0
  4  5  1  0  0  0  0
  5  6  2  0  0  0  0
  5 24  1  0  0  0  0
  6  7  1  0  0  0  0
  6 25  1  0  0  0  0
  7  8  2  0  0  0  0
  7 26  1  0  0  0  0
  9 10  1  0  0  0  0
  9 27  1  0  0  0  0
 10 11  2  0  0  0  0
 10 12  1  0  0  0  0
 12 17  1  0  0  0  0
 12 13  1  0  0  0  0
 13 14  1  0  0  0  0
 13 28  1  0  0  0  0
 13 29  1  0  0  0  0
 14 15  1  0  0  0  0
 14 30  1  0  0  0  0
 14 31  1  0  0  0  0
 15 16  1  0  0  0  0
 16 17  1  0  0  0  0
 16 32  1  0  0  0  0
 16 33  1  0  0  0  0
 17 34  1  0  0  0  0
 17 35  1  0  0  0  0
M  END
> <s_m_source_file>
AV-unprocessed.smi

> <i_m_source_file_index>
1271

> <i_lp_mmshare_version>
43012

> <i_f3d_flags>
0

> <s_epik_input>
bjFbY0hdW2NIXVtjSF1uMVtDSDJdW0NAQEhdKFtDSDNdKVtOSF1DKD1PKU4yW0NIMl1bQ0gyXVNbQ0gyXVtDSDJdMg==

> <s_epik_cmdline>
J2VwaWtfcHl0aG9uJywgJy1waCcsICc3LjAnLCAnLXRuJywgJzgnLCAnLW1hJywgJzIwMCcsICctbWV0YWxfYmluZGluZycsICctaW1hZScsICc8aW5maWxlLm1hZT4nLCAnLW9tYWUnLCAnPG91dGZpbGUubWFlPic=

> <r_lp_tautomer_probability>
1

> <r_epik_Ionization_Penalty>
5.86346e-05

> <r_epik_Ionization_Penalty_Charging>
0

> <r_epik_Ionization_Penalty_Neutral>
5.86346e-05

> <r_epik_State_Penalty>
-0

> <r_epik_Charging_Adjusted_Penalty>
0

> <i_epik_Tot_Q>
0

> <i_epik_Tot_abs_Q>
0

> <r_epik_Metal_State_Penalty>
-0

> <b_epik_Metal_Only>
0

> <s_lp_Force_Field>
OPLS_2005

> <r_lp_Energy>
23.1202

> <b_lp_Chiralities_Consistent>
1

> <s_lp_Variant>
AV-unprocessed.smi:1271-2

> <Gold.Version>
5.8.1

> <Gold.Id.Protein>
6NUR|6NUR_protein|mol2

> <Gold.PLP.Fitness>
43.7937

> <Gold.PLP.PLP>
-38.3117

> <Gold.PLP.part.hbond>
-1.0000

> <Gold.PLP.part.metal>
0.0000

> <Gold.PLP.part.buried>
-2.1227

> <Gold.PLP.part.nonpolar>
-35.8263

> <Gold.PLP.part.repulsive>
0.1888

> <Gold.PLP.ligand.clash>
0.0000

> <Gold.PLP.ligand.torsion>
0.1298

> <Gold.PLP.Chemscore.Hbond>
0.9280

> <Gold.PLP.Chemscore.CHOScore>
0.9749

> <Gold.PLP.Chemscore.Metal>
0.0000

> <Gold.Chemscore.Hbonds>
donor molecule, donor type, donor heavy atom, donor atom, acceptor molecule, acceptor atom, score
      L1  H     9    27       P1  8028  0.92
      L1  C     7    26       P1  7948  1.00

> <Gold.PLP.Chemscore.Internal.Correction>
0.0330

> <Gold.Rescore>
     Score         DG    S(hbond)    S(metal)    S(lipo)     H(rot)  DE(clash)    DE(int)     intcor
     16.16     -16.42       0.92        0.00      97.99       1.41       0.11       0.14       ----

> <Gold.Chemscore.Fitness>
16.1642

> <Gold.Chemscore.DG>
-16.4193

> <Gold.Chemscore.ZeroCoef>
-5.4800

> <Gold.Chemscore.Hbond>
0.9210

> <Gold.Chemscore.Metal>
0.0000

> <Gold.Chemscore.Lipo>
97.9914

> <Gold.Chemscore.Internal_Hbond>
0.0000

> <Gold.Chemscore.DEClash>
0.1141

> <Gold.Chemscore.DEInternal>
0.1411

> <Gold.Chemscore.Rot>
1.4069

> <Gold.Chemscore.Internal.Correction>
   9.000000E+99

> <Gold.Chemscore.Hbonds>
donor molecule, donor type, donor heavy atom, donor atom, acceptor molecule, acceptor atom, score
      L1  H     9    27       P1  8028  0.84

> <Gold.Chemscore.Hbond.Weighted>
-3.0761

> <Gold.Chemscore.Metal.Weighted>
-0.0000

> <Gold.Chemscore.Lipo.Weighted>
-11.4650

> <Gold.Chemscore.Internal_Hbond.Weighted>
0.0000

> <Gold.Chemscore.DEClash.Weighted>
0.1141

> <Gold.Chemscore.DEInternal.Weighted>
0.1411

> <Gold.Chemscore.Rot.Weighted>
3.6017

> <Gold.Chemscore.Internal.Correction.Weighted>
   9.000000E+99

> <Gold.Protein.RotatedTorsions>
[ 6907 6896 6895 6894 ] final  123.22 input  -60.11 | X-H torsion
[ 7974 7965 7964 7962 ] final   13.73 input  175.53 | X-H torsion
[ 8008 7997 7996 7995 ] final   93.66 input   59.86 | X-H torsion
[ 10167 10162 10161 10158 ] final  -11.36 input  -65.29 | X-H torsion
[ 10718 10713 10712 10709 ] final  132.61 input   66.30 | X-H torsion
[ 10763 10752 10751 10750 ] final  100.08 input  -60.55 | X-H torsion
[ 11005 11000 10999 10996 ] final    7.59 input  -57.11 | X-H torsion

> <Gold.Protein.ActiveResidues>
 VAL166  LYS551  ARG553  GLY616  TRP617  ASP618  TYR619  PRO620  LYS621  CYS622 
 ASP623  PHE694  ASN695  SER759  ASP760  ASP761  ALA762  ILE779  LEU786  VAL792 
 PHE793  MET794  SER795  GLU796  ALA797  LYS798  CYS799  TRP800  GLU811  SER814 

> <Gold.Protein.RotatedAtoms>
  152.4179  133.7068  159.6455 H   0  0  0  0  0  0  0  0  0  0  0  0  # atno 6907 bound_to 6896
  150.8056  133.8506  159.3213 H   0  0  0  0  0  0  0  0  0  0  0  0  # atno 6908 bound_to 6896
  151.6231  135.1032  160.0157 H   0  0  0  0  0  0  0  0  0  0  0  0  # atno 6909 bound_to 6896
  146.2322  139.9146  142.8519 H   0  0  0  0  0  0  0  0  0  0  0  0  # atno 7974 bound_to 7965
  156.0492  140.3310  155.7331 H   0  0  0  0  0  0  0  0  0  0  0  0  # atno 8008 bound_to 7997
  155.5627  140.0620  157.2842 H   0  0  0  0  0  0  0  0  0  0  0  0  # atno 8009 bound_to 7997
  154.4428  140.1874  156.0787 H   0  0  0  0  0  0  0  0  0  0  0  0  # atno 8010 bound_to 7997
  140.7136  143.5647  150.9157 H   0  0  0  0  0  0  0  0  0  0  0  0  # atno 10167 bound_to 10162
  157.4854  131.1088  150.9627 H   0  0  0  0  0  0  0  0  0  0  0  0  # atno 10718 bound_to 10713
  153.3094  135.4091  155.1323 H   0  0  0  0  0  0  0  0  0  0  0  0  # atno 10763 bound_to 10752
  154.8572  135.3561  154.5744 H   0  0  0  0  0  0  0  0  0  0  0  0  # atno 10764 bound_to 10752
  153.6172  135.7066  153.5383 H   0  0  0  0  0  0  0  0  0  0  0  0  # atno 10765 bound_to 10752
  140.5465  134.0324  155.7922 H   0  0  0  0  0  0  0  0  0  0  0  0  # atno 11005 bound_to 11000
  145.2196  140.9930  143.4053 LP  0  0  0  0  0  0  0  0  0  0  0  0  # atno 17320 bound_to 7965
  144.9621  139.3969  143.6350 LP  0  0  0  0  0  0  0  0  0  0  0  0  # atno 17321 bound_to 7965
  139.9373  143.6423  152.3062 LP  0  0  0  0  0  0  0  0  0  0  0  0  # atno 17342 bound_to 10162
  139.6895  144.7648  151.1464 LP  0  0  0  0  0  0  0  0  0  0  0  0  # atno 17343 bound_to 10162
  157.0346  130.5725  149.5348 LP  0  0  0  0  0  0  0  0  0  0  0  0  # atno 17370 bound_to 10713
  156.0144  130.5237  150.8089 LP  0  0  0  0  0  0  0  0  0  0  0  0  # atno 17371 bound_to 10713
  141.1197  133.9482  157.2754 LP  0  0  0  0  0  0  0  0  0  0  0  0  # atno 17394 bound_to 11000
  139.9477  135.0181  156.8901 LP  0  0  0  0  0  0  0  0  0  0  0  0  # atno 17395 bound_to 11000

$$$$
