AV-unprocessed.smi:859|AV-procd|sdf|3963|dock3
  -GOLD-   22720 1433D 1   1.00000     0.00000
 Structure written by MMmdl.
 36 37  0  0  0  0  0  0  0  0  2 V2000
  149.5341  140.4677  157.9707 O   0  0  0  0  0  0  0  0  0  0  0  0
  149.7192  141.6286  157.6034 C   0  0  0  0  0  0  0  0  0  0  0  0
  148.8723  142.2891  156.7978 N   0  0  0  0  0  0  0  0  0  0  0  0
  147.6491  141.7368  156.2226 C   0  0  0  0  0  0  0  0  0  0  0  0
  147.7645  141.5345  154.6998 C   0  0  0  0  0  0  0  0  0  0  0  0
  148.5482  140.3477  154.3418 N   0  0  0  0  0  0  0  0  0  0  0  0
  149.8647  140.1023  154.6373 C   0  0  0  0  0  0  0  0  0  0  0  0
  150.1682  138.8841  154.0861 C   0  0  0  0  0  0  0  0  0  0  0  0
  149.0241  138.4356  153.4823 N   0  3  0  0  0  0  0  0  0  0  0  0
  148.0388  139.3245  153.6432 C   0  0  0  0  0  0  0  0  0  0  0  0
  150.9799  142.3853  158.0393 C   0  0  0  0  0  0  0  0  0  0  0  0
  151.8587  141.5043  158.9532 C   0  0  0  0  0  0  0  0  0  0  0  0
  153.1249  142.2531  159.3994 C   0  0  0  0  0  0  0  0  0  0  0  0
  152.7727  143.5776  160.0950 C   0  0  0  0  0  0  0  0  0  0  0  0
  151.8842  144.4580  159.2015 C   0  0  0  0  0  0  0  0  0  0  0  0
  150.6203  143.7045  158.7552 C   0  0  0  0  0  0  0  0  0  0  0  0
  149.1005  143.2421  156.5527 H   0  0  0  0  0  0  0  0  0  0  0  0
  147.3677  140.8052  156.7166 H   0  0  0  0  0  0  0  0  0  0  0  0
  146.8444  142.4425  156.4284 H   0  0  0  0  0  0  0  0  0  0  0  0
  146.7726  141.4100  154.2642 H   0  0  0  0  0  0  0  0  0  0  0  0
  148.2114  142.4088  154.2238 H   0  0  0  0  0  0  0  0  0  0  0  0
  150.4739  140.7987  155.1954 H   0  0  0  0  0  0  0  0  0  0  0  0
  151.0887  138.3184  154.0761 H   0  0  0  0  0  0  0  0  0  0  0  0
  147.0342  139.2381  153.2691 H   0  0  0  0  0  0  0  0  0  0  0  0
  151.5580  142.6313  157.1464 H   0  0  0  0  0  0  0  0  0  0  0  0
  151.2945  141.1977  159.8357 H   0  0  0  0  0  0  0  0  0  0  0  0
  152.1412  140.5873  158.4342 H   0  0  0  0  0  0  0  0  0  0  0  0
  153.7110  141.6253  160.0714 H   0  0  0  0  0  0  0  0  0  0  0  0
  153.7563  142.4517  158.5326 H   0  0  0  0  0  0  0  0  0  0  0  0
  152.2556  143.3711  161.0330 H   0  0  0  0  0  0  0  0  0  0  0  0
  153.6850  144.1143  160.3565 H   0  0  0  0  0  0  0  0  0  0  0  0
  151.6058  145.3673  159.7350 H   0  0  0  0  0  0  0  0  0  0  0  0
  152.4488  144.7759  158.3242 H   0  0  0  0  0  0  0  0  0  0  0  0
  150.0305  144.3426  158.0957 H   0  0  0  0  0  0  0  0  0  0  0  0
  149.9967  143.5028  159.6277 H   0  0  0  0  0  0  0  0  0  0  0  0
  148.9353  137.5600  152.9822 H   0  0  0  0  0  0  0  0  0  0  0  0
  1  2  2  0  0  0  0
  2  3  1  0  0  0  0
  2 11  1  0  0  0  0
  3  4  1  0  0  0  0
  3 17  1  0  0  0  0
  4  5  1  0  0  0  0
  4 18  1  0  0  0  0
  4 19  1  0  0  0  0
  5  6  1  0  0  0  0
  5 20  1  0  0  0  0
  5 21  1  0  0  0  0
  6 10  1  0  0  0  0
  6  7  1  0  0  0  0
  7  8  2  0  0  0  0
  7 22  1  0  0  0  0
  8  9  1  0  0  0  0
  8 23  1  0  0  0  0
  9 10  2  0  0  0  0
  9 36  1  0  0  0  0
 10 24  1  0  0  0  0
 11 16  1  0  0  0  0
 11 12  1  0  0  0  0
 11 25  1  0  0  0  0
 12 13  1  0  0  0  0
 12 26  1  0  0  0  0
 12 27  1  0  0  0  0
 13 14  1  0  0  0  0
 13 28  1  0  0  0  0
 13 29  1  0  0  0  0
 14 15  1  0  0  0  0
 14 30  1  0  0  0  0
 14 31  1  0  0  0  0
 15 16  1  0  0  0  0
 15 32  1  0  0  0  0
 15 33  1  0  0  0  0
 16 34  1  0  0  0  0
 16 35  1  0  0  0  0
M  CHG  1   9   1
M  END
> <s_m_source_file>
AV-unprocessed.smi

> <i_m_source_file_index>
859

> <i_lp_mmshare_version>
43012

> <i_f3d_flags>
0

> <s_epik_input>
W0NIMl0xW0NIMl1bQ0gyXVtDSDJdW0NIMl1bQ0hdMUMoPU8pW05IXVtDSDJdW0NIMl1uMltjSF1bY0hdbltjSF0y

> <s_epik_cmdline>
J2VwaWtfcHl0aG9uJywgJy1waCcsICc3LjAnLCAnLXRuJywgJzgnLCAnLW1hJywgJzIwMCcsICctbWV0YWxfYmluZGluZycsICctaW1hZScsICc8aW5maWxlLm1hZT4nLCAnLW9tYWUnLCAnPG91dGZpbGUubWFlPic=

> <r_lp_tautomer_probability>
1

> <r_epik_Ionization_Penalty>
0.267085

> <r_epik_Ionization_Penalty_Charging>
0

> <r_epik_Ionization_Penalty_Neutral>
0.267085

> <r_epik_State_Penalty>
0.259064

> <r_epik_Charging_Adjusted_Penalty>
0.259064

> <i_epik_Tot_Q>
1

> <i_epik_Tot_abs_Q>
1

> <r_epik_Metal_State_Penalty>
0.54496

> <b_epik_Metal_Only>
0

> <s_lp_Force_Field>
OPLS_2005

> <r_lp_Energy>
13.141

> <b_lp_Chiralities_Consistent>
1

> <s_lp_Variant>
AV-unprocessed.smi:859-1

> <Gold.Version>
5.8.1

> <Gold.Id.Protein>
6NUR|6NUR_protein|mol2

> <Gold.PLP.Fitness>
43.6452

> <Gold.PLP.PLP>
-34.8716

> <Gold.PLP.part.hbond>
-3.0000

> <Gold.PLP.part.metal>
0.0000

> <Gold.PLP.part.buried>
-1.8308

> <Gold.PLP.part.nonpolar>
-29.9855

> <Gold.PLP.part.repulsive>
0.0655

> <Gold.PLP.ligand.clash>
0.0000

> <Gold.PLP.ligand.torsion>
0.1263

> <Gold.PLP.Chemscore.Hbond>
3.0000

> <Gold.PLP.Chemscore.CHOScore>
0.0000

> <Gold.PLP.Chemscore.Metal>
0.0000

> <Gold.Chemscore.Hbonds>
donor molecule, donor type, donor heavy atom, donor atom, acceptor molecule, acceptor atom, score
      L1  H     3    17       P1  8028  1.00
      L1  H     9    36       P1  7948  2.00

> <Gold.PLP.Chemscore.Internal.Correction>
0.0262

> <Gold.Rescore>
     Score         DG    S(hbond)    S(metal)    S(lipo)     H(rot)  DE(clash)    DE(int)     intcor
     17.49     -17.63       1.97        0.00      88.24       1.86       0.01       0.13       ----

> <Gold.Chemscore.Fitness>
17.4872

> <Gold.Chemscore.DG>
-17.6282

> <Gold.Chemscore.ZeroCoef>
-5.4800

> <Gold.Chemscore.Hbond>
1.9691

> <Gold.Chemscore.Metal>
0.0000

> <Gold.Chemscore.Lipo>
88.2447

> <Gold.Chemscore.Internal_Hbond>
0.0000

> <Gold.Chemscore.DEClash>
0.0083

> <Gold.Chemscore.DEInternal>
0.1326

> <Gold.Chemscore.Rot>
1.8567

> <Gold.Chemscore.Internal.Correction>
   9.000000E+99

> <Gold.Chemscore.Hbonds>
donor molecule, donor type, donor heavy atom, donor atom, acceptor molecule, acceptor atom, score
      L1  H     3    17       P1  8028  0.96
      L1  H     9    36       P1  7948  1.00

> <Gold.Chemscore.Hbond.Weighted>
-6.5767

> <Gold.Chemscore.Metal.Weighted>
-0.0000

> <Gold.Chemscore.Lipo.Weighted>
-10.3246

> <Gold.Chemscore.Internal_Hbond.Weighted>
0.0000

> <Gold.Chemscore.DEClash.Weighted>
0.0083

> <Gold.Chemscore.DEInternal.Weighted>
0.1326

> <Gold.Chemscore.Rot.Weighted>
4.7531

> <Gold.Chemscore.Internal.Correction.Weighted>
   9.000000E+99

> <Gold.Protein.RotatedTorsions>
[ 6907 6896 6895 6894 ] final  121.22 input  -60.11 | X-H torsion
[ 7974 7965 7964 7962 ] final   37.43 input  175.53 | X-H torsion
[ 8008 7997 7996 7995 ] final  -82.68 input   59.86 | X-H torsion
[ 10167 10162 10161 10158 ] final  -82.96 input  -65.29 | X-H torsion
[ 10718 10713 10712 10709 ] final   42.26 input   66.30 | X-H torsion
[ 10763 10752 10751 10750 ] final -172.85 input  -60.55 | X-H torsion
[ 11005 11000 10999 10996 ] final   92.00 input  -57.11 | X-H torsion

> <Gold.Protein.ActiveResidues>
 VAL166  LYS551  ARG553  GLY616  TRP617  ASP618  TYR619  PRO620  LYS621  CYS622 
 ASP623  PHE694  ASN695  SER759  ASP760  ASP761  ALA762  ILE779  LEU786  VAL792 
 PHE793  MET794  SER795  GLU796  ALA797  LYS798  CYS799  TRP800  GLU811  SER814 

> <Gold.Protein.RotatedAtoms>
  152.4338  133.7325  159.6594 H   0  0  0  0  0  0  0  0  0  0  0  0  # atno 6907 bound_to 6896
  150.8220  133.8226  159.3141 H   0  0  0  0  0  0  0  0  0  0  0  0  # atno 6908 bound_to 6896
  151.5905  135.1056  160.0089 H   0  0  0  0  0  0  0  0  0  0  0  0  # atno 6909 bound_to 6896
  146.1138  139.5895  142.9335 H   0  0  0  0  0  0  0  0  0  0  0  0  # atno 7974 bound_to 7965
  154.6111  140.0629  156.9495 H   0  0  0  0  0  0  0  0  0  0  0  0  # atno 8008 bound_to 7997
  155.1971  140.3312  155.4331 H   0  0  0  0  0  0  0  0  0  0  0  0  # atno 8009 bound_to 7997
  156.2377  140.1871  156.7057 H   0  0  0  0  0  0  0  0  0  0  0  0  # atno 8010 bound_to 7997
  140.4271  143.2562  151.8810 H   0  0  0  0  0  0  0  0  0  0  0  0  # atno 10167 bound_to 10162
  157.4028  130.7870  149.7363 H   0  0  0  0  0  0  0  0  0  0  0  0  # atno 10718 bound_to 10713
  154.6146  135.2868  155.0394 H   0  0  0  0  0  0  0  0  0  0  0  0  # atno 10763 bound_to 10752
  154.1611  135.6488  153.4990 H   0  0  0  0  0  0  0  0  0  0  0  0  # atno 10764 bound_to 10752
  153.0209  135.5378  154.6913 H   0  0  0  0  0  0  0  0  0  0  0  0  # atno 10765 bound_to 10752
  139.8830  134.8707  156.3509 H   0  0  0  0  0  0  0  0  0  0  0  0  # atno 11005 bound_to 11000
  145.5609  141.0404  143.2226 LP  0  0  0  0  0  0  0  0  0  0  0  0  # atno 17320 bound_to 7965
  144.7534  139.7135  143.7264 LP  0  0  0  0  0  0  0  0  0  0  0  0  # atno 17321 bound_to 7965
  139.4784  144.5374  151.8578 LP  0  0  0  0  0  0  0  0  0  0  0  0  # atno 17342 bound_to 10162
  140.4468  144.1910  150.5894 LP  0  0  0  0  0  0  0  0  0  0  0  0  # atno 17343 bound_to 10162
  155.9828  130.4006  150.3397 LP  0  0  0  0  0  0  0  0  0  0  0  0  # atno 17370 bound_to 10713
  157.1527  131.0325  151.2878 LP  0  0  0  0  0  0  0  0  0  0  0  0  # atno 17371 bound_to 10713
  140.9595  133.7398  156.0382 LP  0  0  0  0  0  0  0  0  0  0  0  0  # atno 17394 bound_to 11000
  140.8007  134.3512  157.5440 LP  0  0  0  0  0  0  0  0  0  0  0  0  # atno 17395 bound_to 11000

$$$$
