AV-unprocessed.smi:3314|AV-procd|sdf|12732|dock8
  -GOLD-   2272019 73D 1   1.00000     0.00000
 Structure written by MMmdl.
 38 39  0  0  0  0  0  0  0  0  2 V2000
  155.0288  140.2151  161.2386 C   0  0  0  0  0  0  0  0  0  0  0  0
  153.8552  140.9867  160.6723 C   0  0  0  0  0  0  0  0  0  0  0  0
  153.4372  142.1987  161.2543 C   0  0  0  0  0  0  0  0  0  0  0  0
  152.3372  142.8668  160.6818 C   0  0  0  0  0  0  0  0  0  0  0  0
  151.8355  144.1751  161.2558 C   0  0  0  0  0  0  0  0  0  0  0  0
  151.6690  142.3982  159.6059 N   0  0  0  0  0  0  0  0  0  0  0  0
  152.0616  141.2306  159.0389 C   0  0  0  0  0  0  0  0  0  0  0  0
  151.4270  140.6534  157.9078 N   0  0  0  0  0  0  0  0  0  0  0  0
  151.9443  139.7960  157.0082 C   0  0  0  0  0  0  0  0  0  0  0  0
  153.1030  139.3777  157.0280 O   0  0  0  0  0  0  0  0  0  0  0  0
  150.9745  139.3444  155.8992 C   0  0  1  0  0  0  0  0  0  0  0  0
  149.5867  138.8774  156.4006 C   0  0  0  0  0  0  0  0  0  0  0  0
  148.7694  140.0204  156.8734 N   0  3  2  0  0  0  0  0  0  0  0  0
  147.4535  139.6020  157.4008 C   0  0  0  0  0  0  0  0  0  0  0  0
  148.6622  141.0604  155.8259 C   0  0  0  0  0  0  0  0  0  0  0  0
  150.0612  141.5086  155.3736 C   0  0  0  0  0  0  0  0  0  0  0  0
  150.8073  140.3775  154.9237 O   0  0  0  0  0  0  0  0  0  0  0  0
  153.1577  140.4995  159.5487 C   0  0  0  0  0  0  0  0  0  0  0  0
  155.4725  140.7344  162.0885 H   0  0  0  0  0  0  0  0  0  0  0  0
  155.7992  140.0858  160.4782 H   0  0  0  0  0  0  0  0  0  0  0  0
  154.7058  139.2288  161.5722 H   0  0  0  0  0  0  0  0  0  0  0  0
  153.9458  142.6055  162.1165 H   0  0  0  0  0  0  0  0  0  0  0  0
  152.3820  144.4465  162.1594 H   0  0  0  0  0  0  0  0  0  0  0  0
  150.7778  144.0982  161.5094 H   0  0  0  0  0  0  0  0  0  0  0  0
  151.9578  144.9787  160.5290 H   0  0  0  0  0  0  0  0  0  0  0  0
  150.4668  140.9295  157.7619 H   0  0  0  0  0  0  0  0  0  0  0  0
  151.4489  138.5016  155.3947 H   0  0  0  0  0  0  0  0  0  0  0  0
  149.0591  138.3701  155.5913 H   0  0  0  0  0  0  0  0  0  0  0  0
  149.6990  138.1465  157.2030 H   0  0  0  0  0  0  0  0  0  0  0  0
  146.8422  139.1510  156.6178 H   0  0  0  0  0  0  0  0  0  0  0  0
  146.9135  140.4576  157.8073 H   0  0  0  0  0  0  0  0  0  0  0  0
  147.5754  138.8732  158.2028 H   0  0  0  0  0  0  0  0  0  0  0  0
  148.1018  140.6682  154.9758 H   0  0  0  0  0  0  0  0  0  0  0  0
  148.1053  141.9159  156.2096 H   0  0  0  0  0  0  0  0  0  0  0  0
  149.9761  142.2189  154.5511 H   0  0  0  0  0  0  0  0  0  0  0  0
  150.5822  142.0289  156.1783 H   0  0  0  0  0  0  0  0  0  0  0  0
  153.4619  139.5710  159.0870 H   0  0  0  0  0  0  0  0  0  0  0  0
  149.2732  140.4345  157.6456 H   0  0  0  0  0  0  0  0  0  0  0  0
  1  2  1  0  0  0  0
  1 19  1  0  0  0  0
  1 20  1  0  0  0  0
  1 21  1  0  0  0  0
  2 18  1  0  0  0  0
  2  3  2  0  0  0  0
  3  4  1  0  0  0  0
  3 22  1  0  0  0  0
  4  5  1  0  0  0  0
  4  6  2  0  0  0  0
  5 23  1  0  0  0  0
  5 24  1  0  0  0  0
  5 25  1  0  0  0  0
  6  7  1  0  0  0  0
  7  8  1  0  0  0  0
  7 18  2  0  0  0  0
  8  9  1  0  0  0  0
  8 26  1  0  0  0  0
  9 10  2  0  0  0  0
  9 11  1  0  0  0  0
 11 17  1  0  0  0  0
 11 12  1  0  0  0  0
 11 27  1  0  0  0  0
 12 13  1  0  0  0  0
 12 28  1  0  0  0  0
 12 29  1  0  0  0  0
 13 14  1  0  0  0  0
 13 15  1  0  0  0  0
 13 38  1  0  0  0  0
 14 30  1  0  0  0  0
 14 31  1  0  0  0  0
 14 32  1  0  0  0  0
 15 16  1  0  0  0  0
 15 33  1  0  0  0  0
 15 34  1  0  0  0  0
 16 17  1  0  0  0  0
 16 35  1  0  0  0  0
 16 36  1  0  0  0  0
 18 37  1  0  0  0  0
M  CHG  1  13   1
M  END
> <s_m_source_file>
AV-unprocessed.smi

> <i_m_source_file_index>
3314

> <i_lp_mmshare_version>
43012

> <i_f3d_flags>
0

> <s_epik_input>
W0NIM11jMVtjSF1jKFtDSDNdKW5jKFtjSF0xKVtOSF1DKD1PKVtDQEBIXTJbQ0gyXU4oW0NIM10pW0NIMl1bQ0gyXU8y

> <s_epik_cmdline>
J2VwaWtfcHl0aG9uJywgJy1waCcsICc3LjAnLCAnLXRuJywgJzgnLCAnLW1hJywgJzIwMCcsICctbWV0YWxfYmluZGluZycsICctaW1hZScsICc8aW5maWxlLm1hZT4nLCAnLW9tYWUnLCAnPG91dGZpbGUubWFlPic=

> <r_epik_Ionization_Penalty>
0.32442

> <r_epik_Ionization_Penalty_Charging>
0.314023

> <r_epik_Ionization_Penalty_Neutral>
0.0103972

> <r_epik_State_Penalty>
0.29453

> <r_epik_Charging_Adjusted_Penalty>
0.608553

> <i_epik_Tot_Q>
1

> <i_epik_Tot_abs_Q>
1

> <r_epik_Metal_State_Penalty>
0.286909

> <b_epik_Metal_Only>
0

> <s_lp_Force_Field>
OPLS_2005

> <r_lp_Energy>
14.9445

> <b_lp_Chiralities_Consistent>
1

> <s_lp_Variant>
AV-unprocessed.smi:3314-2

> <Gold.Version>
5.8.1

> <Gold.Id.Protein>
6NUR|6NUR_protein|mol2

> <Gold.PLP.Fitness>
36.9226

> <Gold.PLP.PLP>
-31.8374

> <Gold.PLP.part.hbond>
-2.0000

> <Gold.PLP.part.metal>
0.0000

> <Gold.PLP.part.buried>
-4.5214

> <Gold.PLP.part.nonpolar>
-25.5248

> <Gold.PLP.part.repulsive>
0.1796

> <Gold.PLP.ligand.clash>
0.0000

> <Gold.PLP.ligand.torsion>
0.4682

> <Gold.PLP.Chemscore.Hbond>
2.0000

> <Gold.PLP.Chemscore.CHOScore>
0.0000

> <Gold.PLP.Chemscore.Metal>
0.0000

> <Gold.Chemscore.Hbonds>
donor molecule, donor type, donor heavy atom, donor atom, acceptor molecule, acceptor atom, score
      P1  H  7989  7998       L1    17  1.00
      P1  H  7997  8008       L1    10  0.93

> <Gold.PLP.Chemscore.Internal.Correction>
0.0216

> <Gold.Rescore>
     Score         DG    S(hbond)    S(metal)    S(lipo)     H(rot)  DE(clash)    DE(int)     intcor
     14.37     -18.49       1.88        0.00      79.39       1.00       0.00       4.12       ----

> <Gold.Chemscore.Fitness>
14.3698

> <Gold.Chemscore.DG>
-18.4905

> <Gold.Chemscore.ZeroCoef>
-5.4800

> <Gold.Chemscore.Hbond>
1.8809

> <Gold.Chemscore.Metal>
0.0000

> <Gold.Chemscore.Lipo>
79.3882

> <Gold.Chemscore.Internal_Hbond>
0.0000

> <Gold.Chemscore.DEClash>
0.0000

> <Gold.Chemscore.DEInternal>
4.1207

> <Gold.Chemscore.Rot>
1.0000

> <Gold.Chemscore.Internal.Correction>
   9.000000E+99

> <Gold.Chemscore.Hbonds>
donor molecule, donor type, donor heavy atom, donor atom, acceptor molecule, acceptor atom, score
      P1  H  7989  7998       L1    17  0.54
      P1  H  7997  8008       L1    10  0.89

> <Gold.Chemscore.Hbond.Weighted>
-6.2821

> <Gold.Chemscore.Metal.Weighted>
-0.0000

> <Gold.Chemscore.Lipo.Weighted>
-9.2884

> <Gold.Chemscore.Internal_Hbond.Weighted>
0.0000

> <Gold.Chemscore.DEClash.Weighted>
0.0000

> <Gold.Chemscore.DEInternal.Weighted>
4.1207

> <Gold.Chemscore.Rot.Weighted>
2.5600

> <Gold.Chemscore.Internal.Correction.Weighted>
   9.000000E+99

> <Gold.Protein.RotatedTorsions>
[ 6907 6896 6895 6894 ] final -112.36 input  -60.11 | X-H torsion
[ 7974 7965 7964 7962 ] final  137.02 input  175.53 | X-H torsion
[ 8008 7997 7996 7995 ] final  -64.03 input   59.86 | X-H torsion
[ 10167 10162 10161 10158 ] final   86.27 input  -65.29 | X-H torsion
[ 10718 10713 10712 10709 ] final  -65.72 input   66.30 | X-H torsion
[ 10763 10752 10751 10750 ] final   29.61 input  -60.55 | X-H torsion
[ 11005 11000 10999 10996 ] final  153.94 input  -57.11 | X-H torsion

> <Gold.Protein.ActiveResidues>
 VAL166  LYS551  ARG553  GLY616  TRP617  ASP618  TYR619  PRO620  LYS621  CYS622 
 ASP623  PHE694  ASN695  SER759  ASP760  ASP761  ALA762  ILE779  LEU786  VAL792 
 PHE793  MET794  SER795  GLU796  ALA797  LYS798  CYS799  TRP800  GLU811  SER814 

> <Gold.Protein.RotatedAtoms>
  150.7753  133.9100  159.3366 H   0  0  0  0  0  0  0  0  0  0  0  0  # atno 6907 bound_to 6896
  151.6977  135.0934  160.0254 H   0  0  0  0  0  0  0  0  0  0  0  0  # atno 6908 bound_to 6896
  152.3787  133.6478  159.6179 H   0  0  0  0  0  0  0  0  0  0  0  0  # atno 6909 bound_to 6896
  144.9508  139.4821  143.5527 H   0  0  0  0  0  0  0  0  0  0  0  0  # atno 7974 bound_to 7965
  154.4588  140.0962  156.6834 H   0  0  0  0  0  0  0  0  0  0  0  0  # atno 8008 bound_to 7997
  155.5057  140.3475  155.4361 H   0  0  0  0  0  0  0  0  0  0  0  0  # atno 8009 bound_to 7997
  156.0830  140.1378  156.9677 H   0  0  0  0  0  0  0  0  0  0  0  0  # atno 8010 bound_to 7997
  139.8892  144.6395  150.8757 H   0  0  0  0  0  0  0  0  0  0  0  0  # atno 10167 bound_to 10162
  156.0653  130.4251  150.1605 H   0  0  0  0  0  0  0  0  0  0  0  0  # atno 10718 bound_to 10713
  153.0420  135.6484  154.0918 H   0  0  0  0  0  0  0  0  0  0  0  0  # atno 10763 bound_to 10752
  154.0623  135.2887  155.3324 H   0  0  0  0  0  0  0  0  0  0  0  0  # atno 10764 bound_to 10752
  154.6649  135.5377  153.8130 H   0  0  0  0  0  0  0  0  0  0  0  0  # atno 10765 bound_to 10752
  140.1443  134.8718  157.2372 H   0  0  0  0  0  0  0  0  0  0  0  0  # atno 11005 bound_to 11000
  146.3320  139.8592  142.8859 LP  0  0  0  0  0  0  0  0  0  0  0  0  # atno 17320 bound_to 7965
  145.2847  141.0149  143.3697 LP  0  0  0  0  0  0  0  0  0  0  0  0  # atno 17321 bound_to 7965
  140.7730  143.3523  151.1989 LP  0  0  0  0  0  0  0  0  0  0  0  0  # atno 17342 bound_to 10162
  139.7125  143.9354  152.2953 LP  0  0  0  0  0  0  0  0  0  0  0  0  # atno 17343 bound_to 10162
  156.9666  130.9821  151.3468 LP  0  0  0  0  0  0  0  0  0  0  0  0  # atno 17370 bound_to 10713
  157.5691  130.8298  149.8367 LP  0  0  0  0  0  0  0  0  0  0  0  0  # atno 17371 bound_to 10713
  140.2683  134.3490  155.7382 LP  0  0  0  0  0  0  0  0  0  0  0  0  # atno 17394 bound_to 11000
  141.2190  133.7408  156.9184 LP  0  0  0  0  0  0  0  0  0  0  0  0  # atno 17395 bound_to 11000

$$$$
