AV-unprocessed.smi:1774|AV-procd|sdf|7170|dock1
  -GOLD-   22720 8403D 1   1.00000     0.00000
 Structure written by MMmdl.
 46 47  0  0  0  0  0  0  0  0  2 V2000
  147.6498  132.8285  152.6878 C   0  0  0  0  0  0  0  0  0  0  0  0
  146.3205  132.8252  151.9503 C   0  0  0  0  0  0  0  0  0  0  0  0
  145.7106  131.5930  151.6317 C   0  0  0  0  0  0  0  0  0  0  0  0
  144.4812  131.5920  150.9507 C   0  0  0  0  0  0  0  0  0  0  0  0
  143.9102  132.8313  150.6147 C   0  0  0  0  0  0  0  0  0  0  0  0
  144.4861  134.0133  150.9147 N   0  0  0  0  0  0  0  0  0  0  0  0
  145.6724  134.0320  151.5730 C   0  0  0  0  0  0  0  0  0  0  0  0
  146.3394  135.2414  151.9178 N   0  0  0  0  0  0  0  0  0  0  0  0
  145.8005  136.4193  152.2791 C   0  0  0  0  0  0  0  0  0  0  0  0
  144.5965  136.6475  152.4021 O   0  0  0  0  0  0  0  0  0  0  0  0
  146.7485  137.3420  152.4992 N   0  0  0  0  0  0  0  0  0  0  0  0
  146.4907  138.7131  152.9242 C   0  0  0  0  0  0  0  0  0  0  0  0
  147.7745  139.4046  153.4241 C   0  0  0  0  0  0  0  0  0  0  0  0
  148.7999  138.4328  153.8880 N   0  3  1  0  0  0  0  0  0  0  0  0
  150.1204  139.0513  154.1605 C   0  0  0  0  0  0  0  0  0  0  0  0
  150.1227  139.7976  155.5105 C   0  0  2  0  0  0  0  0  0  0  0  0
  151.5037  140.3683  155.8499 C   0  0  0  0  0  0  0  0  0  0  0  0
  149.7563  138.8863  156.5408 O   0  0  0  0  0  0  0  0  0  0  0  0
  148.4465  138.3551  156.3699 C   0  0  2  0  0  0  0  0  0  0  0  0
  148.1405  137.4511  157.5690 C   0  0  0  0  0  0  0  0  0  0  0  0
  148.3826  137.5840  155.0338 C   0  0  0  0  0  0  0  0  0  0  0  0
  147.9834  131.8146  152.9108 H   0  0  0  0  0  0  0  0  0  0  0  0
  147.5616  133.3671  153.6318 H   0  0  0  0  0  0  0  0  0  0  0  0
  148.4196  133.3097  152.0837 H   0  0  0  0  0  0  0  0  0  0  0  0
  146.1767  130.6576  151.9047 H   0  0  0  0  0  0  0  0  0  0  0  0
  143.9889  130.6659  150.6928 H   0  0  0  0  0  0  0  0  0  0  0  0
  142.9667  132.8760  150.0911 H   0  0  0  0  0  0  0  0  0  0  0  0
  147.3473  135.2017  151.8825 H   0  0  0  0  0  0  0  0  0  0  0  0
  147.7146  137.0737  152.3785 H   0  0  0  0  0  0  0  0  0  0  0  0
  146.0367  139.2573  152.0958 H   0  0  0  0  0  0  0  0  0  0  0  0
  145.7480  138.6871  153.7219 H   0  0  0  0  0  0  0  0  0  0  0  0
  148.1848  139.9847  152.5962 H   0  0  0  0  0  0  0  0  0  0  0  0
  147.5498  140.1221  154.2128 H   0  0  0  0  0  0  0  0  0  0  0  0
  150.8694  138.2583  154.1827 H   0  0  0  0  0  0  0  0  0  0  0  0
  150.4069  139.7173  153.3457 H   0  0  0  0  0  0  0  0  0  0  0  0
  149.4076  140.6216  155.4863 H   0  0  0  0  0  0  0  0  0  0  0  0
  151.8298  141.0837  155.0945 H   0  0  0  0  0  0  0  0  0  0  0  0
  152.2537  139.5791  155.9099 H   0  0  0  0  0  0  0  0  0  0  0  0
  151.4863  140.8844  156.8102 H   0  0  0  0  0  0  0  0  0  0  0  0
  147.7249  139.1732  156.3709 H   0  0  0  0  0  0  0  0  0  0  0  0
  147.1407  137.0230  157.4924 H   0  0  0  0  0  0  0  0  0  0  0  0
  148.1905  138.0121  158.5027 H   0  0  0  0  0  0  0  0  0  0  0  0
  148.8529  136.6282  157.6368 H   0  0  0  0  0  0  0  0  0  0  0  0
  147.3879  137.1689  154.8774 H   0  0  0  0  0  0  0  0  0  0  0  0
  149.0598  136.7299  155.0790 H   0  0  0  0  0  0  0  0  0  0  0  0
  148.9439  137.8101  153.1059 H   0  0  0  0  0  0  0  0  0  0  0  0
  1  2  1  0  0  0  0
  1 22  1  0  0  0  0
  1 23  1  0  0  0  0
  1 24  1  0  0  0  0
  2  7  1  0  0  0  0
  2  3  2  0  0  0  0
  3  4  1  0  0  0  0
  3 25  1  0  0  0  0
  4  5  2  0  0  0  0
  4 26  1  0  0  0  0
  5  6  1  0  0  0  0
  5 27  1  0  0  0  0
  6  7  2  0  0  0  0
  7  8  1  0  0  0  0
  8  9  1  0  0  0  0
  8 28  1  0  0  0  0
  9 10  2  0  0  0  0
  9 11  1  0  0  0  0
 11 12  1  0  0  0  0
 11 29  1  0  0  0  0
 12 13  1  0  0  0  0
 12 30  1  0  0  0  0
 12 31  1  0  0  0  0
 13 14  1  0  0  0  0
 13 32  1  0  0  0  0
 13 33  1  0  0  0  0
 14 21  1  0  0  0  0
 14 15  1  0  0  0  0
 14 46  1  0  0  0  0
 15 16  1  0  0  0  0
 15 34  1  0  0  0  0
 15 35  1  0  0  0  0
 16 17  1  0  0  0  0
 16 18  1  0  0  0  0
 16 36  1  0  0  0  0
 17 37  1  0  0  0  0
 17 38  1  0  0  0  0
 17 39  1  0  0  0  0
 18 19  1  0  0  0  0
 19 20  1  0  0  0  0
 19 21  1  0  0  0  0
 19 40  1  0  0  0  0
 20 41  1  0  0  0  0
 20 42  1  0  0  0  0
 20 43  1  0  0  0  0
 21 44  1  0  0  0  0
 21 45  1  0  0  0  0
M  CHG  1  14   1
M  END
> <s_m_source_file>
AV-unprocessed.smi

> <i_m_source_file_index>
1774

> <i_lp_mmshare_version>
43012

> <i_f3d_flags>
0

> <s_epik_input>
W0NIM11jMVtjSF1bY0hdW2NIXW5jMVtOSF1DKD1PKVtOSF1bQ0gyXVtDSDJdTjJbQ0gyXVtDQEBIXShbQ0gzXSlPW0NAQEhdKFtDSDNdKVtDSDJdMg==

> <s_epik_cmdline>
J2VwaWtfcHl0aG9uJywgJy1waCcsICc3LjAnLCAnLXRuJywgJzgnLCAnLW1hJywgJzIwMCcsICctbWV0YWxfYmluZGluZycsICctaW1hZScsICc8aW5maWxlLm1hZT4nLCAnLW9tYWUnLCAnPG91dGZpbGUubWFlPic=

> <r_epik_Ionization_Penalty>
0.602573

> <r_epik_Ionization_Penalty_Charging>
0.602531

> <r_epik_Ionization_Penalty_Neutral>
4.21996e-05

> <r_epik_State_Penalty>
0.617039

> <r_epik_Charging_Adjusted_Penalty>
1.21957

> <i_epik_Tot_Q>
1

> <i_epik_Tot_abs_Q>
1

> <r_epik_Metal_State_Penalty>
0.617042

> <b_epik_Metal_Only>
0

> <s_lp_Force_Field>
OPLS_2005

> <r_lp_Energy>
17.7689

> <b_lp_Chiralities_Consistent>
1

> <s_lp_Variant>
AV-unprocessed.smi:1774-7

> <Gold.Version>
5.8.1

> <Gold.Id.Protein>
6NUR|6NUR_protein|mol2

> <Gold.PLP.Fitness>
45.6757

> <Gold.PLP.PLP>
-31.9985

> <Gold.PLP.part.hbond>
-3.2471

> <Gold.PLP.part.metal>
0.0000

> <Gold.PLP.part.buried>
-3.3684

> <Gold.PLP.part.nonpolar>
-26.7937

> <Gold.PLP.part.repulsive>
0.4627

> <Gold.PLP.ligand.clash>
0.0000

> <Gold.PLP.ligand.torsion>
0.5999

> <Gold.PLP.Chemscore.Hbond>
3.9440

> <Gold.PLP.Chemscore.CHOScore>
1.0000

> <Gold.PLP.Chemscore.Metal>
0.0000

> <Gold.Chemscore.Hbonds>
donor molecule, donor type, donor heavy atom, donor atom, acceptor molecule, acceptor atom, score
      L1  H     8    28       P1  7948  0.93
      L1  H    11    29       P1  7948  1.00
      L1  H    14    46       P1  7948  2.00
      L1  C     5    27       P1 10186  0.95

> <Gold.PLP.Chemscore.Internal.Correction>
0.0450

> <Gold.Rescore>
     Score         DG    S(hbond)    S(metal)    S(lipo)     H(rot)  DE(clash)    DE(int)     intcor
     19.30     -20.06       2.87        0.00      75.44       1.49       0.03       0.73       ----

> <Gold.Chemscore.Fitness>
19.3009

> <Gold.Chemscore.DG>
-20.0598

> <Gold.Chemscore.ZeroCoef>
-5.4800

> <Gold.Chemscore.Hbond>
2.8682

> <Gold.Chemscore.Metal>
0.0000

> <Gold.Chemscore.Lipo>
75.4371

> <Gold.Chemscore.Internal_Hbond>
0.0000

> <Gold.Chemscore.DEClash>
0.0272

> <Gold.Chemscore.DEInternal>
0.7317

> <Gold.Chemscore.Rot>
1.4946

> <Gold.Chemscore.Internal.Correction>
   9.000000E+99

> <Gold.Chemscore.Hbonds>
donor molecule, donor type, donor heavy atom, donor atom, acceptor molecule, acceptor atom, score
      L1  H     8    28       P1  7948  0.87
      L1  H    11    29       P1  7948  0.97
      L1  H    14    46       P1  7948  0.97

> <Gold.Chemscore.Hbond.Weighted>
-9.5797

> <Gold.Chemscore.Metal.Weighted>
-0.0000

> <Gold.Chemscore.Lipo.Weighted>
-8.8261

> <Gold.Chemscore.Internal_Hbond.Weighted>
0.0000

> <Gold.Chemscore.DEClash.Weighted>
0.0272

> <Gold.Chemscore.DEInternal.Weighted>
0.7317

> <Gold.Chemscore.Rot.Weighted>
3.8261

> <Gold.Chemscore.Internal.Correction.Weighted>
   9.000000E+99

> <Gold.Protein.RotatedTorsions>
[ 6907 6896 6895 6894 ] final  102.25 input  -60.11 | X-H torsion
[ 7974 7965 7964 7962 ] final  134.80 input  175.53 | X-H torsion
[ 8008 7997 7996 7995 ] final   55.22 input   59.86 | X-H torsion
[ 10167 10162 10161 10158 ] final -104.90 input  -65.29 | X-H torsion
[ 10718 10713 10712 10709 ] final  132.77 input   66.30 | X-H torsion
[ 10763 10752 10751 10750 ] final  144.59 input  -60.55 | X-H torsion
[ 11005 11000 10999 10996 ] final -143.20 input  -57.11 | X-H torsion

> <Gold.Protein.ActiveResidues>
 VAL166  LYS551  ARG553  GLY616  TRP617  ASP618  TYR619  PRO620  LYS621  CYS622 
 ASP623  PHE694  ASN695  SER759  ASP760  ASP761  ALA762  ILE779  LEU786  VAL792 
 PHE793  MET794  SER795  GLU796  ALA797  LYS798  CYS799  TRP800  GLU811  SER814 

> <Gold.Protein.RotatedAtoms>
  152.5328  134.0003  159.7891 H   0  0  0  0  0  0  0  0  0  0  0  0  # atno 6907 bound_to 6896
  151.0223  133.5857  159.2677 H   0  0  0  0  0  0  0  0  0  0  0  0  # atno 6908 bound_to 6896
  151.2893  135.0744  159.9251 H   0  0  0  0  0  0  0  0  0  0  0  0  # atno 6909 bound_to 6896
  144.9727  139.4588  143.5425 H   0  0  0  0  0  0  0  0  0  0  0  0  # atno 7974 bound_to 7965
  155.4976  140.3473  155.4365 H   0  0  0  0  0  0  0  0  0  0  0  0  # atno 8008 bound_to 7997
  156.0935  140.1417  156.9588 H   0  0  0  0  0  0  0  0  0  0  0  0  # atno 8009 bound_to 7997
  154.4649  140.0921  156.6972 H   0  0  0  0  0  0  0  0  0  0  0  0  # atno 8010 bound_to 7997
  140.2043  143.3795  152.1104 H   0  0  0  0  0  0  0  0  0  0  0  0  # atno 10167 bound_to 10162
  157.4838  131.1087  150.9646 H   0  0  0  0  0  0  0  0  0  0  0  0  # atno 10718 bound_to 10713
  153.9914  135.2932  155.3411 H   0  0  0  0  0  0  0  0  0  0  0  0  # atno 10763 bound_to 10752
  154.7212  135.5108  153.8818 H   0  0  0  0  0  0  0  0  0  0  0  0  # atno 10764 bound_to 10752
  153.0808  135.6678  154.0166 H   0  0  0  0  0  0  0  0  0  0  0  0  # atno 10765 bound_to 10752
  140.8149  134.2700  157.4925 H   0  0  0  0  0  0  0  0  0  0  0  0  # atno 11005 bound_to 11000
  146.3386  139.8950  142.8803 LP  0  0  0  0  0  0  0  0  0  0  0  0  # atno 17320 bound_to 7965
  145.2535  141.0052  143.3867 LP  0  0  0  0  0  0  0  0  0  0  0  0  # atno 17321 bound_to 7965
  139.5205  144.7033  151.5428 LP  0  0  0  0  0  0  0  0  0  0  0  0  # atno 17342 bound_to 10162
  140.6368  143.8967  150.6655 LP  0  0  0  0  0  0  0  0  0  0  0  0  # atno 17343 bound_to 10162
  157.0370  130.5734  149.5351 LP  0  0  0  0  0  0  0  0  0  0  0  0  # atno 17370 bound_to 10713
  156.0136  130.5229  150.8065 LP  0  0  0  0  0  0  0  0  0  0  0  0  # atno 17371 bound_to 10713
  139.8712  134.9504  156.4053 LP  0  0  0  0  0  0  0  0  0  0  0  0  # atno 17394 bound_to 11000
  140.9159  133.7679  155.9847 LP  0  0  0  0  0  0  0  0  0  0  0  0  # atno 17395 bound_to 11000

$$$$
