AV-unprocessed.smi:53|AV-procd|sdf|514|dock2
  -GOLD-   2262016383D 1   1.00000     0.00000
 Structure written by MMmdl.
 30 31  0  0  0  0  0  0  0  0  1 V2000
  152.8734  143.8105  159.6193 N   0  0  0  0  0  0  0  0  0  0  0  0
  152.1614  143.0919  158.7400 C   0  0  0  0  0  0  0  0  0  0  0  0
  151.6199  143.7158  157.5549 C   0  0  0  0  0  0  0  0  0  0  0  0
  150.9184  142.9246  156.7135 C   0  0  0  0  0  0  0  0  0  0  0  0
  150.7373  141.5653  156.9476 N   0  0  0  0  0  0  0  0  0  0  0  0
  149.9226  140.6767  156.0198 C   0  0  1  0  0  0  0  0  0  0  0  0
  148.7814  140.2169  156.6782 O   0  0  0  0  0  0  0  0  0  0  0  0
  147.6989  141.1034  156.4244 C   0  0  2  0  0  0  0  0  0  0  0  0
  146.3666  140.4054  156.7346 C   0  0  0  0  0  0  0  0  0  0  0  0
  145.2891  141.2526  156.3967 O   0  0  0  0  0  0  0  0  0  0  0  0
  147.8962  141.4252  154.9421 C   0  0  1  0  0  0  0  0  0  0  0  0
  147.3348  142.6858  154.6346 O   0  0  0  0  0  0  0  0  0  0  0  0
  149.4157  141.4550  154.7817 C   0  0  2  0  0  0  0  0  0  0  0  0
  149.7875  140.8201  153.5743 O   0  0  0  0  0  0  0  0  0  0  0  0
  151.2472  140.9961  158.1408 C   0  0  0  0  0  0  0  0  0  0  0  0
  151.0587  139.8142  158.4257 O   0  0  0  0  0  0  0  0  0  0  0  0
  151.9585  141.8116  158.9792 N   0  0  0  0  0  0  0  0  0  0  0  0
  150.5824  139.8364  155.7930 H   0  0  0  0  0  0  0  0  0  0  0  0
  147.8108  142.0139  157.0166 H   0  0  0  0  0  0  0  0  0  0  0  0
  147.4487  140.6457  154.3228 H   0  0  0  0  0  0  0  0  0  0  0  0
  149.7963  142.4775  154.7943 H   0  0  0  0  0  0  0  0  0  0  0  0
  153.2458  143.3728  160.4496 H   0  0  0  0  0  0  0  0  0  0  0  0
  153.0327  144.7930  159.4499 H   0  0  0  0  0  0  0  0  0  0  0  0
  151.7502  144.7632  157.3225 H   0  0  0  0  0  0  0  0  0  0  0  0
  150.5004  143.3988  155.8388 H   0  0  0  0  0  0  0  0  0  0  0  0
  146.2703  139.4989  156.1362 H   0  0  0  0  0  0  0  0  0  0  0  0
  146.3058  140.1112  157.7828 H   0  0  0  0  0  0  0  0  0  0  0  0
  144.9775  141.6715  157.1844 H   0  0  0  0  0  0  0  0  0  0  0  0
  147.9086  143.3581  154.9702 H   0  0  0  0  0  0  0  0  0  0  0  0
  149.2979  140.0159  153.4945 H   0  0  0  0  0  0  0  0  0  0  0  0
  1  2  1  0  0  0  0
  1 22  1  0  0  0  0
  1 23  1  0  0  0  0
  2 17  2  0  0  0  0
  2  3  1  0  0  0  0
  3  4  2  0  0  0  0
  3 24  1  0  0  0  0
  4  5  1  0  0  0  0
  4 25  1  0  0  0  0
  5  6  1  0  0  0  0
  5 15  1  0  0  0  0
  6 18  1  0  0  0  0
  6 13  1  0  0  0  0
  6  7  1  0  0  0  0
  7  8  1  0  0  0  0
  8 19  1  0  0  0  0
  8  9  1  0  0  0  0
  8 11  1  0  0  0  0
  9 10  1  0  0  0  0
  9 26  1  0  0  0  0
  9 27  1  0  0  0  0
 10 28  1  0  0  0  0
 11 20  1  0  0  0  0
 11 12  1  0  0  0  0
 11 13  1  0  0  0  0
 12 29  1  0  0  0  0
 13 21  1  0  0  0  0
 13 14  1  0  0  0  0
 14 30  1  0  0  0  0
 15 16  2  0  0  0  0
 15 17  1  0  0  0  0
M  END
> <s_m_source_file>
AV-unprocessed.smi

> <i_m_source_file_index>
53

> <i_lp_mmshare_version>
43012

> <i_f3d_flags>
0

> <s_epik_input>
W05IMl1jMVtjSF1bY0hdbihjKD1PKW4xKVtDQEBIXTJPW0NASF0oW0NIMl1bT0hdKVtDQEBIXShbT0hdKVtDQEBIXTJbT0hd

> <s_epik_cmdline>
J2VwaWtfcHl0aG9uJywgJy1waCcsICc3LjAnLCAnLXRuJywgJzgnLCAnLW1hJywgJzIwMCcsICctbWV0YWxfYmluZGluZycsICctaW1hZScsICc8aW5maWxlLm1hZT4nLCAnLW9tYWUnLCAnPG91dGZpbGUubWFlPic=

> <r_lp_tautomer_probability>
0.99996

> <r_epik_Ionization_Penalty>
0.00069087

> <r_epik_Ionization_Penalty_Charging>
2.61959e-08

> <r_epik_Ionization_Penalty_Neutral>
0.000690844

> <r_epik_State_Penalty>
1.15523e-05

> <r_epik_Charging_Adjusted_Penalty>
1.15785e-05

> <i_epik_Tot_Q>
0

> <i_epik_Tot_abs_Q>
0

> <r_epik_Metal_State_Penalty>
-0

> <b_epik_Metal_Only>
0

> <s_epik_Chemistry_Notes>
This compound contains an acetal/aminal-like group ( X-CH(R)-Y where X, Y are N, S, or O) that may be acid/base labile, releasing an aldehyde.

> <s_lp_Force_Field>
OPLS_2005

> <r_lp_Energy>
26.6068

> <b_lp_Chiralities_Consistent>
1

> <s_lp_Variant>
AV-unprocessed.smi:53-2

> <Gold.Version>
5.8.1

> <Gold.Id.Protein>
6NUR|6NUR_protein|mol2

> <Gold.PLP.Fitness>
35.3813

> <Gold.PLP.PLP>
-25.2720

> <Gold.PLP.part.hbond>
-3.7483

> <Gold.PLP.part.metal>
0.0000

> <Gold.PLP.part.buried>
-1.8520

> <Gold.PLP.part.nonpolar>
-19.7317

> <Gold.PLP.part.repulsive>
0.0244

> <Gold.PLP.ligand.clash>
0.0000

> <Gold.PLP.ligand.torsion>
0.0305

> <Gold.PLP.Chemscore.Hbond>
2.3840

> <Gold.PLP.Chemscore.CHOScore>
0.9930

> <Gold.PLP.Chemscore.Metal>
0.0000

> <Gold.Chemscore.Hbonds>
donor molecule, donor type, donor heavy atom, donor atom, acceptor molecule, acceptor atom, score
      L1  H    12    29       P1  8028  1.00
      P1  H  7989  7998       L1    14  0.37
      P1  H  8011  8017       L1    14  1.00
      L1  C     4    25       P1  8028  1.00

> <Gold.PLP.Chemscore.Internal.Correction>
0.0395

> <Gold.Rescore>
     Score         DG    S(hbond)    S(metal)    S(lipo)     H(rot)  DE(clash)    DE(int)     intcor
      4.19      -5.59       1.59        0.00      36.58       3.71       0.11       1.29       ----

> <Gold.Chemscore.Fitness>
4.1862

> <Gold.Chemscore.DG>
-5.5854

> <Gold.Chemscore.ZeroCoef>
-5.4800

> <Gold.Chemscore.Hbond>
1.5934

> <Gold.Chemscore.Metal>
0.0000

> <Gold.Chemscore.Lipo>
36.5787

> <Gold.Chemscore.Internal_Hbond>
0.0000

> <Gold.Chemscore.DEClash>
0.1113

> <Gold.Chemscore.DEInternal>
1.2880

> <Gold.Chemscore.Rot>
3.7095

> <Gold.Chemscore.Internal.Correction>
   9.000000E+99

> <Gold.Chemscore.Hbonds>
donor molecule, donor type, donor heavy atom, donor atom, acceptor molecule, acceptor atom, score
      L1  H    12    29       P1  8028  0.70
      P1  H  7989  7998       L1    14  0.23
      P1  H  8011  8017       L1    14  0.23

> <Gold.Chemscore.Hbond.Weighted>
-5.3221

> <Gold.Chemscore.Metal.Weighted>
-0.0000

> <Gold.Chemscore.Lipo.Weighted>
-4.2797

> <Gold.Chemscore.Internal_Hbond.Weighted>
0.0000

> <Gold.Chemscore.DEClash.Weighted>
0.1113

> <Gold.Chemscore.DEInternal.Weighted>
1.2880

> <Gold.Chemscore.Rot.Weighted>
9.4964

> <Gold.Chemscore.Internal.Correction.Weighted>
   9.000000E+99

> <Gold.Protein.RotatedTorsions>
[ 6907 6896 6895 6894 ] final   96.20 input  -60.11 | X-H torsion
[ 7974 7965 7964 7962 ] final  105.09 input  175.53 | X-H torsion
[ 8008 7997 7996 7995 ] final   20.46 input   59.86 | X-H torsion
[ 10167 10162 10161 10158 ] final -101.80 input  -65.29 | X-H torsion
[ 10718 10713 10712 10709 ] final  -28.80 input   66.30 | X-H torsion
[ 10763 10752 10751 10750 ] final   79.34 input  -60.55 | X-H torsion
[ 11005 11000 10999 10996 ] final  -10.59 input  -57.11 | X-H torsion

> <Gold.Protein.ActiveResidues>
 VAL166  LYS551  ARG553  GLY616  TRP617  ASP618  TYR619  PRO620  LYS621  CYS622 
 ASP623  PHE694  ASN695  SER759  ASP760  ASP761  ALA762  ILE779  LEU786  VAL792 
 PHE793  MET794  SER795  GLU796  ALA797  LYS798  CYS799  TRP800  GLU811  SER814 

> <Gold.Protein.RotatedAtoms>
  152.5437  134.0923  159.8281 H   0  0  0  0  0  0  0  0  0  0  0  0  # atno 6907 bound_to 6896
  151.1011  133.5235  159.2617 H   0  0  0  0  0  0  0  0  0  0  0  0  # atno 6908 bound_to 6896
  151.1990  135.0443  159.8918 H   0  0  0  0  0  0  0  0  0  0  0  0  # atno 6909 bound_to 6896
  145.3243  139.2504  143.3695 H   0  0  0  0  0  0  0  0  0  0  0  0  # atno 7974 bound_to 7965
  154.9360  140.3046  155.5144 H   0  0  0  0  0  0  0  0  0  0  0  0  # atno 8008 bound_to 7997
  156.3000  140.2345  156.4361 H   0  0  0  0  0  0  0  0  0  0  0  0  # atno 8009 bound_to 7997
  154.8191  140.0424  157.1387 H   0  0  0  0  0  0  0  0  0  0  0  0  # atno 8010 bound_to 7997
  140.2375  143.3562  152.0832 H   0  0  0  0  0  0  0  0  0  0  0  0  # atno 10167 bound_to 10162
  156.4206  130.4425  149.7186 H   0  0  0  0  0  0  0  0  0  0  0  0  # atno 10718 bound_to 10713
  153.0945  135.4843  154.8752 H   0  0  0  0  0  0  0  0  0  0  0  0  # atno 10763 bound_to 10752
  154.7308  135.3060  154.8896 H   0  0  0  0  0  0  0  0  0  0  0  0  # atno 10764 bound_to 10752
  153.9533  135.6821  153.4797 H   0  0  0  0  0  0  0  0  0  0  0  0  # atno 10765 bound_to 10752
  140.7463  133.8628  155.9008 H   0  0  0  0  0  0  0  0  0  0  0  0  # atno 11005 bound_to 11000
  146.3070  140.3807  142.8683 LP  0  0  0  0  0  0  0  0  0  0  0  0  # atno 17320 bound_to 7965
  144.8914  140.7529  143.5924 LP  0  0  0  0  0  0  0  0  0  0  0  0  # atno 17321 bound_to 7965
  139.5089  144.6857  151.5893 LP  0  0  0  0  0  0  0  0  0  0  0  0  # atno 17342 bound_to 10162
  140.6139  143.9385  150.6473 LP  0  0  0  0  0  0  0  0  0  0  0  0  # atno 17343 bound_to 10162
  156.4128  130.7730  151.2744 LP  0  0  0  0  0  0  0  0  0  0  0  0  # atno 17370 bound_to 10713
  157.7508  131.0206  150.3716 LP  0  0  0  0  0  0  0  0  0  0  0  0  # atno 17371 bound_to 10713
  140.9791  134.1429  157.4510 LP  0  0  0  0  0  0  0  0  0  0  0  0  # atno 17394 bound_to 11000
  139.8796  135.0004  156.6010 LP  0  0  0  0  0  0  0  0  0  0  0  0  # atno 17395 bound_to 11000

$$$$
