AV-unprocessed.smi:2040|AV-procd|sdf|8289|dock2
  -GOLD-   2272010553D 1   1.00000     0.00000
 Structure written by MMmdl.
 38 39  0  0  0  0  0  0  0  0  1 V2000
  143.5458  132.4145  149.4707 C   0  0  0  0  0  0  0  0  0  0  0  0
  144.5895  133.1408  150.2667 C   0  0  0  0  0  0  0  0  0  0  0  0
  144.7270  134.5465  150.4582 C   0  0  0  0  0  0  0  0  0  0  0  0
  145.8341  134.6346  151.2569 C   0  0  0  0  0  0  0  0  0  0  0  0
  146.4424  135.7429  151.7571 N   0  0  0  0  0  0  0  0  0  0  0  0
  145.8821  136.8286  152.3177 C   0  0  0  0  0  0  0  0  0  0  0  0
  144.6767  136.9931  152.5052 O   0  0  0  0  0  0  0  0  0  0  0  0
  146.8162  137.7283  152.6582 N   0  0  0  0  0  0  0  0  0  0  0  0
  146.5658  139.0269  153.2809 C   0  0  1  0  0  0  0  0  0  0  0  0
  145.9915  138.8130  154.6897 C   0  0  0  0  0  0  0  0  0  0  0  0
  147.8652  139.8549  153.3038 C   0  0  1  0  0  0  0  0  0  0  0  0
  147.7262  141.2382  153.9455 C   0  0  0  0  0  0  0  0  0  0  0  0
  149.1414  141.5111  154.3993 C   0  0  0  0  0  0  0  0  0  0  0  0
  149.5802  140.1318  154.8782 C   0  0  0  0  0  0  0  0  0  0  0  0
  148.8679  139.1946  154.0747 O   0  0  0  0  0  0  0  0  0  0  0  0
  146.3051  133.3650  151.5066 N   0  0  0  0  0  0  0  0  0  0  0  0
  147.4478  132.9454  152.2942 C   0  0  0  0  0  0  0  0  0  0  0  0
  145.5305  132.4438  150.8939 N   0  0  0  0  0  0  0  0  0  0  0  0
  142.8911  133.1131  148.9493 H   0  0  0  0  0  0  0  0  0  0  0  0
  142.9228  131.7940  150.1150 H   0  0  0  0  0  0  0  0  0  0  0  0
  144.0021  131.7666  148.7218 H   0  0  0  0  0  0  0  0  0  0  0  0
  144.1077  135.3384  150.0646 H   0  0  0  0  0  0  0  0  0  0  0  0
  147.4495  135.7459  151.6933 H   0  0  0  0  0  0  0  0  0  0  0  0
  147.7811  137.5021  152.4664 H   0  0  0  0  0  0  0  0  0  0  0  0
  145.8304  139.5822  152.6959 H   0  0  0  0  0  0  0  0  0  0  0  0
  145.7677  139.7645  155.1724 H   0  0  0  0  0  0  0  0  0  0  0  0
  146.6923  138.2735  155.3274 H   0  0  0  0  0  0  0  0  0  0  0  0
  145.0645  138.2397  154.6526 H   0  0  0  0  0  0  0  0  0  0  0  0
  148.2544  139.9740  152.2910 H   0  0  0  0  0  0  0  0  0  0  0  0
  147.3459  141.9925  153.2561 H   0  0  0  0  0  0  0  0  0  0  0  0
  147.0600  141.1972  154.8088 H   0  0  0  0  0  0  0  0  0  0  0  0
  149.7517  141.8292  153.5530 H   0  0  0  0  0  0  0  0  0  0  0  0
  149.2057  142.2737  155.1758 H   0  0  0  0  0  0  0  0  0  0  0  0
  150.6579  139.9873  154.7998 H   0  0  0  0  0  0  0  0  0  0  0  0
  149.2930  139.9816  155.9196 H   0  0  0  0  0  0  0  0  0  0  0  0
  147.2904  133.2161  153.3384 H   0  0  0  0  0  0  0  0  0  0  0  0
  148.3473  133.4412  151.9285 H   0  0  0  0  0  0  0  0  0  0  0  0
  147.5872  131.8657  152.2251 H   0  0  0  0  0  0  0  0  0  0  0  0
  1  2  1  0  0  0  0
  1 19  1  0  0  0  0
  1 20  1  0  0  0  0
  1 21  1  0  0  0  0
  2 18  2  0  0  0  0
  2  3  1  0  0  0  0
  3  4  2  0  0  0  0
  3 22  1  0  0  0  0
  4  5  1  0  0  0  0
  4 16  1  0  0  0  0
  5  6  1  0  0  0  0
  5 23  1  0  0  0  0
  6  7  2  0  0  0  0
  6  8  1  0  0  0  0
  8  9  1  0  0  0  0
  8 24  1  0  0  0  0
  9 10  1  0  0  0  0
  9 11  1  0  0  0  0
  9 25  1  0  0  0  0
 10 26  1  0  0  0  0
 10 27  1  0  0  0  0
 10 28  1  0  0  0  0
 11 15  1  0  0  0  0
 11 12  1  0  0  0  0
 11 29  1  0  0  0  0
 12 13  1  0  0  0  0
 12 30  1  0  0  0  0
 12 31  1  0  0  0  0
 13 14  1  0  0  0  0
 13 32  1  0  0  0  0
 13 33  1  0  0  0  0
 14 15  1  0  0  0  0
 14 34  1  0  0  0  0
 14 35  1  0  0  0  0
 16 17  1  0  0  0  0
 16 18  1  0  0  0  0
 17 36  1  0  0  0  0
 17 37  1  0  0  0  0
 17 38  1  0  0  0  0
M  END
> <s_m_source_file>
AV-unprocessed.smi

> <i_m_source_file_index>
2040

> <i_lp_mmshare_version>
43012

> <i_f3d_flags>
0

> <s_epik_input>
W0NIM11jMVtjSF1jKG4objEpW0NIM10pW05IXUMoPU8pW05IXVtDQEhdKFtDSDNdKVtDQEBIXTJbQ0gyXVtDSDJdW0NIMl1PMg==

> <s_epik_cmdline>
J2VwaWtfcHl0aG9uJywgJy1waCcsICc3LjAnLCAnLXRuJywgJzgnLCAnLW1hJywgJzIwMCcsICctbWV0YWxfYmluZGluZycsICctaW1hZScsICc8aW5maWxlLm1hZT4nLCAnLW9tYWUnLCAnPG91dGZpbGUubWFlPic=

> <r_lp_tautomer_probability>
1

> <r_epik_Ionization_Penalty>
9.09088e-05

> <r_epik_Ionization_Penalty_Charging>
0

> <r_epik_Ionization_Penalty_Neutral>
9.09088e-05

> <r_epik_State_Penalty>
-0

> <r_epik_Charging_Adjusted_Penalty>
0

> <i_epik_Tot_Q>
0

> <i_epik_Tot_abs_Q>
0

> <r_epik_Metal_State_Penalty>
-0

> <b_epik_Metal_Only>
0

> <s_lp_Force_Field>
OPLS_2005

> <r_lp_Energy>
18.8774

> <b_lp_Chiralities_Consistent>
1

> <s_lp_Variant>
AV-unprocessed.smi:2040-4

> <Gold.Version>
5.8.1

> <Gold.Id.Protein>
6NUR|6NUR_protein|mol2

> <Gold.PLP.Fitness>
35.3198

> <Gold.PLP.PLP>
-30.3103

> <Gold.PLP.part.hbond>
-2.0000

> <Gold.PLP.part.metal>
0.0000

> <Gold.PLP.part.buried>
-0.4985

> <Gold.PLP.part.nonpolar>
-28.9817

> <Gold.PLP.part.repulsive>
0.6001

> <Gold.PLP.ligand.clash>
0.0000

> <Gold.PLP.ligand.torsion>
0.4182

> <Gold.PLP.Chemscore.Hbond>
1.9440

> <Gold.PLP.Chemscore.CHOScore>
0.0000

> <Gold.PLP.Chemscore.Metal>
0.0000

> <Gold.Chemscore.Hbonds>
donor molecule, donor type, donor heavy atom, donor atom, acceptor molecule, acceptor atom, score
      L1  H     5    23       P1  7948  1.00
      L1  H     8    24       P1  7948  0.93

> <Gold.PLP.Chemscore.Internal.Correction>
0.0138

> <Gold.Rescore>
     Score         DG    S(hbond)    S(metal)    S(lipo)     H(rot)  DE(clash)    DE(int)     intcor
     16.03     -16.55       1.93        0.00      66.58       1.23       0.07       0.45       ----

> <Gold.Chemscore.Fitness>
16.0336

> <Gold.Chemscore.DG>
-16.5510

> <Gold.Chemscore.ZeroCoef>
-5.4800

> <Gold.Chemscore.Hbond>
1.9279

> <Gold.Chemscore.Metal>
0.0000

> <Gold.Chemscore.Lipo>
66.5818

> <Gold.Chemscore.Internal_Hbond>
0.0000

> <Gold.Chemscore.DEClash>
0.0713

> <Gold.Chemscore.DEInternal>
0.4462

> <Gold.Chemscore.Rot>
1.2338

> <Gold.Chemscore.Internal.Correction>
   9.000000E+99

> <Gold.Chemscore.Hbonds>
donor molecule, donor type, donor heavy atom, donor atom, acceptor molecule, acceptor atom, score
      L1  H     5    23       P1  7948  0.95
      L1  H     8    24       P1  7948  0.91

> <Gold.Chemscore.Hbond.Weighted>
-6.4393

> <Gold.Chemscore.Metal.Weighted>
-0.0000

> <Gold.Chemscore.Lipo.Weighted>
-7.7901

> <Gold.Chemscore.Internal_Hbond.Weighted>
0.0000

> <Gold.Chemscore.DEClash.Weighted>
0.0713

> <Gold.Chemscore.DEInternal.Weighted>
0.4462

> <Gold.Chemscore.Rot.Weighted>
3.1584

> <Gold.Chemscore.Internal.Correction.Weighted>
   9.000000E+99

> <Gold.Protein.RotatedTorsions>
[ 6907 6896 6895 6894 ] final -147.26 input  -60.11 | X-H torsion
[ 7974 7965 7964 7962 ] final  178.04 input  175.53 | X-H torsion
[ 8008 7997 7996 7995 ] final  -93.31 input   59.86 | X-H torsion
[ 10167 10162 10161 10158 ] final   92.74 input  -65.29 | X-H torsion
[ 10718 10713 10712 10709 ] final -100.74 input   66.30 | X-H torsion
[ 10763 10752 10751 10750 ] final  157.89 input  -60.55 | X-H torsion
[ 11005 11000 10999 10996 ] final -138.37 input  -57.11 | X-H torsion

> <Gold.Protein.ActiveResidues>
 VAL166  LYS551  ARG553  GLY616  TRP617  ASP618  TYR619  PRO620  LYS621  CYS622 
 ASP623  PHE694  ASN695  SER759  ASP760  ASP761  ALA762  ILE779  LEU786  VAL792 
 PHE793  MET794  SER795  GLU796  ALA797  LYS798  CYS799  TRP800  GLU811  SER814 

> <Gold.Protein.RotatedAtoms>
  151.1532  133.4894  159.2594 H   0  0  0  0  0  0  0  0  0  0  0  0  # atno 6907 bound_to 6896
  151.1532  135.0237  159.8687 H   0  0  0  0  0  0  0  0  0  0  0  0  # atno 6908 bound_to 6896
  152.5463  134.1414  159.8533 H   0  0  0  0  0  0  0  0  0  0  0  0  # atno 6909 bound_to 6896
  144.7161  140.0338  143.6438 H   0  0  0  0  0  0  0  0  0  0  0  0  # atno 7974 bound_to 7965
  154.7340  140.0500  157.0752 H   0  0  0  0  0  0  0  0  0  0  0  0  # atno 8008 bound_to 7997
  155.0264  140.3153  155.4755 H   0  0  0  0  0  0  0  0  0  0  0  0  # atno 8009 bound_to 7997
  156.2848  140.2158  156.5384 H   0  0  0  0  0  0  0  0  0  0  0  0  # atno 8010 bound_to 7997
  139.8247  144.6715  150.9474 H   0  0  0  0  0  0  0  0  0  0  0  0  # atno 10167 bound_to 10162
  156.0172  130.5341  150.6861 H   0  0  0  0  0  0  0  0  0  0  0  0  # atno 10718 bound_to 10713
  154.2074  135.2787  155.2970 H   0  0  0  0  0  0  0  0  0  0  0  0  # atno 10763 bound_to 10752
  154.5806  135.5590  153.7185 H   0  0  0  0  0  0  0  0  0  0  0  0  # atno 10764 bound_to 10752
  153.0072  135.6344  154.2213 H   0  0  0  0  0  0  0  0  0  0  0  0  # atno 10765 bound_to 10752
  140.8622  134.2154  157.4700 H   0  0  0  0  0  0  0  0  0  0  0  0  # atno 11005 bound_to 11000
  146.0080  139.3146  143.0887 LP  0  0  0  0  0  0  0  0  0  0  0  0  # atno 17320 bound_to 7965
  145.8715  140.9417  143.0648 LP  0  0  0  0  0  0  0  0  0  0  0  0  # atno 17321 bound_to 7965
  140.7811  143.4057  151.1074 LP  0  0  0  0  0  0  0  0  0  0  0  0  # atno 17342 bound_to 10162
  139.7715  143.8487  152.3121 LP  0  0  0  0  0  0  0  0  0  0  0  0  # atno 17343 bound_to 10162
  157.4553  131.0877  151.0803 LP  0  0  0  0  0  0  0  0  0  0  0  0  # atno 17370 bound_to 10713
  157.1307  130.6101  149.5528 LP  0  0  0  0  0  0  0  0  0  0  0  0  # atno 17371 bound_to 10713
  139.8707  134.9735  156.4811 LP  0  0  0  0  0  0  0  0  0  0  0  0  # atno 17394 bound_to 11000
  140.8669  133.8017  155.9324 LP  0  0  0  0  0  0  0  0  0  0  0  0  # atno 17395 bound_to 11000

$$$$
