AV-unprocessed.smi:2473|AV-procd|sdf|9747|dock3
  -GOLD-   2272013393D 1   1.00000     0.00000
 Structure written by MMmdl.
 47 48  0  0  0  0  0  0  0  0  1 V2000
  145.2036  141.3722  156.9337 C   0  0  0  0  0  0  0  0  0  0  0  0
  146.2818  140.7813  156.0140 C   0  0  2  0  0  0  0  0  0  0  0  0
  146.7725  141.8290  154.9951 C   0  0  0  0  0  0  0  0  0  0  0  0
  147.8294  141.2842  154.0085 C   0  0  1  0  0  0  0  0  0  0  0  0
  149.2578  141.2408  154.5819 C   0  0  0  0  0  0  0  0  0  0  0  0
  150.1050  140.4730  154.1259 O   0  0  0  0  0  0  0  0  0  0  0  0
  149.4910  142.0376  155.6374 N   0  0  0  0  0  0  0  0  0  0  0  0
  150.7358  142.0992  156.3990 C   0  0  0  0  0  0  0  0  0  0  0  0
  150.4998  142.0655  157.9221 C   0  0  0  0  0  0  0  0  0  0  0  0
  151.7599  141.9942  158.7337 C   0  0  0  0  0  0  0  0  0  0  0  0
  152.5654  140.9364  158.7392 N   0  0  0  0  0  0  0  0  0  0  0  0
  153.5787  141.2645  159.6327 C   0  0  0  0  0  0  0  0  0  0  0  0
  153.3516  142.5220  160.1371 C   0  0  0  0  0  0  0  0  0  0  0  0
  152.1802  142.9817  159.5501 N   0  0  0  0  0  0  0  0  0  0  0  0
  151.5613  144.2709  159.7923 C   0  0  0  0  0  0  0  0  0  0  0  0
  147.3732  139.9490  153.3691 C   0  0  0  0  0  0  0  0  0  0  0  0
  146.8031  138.8767  154.3379 C   0  0  0  0  0  0  0  0  0  0  0  0
  146.0903  137.7980  153.4968 C   0  0  0  0  0  0  0  0  0  0  0  0
  147.9151  138.1624  155.1371 C   0  0  0  0  0  0  0  0  0  0  0  0
  145.7647  139.5248  155.2860 C   0  0  0  0  0  0  0  0  0  0  0  0
  144.3241  141.6815  156.3681 H   0  0  0  0  0  0  0  0  0  0  0  0
  145.5799  142.2451  157.4675 H   0  0  0  0  0  0  0  0  0  0  0  0
  144.8812  140.6449  157.6791 H   0  0  0  0  0  0  0  0  0  0  0  0
  147.1134  140.4934  156.6557 H   0  0  0  0  0  0  0  0  0  0  0  0
  145.9189  142.1930  154.4218 H   0  0  0  0  0  0  0  0  0  0  0  0
  147.1656  142.7013  155.5202 H   0  0  0  0  0  0  0  0  0  0  0  0
  147.8841  142.0141  153.1988 H   0  0  0  0  0  0  0  0  0  0  0  0
  148.7371  142.6297  155.9542 H   0  0  0  0  0  0  0  0  0  0  0  0
  151.4095  141.2931  156.1038 H   0  0  0  0  0  0  0  0  0  0  0  0
  151.2411  143.0277  156.1337 H   0  0  0  0  0  0  0  0  0  0  0  0
  149.9600  142.9655  158.2187 H   0  0  0  0  0  0  0  0  0  0  0  0
  149.8465  141.2319  158.1794 H   0  0  0  0  0  0  0  0  0  0  0  0
  154.3847  140.5769  159.8416 H   0  0  0  0  0  0  0  0  0  0  0  0
  153.9120  143.1112  160.8477 H   0  0  0  0  0  0  0  0  0  0  0  0
  152.0989  144.8040  160.5769 H   0  0  0  0  0  0  0  0  0  0  0  0
  150.5272  144.1369  160.1079 H   0  0  0  0  0  0  0  0  0  0  0  0
  151.5851  144.8675  158.8803 H   0  0  0  0  0  0  0  0  0  0  0  0
  146.5988  140.1991  152.6423 H   0  0  0  0  0  0  0  0  0  0  0  0
  148.1827  139.5185  152.7776 H   0  0  0  0  0  0  0  0  0  0  0  0
  145.6593  137.0201  154.1281 H   0  0  0  0  0  0  0  0  0  0  0  0
  146.7802  137.3137  152.8049 H   0  0  0  0  0  0  0  0  0  0  0  0
  145.2778  138.2205  152.9045 H   0  0  0  0  0  0  0  0  0  0  0  0
  147.5075  137.3420  155.7287 H   0  0  0  0  0  0  0  0  0  0  0  0
  148.4275  138.8198  155.8342 H   0  0  0  0  0  0  0  0  0  0  0  0
  148.6699  137.7395  154.4736 H   0  0  0  0  0  0  0  0  0  0  0  0
  145.4261  138.7898  156.0175 H   0  0  0  0  0  0  0  0  0  0  0  0
  144.8790  139.8014  154.7118 H   0  0  0  0  0  0  0  0  0  0  0  0
  1  2  1  0  0  0  0
  1 21  1  0  0  0  0
  1 22  1  0  0  0  0
  1 23  1  0  0  0  0
  2 20  1  0  0  0  0
  2  3  1  0  0  0  0
  2 24  1  0  0  0  0
  3  4  1  0  0  0  0
  3 25  1  0  0  0  0
  3 26  1  0  0  0  0
  4  5  1  0  0  0  0
  4 16  1  0  0  0  0
  4 27  1  0  0  0  0
  5  6  2  0  0  0  0
  5  7  1  0  0  0  0
  7  8  1  0  0  0  0
  7 28  1  0  0  0  0
  8  9  1  0  0  0  0
  8 29  1  0  0  0  0
  8 30  1  0  0  0  0
  9 10  1  0  0  0  0
  9 31  1  0  0  0  0
  9 32  1  0  0  0  0
 10 14  1  0  0  0  0
 10 11  2  0  0  0  0
 11 12  1  0  0  0  0
 12 13  2  0  0  0  0
 12 33  1  0  0  0  0
 13 14  1  0  0  0  0
 13 34  1  0  0  0  0
 14 15  1  0  0  0  0
 15 35  1  0  0  0  0
 15 36  1  0  0  0  0
 15 37  1  0  0  0  0
 16 17  1  0  0  0  0
 16 38  1  0  0  0  0
 16 39  1  0  0  0  0
 17 18  1  0  0  0  0
 17 19  1  0  0  0  0
 17 20  1  0  0  0  0
 18 40  1  0  0  0  0
 18 41  1  0  0  0  0
 18 42  1  0  0  0  0
 19 43  1  0  0  0  0
 19 44  1  0  0  0  0
 19 45  1  0  0  0  0
 20 46  1  0  0  0  0
 20 47  1  0  0  0  0
M  END
> <s_m_source_file>
AV-unprocessed.smi

> <i_m_source_file_index>
2473

> <i_lp_mmshare_version>
43012

> <i_f3d_flags>
0

> <s_epik_input>
W0NIM11bQ0BASF0oW0NIMl0xKVtDSDJdW0NASF0oW0NIMl1DMShbQ0gzXSlbQ0gzXSlDKD1PKVtOSF1bQ0gyXVtDSDJdYzJuW2NIXVtjSF1uMltDSDNd

> <s_epik_cmdline>
J2VwaWtfcHl0aG9uJywgJy1waCcsICc3LjAnLCAnLXRuJywgJzgnLCAnLW1hJywgJzIwMCcsICctbWV0YWxfYmluZGluZycsICctaW1hZScsICc8aW5maWxlLm1hZT4nLCAnLW9tYWUnLCAnPG91dGZpbGUubWFlPic=

> <r_lp_tautomer_probability>
1

> <r_epik_Ionization_Penalty>
1.22858

> <r_epik_Ionization_Penalty_Charging>
1.22858

> <r_epik_Ionization_Penalty_Neutral>
2.12671e-08

> <r_epik_State_Penalty>
1.2965

> <r_epik_Charging_Adjusted_Penalty>
2.52508

> <i_epik_Tot_Q>
0

> <i_epik_Tot_abs_Q>
0

> <r_epik_Metal_State_Penalty>
0.411461

> <b_epik_Metal_Only>
0

> <s_lp_Force_Field>
OPLS_2005

> <r_lp_Energy>
14.2462

> <b_lp_Chiralities_Consistent>
1

> <s_lp_Variant>
AV-unprocessed.smi:2473-5

> <Gold.Version>
5.8.1

> <Gold.Id.Protein>
6NUR|6NUR_protein|mol2

> <Gold.PLP.Fitness>
45.2154

> <Gold.PLP.PLP>
-40.8030

> <Gold.PLP.part.hbond>
-2.0000

> <Gold.PLP.part.metal>
0.0000

> <Gold.PLP.part.buried>
-4.6303

> <Gold.PLP.part.nonpolar>
-34.1032

> <Gold.PLP.part.repulsive>
0.2961

> <Gold.PLP.ligand.clash>
0.0000

> <Gold.PLP.ligand.torsion>
0.8116

> <Gold.PLP.Chemscore.Hbond>
1.9760

> <Gold.PLP.Chemscore.CHOScore>
0.0000

> <Gold.PLP.Chemscore.Metal>
0.0000

> <Gold.Chemscore.Hbonds>
donor molecule, donor type, donor heavy atom, donor atom, acceptor molecule, acceptor atom, score
      L1  H     7    28       P1  8028  0.31
      P1  H  7989  7998       L1     6  0.80

> <Gold.PLP.Chemscore.Internal.Correction>
0.1076

> <Gold.Rescore>
     Score         DG    S(hbond)    S(metal)    S(lipo)     H(rot)  DE(clash)    DE(int)     intcor
     16.08     -16.95       1.66        0.00      83.67       1.51       0.19       0.68       ----

> <Gold.Chemscore.Fitness>
16.0797

> <Gold.Chemscore.DG>
-16.9523

> <Gold.Chemscore.ZeroCoef>
-5.4800

> <Gold.Chemscore.Hbond>
1.6621

> <Gold.Chemscore.Metal>
0.0000

> <Gold.Chemscore.Lipo>
83.6663

> <Gold.Chemscore.Internal_Hbond>
0.0000

> <Gold.Chemscore.DEClash>
0.1931

> <Gold.Chemscore.DEInternal>
0.6796

> <Gold.Chemscore.Rot>
1.5109

> <Gold.Chemscore.Internal.Correction>
   9.000000E+99

> <Gold.Chemscore.Hbonds>
donor molecule, donor type, donor heavy atom, donor atom, acceptor molecule, acceptor atom, score
      L1  H     7    28       P1  8028  0.30
      P1  H  7989  7998       L1     6  0.79

> <Gold.Chemscore.Hbond.Weighted>
-5.5514

> <Gold.Chemscore.Metal.Weighted>
-0.0000

> <Gold.Chemscore.Lipo.Weighted>
-9.7890

> <Gold.Chemscore.Internal_Hbond.Weighted>
0.0000

> <Gold.Chemscore.DEClash.Weighted>
0.1931

> <Gold.Chemscore.DEInternal.Weighted>
0.6796

> <Gold.Chemscore.Rot.Weighted>
3.8680

> <Gold.Chemscore.Internal.Correction.Weighted>
   9.000000E+99

> <Gold.Protein.RotatedTorsions>
[ 6907 6896 6895 6894 ] final  159.06 input  -60.11 | X-H torsion
[ 7974 7965 7964 7962 ] final  -30.48 input  175.53 | X-H torsion
[ 8008 7997 7996 7995 ] final   66.54 input   59.86 | X-H torsion
[ 10167 10162 10161 10158 ] final    6.96 input  -65.29 | X-H torsion
[ 10718 10713 10712 10709 ] final   48.33 input   66.30 | X-H torsion
[ 10763 10752 10751 10750 ] final   75.44 input  -60.55 | X-H torsion
[ 11005 11000 10999 10996 ] final   35.62 input  -57.11 | X-H torsion

> <Gold.Protein.ActiveResidues>
 VAL166  LYS551  ARG553  GLY616  TRP617  ASP618  TYR619  PRO620  LYS621  CYS622 
 ASP623  PHE694  ASN695  SER759  ASP760  ASP761  ALA762  ILE779  LEU786  VAL792 
 PHE793  MET794  SER795  GLU796  ALA797  LYS798  CYS799  TRP800  GLU811  SER814 

> <Gold.Protein.RotatedAtoms>
  151.9912  133.3791  159.4144 H   0  0  0  0  0  0  0  0  0  0  0  0  # atno 6907 bound_to 6896
  150.6921  134.3935  159.5096 H   0  0  0  0  0  0  0  0  0  0  0  0  # atno 6908 bound_to 6896
  152.1668  134.8866  160.0588 H   0  0  0  0  0  0  0  0  0  0  0  0  # atno 6909 bound_to 6896
  146.1140  140.5546  142.8765 H   0  0  0  0  0  0  0  0  0  0  0  0  # atno 7974 bound_to 7965
  155.6789  140.3496  155.4847 H   0  0  0  0  0  0  0  0  0  0  0  0  # atno 8008 bound_to 7997
  155.9624  140.1140  157.0907 H   0  0  0  0  0  0  0  0  0  0  0  0  # atno 8009 bound_to 7997
  154.4146  140.1173  156.5182 H   0  0  0  0  0  0  0  0  0  0  0  0  # atno 8010 bound_to 7997
  140.6399  143.7799  150.7412 H   0  0  0  0  0  0  0  0  0  0  0  0  # atno 10167 bound_to 10162
  157.4675  130.8235  149.7952 H   0  0  0  0  0  0  0  0  0  0  0  0  # atno 10718 bound_to 10713
  153.0655  135.4988  154.8190 H   0  0  0  0  0  0  0  0  0  0  0  0  # atno 10763 bound_to 10752
  154.6947  135.2990  154.9432 H   0  0  0  0  0  0  0  0  0  0  0  0  # atno 10764 bound_to 10752
  154.0175  135.6746  153.4822 H   0  0  0  0  0  0  0  0  0  0  0  0  # atno 10765 bound_to 10752
  140.2408  134.3417  155.7926 H   0  0  0  0  0  0  0  0  0  0  0  0  # atno 11005 bound_to 11000
  144.7536  140.5252  143.6784 LP  0  0  0  0  0  0  0  0  0  0  0  0  # atno 17320 bound_to 7965
  145.5606  139.1479  143.3343 LP  0  0  0  0  0  0  0  0  0  0  0  0  # atno 17321 bound_to 7965
  140.1429  143.4426  152.2182 LP  0  0  0  0  0  0  0  0  0  0  0  0  # atno 17342 bound_to 10162
  139.5608  144.7404  151.4161 LP  0  0  0  0  0  0  0  0  0  0  0  0  # atno 17343 bound_to 10162
  156.0057  130.3857  150.2439 LP  0  0  0  0  0  0  0  0  0  0  0  0  # atno 17370 bound_to 10713
  157.0620  131.0092  151.3219 LP  0  0  0  0  0  0  0  0  0  0  0  0  # atno 17371 bound_to 10713
  141.2210  133.7298  156.8882 LP  0  0  0  0  0  0  0  0  0  0  0  0  # atno 17394 bound_to 11000
  140.1655  134.9136  157.2768 LP  0  0  0  0  0  0  0  0  0  0  0  0  # atno 17395 bound_to 11000

$$$$
