AV-unprocessed.smi:1080|AV-procd|sdf|4709|dock4
  -GOLD-   22720 3233D 1   1.00000     0.00000
 Structure written by MMmdl.
 49 51  0  0  0  0  0  0  0  0  2 V2000
  146.2769  131.7720  153.8176 O   0  0  0  0  0  0  0  0  0  0  0  0
  147.0488  131.4795  152.9045 C   0  0  0  0  0  0  0  0  0  0  0  0
  146.7899  131.6341  151.5942 N   0  0  0  0  0  0  0  0  0  0  0  0
  145.6011  132.1156  150.9815 C   0  0  0  0  0  0  0  0  0  0  0  0
  145.5775  132.2021  149.5716 C   0  0  0  0  0  0  0  0  0  0  0  0
  144.4123  132.6587  148.9225 C   0  0  0  0  0  0  0  0  0  0  0  0
  143.3264  132.9983  149.6494 N   0  3  0  0  0  0  0  0  0  0  0  0
  143.2955  132.9176  150.9970 C   0  0  0  0  0  0  0  0  0  0  0  0
  144.4313  132.4685  151.7014 C   0  0  0  0  0  0  0  0  0  0  0  0
  148.2788  130.9819  153.0985 N   0  0  0  0  0  0  0  0  0  0  0  0
  148.9016  130.7117  154.3920 C   0  0  2  0  0  0  0  0  0  0  0  0
  150.1675  131.5728  154.5474 C   0  0  0  0  0  0  0  0  0  0  0  0
  150.9449  131.2335  155.8363 C   0  0  0  0  0  0  0  0  0  0  0  0
  151.2417  129.7233  156.0277 C   0  0  2  0  0  0  0  0  0  0  0  0
  152.4073  129.1971  155.1526 C   0  0  0  0  0  0  0  0  0  0  0  0
  152.1886  128.2713  154.3705 O   0  0  0  0  0  0  0  0  0  0  0  0
  153.6322  129.7778  155.2357 N   0  0  0  0  0  0  0  0  0  0  0  0
  153.9531  130.7859  156.2546 C   0  0  0  0  0  0  0  0  0  0  0  0
  154.7431  130.1138  157.3904 C   0  0  0  0  0  0  0  0  0  0  0  0
  156.3257  129.4487  156.7835 S   0  0  0  0  0  0  0  0  0  0  0  0
  155.7343  128.5261  155.3301 C   0  0  0  0  0  0  0  0  0  0  0  0
  154.8210  129.4040  154.4586 C   0  0  0  0  0  0  0  0  0  0  0  0
  149.9500  128.8981  155.8265 C   0  0  0  0  0  0  0  0  0  0  0  0
  149.2380  129.2145  154.5004 C   0  0  0  0  0  0  0  0  0  0  0  0
  147.5554  131.4395  150.9653 H   0  0  0  0  0  0  0  0  0  0  0  0
  146.4459  131.9288  148.9892 H   0  0  0  0  0  0  0  0  0  0  0  0
  144.3170  132.7602  147.8512 H   0  0  0  0  0  0  0  0  0  0  0  0
  142.3674  133.2066  151.4683 H   0  0  0  0  0  0  0  0  0  0  0  0
  144.3797  132.3915  152.7768 H   0  0  0  0  0  0  0  0  0  0  0  0
  148.8389  130.7785  152.2837 H   0  0  0  0  0  0  0  0  0  0  0  0
  148.2173  130.9619  155.2048 H   0  0  0  0  0  0  0  0  0  0  0  0
  150.8089  131.4449  153.6761 H   0  0  0  0  0  0  0  0  0  0  0  0
  149.8945  132.6286  154.5597 H   0  0  0  0  0  0  0  0  0  0  0  0
  151.8724  131.8072  155.8646 H   0  0  0  0  0  0  0  0  0  0  0  0
  150.3615  131.5806  156.6901 H   0  0  0  0  0  0  0  0  0  0  0  0
  151.5498  129.6346  157.0684 H   0  0  0  0  0  0  0  0  0  0  0  0
  154.5392  131.5946  155.8159 H   0  0  0  0  0  0  0  0  0  0  0  0
  153.0618  131.2667  156.6595 H   0  0  0  0  0  0  0  0  0  0  0  0
  154.9466  130.8284  158.1881 H   0  0  0  0  0  0  0  0  0  0  0  0
  154.1610  129.3026  157.8292 H   0  0  0  0  0  0  0  0  0  0  0  0
  156.5971  128.1872  154.7565 H   0  0  0  0  0  0  0  0  0  0  0  0
  155.2022  127.6353  155.6653 H   0  0  0  0  0  0  0  0  0  0  0  0
  154.5798  128.8958  153.5268 H   0  0  0  0  0  0  0  0  0  0  0  0
  155.3586  130.3012  154.1486 H   0  0  0  0  0  0  0  0  0  0  0  0
  150.1657  127.8300  155.8723 H   0  0  0  0  0  0  0  0  0  0  0  0
  149.2683  129.0979  156.6541 H   0  0  0  0  0  0  0  0  0  0  0  0
  148.3235  128.6238  154.4305 H   0  0  0  0  0  0  0  0  0  0  0  0
  149.8653  128.9088  153.6619 H   0  0  0  0  0  0  0  0  0  0  0  0
  142.4927  133.3250  149.1599 H   0  0  0  0  0  0  0  0  0  0  0  0
  1  2  2  0  0  0  0
  2  3  1  0  0  0  0
  2 10  1  0  0  0  0
  3  4  1  0  0  0  0
  3 25  1  0  0  0  0
  4  9  1  0  0  0  0
  4  5  2  0  0  0  0
  5  6  1  0  0  0  0
  5 26  1  0  0  0  0
  6  7  2  0  0  0  0
  6 27  1  0  0  0  0
  7  8  1  0  0  0  0
  7 49  1  0  0  0  0
  8  9  2  0  0  0  0
  8 28  1  0  0  0  0
  9 29  1  0  0  0  0
 10 11  1  0  0  0  0
 10 30  1  0  0  0  0
 11 24  1  0  0  0  0
 11 12  1  0  0  0  0
 11 31  1  0  0  0  0
 12 13  1  0  0  0  0
 12 32  1  0  0  0  0
 12 33  1  0  0  0  0
 13 14  1  0  0  0  0
 13 34  1  0  0  0  0
 13 35  1  0  0  0  0
 14 15  1  0  0  0  0
 14 23  1  0  0  0  0
 14 36  1  0  0  0  0
 15 16  2  0  0  0  0
 15 17  1  0  0  0  0
 17 22  1  0  0  0  0
 17 18  1  0  0  0  0
 18 19  1  0  0  0  0
 18 37  1  0  0  0  0
 18 38  1  0  0  0  0
 19 20  1  0  0  0  0
 19 39  1  0  0  0  0
 19 40  1  0  0  0  0
 20 21  1  0  0  0  0
 21 22  1  0  0  0  0
 21 41  1  0  0  0  0
 21 42  1  0  0  0  0
 22 43  1  0  0  0  0
 22 44  1  0  0  0  0
 23 24  1  0  0  0  0
 23 45  1  0  0  0  0
 23 46  1  0  0  0  0
 24 47  1  0  0  0  0
 24 48  1  0  0  0  0
M  CHG  1   7   1
M  END
> <s_m_source_file>
AV-unprocessed.smi

> <i_m_source_file_index>
1080

> <i_lp_mmshare_version>
43012

> <i_f3d_flags>
0

> <s_epik_input>
W2NIXTFbY0hdbltjSF1bY0hdYzFbTkhdQyg9TylbTkhdW0NAQEhdMltDSDJdW0NIMl1bQ0BIXShbQ0gyXVtDSDJdMilDKD1PKU4zW0NIMl1bQ0gyXVNbQ0gyXVtDSDJdMw==

> <s_epik_cmdline>
J2VwaWtfcHl0aG9uJywgJy1waCcsICc3LjAnLCAnLXRuJywgJzgnLCAnLW1hJywgJzIwMCcsICctbWV0YWxfYmluZGluZycsICctaW1hZScsICc8aW5maWxlLm1hZT4nLCAnLW9tYWUnLCAnPG91dGZpbGUubWFlPic=

> <r_epik_Ionization_Penalty>
1.01281

> <r_epik_Ionization_Penalty_Charging>
1.01278

> <r_epik_Ionization_Penalty_Neutral>
2.07681e-05

> <r_epik_State_Penalty>
1.06237

> <r_epik_Charging_Adjusted_Penalty>
2.07515

> <i_epik_Tot_Q>
1

> <i_epik_Tot_abs_Q>
1

> <r_epik_Metal_State_Penalty>
1.16243

> <b_epik_Metal_Only>
0

> <s_lp_Force_Field>
OPLS_2005

> <r_lp_Energy>
37.4575

> <b_lp_Chiralities_Consistent>
1

> <s_lp_Variant>
AV-unprocessed.smi:1080-4

> <Gold.Version>
5.8.1

> <Gold.Id.Protein>
6NUR|6NUR_protein|mol2

> <Gold.PLP.Fitness>
47.2528

> <Gold.PLP.PLP>
-37.4375

> <Gold.PLP.part.hbond>
-3.0000

> <Gold.PLP.part.metal>
0.0000

> <Gold.PLP.part.buried>
-5.5169

> <Gold.PLP.part.nonpolar>
-30.3524

> <Gold.PLP.part.repulsive>
2.1788

> <Gold.PLP.ligand.clash>
0.0000

> <Gold.PLP.ligand.torsion>
0.0325

> <Gold.PLP.Chemscore.Hbond>
3.2720

> <Gold.PLP.Chemscore.CHOScore>
0.0000

> <Gold.PLP.Chemscore.Metal>
0.0000

> <Gold.Chemscore.Hbonds>
donor molecule, donor type, donor heavy atom, donor atom, acceptor molecule, acceptor atom, score
      L1  H     3    25       P1 10747  1.00
      L1  H     7    49       P1 10186  1.50
      L1  H    10    30       P1 10747  0.96

> <Gold.PLP.Chemscore.Internal.Correction>
0.0644

> <Gold.Rescore>
     Score         DG    S(hbond)    S(metal)    S(lipo)     H(rot)  DE(clash)    DE(int)     intcor
     18.29     -21.79       2.57        0.00      93.28       1.25       1.47       2.04       ----

> <Gold.Chemscore.Fitness>
18.2888

> <Gold.Chemscore.DG>
-21.7917

> <Gold.Chemscore.ZeroCoef>
-5.4800

> <Gold.Chemscore.Hbond>
2.5733

> <Gold.Chemscore.Metal>
0.0000

> <Gold.Chemscore.Lipo>
93.2765

> <Gold.Chemscore.Internal_Hbond>
0.0000

> <Gold.Chemscore.DEClash>
1.4662

> <Gold.Chemscore.DEInternal>
2.0367

> <Gold.Chemscore.Rot>
1.2486

> <Gold.Chemscore.Internal.Correction>
   9.000000E+99

> <Gold.Chemscore.Hbonds>
donor molecule, donor type, donor heavy atom, donor atom, acceptor molecule, acceptor atom, score
      L1  H     3    25       P1 10747  1.00
      L1  H     7    49       P1 10186  0.76
      L1  H    10    30       P1 10747  0.50

> <Gold.Chemscore.Hbond.Weighted>
-8.5947

> <Gold.Chemscore.Metal.Weighted>
-0.0000

> <Gold.Chemscore.Lipo.Weighted>
-10.9134

> <Gold.Chemscore.Internal_Hbond.Weighted>
0.0000

> <Gold.Chemscore.DEClash.Weighted>
1.4662

> <Gold.Chemscore.DEInternal.Weighted>
2.0367

> <Gold.Chemscore.Rot.Weighted>
3.1963

> <Gold.Chemscore.Internal.Correction.Weighted>
   9.000000E+99

> <Gold.Protein.RotatedTorsions>
[ 6907 6896 6895 6894 ] final  105.92 input  -60.11 | X-H torsion
[ 7974 7965 7964 7962 ] final  -35.43 input  175.53 | X-H torsion
[ 8008 7997 7996 7995 ] final  116.48 input   59.86 | X-H torsion
[ 10167 10162 10161 10158 ] final   52.55 input  -65.29 | X-H torsion
[ 10718 10713 10712 10709 ] final  140.72 input   66.30 | X-H torsion
[ 10763 10752 10751 10750 ] final  -42.99 input  -60.55 | X-H torsion
[ 11005 11000 10999 10996 ] final   90.58 input  -57.11 | X-H torsion

> <Gold.Protein.ActiveResidues>
 VAL166  LYS551  ARG553  GLY616  TRP617  ASP618  TYR619  PRO620  LYS621  CYS622 
 ASP623  PHE694  ASN695  SER759  ASP760  ASP761  ALA762  ILE779  LEU786  VAL792 
 PHE793  MET794  SER795  GLU796  ALA797  LYS798  CYS799  TRP800  GLU811  SER814 

> <Gold.Protein.RotatedAtoms>
  152.5213  133.9457  159.7647 H   0  0  0  0  0  0  0  0  0  0  0  0  # atno 6907 bound_to 6896
  150.9777  133.6269  159.2734 H   0  0  0  0  0  0  0  0  0  0  0  0  # atno 6908 bound_to 6896
  151.3458  135.0879  159.9439 H   0  0  0  0  0  0  0  0  0  0  0  0  # atno 6909 bound_to 6896
  146.0747  140.6158  142.8936 H   0  0  0  0  0  0  0  0  0  0  0  0  # atno 7974 bound_to 7965
  156.2442  140.2916  156.0530 H   0  0  0  0  0  0  0  0  0  0  0  0  # atno 8008 bound_to 7997
  155.1860  140.0405  157.2908 H   0  0  0  0  0  0  0  0  0  0  0  0  # atno 8009 bound_to 7997
  154.6227  140.2480  155.7536 H   0  0  0  0  0  0  0  0  0  0  0  0  # atno 8010 bound_to 7997
  140.2502  144.3488  150.6351 H   0  0  0  0  0  0  0  0  0  0  0  0  # atno 10167 bound_to 10162
  157.4000  131.1015  151.0561 H   0  0  0  0  0  0  0  0  0  0  0  0  # atno 10718 bound_to 10713
  153.9881  135.6708  153.4753 H   0  0  0  0  0  0  0  0  0  0  0  0  # atno 10763 bound_to 10752
  153.0717  135.4970  154.8316 H   0  0  0  0  0  0  0  0  0  0  0  0  # atno 10764 bound_to 10752
  154.7125  135.3100  154.9137 H   0  0  0  0  0  0  0  0  0  0  0  0  # atno 10765 bound_to 10752
  139.8853  134.8622  156.3305 H   0  0  0  0  0  0  0  0  0  0  0  0  # atno 11005 bound_to 11000
  144.7254  140.4507  143.6977 LP  0  0  0  0  0  0  0  0  0  0  0  0  # atno 17320 bound_to 7965
  145.6328  139.1538  143.2960 LP  0  0  0  0  0  0  0  0  0  0  0  0  # atno 17321 bound_to 7965
  140.6046  143.2167  151.7005 LP  0  0  0  0  0  0  0  0  0  0  0  0  # atno 17342 bound_to 10162
  139.5049  144.3738  152.0444 LP  0  0  0  0  0  0  0  0  0  0  0  0  # atno 17343 bound_to 10162
  157.1563  130.6206  149.5597 LP  0  0  0  0  0  0  0  0  0  0  0  0  # atno 17370 bound_to 10713
  155.9821  130.4832  150.6862 LP  0  0  0  0  0  0  0  0  0  0  0  0  # atno 17371 bound_to 10713
  140.9726  133.7318  156.0556 LP  0  0  0  0  0  0  0  0  0  0  0  0  # atno 17394 bound_to 11000
  140.7852  134.3680  157.5478 LP  0  0  0  0  0  0  0  0  0  0  0  0  # atno 17395 bound_to 11000

$$$$
