AV-unprocessed.smi:3014|AV-procd|sdf|11467|dock2
  -GOLD-   2272016403D 1   1.00000     0.00000
 Structure written by MMmdl.
 45 46  0  0  0  0  0  0  0  0  1 V2000
  151.3815  145.3860  158.9776 C   0  0  0  0  0  0  0  0  0  0  0  0
  152.0440  144.0021  158.9161 C   0  0  1  0  0  0  0  0  0  0  0  0
  152.6946  143.6303  160.2627 C   0  0  0  0  0  0  0  0  0  0  0  0
  153.3462  142.2393  160.2118 C   0  0  0  0  0  0  0  0  0  0  0  0
  152.3340  141.1685  159.7767 C   0  0  0  0  0  0  0  0  0  0  0  0
  151.7003  141.5217  158.4212 C   0  0  1  0  0  0  0  0  0  0  0  0
  150.7323  140.5241  158.1238 O   0  0  0  0  0  0  0  0  0  0  0  0
  151.2743  139.3398  157.5510 C   0  0  0  0  0  0  0  0  0  0  0  0
  150.2730  138.1904  157.6825 C   0  0  0  0  0  0  0  0  0  0  0  0
  149.9887  137.5322  156.6820 O   0  0  0  0  0  0  0  0  0  0  0  0
  149.7883  137.9491  158.9159 N   0  0  0  0  0  0  0  0  0  0  0  0
  148.8632  136.9510  159.3201 C   0  0  0  0  0  0  0  0  0  0  0  0
  148.5360  135.8653  158.4703 C   0  0  0  0  0  0  0  0  0  0  0  0
  147.5907  134.9391  158.9492 C   0  0  0  0  0  0  0  0  0  0  0  0
  147.0084  135.0781  160.1571 N   0  0  0  0  0  0  0  0  0  0  0  0
  147.3589  136.1418  160.8894 C   0  0  0  0  0  0  0  0  0  0  0  0
  146.7507  136.2921  162.1393 N   0  0  0  0  0  0  0  0  0  0  0  0
  145.6443  135.4326  162.5502 C   0  0  0  0  0  0  0  0  0  0  0  0
  147.1975  137.3168  163.0790 C   0  0  0  0  0  0  0  0  0  0  0  0
  148.2469  137.0744  160.5180 N   0  0  0  0  0  0  0  0  0  0  0  0
  151.0412  142.9154  158.4801 C   0  0  0  0  0  0  0  0  0  0  0  0
  150.5862  145.4126  159.7235 H   0  0  0  0  0  0  0  0  0  0  0  0
  150.9449  145.6564  158.0158 H   0  0  0  0  0  0  0  0  0  0  0  0
  152.1074  146.1569  159.2376 H   0  0  0  0  0  0  0  0  0  0  0  0
  152.8328  144.0493  158.1639 H   0  0  0  0  0  0  0  0  0  0  0  0
  153.4446  144.3746  160.5324 H   0  0  0  0  0  0  0  0  0  0  0  0
  151.9431  143.6495  161.0534 H   0  0  0  0  0  0  0  0  0  0  0  0
  154.1861  142.2536  159.5160 H   0  0  0  0  0  0  0  0  0  0  0  0
  153.7588  141.9861  161.1888 H   0  0  0  0  0  0  0  0  0  0  0  0
  152.8258  140.1971  159.7157 H   0  0  0  0  0  0  0  0  0  0  0  0
  151.5554  141.0741  160.5350 H   0  0  0  0  0  0  0  0  0  0  0  0
  152.4881  141.5162  157.6652 H   0  0  0  0  0  0  0  0  0  0  0  0
  151.5069  139.4877  156.4961 H   0  0  0  0  0  0  0  0  0  0  0  0
  152.1979  139.0619  158.0607 H   0  0  0  0  0  0  0  0  0  0  0  0
  150.1921  138.4965  159.6623 H   0  0  0  0  0  0  0  0  0  0  0  0
  148.9701  135.7386  157.4901 H   0  0  0  0  0  0  0  0  0  0  0  0
  147.2947  134.0861  158.3567 H   0  0  0  0  0  0  0  0  0  0  0  0
  144.8277  135.4913  161.8299 H   0  0  0  0  0  0  0  0  0  0  0  0
  145.2470  135.7171  163.5245 H   0  0  0  0  0  0  0  0  0  0  0  0
  145.9736  134.3949  162.6137 H   0  0  0  0  0  0  0  0  0  0  0  0
  148.2586  137.1954  163.2996 H   0  0  0  0  0  0  0  0  0  0  0  0
  146.6561  137.2684  164.0239 H   0  0  0  0  0  0  0  0  0  0  0  0
  147.0456  138.3109  162.6573 H   0  0  0  0  0  0  0  0  0  0  0  0
  150.2016  142.8910  159.1764 H   0  0  0  0  0  0  0  0  0  0  0  0
  150.6255  143.1788  157.5077 H   0  0  0  0  0  0  0  0  0  0  0  0
  1  2  1  0  0  0  0
  1 22  1  0  0  0  0
  1 23  1  0  0  0  0
  1 24  1  0  0  0  0
  2 21  1  0  0  0  0
  2  3  1  0  0  0  0
  2 25  1  0  0  0  0
  3  4  1  0  0  0  0
  3 26  1  0  0  0  0
  3 27  1  0  0  0  0
  4  5  1  0  0  0  0
  4 28  1  0  0  0  0
  4 29  1  0  0  0  0
  5  6  1  0  0  0  0
  5 30  1  0  0  0  0
  5 31  1  0  0  0  0
  6  7  1  0  0  0  0
  6 21  1  0  0  0  0
  6 32  1  0  0  0  0
  7  8  1  0  0  0  0
  8  9  1  0  0  0  0
  8 33  1  0  0  0  0
  8 34  1  0  0  0  0
  9 10  2  0  0  0  0
  9 11  1  0  0  0  0
 11 12  1  0  0  0  0
 11 35  1  0  0  0  0
 12 20  1  0  0  0  0
 12 13  2  0  0  0  0
 13 14  1  0  0  0  0
 13 36  1  0  0  0  0
 14 15  2  0  0  0  0
 14 37  1  0  0  0  0
 15 16  1  0  0  0  0
 16 17  1  0  0  0  0
 16 20  2  0  0  0  0
 17 18  1  0  0  0  0
 17 19  1  0  0  0  0
 18 38  1  0  0  0  0
 18 39  1  0  0  0  0
 18 40  1  0  0  0  0
 19 41  1  0  0  0  0
 19 42  1  0  0  0  0
 19 43  1  0  0  0  0
 21 44  1  0  0  0  0
 21 45  1  0  0  0  0
M  END
> <s_m_source_file>
AV-unprocessed.smi

> <i_m_source_file_index>
3014

> <i_lp_mmshare_version>
43012

> <i_f3d_flags>
0

> <s_epik_input>
W0NIM11bQ0BASF0xW0NIMl1bQ0gyXVtDSDJdW0NASF0oW0NIMl0xKU9bQ0gyXUMoPU8pW05IXWMyW2NIXVtjSF1uYyhuMilOKFtDSDNdKVtDSDNd

> <s_epik_cmdline>
J2VwaWtfcHl0aG9uJywgJy1waCcsICc3LjAnLCAnLXRuJywgJzgnLCAnLW1hJywgJzIwMCcsICctbWV0YWxfYmluZGluZycsICctaW1hZScsICc8aW5maWxlLm1hZT4nLCAnLW9tYWUnLCAnPG91dGZpbGUubWFlPic=

> <r_lp_tautomer_probability>
1

> <r_epik_Ionization_Penalty>
0.000308195

> <r_epik_Ionization_Penalty_Charging>
0

> <r_epik_Ionization_Penalty_Neutral>
0.000308195

> <r_epik_State_Penalty>
-0

> <r_epik_Charging_Adjusted_Penalty>
0

> <i_epik_Tot_Q>
0

> <i_epik_Tot_abs_Q>
0

> <r_epik_Metal_State_Penalty>
-0

> <b_epik_Metal_Only>
0

> <s_lp_Force_Field>
OPLS_2005

> <r_lp_Energy>
10.093

> <b_lp_Chiralities_Consistent>
1

> <s_lp_Variant>
AV-unprocessed.smi:3014-2

> <Gold.Version>
5.8.1

> <Gold.Id.Protein>
6NUR|6NUR_protein|mol2

> <Gold.PLP.Fitness>
45.0656

> <Gold.PLP.PLP>
-43.1767

> <Gold.PLP.part.hbond>
-1.0000

> <Gold.PLP.part.metal>
0.0000

> <Gold.PLP.part.buried>
-5.4935

> <Gold.PLP.part.nonpolar>
-37.2958

> <Gold.PLP.part.repulsive>
0.2077

> <Gold.PLP.ligand.clash>
0.0000

> <Gold.PLP.ligand.torsion>
0.4585

> <Gold.PLP.Chemscore.Hbond>
0.9280

> <Gold.PLP.Chemscore.CHOScore>
0.0000

> <Gold.PLP.Chemscore.Metal>
0.0000

> <Gold.Chemscore.Hbonds>
donor molecule, donor type, donor heavy atom, donor atom, acceptor molecule, acceptor atom, score
      P1  H  6931  6943       L1    20  0.82
      P1  H  6934  6947       L1    20  0.31

> <Gold.PLP.Chemscore.Internal.Correction>
0.0219

> <Gold.Rescore>
     Score         DG    S(hbond)    S(metal)    S(lipo)     H(rot)  DE(clash)    DE(int)     intcor
     14.73     -16.95       0.90        0.00     103.59       1.43       0.07       2.16       ----

> <Gold.Chemscore.Fitness>
14.7269

> <Gold.Chemscore.DG>
-16.9533

> <Gold.Chemscore.ZeroCoef>
-5.4800

> <Gold.Chemscore.Hbond>
0.9031

> <Gold.Chemscore.Metal>
0.0000

> <Gold.Chemscore.Lipo>
103.5920

> <Gold.Chemscore.Internal_Hbond>
0.0000

> <Gold.Chemscore.DEClash>
0.0663

> <Gold.Chemscore.DEInternal>
2.1601

> <Gold.Chemscore.Rot>
1.4310

> <Gold.Chemscore.Internal.Correction>
   9.000000E+99

> <Gold.Chemscore.Hbonds>
donor molecule, donor type, donor heavy atom, donor atom, acceptor molecule, acceptor atom, score
      P1  H  6931  6943       L1    20  0.74
      P1  H  6934  6947       L1    20  0.15

> <Gold.Chemscore.Hbond.Weighted>
-3.0162

> <Gold.Chemscore.Metal.Weighted>
-0.0000

> <Gold.Chemscore.Lipo.Weighted>
-12.1203

> <Gold.Chemscore.Internal_Hbond.Weighted>
0.0000

> <Gold.Chemscore.DEClash.Weighted>
0.0663

> <Gold.Chemscore.DEInternal.Weighted>
2.1601

> <Gold.Chemscore.Rot.Weighted>
3.6632

> <Gold.Chemscore.Internal.Correction.Weighted>
   9.000000E+99

> <Gold.Protein.RotatedTorsions>
[ 6907 6896 6895 6894 ] final   74.33 input  -60.11 | X-H torsion
[ 7974 7965 7964 7962 ] final  -65.46 input  175.53 | X-H torsion
[ 8008 7997 7996 7995 ] final -125.46 input   59.86 | X-H torsion
[ 10167 10162 10161 10158 ] final -103.18 input  -65.29 | X-H torsion
[ 10718 10713 10712 10709 ] final   31.92 input   66.30 | X-H torsion
[ 10763 10752 10751 10750 ] final   -9.76 input  -60.55 | X-H torsion
[ 11005 11000 10999 10996 ] final  -46.76 input  -57.11 | X-H torsion

> <Gold.Protein.ActiveResidues>
 VAL166  LYS551  ARG553  GLY616  TRP617  ASP618  TYR619  PRO620  LYS621  CYS622 
 ASP623  PHE694  ASN695  SER759  ASP760  ASP761  ALA762  ILE779  LEU786  VAL792 
 PHE793  MET794  SER795  GLU796  ALA797  LYS798  CYS799  TRP800  GLU811  SER814 

> <Gold.Protein.RotatedAtoms>
  152.4970  134.4287  159.9504 H   0  0  0  0  0  0  0  0  0  0  0  0  # atno 6907 bound_to 6896
  151.4264  133.3677  159.2770 H   0  0  0  0  0  0  0  0  0  0  0  0  # atno 6908 bound_to 6896
  150.9186  134.8626  159.7533 H   0  0  0  0  0  0  0  0  0  0  0  0  # atno 6909 bound_to 6896
  145.7540  140.8894  143.0465 H   0  0  0  0  0  0  0  0  0  0  0  0  # atno 7974 bound_to 7965
  155.2137  140.0419  157.2937 H   0  0  0  0  0  0  0  0  0  0  0  0  # atno 8008 bound_to 7997
  154.5995  140.2448  155.7783 H   0  0  0  0  0  0  0  0  0  0  0  0  # atno 8009 bound_to 7997
  156.2311  140.2938  156.0201 H   0  0  0  0  0  0  0  0  0  0  0  0  # atno 8010 bound_to 7997
  140.2227  143.3664  152.0955 H   0  0  0  0  0  0  0  0  0  0  0  0  # atno 10167 bound_to 10162
  157.2787  130.7244  149.6544 H   0  0  0  0  0  0  0  0  0  0  0  0  # atno 10718 bound_to 10713
  153.4595  135.7016  153.6059 H   0  0  0  0  0  0  0  0  0  0  0  0  # atno 10763 bound_to 10752
  153.4360  135.3791  155.2199 H   0  0  0  0  0  0  0  0  0  0  0  0  # atno 10764 bound_to 10752
  154.8727  135.3962  154.4018 H   0  0  0  0  0  0  0  0  0  0  0  0  # atno 10765 bound_to 10752
  141.0599  133.6713  156.3200 H   0  0  0  0  0  0  0  0  0  0  0  0  # atno 11005 bound_to 11000
  144.6844  139.9630  143.7480 LP  0  0  0  0  0  0  0  0  0  0  0  0  # atno 17320 bound_to 7965
  146.0329  139.3351  143.0744 LP  0  0  0  0  0  0  0  0  0  0  0  0  # atno 17321 bound_to 7965
  139.5138  144.6938  151.5686 LP  0  0  0  0  0  0  0  0  0  0  0  0  # atno 17342 bound_to 10162
  140.6243  143.9199  150.6551 LP  0  0  0  0  0  0  0  0  0  0  0  0  # atno 17343 bound_to 10162
  155.9664  130.4345  150.5051 LP  0  0  0  0  0  0  0  0  0  0  0  0  # atno 17370 bound_to 10713
  157.2990  131.0641  151.2081 LP  0  0  0  0  0  0  0  0  0  0  0  0  # atno 17371 bound_to 10713
  140.5890  134.5669  157.5495 LP  0  0  0  0  0  0  0  0  0  0  0  0  # atno 17394 bound_to 11000
  139.9423  134.7765  156.0648 LP  0  0  0  0  0  0  0  0  0  0  0  0  # atno 17395 bound_to 11000

$$$$
