AV-unprocessed.smi:1|AV-procd|sdf|8|dock7
  -GOLD-   2262015 93D 1   1.00000     0.00000
 Structure written by MMmdl.
 57 62  0  0  0  0  0  0  0  0  1 V2000
  152.2861  139.8830  158.4890 O   0  0  0  0  0  0  0  0  0  0  0  0
  151.9303  140.8016  157.7501 C   0  0  0  0  0  0  0  0  0  0  0  0
  151.3933  140.5625  156.4220 N   0  0  0  0  0  0  0  0  0  0  0  0
  151.2648  139.3825  155.7712 C   0  0  0  0  0  0  0  0  0  0  0  0
  151.5038  139.2549  154.4403 N   0  0  0  0  0  0  0  0  0  0  0  0
  151.3615  138.0692  153.8444 C   0  0  0  0  0  0  0  0  0  0  0  0
  150.9960  136.9050  154.3838 N   0  0  0  0  0  0  0  0  0  0  0  0
  150.7574  137.0170  155.7239 C   0  0  0  0  0  0  0  0  0  0  0  0
  150.8681  138.2189  156.4802 C   0  0  0  0  0  0  0  0  0  0  0  0
  150.5433  137.9754  157.8068 N   0  0  0  0  0  0  0  0  0  0  0  0
  150.2560  136.7031  157.8310 C   0  0  0  0  0  0  0  0  0  0  0  0
  150.3704  136.0408  156.6280 N   0  0  0  0  0  0  0  0  0  0  0  0
  150.0987  134.5800  156.3913 C   0  0  1  0  0  0  0  0  0  0  0  0
  149.7832  133.9477  157.5935 O   0  0  0  0  0  0  0  0  0  0  0  0
  148.3762  133.7607  157.6871 C   0  0  2  0  0  0  0  0  0  0  0  0
  148.0535  132.6493  158.6890 C   0  0  0  0  0  0  0  0  0  0  0  0
  146.6484  132.4638  158.7190 O   0  0  0  0  0  0  0  0  0  0  0  0
  146.0678  131.8421  159.7622 C   0  0  0  0  0  0  0  0  0  0  0  0
  146.6635  131.5518  160.8017 O   0  0  0  0  0  0  0  0  0  0  0  0
  144.6277  131.5362  159.5238 C   0  0  0  0  0  0  0  0  0  0  0  0
  143.8269  131.0780  160.5959 C   0  0  0  0  0  0  0  0  0  0  0  0
  142.4646  130.7794  160.3965 C   0  0  0  0  0  0  0  0  0  0  0  0
  141.8865  130.9367  159.1233 C   0  0  0  0  0  0  0  0  0  0  0  0
  142.6720  131.3945  158.0492 C   0  0  0  0  0  0  0  0  0  0  0  0
  144.0340  131.6935  158.2473 C   0  0  0  0  0  0  0  0  0  0  0  0
  147.9867  133.4336  156.2475 C   0  0  1  0  0  0  0  0  0  0  0  0
  146.6355  133.7625  155.9759 O   0  0  0  0  0  0  0  0  0  0  0  0
  146.5705  135.3202  155.3748 S   0  0  0  0  0  0  0  0  0  0  0  0
  145.9482  135.2730  154.0430 O   0  0  0  0  0  0  0  0  0  0  0  0
  146.0902  136.2094  156.4433 O   0  0  0  0  0  0  0  0  0  0  0  0
  148.2075  135.5799  155.1796 O   0  0  0  0  0  0  0  0  0  0  0  0
  148.9009  134.3682  155.4421 C   0  0  1  0  0  0  0  0  0  0  0  0
  151.9511  142.2320  158.2050 C   0  0  0  0  0  0  0  0  0  0  0  0
  152.4870  142.5627  159.4699 C   0  0  0  0  0  0  0  0  0  0  0  0
  152.5267  143.9033  159.8995 C   0  0  0  0  0  0  0  0  0  0  0  0
  152.0372  144.9257  159.0650 C   0  0  0  0  0  0  0  0  0  0  0  0
  151.5121  144.6069  157.7985 C   0  0  0  0  0  0  0  0  0  0  0  0
  151.4721  143.2664  157.3676 C   0  0  0  0  0  0  0  0  0  0  0  0
  151.0966  141.3815  155.9116 H   0  0  0  0  0  0  0  0  0  0  0  0
  151.5721  138.0527  152.7856 H   0  0  0  0  0  0  0  0  0  0  0  0
  149.9581  136.2020  158.7407 H   0  0  0  0  0  0  0  0  0  0  0  0
  151.0399  134.1933  155.9991 H   0  0  0  0  0  0  0  0  0  0  0  0
  147.9022  134.6949  157.9906 H   0  0  0  0  0  0  0  0  0  0  0  0
  148.5321  131.7209  158.3748 H   0  0  0  0  0  0  0  0  0  0  0  0
  148.4302  132.8995  159.6816 H   0  0  0  0  0  0  0  0  0  0  0  0
  144.2496  130.9486  161.5819 H   0  0  0  0  0  0  0  0  0  0  0  0
  141.8633  130.4291  161.2224 H   0  0  0  0  0  0  0  0  0  0  0  0
  140.8419  130.7080  158.9707 H   0  0  0  0  0  0  0  0  0  0  0  0
  142.2300  131.5184  157.0715 H   0  0  0  0  0  0  0  0  0  0  0  0
  144.6085  132.0477  157.4047 H   0  0  0  0  0  0  0  0  0  0  0  0
  148.1973  132.3900  156.0103 H   0  0  0  0  0  0  0  0  0  0  0  0
  149.2298  133.9186  154.5049 H   0  0  0  0  0  0  0  0  0  0  0  0
  152.8677  141.7895  160.1219 H   0  0  0  0  0  0  0  0  0  0  0  0
  152.9339  144.1467  160.8698 H   0  0  0  0  0  0  0  0  0  0  0  0
  152.0679  145.9538  159.3945 H   0  0  0  0  0  0  0  0  0  0  0  0
  151.1421  145.3915  157.1552 H   0  0  0  0  0  0  0  0  0  0  0  0
  151.0732  143.0457  156.3880 H   0  0  0  0  0  0  0  0  0  0  0  0
  1  2  2  0  0  0  0
  2  3  1  0  0  0  0
  2 33  1  0  0  0  0
  3  4  1  0  0  0  0
  3 39  1  0  0  0  0
  4  9  1  0  0  0  0
  4  5  2  0  0  0  0
  5  6  1  0  0  0  0
  6  7  2  0  0  0  0
  6 40  1  0  0  0  0
  7  8  1  0  0  0  0
  8 12  1  0  0  0  0
  8  9  2  0  0  0  0
  9 10  1  0  0  0  0
 10 11  2  0  0  0  0
 11 12  1  0  0  0  0
 11 41  1  0  0  0  0
 12 13  1  0  0  0  0
 13 32  1  0  0  0  0
 13 14  1  0  0  0  0
 13 42  1  0  0  0  0
 14 15  1  0  0  0  0
 15 16  1  0  0  0  0
 15 26  1  0  0  0  0
 15 43  1  0  0  0  0
 16 17  1  0  0  0  0
 16 44  1  0  0  0  0
 16 45  1  0  0  0  0
 17 18  1  0  0  0  0
 18 19  2  0  0  0  0
 18 20  1  0  0  0  0
 20 25  1  0  0  0  0
 20 21  2  0  0  0  0
 21 22  1  0  0  0  0
 21 46  1  0  0  0  0
 22 23  2  0  0  0  0
 22 47  1  0  0  0  0
 23 24  1  0  0  0  0
 23 48  1  0  0  0  0
 24 25  2  0  0  0  0
 24 49  1  0  0  0  0
 25 50  1  0  0  0  0
 26 32  1  0  0  0  0
 26 27  1  0  0  0  0
 26 51  1  0  0  0  0
 27 28  1  0  0  0  0
 28 29  2  0  0  0  0
 28 30  2  0  0  0  0
 28 31  1  0  0  0  0
 31 32  1  0  0  0  0
 32 52  1  0  0  0  0
 33 38  1  0  0  0  0
 33 34  2  0  0  0  0
 34 35  1  0  0  0  0
 34 53  1  0  0  0  0
 35 36  2  0  0  0  0
 35 54  1  0  0  0  0
 36 37  1  0  0  0  0
 36 55  1  0  0  0  0
 37 38  2  0  0  0  0
 37 56  1  0  0  0  0
 38 57  1  0  0  0  0
M  END
> <s_m_source_file>
AV-unprocessed.smi

> <i_m_source_file_index>
1

> <i_lp_mmshare_version>
43012

> <i_f3d_flags>
0

> <s_epik_input>
W2NIXTFbY0hdW2NIXVtjSF1bY0hdYzFDKD1PKVtOSF1jKG5bY0hdbjIpYyhjMjMpbltjSF1uM1tDQEBIXShbQ0BIXShbQ0BIXTQ1KU9TKE81KSg9Tyk9TylPW0NASF00W0NIMl1PQyg9TyljNltjSF1bY0hdW2NIXVtjSF1bY0hdNg==

> <s_epik_cmdline>
J2VwaWtfcHl0aG9uJywgJy1waCcsICc3LjAnLCAnLXRuJywgJzgnLCAnLW1hJywgJzIwMCcsICctbWV0YWxfYmluZGluZycsICctaW1hZScsICc8aW5maWxlLm1hZT4nLCAnLW9tYWUnLCAnPG91dGZpbGUubWFlPic=

> <r_lp_tautomer_probability>
1

> <r_epik_Ionization_Penalty>
0.00195722

> <r_epik_Ionization_Penalty_Charging>
0

> <r_epik_Ionization_Penalty_Neutral>
0.00195722

> <r_epik_State_Penalty>
0.00633741

> <r_epik_Charging_Adjusted_Penalty>
0.00633741

> <i_epik_Tot_Q>
0

> <i_epik_Tot_abs_Q>
0

> <r_epik_Metal_State_Penalty>
0.341185

> <b_epik_Metal_Only>
0

> <s_epik_Chemistry_Notes>
This compound has an ester and may undergo hydrolysis at high or low pH. This compound contains an acetal/aminal-like group ( X-CH(R)-Y where X, Y are N, S, or O) that may be acid/base labile, releasing an aldehyde.

> <s_lp_Force_Field>
OPLS_2005

> <r_lp_Energy>
42.577

> <b_lp_Chiralities_Consistent>
1

> <s_lp_Variant>
AV-unprocessed.smi:1-8

> <Gold.Version>
5.8.1

> <Gold.Id.Protein>
6NUR|6NUR_protein|mol2

> <Gold.PLP.Fitness>
56.4131

> <Gold.PLP.PLP>
-46.1647

> <Gold.PLP.part.hbond>
-2.9896

> <Gold.PLP.part.metal>
0.0000

> <Gold.PLP.part.buried>
-7.8228

> <Gold.PLP.part.nonpolar>
-35.7237

> <Gold.PLP.part.repulsive>
0.5500

> <Gold.PLP.ligand.clash>
0.0000

> <Gold.PLP.ligand.torsion>
0.5451

> <Gold.PLP.Chemscore.Hbond>
2.8688

> <Gold.PLP.Chemscore.CHOScore>
0.8688

> <Gold.PLP.Chemscore.Metal>
0.0000

> <Gold.Chemscore.Hbonds>
donor molecule, donor type, donor heavy atom, donor atom, acceptor molecule, acceptor atom, score
      P1  H  6896  6908       L1    14  1.00
      P1  H  7989  7998       L1     5  1.00
      P1  H 10752 10764       L1     7  0.29
      L1  C     6    40       P1  7949  0.81

> <Gold.PLP.Chemscore.Internal.Correction>
0.1258

> <Gold.Rescore>
     Score         DG    S(hbond)    S(metal)    S(lipo)     H(rot)  DE(clash)    DE(int)     intcor
     14.29     -19.14       1.93        0.00     108.43       2.13       0.03       4.82       ----

> <Gold.Chemscore.Fitness>
14.2893

> <Gold.Chemscore.DG>
-19.1433

> <Gold.Chemscore.ZeroCoef>
-5.4800

> <Gold.Chemscore.Hbond>
1.9277

> <Gold.Chemscore.Metal>
0.0000

> <Gold.Chemscore.Lipo>
108.4292

> <Gold.Chemscore.Internal_Hbond>
0.0000

> <Gold.Chemscore.DEClash>
0.0309

> <Gold.Chemscore.DEInternal>
4.8230

> <Gold.Chemscore.Rot>
2.1333

> <Gold.Chemscore.Internal.Correction>
   9.000000E+99

> <Gold.Chemscore.Hbonds>
donor molecule, donor type, donor heavy atom, donor atom, acceptor molecule, acceptor atom, score
      P1  H  6896  6908       L1    14  0.90
      P1  H  7989  7998       L1     5  0.91
      P1  H 10752 10764       L1     7  0.04

> <Gold.Chemscore.Hbond.Weighted>
-6.4384

> <Gold.Chemscore.Metal.Weighted>
-0.0000

> <Gold.Chemscore.Lipo.Weighted>
-12.6862

> <Gold.Chemscore.Internal_Hbond.Weighted>
0.0000

> <Gold.Chemscore.DEClash.Weighted>
0.0309

> <Gold.Chemscore.DEInternal.Weighted>
4.8230

> <Gold.Chemscore.Rot.Weighted>
5.4614

> <Gold.Chemscore.Internal.Correction.Weighted>
   9.000000E+99

> <Gold.Protein.RotatedTorsions>
[ 6907 6896 6895 6894 ] final  115.82 input  -60.11 | X-H torsion
[ 7974 7965 7964 7962 ] final   60.34 input  175.53 | X-H torsion
[ 8008 7997 7996 7995 ] final   13.89 input   59.86 | X-H torsion
[ 10167 10162 10161 10158 ] final  -49.54 input  -65.29 | X-H torsion
[ 10718 10713 10712 10709 ] final  -89.86 input   66.30 | X-H torsion
[ 10763 10752 10751 10750 ] final  -68.78 input  -60.55 | X-H torsion
[ 11005 11000 10999 10996 ] final  119.42 input  -57.11 | X-H torsion

> <Gold.Protein.ActiveResidues>
 VAL166  LYS551  ARG553  GLY616  TRP617  ASP618  TYR619  PRO620  LYS621  CYS622 
 ASP623  PHE694  ASN695  SER759  ASP760  ASP761  ALA762  ILE779  LEU786  VAL792 
 PHE793  MET794  SER795  GLU796  ALA797  LYS798  CYS799  TRP800  GLU811  SER814 

> <Gold.Protein.RotatedAtoms>
  152.4717  133.8046  159.6970 H   0  0  0  0  0  0  0  0  0  0  0  0  # atno 6907 bound_to 6896
  150.8711  133.7495  159.2967 H   0  0  0  0  0  0  0  0  0  0  0  0  # atno 6908 bound_to 6896
  151.5030  135.1066  159.9886 H   0  0  0  0  0  0  0  0  0  0  0  0  # atno 6909 bound_to 6896
  145.8971  139.3553  143.0615 H   0  0  0  0  0  0  0  0  0  0  0  0  # atno 7974 bound_to 7965
  154.8408  140.2914  155.5661 H   0  0  0  0  0  0  0  0  0  0  0  0  # atno 8008 bound_to 7997
  156.3011  140.2514  156.3281 H   0  0  0  0  0  0  0  0  0  0  0  0  # atno 8009 bound_to 7997
  154.9128  140.0388  157.1945 H   0  0  0  0  0  0  0  0  0  0  0  0  # atno 8010 bound_to 7997
  140.6680  143.2694  151.4229 H   0  0  0  0  0  0  0  0  0  0  0  0  # atno 10167 bound_to 10162
  155.9985  130.4888  150.5236 H   0  0  0  0  0  0  0  0  0  0  0  0  # atno 10718 bound_to 10713
  154.3940  135.6046  153.5859 H   0  0  0  0  0  0  0  0  0  0  0  0  # atno 10763 bound_to 10752
  152.9787  135.5890  154.4263 H   0  0  0  0  0  0  0  0  0  0  0  0  # atno 10764 bound_to 10752
  154.4052  135.2843  155.2050 H   0  0  0  0  0  0  0  0  0  0  0  0  # atno 10765 bound_to 10752
  139.9146  134.9628  156.7652 H   0  0  0  0  0  0  0  0  0  0  0  0  # atno 11005 bound_to 11000
  145.8837  140.9347  143.0588 LP  0  0  0  0  0  0  0  0  0  0  0  0  # atno 17320 bound_to 7965
  144.6733  140.0814  143.7469 LP  0  0  0  0  0  0  0  0  0  0  0  0  # atno 17321 bound_to 7965
  139.5937  144.1444  152.2118 LP  0  0  0  0  0  0  0  0  0  0  0  0  # atno 17342 bound_to 10162
  140.0807  144.5703  150.7125 LP  0  0  0  0  0  0  0  0  0  0  0  0  # atno 17343 bound_to 10162
  157.3194  131.0679  151.1943 LP  0  0  0  0  0  0  0  0  0  0  0  0  # atno 17370 bound_to 10713
  157.2861  130.6774  149.6090 LP  0  0  0  0  0  0  0  0  0  0  0  0  # atno 17371 bound_to 10713
  140.6665  133.9598  155.7833 LP  0  0  0  0  0  0  0  0  0  0  0  0  # atno 17394 bound_to 11000
  141.0607  134.0350  157.3662 LP  0  0  0  0  0  0  0  0  0  0  0  0  # atno 17395 bound_to 11000

$$$$
