AV-unprocessed.smi:1843|AV-procd|sdf|7503|dock8
  -GOLD-   22720 9203D 1   1.00000     0.00000
 Structure written by MMmdl.
 37 39  0  0  0  0  0  0  0  0  1 V2000
  144.7750  136.3452  153.2656 O   0  0  0  0  0  0  0  0  0  0  0  0
  145.9262  136.3200  152.8297 C   0  0  0  0  0  0  0  0  0  0  0  0
  146.8689  137.2490  153.0673 N   0  0  0  0  0  0  0  0  0  0  0  0
  146.7630  138.4314  153.8465 C   0  0  0  0  0  0  0  0  0  0  0  0
  146.3880  138.4452  155.1329 N   0  0  0  0  0  0  0  0  0  0  0  0
  146.3672  139.7318  155.6525 N   0  0  0  0  0  0  0  0  0  0  0  0
  146.7269  140.6510  154.7485 C   0  0  0  0  0  0  0  0  0  0  0  0
  146.7808  142.1071  155.0721 C   0  0  0  0  0  0  0  0  0  0  0  0
  145.6336  142.8093  155.7656 C   0  0  0  0  0  0  0  0  0  0  0  0
  145.9271  143.0983  154.3154 C   0  0  0  0  0  0  0  0  0  0  0  0
  147.1258  140.0054  153.1596 S   0  0  0  0  0  0  0  0  0  0  0  0
  146.3980  135.3421  152.0433 N   0  0  0  0  0  0  0  0  0  0  0  0
  145.6368  134.1759  151.5988 C   0  0  1  0  0  0  0  0  0  0  0  0
  144.4875  134.6495  150.6813 C   0  0  0  0  0  0  0  0  0  0  0  0
  143.7341  133.4765  150.0377 C   0  0  0  0  0  0  0  0  0  0  0  0
  144.6960  132.5640  149.2658 C   0  0  0  0  0  0  0  0  0  0  0  0
  145.8072  132.0466  150.1887 C   0  0  0  0  0  0  0  0  0  0  0  0
  146.5796  133.2010  150.8549 C   0  0  2  0  0  0  0  0  0  0  0  0
  147.4873  132.6265  151.7740 O   0  0  0  0  0  0  0  0  0  0  0  0
  147.7692  137.0928  152.6392 H   0  0  0  0  0  0  0  0  0  0  0  0
  147.7939  142.4046  155.3357 H   0  0  0  0  0  0  0  0  0  0  0  0
  144.7342  142.2373  155.9848 H   0  0  0  0  0  0  0  0  0  0  0  0
  145.8832  143.5800  156.4917 H   0  0  0  0  0  0  0  0  0  0  0  0
  146.3727  144.0611  154.0735 H   0  0  0  0  0  0  0  0  0  0  0  0
  145.2326  142.7061  153.5748 H   0  0  0  0  0  0  0  0  0  0  0  0
  147.3546  135.4048  151.7276 H   0  0  0  0  0  0  0  0  0  0  0  0
  145.2067  133.6585  152.4593 H   0  0  0  0  0  0  0  0  0  0  0  0
  143.7866  135.2654  151.2465 H   0  0  0  0  0  0  0  0  0  0  0  0
  144.8874  135.2879  149.8919 H   0  0  0  0  0  0  0  0  0  0  0  0
  143.2212  132.9018  150.8100 H   0  0  0  0  0  0  0  0  0  0  0  0
  142.9614  133.8536  149.3673 H   0  0  0  0  0  0  0  0  0  0  0  0
  144.1488  131.7251  148.8353 H   0  0  0  0  0  0  0  0  0  0  0  0
  145.1349  133.1111  148.4304 H   0  0  0  0  0  0  0  0  0  0  0  0
  145.3637  131.4083  150.9549 H   0  0  0  0  0  0  0  0  0  0  0  0
  146.4929  131.4153  149.6224 H   0  0  0  0  0  0  0  0  0  0  0  0
  147.1454  133.7396  150.0932 H   0  0  0  0  0  0  0  0  0  0  0  0
  147.9961  131.9706  151.3227 H   0  0  0  0  0  0  0  0  0  0  0  0
  1  2  2  0  0  0  0
  2  3  1  0  0  0  0
  2 12  1  0  0  0  0
  3  4  1  0  0  0  0
  3 20  1  0  0  0  0
  4 11  1  0  0  0  0
  4  5  2  0  0  0  0
  5  6  1  0  0  0  0
  6  7  2  0  0  0  0
  7  8  1  0  0  0  0
  7 11  1  0  0  0  0
  8 10  1  0  0  0  0
  8  9  1  0  0  0  0
  8 21  1  0  0  0  0
  9 10  1  0  0  0  0
  9 22  1  0  0  0  0
  9 23  1  0  0  0  0
 10 24  1  0  0  0  0
 10 25  1  0  0  0  0
 12 13  1  0  0  0  0
 12 26  1  0  0  0  0
 13 18  1  0  0  0  0
 13 14  1  0  0  0  0
 13 27  1  0  0  0  0
 14 15  1  0  0  0  0
 14 28  1  0  0  0  0
 14 29  1  0  0  0  0
 15 16  1  0  0  0  0
 15 30  1  0  0  0  0
 15 31  1  0  0  0  0
 16 17  1  0  0  0  0
 16 32  1  0  0  0  0
 16 33  1  0  0  0  0
 17 18  1  0  0  0  0
 17 34  1  0  0  0  0
 17 35  1  0  0  0  0
 18 19  1  0  0  0  0
 18 36  1  0  0  0  0
 19 37  1  0  0  0  0
M  END
> <s_m_source_file>
AV-unprocessed.smi

> <i_m_source_file_index>
1843

> <i_lp_mmshare_version>
43012

> <i_f3d_flags>
0

> <s_epik_input>
W09IXVtDQEBIXTFbQ0gyXVtDSDJdW0NIMl1bQ0gyXVtDQEhdMVtOSF1DKD1PKVtOSF1jMm5uYyhzMilbQ0hdM1tDSDJdW0NIMl0z

> <s_epik_cmdline>
J2VwaWtfcHl0aG9uJywgJy1waCcsICc3LjAnLCAnLXRuJywgJzgnLCAnLW1hJywgJzIwMCcsICctbWV0YWxfYmluZGluZycsICctaW1hZScsICc8aW5maWxlLm1hZT4nLCAnLW9tYWUnLCAnPG91dGZpbGUubWFlPic=

> <r_lp_tautomer_probability>
1

> <r_epik_Ionization_Penalty>
0.000257313

> <r_epik_Ionization_Penalty_Charging>
0

> <r_epik_Ionization_Penalty_Neutral>
0.000257313

> <r_epik_State_Penalty>
-0

> <r_epik_Charging_Adjusted_Penalty>
0

> <i_epik_Tot_Q>
0

> <i_epik_Tot_abs_Q>
0

> <r_epik_Metal_State_Penalty>
0.147479

> <b_epik_Metal_Only>
0

> <s_lp_Force_Field>
OPLS_2005

> <r_lp_Energy>
8.53895

> <b_lp_Chiralities_Consistent>
1

> <s_lp_Variant>
AV-unprocessed.smi:1843-4

> <Gold.Version>
5.8.1

> <Gold.Id.Protein>
6NUR|6NUR_protein|mol2

> <Gold.PLP.Fitness>
41.4794

> <Gold.PLP.PLP>
-33.6826

> <Gold.PLP.part.hbond>
-3.0000

> <Gold.PLP.part.metal>
0.0000

> <Gold.PLP.part.buried>
-1.5422

> <Gold.PLP.part.nonpolar>
-28.8525

> <Gold.PLP.part.repulsive>
0.3624

> <Gold.PLP.ligand.clash>
0.0000

> <Gold.PLP.ligand.torsion>
0.6659

> <Gold.PLP.Chemscore.Hbond>
3.0000

> <Gold.PLP.Chemscore.CHOScore>
0.0000

> <Gold.PLP.Chemscore.Metal>
0.0000

> <Gold.Chemscore.Hbonds>
donor molecule, donor type, donor heavy atom, donor atom, acceptor molecule, acceptor atom, score
      L1  H     3    20       P1  7948  1.00
      L1  H    12    26       P1  7948  0.99
      L1  H    19    37       P1 10747  1.00

> <Gold.PLP.Chemscore.Internal.Correction>
0.1285

> <Gold.Rescore>
     Score         DG    S(hbond)    S(metal)    S(lipo)     H(rot)  DE(clash)    DE(int)     intcor
     19.42     -20.39       2.86        0.00      83.94       1.74       0.23       0.74       ----

> <Gold.Chemscore.Fitness>
19.4164

> <Gold.Chemscore.DG>
-20.3926

> <Gold.Chemscore.ZeroCoef>
-5.4800

> <Gold.Chemscore.Hbond>
2.8583

> <Gold.Chemscore.Metal>
0.0000

> <Gold.Chemscore.Lipo>
83.9425

> <Gold.Chemscore.Internal_Hbond>
0.0000

> <Gold.Chemscore.DEClash>
0.2325

> <Gold.Chemscore.DEInternal>
0.7438

> <Gold.Chemscore.Rot>
1.7404

> <Gold.Chemscore.Internal.Correction>
   9.000000E+99

> <Gold.Chemscore.Hbonds>
donor molecule, donor type, donor heavy atom, donor atom, acceptor molecule, acceptor atom, score
      L1  H     3    20       P1  7948  0.99
      L1  H    12    26       P1  7948  0.93
      L1  H    19    37       P1 10747  1.00

> <Gold.Chemscore.Hbond.Weighted>
-9.5468

> <Gold.Chemscore.Metal.Weighted>
-0.0000

> <Gold.Chemscore.Lipo.Weighted>
-9.8213

> <Gold.Chemscore.Internal_Hbond.Weighted>
0.0000

> <Gold.Chemscore.DEClash.Weighted>
0.2325

> <Gold.Chemscore.DEInternal.Weighted>
0.7438

> <Gold.Chemscore.Rot.Weighted>
4.4555

> <Gold.Chemscore.Internal.Correction.Weighted>
   9.000000E+99

> <Gold.Protein.RotatedTorsions>
[ 6907 6896 6895 6894 ] final  -94.95 input  -60.11 | X-H torsion
[ 7974 7965 7964 7962 ] final   -2.46 input  175.53 | X-H torsion
[ 8008 7997 7996 7995 ] final  134.21 input   59.86 | X-H torsion
[ 10167 10162 10161 10158 ] final  115.36 input  -65.29 | X-H torsion
[ 10718 10713 10712 10709 ] final  163.80 input   66.30 | X-H torsion
[ 10763 10752 10751 10750 ] final -137.78 input  -60.55 | X-H torsion
[ 11005 11000 10999 10996 ] final -115.45 input  -57.11 | X-H torsion

> <Gold.Protein.ActiveResidues>
 VAL166  LYS551  ARG553  GLY616  TRP617  ASP618  TYR619  PRO620  LYS621  CYS622 
 ASP623  PHE694  ASN695  SER759  ASP760  ASP761  ALA762  ILE779  LEU786  VAL792 
 PHE793  MET794  SER795  GLU796  ALA797  LYS798  CYS799  TRP800  GLU811  SER814 

> <Gold.Protein.RotatedAtoms>
  150.6953  134.1734  159.4220 H   0  0  0  0  0  0  0  0  0  0  0  0  # atno 6907 bound_to 6896
  151.9711  135.0074  160.0562 H   0  0  0  0  0  0  0  0  0  0  0  0  # atno 6908 bound_to 6896
  152.1841  133.4692  159.5010 H   0  0  0  0  0  0  0  0  0  0  0  0  # atno 6909 bound_to 6896
  146.2404  140.1574  142.8333 H   0  0  0  0  0  0  0  0  0  0  0  0  # atno 7974 bound_to 7965
  156.2997  140.2502  156.3379 H   0  0  0  0  0  0  0  0  0  0  0  0  # atno 8008 bound_to 7997
  154.9083  140.0404  157.1951 H   0  0  0  0  0  0  0  0  0  0  0  0  # atno 8009 bound_to 7997
  154.8431  140.2894  155.5650 H   0  0  0  0  0  0  0  0  0  0  0  0  # atno 8010 bound_to 7997
  139.6322  144.7116  151.2408 H   0  0  0  0  0  0  0  0  0  0  0  0  # atno 10167 bound_to 10162
  157.1034  131.0449  151.2488 H   0  0  0  0  0  0  0  0  0  0  0  0  # atno 10718 bound_to 10713
  154.8653  135.3632  154.5279 H   0  0  0  0  0  0  0  0  0  0  0  0  # atno 10763 bound_to 10752
  153.5906  135.7015  153.5429 H   0  0  0  0  0  0  0  0  0  0  0  0  # atno 10764 bound_to 10752
  153.3377  135.4107  155.1508 H   0  0  0  0  0  0  0  0  0  0  0  0  # atno 10765 bound_to 10752
  141.0487  133.9722  157.2873 H   0  0  0  0  0  0  0  0  0  0  0  0  # atno 11005 bound_to 11000
  145.0117  140.8719  143.5220 LP  0  0  0  0  0  0  0  0  0  0  0  0  # atno 17320 bound_to 7965
  145.1609  139.2459  143.5392 LP  0  0  0  0  0  0  0  0  0  0  0  0  # atno 17321 bound_to 7965
  140.7446  143.6459  150.8292 LP  0  0  0  0  0  0  0  0  0  0  0  0  # atno 17342 bound_to 10162
  140.0085  143.5667  152.2848 LP  0  0  0  0  0  0  0  0  0  0  0  0  # atno 17343 bound_to 10162
  157.4621  130.7659  149.7245 LP  0  0  0  0  0  0  0  0  0  0  0  0  # atno 17370 bound_to 10713
  155.9868  130.3972  150.3196 LP  0  0  0  0  0  0  0  0  0  0  0  0  # atno 17371 bound_to 10713
  139.9332  135.0198  156.8471 LP  0  0  0  0  0  0  0  0  0  0  0  0  # atno 17394 bound_to 11000
  140.6097  134.0094  155.7571 LP  0  0  0  0  0  0  0  0  0  0  0  0  # atno 17395 bound_to 11000

$$$$
