AV-unprocessed.smi:1504|AV-procd|sdf|6071|dock10
  -GOLD-   22720 6193D 1   1.00000     0.00000
 Structure written by MMmdl.
 39 40  0  0  0  0  0  0  0  0  1 V2000
  146.0732  137.4209  154.8353 O   0  0  0  0  0  0  0  0  0  0  0  0
  146.9440  137.0307  154.0575 C   0  0  0  0  0  0  0  0  0  0  0  0
  147.0789  135.7585  153.6594 N   0  0  0  0  0  0  0  0  0  0  0  0
  146.2332  134.6509  154.0953 C   0  0  0  0  0  0  0  0  0  0  0  0
  144.8268  134.6775  153.4637 C   0  0  0  0  0  0  0  0  0  0  0  0
  144.6907  133.7868  152.2404 C   0  0  0  0  0  0  0  0  0  0  0  0
  145.8321  133.2426  151.6134 C   0  0  0  0  0  0  0  0  0  0  0  0
  145.6503  132.4210  150.4844 C   0  0  0  0  0  0  0  0  0  0  0  0
  144.3410  132.1771  150.0273 C   0  0  0  0  0  0  0  0  0  0  0  0
  143.2674  132.7684  150.7227 C   0  0  0  0  0  0  0  0  0  0  0  0
  143.4306  133.5568  151.8071 N   0  0  0  0  0  0  0  0  0  0  0  0
  147.8755  137.8247  153.5110 N   0  0  0  0  0  0  0  0  0  0  0  0
  148.0000  139.2616  153.7369 C   0  0  0  0  0  0  0  0  0  0  0  0
  148.9845  139.5947  154.8763 C   0  0  2  0  0  0  0  0  0  0  0  0
  149.4658  141.0618  154.8861 C   0  0  0  0  0  0  0  0  0  0  0  0
  150.6418  141.1876  155.8586 C   0  0  0  0  0  0  0  0  0  0  0  0
  151.5531  139.6057  155.7320 S   0  0  0  0  0  0  0  0  0  0  0  0
  152.7047  139.7743  154.8329 O   0  0  0  0  0  0  0  0  0  0  0  0
  151.7203  139.0394  157.0790 O   0  0  0  0  0  0  0  0  0  0  0  0
  150.2323  138.6969  154.8417 C   0  0  0  0  0  0  0  0  0  0  0  0
  147.8231  135.5358  153.0145 H   0  0  0  0  0  0  0  0  0  0  0  0
  146.7381  133.7258  153.8156 H   0  0  0  0  0  0  0  0  0  0  0  0
  146.1597  134.6427  155.1838 H   0  0  0  0  0  0  0  0  0  0  0  0
  144.0879  134.3729  154.2059 H   0  0  0  0  0  0  0  0  0  0  0  0
  144.5659  135.7001  153.1881 H   0  0  0  0  0  0  0  0  0  0  0  0
  146.8241  133.4463  151.9897 H   0  0  0  0  0  0  0  0  0  0  0  0
  146.4996  131.9865  149.9783 H   0  0  0  0  0  0  0  0  0  0  0  0
  144.1634  131.5533  149.1638 H   0  0  0  0  0  0  0  0  0  0  0  0
  142.2503  132.6033  150.3991 H   0  0  0  0  0  0  0  0  0  0  0  0
  148.5465  137.4053  152.8839 H   0  0  0  0  0  0  0  0  0  0  0  0
  148.3586  139.7060  152.8080 H   0  0  0  0  0  0  0  0  0  0  0  0
  147.0237  139.7101  153.9292 H   0  0  0  0  0  0  0  0  0  0  0  0
  148.4836  139.4125  155.8285 H   0  0  0  0  0  0  0  0  0  0  0  0
  149.8051  141.3339  153.8857 H   0  0  0  0  0  0  0  0  0  0  0  0
  148.6660  141.7536  155.1509 H   0  0  0  0  0  0  0  0  0  0  0  0
  151.3010  142.0250  155.6293 H   0  0  0  0  0  0  0  0  0  0  0  0
  150.2862  141.2912  156.8840 H   0  0  0  0  0  0  0  0  0  0  0  0
  150.0678  137.7247  155.3067 H   0  0  0  0  0  0  0  0  0  0  0  0
  150.5742  138.5368  153.8187 H   0  0  0  0  0  0  0  0  0  0  0  0
  1  2  2  0  0  0  0
  2  3  1  0  0  0  0
  2 12  1  0  0  0  0
  3  4  1  0  0  0  0
  3 21  1  0  0  0  0
  4  5  1  0  0  0  0
  4 22  1  0  0  0  0
  4 23  1  0  0  0  0
  5  6  1  0  0  0  0
  5 24  1  0  0  0  0
  5 25  1  0  0  0  0
  6 11  1  0  0  0  0
  6  7  2  0  0  0  0
  7  8  1  0  0  0  0
  7 26  1  0  0  0  0
  8  9  2  0  0  0  0
  8 27  1  0  0  0  0
  9 10  1  0  0  0  0
  9 28  1  0  0  0  0
 10 11  2  0  0  0  0
 10 29  1  0  0  0  0
 12 13  1  0  0  0  0
 12 30  1  0  0  0  0
 13 14  1  0  0  0  0
 13 31  1  0  0  0  0
 13 32  1  0  0  0  0
 14 20  1  0  0  0  0
 14 15  1  0  0  0  0
 14 33  1  0  0  0  0
 15 16  1  0  0  0  0
 15 34  1  0  0  0  0
 15 35  1  0  0  0  0
 16 17  1  0  0  0  0
 16 36  1  0  0  0  0
 16 37  1  0  0  0  0
 17 18  2  0  0  0  0
 17 19  2  0  0  0  0
 17 20  1  0  0  0  0
 20 38  1  0  0  0  0
 20 39  1  0  0  0  0
M  END
> <s_m_source_file>
AV-unprocessed.smi

> <i_m_source_file_index>
1504

> <i_lp_mmshare_version>
43012

> <i_f3d_flags>
0

> <s_epik_input>
Tz1TMSg9TylbQ0gyXVtDSDJdW0NASF0oW0NIMl0xKVtDSDJdW05IXUMoPU8pW05IXVtDSDJdW0NIMl1jMltjSF1bY0hdW2NIXVtjSF1uMg==

> <s_epik_cmdline>
J2VwaWtfcHl0aG9uJywgJy1waCcsICc3LjAnLCAnLXRuJywgJzgnLCAnLW1hJywgJzIwMCcsICctbWV0YWxfYmluZGluZycsICctaW1hZScsICc8aW5maWxlLm1hZT4nLCAnLW9tYWUnLCAnPG91dGZpbGUubWFlPic=

> <r_epik_Ionization_Penalty>
0.0431785

> <r_epik_Ionization_Penalty_Charging>
0

> <r_epik_Ionization_Penalty_Neutral>
0.0431785

> <r_epik_State_Penalty>
0.0364691

> <r_epik_Charging_Adjusted_Penalty>
0.0364691

> <i_epik_Tot_Q>
0

> <i_epik_Tot_abs_Q>
0

> <r_epik_Metal_State_Penalty>
0.0339827

> <b_epik_Metal_Only>
0

> <s_lp_Force_Field>
OPLS_2005

> <r_lp_Energy>
2.61241

> <b_lp_Chiralities_Consistent>
1

> <s_lp_Variant>
AV-unprocessed.smi:1504-1

> <Gold.Version>
5.8.1

> <Gold.Id.Protein>
6NUR|6NUR_protein|mol2

> <Gold.PLP.Fitness>
42.9119

> <Gold.PLP.PLP>
-31.1612

> <Gold.PLP.part.hbond>
-3.7481

> <Gold.PLP.part.metal>
0.0000

> <Gold.PLP.part.buried>
-2.9140

> <Gold.PLP.part.nonpolar>
-25.2333

> <Gold.PLP.part.repulsive>
0.2910

> <Gold.PLP.ligand.clash>
0.0000

> <Gold.PLP.ligand.torsion>
0.8209

> <Gold.PLP.Chemscore.Hbond>
3.2146

> <Gold.PLP.Chemscore.CHOScore>
1.2439

> <Gold.PLP.Chemscore.Metal>
0.0000

> <Gold.Chemscore.Hbonds>
donor molecule, donor type, donor heavy atom, donor atom, acceptor molecule, acceptor atom, score
      L1  H     3    21       P1  7948  0.90
      L1  H    12    30       P1  7948  1.00
      P1  H  7989  7998       L1    18  0.36
      P1  H  7997  8008       L1    18  0.86
      L1  C    10    29       P1 10186  0.80
      L1  C    10    29       P1 10952  0.37

> <Gold.PLP.Chemscore.Internal.Correction>
0.0170

> <Gold.Rescore>
     Score         DG    S(hbond)    S(metal)    S(lipo)     H(rot)  DE(clash)    DE(int)     intcor
     18.05     -18.96       2.92        0.00      73.60       1.91       0.20       0.71       ----

> <Gold.Chemscore.Fitness>
18.0463

> <Gold.Chemscore.DG>
-18.9611

> <Gold.Chemscore.ZeroCoef>
-5.4800

> <Gold.Chemscore.Hbond>
2.9222

> <Gold.Chemscore.Metal>
0.0000

> <Gold.Chemscore.Lipo>
73.6032

> <Gold.Chemscore.Internal_Hbond>
0.0000

> <Gold.Chemscore.DEClash>
0.2035

> <Gold.Chemscore.DEInternal>
0.7113

> <Gold.Chemscore.Rot>
1.9105

> <Gold.Chemscore.Internal.Correction>
   9.000000E+99

> <Gold.Chemscore.Hbonds>
donor molecule, donor type, donor heavy atom, donor atom, acceptor molecule, acceptor atom, score
      L1  H     3    21       P1  7948  0.88
      L1  H    12    30       P1  7948  0.94
      P1  H  7989  7998       L1    18  0.04
      P1  H  7997  8008       L1    18  0.66

> <Gold.Chemscore.Hbond.Weighted>
-9.7603

> <Gold.Chemscore.Metal.Weighted>
-0.0000

> <Gold.Chemscore.Lipo.Weighted>
-8.6116

> <Gold.Chemscore.Internal_Hbond.Weighted>
0.0000

> <Gold.Chemscore.DEClash.Weighted>
0.2035

> <Gold.Chemscore.DEInternal.Weighted>
0.7113

> <Gold.Chemscore.Rot.Weighted>
4.8908

> <Gold.Chemscore.Internal.Correction.Weighted>
   9.000000E+99

> <Gold.Protein.RotatedTorsions>
[ 6907 6896 6895 6894 ] final   95.12 input  -60.11 | X-H torsion
[ 7974 7965 7964 7962 ] final  175.30 input  175.53 | X-H torsion
[ 8008 7997 7996 7995 ] final  -17.34 input   59.86 | X-H torsion
[ 10167 10162 10161 10158 ] final    4.97 input  -65.29 | X-H torsion
[ 10718 10713 10712 10709 ] final   -7.26 input   66.30 | X-H torsion
[ 10763 10752 10751 10750 ] final  -97.71 input  -60.55 | X-H torsion
[ 11005 11000 10999 10996 ] final  -19.21 input  -57.11 | X-H torsion

> <Gold.Protein.ActiveResidues>
 VAL166  LYS551  ARG553  GLY616  TRP617  ASP618  TYR619  PRO620  LYS621  CYS622 
 ASP623  PHE694  ASN695  SER759  ASP760  ASP761  ALA762  ILE779  LEU786  VAL792 
 PHE793  MET794  SER795  GLU796  ALA797  LYS798  CYS799  TRP800  GLU811  SER814 

> <Gold.Protein.RotatedAtoms>
  152.5445  134.1088  159.8349 H   0  0  0  0  0  0  0  0  0  0  0  0  # atno 6907 bound_to 6896
  151.1157  133.5133  159.2611 H   0  0  0  0  0  0  0  0  0  0  0  0  # atno 6908 bound_to 6896
  151.1834  135.0381  159.8857 H   0  0  0  0  0  0  0  0  0  0  0  0  # atno 6909 bound_to 6896
  144.7204  139.9926  143.6440 H   0  0  0  0  0  0  0  0  0  0  0  0  # atno 7974 bound_to 7965
  154.4985  140.2145  155.9395 H   0  0  0  0  0  0  0  0  0  0  0  0  # atno 8008 bound_to 7997
  156.1403  140.3181  155.8452 H   0  0  0  0  0  0  0  0  0  0  0  0  # atno 8009 bound_to 7997
  155.4133  140.0492  157.3021 H   0  0  0  0  0  0  0  0  0  0  0  0  # atno 8010 bound_to 7997
  140.6507  143.7552  150.7570 H   0  0  0  0  0  0  0  0  0  0  0  0  # atno 10167 bound_to 10162
  156.7199  130.5147  149.5871 H   0  0  0  0  0  0  0  0  0  0  0  0  # atno 10718 bound_to 10713
  154.7352  135.5036  153.9029 H   0  0  0  0  0  0  0  0  0  0  0  0  # atno 10763 bound_to 10752
  153.0988  135.6679  153.9720 H   0  0  0  0  0  0  0  0  0  0  0  0  # atno 10764 bound_to 10752
  153.9512  135.3057  155.3417 H   0  0  0  0  0  0  0  0  0  0  0  0  # atno 10765 bound_to 10752
  140.8344  133.7973  155.9793 H   0  0  0  0  0  0  0  0  0  0  0  0  # atno 11005 bound_to 11000
  146.0400  139.3412  143.0703 LP  0  0  0  0  0  0  0  0  0  0  0  0  # atno 17320 bound_to 7965
  145.8347  140.9612  143.0830 LP  0  0  0  0  0  0  0  0  0  0  0  0  # atno 17321 bound_to 7965
  140.1202  143.4619  152.2318 LP  0  0  0  0  0  0  0  0  0  0  0  0  # atno 17342 bound_to 10162
  139.5722  144.7468  151.3861 LP  0  0  0  0  0  0  0  0  0  0  0  0  # atno 17343 bound_to 10162
  156.1602  130.6369  151.0709 LP  0  0  0  0  0  0  0  0  0  0  0  0  # atno 17370 bound_to 10713
  157.6902  131.0812  150.7128 LP  0  0  0  0  0  0  0  0  0  0  0  0  # atno 17371 bound_to 10713
  140.8963  134.2433  157.5066 LP  0  0  0  0  0  0  0  0  0  0  0  0  # atno 17394 bound_to 11000
  139.8704  134.9685  156.4635 LP  0  0  0  0  0  0  0  0  0  0  0  0  # atno 17395 bound_to 11000

$$$$
