AV-unprocessed.smi:102|AV-procd|sdf|975|dock7
  -GOLD-   2262017533D 1   1.00000     0.00000
 Structure written by MMmdl.
 43 44  0  0  0  0  0  0  0  0  2 V2000
  144.9595  135.9481  151.1453 C   0  0  0  0  0  0  0  0  0  0  0  0
  145.9012  137.0747  151.5496 C   0  0  0  0  0  0  0  0  0  0  0  0
  146.6211  137.6393  150.7257 O   0  0  0  0  0  0  0  0  0  0  0  0
  145.8379  137.3488  152.8609 O   0  0  0  0  0  0  0  0  0  0  0  0
  146.6438  138.3844  153.3980 C   0  0  0  0  0  0  0  0  0  0  0  0
  148.0162  137.8165  153.7849 C   0  0  2  0  0  0  0  0  0  0  0  0
  147.9041  136.8792  154.8492 O   0  0  0  0  0  0  0  0  0  0  0  0
  149.1398  136.7606  155.4911 C   0  0  2  0  0  0  0  0  0  0  0  0
  148.9078  136.7474  156.9882 N   0  0  0  0  0  0  0  0  0  0  0  0
  147.6597  137.0435  157.5096 C   0  0  0  0  0  0  0  0  0  0  0  0
  147.4435  137.0602  158.8402 C   0  0  0  0  0  0  0  0  0  0  0  0
  146.2213  137.3544  159.3159 F   0  0  0  0  0  0  0  0  0  0  0  0
  148.5436  136.7609  159.7549 C   0  0  0  0  0  0  0  0  0  0  0  0
  148.3397  136.7722  160.9679 O   0  0  0  0  0  0  0  0  0  0  0  0
  149.7645  136.4799  159.2138 N   0  5  0  0  0  0  0  0  0  0  0  0
  149.9907  136.4715  157.8674 C   0  0  0  0  0  0  0  0  0  0  0  0
  151.0958  136.2483  157.3730 O   0  0  0  0  0  0  0  0  0  0  0  0
  150.0179  137.9458  155.0343 C   0  0  2  0  0  0  0  0  0  0  0  0
  150.6988  138.5920  156.1071 O   0  0  0  0  0  0  0  0  0  0  0  0
  151.5493  139.6006  155.8622 C   0  0  0  0  0  0  0  0  0  0  0  0
  152.1256  140.1916  157.1415 C   0  0  0  0  0  0  0  0  0  0  0  0
  151.8525  140.0421  154.7537 O   0  0  0  0  0  0  0  0  0  0  0  0
  149.0121  138.8465  154.3228 C   0  0  2  0  0  0  0  0  0  0  0  0
  148.3397  139.7140  155.2349 O   0  0  0  0  0  0  0  0  0  0  0  0
  148.2386  141.0322  154.9915 C   0  0  0  0  0  0  0  0  0  0  0  0
  147.4017  141.7536  156.0397 C   0  0  0  0  0  0  0  0  0  0  0  0
  148.7476  141.6391  154.0494 O   0  0  0  0  0  0  0  0  0  0  0  0
  143.9422  136.1698  151.4686 H   0  0  0  0  0  0  0  0  0  0  0  0
  145.2732  135.0103  151.6038 H   0  0  0  0  0  0  0  0  0  0  0  0
  144.9574  135.8202  150.0626 H   0  0  0  0  0  0  0  0  0  0  0  0
  146.7652  139.1616  152.6424 H   0  0  0  0  0  0  0  0  0  0  0  0
  146.1596  138.8390  154.2637 H   0  0  0  0  0  0  0  0  0  0  0  0
  148.4661  137.3145  152.9264 H   0  0  0  0  0  0  0  0  0  0  0  0
  149.5682  135.7911  155.2336 H   0  0  0  0  0  0  0  0  0  0  0  0
  146.8377  137.2709  156.8479 H   0  0  0  0  0  0  0  0  0  0  0  0
  150.7256  137.5452  154.3067 H   0  0  0  0  0  0  0  0  0  0  0  0
  152.6068  139.4130  157.7338 H   0  0  0  0  0  0  0  0  0  0  0  0
  151.3332  140.6424  157.7390 H   0  0  0  0  0  0  0  0  0  0  0  0
  152.8653  140.9584  156.9110 H   0  0  0  0  0  0  0  0  0  0  0  0
  149.4737  139.4047  153.5071 H   0  0  0  0  0  0  0  0  0  0  0  0
  147.2180  141.1103  156.9008 H   0  0  0  0  0  0  0  0  0  0  0  0
  146.4417  142.0488  155.6169 H   0  0  0  0  0  0  0  0  0  0  0  0
  147.9192  142.6491  156.3842 H   0  0  0  0  0  0  0  0  0  0  0  0
  1  2  1  0  0  0  0
  1 28  1  0  0  0  0
  1 29  1  0  0  0  0
  1 30  1  0  0  0  0
  2  3  2  0  0  0  0
  2  4  1  0  0  0  0
  4  5  1  0  0  0  0
  5  6  1  0  0  0  0
  5 31  1  0  0  0  0
  5 32  1  0  0  0  0
  6 23  1  0  0  0  0
  6  7  1  0  0  0  0
  6 33  1  0  0  0  0
  7  8  1  0  0  0  0
  8  9  1  0  0  0  0
  8 18  1  0  0  0  0
  8 34  1  0  0  0  0
  9 16  1  0  0  0  0
  9 10  1  0  0  0  0
 10 11  2  0  0  0  0
 10 35  1  0  0  0  0
 11 12  1  0  0  0  0
 11 13  1  0  0  0  0
 13 14  2  0  0  0  0
 13 15  1  0  0  0  0
 15 16  1  0  0  0  0
 16 17  2  0  0  0  0
 18 19  1  0  0  0  0
 18 23  1  0  0  0  0
 18 36  1  0  0  0  0
 19 20  1  0  0  0  0
 20 21  1  0  0  0  0
 20 22  2  0  0  0  0
 21 37  1  0  0  0  0
 21 38  1  0  0  0  0
 21 39  1  0  0  0  0
 23 24  1  0  0  0  0
 23 40  1  0  0  0  0
 24 25  1  0  0  0  0
 25 26  1  0  0  0  0
 25 27  2  0  0  0  0
 26 41  1  0  0  0  0
 26 42  1  0  0  0  0
 26 43  1  0  0  0  0
M  CHG  1  15  -1
M  END
> <s_m_source_file>
AV-unprocessed.smi

> <i_m_source_file_index>
102

> <i_lp_mmshare_version>
43012

> <i_f3d_flags>
0

> <s_epik_input>
W0NIM11DKD1PKU9bQ0gyXVtDQEBIXTFPW0NASF0oW0NAQEhdKE9DKD1PKVtDSDNdKVtDQEhdMU9DKD1PKVtDSDNdKW4yW2NIXWMoRiljKD1PKVtuSF1jMj1P

> <s_epik_cmdline>
J2VwaWtfcHl0aG9uJywgJy1waCcsICc3LjAnLCAnLXRuJywgJzgnLCAnLW1hJywgJzIwMCcsICctbWV0YWxfYmluZGluZycsICctaW1hZScsICc8aW5maWxlLm1hZT4nLCAnLW9tYWUnLCAnPG91dGZpbGUubWFlPic=

> <r_epik_Ionization_Penalty>
1.40304

> <r_epik_Ionization_Penalty_Charging>
1.43915e-08

> <r_epik_Ionization_Penalty_Neutral>
1.40304

> <r_epik_State_Penalty>
1.48536

> <r_epik_Charging_Adjusted_Penalty>
1.48536

> <i_epik_Tot_Q>
-1

> <i_epik_Tot_abs_Q>
1

> <r_epik_Metal_State_Penalty>
0.00663881

> <b_epik_Metal_Only>
0

> <s_epik_Chemistry_Notes>
This compound has an ester and may undergo hydrolysis at high or low pH. This compound contains an acetal/aminal-like group ( X-CH(R)-Y where X, Y are N, S, or O) that may be acid/base labile, releasing an aldehyde.

> <s_lp_Force_Field>
OPLS_2005

> <r_lp_Energy>
23.9264

> <b_lp_Chiralities_Consistent>
1

> <s_lp_Variant>
AV-unprocessed.smi:102-31

> <Gold.Version>
5.8.1

> <Gold.Id.Protein>
6NUR|6NUR_protein|mol2

> <Gold.PLP.Fitness>
36.7516

> <Gold.PLP.PLP>
-22.3069

> <Gold.PLP.part.hbond>
-5.0256

> <Gold.PLP.part.metal>
0.0000

> <Gold.PLP.part.buried>
0.7672

> <Gold.PLP.part.nonpolar>
-20.8561

> <Gold.PLP.part.repulsive>
2.9931

> <Gold.PLP.ligand.clash>
0.0000

> <Gold.PLP.ligand.torsion>
1.0908

> <Gold.PLP.Chemscore.Hbond>
5.4848

> <Gold.PLP.Chemscore.CHOScore>
0.0000

> <Gold.PLP.Chemscore.Metal>
0.0000

> <Gold.Chemscore.Hbonds>
donor molecule, donor type, donor heavy atom, donor atom, acceptor molecule, acceptor atom, score
      P1  H  6896  6908       L1    15  1.90
      P1  H  6931  6943       L1    14  1.00
      P1  H  7954  7966       L1     3  1.00
      P1  H  7989  7998       L1    22  0.87
      P1  H  8011  8017       L1    27  0.41

> <Gold.PLP.Chemscore.Internal.Correction>
0.1719

> <Gold.Rescore>
     Score         DG    S(hbond)    S(metal)    S(lipo)     H(rot)  DE(clash)    DE(int)     intcor
      5.24     -11.72       3.65        0.00      36.66       4.00       3.17       3.31       ----

> <Gold.Chemscore.Fitness>
5.2377

> <Gold.Chemscore.DG>
-11.7175

> <Gold.Chemscore.ZeroCoef>
-5.4800

> <Gold.Chemscore.Hbond>
3.6453

> <Gold.Chemscore.Metal>
0.0000

> <Gold.Chemscore.Lipo>
36.6626

> <Gold.Chemscore.Internal_Hbond>
0.0000

> <Gold.Chemscore.DEClash>
3.1667

> <Gold.Chemscore.DEInternal>
3.3131

> <Gold.Chemscore.Rot>
3.9951

> <Gold.Chemscore.Internal.Correction>
   9.000000E+99

> <Gold.Chemscore.Hbonds>
donor molecule, donor type, donor heavy atom, donor atom, acceptor molecule, acceptor atom, score
      P1  H  6896  6908       L1    15  0.21
      P1  H  6931  6943       L1    14  0.91
      P1  H  7954  7966       L1     3  0.98
      P1  H  7989  7998       L1    22  0.82
      P1  H  8011  8017       L1    27  0.41

> <Gold.Chemscore.Hbond.Weighted>
-12.1754

> <Gold.Chemscore.Metal.Weighted>
-0.0000

> <Gold.Chemscore.Lipo.Weighted>
-4.2895

> <Gold.Chemscore.Internal_Hbond.Weighted>
0.0000

> <Gold.Chemscore.DEClash.Weighted>
3.1667

> <Gold.Chemscore.DEInternal.Weighted>
3.3131

> <Gold.Chemscore.Rot.Weighted>
10.2274

> <Gold.Chemscore.Internal.Correction.Weighted>
   9.000000E+99

> <Gold.Protein.RotatedTorsions>
[ 6907 6896 6895 6894 ] final -163.80 input  -60.11 | X-H torsion
[ 7974 7965 7964 7962 ] final    4.04 input  175.53 | X-H torsion
[ 8008 7997 7996 7995 ] final  -53.22 input   59.86 | X-H torsion
[ 10167 10162 10161 10158 ] final -172.01 input  -65.29 | X-H torsion
[ 10718 10713 10712 10709 ] final  -48.02 input   66.30 | X-H torsion
[ 10763 10752 10751 10750 ] final -155.57 input  -60.55 | X-H torsion
[ 11005 11000 10999 10996 ] final   67.06 input  -57.11 | X-H torsion

> <Gold.Protein.ActiveResidues>
 VAL166  LYS551  ARG553  GLY616  TRP617  ASP618  TYR619  PRO620  LYS621  CYS622 
 ASP623  PHE694  ASN695  SER759  ASP760  ASP761  ALA762  ILE779  LEU786  VAL792 
 PHE793  MET794  SER795  GLU796  ALA797  LYS798  CYS799  TRP800  GLU811  SER814 

> <Gold.Protein.RotatedAtoms>
  151.4017  133.3755  159.2732 H   0  0  0  0  0  0  0  0  0  0  0  0  # atno 6907 bound_to 6896
  150.9429  134.8837  159.7634 H   0  0  0  0  0  0  0  0  0  0  0  0  # atno 6908 bound_to 6896
  152.5079  134.3968  159.9455 H   0  0  0  0  0  0  0  0  0  0  0  0  # atno 6909 bound_to 6896
  146.2444  140.0594  142.8369 H   0  0  0  0  0  0  0  0  0  0  0  0  # atno 7974 bound_to 7965
  154.4127  140.1205  156.5118 H   0  0  0  0  0  0  0  0  0  0  0  0  # atno 8008 bound_to 7997
  155.6791  140.3496  155.4829 H   0  0  0  0  0  0  0  0  0  0  0  0  # atno 8009 bound_to 7997
  155.9567  140.1115  157.0921 H   0  0  0  0  0  0  0  0  0  0  0  0  # atno 8010 bound_to 7997
  139.5769  144.1512  152.1463 H   0  0  0  0  0  0  0  0  0  0  0  0  # atno 10167 bound_to 10162
  156.2028  130.4157  149.9218 H   0  0  0  0  0  0  0  0  0  0  0  0  # atno 10718 bound_to 10713
  154.7777  135.3165  154.8056 H   0  0  0  0  0  0  0  0  0  0  0  0  # atno 10763 bound_to 10752
  153.8776  135.6838  153.4773 H   0  0  0  0  0  0  0  0  0  0  0  0  # atno 10764 bound_to 10752
  153.1405  135.4741  154.9425 H   0  0  0  0  0  0  0  0  0  0  0  0  # atno 10765 bound_to 10752
  139.9794  134.6769  156.0292 H   0  0  0  0  0  0  0  0  0  0  0  0  # atno 11005 bound_to 11000
  145.0913  140.9286  143.4767 LP  0  0  0  0  0  0  0  0  0  0  0  0  # atno 17320 bound_to 7965
  145.0768  139.2990  143.5804 LP  0  0  0  0  0  0  0  0  0  0  0  0  # atno 17321 bound_to 7965
  140.1056  144.5501  150.6959 LP  0  0  0  0  0  0  0  0  0  0  0  0  # atno 17342 bound_to 10162
  140.7051  143.2462  151.4750 LP  0  0  0  0  0  0  0  0  0  0  0  0  # atno 17343 bound_to 10162
  156.6922  130.8900  151.3589 LP  0  0  0  0  0  0  0  0  0  0  0  0  # atno 17370 bound_to 10713
  157.6995  130.9318  150.0744 LP  0  0  0  0  0  0  0  0  0  0  0  0  # atno 17371 bound_to 10713
  141.1467  133.6555  156.3890 LP  0  0  0  0  0  0  0  0  0  0  0  0  # atno 17394 bound_to 11000
  140.5128  134.6379  157.5290 LP  0  0  0  0  0  0  0  0  0  0  0  0  # atno 17395 bound_to 11000

$$$$
