AV-unprocessed.smi:1232|AV-procd|sdf|5169|dock8
  -GOLD-   22720 4243D 1   1.00000     0.00000
 Structure written by MMmdl.
 53 54  0  0  0  0  0  0  0  0  1 V2000
  146.3376  135.4764  153.4399 C   0  0  0  0  0  0  0  0  0  0  0  0
  147.2579  135.2700  154.6378 C   0  0  0  0  0  0  0  0  0  0  0  0
  146.7827  135.1076  155.7612 O   0  0  0  0  0  0  0  0  0  0  0  0
  148.5759  135.2747  154.3825 N   0  0  0  0  0  0  0  0  0  0  0  0
  149.6360  135.1038  155.3781 C   0  0  2  0  0  0  0  0  0  0  0  0
  150.6902  136.2085  155.1734 C   0  0  0  0  0  0  0  0  0  0  0  0
  151.6950  136.2539  155.8851 O   0  0  0  0  0  0  0  0  0  0  0  0
  150.4327  137.1039  154.2076 N   0  0  0  0  0  0  0  0  0  0  0  0
  151.2791  138.2464  153.8815 C   0  0  0  0  0  0  0  0  0  0  0  0
  151.4838  139.2043  155.0453 C   0  0  0  0  0  0  0  0  0  0  0  0
  150.6055  140.2872  155.2445 C   0  0  0  0  0  0  0  0  0  0  0  0
  150.8283  141.1572  156.3290 C   0  0  0  0  0  0  0  0  0  0  0  0
  151.9248  140.9194  157.1920 C   0  0  0  0  0  0  0  0  0  0  0  0
  152.1714  141.7832  158.2808 N   0  0  0  0  0  0  0  0  0  0  0  0
  152.2517  141.1969  159.6168 C   0  0  0  0  0  0  0  0  0  0  0  0
  152.8107  142.2218  160.6167 C   0  0  0  0  0  0  0  0  0  0  0  0
  152.0216  143.4064  160.5793 O   0  0  0  0  0  0  0  0  0  0  0  0
  152.0449  144.0270  159.2967 C   0  0  2  0  0  0  0  0  0  0  0  0
  151.2475  145.3329  159.3805 C   0  0  0  0  0  0  0  0  0  0  0  0
  151.4594  143.0582  158.2510 C   0  0  0  0  0  0  0  0  0  0  0  0
  152.7656  139.8732  156.9985 N   0  0  0  0  0  0  0  0  0  0  0  0
  152.5452  139.0408  155.9600 C   0  0  0  0  0  0  0  0  0  0  0  0
  150.2810  133.6990  155.1853 C   0  0  0  0  0  0  0  0  0  0  0  0
  149.2143  132.5895  155.0999 C   0  0  0  0  0  0  0  0  0  0  0  0
  151.2984  133.3375  156.2876 C   0  0  0  0  0  0  0  0  0  0  0  0
  146.7264  136.2542  152.7818 H   0  0  0  0  0  0  0  0  0  0  0  0
  145.3409  135.7754  153.7663 H   0  0  0  0  0  0  0  0  0  0  0  0
  146.2492  134.5520  152.8688 H   0  0  0  0  0  0  0  0  0  0  0  0
  148.8717  135.4211  153.4285 H   0  0  0  0  0  0  0  0  0  0  0  0
  149.2132  135.1736  156.3827 H   0  0  0  0  0  0  0  0  0  0  0  0
  149.5875  136.9902  153.6666 H   0  0  0  0  0  0  0  0  0  0  0  0
  152.2434  137.8980  153.5070 H   0  0  0  0  0  0  0  0  0  0  0  0
  150.8110  138.7955  153.0644 H   0  0  0  0  0  0  0  0  0  0  0  0
  149.7771  140.4576  154.5728 H   0  0  0  0  0  0  0  0  0  0  0  0
  150.1711  142.0016  156.4741 H   0  0  0  0  0  0  0  0  0  0  0  0
  151.2581  140.8734  159.9302 H   0  0  0  0  0  0  0  0  0  0  0  0
  152.8947  140.3158  159.6052 H   0  0  0  0  0  0  0  0  0  0  0  0
  152.7884  141.8112  161.6262 H   0  0  0  0  0  0  0  0  0  0  0  0
  153.8523  142.4566  160.3918 H   0  0  0  0  0  0  0  0  0  0  0  0
  153.0772  144.2675  159.0354 H   0  0  0  0  0  0  0  0  0  0  0  0
  151.2449  145.8533  158.4226 H   0  0  0  0  0  0  0  0  0  0  0  0
  151.6778  146.0055  160.1229 H   0  0  0  0  0  0  0  0  0  0  0  0
  150.2111  145.1449  159.6623 H   0  0  0  0  0  0  0  0  0  0  0  0
  151.5109  143.5235  157.2676 H   0  0  0  0  0  0  0  0  0  0  0  0
  150.4045  142.8736  158.4587 H   0  0  0  0  0  0  0  0  0  0  0  0
  153.2418  138.2217  155.8582 H   0  0  0  0  0  0  0  0  0  0  0  0
  150.8218  133.6942  154.2372 H   0  0  0  0  0  0  0  0  0  0  0  0
  148.6120  132.5511  156.0084 H   0  0  0  0  0  0  0  0  0  0  0  0
  149.6756  131.6104  154.9676 H   0  0  0  0  0  0  0  0  0  0  0  0
  148.5376  132.7366  154.2581 H   0  0  0  0  0  0  0  0  0  0  0  0
  150.8483  133.4021  157.2787 H   0  0  0  0  0  0  0  0  0  0  0  0
  152.1695  133.9921  156.2712 H   0  0  0  0  0  0  0  0  0  0  0  0
  151.6716  132.3211  156.1596 H   0  0  0  0  0  0  0  0  0  0  0  0
  1  2  1  0  0  0  0
  1 26  1  0  0  0  0
  1 27  1  0  0  0  0
  1 28  1  0  0  0  0
  2  3  2  0  0  0  0
  2  4  1  0  0  0  0
  4  5  1  0  0  0  0
  4 29  1  0  0  0  0
  5  6  1  0  0  0  0
  5 23  1  0  0  0  0
  5 30  1  0  0  0  0
  6  7  2  0  0  0  0
  6  8  1  0  0  0  0
  8  9  1  0  0  0  0
  8 31  1  0  0  0  0
  9 10  1  0  0  0  0
  9 32  1  0  0  0  0
  9 33  1  0  0  0  0
 10 22  1  0  0  0  0
 10 11  2  0  0  0  0
 11 12  1  0  0  0  0
 11 34  1  0  0  0  0
 12 13  2  0  0  0  0
 12 35  1  0  0  0  0
 13 14  1  0  0  0  0
 13 21  1  0  0  0  0
 14 20  1  0  0  0  0
 14 15  1  0  0  0  0
 15 16  1  0  0  0  0
 15 36  1  0  0  0  0
 15 37  1  0  0  0  0
 16 17  1  0  0  0  0
 16 38  1  0  0  0  0
 16 39  1  0  0  0  0
 17 18  1  0  0  0  0
 18 19  1  0  0  0  0
 18 20  1  0  0  0  0
 18 40  1  0  0  0  0
 19 41  1  0  0  0  0
 19 42  1  0  0  0  0
 19 43  1  0  0  0  0
 20 44  1  0  0  0  0
 20 45  1  0  0  0  0
 21 22  2  0  0  0  0
 22 46  1  0  0  0  0
 23 24  1  0  0  0  0
 23 25  1  0  0  0  0
 23 47  1  0  0  0  0
 24 48  1  0  0  0  0
 24 49  1  0  0  0  0
 24 50  1  0  0  0  0
 25 51  1  0  0  0  0
 25 52  1  0  0  0  0
 25 53  1  0  0  0  0
M  END
> <s_m_source_file>
AV-unprocessed.smi

> <i_m_source_file_index>
1232

> <i_lp_mmshare_version>
43012

> <i_f3d_flags>
0

> <s_epik_input>
W0NIM11DKD1PKVtOSF1bQ0BASF0oW0NIXShbQ0gzXSlbQ0gzXSlDKD1PKVtOSF1bQ0gyXWMxW2NIXVtjSF1jKG5bY0hdMSlOMltDSDJdW0NIMl1PW0NAQEhdKFtDSDNdKVtDSDJdMg==

> <s_epik_cmdline>
J2VwaWtfcHl0aG9uJywgJy1waCcsICc3LjAnLCAnLXRuJywgJzgnLCAnLW1hJywgJzIwMCcsICctbWV0YWxfYmluZGluZycsICctaW1hZScsICc8aW5maWxlLm1hZT4nLCAnLW9tYWUnLCAnPG91dGZpbGUubWFlPic=

> <r_lp_tautomer_probability>
1

> <r_epik_Ionization_Penalty>
0.00557618

> <r_epik_Ionization_Penalty_Charging>
0

> <r_epik_Ionization_Penalty_Neutral>
0.00557618

> <r_epik_State_Penalty>
0.00408363

> <r_epik_Charging_Adjusted_Penalty>
0.00408363

> <i_epik_Tot_Q>
0

> <i_epik_Tot_abs_Q>
0

> <r_epik_Metal_State_Penalty>
-0

> <b_epik_Metal_Only>
0

> <s_lp_Force_Field>
OPLS_2005

> <r_lp_Energy>
16.2808

> <b_lp_Chiralities_Consistent>
1

> <s_lp_Variant>
AV-unprocessed.smi:1232-3

> <Gold.Version>
5.8.1

> <Gold.Id.Protein>
6NUR|6NUR_protein|mol2

> <Gold.PLP.Fitness>
55.8964

> <Gold.PLP.PLP>
-45.7062

> <Gold.PLP.part.hbond>
-5.0000

> <Gold.PLP.part.metal>
0.0000

> <Gold.PLP.part.buried>
-3.4901

> <Gold.PLP.part.nonpolar>
-36.7704

> <Gold.PLP.part.repulsive>
0.1670

> <Gold.PLP.ligand.clash>
0.0000

> <Gold.PLP.ligand.torsion>
0.7907

> <Gold.PLP.Chemscore.Hbond>
3.7840

> <Gold.PLP.Chemscore.CHOScore>
0.0000

> <Gold.PLP.Chemscore.Metal>
0.0000

> <Gold.Chemscore.Hbonds>
donor molecule, donor type, donor heavy atom, donor atom, acceptor molecule, acceptor atom, score
      L1  H     4    29       P1  7948  1.00
      L1  H     8    31       P1  7948  0.77
      P1  H  7997  8010       L1    21  0.95
      P1  H 10752 10764       L1     7  1.00

> <Gold.PLP.Chemscore.Internal.Correction>
0.4197

> <Gold.Rescore>
     Score         DG    S(hbond)    S(metal)    S(lipo)     H(rot)  DE(clash)    DE(int)     intcor
     20.44     -23.95       3.18        0.00     113.69       2.13       0.53       2.99       ----

> <Gold.Chemscore.Fitness>
20.4375

> <Gold.Chemscore.DG>
-23.9546

> <Gold.Chemscore.ZeroCoef>
-5.4800

> <Gold.Chemscore.Hbond>
3.1827

> <Gold.Chemscore.Metal>
0.0000

> <Gold.Chemscore.Lipo>
113.6870

> <Gold.Chemscore.Internal_Hbond>
0.0000

> <Gold.Chemscore.DEClash>
0.5263

> <Gold.Chemscore.DEInternal>
2.9907

> <Gold.Chemscore.Rot>
2.1317

> <Gold.Chemscore.Internal.Correction>
   9.000000E+99

> <Gold.Chemscore.Hbonds>
donor molecule, donor type, donor heavy atom, donor atom, acceptor molecule, acceptor atom, score
      L1  H     4    29       P1  7948  0.78
      L1  H     8    31       P1  7948  0.60
      P1  H  7997  8010       L1    21  0.20
      P1  H 10752 10764       L1     7  0.50

> <Gold.Chemscore.Hbond.Weighted>
-10.6304

> <Gold.Chemscore.Metal.Weighted>
-0.0000

> <Gold.Chemscore.Lipo.Weighted>
-13.3014

> <Gold.Chemscore.Internal_Hbond.Weighted>
0.0000

> <Gold.Chemscore.DEClash.Weighted>
0.5263

> <Gold.Chemscore.DEInternal.Weighted>
2.9907

> <Gold.Chemscore.Rot.Weighted>
5.4572

> <Gold.Chemscore.Internal.Correction.Weighted>
   9.000000E+99

> <Gold.Protein.RotatedTorsions>
[ 6907 6896 6895 6894 ] final  -74.04 input  -60.11 | X-H torsion
[ 7974 7965 7964 7962 ] final   68.32 input  175.53 | X-H torsion
[ 8008 7997 7996 7995 ] final   46.07 input   59.86 | X-H torsion
[ 10167 10162 10161 10158 ] final  -87.64 input  -65.29 | X-H torsion
[ 10718 10713 10712 10709 ] final   -9.68 input   66.30 | X-H torsion
[ 10763 10752 10751 10750 ] final  -42.47 input  -60.55 | X-H torsion
[ 11005 11000 10999 10996 ] final  102.94 input  -57.11 | X-H torsion

> <Gold.Protein.ActiveResidues>
 VAL166  LYS551  ARG553  GLY616  TRP617  ASP618  TYR619  PRO620  LYS621  CYS622 
 ASP623  PHE694  ASN695  SER759  ASP760  ASP761  ALA762  ILE779  LEU786  VAL792 
 PHE793  MET794  SER795  GLU796  ALA797  LYS798  CYS799  TRP800  GLU811  SER814 

> <Gold.Protein.RotatedAtoms>
  150.7107  134.4928  159.5523 H   0  0  0  0  0  0  0  0  0  0  0  0  # atno 6907 bound_to 6896
  152.2542  134.8099  160.0450 H   0  0  0  0  0  0  0  0  0  0  0  0  # atno 6908 bound_to 6896
  151.8835  133.3465  159.3811 H   0  0  0  0  0  0  0  0  0  0  0  0  # atno 6909 bound_to 6896
  145.8040  139.2997  143.1138 H   0  0  0  0  0  0  0  0  0  0  0  0  # atno 7974 bound_to 7965
  155.3464  140.3411  155.4239 H   0  0  0  0  0  0  0  0  0  0  0  0  # atno 8008 bound_to 7997
  156.1787  140.1656  156.8351 H   0  0  0  0  0  0  0  0  0  0  0  0  # atno 8009 bound_to 7997
  154.5310  140.0745  156.8327 H   0  0  0  0  0  0  0  0  0  0  0  0  # atno 8010 bound_to 7997
  140.3824  143.2742  151.9367 H   0  0  0  0  0  0  0  0  0  0  0  0  # atno 10167 bound_to 10162
  156.6845  130.5047  149.5961 H   0  0  0  0  0  0  0  0  0  0  0  0  # atno 10718 bound_to 10713
  153.9795  135.6718  153.4749 H   0  0  0  0  0  0  0  0  0  0  0  0  # atno 10763 bound_to 10752
  153.0755  135.4951  154.8391 H   0  0  0  0  0  0  0  0  0  0  0  0  # atno 10764 bound_to 10752
  154.7173  135.3109  154.9065 H   0  0  0  0  0  0  0  0  0  0  0  0  # atno 10765 bound_to 10752
  139.8780  134.9243  156.5133 H   0  0  0  0  0  0  0  0  0  0  0  0  # atno 11005 bound_to 11000
  145.9847  140.8653  143.0096 LP  0  0  0  0  0  0  0  0  0  0  0  0  # atno 17320 bound_to 7965
  144.6765  140.2131  143.7375 LP  0  0  0  0  0  0  0  0  0  0  0  0  # atno 17321 bound_to 7965
  139.4794  144.5805  151.7940 LP  0  0  0  0  0  0  0  0  0  0  0  0  # atno 17342 bound_to 10162
  140.4923  144.1291  150.5953 LP  0  0  0  0  0  0  0  0  0  0  0  0  # atno 17343 bound_to 10162
  156.1843  130.6519  151.0987 LP  0  0  0  0  0  0  0  0  0  0  0  0  # atno 17370 bound_to 10713
  157.7031  131.0768  150.6755 LP  0  0  0  0  0  0  0  0  0  0  0  0  # atno 17371 bound_to 10713
  140.8504  133.8136  155.9163 LP  0  0  0  0  0  0  0  0  0  0  0  0  # atno 17394 bound_to 11000
  140.9150  134.2213  157.4962 LP  0  0  0  0  0  0  0  0  0  0  0  0  # atno 17395 bound_to 11000

$$$$
