AV-unprocessed.smi:1137|AV-procd|sdf|4864|dock4
  -GOLD-   22720 3433D 1   1.00000     0.00000
 Structure written by MMmdl.
 17 17  0  0  0  0  0  0  0  0  2 V2000
  150.7050  140.5150  155.1272 O   0  0  0  0  0  0  0  0  0  0  0  0
  151.3591  140.3336  156.1780 C   0  0  0  0  0  0  0  0  0  0  0  0
  152.5295  139.8922  156.2311 O   0  5  0  0  0  0  0  0  0  0  0  0
  150.6635  140.7069  157.4958 C   0  0  1  0  0  0  0  0  0  0  0  0
  150.6459  139.6069  158.3883 O   0  0  0  0  0  0  0  0  0  0  0  0
  151.3847  141.9235  158.0607 C   0  0  0  0  0  0  0  0  0  0  0  0
  152.1576  141.8443  159.2404 C   0  0  0  0  0  0  0  0  0  0  0  0
  152.8051  143.0036  159.7096 C   0  0  0  0  0  0  0  0  0  0  0  0
  152.6559  144.1972  158.9768 C   0  0  0  0  0  0  0  0  0  0  0  0
  151.9235  144.2873  157.8462 N   0  0  0  0  0  0  0  0  0  0  0  0
  151.3074  143.1702  157.4022 C   0  0  0  0  0  0  0  0  0  0  0  0
  149.6262  140.9700  157.2836 H   0  0  0  0  0  0  0  0  0  0  0  0
  150.2533  139.8881  159.1997 H   0  0  0  0  0  0  0  0  0  0  0  0
  152.2572  140.9117  159.7763 H   0  0  0  0  0  0  0  0  0  0  0  0
  153.4036  142.9769  160.6079 H   0  0  0  0  0  0  0  0  0  0  0  0
  153.1388  145.1048  159.3076 H   0  0  0  0  0  0  0  0  0  0  0  0
  150.7337  143.2763  156.4932 H   0  0  0  0  0  0  0  0  0  0  0  0
  1  2  2  0  0  0  0
  2  3  1  0  0  0  0
  2  4  1  0  0  0  0
  4  5  1  0  0  0  0
  4  6  1  0  0  0  0
  4 12  1  0  0  0  0
  5 13  1  0  0  0  0
  6 11  1  0  0  0  0
  6  7  2  0  0  0  0
  7  8  1  0  0  0  0
  7 14  1  0  0  0  0
  8  9  2  0  0  0  0
  8 15  1  0  0  0  0
  9 10  1  0  0  0  0
  9 16  1  0  0  0  0
 10 11  2  0  0  0  0
 11 17  1  0  0  0  0
M  CHG  1   3  -1
M  END
> <s_m_source_file>
AV-unprocessed.smi

> <i_m_source_file_index>
1137

> <i_lp_mmshare_version>
43012

> <i_f3d_flags>
0

> <s_epik_input>
Tz1DKFtPSF0pW0NASF0oW09IXSljMVtjSF1bY0hdW2NIXW5bY0hdMQ==

> <s_epik_cmdline>
J2VwaWtfcHl0aG9uJywgJy1waCcsICc3LjAnLCAnLXRuJywgJzgnLCAnLW1hJywgJzIwMCcsICctbWV0YWxfYmluZGluZycsICctaW1hZScsICc8aW5maWxlLm1hZT4nLCAnLW9tYWUnLCAnPG91dGZpbGUubWFlPic=

> <r_epik_Ionization_Penalty>
0.0193563

> <r_epik_Ionization_Penalty_Charging>
9.29916e-05

> <r_epik_Ionization_Penalty_Neutral>
0.0192633

> <r_epik_State_Penalty>
0.0153745

> <r_epik_Charging_Adjusted_Penalty>
0.0154675

> <i_epik_Tot_Q>
-1

> <i_epik_Tot_abs_Q>
1

> <r_epik_Metal_State_Penalty>
1.55756e-05

> <b_epik_Metal_Only>
0

> <s_lp_Force_Field>
OPLS_2005

> <r_lp_Energy>
6.08913

> <b_lp_Chiralities_Consistent>
1

> <s_lp_Variant>
AV-unprocessed.smi:1137-2

> <Gold.Version>
5.8.1

> <Gold.Id.Protein>
6NUR|6NUR_protein|mol2

> <Gold.PLP.Fitness>
35.1819

> <Gold.PLP.PLP>
-23.6630

> <Gold.PLP.part.hbond>
-2.0000

> <Gold.PLP.part.metal>
0.0000

> <Gold.PLP.part.buried>
-3.7223

> <Gold.PLP.part.nonpolar>
-17.9475

> <Gold.PLP.part.repulsive>
0.1602

> <Gold.PLP.ligand.clash>
0.0000

> <Gold.PLP.ligand.torsion>
0.2533

> <Gold.PLP.Chemscore.Hbond>
3.0000

> <Gold.PLP.Chemscore.CHOScore>
1.0000

> <Gold.PLP.Chemscore.Metal>
0.0000

> <Gold.Chemscore.Hbonds>
donor molecule, donor type, donor heavy atom, donor atom, acceptor molecule, acceptor atom, score
      P1  H  7989  7998       L1     1  1.00
      P1  H  7997  8009       L1     3  2.00
      L1  C    11    17       P1  8028  1.00

> <Gold.PLP.Chemscore.Internal.Correction>
0.0256

> <Gold.Rescore>
     Score         DG    S(hbond)    S(metal)    S(lipo)     H(rot)  DE(clash)    DE(int)     intcor
     13.49     -13.62       1.98        0.00      58.90       2.10       0.09       0.04       ----

> <Gold.Chemscore.Fitness>
13.4948

> <Gold.Chemscore.DG>
-13.6247

> <Gold.Chemscore.ZeroCoef>
-5.4800

> <Gold.Chemscore.Hbond>
1.9837

> <Gold.Chemscore.Metal>
0.0000

> <Gold.Chemscore.Lipo>
58.8985

> <Gold.Chemscore.Internal_Hbond>
0.0000

> <Gold.Chemscore.DEClash>
0.0884

> <Gold.Chemscore.DEInternal>
0.0414

> <Gold.Chemscore.Rot>
2.0984

> <Gold.Chemscore.Internal.Correction>
   9.000000E+99

> <Gold.Chemscore.Hbonds>
donor molecule, donor type, donor heavy atom, donor atom, acceptor molecule, acceptor atom, score
      P1  H  7989  7998       L1     1  0.91
      P1  H  7997  8009       L1     3  1.00

> <Gold.Chemscore.Hbond.Weighted>
-6.6255

> <Gold.Chemscore.Metal.Weighted>
-0.0000

> <Gold.Chemscore.Lipo.Weighted>
-6.8911

> <Gold.Chemscore.Internal_Hbond.Weighted>
0.0000

> <Gold.Chemscore.DEClash.Weighted>
0.0884

> <Gold.Chemscore.DEInternal.Weighted>
0.0414

> <Gold.Chemscore.Rot.Weighted>
5.3719

> <Gold.Chemscore.Internal.Correction.Weighted>
   9.000000E+99

> <Gold.Protein.RotatedTorsions>
[ 6907 6896 6895 6894 ] final  -47.92 input  -60.11 | X-H torsion
[ 7974 7965 7964 7962 ] final  100.83 input  175.53 | X-H torsion
[ 8008 7997 7996 7995 ] final -155.27 input   59.86 | X-H torsion
[ 10167 10162 10161 10158 ] final  124.88 input  -65.29 | X-H torsion
[ 10718 10713 10712 10709 ] final   -3.18 input   66.30 | X-H torsion
[ 10763 10752 10751 10750 ] final   28.04 input  -60.55 | X-H torsion
[ 11005 11000 10999 10996 ] final  163.71 input  -57.11 | X-H torsion

> <Gold.Protein.ActiveResidues>
 VAL166  LYS551  ARG553  GLY616  TRP617  ASP618  TYR619  PRO620  LYS621  CYS622 
 ASP623  PHE694  ASN695  SER759  ASP760  ASP761  ALA762  ILE779  LEU786  VAL792 
 PHE793  MET794  SER795  GLU796  ALA797  LYS798  CYS799  TRP800  GLU811  SER814 

> <Gold.Protein.RotatedAtoms>
  150.8958  134.8367  159.7325 H   0  0  0  0  0  0  0  0  0  0  0  0  # atno 6907 bound_to 6896
  152.4864  134.4577  159.9605 H   0  0  0  0  0  0  0  0  0  0  0  0  # atno 6908 bound_to 6896
  151.4635  133.3548  159.2848 H   0  0  0  0  0  0  0  0  0  0  0  0  # atno 6909 bound_to 6896
  145.3804  139.2381  143.3407 H   0  0  0  0  0  0  0  0  0  0  0  0  # atno 7974 bound_to 7965
  155.6992  140.0764  157.2417 H   0  0  0  0  0  0  0  0  0  0  0  0  # atno 8008 bound_to 7997
  154.4076  140.1650  156.2225 H   0  0  0  0  0  0  0  0  0  0  0  0  # atno 8009 bound_to 7997
  155.9383  140.3386  155.6309 H   0  0  0  0  0  0  0  0  0  0  0  0  # atno 8010 bound_to 7997
  139.5716  144.6942  151.3762 H   0  0  0  0  0  0  0  0  0  0  0  0  # atno 10167 bound_to 10162
  156.7799  130.5327  149.5753 H   0  0  0  0  0  0  0  0  0  0  0  0  # atno 10718 bound_to 10713
  153.0517  135.6522  154.0678 H   0  0  0  0  0  0  0  0  0  0  0  0  # atno 10763 bound_to 10752
  154.0365  135.2907  155.3362 H   0  0  0  0  0  0  0  0  0  0  0  0  # atno 10764 bound_to 10752
  154.6809  135.5320  153.8328 H   0  0  0  0  0  0  0  0  0  0  0  0  # atno 10765 bound_to 10752
  140.2385  134.8069  157.3387 H   0  0  0  0  0  0  0  0  0  0  0  0  # atno 11005 bound_to 11000
  146.2845  140.4470  142.8763 LP  0  0  0  0  0  0  0  0  0  0  0  0  # atno 17320 bound_to 7965
  144.8512  140.7004  143.6167 LP  0  0  0  0  0  0  0  0  0  0  0  0  # atno 17321 bound_to 7965
  140.7001  143.7654  150.7388 LP  0  0  0  0  0  0  0  0  0  0  0  0  # atno 17342 bound_to 10162
  140.1162  143.4654  152.2341 LP  0  0  0  0  0  0  0  0  0  0  0  0  # atno 17343 bound_to 10162
  156.1224  130.6120  151.0214 LP  0  0  0  0  0  0  0  0  0  0  0  0  # atno 17370 bound_to 10713
  157.6651  131.0873  150.7747 LP  0  0  0  0  0  0  0  0  0  0  0  0  # atno 17371 bound_to 10713
  140.1677  134.4648  155.7852 LP  0  0  0  0  0  0  0  0  0  0  0  0  # atno 17394 bound_to 11000
  141.2212  133.6928  156.7654 LP  0  0  0  0  0  0  0  0  0  0  0  0  # atno 17395 bound_to 11000

$$$$
