AV-unprocessed.smi:1533|AV-procd|sdf|6162|dock2
  -GOLD-   22720 6313D 1   1.00000     0.00000
 Structure written by MMmdl.
 37 39  0  0  0  0  0  0  0  0  1 V2000
  152.6167  137.6927  157.0437 C   0  0  0  0  0  0  0  0  0  0  0  0
  152.0124  138.7279  156.1584 C   0  0  0  0  0  0  0  0  0  0  0  0
  152.7661  139.5291  155.4158 N   0  0  0  0  0  0  0  0  0  0  0  0
  151.8290  140.3550  154.7780 O   0  0  0  0  0  0  0  0  0  0  0  0
  150.6148  139.9366  155.2083 C   0  0  0  0  0  0  0  0  0  0  0  0
  149.3978  140.6933  154.7829 C   0  0  0  0  0  0  0  0  0  0  0  0
  148.4981  141.1394  155.9530 C   0  0  0  0  0  0  0  0  0  0  0  0
  149.0857  142.2333  156.7243 N   0  0  0  0  0  0  0  0  0  0  0  0
  150.0557  142.1057  157.6440 C   0  0  0  0  0  0  0  0  0  0  0  0
  150.6038  141.0322  157.8957 O   0  0  0  0  0  0  0  0  0  0  0  0
  150.4387  143.3866  158.4056 C   0  0  2  0  0  0  0  0  0  0  0  0
  151.1152  144.4651  157.5217 C   0  0  0  0  0  0  0  0  0  0  0  0
  152.4578  144.7154  158.2378 C   0  0  1  0  0  0  0  0  0  0  0  0
  152.1972  145.4405  159.5717 C   0  0  0  0  0  0  0  0  0  0  0  0
  151.5682  144.3347  160.4411 C   0  0  0  0  0  0  0  0  0  0  0  0
  151.5271  143.1326  159.4787 C   0  0  2  0  0  0  0  0  0  0  0  0
  152.8353  143.3182  158.7121 C   0  0  0  0  0  0  0  0  0  0  0  0
  150.6688  138.9255  156.0728 N   0  0  0  0  0  0  0  0  0  0  0  0
  153.6603  137.5163  156.7810 H   0  0  0  0  0  0  0  0  0  0  0  0
  152.0748  136.7515  156.9504 H   0  0  0  0  0  0  0  0  0  0  0  0
  152.5721  138.0179  158.0833 H   0  0  0  0  0  0  0  0  0  0  0  0
  149.7142  141.5644  154.2085 H   0  0  0  0  0  0  0  0  0  0  0  0
  148.8255  140.0662  154.0984 H   0  0  0  0  0  0  0  0  0  0  0  0
  147.5130  141.4221  155.5780 H   0  0  0  0  0  0  0  0  0  0  0  0
  148.3343  140.2988  156.6272 H   0  0  0  0  0  0  0  0  0  0  0  0
  148.6923  143.1520  156.5808 H   0  0  0  0  0  0  0  0  0  0  0  0
  149.5398  143.7953  158.8706 H   0  0  0  0  0  0  0  0  0  0  0  0
  151.2889  144.1224  156.5006 H   0  0  0  0  0  0  0  0  0  0  0  0
  150.5151  145.3735  157.4571 H   0  0  0  0  0  0  0  0  0  0  0  0
  153.2026  145.2070  157.6114 H   0  0  0  0  0  0  0  0  0  0  0  0
  153.1311  145.7901  160.0138 H   0  0  0  0  0  0  0  0  0  0  0  0
  151.5394  146.3023  159.4529 H   0  0  0  0  0  0  0  0  0  0  0  0
  152.2012  144.1187  161.3027 H   0  0  0  0  0  0  0  0  0  0  0  0
  150.5802  144.6068  160.8140 H   0  0  0  0  0  0  0  0  0  0  0  0
  151.4342  142.1745  159.9913 H   0  0  0  0  0  0  0  0  0  0  0  0
  152.9826  142.6078  157.8983 H   0  0  0  0  0  0  0  0  0  0  0  0
  153.7177  143.3034  159.3545 H   0  0  0  0  0  0  0  0  0  0  0  0
  1  2  1  0  0  0  0
  1 19  1  0  0  0  0
  1 20  1  0  0  0  0
  1 21  1  0  0  0  0
  2 18  1  0  0  0  0
  2  3  2  0  0  0  0
  3  4  1  0  0  0  0
  4  5  1  0  0  0  0
  5  6  1  0  0  0  0
  5 18  2  0  0  0  0
  6  7  1  0  0  0  0
  6 22  1  0  0  0  0
  6 23  1  0  0  0  0
  7  8  1  0  0  0  0
  7 24  1  0  0  0  0
  7 25  1  0  0  0  0
  8  9  1  0  0  0  0
  8 26  1  0  0  0  0
  9 10  2  0  0  0  0
  9 11  1  0  0  0  0
 11 16  1  0  0  0  0
 11 12  1  0  0  0  0
 11 27  1  0  0  0  0
 12 13  1  0  0  0  0
 12 28  1  0  0  0  0
 12 29  1  0  0  0  0
 13 17  1  0  0  0  0
 13 14  1  0  0  0  0
 13 30  1  0  0  0  0
 14 15  1  0  0  0  0
 14 31  1  0  0  0  0
 14 32  1  0  0  0  0
 15 16  1  0  0  0  0
 15 33  1  0  0  0  0
 15 34  1  0  0  0  0
 16 17  1  0  0  0  0
 16 35  1  0  0  0  0
 17 36  1  0  0  0  0
 17 37  1  0  0  0  0
M  END
> <s_m_source_file>
AV-unprocessed.smi

> <i_m_source_file_index>
1533

> <i_lp_mmshare_version>
43012

> <i_f3d_flags>
0

> <s_epik_input>
W0NIM11jMW5vYyhuMSlbQ0gyXVtDSDJdW05IXUMoPU8pW0NASF0oW0NIMl1bQ0BASF0yMylbQ0BASF0oW0NIMl0zKVtDSDJdW0NIMl0y

> <s_epik_cmdline>
J2VwaWtfcHl0aG9uJywgJy1waCcsICc3LjAnLCAnLXRuJywgJzgnLCAnLW1hJywgJzIwMCcsICctbWV0YWxfYmluZGluZycsICctaW1hZScsICc8aW5maWxlLm1hZT4nLCAnLW9tYWUnLCAnPG91dGZpbGUubWFlPic=

> <r_lp_tautomer_probability>
1

> <r_epik_Ionization_Penalty>
1.90116e-08

> <r_epik_Ionization_Penalty_Charging>
0

> <r_epik_Ionization_Penalty_Neutral>
1.90116e-08

> <r_epik_State_Penalty>
-0

> <r_epik_Charging_Adjusted_Penalty>
0

> <i_epik_Tot_Q>
0

> <i_epik_Tot_abs_Q>
0

> <r_epik_Metal_State_Penalty>
-0

> <b_epik_Metal_Only>
0

> <s_lp_Force_Field>
OPLS_2005

> <r_lp_Energy>
43.4718

> <b_lp_Chiralities_Consistent>
1

> <s_lp_Variant>
AV-unprocessed.smi:1533-1

> <Gold.Version>
5.8.1

> <Gold.Id.Protein>
6NUR|6NUR_protein|mol2

> <Gold.PLP.Fitness>
44.1821

> <Gold.PLP.PLP>
-36.3246

> <Gold.PLP.part.hbond>
-2.8451

> <Gold.PLP.part.metal>
0.0000

> <Gold.PLP.part.buried>
-3.0673

> <Gold.PLP.part.nonpolar>
-30.3477

> <Gold.PLP.part.repulsive>
0.0808

> <Gold.PLP.ligand.clash>
0.0000

> <Gold.PLP.ligand.torsion>
0.3022

> <Gold.PLP.Chemscore.Hbond>
2.8000

> <Gold.PLP.Chemscore.CHOScore>
0.0000

> <Gold.PLP.Chemscore.Metal>
0.0000

> <Gold.Chemscore.Hbonds>
donor molecule, donor type, donor heavy atom, donor atom, acceptor molecule, acceptor atom, score
      L1  H     8    26       P1  8028  0.90
      P1  H  7989  7998       L1     4  0.51
      P1  H  7997  8009       L1     3  1.00

> <Gold.PLP.Chemscore.Internal.Correction>
0.0618

> <Gold.Rescore>
     Score         DG    S(hbond)    S(metal)    S(lipo)     H(rot)  DE(clash)    DE(int)     intcor
     16.36     -20.13       2.38        0.00      97.71       1.85       0.69       3.08       ----

> <Gold.Chemscore.Fitness>
16.3629

> <Gold.Chemscore.DG>
-20.1334

> <Gold.Chemscore.ZeroCoef>
-5.4800

> <Gold.Chemscore.Hbond>
2.3815

> <Gold.Chemscore.Metal>
0.0000

> <Gold.Chemscore.Lipo>
97.7135

> <Gold.Chemscore.Internal_Hbond>
0.0000

> <Gold.Chemscore.DEClash>
0.6872

> <Gold.Chemscore.DEInternal>
3.0833

> <Gold.Chemscore.Rot>
1.8490

> <Gold.Chemscore.Internal.Correction>
   9.000000E+99

> <Gold.Chemscore.Hbonds>
donor molecule, donor type, donor heavy atom, donor atom, acceptor molecule, acceptor atom, score
      L1  H     8    26       P1  8028  0.75
      P1  H  7989  7998       L1     4  0.34
      P1  H  7997  8009       L1     3  0.87

> <Gold.Chemscore.Hbond.Weighted>
-7.9543

> <Gold.Chemscore.Metal.Weighted>
-0.0000

> <Gold.Chemscore.Lipo.Weighted>
-11.4325

> <Gold.Chemscore.Internal_Hbond.Weighted>
0.0000

> <Gold.Chemscore.DEClash.Weighted>
0.6872

> <Gold.Chemscore.DEInternal.Weighted>
3.0833

> <Gold.Chemscore.Rot.Weighted>
4.7334

> <Gold.Chemscore.Internal.Correction.Weighted>
   9.000000E+99

> <Gold.Protein.RotatedTorsions>
[ 6907 6896 6895 6894 ] final -113.86 input  -60.11 | X-H torsion
[ 7974 7965 7964 7962 ] final   58.93 input  175.53 | X-H torsion
[ 8008 7997 7996 7995 ] final -160.67 input   59.86 | X-H torsion
[ 10167 10162 10161 10158 ] final  -85.36 input  -65.29 | X-H torsion
[ 10718 10713 10712 10709 ] final  -61.56 input   66.30 | X-H torsion
[ 10763 10752 10751 10750 ] final  139.20 input  -60.55 | X-H torsion
[ 11005 11000 10999 10996 ] final   93.05 input  -57.11 | X-H torsion

> <Gold.Protein.ActiveResidues>
 VAL166  LYS551  ARG553  GLY616  TRP617  ASP618  TYR619  PRO620  LYS621  CYS622 
 ASP623  PHE694  ASN695  SER759  ASP760  ASP761  ALA762  ILE779  LEU786  VAL792 
 PHE793  MET794  SER795  GLU796  ALA797  LYS798  CYS799  TRP800  GLU811  SER814 

> <Gold.Protein.RotatedAtoms>
  150.7859  133.8885  159.3306 H   0  0  0  0  0  0  0  0  0  0  0  0  # atno 6907 bound_to 6896
  151.6735  135.0970  160.0212 H   0  0  0  0  0  0  0  0  0  0  0  0  # atno 6908 bound_to 6896
  152.3923  133.6658  159.6283 H   0  0  0  0  0  0  0  0  0  0  0  0  # atno 6909 bound_to 6896
  145.9128  139.3667  143.0525 H   0  0  0  0  0  0  0  0  0  0  0  0  # atno 7974 bound_to 7965
  155.7808  140.0865  157.2060 H   0  0  0  0  0  0  0  0  0  0  0  0  # atno 8008 bound_to 7997
  154.3990  140.1508  156.3108 H   0  0  0  0  0  0  0  0  0  0  0  0  # atno 8009 bound_to 7997
  155.8655  140.3428  155.5788 H   0  0  0  0  0  0  0  0  0  0  0  0  # atno 8010 bound_to 7997
  140.4045  143.2648  151.9099 H   0  0  0  0  0  0  0  0  0  0  0  0  # atno 10167 bound_to 10162
  156.0913  130.4199  150.1011 H   0  0  0  0  0  0  0  0  0  0  0  0  # atno 10718 bound_to 10713
  153.9021  135.3021  155.3448 H   0  0  0  0  0  0  0  0  0  0  0  0  # atno 10763 bound_to 10752
  154.7665  135.4908  153.9567 H   0  0  0  0  0  0  0  0  0  0  0  0  # atno 10764 bound_to 10752
  153.1239  135.6788  153.9390 H   0  0  0  0  0  0  0  0  0  0  0  0  # atno 10765 bound_to 10752
  139.8815  134.8768  156.3662 H   0  0  0  0  0  0  0  0  0  0  0  0  # atno 11005 bound_to 11000
  145.8650  140.9453  143.0680 LP  0  0  0  0  0  0  0  0  0  0  0  0  # atno 17320 bound_to 7965
  144.6745  140.0580  143.7477 LP  0  0  0  0  0  0  0  0  0  0  0  0  # atno 17321 bound_to 7965
  139.4784  144.5600  151.8254 LP  0  0  0  0  0  0  0  0  0  0  0  0  # atno 17342 bound_to 10162
  140.4704  144.1595  150.5917 LP  0  0  0  0  0  0  0  0  0  0  0  0  # atno 17343 bound_to 10162
  156.9021  130.9623  151.3575 LP  0  0  0  0  0  0  0  0  0  0  0  0  # atno 17370 bound_to 10713
  157.6063  130.8550  149.8881 LP  0  0  0  0  0  0  0  0  0  0  0  0  # atno 17371 bound_to 10713
  140.9496  133.7460  156.0253 LP  0  0  0  0  0  0  0  0  0  0  0  0  # atno 17394 bound_to 11000
  140.8122  134.3386  157.5408 LP  0  0  0  0  0  0  0  0  0  0  0  0  # atno 17395 bound_to 11000

$$$$
