AV-unprocessed.smi:2788|AV-procd|sdf|10761|dock6
  -GOLD-   2272015193D 1   1.00000     0.00000
 Structure written by MMmdl.
 47 48  0  0  0  0  0  0  0  0  1 V2000
  150.9828  145.1748  160.0890 C   0  0  0  0  0  0  0  0  0  0  0  0
  151.9169  144.0939  160.5514 C   0  0  0  0  0  0  0  0  0  0  0  0
  152.2211  143.9997  161.8348 N   0  0  0  0  0  0  0  0  0  0  0  0
  153.0772  142.9002  161.9461 O   0  0  0  0  0  0  0  0  0  0  0  0
  153.2556  142.3678  160.7109 C   0  0  0  0  0  0  0  0  0  0  0  0
  154.1246  141.1589  160.6291 C   0  0  0  0  0  0  0  0  0  0  0  0
  152.5509  143.0794  159.7782 C   0  0  0  0  0  0  0  0  0  0  0  0
  152.4372  142.8400  158.2938 C   0  0  0  0  0  0  0  0  0  0  0  0
  151.9016  141.4294  158.0564 C   0  0  0  0  0  0  0  0  0  0  0  0
  152.4998  140.4606  158.5222 O   0  0  0  0  0  0  0  0  0  0  0  0
  150.7906  141.3435  157.3017 N   0  0  0  0  0  0  0  0  0  0  0  0
  150.1053  140.1422  156.8001 C   0  0  2  0  0  0  0  0  0  0  0  0
  149.7227  139.3114  158.0472 C   0  0  0  0  0  0  0  0  0  0  0  0
  151.0797  139.3063  155.9195 C   0  0  0  0  0  0  0  0  0  0  0  0
  151.8155  140.1096  155.0156 O   0  0  0  0  0  0  0  0  0  0  0  0
  148.8269  140.5604  155.9858 C   0  0  0  0  0  0  0  0  0  0  0  0
  149.1268  141.4125  154.7216 C   0  0  0  0  0  0  0  0  0  0  0  0
  147.8583  141.6817  153.8975 C   0  0  0  0  0  0  0  0  0  0  0  0
  146.7794  142.3670  154.7467 C   0  0  0  0  0  0  0  0  0  0  0  0
  146.4644  141.5411  156.0013 C   0  0  0  0  0  0  0  0  0  0  0  0
  147.7328  141.2672  156.8265 C   0  0  0  0  0  0  0  0  0  0  0  0
  149.9757  144.7824  159.9489 H   0  0  0  0  0  0  0  0  0  0  0  0
  151.3095  145.5976  159.1389 H   0  0  0  0  0  0  0  0  0  0  0  0
  150.9251  145.9915  160.8091 H   0  0  0  0  0  0  0  0  0  0  0  0
  154.3532  140.9070  159.5938 H   0  0  0  0  0  0  0  0  0  0  0  0
  153.6292  140.3000  161.0823 H   0  0  0  0  0  0  0  0  0  0  0  0
  155.0667  141.3226  161.1523 H   0  0  0  0  0  0  0  0  0  0  0  0
  151.7697  143.5620  157.8222 H   0  0  0  0  0  0  0  0  0  0  0  0
  153.3996  142.9471  157.7924 H   0  0  0  0  0  0  0  0  0  0  0  0
  150.3953  142.2199  156.9943 H   0  0  0  0  0  0  0  0  0  0  0  0
  149.2554  138.3643  157.7792 H   0  0  0  0  0  0  0  0  0  0  0  0
  149.0364  139.8466  158.7027 H   0  0  0  0  0  0  0  0  0  0  0  0
  150.6001  139.0697  158.6479 H   0  0  0  0  0  0  0  0  0  0  0  0
  151.8048  138.7772  156.5366 H   0  0  0  0  0  0  0  0  0  0  0  0
  150.5477  138.5441  155.3504 H   0  0  0  0  0  0  0  0  0  0  0  0
  152.7240  139.8539  155.0584 H   0  0  0  0  0  0  0  0  0  0  0  0
  148.3696  139.6374  155.6275 H   0  0  0  0  0  0  0  0  0  0  0  0
  149.5698  142.3669  155.0048 H   0  0  0  0  0  0  0  0  0  0  0  0
  149.8510  140.9199  154.0743 H   0  0  0  0  0  0  0  0  0  0  0  0
  148.1016  142.3030  153.0351 H   0  0  0  0  0  0  0  0  0  0  0  0
  147.4731  140.7412  153.5014 H   0  0  0  0  0  0  0  0  0  0  0  0
  147.1188  143.3620  155.0377 H   0  0  0  0  0  0  0  0  0  0  0  0
  145.8738  142.5082  154.1560 H   0  0  0  0  0  0  0  0  0  0  0  0
  145.7295  142.0645  156.6134 H   0  0  0  0  0  0  0  0  0  0  0  0
  146.0059  140.5950  155.7106 H   0  0  0  0  0  0  0  0  0  0  0  0
  147.4517  140.6632  157.6878 H   0  0  0  0  0  0  0  0  0  0  0  0
  148.1073  142.2126  157.2188 H   0  0  0  0  0  0  0  0  0  0  0  0
  1  2  1  0  0  0  0
  1 22  1  0  0  0  0
  1 23  1  0  0  0  0
  1 24  1  0  0  0  0
  2  7  1  0  0  0  0
  2  3  2  0  0  0  0
  3  4  1  0  0  0  0
  4  5  1  0  0  0  0
  5  6  1  0  0  0  0
  5  7  2  0  0  0  0
  6 25  1  0  0  0  0
  6 26  1  0  0  0  0
  6 27  1  0  0  0  0
  7  8  1  0  0  0  0
  8  9  1  0  0  0  0
  8 28  1  0  0  0  0
  8 29  1  0  0  0  0
  9 10  2  0  0  0  0
  9 11  1  0  0  0  0
 11 12  1  0  0  0  0
 11 30  1  0  0  0  0
 12 13  1  0  0  0  0
 12 14  1  0  0  0  0
 12 16  1  0  0  0  0
 13 31  1  0  0  0  0
 13 32  1  0  0  0  0
 13 33  1  0  0  0  0
 14 15  1  0  0  0  0
 14 34  1  0  0  0  0
 14 35  1  0  0  0  0
 15 36  1  0  0  0  0
 16 21  1  0  0  0  0
 16 17  1  0  0  0  0
 16 37  1  0  0  0  0
 17 18  1  0  0  0  0
 17 38  1  0  0  0  0
 17 39  1  0  0  0  0
 18 19  1  0  0  0  0
 18 40  1  0  0  0  0
 18 41  1  0  0  0  0
 19 20  1  0  0  0  0
 19 42  1  0  0  0  0
 19 43  1  0  0  0  0
 20 21  1  0  0  0  0
 20 44  1  0  0  0  0
 20 45  1  0  0  0  0
 21 46  1  0  0  0  0
 21 47  1  0  0  0  0
M  END
> <s_m_source_file>
AV-unprocessed.smi

> <i_m_source_file_index>
2788

> <i_lp_mmshare_version>
43012

> <i_f3d_flags>
0

> <s_epik_input>
W0NIM11jMW5vYyhbQ0gzXSljMVtDSDJdQyg9TylbTkhdW0NAQF0oW0NIM10pKFtDSDJdW09IXSlbQ0hdMltDSDJdW0NIMl1bQ0gyXVtDSDJdW0NIMl0y

> <s_epik_cmdline>
J2VwaWtfcHl0aG9uJywgJy1waCcsICc3LjAnLCAnLXRuJywgJzgnLCAnLW1hJywgJzIwMCcsICctbWV0YWxfYmluZGluZycsICctaW1hZScsICc8aW5maWxlLm1hZT4nLCAnLW9tYWUnLCAnPG91dGZpbGUubWFlPic=

> <r_lp_tautomer_probability>
1

> <r_epik_Ionization_Penalty>
1.3408e-07

> <r_epik_Ionization_Penalty_Charging>
0

> <r_epik_Ionization_Penalty_Neutral>
1.3408e-07

> <r_epik_State_Penalty>
-0

> <r_epik_Charging_Adjusted_Penalty>
0

> <i_epik_Tot_Q>
0

> <i_epik_Tot_abs_Q>
0

> <r_epik_Metal_State_Penalty>
-0

> <b_epik_Metal_Only>
0

> <s_lp_Force_Field>
OPLS_2005

> <r_lp_Energy>
14.1961

> <b_lp_Chiralities_Consistent>
1

> <s_lp_Variant>
AV-unprocessed.smi:2788-2

> <Gold.Version>
5.8.1

> <Gold.Id.Protein>
6NUR|6NUR_protein|mol2

> <Gold.PLP.Fitness>
43.7047

> <Gold.PLP.PLP>
-41.4329

> <Gold.PLP.part.hbond>
-1.0000

> <Gold.PLP.part.metal>
0.0000

> <Gold.PLP.part.buried>
-7.1658

> <Gold.PLP.part.nonpolar>
-32.6201

> <Gold.PLP.part.repulsive>
0.3079

> <Gold.PLP.ligand.clash>
0.0000

> <Gold.PLP.ligand.torsion>
0.2653

> <Gold.PLP.Chemscore.Hbond>
0.9120

> <Gold.PLP.Chemscore.CHOScore>
0.0000

> <Gold.PLP.Chemscore.Metal>
0.0000

> <Gold.Chemscore.Hbonds>
donor molecule, donor type, donor heavy atom, donor atom, acceptor molecule, acceptor atom, score
      P1  H  7989  7998       L1    15  0.91

> <Gold.PLP.Chemscore.Internal.Correction>
0.0665

> <Gold.Rescore>
     Score         DG    S(hbond)    S(metal)    S(lipo)     H(rot)  DE(clash)    DE(int)     intcor
     13.81     -14.63       0.75        0.00     105.70       2.24       0.23       0.59       ----

> <Gold.Chemscore.Fitness>
13.8135

> <Gold.Chemscore.DG>
-14.6296

> <Gold.Chemscore.ZeroCoef>
-5.4800

> <Gold.Chemscore.Hbond>
0.7504

> <Gold.Chemscore.Metal>
0.0000

> <Gold.Chemscore.Lipo>
105.6978

> <Gold.Chemscore.Internal_Hbond>
0.0000

> <Gold.Chemscore.DEClash>
0.2268

> <Gold.Chemscore.DEInternal>
0.5893

> <Gold.Chemscore.Rot>
2.2357

> <Gold.Chemscore.Internal.Correction>
   9.000000E+99

> <Gold.Chemscore.Hbonds>
donor molecule, donor type, donor heavy atom, donor atom, acceptor molecule, acceptor atom, score
      P1  H  7989  7998       L1    15  0.39

> <Gold.Chemscore.Hbond.Weighted>
-2.5065

> <Gold.Chemscore.Metal.Weighted>
-0.0000

> <Gold.Chemscore.Lipo.Weighted>
-12.3666

> <Gold.Chemscore.Internal_Hbond.Weighted>
0.0000

> <Gold.Chemscore.DEClash.Weighted>
0.2268

> <Gold.Chemscore.DEInternal.Weighted>
0.5893

> <Gold.Chemscore.Rot.Weighted>
5.7235

> <Gold.Chemscore.Internal.Correction.Weighted>
   9.000000E+99

> <Gold.Protein.RotatedTorsions>
[ 6907 6896 6895 6894 ] final  168.23 input  -60.11 | X-H torsion
[ 7974 7965 7964 7962 ] final  -31.84 input  175.53 | X-H torsion
[ 8008 7997 7996 7995 ] final   -1.21 input   59.86 | X-H torsion
[ 10167 10162 10161 10158 ] final   64.89 input  -65.29 | X-H torsion
[ 10718 10713 10712 10709 ] final -104.85 input   66.30 | X-H torsion
[ 10763 10752 10751 10750 ] final  135.98 input  -60.55 | X-H torsion
[ 11005 11000 10999 10996 ] final  -43.77 input  -57.11 | X-H torsion

> <Gold.Protein.ActiveResidues>
 VAL166  LYS551  ARG553  GLY616  TRP617  ASP618  TYR619  PRO620  LYS621  CYS622 
 ASP623  PHE694  ASN695  SER759  ASP760  ASP761  ALA762  ILE779  LEU786  VAL792 
 PHE793  MET794  SER795  GLU796  ALA797  LYS798  CYS799  TRP800  GLU811  SER814 

> <Gold.Protein.RotatedAtoms>
  151.8509  133.3439  159.3672 H   0  0  0  0  0  0  0  0  0  0  0  0  # atno 6907 bound_to 6896
  150.7207  134.5300  159.5705 H   0  0  0  0  0  0  0  0  0  0  0  0  # atno 6908 bound_to 6896
  152.2793  134.7847  160.0450 H   0  0  0  0  0  0  0  0  0  0  0  0  # atno 6909 bound_to 6896
  146.1036  140.5718  142.8810 H   0  0  0  0  0  0  0  0  0  0  0  0  # atno 7974 bound_to 7965
  154.6493  140.2565  155.7232 H   0  0  0  0  0  0  0  0  0  0  0  0  # atno 8008 bound_to 7997
  156.2567  140.2871  156.0841 H   0  0  0  0  0  0  0  0  0  0  0  0  # atno 8009 bound_to 7997
  155.1475  140.0381  157.2803 H   0  0  0  0  0  0  0  0  0  0  0  0  # atno 8010 bound_to 7997
  140.1172  144.4764  150.6942 H   0  0  0  0  0  0  0  0  0  0  0  0  # atno 10167 bound_to 10162
  156.0321  130.5535  150.7455 H   0  0  0  0  0  0  0  0  0  0  0  0  # atno 10718 bound_to 10713
  153.8490  135.3082  155.3431 H   0  0  0  0  0  0  0  0  0  0  0  0  # atno 10763 bound_to 10752
  154.7899  135.4788  154.0033 H   0  0  0  0  0  0  0  0  0  0  0  0  # atno 10764 bound_to 10752
  153.1530  135.6846  153.8947 H   0  0  0  0  0  0  0  0  0  0  0  0  # atno 10765 bound_to 10752
  141.0406  133.6781  156.2780 H   0  0  0  0  0  0  0  0  0  0  0  0  # atno 11005 bound_to 11000
  144.7453  140.5050  143.6840 LP  0  0  0  0  0  0  0  0  0  0  0  0  # atno 17320 bound_to 7965
  145.5805  139.1488  143.3238 LP  0  0  0  0  0  0  0  0  0  0  0  0  # atno 17321 bound_to 7965
  140.6892  143.2366  151.5177 LP  0  0  0  0  0  0  0  0  0  0  0  0  # atno 17342 bound_to 10162
  139.5587  144.2209  152.1656 LP  0  0  0  0  0  0  0  0  0  0  0  0  # atno 17343 bound_to 10162
  157.5013  131.0919  151.0311 LP  0  0  0  0  0  0  0  0  0  0  0  0  # atno 17370 bound_to 10713
  157.0691  130.5857  149.5399 LP  0  0  0  0  0  0  0  0  0  0  0  0  # atno 17371 bound_to 10713
  140.6241  134.5332  157.5551 LP  0  0  0  0  0  0  0  0  0  0  0  0  # atno 17394 bound_to 11000
  139.9273  134.8031  156.1031 LP  0  0  0  0  0  0  0  0  0  0  0  0  # atno 17395 bound_to 11000

$$$$
