AV-unprocessed.smi:232|AV-procd|sdf|1769|dock6
  -GOLD-   2262020303D 1   1.00000     0.00000
 Structure written by MMmdl.
 52 55  0  0  0  0  0  0  0  0  1 V2000
  151.8676  144.1175  157.9198 C   0  0  0  0  0  0  0  0  0  0  0  0
  151.3099  142.7052  157.7051 C   0  0  0  0  0  0  0  0  0  0  0  0
  151.7293  141.7155  158.8113 C   0  0  2  0  0  0  0  0  0  0  0  0
  152.4499  142.3730  159.9954 C   0  0  0  0  0  0  0  0  0  0  0  0
  153.4000  141.2910  160.5212 C   0  0  0  0  0  0  0  0  0  0  0  0
  153.2274  140.1131  159.5531 C   0  0  2  0  0  0  0  0  0  0  0  0
  154.5285  139.3283  159.3133 C   0  0  0  0  0  0  0  0  0  0  0  0
  152.6661  140.6995  158.3414 N   0  0  0  0  0  0  0  0  0  0  0  0
  152.1943  139.7946  157.4501 C   0  0  0  0  0  0  0  0  0  0  0  0
  152.7272  139.7107  156.2019 N   0  0  0  0  0  0  0  0  0  0  0  0
  152.2424  138.8254  155.3258 C   0  0  0  0  0  0  0  0  0  0  0  0
  151.2458  137.9515  155.4859 N   0  0  0  0  0  0  0  0  0  0  0  0
  150.7088  138.0383  156.7369 C   0  0  0  0  0  0  0  0  0  0  0  0
  151.1210  138.9228  157.7716 C   0  0  0  0  0  0  0  0  0  0  0  0
  150.3437  138.7264  158.9062 N   0  0  0  0  0  0  0  0  0  0  0  0
  149.5129  137.7807  158.5594 C   0  0  0  0  0  0  0  0  0  0  0  0
  149.6608  137.3126  157.2731 N   0  0  0  0  0  0  0  0  0  0  0  0
  148.8741  136.2789  156.6246 C   0  0  0  0  0  0  0  0  0  0  0  0
  149.5387  134.8922  156.7242 C   0  0  2  0  0  0  0  0  0  0  0  0
  150.7026  134.9545  157.5274 O   0  0  0  0  0  0  0  0  0  0  0  0
  149.8585  134.2815  155.3448 C   0  0  2  0  0  0  0  0  0  0  0  0
  148.6901  134.1649  154.3621 C   0  0  0  0  0  0  0  0  0  0  0  0
  149.1857  133.0680  153.4466 C   0  0  0  0  0  0  0  0  0  0  0  0
  149.8877  132.1355  154.4311 C   0  0  0  0  0  0  0  0  0  0  0  0
  150.4203  132.9753  155.4519 O   0  0  0  0  0  0  0  0  0  0  0  0
  151.5247  144.7927  157.1356 H   0  0  0  0  0  0  0  0  0  0  0  0
  152.9577  144.1230  157.9058 H   0  0  0  0  0  0  0  0  0  0  0  0
  151.5415  144.5265  158.8764 H   0  0  0  0  0  0  0  0  0  0  0  0
  150.2223  142.7719  157.6634 H   0  0  0  0  0  0  0  0  0  0  0  0
  151.6279  142.3306  156.7315 H   0  0  0  0  0  0  0  0  0  0  0  0
  150.8381  141.2177  159.1975 H   0  0  0  0  0  0  0  0  0  0  0  0
  153.0305  143.2352  159.6649 H   0  0  0  0  0  0  0  0  0  0  0  0
  151.7489  142.7170  160.7565 H   0  0  0  0  0  0  0  0  0  0  0  0
  154.4246  141.6657  160.5107 H   0  0  0  0  0  0  0  0  0  0  0  0
  153.1651  140.9983  161.5449 H   0  0  0  0  0  0  0  0  0  0  0  0
  152.4847  139.4329  159.9744 H   0  0  0  0  0  0  0  0  0  0  0  0
  154.9374  138.9599  160.2543 H   0  0  0  0  0  0  0  0  0  0  0  0
  155.2872  139.9537  158.8419 H   0  0  0  0  0  0  0  0  0  0  0  0
  154.3626  138.4636  158.6705 H   0  0  0  0  0  0  0  0  0  0  0  0
  152.7185  138.8193  154.3564 H   0  0  0  0  0  0  0  0  0  0  0  0
  148.7604  137.3994  159.2345 H   0  0  0  0  0  0  0  0  0  0  0  0
  147.8875  136.2606  157.0890 H   0  0  0  0  0  0  0  0  0  0  0  0
  148.7233  136.5584  155.5810 H   0  0  0  0  0  0  0  0  0  0  0  0
  148.8503  134.2161  157.2327 H   0  0  0  0  0  0  0  0  0  0  0  0
  151.3669  134.4095  157.1344 H   0  0  0  0  0  0  0  0  0  0  0  0
  150.6267  134.8954  154.8718 H   0  0  0  0  0  0  0  0  0  0  0  0
  147.7750  133.8390  154.8577 H   0  0  0  0  0  0  0  0  0  0  0  0
  148.4805  135.0978  153.8382 H   0  0  0  0  0  0  0  0  0  0  0  0
  148.3869  132.5776  152.8894 H   0  0  0  0  0  0  0  0  0  0  0  0
  149.9046  133.4718  152.7322 H   0  0  0  0  0  0  0  0  0  0  0  0
  149.1678  131.4542  154.8861 H   0  0  0  0  0  0  0  0  0  0  0  0
  150.6669  131.5379  153.9576 H   0  0  0  0  0  0  0  0  0  0  0  0
  1  2  1  0  0  0  0
  1 26  1  0  0  0  0
  1 27  1  0  0  0  0
  1 28  1  0  0  0  0
  2  3  1  0  0  0  0
  2 29  1  0  0  0  0
  2 30  1  0  0  0  0
  3  8  1  0  0  0  0
  3  4  1  0  0  0  0
  3 31  1  0  0  0  0
  4  5  1  0  0  0  0
  4 32  1  0  0  0  0
  4 33  1  0  0  0  0
  5  6  1  0  0  0  0
  5 34  1  0  0  0  0
  5 35  1  0  0  0  0
  6  7  1  0  0  0  0
  6  8  1  0  0  0  0
  6 36  1  0  0  0  0
  7 37  1  0  0  0  0
  7 38  1  0  0  0  0
  7 39  1  0  0  0  0
  8  9  1  0  0  0  0
  9 14  1  0  0  0  0
  9 10  2  0  0  0  0
 10 11  1  0  0  0  0
 11 12  2  0  0  0  0
 11 40  1  0  0  0  0
 12 13  1  0  0  0  0
 13 17  1  0  0  0  0
 13 14  2  0  0  0  0
 14 15  1  0  0  0  0
 15 16  2  0  0  0  0
 16 17  1  0  0  0  0
 16 41  1  0  0  0  0
 17 18  1  0  0  0  0
 18 19  1  0  0  0  0
 18 42  1  0  0  0  0
 18 43  1  0  0  0  0
 19 20  1  0  0  0  0
 19 21  1  0  0  0  0
 19 44  1  0  0  0  0
 20 45  1  0  0  0  0
 21 25  1  0  0  0  0
 21 22  1  0  0  0  0
 21 46  1  0  0  0  0
 22 23  1  0  0  0  0
 22 47  1  0  0  0  0
 22 48  1  0  0  0  0
 23 24  1  0  0  0  0
 23 49  1  0  0  0  0
 23 50  1  0  0  0  0
 24 25  1  0  0  0  0
 24 51  1  0  0  0  0
 24 52  1  0  0  0  0
M  END
> <s_m_source_file>
AV-unprocessed.smi

> <i_m_source_file_index>
232

> <i_lp_mmshare_version>
43012

> <i_f3d_flags>
0

> <s_epik_input>
W0NIM11bQ0gyXVtDQEBIXTFbQ0gyXVtDSDJdW0NAQEhdKFtDSDNdKU4xYyhuW2NIXW4yKWMoYzIzKW5bY0hdbjNbQ0gyXVtDQEhdKFtPSF0pW0NAQEhdNFtDSDJdW0NIMl1bQ0gyXU80

> <s_epik_cmdline>
J2VwaWtfcHl0aG9uJywgJy1waCcsICc3LjAnLCAnLXRuJywgJzgnLCAnLW1hJywgJzIwMCcsICctbWV0YWxfYmluZGluZycsICctaW1hZScsICc8aW5maWxlLm1hZT4nLCAnLW9tYWUnLCAnPG91dGZpbGUubWFlPic=

> <r_lp_tautomer_probability>
1

> <r_epik_Ionization_Penalty>
0.00258048

> <r_epik_Ionization_Penalty_Charging>
0

> <r_epik_Ionization_Penalty_Neutral>
0.00258048

> <r_epik_State_Penalty>
0.00168551

> <r_epik_Charging_Adjusted_Penalty>
0.00168551

> <i_epik_Tot_Q>
0

> <i_epik_Tot_abs_Q>
0

> <r_epik_Metal_State_Penalty>
-0

> <b_epik_Metal_Only>
0

> <s_lp_Force_Field>
OPLS_2005

> <r_lp_Energy>
54.2743

> <b_lp_Chiralities_Consistent>
1

> <s_lp_Variant>
AV-unprocessed.smi:232-3

> <Gold.Version>
5.8.1

> <Gold.Id.Protein>
6NUR|6NUR_protein|mol2

> <Gold.PLP.Fitness>
41.2384

> <Gold.PLP.PLP>
-40.3382

> <Gold.PLP.part.hbond>
-2.7990

> <Gold.PLP.part.metal>
0.0000

> <Gold.PLP.part.buried>
-4.8067

> <Gold.PLP.part.nonpolar>
-32.8990

> <Gold.PLP.part.repulsive>
0.0450

> <Gold.PLP.ligand.clash>
0.0000

> <Gold.PLP.ligand.torsion>
1.8219

> <Gold.PLP.Chemscore.Hbond>
1.4800

> <Gold.PLP.Chemscore.CHOScore>
0.0000

> <Gold.PLP.Chemscore.Metal>
0.0000

> <Gold.Chemscore.Hbonds>
donor molecule, donor type, donor heavy atom, donor atom, acceptor molecule, acceptor atom, score
      P1  H  6896  6908       L1    20  0.42
      P1  H  7997  8010       L1    10  1.00

> <Gold.PLP.Chemscore.Internal.Correction>
0.1041

> <Gold.Rescore>
     Score         DG    S(hbond)    S(metal)    S(lipo)     H(rot)  DE(clash)    DE(int)     intcor
     12.80     -14.68       1.31        0.00      94.27       2.43       0.00       1.88       ----

> <Gold.Chemscore.Fitness>
12.7982

> <Gold.Chemscore.DG>
-14.6791

> <Gold.Chemscore.ZeroCoef>
-5.4800

> <Gold.Chemscore.Hbond>
1.3113

> <Gold.Chemscore.Metal>
0.0000

> <Gold.Chemscore.Lipo>
94.2728

> <Gold.Chemscore.Internal_Hbond>
0.0000

> <Gold.Chemscore.DEClash>
0.0021

> <Gold.Chemscore.DEInternal>
1.8788

> <Gold.Chemscore.Rot>
2.4260

> <Gold.Chemscore.Internal.Correction>
   9.000000E+99

> <Gold.Chemscore.Hbonds>
donor molecule, donor type, donor heavy atom, donor atom, acceptor molecule, acceptor atom, score
      P1  H  6896  6908       L1    20  0.16
      P1  H  7997  8010       L1    10  0.65

> <Gold.Chemscore.Hbond.Weighted>
-4.3799

> <Gold.Chemscore.Metal.Weighted>
-0.0000

> <Gold.Chemscore.Lipo.Weighted>
-11.0299

> <Gold.Chemscore.Internal_Hbond.Weighted>
0.0000

> <Gold.Chemscore.DEClash.Weighted>
0.0021

> <Gold.Chemscore.DEInternal.Weighted>
1.8788

> <Gold.Chemscore.Rot.Weighted>
6.2107

> <Gold.Chemscore.Internal.Correction.Weighted>
   9.000000E+99

> <Gold.Protein.RotatedTorsions>
[ 6907 6896 6895 6894 ] final  155.60 input  -60.11 | X-H torsion
[ 7974 7965 7964 7962 ] final  -22.46 input  175.53 | X-H torsion
[ 8008 7997 7996 7995 ] final   80.53 input   59.86 | X-H torsion
[ 10167 10162 10161 10158 ] final   77.89 input  -65.29 | X-H torsion
[ 10718 10713 10712 10709 ] final   83.61 input   66.30 | X-H torsion
[ 10763 10752 10751 10750 ] final   62.65 input  -60.55 | X-H torsion
[ 11005 11000 10999 10996 ] final -147.80 input  -57.11 | X-H torsion

> <Gold.Protein.ActiveResidues>
 VAL166  LYS551  ARG553  GLY616  TRP617  ASP618  TYR619  PRO620  LYS621  CYS622 
 ASP623  PHE694  ASN695  SER759  ASP760  ASP761  ALA762  ILE779  LEU786  VAL792 
 PHE793  MET794  SER795  GLU796  ALA797  LYS798  CYS799  TRP800  GLU811  SER814 

> <Gold.Protein.RotatedAtoms>
  152.0418  133.3980  159.4339 H   0  0  0  0  0  0  0  0  0  0  0  0  # atno 6907 bound_to 6896
  150.6875  134.3407  159.4876 H   0  0  0  0  0  0  0  0  0  0  0  0  # atno 6908 bound_to 6896
  152.1206  134.9208  160.0614 H   0  0  0  0  0  0  0  0  0  0  0  0  # atno 6909 bound_to 6896
  146.1674  140.4481  142.8546 H   0  0  0  0  0  0  0  0  0  0  0  0  # atno 7974 bound_to 7965
  155.8848  140.3442  155.5913 H   0  0  0  0  0  0  0  0  0  0  0  0  # atno 8008 bound_to 7997
  155.7678  140.0841  157.2142 H   0  0  0  0  0  0  0  0  0  0  0  0  # atno 8009 bound_to 7997
  154.4028  140.1524  156.2894 H   0  0  0  0  0  0  0  0  0  0  0  0  # atno 8010 bound_to 7997
  139.9768  144.5855  150.7936 H   0  0  0  0  0  0  0  0  0  0  0  0  # atno 10167 bound_to 10162
  157.6882  131.0098  150.2549 H   0  0  0  0  0  0  0  0  0  0  0  0  # atno 10718 bound_to 10713
  152.9990  135.5457  154.6227 H   0  0  0  0  0  0  0  0  0  0  0  0  # atno 10763 bound_to 10752
  154.5523  135.2827  155.0999 H   0  0  0  0  0  0  0  0  0  0  0  0  # atno 10764 bound_to 10752
  154.2234  135.6446  153.5204 H   0  0  0  0  0  0  0  0  0  0  0  0  # atno 10765 bound_to 10752
  140.7678  134.3224  157.5083 H   0  0  0  0  0  0  0  0  0  0  0  0  # atno 11005 bound_to 11000
  144.8113  140.6390  143.6413 LP  0  0  0  0  0  0  0  0  0  0  0  0  # atno 17320 bound_to 7965
  145.4430  139.1533  143.3960 LP  0  0  0  0  0  0  0  0  0  0  0  0  # atno 17321 bound_to 7965
  140.7503  143.2953  151.3221 LP  0  0  0  0  0  0  0  0  0  0  0  0  # atno 17342 bound_to 10162
  139.6440  144.0487  152.2576 LP  0  0  0  0  0  0  0  0  0  0  0  0  # atno 17343 bound_to 10162
  156.3139  130.3776  149.7636 LP  0  0  0  0  0  0  0  0  0  0  0  0  # atno 17370 bound_to 10713
  156.5228  130.8223  151.3210 LP  0  0  0  0  0  0  0  0  0  0  0  0  # atno 17371 bound_to 10713
  139.8760  134.9242  156.3344 LP  0  0  0  0  0  0  0  0  0  0  0  0  # atno 17394 bound_to 11000
  140.9602  133.7393  156.0391 LP  0  0  0  0  0  0  0  0  0  0  0  0  # atno 17395 bound_to 11000

$$$$
