AV-unprocessed.smi:34|AV-procd|sdf|234|dock7
  -GOLD-   2262015573D 1   1.00000     0.00000
 Structure written by MMmdl.
 54 58  0  0  0  0  0  0  0  0  2 V2000
  151.9428  138.7033  158.7609 O   0  0  0  0  0  0  0  0  0  0  0  0
  152.1541  139.6580  158.0097 C   0  0  0  0  0  0  0  0  0  0  0  0
  152.4528  139.6263  156.6861 N   0  5  0  0  0  0  0  0  0  0  0  0
  151.6402  138.9819  155.8350 C   0  0  0  0  0  0  0  0  0  0  0  0
  150.8876  139.6762  154.9429 N   0  0  0  0  0  0  0  0  0  0  0  0
  150.0749  139.0319  154.0966 C   0  0  0  0  0  0  0  0  0  0  0  0
  149.8654  137.7177  153.9682 N   0  0  0  0  0  0  0  0  0  0  0  0
  150.6274  137.0107  154.8521 C   0  0  0  0  0  0  0  0  0  0  0  0
  151.5308  137.5646  155.8039 C   0  0  0  0  0  0  0  0  0  0  0  0
  152.1408  136.5609  156.5425 N   0  0  0  0  0  0  0  0  0  0  0  0
  151.5875  135.4674  156.0207 C   0  0  0  0  0  0  0  0  0  0  0  0
  150.6877  135.6409  155.0295 N   0  0  0  0  0  0  0  0  0  0  0  0
  149.9037  134.6177  154.2666 C   0  0  1  0  0  0  0  0  0  0  0  0
  150.4286  133.3527  154.5521 O   0  0  0  0  0  0  0  0  0  0  0  0
  149.5445  132.6511  155.4197 C   0  0  2  0  0  0  0  0  0  0  0  0
  149.7716  131.1410  155.3008 C   0  0  0  0  0  0  0  0  0  0  0  0
  149.1573  130.6734  154.1114 O   0  0  0  0  0  0  0  0  0  0  0  0
  149.7791  129.7555  153.3467 C   0  0  0  0  0  0  0  0  0  0  0  0
  150.9022  129.3106  153.5923 O   0  0  0  0  0  0  0  0  0  0  0  0
  148.9653  129.3323  152.1705 C   0  0  0  0  0  0  0  0  0  0  0  0
  147.6924  129.9136  151.9638 C   0  0  0  0  0  0  0  0  0  0  0  0
  146.9006  129.5340  150.8627 C   0  0  0  0  0  0  0  0  0  0  0  0
  147.3721  128.5685  149.9545 C   0  0  0  0  0  0  0  0  0  0  0  0
  148.6370  127.9832  150.1484 C   0  0  0  0  0  0  0  0  0  0  0  0
  149.4306  128.3617  151.2490 C   0  0  0  0  0  0  0  0  0  0  0  0
  148.1876  133.1101  154.8983 C   0  0  1  0  0  0  0  0  0  0  0  0
  147.1716  132.8430  155.7207 F   0  0  0  0  0  0  0  0  0  0  0  0
  148.4092  134.5964  154.6686 C   0  0  1  0  0  0  0  0  0  0  0  0
  148.1181  135.3448  155.8386 O   0  0  0  0  0  0  0  0  0  0  0  0
  152.0192  141.0540  158.5564 C   0  0  0  0  0  0  0  0  0  0  0  0
  151.1516  141.9734  157.9236 C   0  0  0  0  0  0  0  0  0  0  0  0
  150.9886  143.2747  158.4372 C   0  0  0  0  0  0  0  0  0  0  0  0
  151.6847  143.6679  159.5956 C   0  0  0  0  0  0  0  0  0  0  0  0
  152.5416  142.7575  160.2420 C   0  0  0  0  0  0  0  0  0  0  0  0
  152.7053  141.4560  159.7287 C   0  0  0  0  0  0  0  0  0  0  0  0
  149.5101  139.6614  153.4250 H   0  0  0  0  0  0  0  0  0  0  0  0
  151.8518  134.4855  156.3847 H   0  0  0  0  0  0  0  0  0  0  0  0
  150.0732  134.8620  153.2173 H   0  0  0  0  0  0  0  0  0  0  0  0
  149.6833  132.9875  156.4487 H   0  0  0  0  0  0  0  0  0  0  0  0
  150.8399  130.9262  155.2521 H   0  0  0  0  0  0  0  0  0  0  0  0
  149.3704  130.6269  156.1754 H   0  0  0  0  0  0  0  0  0  0  0  0
  147.3088  130.6571  152.6477 H   0  0  0  0  0  0  0  0  0  0  0  0
  145.9302  129.9848  150.7154 H   0  0  0  0  0  0  0  0  0  0  0  0
  146.7646  128.2775  149.1104 H   0  0  0  0  0  0  0  0  0  0  0  0
  148.9998  127.2423  149.4514 H   0  0  0  0  0  0  0  0  0  0  0  0
  150.3967  127.8934  151.3680 H   0  0  0  0  0  0  0  0  0  0  0  0
  147.9682  132.6193  153.9488 H   0  0  0  0  0  0  0  0  0  0  0  0
  147.7992  134.9740  153.8474 H   0  0  0  0  0  0  0  0  0  0  0  0
  147.4234  134.9093  156.3086 H   0  0  0  0  0  0  0  0  0  0  0  0
  150.6067  141.6855  157.0360 H   0  0  0  0  0  0  0  0  0  0  0  0
  150.3266  143.9701  157.9429 H   0  0  0  0  0  0  0  0  0  0  0  0
  151.5585  144.6651  159.9905 H   0  0  0  0  0  0  0  0  0  0  0  0
  153.0710  143.0544  161.1352 H   0  0  0  0  0  0  0  0  0  0  0  0
  153.3585  140.7687  160.2466 H   0  0  0  0  0  0  0  0  0  0  0  0
  1  2  2  0  0  0  0
  2  3  1  0  0  0  0
  2 30  1  0  0  0  0
  3  4  1  0  0  0  0
  4  9  1  0  0  0  0
  4  5  2  0  0  0  0
  5  6  1  0  0  0  0
  6  7  2  0  0  0  0
  6 36  1  0  0  0  0
  7  8  1  0  0  0  0
  8 12  1  0  0  0  0
  8  9  2  0  0  0  0
  9 10  1  0  0  0  0
 10 11  2  0  0  0  0
 11 12  1  0  0  0  0
 11 37  1  0  0  0  0
 12 13  1  0  0  0  0
 13 28  1  0  0  0  0
 13 14  1  0  0  0  0
 13 38  1  0  0  0  0
 14 15  1  0  0  0  0
 15 16  1  0  0  0  0
 15 26  1  0  0  0  0
 15 39  1  0  0  0  0
 16 17  1  0  0  0  0
 16 40  1  0  0  0  0
 16 41  1  0  0  0  0
 17 18  1  0  0  0  0
 18 19  2  0  0  0  0
 18 20  1  0  0  0  0
 20 25  1  0  0  0  0
 20 21  2  0  0  0  0
 21 22  1  0  0  0  0
 21 42  1  0  0  0  0
 22 23  2  0  0  0  0
 22 43  1  0  0  0  0
 23 24  1  0  0  0  0
 23 44  1  0  0  0  0
 24 25  2  0  0  0  0
 24 45  1  0  0  0  0
 25 46  1  0  0  0  0
 26 27  1  0  0  0  0
 26 28  1  0  0  0  0
 26 47  1  0  0  0  0
 28 29  1  0  0  0  0
 28 48  1  0  0  0  0
 29 49  1  0  0  0  0
 30 35  1  0  0  0  0
 30 31  2  0  0  0  0
 31 32  1  0  0  0  0
 31 50  1  0  0  0  0
 32 33  2  0  0  0  0
 32 51  1  0  0  0  0
 33 34  1  0  0  0  0
 33 52  1  0  0  0  0
 34 35  2  0  0  0  0
 34 53  1  0  0  0  0
 35 54  1  0  0  0  0
M  CHG  1   3  -1
M  END
> <s_m_source_file>
AV-unprocessed.smi

> <i_m_source_file_index>
34

> <i_lp_mmshare_version>
43012

> <i_f3d_flags>
0

> <s_epik_input>
W2NIXTFbY0hdW2NIXVtjSF1bY0hdYzFDKD1PKVtOSF1jKG5bY0hdbjIpYyhjMjMpbltjSF1uM1tDQEBIXTRPW0NASF0oW0NAQEhdKEYpW0NASF00W09IXSlbQ0gyXU9DKD1PKWM1W2NIXVtjSF1bY0hdW2NIXVtjSF01

> <s_epik_cmdline>
J2VwaWtfcHl0aG9uJywgJy1waCcsICc3LjAnLCAnLXRuJywgJzgnLCAnLW1hJywgJzIwMCcsICctbWV0YWxfYmluZGluZycsICctaW1hZScsICc8aW5maWxlLm1hZT4nLCAnLW9tYWUnLCAnPG91dGZpbGUubWFlPic=

> <r_lp_tautomer_probability>
1

> <r_epik_Ionization_Penalty>
4.33227

> <r_epik_Ionization_Penalty_Charging>
3.41027

> <r_epik_Ionization_Penalty_Neutral>
0.922001

> <r_epik_State_Penalty>
3.41358

> <r_epik_Charging_Adjusted_Penalty>
6.82385

> <i_epik_Tot_Q>
-1

> <i_epik_Tot_abs_Q>
1

> <r_epik_Metal_State_Penalty>
0.496292

> <b_epik_Metal_Only>
1

> <s_epik_Chemistry_Notes>
This compound has an ester and may undergo hydrolysis at high or low pH. This compound contains an acetal/aminal-like group ( X-CH(R)-Y where X, Y are N, S, or O) that may be acid/base labile, releasing an aldehyde.

> <s_lp_Force_Field>
OPLS_2005

> <r_lp_Energy>
50.8657

> <b_lp_Chiralities_Consistent>
1

> <s_lp_Variant>
AV-unprocessed.smi:34-20

> <Gold.Version>
5.8.1

> <Gold.Id.Protein>
6NUR|6NUR_protein|mol2

> <Gold.PLP.Fitness>
59.7294

> <Gold.PLP.PLP>
-53.3949

> <Gold.PLP.part.hbond>
-2.3131

> <Gold.PLP.part.metal>
0.0000

> <Gold.PLP.part.buried>
-5.9958

> <Gold.PLP.part.nonpolar>
-47.4026

> <Gold.PLP.part.repulsive>
2.4689

> <Gold.PLP.ligand.clash>
0.0000

> <Gold.PLP.ligand.torsion>
2.9004

> <Gold.PLP.Chemscore.Hbond>
2.9000

> <Gold.PLP.Chemscore.CHOScore>
1.0000

> <Gold.PLP.Chemscore.Metal>
0.0000

> <Gold.Chemscore.Hbonds>
donor molecule, donor type, donor heavy atom, donor atom, acceptor molecule, acceptor atom, score
      P1  H  7989  7998       L1     5  0.65
      P1  H  7997  8009       L1     3  2.00
      L1  C     6    36       P1  7957  1.00

> <Gold.PLP.Chemscore.Internal.Correction>
0.4353

> <Gold.Rescore>
     Score         DG    S(hbond)    S(metal)    S(lipo)     H(rot)  DE(clash)    DE(int)     intcor
     14.06     -17.00       0.87        0.00     132.54       2.69       0.13       2.80       ----

> <Gold.Chemscore.Fitness>
14.0637

> <Gold.Chemscore.DG>
-16.9971

> <Gold.Chemscore.ZeroCoef>
-5.4800

> <Gold.Chemscore.Hbond>
0.8705

> <Gold.Chemscore.Metal>
0.0000

> <Gold.Chemscore.Lipo>
132.5392

> <Gold.Chemscore.Internal_Hbond>
0.0000

> <Gold.Chemscore.DEClash>
0.1334

> <Gold.Chemscore.DEInternal>
2.8000

> <Gold.Chemscore.Rot>
2.6944

> <Gold.Chemscore.Internal.Correction>
   9.000000E+99

> <Gold.Chemscore.Hbonds>
donor molecule, donor type, donor heavy atom, donor atom, acceptor molecule, acceptor atom, score
      P1  H  7989  7998       L1     5  0.05
      P1  H  7997  8009       L1     3  0.82

> <Gold.Chemscore.Hbond.Weighted>
-2.9075

> <Gold.Chemscore.Metal.Weighted>
-0.0000

> <Gold.Chemscore.Lipo.Weighted>
-15.5071

> <Gold.Chemscore.Internal_Hbond.Weighted>
0.0000

> <Gold.Chemscore.DEClash.Weighted>
0.1334

> <Gold.Chemscore.DEInternal.Weighted>
2.8000

> <Gold.Chemscore.Rot.Weighted>
6.8975

> <Gold.Chemscore.Internal.Correction.Weighted>
   9.000000E+99

> <Gold.Protein.RotatedTorsions>
[ 6907 6896 6895 6894 ] final -109.53 input  -60.11 | X-H torsion
[ 7974 7965 7964 7962 ] final  140.72 input  175.53 | X-H torsion
[ 8008 7997 7996 7995 ] final -153.74 input   59.86 | X-H torsion
[ 10167 10162 10161 10158 ] final  166.98 input  -65.29 | X-H torsion
[ 10718 10713 10712 10709 ] final   94.74 input   66.30 | X-H torsion
[ 10763 10752 10751 10750 ] final   -9.37 input  -60.55 | X-H torsion
[ 11005 11000 10999 10996 ] final -131.72 input  -57.11 | X-H torsion

> <Gold.Protein.ActiveResidues>
 VAL166  LYS551  ARG553  GLY616  TRP617  ASP618  TYR619  PRO620  LYS621  CYS622 
 ASP623  PHE694  ASN695  SER759  ASP760  ASP761  ALA762  ILE779  LEU786  VAL792 
 PHE793  MET794  SER795  GLU796  ALA797  LYS798  CYS799  TRP800  GLU811  SER814 

> <Gold.Protein.RotatedAtoms>
  150.7567  133.9516  159.3487 H   0  0  0  0  0  0  0  0  0  0  0  0  # atno 6907 bound_to 6896
  151.7434  135.0847  160.0328 H   0  0  0  0  0  0  0  0  0  0  0  0  # atno 6908 bound_to 6896
  152.3514  133.6146  159.5983 H   0  0  0  0  0  0  0  0  0  0  0  0  # atno 6909 bound_to 6896
  144.9161  139.5229  143.5685 H   0  0  0  0  0  0  0  0  0  0  0  0  # atno 7974 bound_to 7965
  155.6755  140.0738  157.2504 H   0  0  0  0  0  0  0  0  0  0  0  0  # atno 8008 bound_to 7997
  154.4115  140.1691  156.1977 H   0  0  0  0  0  0  0  0  0  0  0  0  # atno 8009 bound_to 7997
  155.9580  140.3372  155.6468 H   0  0  0  0  0  0  0  0  0  0  0  0  # atno 8010 bound_to 7997
  139.4935  144.3970  151.9452 H   0  0  0  0  0  0  0  0  0  0  0  0  # atno 10167 bound_to 10162
  157.6945  131.0522  150.4232 H   0  0  0  0  0  0  0  0  0  0  0  0  # atno 10718 bound_to 10713
  153.4537  135.7015  153.6093 H   0  0  0  0  0  0  0  0  0  0  0  0  # atno 10763 bound_to 10752
  153.4416  135.3779  155.2232 H   0  0  0  0  0  0  0  0  0  0  0  0  # atno 10764 bound_to 10752
  154.8728  135.3975  154.3953 H   0  0  0  0  0  0  0  0  0  0  0  0  # atno 10765 bound_to 10752
  140.9234  134.1415  157.4295 H   0  0  0  0  0  0  0  0  0  0  0  0  # atno 11005 bound_to 11000
  146.3182  139.8005  142.8966 LP  0  0  0  0  0  0  0  0  0  0  0  0  # atno 17320 bound_to 7965
  145.3373  141.0280  143.3412 LP  0  0  0  0  0  0  0  0  0  0  0  0  # atno 17321 bound_to 7965
  140.3409  144.3205  150.5967 LP  0  0  0  0  0  0  0  0  0  0  0  0  # atno 17342 bound_to 10162
  140.5567  143.2198  151.7836 LP  0  0  0  0  0  0  0  0  0  0  0  0  # atno 17343 bound_to 10162
  156.4605  130.4031  149.6579 LP  0  0  0  0  0  0  0  0  0  0  0  0  # atno 17370 bound_to 10713
  156.3696  130.7523  151.2505 LP  0  0  0  0  0  0  0  0  0  0  0  0  # atno 17371 bound_to 10713
  139.8780  134.9979  156.5873 LP  0  0  0  0  0  0  0  0  0  0  0  0  # atno 17394 bound_to 11000
  140.7958  133.8545  155.8685 LP  0  0  0  0  0  0  0  0  0  0  0  0  # atno 17395 bound_to 11000

$$$$
