AV-unprocessed.smi:1897|AV-procd|sdf|7688|dock5
  -GOLD-   22720 9423D 1   1.00000     0.00000
 Structure written by MMmdl.
 39 41  0  0  0  0  0  0  0  0  2 V2000
  150.7104  141.7582  156.5509 C   0  0  0  0  0  0  0  0  0  0  0  0
  150.2735  140.6591  155.6441 C   0  0  0  0  0  0  0  0  0  0  0  0
  151.1373  139.8606  155.0054 N   0  0  0  0  0  0  0  0  0  0  0  0
  150.4957  138.9199  154.2137 N   0  0  0  0  0  0  0  0  0  0  0  0
  149.1607  139.0258  154.2870 C   0  0  0  0  0  0  0  0  0  0  0  0
  148.2480  138.2072  153.5604 N   0  0  0  0  0  0  0  0  0  0  0  0
  146.8992  138.1605  153.5688 C   0  0  0  0  0  0  0  0  0  0  0  0
  146.2406  138.9080  154.2894 O   0  0  0  0  0  0  0  0  0  0  0  0
  146.3356  137.2568  152.7495 N   0  0  0  0  0  0  0  0  0  0  0  0
  144.9026  137.0643  152.5407 C   0  0  2  0  0  0  0  0  0  0  0  0
  144.1108  137.0160  153.8622 C   0  0  0  0  0  0  0  0  0  0  0  0
  143.1193  135.8614  153.6835 C   0  0  0  0  0  0  0  0  0  0  0  0
  143.8534  134.9272  152.8224 N   0  3  1  0  0  0  0  0  0  0  0  0
  143.1175  133.7942  152.2253 C   0  0  0  0  0  0  0  0  0  0  0  0
  144.1317  132.8705  151.5176 C   0  0  0  0  0  0  0  0  0  0  0  0
  145.0310  133.6408  150.5243 C   0  0  0  0  0  0  0  0  0  0  0  0
  145.6706  134.8849  151.1776 C   0  0  0  0  0  0  0  0  0  0  0  0
  144.5620  135.7398  151.8187 C   0  0  2  0  0  0  0  0  0  0  0  0
  148.5777  140.3194  155.3210 S   0  0  0  0  0  0  0  0  0  0  0  0
  151.6880  141.5346  156.9792 H   0  0  0  0  0  0  0  0  0  0  0  0
  149.9949  141.8817  157.3641 H   0  0  0  0  0  0  0  0  0  0  0  0
  150.7758  142.6941  155.9955 H   0  0  0  0  0  0  0  0  0  0  0  0
  148.6885  137.4845  153.0095 H   0  0  0  0  0  0  0  0  0  0  0  0
  146.9556  136.6785  152.2001 H   0  0  0  0  0  0  0  0  0  0  0  0
  144.5114  137.8911  151.9443 H   0  0  0  0  0  0  0  0  0  0  0  0
  144.7778  136.7899  154.6959 H   0  0  0  0  0  0  0  0  0  0  0  0
  143.6132  137.9598  154.0878 H   0  0  0  0  0  0  0  0  0  0  0  0
  142.8294  135.4037  154.6299 H   0  0  0  0  0  0  0  0  0  0  0  0
  142.2178  136.2032  153.1723 H   0  0  0  0  0  0  0  0  0  0  0  0
  142.5893  133.2456  153.0061 H   0  0  0  0  0  0  0  0  0  0  0  0
  142.3683  134.1615  151.5224 H   0  0  0  0  0  0  0  0  0  0  0  0
  144.7619  132.3914  152.2683 H   0  0  0  0  0  0  0  0  0  0  0  0
  143.6074  132.0661  151.0006 H   0  0  0  0  0  0  0  0  0  0  0  0
  145.8067  132.9822  150.1326 H   0  0  0  0  0  0  0  0  0  0  0  0
  144.4325  133.9527  149.6671 H   0  0  0  0  0  0  0  0  0  0  0  0
  146.3992  134.5779  151.9294 H   0  0  0  0  0  0  0  0  0  0  0  0
  146.2116  135.4603  150.4257 H   0  0  0  0  0  0  0  0  0  0  0  0
  143.8428  135.9941  151.0368 H   0  0  0  0  0  0  0  0  0  0  0  0
  144.5696  134.5260  153.4107 H   0  0  0  0  0  0  0  0  0  0  0  0
  1  2  1  0  0  0  0
  1 20  1  0  0  0  0
  1 21  1  0  0  0  0
  1 22  1  0  0  0  0
  2 19  1  0  0  0  0
  2  3  2  0  0  0  0
  3  4  1  0  0  0  0
  4  5  2  0  0  0  0
  5  6  1  0  0  0  0
  5 19  1  0  0  0  0
  6  7  1  0  0  0  0
  6 23  1  0  0  0  0
  7  8  2  0  0  0  0
  7  9  1  0  0  0  0
  9 10  1  0  0  0  0
  9 24  1  0  0  0  0
 10 18  1  0  0  0  0
 10 11  1  0  0  0  0
 10 25  1  0  0  0  0
 11 12  1  0  0  0  0
 11 26  1  0  0  0  0
 11 27  1  0  0  0  0
 12 13  1  0  0  0  0
 12 28  1  0  0  0  0
 12 29  1  0  0  0  0
 13 18  1  0  0  0  0
 13 14  1  0  0  0  0
 13 39  1  0  0  0  0
 14 15  1  0  0  0  0
 14 30  1  0  0  0  0
 14 31  1  0  0  0  0
 15 16  1  0  0  0  0
 15 32  1  0  0  0  0
 15 33  1  0  0  0  0
 16 17  1  0  0  0  0
 16 34  1  0  0  0  0
 16 35  1  0  0  0  0
 17 18  1  0  0  0  0
 17 36  1  0  0  0  0
 17 37  1  0  0  0  0
 18 38  1  0  0  0  0
M  CHG  1  13   1
M  END
> <s_m_source_file>
AV-unprocessed.smi

> <i_m_source_file_index>
1897

> <i_lp_mmshare_version>
43012

> <i_f3d_flags>
0

> <s_epik_input>
W0NIM11jMW5uYyhzMSlbTkhdQyg9TylbTkhdW0NASF0oW0NIMl1bQ0gyXTIpW0NAQEhdKE4yMylbQ0gyXVtDSDJdW0NIMl1bQ0gyXTM=

> <s_epik_cmdline>
J2VwaWtfcHl0aG9uJywgJy1waCcsICc3LjAnLCAnLXRuJywgJzgnLCAnLW1hJywgJzIwMCcsICctbWV0YWxfYmluZGluZycsICctaW1hZScsICc8aW5maWxlLm1hZT4nLCAnLW9tYWUnLCAnPG91dGZpbGUubWFlPic=

> <r_lp_tautomer_probability>
1

> <r_epik_Ionization_Penalty>
0.00228891

> <r_epik_Ionization_Penalty_Charging>
0.00107044

> <r_epik_Ionization_Penalty_Neutral>
0.00121847

> <r_epik_State_Penalty>
-0

> <r_epik_Charging_Adjusted_Penalty>
0.00107044

> <i_epik_Tot_Q>
1

> <i_epik_Tot_abs_Q>
1

> <r_epik_Metal_State_Penalty>
0.304057

> <b_epik_Metal_Only>
0

> <s_lp_Force_Field>
OPLS_2005

> <r_lp_Energy>
42.5593

> <b_lp_Chiralities_Consistent>
1

> <s_lp_Variant>
AV-unprocessed.smi:1897-5

> <Gold.Version>
5.8.1

> <Gold.Id.Protein>
6NUR|6NUR_protein|mol2

> <Gold.PLP.Fitness>
36.6237

> <Gold.PLP.PLP>
-29.2945

> <Gold.PLP.part.hbond>
-4.0059

> <Gold.PLP.part.metal>
0.0000

> <Gold.PLP.part.buried>
-2.5337

> <Gold.PLP.part.nonpolar>
-23.8141

> <Gold.PLP.part.repulsive>
0.4929

> <Gold.PLP.ligand.clash>
0.0000

> <Gold.PLP.ligand.torsion>
0.1685

> <Gold.PLP.Chemscore.Hbond>
2.5550

> <Gold.PLP.Chemscore.CHOScore>
0.0000

> <Gold.PLP.Chemscore.Metal>
0.0000

> <Gold.Chemscore.Hbonds>
donor molecule, donor type, donor heavy atom, donor atom, acceptor molecule, acceptor atom, score
      L1  H     6    23       P1  7948  1.00
      L1  H     9    24       P1  7948  0.82
      P1  H  7989  7998       L1     3  0.60

> <Gold.PLP.Chemscore.Internal.Correction>
0.0011

> <Gold.Rescore>
     Score         DG    S(hbond)    S(metal)    S(lipo)     H(rot)  DE(clash)    DE(int)     intcor
     13.72     -16.43       1.94        0.00      60.12       1.00       0.06       2.66       ----

> <Gold.Chemscore.Fitness>
13.7151

> <Gold.Chemscore.DG>
-16.4311

> <Gold.Chemscore.ZeroCoef>
-5.4800

> <Gold.Chemscore.Hbond>
1.9393

> <Gold.Chemscore.Metal>
0.0000

> <Gold.Chemscore.Lipo>
60.1180

> <Gold.Chemscore.Internal_Hbond>
0.0000

> <Gold.Chemscore.DEClash>
0.0583

> <Gold.Chemscore.DEInternal>
2.6577

> <Gold.Chemscore.Rot>
1.0000

> <Gold.Chemscore.Internal.Correction>
   9.000000E+99

> <Gold.Chemscore.Hbonds>
donor molecule, donor type, donor heavy atom, donor atom, acceptor molecule, acceptor atom, score
      L1  H     6    23       P1  7948  1.00
      L1  H     9    24       P1  7948  0.77
      P1  H  7989  7998       L1     3  0.02

> <Gold.Chemscore.Hbond.Weighted>
-6.4773

> <Gold.Chemscore.Metal.Weighted>
-0.0000

> <Gold.Chemscore.Lipo.Weighted>
-7.0338

> <Gold.Chemscore.Internal_Hbond.Weighted>
0.0000

> <Gold.Chemscore.DEClash.Weighted>
0.0583

> <Gold.Chemscore.DEInternal.Weighted>
2.6577

> <Gold.Chemscore.Rot.Weighted>
2.5600

> <Gold.Chemscore.Internal.Correction.Weighted>
   9.000000E+99

> <Gold.Protein.RotatedTorsions>
[ 6907 6896 6895 6894 ] final -123.41 input  -60.11 | X-H torsion
[ 7974 7965 7964 7962 ] final  -99.59 input  175.53 | X-H torsion
[ 8008 7997 7996 7995 ] final   75.36 input   59.86 | X-H torsion
[ 10167 10162 10161 10158 ] final  -94.49 input  -65.29 | X-H torsion
[ 10718 10713 10712 10709 ] final  150.17 input   66.30 | X-H torsion
[ 10763 10752 10751 10750 ] final   61.27 input  -60.55 | X-H torsion
[ 11005 11000 10999 10996 ] final -131.54 input  -57.11 | X-H torsion

> <Gold.Protein.ActiveResidues>
 VAL166  LYS551  ARG553  GLY616  TRP617  ASP618  TYR619  PRO620  LYS621  CYS622 
 ASP623  PHE694  ASN695  SER759  ASP760  ASP761  ALA762  ILE779  LEU786  VAL792 
 PHE793  MET794  SER795  GLU796  ALA797  LYS798  CYS799  TRP800  GLU811  SER814 

> <Gold.Protein.RotatedAtoms>
  150.8668  133.7562  159.2973 H   0  0  0  0  0  0  0  0  0  0  0  0  # atno 6907 bound_to 6896
  151.5187  135.1065  159.9882 H   0  0  0  0  0  0  0  0  0  0  0  0  # atno 6908 bound_to 6896
  152.4667  133.7894  159.6949 H   0  0  0  0  0  0  0  0  0  0  0  0  # atno 6909 bound_to 6896
  145.3056  140.9388  143.2798 H   0  0  0  0  0  0  0  0  0  0  0  0  # atno 7974 bound_to 7965
  155.8118  140.3473  155.5462 H   0  0  0  0  0  0  0  0  0  0  0  0  # atno 8008 bound_to 7997
  155.8433  140.0945  157.1741 H   0  0  0  0  0  0  0  0  0  0  0  0  # atno 8009 bound_to 7997
  154.4005  140.1390  156.3742 H   0  0  0  0  0  0  0  0  0  0  0  0  # atno 8010 bound_to 7997
  140.3139  143.3089  152.0119 H   0  0  0  0  0  0  0  0  0  0  0  0  # atno 10167 bound_to 10162
  157.2868  131.0846  151.1491 H   0  0  0  0  0  0  0  0  0  0  0  0  # atno 10718 bound_to 10713
  152.9945  135.5506  154.6007 H   0  0  0  0  0  0  0  0  0  0  0  0  # atno 10763 bound_to 10752
  154.5349  135.2816  155.1149 H   0  0  0  0  0  0  0  0  0  0  0  0  # atno 10764 bound_to 10752
  154.2449  135.6409  153.5273 H   0  0  0  0  0  0  0  0  0  0  0  0  # atno 10765 bound_to 10752
  140.9249  134.1395  157.4283 H   0  0  0  0  0  0  0  0  0  0  0  0  # atno 11005 bound_to 11000
  144.9057  139.4592  143.6611 LP  0  0  0  0  0  0  0  0  0  0  0  0  # atno 17320 bound_to 7965
  146.3136  139.7837  142.9000 LP  0  0  0  0  0  0  0  0  0  0  0  0  # atno 17321 bound_to 7965
  139.4888  144.6364  151.6967 LP  0  0  0  0  0  0  0  0  0  0  0  0  # atno 17342 bound_to 10162
  140.5544  144.0372  150.6141 LP  0  0  0  0  0  0  0  0  0  0  0  0  # atno 17343 bound_to 10162
  157.2903  130.6793  149.6111 LP  0  0  0  0  0  0  0  0  0  0  0  0  # atno 17370 bound_to 10713
  155.9666  130.4423  150.5374 LP  0  0  0  0  0  0  0  0  0  0  0  0  # atno 17371 bound_to 10713
  139.8783  134.9985  156.5902 LP  0  0  0  0  0  0  0  0  0  0  0  0  # atno 17394 bound_to 11000
  140.7939  133.8560  155.8669 LP  0  0  0  0  0  0  0  0  0  0  0  0  # atno 17395 bound_to 11000

$$$$
