AV-unprocessed.smi:2001|AV-procd|sdf|8112|dock9
  -GOLD-   2272010343D 1   1.00000     0.00000
 Structure written by MMmdl.
 50 51  0  0  0  0  0  0  0  0  3 V2000
  152.1016  144.8362  159.1174 C   0  0  0  0  0  0  0  0  0  0  0  0
  151.1038  143.9430  159.5802 O   0  0  0  0  0  0  0  0  0  0  0  0
  151.1946  142.6671  158.9689 C   0  0  0  0  0  0  0  0  0  0  0  0
  151.1966  142.8406  157.4426 C   0  0  0  0  0  0  0  0  0  0  0  0
  150.9954  141.5586  156.7602 N   0  0  0  0  0  0  0  0  0  0  0  0
  149.9968  141.5825  155.8013 N   0  0  0  0  0  0  0  0  0  0  0  0
  149.7285  140.5237  155.1074 C   0  0  0  0  0  0  0  0  0  0  0  0
  148.6545  140.5508  154.0630 C   0  0  0  0  0  0  0  0  0  0  0  0
  148.2925  141.6806  153.7072 O   0  0  0  0  0  0  0  0  0  0  0  0
  148.1610  139.3680  153.5882 N   0  5  0  0  0  0  0  0  0  0  0  0
  146.7781  138.9101  153.7314 C   0  0  0  0  0  0  0  0  0  0  0  0
  146.3355  138.1872  152.4457 C   0  0  0  0  0  0  0  0  0  0  0  0
  144.9315  137.6983  152.5451 N   0  3  1  0  0  0  0  0  0  0  0  0
  144.5525  136.6825  151.5292 C   0  0  0  0  0  0  0  0  0  0  0  0
  145.0887  135.2840  151.9044 C   0  0  2  0  0  0  0  0  0  0  0  0
  144.6003  134.2025  150.9344 C   0  0  0  0  0  0  0  0  0  0  0  0
  144.6395  134.9419  153.2121 O   0  0  0  0  0  0  0  0  0  0  0  0
  145.0983  135.8491  154.2095 C   0  0  2  0  0  0  0  0  0  0  0  0
  144.6365  135.3301  155.5757 C   0  0  0  0  0  0  0  0  0  0  0  0
  144.5366  137.2512  153.9028 C   0  0  0  0  0  0  0  0  0  0  0  0
  150.4702  139.2880  155.3312 C   0  0  0  0  0  0  0  0  0  0  0  0
  151.4445  139.2825  156.2668 C   0  0  0  0  0  0  0  0  0  0  0  0
  151.7706  140.4722  157.0530 C   0  0  0  0  0  0  0  0  0  0  0  0
  152.6656  140.4959  157.8976 O   0  0  0  0  0  0  0  0  0  0  0  0
  151.9991  145.7954  159.6248 H   0  0  0  0  0  0  0  0  0  0  0  0
  152.0065  145.0110  158.0450 H   0  0  0  0  0  0  0  0  0  0  0  0
  153.1019  144.4521  159.3220 H   0  0  0  0  0  0  0  0  0  0  0  0
  152.1091  142.1645  159.2884 H   0  0  0  0  0  0  0  0  0  0  0  0
  150.3519  142.0474  159.2798 H   0  0  0  0  0  0  0  0  0  0  0  0
  150.4306  143.5593  157.1459 H   0  0  0  0  0  0  0  0  0  0  0  0
  152.1443  143.2818  157.1285 H   0  0  0  0  0  0  0  0  0  0  0  0
  146.6537  138.2302  154.5755 H   0  0  0  0  0  0  0  0  0  0  0  0
  146.1010  139.7440  153.9167 H   0  0  0  0  0  0  0  0  0  0  0  0
  146.4499  138.8550  151.5918 H   0  0  0  0  0  0  0  0  0  0  0  0
  147.0180  137.3560  152.2611 H   0  0  0  0  0  0  0  0  0  0  0  0
  143.4636  136.6533  151.4715 H   0  0  0  0  0  0  0  0  0  0  0  0
  144.9047  136.9823  150.5415 H   0  0  0  0  0  0  0  0  0  0  0  0
  146.1796  135.2830  151.8930 H   0  0  0  0  0  0  0  0  0  0  0  0
  144.9292  134.4113  149.9159 H   0  0  0  0  0  0  0  0  0  0  0  0
  143.5118  134.1392  150.9285 H   0  0  0  0  0  0  0  0  0  0  0  0
  144.9892  133.2231  151.2150 H   0  0  0  0  0  0  0  0  0  0  0  0
  146.1894  135.8730  154.2008 H   0  0  0  0  0  0  0  0  0  0  0  0
  144.9743  135.9859  156.3787 H   0  0  0  0  0  0  0  0  0  0  0  0
  145.0363  134.3346  155.7702 H   0  0  0  0  0  0  0  0  0  0  0  0
  143.5491  135.2686  155.6281 H   0  0  0  0  0  0  0  0  0  0  0  0
  144.8585  137.9794  154.6489 H   0  0  0  0  0  0  0  0  0  0  0  0
  143.4470  137.2282  153.9498 H   0  0  0  0  0  0  0  0  0  0  0  0
  150.2609  138.3887  154.7713 H   0  0  0  0  0  0  0  0  0  0  0  0
  152.0013  138.3733  156.4403 H   0  0  0  0  0  0  0  0  0  0  0  0
  144.3770  138.5224  152.3566 H   0  0  0  0  0  0  0  0  0  0  0  0
  1  2  1  0  0  0  0
  1 25  1  0  0  0  0
  1 26  1  0  0  0  0
  1 27  1  0  0  0  0
  2  3  1  0  0  0  0
  3  4  1  0  0  0  0
  3 28  1  0  0  0  0
  3 29  1  0  0  0  0
  4  5  1  0  0  0  0
  4 30  1  0  0  0  0
  4 31  1  0  0  0  0
  5 23  1  0  0  0  0
  5  6  1  0  0  0  0
  6  7  2  0  0  0  0
  7  8  1  0  0  0  0
  7 21  1  0  0  0  0
  8  9  2  0  0  0  0
  8 10  1  0  0  0  0
 10 11  1  0  0  0  0
 11 12  1  0  0  0  0
 11 32  1  0  0  0  0
 11 33  1  0  0  0  0
 12 13  1  0  0  0  0
 12 34  1  0  0  0  0
 12 35  1  0  0  0  0
 13 20  1  0  0  0  0
 13 14  1  0  0  0  0
 13 50  1  0  0  0  0
 14 15  1  0  0  0  0
 14 36  1  0  0  0  0
 14 37  1  0  0  0  0
 15 16  1  0  0  0  0
 15 17  1  0  0  0  0
 15 38  1  0  0  0  0
 16 39  1  0  0  0  0
 16 40  1  0  0  0  0
 16 41  1  0  0  0  0
 17 18  1  0  0  0  0
 18 19  1  0  0  0  0
 18 20  1  0  0  0  0
 18 42  1  0  0  0  0
 19 43  1  0  0  0  0
 19 44  1  0  0  0  0
 19 45  1  0  0  0  0
 20 46  1  0  0  0  0
 20 47  1  0  0  0  0
 21 22  2  0  0  0  0
 21 48  1  0  0  0  0
 22 23  1  0  0  0  0
 22 49  1  0  0  0  0
 23 24  2  0  0  0  0
M  CHG  1  10  -1
M  CHG  1  13   1
M  END
> <s_m_source_file>
AV-unprocessed.smi

> <i_m_source_file_index>
2001

> <i_lp_mmshare_version>
43012

> <i_f3d_flags>
0

> <s_epik_input>
W0NIM11PW0NIMl1bQ0gyXW4xbmMoW2NIXVtjSF1jMT1PKUMoPU8pW05IXVtDSDJdW0NIMl1OMltDSDJdW0NAQEhdKFtDSDNdKU9bQ0BASF0oW0NIM10pW0NIMl0y

> <s_epik_cmdline>
J2VwaWtfcHl0aG9uJywgJy1waCcsICc3LjAnLCAnLXRuJywgJzgnLCAnLW1hJywgJzIwMCcsICctbWV0YWxfYmluZGluZycsICctaW1hZScsICc8aW5maWxlLm1hZT4nLCAnLW9tYWUnLCAnPG91dGZpbGUubWFlPic=

> <r_lp_tautomer_probability>
1

> <r_epik_Ionization_Penalty>
6.90846

> <r_epik_Ionization_Penalty_Charging>
6.90846

> <r_epik_Ionization_Penalty_Neutral>
1.08445e-11

> <r_epik_State_Penalty>
7.54671

> <r_epik_Charging_Adjusted_Penalty>
14.4552

> <i_epik_Tot_Q>
0

> <i_epik_Tot_abs_Q>
2

> <r_epik_Metal_State_Penalty>
3.46181

> <b_epik_Metal_Only>
1

> <s_lp_Force_Field>
OPLS_2005

> <r_lp_Energy>
41.6735

> <b_lp_Chiralities_Consistent>
1

> <s_lp_Variant>
AV-unprocessed.smi:2001-11

> <Gold.Version>
5.8.1

> <Gold.Id.Protein>
6NUR|6NUR_protein|mol2

> <Gold.PLP.Fitness>
41.8863

> <Gold.PLP.PLP>
-33.9530

> <Gold.PLP.part.hbond>
-4.0000

> <Gold.PLP.part.metal>
0.0000

> <Gold.PLP.part.buried>
2.6305

> <Gold.PLP.part.nonpolar>
-34.1443

> <Gold.PLP.part.repulsive>
3.1583

> <Gold.PLP.ligand.clash>
0.0000

> <Gold.PLP.ligand.torsion>
1.2000

> <Gold.PLP.Chemscore.Hbond>
3.3894

> <Gold.PLP.Chemscore.CHOScore>
0.0000

> <Gold.PLP.Chemscore.Metal>
0.0000

> <Gold.Chemscore.Hbonds>
donor molecule, donor type, donor heavy atom, donor atom, acceptor molecule, acceptor atom, score
      L1  H    13    50       P1 10175  1.92
      P1  H  7997  8009       L1    24  0.66
      P1  H  8011  8017       L1     9  0.39

> <Gold.PLP.Chemscore.Internal.Correction>
0.1652

> <Gold.Rescore>
     Score         DG    S(hbond)    S(metal)    S(lipo)     H(rot)  DE(clash)    DE(int)     intcor
     12.00     -17.11       1.96        0.00      87.72       2.02       3.86       1.24       ----

> <Gold.Chemscore.Fitness>
12.0025

> <Gold.Chemscore.DG>
-17.1100

> <Gold.Chemscore.ZeroCoef>
-5.4800

> <Gold.Chemscore.Hbond>
1.9560

> <Gold.Chemscore.Metal>
0.0000

> <Gold.Chemscore.Lipo>
87.7175

> <Gold.Chemscore.Internal_Hbond>
0.0000

> <Gold.Chemscore.DEClash>
3.8627

> <Gold.Chemscore.DEInternal>
1.2448

> <Gold.Chemscore.Rot>
2.0179

> <Gold.Chemscore.Internal.Correction>
   9.000000E+99

> <Gold.Chemscore.Hbonds>
donor molecule, donor type, donor heavy atom, donor atom, acceptor molecule, acceptor atom, score
      L1  H    13    50       P1 10175  0.90
      P1  H  7997  8009       L1    24  0.32
      P1  H  8011  8017       L1     9  0.26

> <Gold.Chemscore.Hbond.Weighted>
-6.5329

> <Gold.Chemscore.Metal.Weighted>
-0.0000

> <Gold.Chemscore.Lipo.Weighted>
-10.2629

> <Gold.Chemscore.Internal_Hbond.Weighted>
0.0000

> <Gold.Chemscore.DEClash.Weighted>
3.8627

> <Gold.Chemscore.DEInternal.Weighted>
1.2448

> <Gold.Chemscore.Rot.Weighted>
5.1659

> <Gold.Chemscore.Internal.Correction.Weighted>
   9.000000E+99

> <Gold.Protein.RotatedTorsions>
[ 6907 6896 6895 6894 ] final  -70.24 input  -60.11 | X-H torsion
[ 7974 7965 7964 7962 ] final   87.93 input  175.53 | X-H torsion
[ 8008 7997 7996 7995 ] final  169.93 input   59.86 | X-H torsion
[ 10167 10162 10161 10158 ] final  -52.39 input  -65.29 | X-H torsion
[ 10718 10713 10712 10709 ] final  137.41 input   66.30 | X-H torsion
[ 10763 10752 10751 10750 ] final   52.21 input  -60.55 | X-H torsion
[ 11005 11000 10999 10996 ] final  -36.92 input  -57.11 | X-H torsion

> <Gold.Protein.ActiveResidues>
 VAL166  LYS551  ARG553  GLY616  TRP617  ASP618  TYR619  PRO620  LYS621  CYS622 
 ASP623  PHE694  ASN695  SER759  ASP760  ASP761  ALA762  ILE779  LEU786  VAL792 
 PHE793  MET794  SER795  GLU796  ALA797  LYS798  CYS799  TRP800  GLU811  SER814 

> <Gold.Protein.RotatedAtoms>
  150.7267  134.5481  159.5780 H   0  0  0  0  0  0  0  0  0  0  0  0  # atno 6907 bound_to 6896
  152.2975  134.7647  160.0374 H   0  0  0  0  0  0  0  0  0  0  0  0  # atno 6908 bound_to 6896
  151.8239  133.3363  159.3629 H   0  0  0  0  0  0  0  0  0  0  0  0  # atno 6909 bound_to 6896
  145.5524  139.2296  143.2505 H   0  0  0  0  0  0  0  0  0  0  0  0  # atno 7974 bound_to 7965
  156.1412  140.1551  156.8917 H   0  0  0  0  0  0  0  0  0  0  0  0  # atno 8008 bound_to 7997
  154.4989  140.0830  156.7795 H   0  0  0  0  0  0  0  0  0  0  0  0  # atno 8009 bound_to 7997
  155.4074  140.3417  155.4263 H   0  0  0  0  0  0  0  0  0  0  0  0  # atno 8010 bound_to 7997
  140.6540  143.2585  151.4641 H   0  0  0  0  0  0  0  0  0  0  0  0  # atno 10167 bound_to 10162
  157.4364  131.1053  151.0193 H   0  0  0  0  0  0  0  0  0  0  0  0  # atno 10718 bound_to 10713
  152.9788  135.5820  154.4541 H   0  0  0  0  0  0  0  0  0  0  0  0  # atno 10763 bound_to 10752
  154.4126  135.2770  155.2029 H   0  0  0  0  0  0  0  0  0  0  0  0  # atno 10764 bound_to 10752
  154.3812  135.6146  153.5846 H   0  0  0  0  0  0  0  0  0  0  0  0  # atno 10765 bound_to 10752
  140.9912  133.7004  156.1853 H   0  0  0  0  0  0  0  0  0  0  0  0  # atno 11005 bound_to 11000
  146.1907  140.6347  142.9147 LP  0  0  0  0  0  0  0  0  0  0  0  0  # atno 17320 bound_to 7965
  144.7523  140.5220  143.6793 LP  0  0  0  0  0  0  0  0  0  0  0  0  # atno 17321 bound_to 7965
  139.5759  144.1820  152.1902 LP  0  0  0  0  0  0  0  0  0  0  0  0  # atno 17342 bound_to 10162
  140.1131  144.5440  150.6912 LP  0  0  0  0  0  0  0  0  0  0  0  0  # atno 17343 bound_to 10162
  157.1071  130.6006  149.5473 LP  0  0  0  0  0  0  0  0  0  0  0  0  # atno 17370 bound_to 10713
  155.9932  130.4992  150.7371 LP  0  0  0  0  0  0  0  0  0  0  0  0  # atno 17371 bound_to 10713
  140.7037  134.4537  157.5585 LP  0  0  0  0  0  0  0  0  0  0  0  0  # atno 17394 bound_to 11000
  139.8993  134.8594  156.1965 LP  0  0  0  0  0  0  0  0  0  0  0  0  # atno 17395 bound_to 11000

$$$$
