AV-unprocessed.smi:1817|AV-procd|sdf|7376|dock5
  -GOLD-   22720 9 43D 1   1.00000     0.00000
 Structure written by MMmdl.
 42 43  0  0  0  0  0  0  0  0  3 V2000
  143.8265  132.6477  150.2101 C   0  0  0  0  0  0  0  0  0  0  0  0
  144.8131  132.5621  151.3834 C   0  0  0  0  0  0  0  0  0  0  0  0
  146.0686  133.2584  151.0928 N   0  0  0  0  0  0  0  0  0  0  0  0
  145.9051  134.7106  151.0396 C   0  0  0  0  0  0  0  0  0  0  0  0
  145.6361  135.3204  152.4313 C   0  0  0  0  0  0  0  0  0  0  0  0
  146.7329  134.9978  153.3851 N   0  3  0  0  0  0  0  0  0  0  0  0
  146.5625  135.6031  154.7466 C   0  0  2  0  0  0  0  0  0  0  0  0
  146.5351  137.1471  154.7086 C   0  0  0  0  0  0  0  0  0  0  0  0
  147.6596  135.1477  155.7393 C   0  0  0  0  0  0  0  0  0  0  0  0
  147.6264  135.9305  156.9725 N   0  0  0  0  0  0  0  0  0  0  0  0
  148.4242  135.7718  158.0356 C   0  0  0  0  0  0  0  0  0  0  0  0
  149.2978  134.9020  158.0311 O   0  0  0  0  0  0  0  0  0  0  0  0
  148.1541  136.6356  159.0395 N   0  5  0  0  0  0  0  0  0  0  0  0
  147.7696  136.1708  160.2398 C   0  0  0  0  0  0  0  0  0  0  0  0
  147.4332  136.9868  161.2516 N   0  0  0  0  0  0  0  0  0  0  0  0
  147.0637  136.3046  162.4030 N   0  0  0  0  0  0  0  0  0  0  0  0
  147.1214  134.9848  162.2257 C   0  0  0  0  0  0  0  0  0  0  0  0
  147.6301  134.4556  160.6358 S   0  0  0  0  0  0  0  0  0  0  0  0
  146.9405  133.5236  153.4197 C   0  0  0  0  0  0  0  0  0  0  0  0
  147.1742  132.9551  152.0046 C   0  0  0  0  0  0  0  0  0  0  0  0
  142.8609  132.2293  150.4940 H   0  0  0  0  0  0  0  0  0  0  0  0
  144.1743  132.0907  149.3406 H   0  0  0  0  0  0  0  0  0  0  0  0
  143.6606  133.6821  149.9072 H   0  0  0  0  0  0  0  0  0  0  0  0
  144.3482  133.0382  152.2476 H   0  0  0  0  0  0  0  0  0  0  0  0
  144.9814  131.5218  151.6590 H   0  0  0  0  0  0  0  0  0  0  0  0
  146.8110  135.1489  150.6183 H   0  0  0  0  0  0  0  0  0  0  0  0
  145.0967  134.9636  150.3527 H   0  0  0  0  0  0  0  0  0  0  0  0
  145.5576  136.3973  152.2915 H   0  0  0  0  0  0  0  0  0  0  0  0
  144.6792  134.9837  152.8323 H   0  0  0  0  0  0  0  0  0  0  0  0
  145.6005  135.2722  155.1412 H   0  0  0  0  0  0  0  0  0  0  0  0
  146.5271  137.5635  155.7163 H   0  0  0  0  0  0  0  0  0  0  0  0
  145.6420  137.5322  154.2173 H   0  0  0  0  0  0  0  0  0  0  0  0
  147.4092  137.5506  154.1961 H   0  0  0  0  0  0  0  0  0  0  0  0
  147.5455  134.0821  155.9455 H   0  0  0  0  0  0  0  0  0  0  0  0
  148.6504  135.2461  155.2961 H   0  0  0  0  0  0  0  0  0  0  0  0
  146.9368  136.6647  157.0304 H   0  0  0  0  0  0  0  0  0  0  0  0
  146.8594  134.3189  163.0343 H   0  0  0  0  0  0  0  0  0  0  0  0
  147.8200  133.2778  154.0124 H   0  0  0  0  0  0  0  0  0  0  0  0
  146.0948  133.0367  153.9063 H   0  0  0  0  0  0  0  0  0  0  0  0
  147.3455  131.8804  152.0522 H   0  0  0  0  0  0  0  0  0  0  0  0
  148.0888  133.3829  151.5911 H   0  0  0  0  0  0  0  0  0  0  0  0
  147.5748  135.3992  152.9970 H   0  0  0  0  0  0  0  0  0  0  0  0
  1  2  1  0  0  0  0
  1 21  1  0  0  0  0
  1 22  1  0  0  0  0
  1 23  1  0  0  0  0
  2  3  1  0  0  0  0
  2 24  1  0  0  0  0
  2 25  1  0  0  0  0
  3 20  1  0  0  0  0
  3  4  1  0  0  0  0
  4  5  1  0  0  0  0
  4 26  1  0  0  0  0
  4 27  1  0  0  0  0
  5  6  1  0  0  0  0
  5 28  1  0  0  0  0
  5 29  1  0  0  0  0
  6  7  1  0  0  0  0
  6 19  1  0  0  0  0
  6 42  1  0  0  0  0
  7  8  1  0  0  0  0
  7  9  1  0  0  0  0
  7 30  1  0  0  0  0
  8 31  1  0  0  0  0
  8 32  1  0  0  0  0
  8 33  1  0  0  0  0
  9 10  1  0  0  0  0
  9 34  1  0  0  0  0
  9 35  1  0  0  0  0
 10 11  1  0  0  0  0
 10 36  1  0  0  0  0
 11 12  2  0  0  0  0
 11 13  1  0  0  0  0
 13 14  1  0  0  0  0
 14 18  1  0  0  0  0
 14 15  2  0  0  0  0
 15 16  1  0  0  0  0
 16 17  2  0  0  0  0
 17 18  1  0  0  0  0
 17 37  1  0  0  0  0
 19 20  1  0  0  0  0
 19 38  1  0  0  0  0
 19 39  1  0  0  0  0
 20 40  1  0  0  0  0
 20 41  1  0  0  0  0
M  CHG  1   6   1
M  CHG  1  13  -1
M  END
> <s_m_source_file>
AV-unprocessed.smi

> <i_m_source_file_index>
1817

> <i_lp_mmshare_version>
43012

> <i_f3d_flags>
0

> <s_epik_input>
W0NIM11bQ0gyXU4xW0NIMl1bQ0gyXU4oW0NIMl1bQ0gyXTEpW0NASF0oW0NIM10pW0NIMl1bTkhdQyg9TylbTkhdYzJubltjSF1zMg==

> <s_epik_cmdline>
J2VwaWtfcHl0aG9uJywgJy1waCcsICc3LjAnLCAnLXRuJywgJzgnLCAnLW1hJywgJzIwMCcsICctbWV0YWxfYmluZGluZycsICctaW1hZScsICc8aW5maWxlLm1hZT4nLCAnLW9tYWUnLCAnPG91dGZpbGUubWFlPic=

> <r_epik_Ionization_Penalty>
3.16835

> <r_epik_Ionization_Penalty_Charging>
3.13468

> <r_epik_Ionization_Penalty_Neutral>
0.0336711

> <r_epik_State_Penalty>
3.95884

> <r_epik_Charging_Adjusted_Penalty>
7.09351

> <i_epik_Tot_Q>
0

> <i_epik_Tot_abs_Q>
2

> <r_epik_Metal_State_Penalty>
1.39003

> <b_epik_Metal_Only>
1

> <s_lp_Force_Field>
OPLS_2005

> <r_lp_Energy>
20.7646

> <b_lp_Chiralities_Consistent>
1

> <s_lp_Variant>
AV-unprocessed.smi:1817-9

> <Gold.Version>
5.8.1

> <Gold.Id.Protein>
6NUR|6NUR_protein|mol2

> <Gold.PLP.Fitness>
40.7340

> <Gold.PLP.PLP>
-27.6330

> <Gold.PLP.part.hbond>
-4.0000

> <Gold.PLP.part.metal>
0.0000

> <Gold.PLP.part.buried>
-5.7557

> <Gold.PLP.part.nonpolar>
-18.5955

> <Gold.PLP.part.repulsive>
0.1653

> <Gold.PLP.ligand.clash>
0.0000

> <Gold.PLP.ligand.torsion>
0.7946

> <Gold.PLP.Chemscore.Hbond>
4.8720

> <Gold.PLP.Chemscore.CHOScore>
0.0000

> <Gold.PLP.Chemscore.Metal>
0.0000

> <Gold.Chemscore.Hbonds>
donor molecule, donor type, donor heavy atom, donor atom, acceptor molecule, acceptor atom, score
      L1  H     6    42       P1  7948  2.00
      P1  H  6896  6907       L1    12  0.96
      P1  H  6931  6943       L1    15  0.71
      P1  H  6934  6947       L1    15  0.89

> <Gold.PLP.Chemscore.Internal.Correction>
0.0743

> <Gold.Rescore>
     Score         DG    S(hbond)    S(metal)    S(lipo)     H(rot)  DE(clash)    DE(int)     intcor
     17.10     -17.93       3.31        0.00      53.10       1.88       0.00       0.84       ----

> <Gold.Chemscore.Fitness>
17.0976

> <Gold.Chemscore.DG>
-17.9347

> <Gold.Chemscore.ZeroCoef>
-5.4800

> <Gold.Chemscore.Hbond>
3.3118

> <Gold.Chemscore.Metal>
0.0000

> <Gold.Chemscore.Lipo>
53.0970

> <Gold.Chemscore.Internal_Hbond>
0.0000

> <Gold.Chemscore.DEClash>
0.0000

> <Gold.Chemscore.DEInternal>
0.8371

> <Gold.Chemscore.Rot>
1.8825

> <Gold.Chemscore.Internal.Correction>
   9.000000E+99

> <Gold.Chemscore.Hbonds>
donor molecule, donor type, donor heavy atom, donor atom, acceptor molecule, acceptor atom, score
      L1  H     6    42       P1  7948  0.99
      P1  H  6896  6907       L1    12  0.90
      P1  H  6931  6943       L1    15  0.27
      P1  H  6934  6947       L1    15  0.81

> <Gold.Chemscore.Hbond.Weighted>
-11.0615

> <Gold.Chemscore.Metal.Weighted>
-0.0000

> <Gold.Chemscore.Lipo.Weighted>
-6.2123

> <Gold.Chemscore.Internal_Hbond.Weighted>
0.0000

> <Gold.Chemscore.DEClash.Weighted>
0.0000

> <Gold.Chemscore.DEInternal.Weighted>
0.8371

> <Gold.Chemscore.Rot.Weighted>
4.8191

> <Gold.Chemscore.Internal.Correction.Weighted>
   9.000000E+99

> <Gold.Protein.RotatedTorsions>
[ 6907 6896 6895 6894 ] final  -98.10 input  -60.11 | X-H torsion
[ 7974 7965 7964 7962 ] final  -79.17 input  175.53 | X-H torsion
[ 8008 7997 7996 7995 ] final   42.90 input   59.86 | X-H torsion
[ 10167 10162 10161 10158 ] final  -75.06 input  -65.29 | X-H torsion
[ 10718 10713 10712 10709 ] final -133.28 input   66.30 | X-H torsion
[ 10763 10752 10751 10750 ] final  153.43 input  -60.55 | X-H torsion
[ 11005 11000 10999 10996 ] final  -73.99 input  -57.11 | X-H torsion

> <Gold.Protein.ActiveResidues>
 VAL166  LYS551  ARG553  GLY616  TRP617  ASP618  TYR619  PRO620  LYS621  CYS622 
 ASP623  PHE694  ASN695  SER759  ASP760  ASP761  ALA762  ILE779  LEU786  VAL792 
 PHE793  MET794  SER795  GLU796  ALA797  LYS798  CYS799  TRP800  GLU811  SER814 

> <Gold.Protein.RotatedAtoms>
  150.7036  134.1246  159.4047 H   0  0  0  0  0  0  0  0  0  0  0  0  # atno 6907 bound_to 6896
  151.9232  135.0287  160.0533 H   0  0  0  0  0  0  0  0  0  0  0  0  # atno 6908 bound_to 6896
  152.2238  133.4969  159.5214 H   0  0  0  0  0  0  0  0  0  0  0  0  # atno 6909 bound_to 6896
  145.5768  140.9456  143.1365 H   0  0  0  0  0  0  0  0  0  0  0  0  # atno 7974 bound_to 7965
  155.2938  140.3380  155.4251 H   0  0  0  0  0  0  0  0  0  0  0  0  # atno 8008 bound_to 7997
  156.2033  140.1741  156.7892 H   0  0  0  0  0  0  0  0  0  0  0  0  # atno 8009 bound_to 7997
  154.5588  140.0691  156.8770 H   0  0  0  0  0  0  0  0  0  0  0  0  # atno 8010 bound_to 7997
  140.4975  143.2368  151.7807 H   0  0  0  0  0  0  0  0  0  0  0  0  # atno 10167 bound_to 10162
  156.2433  130.7109  151.0979 H   0  0  0  0  0  0  0  0  0  0  0  0  # atno 10718 bound_to 10713
  154.1361  135.2823  155.3173 H   0  0  0  0  0  0  0  0  0  0  0  0  # atno 10763 bound_to 10752
  154.6320  135.5432  153.7695 H   0  0  0  0  0  0  0  0  0  0  0  0  # atno 10764 bound_to 10752
  153.0265  135.6465  154.1510 H   0  0  0  0  0  0  0  0  0  0  0  0  # atno 10765 bound_to 10752
  141.1630  133.6896  156.7297 H   0  0  0  0  0  0  0  0  0  0  0  0  # atno 11005 bound_to 11000
  144.7412  139.7444  143.7310 LP  0  0  0  0  0  0  0  0  0  0  0  0  # atno 17320 bound_to 7965
  146.1745  139.4909  142.9906 LP  0  0  0  0  0  0  0  0  0  0  0  0  # atno 17321 bound_to 7965
  139.4864  144.4567  151.9589 LP  0  0  0  0  0  0  0  0  0  0  0  0  # atno 17342 bound_to 10162
  140.3655  144.2920  150.5927 LP  0  0  0  0  0  0  0  0  0  0  0  0  # atno 17343 bound_to 10162
  157.7184  131.0696  150.6234 LP  0  0  0  0  0  0  0  0  0  0  0  0  # atno 17370 bound_to 10713
  156.6309  130.4431  149.5787 LP  0  0  0  0  0  0  0  0  0  0  0  0  # atno 17371 bound_to 10713
  140.2754  134.8359  157.3886 LP  0  0  0  0  0  0  0  0  0  0  0  0  # atno 17394 bound_to 11000
  140.1482  134.4884  155.7981 LP  0  0  0  0  0  0  0  0  0  0  0  0  # atno 17395 bound_to 11000

$$$$
