AV-unprocessed.smi:1608|AV-procd|sdf|6468|dock8
  -GOLD-   22720 7123D 1   1.00000     0.00000
 Structure written by MMmdl.
 42 43  0  0  0  0  0  0  0  0  1 V2000
  145.3285  130.2789  151.8332 C   0  0  0  0  0  0  0  0  0  0  0  0
  145.2930  131.7147  151.5441 N   0  0  0  0  0  0  0  0  0  0  0  0
  146.1970  132.5453  152.2326 C   0  0  0  0  0  0  0  0  0  0  0  0
  146.2408  133.8777  152.0513 C   0  0  0  0  0  0  0  0  0  0  0  0
  147.1792  134.6102  152.7915 N   0  0  0  0  0  0  0  0  0  0  0  0
  147.4529  134.5472  154.1075 C   0  0  0  0  0  0  0  0  0  0  0  0
  146.9368  133.7761  154.9158 O   0  0  0  0  0  0  0  0  0  0  0  0
  148.3983  135.4372  154.4429 N   0  0  0  0  0  0  0  0  0  0  0  0
  148.9520  135.6154  155.7818 C   0  0  1  0  0  0  0  0  0  0  0  0
  150.4639  135.8875  155.7116 C   0  0  0  0  0  0  0  0  0  0  0  0
  151.0142  136.1306  157.1212 C   0  0  0  0  0  0  0  0  0  0  0  0
  150.2626  137.2738  157.8249 C   0  0  0  0  0  0  0  0  0  0  0  0
  148.8026  137.0492  157.8226 N   0  0  0  0  0  0  0  0  0  0  0  0
  148.0115  136.4589  159.2560 S   0  0  0  0  0  0  0  0  0  0  0  0
  146.2246  136.7662  158.9454 C   0  0  0  0  0  0  0  0  0  0  0  0
  148.2221  135.0045  159.3177 O   0  0  0  0  0  0  0  0  0  0  0  0
  148.4332  137.3044  160.3833 O   0  0  0  0  0  0  0  0  0  0  0  0
  148.2233  136.7732  156.4925 C   0  0  0  0  0  0  0  0  0  0  0  0
  145.3143  134.4392  151.0789 C   0  0  0  0  0  0  0  0  0  0  0  0
  144.4491  133.6489  150.4135 C   0  0  0  0  0  0  0  0  0  0  0  0
  144.4002  132.2015  150.6351 C   0  0  0  0  0  0  0  0  0  0  0  0
  143.6085  131.4711  150.0389 O   0  0  0  0  0  0  0  0  0  0  0  0
  146.0574  130.0210  152.6022 H   0  0  0  0  0  0  0  0  0  0  0  0
  145.5875  129.7154  150.9359 H   0  0  0  0  0  0  0  0  0  0  0  0
  144.3544  129.9331  152.1823 H   0  0  0  0  0  0  0  0  0  0  0  0
  146.8471  132.0300  152.9253 H   0  0  0  0  0  0  0  0  0  0  0  0
  147.7253  135.2652  152.2515 H   0  0  0  0  0  0  0  0  0  0  0  0
  148.7693  136.0319  153.7165 H   0  0  0  0  0  0  0  0  0  0  0  0
  148.7858  134.7010  156.3515 H   0  0  0  0  0  0  0  0  0  0  0  0
  150.9837  135.0460  155.2523 H   0  0  0  0  0  0  0  0  0  0  0  0
  150.6602  136.7583  155.0845 H   0  0  0  0  0  0  0  0  0  0  0  0
  150.9384  135.2146  157.7058 H   0  0  0  0  0  0  0  0  0  0  0  0
  152.0768  136.3680  157.0671 H   0  0  0  0  0  0  0  0  0  0  0  0
  150.6272  137.3972  158.8443 H   0  0  0  0  0  0  0  0  0  0  0  0
  150.4661  138.2134  157.3103 H   0  0  0  0  0  0  0  0  0  0  0  0
  145.6491  136.4082  159.7987 H   0  0  0  0  0  0  0  0  0  0  0  0
  145.9044  136.2287  158.0545 H   0  0  0  0  0  0  0  0  0  0  0  0
  146.0456  137.8329  158.8233 H   0  0  0  0  0  0  0  0  0  0  0  0
  148.2993  137.6818  155.8935 H   0  0  0  0  0  0  0  0  0  0  0  0
  147.1592  136.5553  156.5840 H   0  0  0  0  0  0  0  0  0  0  0  0
  145.3042  135.4921  150.8487 H   0  0  0  0  0  0  0  0  0  0  0  0
  143.7782  134.0913  149.6917 H   0  0  0  0  0  0  0  0  0  0  0  0
  1  2  1  0  0  0  0
  1 23  1  0  0  0  0
  1 24  1  0  0  0  0
  1 25  1  0  0  0  0
  2 21  1  0  0  0  0
  2  3  1  0  0  0  0
  3  4  2  0  0  0  0
  3 26  1  0  0  0  0
  4  5  1  0  0  0  0
  4 19  1  0  0  0  0
  5  6  1  0  0  0  0
  5 27  1  0  0  0  0
  6  7  2  0  0  0  0
  6  8  1  0  0  0  0
  8  9  1  0  0  0  0
  8 28  1  0  0  0  0
  9 18  1  0  0  0  0
  9 10  1  0  0  0  0
  9 29  1  0  0  0  0
 10 11  1  0  0  0  0
 10 30  1  0  0  0  0
 10 31  1  0  0  0  0
 11 12  1  0  0  0  0
 11 32  1  0  0  0  0
 11 33  1  0  0  0  0
 12 13  1  0  0  0  0
 12 34  1  0  0  0  0
 12 35  1  0  0  0  0
 13 14  1  0  0  0  0
 13 18  1  0  0  0  0
 14 15  1  0  0  0  0
 14 16  2  0  0  0  0
 14 17  2  0  0  0  0
 15 36  1  0  0  0  0
 15 37  1  0  0  0  0
 15 38  1  0  0  0  0
 18 39  1  0  0  0  0
 18 40  1  0  0  0  0
 19 20  2  0  0  0  0
 19 41  1  0  0  0  0
 20 21  1  0  0  0  0
 20 42  1  0  0  0  0
 21 22  2  0  0  0  0
M  END
> <s_m_source_file>
AV-unprocessed.smi

> <i_m_source_file_index>
1608

> <i_lp_mmshare_version>
43012

> <i_f3d_flags>
0

> <s_epik_input>
Tz1jMVtjSF1bY0hdYyhbY0hdbjFbQ0gzXSlbTkhdQyg9TylbTkhdW0NAQEhdMltDSDJdW0NIMl1bQ0gyXU4oW0NIMl0yKVMoPU8pKD1PKVtDSDNd

> <s_epik_cmdline>
J2VwaWtfcHl0aG9uJywgJy1waCcsICc3LjAnLCAnLXRuJywgJzgnLCAnLW1hJywgJzIwMCcsICctbWV0YWxfYmluZGluZycsICctaW1hZScsICc8aW5maWxlLm1hZT4nLCAnLW9tYWUnLCAnPG91dGZpbGUubWFlPic=

> <r_lp_tautomer_probability>
1

> <r_epik_Ionization_Penalty>
2.44111e-05

> <r_epik_Ionization_Penalty_Charging>
5.7429e-06

> <r_epik_Ionization_Penalty_Neutral>
1.86682e-05

> <r_epik_State_Penalty>
-0

> <r_epik_Charging_Adjusted_Penalty>
5.7429e-06

> <i_epik_Tot_Q>
0

> <i_epik_Tot_abs_Q>
0

> <r_epik_Metal_State_Penalty>
-0

> <b_epik_Metal_Only>
0

> <s_lp_Force_Field>
OPLS_2005

> <r_lp_Energy>
11.6091

> <b_lp_Chiralities_Consistent>
1

> <s_lp_Variant>
AV-unprocessed.smi:1608-2

> <Gold.Version>
5.8.1

> <Gold.Id.Protein>
6NUR|6NUR_protein|mol2

> <Gold.PLP.Fitness>
40.7545

> <Gold.PLP.PLP>
-28.9044

> <Gold.PLP.part.hbond>
-4.9685

> <Gold.PLP.part.metal>
0.0000

> <Gold.PLP.part.buried>
-6.1786

> <Gold.PLP.part.nonpolar>
-19.5745

> <Gold.PLP.part.repulsive>
0.7399

> <Gold.PLP.ligand.clash>
0.0000

> <Gold.PLP.ligand.torsion>
1.8942

> <Gold.PLP.Chemscore.Hbond>
4.5280

> <Gold.PLP.Chemscore.CHOScore>
0.0000

> <Gold.PLP.Chemscore.Metal>
0.0000

> <Gold.Chemscore.Hbonds>
donor molecule, donor type, donor heavy atom, donor atom, acceptor molecule, acceptor atom, score
      L1  H     5    27       P1  7948  1.00
      L1  H     8    28       P1  7948  0.88
      P1  H  6931  6943       L1    17  0.64
      P1  H  6934  6947       L1    17  0.33
      P1  H 10785 10796       L1    22  0.88

> <Gold.PLP.Chemscore.Internal.Correction>
2.0546

> <Gold.Rescore>
     Score         DG    S(hbond)    S(metal)    S(lipo)     H(rot)  DE(clash)    DE(int)     intcor
     20.98     -23.07       4.33        0.00      48.62       1.00       0.01       2.07       ----

> <Gold.Chemscore.Fitness>
20.9842

> <Gold.Chemscore.DG>
-23.0660

> <Gold.Chemscore.ZeroCoef>
-5.4800

> <Gold.Chemscore.Hbond>
4.3284

> <Gold.Chemscore.Metal>
0.0000

> <Gold.Chemscore.Lipo>
48.6241

> <Gold.Chemscore.Internal_Hbond>
0.0000

> <Gold.Chemscore.DEClash>
0.0135

> <Gold.Chemscore.DEInternal>
2.0683

> <Gold.Chemscore.Rot>
1.0000

> <Gold.Chemscore.Internal.Correction>
   9.000000E+99

> <Gold.Chemscore.Hbonds>
donor molecule, donor type, donor heavy atom, donor atom, acceptor molecule, acceptor atom, score
      L1  H     5    27       P1  7948  0.96
      L1  H     8    28       P1  7948  0.86
      P1  H  6896  6909       L1    16  0.01
      P1  H  6931  6943       L1    17  0.64
      P1  H  6934  6947       L1    17  0.33
      P1  H 10785 10796       L1    22  0.86

> <Gold.Chemscore.Hbond.Weighted>
-14.4569

> <Gold.Chemscore.Metal.Weighted>
-0.0000

> <Gold.Chemscore.Lipo.Weighted>
-5.6890

> <Gold.Chemscore.Internal_Hbond.Weighted>
0.0000

> <Gold.Chemscore.DEClash.Weighted>
0.0135

> <Gold.Chemscore.DEInternal.Weighted>
2.0683

> <Gold.Chemscore.Rot.Weighted>
2.5600

> <Gold.Chemscore.Internal.Correction.Weighted>
   9.000000E+99

> <Gold.Protein.RotatedTorsions>
[ 6907 6896 6895 6894 ] final   28.78 input  -60.11 | X-H torsion
[ 7974 7965 7964 7962 ] final  -24.47 input  175.53 | X-H torsion
[ 8008 7997 7996 7995 ] final   58.92 input   59.86 | X-H torsion
[ 10167 10162 10161 10158 ] final -103.85 input  -65.29 | X-H torsion
[ 10718 10713 10712 10709 ] final -111.67 input   66.30 | X-H torsion
[ 10763 10752 10751 10750 ] final   23.17 input  -60.55 | X-H torsion
[ 11005 11000 10999 10996 ] final -118.31 input  -57.11 | X-H torsion

> <Gold.Protein.ActiveResidues>
 VAL166  LYS551  ARG553  GLY616  TRP617  ASP618  TYR619  PRO620  LYS621  CYS622 
 ASP623  PHE694  ASN695  SER759  ASP760  ASP761  ALA762  ILE779  LEU786  VAL792 
 PHE793  MET794  SER795  GLU796  ALA797  LYS798  CYS799  TRP800  GLU811  SER814 

> <Gold.Protein.RotatedAtoms>
  152.0219  134.9818  160.0570 H   0  0  0  0  0  0  0  0  0  0  0  0  # atno 6907 bound_to 6896
  152.1329  133.4413  159.4737 H   0  0  0  0  0  0  0  0  0  0  0  0  # atno 6908 bound_to 6896
  150.6858  134.2317  159.4480 H   0  0  0  0  0  0  0  0  0  0  0  0  # atno 6909 bound_to 6896
  146.1552  140.4756  142.8594 H   0  0  0  0  0  0  0  0  0  0  0  0  # atno 7974 bound_to 7965
  155.5578  140.3487  155.4484 H   0  0  0  0  0  0  0  0  0  0  0  0  # atno 8008 bound_to 7997
  156.0536  140.1323  157.0047 H   0  0  0  0  0  0  0  0  0  0  0  0  # atno 8009 bound_to 7997
  154.4446  140.0999  156.6398 H   0  0  0  0  0  0  0  0  0  0  0  0  # atno 8010 bound_to 7997
  140.2156  143.3714  152.1013 H   0  0  0  0  0  0  0  0  0  0  0  0  # atno 10167 bound_to 10162
  156.0660  130.5879  150.8405 H   0  0  0  0  0  0  0  0  0  0  0  0  # atno 10718 bound_to 10713
  153.0859  135.6632  153.9951 H   0  0  0  0  0  0  0  0  0  0  0  0  # atno 10763 bound_to 10752
  153.9560  135.2979  155.3437 H   0  0  0  0  0  0  0  0  0  0  0  0  # atno 10764 bound_to 10752
  154.7266  135.5141  153.8969 H   0  0  0  0  0  0  0  0  0  0  0  0  # atno 10765 bound_to 10752
  141.0294  134.0003  157.3165 H   0  0  0  0  0  0  0  0  0  0  0  0  # atno 11005 bound_to 11000
  144.7955  140.6114  143.6513 LP  0  0  0  0  0  0  0  0  0  0  0  0  # atno 17320 bound_to 7965
  145.4725  139.1502  143.3806 LP  0  0  0  0  0  0  0  0  0  0  0  0  # atno 17321 bound_to 7965
  139.5163  144.6976  151.5586 LP  0  0  0  0  0  0  0  0  0  0  0  0  # atno 17342 bound_to 10162
  140.6292  143.9109  150.6591 LP  0  0  0  0  0  0  0  0  0  0  0  0  # atno 17343 bound_to 10162
  157.5702  131.0946  150.9429 LP  0  0  0  0  0  0  0  0  0  0  0  0  # atno 17370 bound_to 10713
  156.9646  130.5468  149.5287 LP  0  0  0  0  0  0  0  0  0  0  0  0  # atno 17371 bound_to 10713
  139.9198  135.0199  156.8020 LP  0  0  0  0  0  0  0  0  0  0  0  0  # atno 17394 bound_to 11000
  140.6433  133.9798  155.7718 LP  0  0  0  0  0  0  0  0  0  0  0  0  # atno 17395 bound_to 11000

$$$$
