AV-unprocessed.smi:3234|AV-procd|sdf|12348|dock9
  -GOLD-   2272018213D 1   1.00000     0.00000
 Structure written by MMmdl.
 37 39  0  0  0  0  0  0  0  0  2 V2000
  147.2718  132.5768  154.1296 O   0  0  0  0  0  0  0  0  0  0  0  0
  147.7710  131.9834  153.1746 C   0  0  0  0  0  0  0  0  0  0  0  0
  148.9156  131.2775  153.1954 N   0  0  0  0  0  0  0  0  0  0  0  0
  149.8179  131.0378  154.2699 C   0  0  0  0  0  0  0  0  0  0  0  0
  149.8801  132.0125  155.2876 C   0  0  0  0  0  0  0  0  0  0  0  0
  150.7578  131.8121  156.3718 C   0  0  0  0  0  0  0  0  0  0  0  0
  151.5500  130.7268  156.4931 N   0  0  0  0  0  0  0  0  0  0  0  0
  151.4882  129.7925  155.5213 C   0  0  0  0  0  0  0  0  0  0  0  0
  150.6455  129.8949  154.3961 C   0  0  0  0  0  0  0  0  0  0  0  0
  147.2135  131.9623  151.9555 N   0  0  0  0  0  0  0  0  0  0  0  0
  145.9671  132.6334  151.6023 C   0  0  2  0  0  0  0  0  0  0  0  0
  145.0895  131.8706  150.6144 C   0  0  0  0  0  0  0  0  0  0  0  0
  144.1881  132.9749  150.0510 C   0  0  0  0  0  0  0  0  0  0  0  0
  144.9583  134.2409  150.1381 N   0  3  1  0  0  0  0  0  0  0  0  0
  144.1882  135.3629  150.7174 C   0  0  0  0  0  0  0  0  0  0  0  0
  145.0423  136.3633  151.4590 C   0  0  0  0  0  0  0  0  0  0  0  0
  144.1879  135.3784  152.2273 C   0  0  0  0  0  0  0  0  0  0  0  0
  146.2143  133.9479  150.8636 C   0  0  0  0  0  0  0  0  0  0  0  0
  149.1728  130.8393  152.3233 H   0  0  0  0  0  0  0  0  0  0  0  0
  149.2685  132.9019  155.2437 H   0  0  0  0  0  0  0  0  0  0  0  0
  150.8244  132.5442  157.1630 H   0  0  0  0  0  0  0  0  0  0  0  0
  152.1303  128.9329  155.6440 H   0  0  0  0  0  0  0  0  0  0  0  0
  150.6572  129.0974  153.6711 H   0  0  0  0  0  0  0  0  0  0  0  0
  147.6853  131.4514  151.2234 H   0  0  0  0  0  0  0  0  0  0  0  0
  145.3949  132.8414  152.5092 H   0  0  0  0  0  0  0  0  0  0  0  0
  145.6985  131.4422  149.8168 H   0  0  0  0  0  0  0  0  0  0  0  0
  144.5246  131.0624  151.0803 H   0  0  0  0  0  0  0  0  0  0  0  0
  143.8836  132.7711  149.0241 H   0  0  0  0  0  0  0  0  0  0  0  0
  143.2813  133.0439  150.6545 H   0  0  0  0  0  0  0  0  0  0  0  0
  143.3114  135.6891  150.1602 H   0  0  0  0  0  0  0  0  0  0  0  0
  146.1202  136.2112  151.4704 H   0  0  0  0  0  0  0  0  0  0  0  0
  144.7198  137.4025  151.4526 H   0  0  0  0  0  0  0  0  0  0  0  0
  143.3024  135.7689  152.7248 H   0  0  0  0  0  0  0  0  0  0  0  0
  144.6979  134.5721  152.7514 H   0  0  0  0  0  0  0  0  0  0  0  0
  146.5146  134.7538  151.5354 H   0  0  0  0  0  0  0  0  0  0  0  0
  147.0062  133.8252  150.1231 H   0  0  0  0  0  0  0  0  0  0  0  0
  145.2163  134.5108  149.1996 H   0  0  0  0  0  0  0  0  0  0  0  0
  1  2  2  0  0  0  0
  2  3  1  0  0  0  0
  2 10  1  0  0  0  0
  3  4  1  0  0  0  0
  3 19  1  0  0  0  0
  4  9  1  0  0  0  0
  4  5  2  0  0  0  0
  5  6  1  0  0  0  0
  5 20  1  0  0  0  0
  6  7  2  0  0  0  0
  6 21  1  0  0  0  0
  7  8  1  0  0  0  0
  8  9  2  0  0  0  0
  8 22  1  0  0  0  0
  9 23  1  0  0  0  0
 10 11  1  0  0  0  0
 10 24  1  0  0  0  0
 11 18  1  0  0  0  0
 11 12  1  0  0  0  0
 11 25  1  0  0  0  0
 12 13  1  0  0  0  0
 12 26  1  0  0  0  0
 12 27  1  0  0  0  0
 13 14  1  0  0  0  0
 13 28  1  0  0  0  0
 13 29  1  0  0  0  0
 14 15  1  0  0  0  0
 14 18  1  0  0  0  0
 14 37  1  0  0  0  0
 15 17  1  0  0  0  0
 15 16  1  0  0  0  0
 15 30  1  0  0  0  0
 16 17  1  0  0  0  0
 16 31  1  0  0  0  0
 16 32  1  0  0  0  0
 17 33  1  0  0  0  0
 17 34  1  0  0  0  0
 18 35  1  0  0  0  0
 18 36  1  0  0  0  0
M  CHG  1  14   1
M  END
> <s_m_source_file>
AV-unprocessed.smi

> <i_m_source_file_index>
3234

> <i_lp_mmshare_version>
43012

> <i_f3d_flags>
0

> <s_epik_input>
W2NIXTFbY0hdbltjSF1bY0hdYzFbTkhdQyg9TylbTkhdW0NAQEhdMltDSDJdW0NIMl1OKFtDSDJdMilbQ0hdM1tDSDJdW0NIMl0z

> <s_epik_cmdline>
J2VwaWtfcHl0aG9uJywgJy1waCcsICc3LjAnLCAnLXRuJywgJzgnLCAnLW1hJywgJzIwMCcsICctbWV0YWxfYmluZGluZycsICctaW1hZScsICc8aW5maWxlLm1hZT4nLCAnLW9tYWUnLCAnPG91dGZpbGUubWFlPic=

> <r_epik_Ionization_Penalty>
0.0934328

> <r_epik_Ionization_Penalty_Charging>
0.000606352

> <r_epik_Ionization_Penalty_Neutral>
0.0928265

> <r_epik_State_Penalty>
0.0830811

> <r_epik_Charging_Adjusted_Penalty>
0.0836875

> <i_epik_Tot_Q>
1

> <i_epik_Tot_abs_Q>
1

> <r_epik_Metal_State_Penalty>
0.0724491

> <b_epik_Metal_Only>
0

> <s_lp_Force_Field>
OPLS_2005

> <r_lp_Energy>
42.4864

> <b_lp_Chiralities_Consistent>
1

> <s_lp_Variant>
AV-unprocessed.smi:3234-1

> <Gold.Version>
5.8.1

> <Gold.Id.Protein>
6NUR|6NUR_protein|mol2

> <Gold.PLP.Fitness>
41.1050

> <Gold.PLP.PLP>
-33.2921

> <Gold.PLP.part.hbond>
-3.0000

> <Gold.PLP.part.metal>
0.0000

> <Gold.PLP.part.buried>
-3.5157

> <Gold.PLP.part.nonpolar>
-26.0630

> <Gold.PLP.part.repulsive>
0.1443

> <Gold.PLP.ligand.clash>
0.0050

> <Gold.PLP.ligand.torsion>
1.0912

> <Gold.PLP.Chemscore.Hbond>
2.9120

> <Gold.PLP.Chemscore.CHOScore>
0.0000

> <Gold.PLP.Chemscore.Metal>
0.0000

> <Gold.Chemscore.Hbonds>
donor molecule, donor type, donor heavy atom, donor atom, acceptor molecule, acceptor atom, score
      L1  H     3    19       P1 10747  0.86
      L1  H    10    24       P1 10747  1.00
      L1  H    14    37       P1  7921  1.00

> <Gold.PLP.Chemscore.Internal.Correction>
1.2641

> <Gold.Rescore>
     Score         DG    S(hbond)    S(metal)    S(lipo)     H(rot)  DE(clash)    DE(int)     intcor
     16.16     -18.45       2.25        0.00      73.24       1.21       0.01       2.28       ----

> <Gold.Chemscore.Fitness>
16.1602

> <Gold.Chemscore.DG>
-18.4495

> <Gold.Chemscore.ZeroCoef>
-5.4800

> <Gold.Chemscore.Hbond>
2.2457

> <Gold.Chemscore.Metal>
0.0000

> <Gold.Chemscore.Lipo>
73.2356

> <Gold.Chemscore.Internal_Hbond>
0.0000

> <Gold.Chemscore.DEClash>
0.0106

> <Gold.Chemscore.DEInternal>
2.2787

> <Gold.Chemscore.Rot>
1.2108

> <Gold.Chemscore.Internal.Correction>
   9.000000E+99

> <Gold.Chemscore.Hbonds>
donor molecule, donor type, donor heavy atom, donor atom, acceptor molecule, acceptor atom, score
      L1  H     3    19       P1 10747  0.16
      L1  H    10    24       P1 10747  0.99
      L1  H    14    37       P1  7921  1.00

> <Gold.Chemscore.Hbond.Weighted>
-7.5005

> <Gold.Chemscore.Metal.Weighted>
-0.0000

> <Gold.Chemscore.Lipo.Weighted>
-8.5686

> <Gold.Chemscore.Internal_Hbond.Weighted>
0.0000

> <Gold.Chemscore.DEClash.Weighted>
0.0106

> <Gold.Chemscore.DEInternal.Weighted>
2.2787

> <Gold.Chemscore.Rot.Weighted>
3.0996

> <Gold.Chemscore.Internal.Correction.Weighted>
   9.000000E+99

> <Gold.Protein.RotatedTorsions>
[ 6907 6896 6895 6894 ] final -175.56 input  -60.11 | X-H torsion
[ 7974 7965 7964 7962 ] final   36.25 input  175.53 | X-H torsion
[ 8008 7997 7996 7995 ] final   98.89 input   59.86 | X-H torsion
[ 10167 10162 10161 10158 ] final  156.35 input  -65.29 | X-H torsion
[ 10718 10713 10712 10709 ] final   53.44 input   66.30 | X-H torsion
[ 10763 10752 10751 10750 ] final -113.54 input  -60.55 | X-H torsion
[ 11005 11000 10999 10996 ] final -178.86 input  -57.11 | X-H torsion

> <Gold.Protein.ActiveResidues>
 VAL166  LYS551  ARG553  GLY616  TRP617  ASP618  TYR619  PRO620  LYS621  CYS622 
 ASP623  PHE694  ASN695  SER759  ASP760  ASP761  ALA762  ILE779  LEU786  VAL792 
 PHE793  MET794  SER795  GLU796  ALA797  LYS798  CYS799  TRP800  GLU811  SER814 

> <Gold.Protein.RotatedAtoms>
  151.5906  133.3367  159.3026 H   0  0  0  0  0  0  0  0  0  0  0  0  # atno 6907 bound_to 6896
  150.8262  134.7497  159.6826 H   0  0  0  0  0  0  0  0  0  0  0  0  # atno 6908 bound_to 6896
  152.4351  134.5708  159.9972 H   0  0  0  0  0  0  0  0  0  0  0  0  # atno 6909 bound_to 6896
  146.1224  139.6040  142.9281 H   0  0  0  0  0  0  0  0  0  0  0  0  # atno 7974 bound_to 7965
  156.1050  140.3237  155.7993 H   0  0  0  0  0  0  0  0  0  0  0  0  # atno 8008 bound_to 7997
  155.4772  140.0551  157.2989 H   0  0  0  0  0  0  0  0  0  0  0  0  # atno 8009 bound_to 7997
  154.4721  140.2016  155.9983 H   0  0  0  0  0  0  0  0  0  0  0  0  # atno 8010 bound_to 7997
  139.4821  144.5017  151.8158 H   0  0  0  0  0  0  0  0  0  0  0  0  # atno 10167 bound_to 10162
  157.5167  130.8537  149.8504 H   0  0  0  0  0  0  0  0  0  0  0  0  # atno 10718 bound_to 10713
  154.8401  135.4450  154.1366 H   0  0  0  0  0  0  0  0  0  0  0  0  # atno 10763 bound_to 10752
  153.2562  135.6931  153.7632 H   0  0  0  0  0  0  0  0  0  0  0  0  # atno 10764 bound_to 10752
  153.6926  135.3385  155.3181 H   0  0  0  0  0  0  0  0  0  0  0  0  # atno 10765 bound_to 10752
  140.4251  134.6570  157.4683 H   0  0  0  0  0  0  0  0  0  0  0  0  # atno 11005 bound_to 11000
  145.5437  141.0419  143.2316 LP  0  0  0  0  0  0  0  0  0  0  0  0  # atno 17320 bound_to 7965
  144.7610  139.6957  143.7234 LP  0  0  0  0  0  0  0  0  0  0  0  0  # atno 17321 bound_to 7965
  140.4511  144.1854  150.5897 LP  0  0  0  0  0  0  0  0  0  0  0  0  # atno 17342 bound_to 10162
  140.4584  143.2458  151.9253 LP  0  0  0  0  0  0  0  0  0  0  0  0  # atno 17343 bound_to 10162
  156.0325  130.3760  150.1649 LP  0  0  0  0  0  0  0  0  0  0  0  0  # atno 17370 bound_to 10713
  156.9838  130.9872  151.3431 LP  0  0  0  0  0  0  0  0  0  0  0  0  # atno 17371 bound_to 10713
  140.0173  134.6600  155.9291 LP  0  0  0  0  0  0  0  0  0  0  0  0  # atno 17394 bound_to 11000
  141.1768  133.6541  156.4862 LP  0  0  0  0  0  0  0  0  0  0  0  0  # atno 17395 bound_to 11000

$$$$
