AV-unprocessed.smi:67|AV-procd|sdf|631|dock3
  -GOLD-   2262016523D 1   1.00000     0.00000
 Structure written by MMmdl.
 49 51  0  0  0  0  0  0  0  0  3 V2000
  146.7013  132.2806  149.8091 O   0  0  0  0  0  0  0  0  0  0  0  0
  145.4160  132.2381  150.4056 C   0  0  1  0  0  0  0  0  0  0  0  0
  145.2429  130.8644  151.0954 C   0  0  0  0  0  0  0  0  0  0  0  0
  146.4973  130.3784  151.7332 N   0  3  2  0  0  0  0  0  0  0  0  0
  146.6736  128.9081  151.6102 C   0  0  0  0  0  0  0  0  0  0  0  0
  148.0463  128.4630  152.1455 C   0  0  0  0  0  0  0  0  0  0  0  0
  148.2683  128.9131  153.5982 C   0  0  2  0  0  0  0  0  0  0  0  0
  147.3514  128.1918  154.4190 O   0  0  0  0  0  0  0  0  0  0  0  0
  147.5108  126.8338  154.6064 C   0  0  0  0  0  0  0  0  0  0  0  0
  148.4319  126.0225  153.8972 C   0  0  0  0  0  0  0  0  0  0  0  0
  148.5132  124.6417  154.1596 C   0  0  0  0  0  0  0  0  0  0  0  0
  147.6809  124.0541  155.1296 C   0  0  0  0  0  0  0  0  0  0  0  0
  146.7614  124.8473  155.8475 C   0  0  0  0  0  0  0  0  0  0  0  0
  145.8479  124.2261  156.8936 C   0  0  0  0  0  0  0  0  0  0  0  0
  146.0369  124.8071  158.0788 F   0  0  0  0  0  0  0  0  0  0  0  0
  144.5789  124.4007  156.5271 F   0  0  0  0  0  0  0  0  0  0  0  0
  146.0796  122.9197  157.0278 F   0  0  0  0  0  0  0  0  0  0  0  0
  146.6815  126.2295  155.5736 C   0  0  0  0  0  0  0  0  0  0  0  0
  148.0323  130.4336  153.7000 C   0  0  0  0  0  0  0  0  0  0  0  0
  146.6548  130.8280  153.1414 C   0  0  0  0  0  0  0  0  0  0  0  0
  145.2277  133.4583  151.3133 C   0  0  0  0  0  0  0  0  0  0  0  0
  144.8806  134.5888  150.3441 C   0  0  0  0  0  0  0  0  0  0  0  0
  144.1742  133.9518  149.2172 N   0  3  0  0  0  0  0  0  0  0  0  0
  144.3735  132.4895  149.3008 C   0  0  0  0  0  0  0  0  0  0  0  0
  147.2391  131.6012  150.1882 H   0  0  0  0  0  0  0  0  0  0  0  0
  144.4387  130.9000  151.8319 H   0  0  0  0  0  0  0  0  0  0  0  0
  144.9105  130.1493  150.3408 H   0  0  0  0  0  0  0  0  0  0  0  0
  145.8729  128.3971  152.1476 H   0  0  0  0  0  0  0  0  0  0  0  0
  146.5905  128.6150  150.5628 H   0  0  0  0  0  0  0  0  0  0  0  0
  148.1414  127.3791  152.0725 H   0  0  0  0  0  0  0  0  0  0  0  0
  148.8312  128.8813  151.5138 H   0  0  0  0  0  0  0  0  0  0  0  0
  149.2955  128.6613  153.8631 H   0  0  0  0  0  0  0  0  0  0  0  0
  149.0895  126.4303  153.1455 H   0  0  0  0  0  0  0  0  0  0  0  0
  149.2161  124.0305  153.6125 H   0  0  0  0  0  0  0  0  0  0  0  0
  147.7517  122.9925  155.3155 H   0  0  0  0  0  0  0  0  0  0  0  0
  145.9717  126.8390  156.1136 H   0  0  0  0  0  0  0  0  0  0  0  0
  148.1211  130.7760  154.7305 H   0  0  0  0  0  0  0  0  0  0  0  0
  148.8095  130.9565  153.1414 H   0  0  0  0  0  0  0  0  0  0  0  0
  146.5427  131.9089  153.2082 H   0  0  0  0  0  0  0  0  0  0  0  0
  145.8637  130.3939  153.7551 H   0  0  0  0  0  0  0  0  0  0  0  0
  144.3801  133.2961  151.9809 H   0  0  0  0  0  0  0  0  0  0  0  0
  146.0999  133.6821  151.9292 H   0  0  0  0  0  0  0  0  0  0  0  0
  144.2773  135.3696  150.8078 H   0  0  0  0  0  0  0  0  0  0  0  0
  145.7928  135.0495  149.9629 H   0  0  0  0  0  0  0  0  0  0  0  0
  143.1862  134.1550  149.2730 H   0  0  0  0  0  0  0  0  0  0  0  0
  144.6573  132.0668  148.3359 H   0  0  0  0  0  0  0  0  0  0  0  0
  143.4148  132.0491  149.5781 H   0  0  0  0  0  0  0  0  0  0  0  0
  144.5434  134.3067  148.3462 H   0  0  0  0  0  0  0  0  0  0  0  0
  147.2545  130.7907  151.2063 H   0  0  0  0  0  0  0  0  0  0  0  0
  1  2  1  0  0  0  0
  1 25  1  0  0  0  0
  2 24  1  0  0  0  0
  2  3  1  0  0  0  0
  2 21  1  0  0  0  0
  3  4  1  0  0  0  0
  3 26  1  0  0  0  0
  3 27  1  0  0  0  0
  4 20  1  0  0  0  0
  4  5  1  0  0  0  0
  4 49  1  0  0  0  0
  5  6  1  0  0  0  0
  5 28  1  0  0  0  0
  5 29  1  0  0  0  0
  6  7  1  0  0  0  0
  6 30  1  0  0  0  0
  6 31  1  0  0  0  0
  7  8  1  0  0  0  0
  7 19  1  0  0  0  0
  7 32  1  0  0  0  0
  8  9  1  0  0  0  0
  9 18  1  0  0  0  0
  9 10  2  0  0  0  0
 10 11  1  0  0  0  0
 10 33  1  0  0  0  0
 11 12  2  0  0  0  0
 11 34  1  0  0  0  0
 12 13  1  0  0  0  0
 12 35  1  0  0  0  0
 13 14  1  0  0  0  0
 13 18  2  0  0  0  0
 14 15  1  0  0  0  0
 14 16  1  0  0  0  0
 14 17  1  0  0  0  0
 18 36  1  0  0  0  0
 19 20  1  0  0  0  0
 19 37  1  0  0  0  0
 19 38  1  0  0  0  0
 20 39  1  0  0  0  0
 20 40  1  0  0  0  0
 21 22  1  0  0  0  0
 21 41  1  0  0  0  0
 21 42  1  0  0  0  0
 22 23  1  0  0  0  0
 22 43  1  0  0  0  0
 22 44  1  0  0  0  0
 23 24  1  0  0  0  0
 23 45  1  0  0  0  0
 23 48  1  0  0  0  0
 24 46  1  0  0  0  0
 24 47  1  0  0  0  0
M  CHG  1   4   1
M  CHG  1  23   1
M  END
> <s_m_source_file>
AV-unprocessed.smi

> <i_m_source_file_index>
67

> <i_lp_mmshare_version>
43012

> <i_f3d_flags>
0

> <s_epik_input>
W0NIMl0xW05IXVtDSDJdW0NIMl1bQ0BAXTEoW09IXSlbQ0gyXU4yW0NIMl1bQ0gyXVtDSF0oW0NIMl1bQ0gyXTIpT2MzW2NIXVtjSF1bY0hdYyhDKEYpKEYpRilbY0hdMw==

> <s_epik_cmdline>
J2VwaWtfcHl0aG9uJywgJy1waCcsICc3LjAnLCAnLXRuJywgJzgnLCAnLW1hJywgJzIwMCcsICctbWV0YWxfYmluZGluZycsICctaW1hZScsICc8aW5maWxlLm1hZT4nLCAnLW9tYWUnLCAnPG91dGZpbGUubWFlPic=

> <r_lp_tautomer_probability>
1

> <r_epik_Ionization_Penalty>
0.0989853

> <r_epik_Ionization_Penalty_Charging>
0.0989662

> <r_epik_Ionization_Penalty_Neutral>
1.91014e-05

> <r_epik_State_Penalty>
0.0852826

> <r_epik_Charging_Adjusted_Penalty>
0.184249

> <i_epik_Tot_Q>
2

> <i_epik_Tot_abs_Q>
2

> <r_epik_Metal_State_Penalty>
0.0849414

> <b_epik_Metal_Only>
0

> <s_lp_Force_Field>
OPLS_2005

> <r_lp_Energy>
57.962

> <b_lp_Chiralities_Consistent>
1

> <s_lp_Variant>
AV-unprocessed.smi:67-3

> <Gold.Version>
5.8.1

> <Gold.Id.Protein>
6NUR|6NUR_protein|mol2

> <Gold.PLP.Fitness>
49.8971

> <Gold.PLP.PLP>
-36.8710

> <Gold.PLP.part.hbond>
-3.9759

> <Gold.PLP.part.metal>
0.0000

> <Gold.PLP.part.buried>
-5.2532

> <Gold.PLP.part.nonpolar>
-27.4039

> <Gold.PLP.part.repulsive>
0.1461

> <Gold.PLP.ligand.clash>
0.7157

> <Gold.PLP.ligand.torsion>
0.9421

> <Gold.PLP.Chemscore.Hbond>
4.7687

> <Gold.PLP.Chemscore.CHOScore>
0.0000

> <Gold.PLP.Chemscore.Metal>
0.0000

> <Gold.Chemscore.Hbonds>
donor molecule, donor type, donor heavy atom, donor atom, acceptor molecule, acceptor atom, score
      L1  H     1    25       P1 10747  0.90
      L1  H     4    49       P1 10747  1.00
      L1  H    23    45       P1 10186  1.14
      L1  H    23    48       P1  7921  0.80

> <Gold.PLP.Chemscore.Internal.Correction>
1.3198

> <Gold.Rescore>
     Score         DG    S(hbond)    S(metal)    S(lipo)     H(rot)  DE(clash)    DE(int)     intcor
     21.13     -22.22       3.59        0.00      89.41       2.24       0.17       0.92       ----

> <Gold.Chemscore.Fitness>
21.1343

> <Gold.Chemscore.DG>
-22.2238

> <Gold.Chemscore.ZeroCoef>
-5.4800

> <Gold.Chemscore.Hbond>
3.5944

> <Gold.Chemscore.Metal>
0.0000

> <Gold.Chemscore.Lipo>
89.4067

> <Gold.Chemscore.Internal_Hbond>
0.0000

> <Gold.Chemscore.DEClash>
0.1664

> <Gold.Chemscore.DEInternal>
0.9232

> <Gold.Chemscore.Rot>
2.2352

> <Gold.Chemscore.Internal.Correction>
   9.000000E+99

> <Gold.Chemscore.Hbonds>
donor molecule, donor type, donor heavy atom, donor atom, acceptor molecule, acceptor atom, score
      L1  H     1    25       P1 10747  0.88
      L1  H     4    49       P1 10747  0.97
      L1  H    23    45       P1 10186  0.56
      L1  H    23    48       P1  7921  0.80

> <Gold.Chemscore.Hbond.Weighted>
-12.0054

> <Gold.Chemscore.Metal.Weighted>
-0.0000

> <Gold.Chemscore.Lipo.Weighted>
-10.4606

> <Gold.Chemscore.Internal_Hbond.Weighted>
0.0000

> <Gold.Chemscore.DEClash.Weighted>
0.1664

> <Gold.Chemscore.DEInternal.Weighted>
0.9232

> <Gold.Chemscore.Rot.Weighted>
5.7221

> <Gold.Chemscore.Internal.Correction.Weighted>
   9.000000E+99

> <Gold.Protein.RotatedTorsions>
[ 6907 6896 6895 6894 ] final  170.15 input  -60.11 | X-H torsion
[ 7974 7965 7964 7962 ] final   54.11 input  175.53 | X-H torsion
[ 8008 7997 7996 7995 ] final  -76.86 input   59.86 | X-H torsion
[ 10167 10162 10161 10158 ] final  -76.38 input  -65.29 | X-H torsion
[ 10718 10713 10712 10709 ] final  164.06 input   66.30 | X-H torsion
[ 10763 10752 10751 10750 ] final  145.33 input  -60.55 | X-H torsion
[ 11005 11000 10999 10996 ] final   88.65 input  -57.11 | X-H torsion

> <Gold.Protein.ActiveResidues>
 VAL166  LYS551  ARG553  GLY616  TRP617  ASP618  TYR619  PRO620  LYS621  CYS622 
 ASP623  PHE694  ASN695  SER759  ASP760  ASP761  ALA762  ILE779  LEU786  VAL792 
 PHE793  MET794  SER795  GLU796  ALA797  LYS798  CYS799  TRP800  GLU811  SER814 

> <Gold.Protein.RotatedAtoms>
  151.8207  133.3394  159.3582 H   0  0  0  0  0  0  0  0  0  0  0  0  # atno 6907 bound_to 6896
  150.7296  134.5577  159.5836 H   0  0  0  0  0  0  0  0  0  0  0  0  # atno 6908 bound_to 6896
  152.3008  134.7614  160.0409 H   0  0  0  0  0  0  0  0  0  0  0  0  # atno 6909 bound_to 6896
  145.9643  139.4088  143.0229 H   0  0  0  0  0  0  0  0  0  0  0  0  # atno 7974 bound_to 7965
  154.5543  140.0720  156.8718 H   0  0  0  0  0  0  0  0  0  0  0  0  # atno 8008 bound_to 7997
  155.2932  140.3379  155.4233 H   0  0  0  0  0  0  0  0  0  0  0  0  # atno 8009 bound_to 7997
  156.1988  140.1714  156.7928 H   0  0  0  0  0  0  0  0  0  0  0  0  # atno 8010 bound_to 7997
  140.4862  143.2390  151.7980 H   0  0  0  0  0  0  0  0  0  0  0  0  # atno 10167 bound_to 10162
  157.0997  131.0439  151.2503 H   0  0  0  0  0  0  0  0  0  0  0  0  # atno 10718 bound_to 10713
  154.0035  135.2921  155.3400 H   0  0  0  0  0  0  0  0  0  0  0  0  # atno 10763 bound_to 10752
  154.7145  135.5135  153.8720 H   0  0  0  0  0  0  0  0  0  0  0  0  # atno 10764 bound_to 10752
  153.0755  135.6662  154.0274 H   0  0  0  0  0  0  0  0  0  0  0  0  # atno 10765 bound_to 10752
  139.8892  134.8501  156.3031 H   0  0  0  0  0  0  0  0  0  0  0  0  # atno 11005 bound_to 11000
  145.7996  140.9777  143.1006 LP  0  0  0  0  0  0  0  0  0  0  0  0  # atno 17320 bound_to 7965
  144.6822  139.9785  143.7483 LP  0  0  0  0  0  0  0  0  0  0  0  0  # atno 17321 bound_to 7965
  139.4842  144.4709  151.9426 LP  0  0  0  0  0  0  0  0  0  0  0  0  # atno 17342 bound_to 10162
  140.3795  144.2754  150.5910 LP  0  0  0  0  0  0  0  0  0  0  0  0  # atno 17343 bound_to 10162
  157.4651  130.7676  149.7272 LP  0  0  0  0  0  0  0  0  0  0  0  0  # atno 17370 bound_to 10713
  155.9877  130.3965  150.3154 LP  0  0  0  0  0  0  0  0  0  0  0  0  # atno 17371 bound_to 10713
  140.9900  133.7214  156.0800 LP  0  0  0  0  0  0  0  0  0  0  0  0  # atno 17394 bound_to 11000
  140.7637  134.3910  157.5521 LP  0  0  0  0  0  0  0  0  0  0  0  0  # atno 17395 bound_to 11000

$$$$
