AV-unprocessed.smi:99|AV-procd|sdf|890|dock8
  -GOLD-   2262017373D 1   1.00000     0.00000
 Structure written by MMmdl.
 52 55  0  0  0  0  0  0  0  0  2 V2000
  147.0777  131.9683  159.7225 O   0  0  0  0  0  0  0  0  0  0  0  0
  147.9275  132.8474  159.8774 C   0  0  0  0  0  0  0  0  0  0  0  0
  149.0329  132.9581  159.1203 O   0  0  0  0  0  0  0  0  0  0  0  0
  149.1711  132.2019  157.9279 C   0  0  0  0  0  0  0  0  0  0  0  0
  148.5683  132.9797  156.7500 C   0  0  1  0  0  0  0  0  0  0  0  0
  148.7487  134.3751  156.9273 O   0  0  0  0  0  0  0  0  0  0  0  0
  148.7650  135.0082  155.6837 C   0  0  1  0  0  0  0  0  0  0  0  0
  149.9042  136.0066  155.6760 N   0  0  0  0  0  0  0  0  0  0  0  0
  149.6738  137.3261  155.3267 C   0  0  0  0  0  0  0  0  0  0  0  0
  150.6690  138.2360  155.3207 C   0  0  0  0  0  0  0  0  0  0  0  0
  152.0192  137.8215  155.6913 C   0  0  0  0  0  0  0  0  0  0  0  0
  152.9239  138.6537  155.6722 O   0  0  0  0  0  0  0  0  0  0  0  0
  152.2174  136.5188  156.0468 N   0  5  0  0  0  0  0  0  0  0  0  0
  151.2093  135.5984  156.0629 C   0  0  0  0  0  0  0  0  0  0  0  0
  151.3712  134.4286  156.4115 O   0  0  0  0  0  0  0  0  0  0  0  0
  148.9029  133.9270  154.5847 C   0  0  1  0  0  0  0  0  0  0  0  0
  149.9489  134.1532  153.6575 O   0  0  0  0  0  0  0  0  0  0  0  0
  149.1779  132.6610  155.3843 C   0  0  2  0  0  0  0  0  0  0  0  0
  148.5047  131.5448  154.8163 O   0  0  0  0  0  0  0  0  0  0  0  0
  149.1445  130.3698  154.6364 C   0  0  0  0  0  0  0  0  0  0  0  0
  150.1282  130.0165  155.2896 O   0  0  0  0  0  0  0  0  0  0  0  0
  148.5314  129.5371  153.5616 C   0  0  0  0  0  0  0  0  0  0  0  0
  149.2195  128.3934  153.0936 C   0  0  0  0  0  0  0  0  0  0  0  0
  148.6654  127.5875  152.0801 C   0  0  0  0  0  0  0  0  0  0  0  0
  147.4169  127.9162  151.5210 C   0  0  0  0  0  0  0  0  0  0  0  0
  146.7226  129.0520  151.9771 C   0  0  0  0  0  0  0  0  0  0  0  0
  147.2747  129.8586  152.9914 C   0  0  0  0  0  0  0  0  0  0  0  0
  147.8374  133.9096  160.9204 C   0  0  0  0  0  0  0  0  0  0  0  0
  148.1571  135.2446  160.5803 C   0  0  0  0  0  0  0  0  0  0  0  0
  148.0867  136.2670  161.5464 C   0  0  0  0  0  0  0  0  0  0  0  0
  147.6949  135.9670  162.8643 C   0  0  0  0  0  0  0  0  0  0  0  0
  147.3710  134.6433  163.2144 C   0  0  0  0  0  0  0  0  0  0  0  0
  147.4389  133.6201  162.2493 C   0  0  0  0  0  0  0  0  0  0  0  0
  150.2293  132.0098  157.7464 H   0  0  0  0  0  0  0  0  0  0  0  0
  148.6739  131.2363  158.0290 H   0  0  0  0  0  0  0  0  0  0  0  0
  147.4910  132.8079  156.7161 H   0  0  0  0  0  0  0  0  0  0  0  0
  147.8437  135.5849  155.5948 H   0  0  0  0  0  0  0  0  0  0  0  0
  148.6789  137.6428  155.0564 H   0  0  0  0  0  0  0  0  0  0  0  0
  150.4691  139.2615  155.0469 H   0  0  0  0  0  0  0  0  0  0  0  0
  147.9480  133.8610  154.0612 H   0  0  0  0  0  0  0  0  0  0  0  0
  150.5511  133.4257  153.7057 H   0  0  0  0  0  0  0  0  0  0  0  0
  150.2530  132.5061  155.4861 H   0  0  0  0  0  0  0  0  0  0  0  0
  150.1798  128.1208  153.5072 H   0  0  0  0  0  0  0  0  0  0  0  0
  149.1999  126.7159  151.7315 H   0  0  0  0  0  0  0  0  0  0  0  0
  146.9925  127.2982  150.7436 H   0  0  0  0  0  0  0  0  0  0  0  0
  145.7643  129.3055  151.5483 H   0  0  0  0  0  0  0  0  0  0  0  0
  146.7154  130.7232  153.3178 H   0  0  0  0  0  0  0  0  0  0  0  0
  148.4629  135.4985  159.5755 H   0  0  0  0  0  0  0  0  0  0  0  0
  148.3348  137.2827  161.2756 H   0  0  0  0  0  0  0  0  0  0  0  0
  147.6419  136.7509  163.6052 H   0  0  0  0  0  0  0  0  0  0  0  0
  147.0683  134.4111  164.2248 H   0  0  0  0  0  0  0  0  0  0  0  0
  147.1769  132.6169  162.5515 H   0  0  0  0  0  0  0  0  0  0  0  0
  1  2  2  0  0  0  0
  2  3  1  0  0  0  0
  2 28  1  0  0  0  0
  3  4  1  0  0  0  0
  4  5  1  0  0  0  0
  4 34  1  0  0  0  0
  4 35  1  0  0  0  0
  5 18  1  0  0  0  0
  5  6  1  0  0  0  0
  5 36  1  0  0  0  0
  6  7  1  0  0  0  0
  7  8  1  0  0  0  0
  7 16  1  0  0  0  0
  7 37  1  0  0  0  0
  8 14  1  0  0  0  0
  8  9  1  0  0  0  0
  9 10  2  0  0  0  0
  9 38  1  0  0  0  0
 10 11  1  0  0  0  0
 10 39  1  0  0  0  0
 11 12  2  0  0  0  0
 11 13  1  0  0  0  0
 13 14  1  0  0  0  0
 14 15  2  0  0  0  0
 16 17  1  0  0  0  0
 16 18  1  0  0  0  0
 16 40  1  0  0  0  0
 17 41  1  0  0  0  0
 18 19  1  0  0  0  0
 18 42  1  0  0  0  0
 19 20  1  0  0  0  0
 20 21  2  0  0  0  0
 20 22  1  0  0  0  0
 22 27  1  0  0  0  0
 22 23  2  0  0  0  0
 23 24  1  0  0  0  0
 23 43  1  0  0  0  0
 24 25  2  0  0  0  0
 24 44  1  0  0  0  0
 25 26  1  0  0  0  0
 25 45  1  0  0  0  0
 26 27  2  0  0  0  0
 26 46  1  0  0  0  0
 27 47  1  0  0  0  0
 28 33  1  0  0  0  0
 28 29  2  0  0  0  0
 29 30  1  0  0  0  0
 29 48  1  0  0  0  0
 30 31  2  0  0  0  0
 30 49  1  0  0  0  0
 31 32  1  0  0  0  0
 31 50  1  0  0  0  0
 32 33  2  0  0  0  0
 32 51  1  0  0  0  0
 33 52  1  0  0  0  0
M  CHG  1  13  -1
M  END
> <s_m_source_file>
AV-unprocessed.smi

> <i_m_source_file_index>
99

> <i_lp_mmshare_version>
43012

> <i_f3d_flags>
0

> <s_epik_input>
W2NIXTFbY0hdW2NIXVtjSF1bY0hdYzFDKD1PKU9bQ0gyXVtDQEBIXTJPW0NAQEhdKG4zW2NIXVtjSF1jKD1PKVtuSF1jMz1PKVtDQEBIXShbT0hdKVtDQEhdMk9DKD1PKWM0W2NIXVtjSF1bY0hdW2NIXVtjSF00

> <s_epik_cmdline>
J2VwaWtfcHl0aG9uJywgJy1waCcsICc3LjAnLCAnLXRuJywgJzgnLCAnLW1hJywgJzIwMCcsICctbWV0YWxfYmluZGluZycsICctaW1hZScsICc8aW5maWxlLm1hZT4nLCAnLW9tYWUnLCAnPG91dGZpbGUubWFlPic=

> <r_lp_tautomer_probability>
1

> <r_epik_Ionization_Penalty>
2.89159

> <r_epik_Ionization_Penalty_Charging>
2.1077e-08

> <r_epik_Ionization_Penalty_Neutral>
2.89159

> <r_epik_State_Penalty>
2.88671

> <r_epik_Charging_Adjusted_Penalty>
2.88671

> <i_epik_Tot_Q>
-1

> <i_epik_Tot_abs_Q>
1

> <r_epik_Metal_State_Penalty>
0.0727308

> <b_epik_Metal_Only>
1

> <s_epik_Chemistry_Notes>
This compound has an ester and may undergo hydrolysis at high or low pH. This compound contains an acetal/aminal-like group ( X-CH(R)-Y where X, Y are N, S, or O) that may be acid/base labile, releasing an aldehyde.

> <s_lp_Force_Field>
OPLS_2005

> <r_lp_Energy>
45.1404

> <b_lp_Chiralities_Consistent>
1

> <s_lp_Variant>
AV-unprocessed.smi:99-26

> <Gold.Version>
5.8.1

> <Gold.Id.Protein>
6NUR|6NUR_protein|mol2

> <Gold.PLP.Fitness>
50.9746

> <Gold.PLP.PLP>
-49.9102

> <Gold.PLP.part.hbond>
-5.1686

> <Gold.PLP.part.metal>
0.0000

> <Gold.PLP.part.buried>
-0.0139

> <Gold.PLP.part.nonpolar>
-45.4298

> <Gold.PLP.part.repulsive>
0.0657

> <Gold.PLP.ligand.clash>
0.0000

> <Gold.PLP.ligand.torsion>
2.5383

> <Gold.PLP.Chemscore.Hbond>
1.9125

> <Gold.PLP.Chemscore.CHOScore>
0.0000

> <Gold.PLP.Chemscore.Metal>
0.0000

> <Gold.Chemscore.Hbonds>
donor molecule, donor type, donor heavy atom, donor atom, acceptor molecule, acceptor atom, score
      P1  H  7997  8009       L1    12  0.76
      P1  H 10752 10763       L1    13  0.90

> <Gold.PLP.Chemscore.Internal.Correction>
0.4035

> <Gold.Rescore>
     Score         DG    S(hbond)    S(metal)    S(lipo)     H(rot)  DE(clash)    DE(int)     intcor
      6.58     -12.46       0.67        0.00     109.01       3.13       0.31       5.57       ----

> <Gold.Chemscore.Fitness>
6.5787

> <Gold.Chemscore.DG>
-12.4555

> <Gold.Chemscore.ZeroCoef>
-5.4800

> <Gold.Chemscore.Hbond>
0.6723

> <Gold.Chemscore.Metal>
0.0000

> <Gold.Chemscore.Lipo>
109.0138

> <Gold.Chemscore.Internal_Hbond>
0.0000

> <Gold.Chemscore.DEClash>
0.3117

> <Gold.Chemscore.DEInternal>
5.5650

> <Gold.Chemscore.Rot>
3.1346

> <Gold.Chemscore.Internal.Correction>
   9.000000E+99

> <Gold.Chemscore.Hbonds>
donor molecule, donor type, donor heavy atom, donor atom, acceptor molecule, acceptor atom, score
      P1  H  7997  8009       L1    12  0.73
      P1  H 10752 10763       L1    13  0.02

> <Gold.Chemscore.Hbond.Weighted>
-2.2455

> <Gold.Chemscore.Metal.Weighted>
-0.0000

> <Gold.Chemscore.Lipo.Weighted>
-12.7546

> <Gold.Chemscore.Internal_Hbond.Weighted>
0.0000

> <Gold.Chemscore.DEClash.Weighted>
0.3117

> <Gold.Chemscore.DEInternal.Weighted>
5.5650

> <Gold.Chemscore.Rot.Weighted>
8.0246

> <Gold.Chemscore.Internal.Correction.Weighted>
   9.000000E+99

> <Gold.Protein.RotatedTorsions>
[ 6907 6896 6895 6894 ] final  145.25 input  -60.11 | X-H torsion
[ 7974 7965 7964 7962 ] final  -97.54 input  175.53 | X-H torsion
[ 8008 7997 7996 7995 ] final -146.46 input   59.86 | X-H torsion
[ 10167 10162 10161 10158 ] final   76.66 input  -65.29 | X-H torsion
[ 10718 10713 10712 10709 ] final   -3.02 input   66.30 | X-H torsion
[ 10763 10752 10751 10750 ] final   83.98 input  -60.55 | X-H torsion
[ 11005 11000 10999 10996 ] final  175.30 input  -57.11 | X-H torsion

> <Gold.Protein.ActiveResidues>
 VAL166  LYS551  ARG553  GLY616  TRP617  ASP618  TYR619  PRO620  LYS621  CYS622 
 ASP623  PHE694  ASN695  SER759  ASP760  ASP761  ALA762  ILE779  LEU786  VAL792 
 PHE793  MET794  SER795  GLU796  ALA797  LYS798  CYS799  TRP800  GLU811  SER814 

> <Gold.Protein.RotatedAtoms>
  152.1833  133.4722  159.4969 H   0  0  0  0  0  0  0  0  0  0  0  0  # atno 6907 bound_to 6896
  150.6938  134.1806  159.4256 H   0  0  0  0  0  0  0  0  0  0  0  0  # atno 6908 bound_to 6896
  151.9718  135.0073  160.0604 H   0  0  0  0  0  0  0  0  0  0  0  0  # atno 6909 bound_to 6896
  145.3324  140.9444  143.2654 H   0  0  0  0  0  0  0  0  0  0  0  0  # atno 7974 bound_to 7965
  155.5597  140.0624  157.2831 H   0  0  0  0  0  0  0  0  0  0  0  0  # atno 8008 bound_to 7997
  154.4394  140.1888  156.0815 H   0  0  0  0  0  0  0  0  0  0  0  0  # atno 8009 bound_to 7997
  156.0456  140.3290  155.7296 H   0  0  0  0  0  0  0  0  0  0  0  0  # atno 8010 bound_to 7997
  139.9899  144.5764  150.7827 H   0  0  0  0  0  0  0  0  0  0  0  0  # atno 10167 bound_to 10162
  156.7822  130.5334  149.5749 H   0  0  0  0  0  0  0  0  0  0  0  0  # atno 10718 bound_to 10713
  153.1340  135.4671  154.9392 H   0  0  0  0  0  0  0  0  0  0  0  0  # atno 10763 bound_to 10752
  154.7689  135.3153  154.8232 H   0  0  0  0  0  0  0  0  0  0  0  0  # atno 10764 bound_to 10752
  153.8769  135.6898  153.4824 H   0  0  0  0  0  0  0  0  0  0  0  0  # atno 10765 bound_to 10752
  140.3607  134.7115  157.4329 H   0  0  0  0  0  0  0  0  0  0  0  0  # atno 11005 bound_to 11000
  144.8854  139.4847  143.6703 LP  0  0  0  0  0  0  0  0  0  0  0  0  # atno 17320 bound_to 7965
  146.3040  139.7519  142.9070 LP  0  0  0  0  0  0  0  0  0  0  0  0  # atno 17321 bound_to 7965
  140.7458  143.2882  151.3405 LP  0  0  0  0  0  0  0  0  0  0  0  0  # atno 17342 bound_to 10162
  139.6347  144.0652  152.2506 LP  0  0  0  0  0  0  0  0  0  0  0  0  # atno 17343 bound_to 10162
  156.1211  130.6110  151.0194 LP  0  0  0  0  0  0  0  0  0  0  0  0  # atno 17370 bound_to 10713
  157.6641  131.0875  150.7771 LP  0  0  0  0  0  0  0  0  0  0  0  0  # atno 17371 bound_to 10713
  140.0629  134.5970  155.8728 LP  0  0  0  0  0  0  0  0  0  0  0  0  # atno 17394 bound_to 11000
  141.1985  133.6601  156.5795 LP  0  0  0  0  0  0  0  0  0  0  0  0  # atno 17395 bound_to 11000

$$$$
