AV-unprocessed.smi:2741|AV-procd|sdf|10559|dock5
  -GOLD-   2272015 13D 1   1.00000     0.00000
 Structure written by MMmdl.
 39 40  0  0  0  0  0  0  0  0  1 V2000
  152.4783  139.5924  155.7371 O   0  0  0  0  0  0  0  0  0  0  0  0
  151.4430  139.5262  156.4008 C   0  0  0  0  0  0  0  0  0  0  0  0
  151.4973  139.2192  157.9033 C   0  0  0  0  0  0  0  0  0  0  0  0
  152.0984  140.3117  158.6866 N   0  0  0  0  0  0  0  0  0  0  0  0
  151.6463  141.6198  158.4223 C   0  0  0  0  0  0  0  0  0  0  0  0
  152.1053  142.7010  159.0814 C   0  0  0  0  0  0  0  0  0  0  0  0
  151.6321  144.1045  158.7364 C   0  0  0  0  0  0  0  0  0  0  0  0
  150.3120  144.2189  158.8839 F   0  0  0  0  0  0  0  0  0  0  0  0
  152.2207  145.0127  159.5158 F   0  0  0  0  0  0  0  0  0  0  0  0
  151.9355  144.3870  157.4704 F   0  0  0  0  0  0  0  0  0  0  0  0
  153.1321  142.4622  160.0770 C   0  0  0  0  0  0  0  0  0  0  0  0
  153.5805  141.2185  160.3370 C   0  0  0  0  0  0  0  0  0  0  0  0
  153.0553  140.0501  159.6273 C   0  0  0  0  0  0  0  0  0  0  0  0
  153.4509  138.9077  159.8626 O   0  0  0  0  0  0  0  0  0  0  0  0
  150.2206  139.6993  155.8769 N   0  0  0  0  0  0  0  0  0  0  0  0
  149.9440  140.0364  154.4849 C   0  0  0  0  0  0  0  0  0  0  0  0
  148.4776  139.7551  154.1012 C   0  0  1  0  0  0  0  0  0  0  0  0
  147.7273  140.9920  153.5730 C   0  0  0  0  0  0  0  0  0  0  0  0
  146.8332  140.5068  152.4206 C   0  0  0  0  0  0  0  0  0  0  0  0
  146.9068  138.9783  152.4584 C   0  0  1  0  0  0  0  0  0  0  0  0
  146.7057  138.4001  151.1859 O   0  0  0  0  0  0  0  0  0  0  0  0
  148.2990  138.6884  153.0134 C   0  0  0  0  0  0  0  0  0  0  0  0
  150.4927  139.0064  158.2746 H   0  0  0  0  0  0  0  0  0  0  0  0
  152.0542  138.2914  158.0388 H   0  0  0  0  0  0  0  0  0  0  0  0
  150.8956  141.6898  157.6485 H   0  0  0  0  0  0  0  0  0  0  0  0
  153.5467  143.2935  160.6282 H   0  0  0  0  0  0  0  0  0  0  0  0
  154.3444  141.0774  161.0878 H   0  0  0  0  0  0  0  0  0  0  0  0
  149.4246  139.6189  156.4930 H   0  0  0  0  0  0  0  0  0  0  0  0
  150.1908  141.0831  154.2997 H   0  0  0  0  0  0  0  0  0  0  0  0
  150.6133  139.4458  153.8583 H   0  0  0  0  0  0  0  0  0  0  0  0
  147.9432  139.4078  154.9872 H   0  0  0  0  0  0  0  0  0  0  0  0
  147.1353  141.4463  154.3682 H   0  0  0  0  0  0  0  0  0  0  0  0
  148.4171  141.7549  153.2106 H   0  0  0  0  0  0  0  0  0  0  0  0
  145.8088  140.8710  152.5047 H   0  0  0  0  0  0  0  0  0  0  0  0
  147.2359  140.8804  151.4778 H   0  0  0  0  0  0  0  0  0  0  0  0
  146.1543  138.5935  153.1483 H   0  0  0  0  0  0  0  0  0  0  0  0
  145.8024  138.5248  150.9378 H   0  0  0  0  0  0  0  0  0  0  0  0
  149.0513  138.8200  152.2337 H   0  0  0  0  0  0  0  0  0  0  0  0
  148.3912  137.6730  153.4009 H   0  0  0  0  0  0  0  0  0  0  0  0
  1  2  2  0  0  0  0
  2  3  1  0  0  0  0
  2 15  1  0  0  0  0
  3  4  1  0  0  0  0
  3 23  1  0  0  0  0
  3 24  1  0  0  0  0
  4 13  1  0  0  0  0
  4  5  1  0  0  0  0
  5  6  2  0  0  0  0
  5 25  1  0  0  0  0
  6  7  1  0  0  0  0
  6 11  1  0  0  0  0
  7  8  1  0  0  0  0
  7  9  1  0  0  0  0
  7 10  1  0  0  0  0
 11 12  2  0  0  0  0
 11 26  1  0  0  0  0
 12 13  1  0  0  0  0
 12 27  1  0  0  0  0
 13 14  2  0  0  0  0
 15 16  1  0  0  0  0
 15 28  1  0  0  0  0
 16 17  1  0  0  0  0
 16 29  1  0  0  0  0
 16 30  1  0  0  0  0
 17 22  1  0  0  0  0
 17 18  1  0  0  0  0
 17 31  1  0  0  0  0
 18 19  1  0  0  0  0
 18 32  1  0  0  0  0
 18 33  1  0  0  0  0
 19 20  1  0  0  0  0
 19 34  1  0  0  0  0
 19 35  1  0  0  0  0
 20 21  1  0  0  0  0
 20 22  1  0  0  0  0
 20 36  1  0  0  0  0
 21 37  1  0  0  0  0
 22 38  1  0  0  0  0
 22 39  1  0  0  0  0
M  END
> <s_m_source_file>
AV-unprocessed.smi

> <i_m_source_file_index>
2741

> <i_lp_mmshare_version>
43012

> <i_f3d_flags>
0

> <s_epik_input>
W09IXVtDQEBIXShbQ0gyXTEpW0NIMl1bQ0gyXVtDQEhdMVtDSDJdW05IXUMoPU8pW0NIMl1uMltjSF1jKEMoRikoRilGKVtjSF1bY0hdYzI9Tw==

> <s_epik_cmdline>
J2VwaWtfcHl0aG9uJywgJy1waCcsICc3LjAnLCAnLXRuJywgJzgnLCAnLW1hJywgJzIwMCcsICctbWV0YWxfYmluZGluZycsICctaW1hZScsICc8aW5maWxlLm1hZT4nLCAnLW9tYWUnLCAnPG91dGZpbGUubWFlPic=

> <r_lp_tautomer_probability>
1

> <r_epik_Ionization_Penalty>
1.17551e-06

> <r_epik_Ionization_Penalty_Charging>
1.78841e-08

> <r_epik_Ionization_Penalty_Neutral>
1.15762e-06

> <r_epik_State_Penalty>
-0

> <r_epik_Charging_Adjusted_Penalty>
1.78841e-08

> <i_epik_Tot_Q>
0

> <i_epik_Tot_abs_Q>
0

> <r_epik_Metal_State_Penalty>
-0

> <b_epik_Metal_Only>
0

> <s_lp_Force_Field>
OPLS_2005

> <r_lp_Energy>
32.8711

> <b_lp_Chiralities_Consistent>
1

> <s_lp_Variant>
AV-unprocessed.smi:2741-2

> <Gold.Version>
5.8.1

> <Gold.Id.Protein>
6NUR|6NUR_protein|mol2

> <Gold.PLP.Fitness>
52.1044

> <Gold.PLP.PLP>
-46.6207

> <Gold.PLP.part.hbond>
-3.3399

> <Gold.PLP.part.metal>
0.0000

> <Gold.PLP.part.buried>
5.3104

> <Gold.PLP.part.nonpolar>
-47.0269

> <Gold.PLP.part.repulsive>
0.0544

> <Gold.PLP.ligand.clash>
0.0000

> <Gold.PLP.ligand.torsion>
1.0967

> <Gold.PLP.Chemscore.Hbond>
2.5438

> <Gold.PLP.Chemscore.CHOScore>
0.0000

> <Gold.PLP.Chemscore.Metal>
0.0000

> <Gold.Chemscore.Hbonds>
donor molecule, donor type, donor heavy atom, donor atom, acceptor molecule, acceptor atom, score
      L1  H    21    37       P1 10171  0.52
      P1  H  7954  7966       L1    21  1.00
      P1  H  7997  8010       L1     1  1.00

> <Gold.PLP.Chemscore.Internal.Correction>
0.0460

> <Gold.Rescore>
     Score         DG    S(hbond)    S(metal)    S(lipo)     H(rot)  DE(clash)    DE(int)     intcor
     14.56     -18.90       2.37        0.00     101.31       2.48       3.32       1.02       ----

> <Gold.Chemscore.Fitness>
14.5569

> <Gold.Chemscore.DG>
-18.9000

> <Gold.Chemscore.ZeroCoef>
-5.4800

> <Gold.Chemscore.Hbond>
2.3703

> <Gold.Chemscore.Metal>
0.0000

> <Gold.Chemscore.Lipo>
101.3139

> <Gold.Chemscore.Internal_Hbond>
0.0000

> <Gold.Chemscore.DEClash>
3.3204

> <Gold.Chemscore.DEInternal>
1.0227

> <Gold.Chemscore.Rot>
2.4807

> <Gold.Chemscore.Internal.Correction>
   9.000000E+99

> <Gold.Chemscore.Hbonds>
donor molecule, donor type, donor heavy atom, donor atom, acceptor molecule, acceptor atom, score
      L1  H    21    37       P1 10171  0.52
      P1  H  7954  7966       L1    21  0.93
      P1  H  7997  8010       L1     1  0.95

> <Gold.Chemscore.Hbond.Weighted>
-7.9169

> <Gold.Chemscore.Metal.Weighted>
-0.0000

> <Gold.Chemscore.Lipo.Weighted>
-11.8537

> <Gold.Chemscore.Internal_Hbond.Weighted>
0.0000

> <Gold.Chemscore.DEClash.Weighted>
3.3204

> <Gold.Chemscore.DEInternal.Weighted>
1.0227

> <Gold.Chemscore.Rot.Weighted>
6.3507

> <Gold.Chemscore.Internal.Correction.Weighted>
   9.000000E+99

> <Gold.Protein.RotatedTorsions>
[ 6907 6896 6895 6894 ] final -106.25 input  -60.11 | X-H torsion
[ 7974 7965 7964 7962 ] final -121.07 input  175.53 | X-H torsion
[ 8008 7997 7996 7995 ] final   79.78 input   59.86 | X-H torsion
[ 10167 10162 10161 10158 ] final  178.63 input  -65.29 | X-H torsion
[ 10718 10713 10712 10709 ] final  -23.98 input   66.30 | X-H torsion
[ 10763 10752 10751 10750 ] final -165.08 input  -60.55 | X-H torsion
[ 11005 11000 10999 10996 ] final   35.67 input  -57.11 | X-H torsion

> <Gold.Protein.ActiveResidues>
 VAL166  LYS551  ARG553  GLY616  TRP617  ASP618  TYR619  PRO620  LYS621  CYS622 
 ASP623  PHE694  ASN695  SER759  ASP760  ASP761  ALA762  ILE779  LEU786  VAL792 
 PHE793  MET794  SER795  GLU796  ALA797  LYS798  CYS799  TRP800  GLU811  SER814 

> <Gold.Protein.RotatedAtoms>
  150.7379  134.0004  159.3636 H   0  0  0  0  0  0  0  0  0  0  0  0  # atno 6907 bound_to 6896
  151.7958  135.0721  160.0403 H   0  0  0  0  0  0  0  0  0  0  0  0  # atno 6908 bound_to 6896
  152.3176  133.5782  159.5758 H   0  0  0  0  0  0  0  0  0  0  0  0  # atno 6909 bound_to 6896
  145.0443  140.8169  143.4247 H   0  0  0  0  0  0  0  0  0  0  0  0  # atno 7974 bound_to 7965
  155.8744  140.3447  155.5843 H   0  0  0  0  0  0  0  0  0  0  0  0  # atno 8008 bound_to 7997
  155.7791  140.0856  157.2087 H   0  0  0  0  0  0  0  0  0  0  0  0  # atno 8009 bound_to 7997
  154.4019  140.1504  156.3019 H   0  0  0  0  0  0  0  0  0  0  0  0  # atno 8010 bound_to 7997
  139.5302  144.2657  152.0670 H   0  0  0  0  0  0  0  0  0  0  0  0  # atno 10167 bound_to 10162
  156.4838  130.4551  149.6796 H   0  0  0  0  0  0  0  0  0  0  0  0  # atno 10718 bound_to 10713
  154.6966  135.2980  154.9402 H   0  0  0  0  0  0  0  0  0  0  0  0  # atno 10763 bound_to 10752
  154.0348  135.6665  153.4788 H   0  0  0  0  0  0  0  0  0  0  0  0  # atno 10764 bound_to 10752
  153.0650  135.5093  154.8087 H   0  0  0  0  0  0  0  0  0  0  0  0  # atno 10765 bound_to 10752
  140.2403  134.3422  155.7928 H   0  0  0  0  0  0  0  0  0  0  0  0  # atno 11005 bound_to 11000
  145.1607  139.2460  143.5393 LP  0  0  0  0  0  0  0  0  0  0  0  0  # atno 17320 bound_to 7965
  146.3512  140.1333  142.8596 LP  0  0  0  0  0  0  0  0  0  0  0  0  # atno 17321 bound_to 7965
  140.2119  144.4554  150.6382 LP  0  0  0  0  0  0  0  0  0  0  0  0  # atno 17342 bound_to 10162
  140.6475  143.2217  151.6153 LP  0  0  0  0  0  0  0  0  0  0  0  0  # atno 17343 bound_to 10162
  156.3495  130.7424  151.2382 LP  0  0  0  0  0  0  0  0  0  0  0  0  # atno 17370 bound_to 10713
  157.7481  131.0381  150.4487 LP  0  0  0  0  0  0  0  0  0  0  0  0  # atno 17371 bound_to 10713
  141.2211  133.7295  156.8875 LP  0  0  0  0  0  0  0  0  0  0  0  0  # atno 17394 bound_to 11000
  140.1660  134.9133  157.2774 LP  0  0  0  0  0  0  0  0  0  0  0  0  # atno 17395 bound_to 11000

$$$$
