AV-unprocessed.smi:311|AV-procd|sdf|2302|dock5
  -GOLD-   2262022203D 1   1.00000     0.00000
 Structure written by MMmdl.
 44 46  0  0  0  0  0  0  0  0  2 V2000
  150.8675  134.4990  156.5469 C   0  0  0  0  0  0  0  0  0  0  0  0
  150.8145  135.8300  155.8539 C   0  0  0  0  0  0  0  0  0  0  0  0
  151.9244  136.5325  155.7008 N   0  0  0  0  0  0  0  0  0  0  0  0
  151.5480  137.7029  155.0349 O   0  0  0  0  0  0  0  0  0  0  0  0
  150.2103  137.6577  154.8095 C   0  0  0  0  0  0  0  0  0  0  0  0
  149.6115  138.8288  154.1074 C   0  0  0  0  0  0  0  0  0  0  0  0
  149.6831  136.4942  155.2991 C   0  0  0  0  0  0  0  0  0  0  0  0
  148.2510  136.0193  155.2663 C   0  0  0  0  0  0  0  0  0  0  0  0
  148.1437  134.5595  154.8080 C   0  0  0  0  0  0  0  0  0  0  0  0
  147.6919  133.6858  155.5500 O   0  0  0  0  0  0  0  0  0  0  0  0
  148.5654  134.3088  153.5600 N   0  0  0  0  0  0  0  0  0  0  0  0
  148.5599  132.9938  152.9280 C   0  0  1  0  0  0  0  0  0  0  0  0
  149.0742  131.8567  153.8328 C   0  0  0  0  0  0  0  0  0  0  0  0
  148.1770  130.6435  153.5150 C   0  0  0  0  0  0  0  0  0  0  0  0
  147.2943  131.0870  152.4190 N   0  3  1  0  0  0  0  0  0  0  0  0
  145.9991  130.3886  152.2685 C   0  0  0  0  0  0  0  0  0  0  0  0
  145.2662  130.9394  151.0280 C   0  0  0  0  0  0  0  0  0  0  0  0
  145.1383  132.4764  151.0718 C   0  0  0  0  0  0  0  0  0  0  0  0
  146.5051  133.1420  151.3245 C   0  0  0  0  0  0  0  0  0  0  0  0
  147.1417  132.5399  152.5873 C   0  0  2  0  0  0  0  0  0  0  0  0
  150.0275  134.3818  157.2317 H   0  0  0  0  0  0  0  0  0  0  0  0
  151.7835  134.3820  157.1274 H   0  0  0  0  0  0  0  0  0  0  0  0
  150.8243  133.6832  155.8254 H   0  0  0  0  0  0  0  0  0  0  0  0
  148.5518  138.9257  154.3447 H   0  0  0  0  0  0  0  0  0  0  0  0
  149.7090  138.7215  153.0272 H   0  0  0  0  0  0  0  0  0  0  0  0
  150.1065  139.7541  154.4026 H   0  0  0  0  0  0  0  0  0  0  0  0
  147.7878  136.1039  156.2500 H   0  0  0  0  0  0  0  0  0  0  0  0
  147.6538  136.6400  154.5971 H   0  0  0  0  0  0  0  0  0  0  0  0
  148.9211  135.0811  153.0149 H   0  0  0  0  0  0  0  0  0  0  0  0
  149.1540  133.0218  152.0120 H   0  0  0  0  0  0  0  0  0  0  0  0
  150.1264  131.6466  153.6375 H   0  0  0  0  0  0  0  0  0  0  0  0
  148.9831  132.1157  154.8889 H   0  0  0  0  0  0  0  0  0  0  0  0
  148.7525  129.7670  153.2161 H   0  0  0  0  0  0  0  0  0  0  0  0
  147.5840  130.3771  154.3913 H   0  0  0  0  0  0  0  0  0  0  0  0
  146.1707  129.3171  152.1598 H   0  0  0  0  0  0  0  0  0  0  0  0
  145.3933  130.5300  153.1650 H   0  0  0  0  0  0  0  0  0  0  0  0
  145.8134  130.6513  150.1294 H   0  0  0  0  0  0  0  0  0  0  0  0
  144.2786  130.4846  150.9442 H   0  0  0  0  0  0  0  0  0  0  0  0
  144.7081  132.8442  150.1398 H   0  0  0  0  0  0  0  0  0  0  0  0
  144.4449  132.7595  151.8648 H   0  0  0  0  0  0  0  0  0  0  0  0
  147.1575  132.9886  150.4637 H   0  0  0  0  0  0  0  0  0  0  0  0
  146.3831  134.2198  151.4379 H   0  0  0  0  0  0  0  0  0  0  0  0
  146.4903  132.7227  153.4455 H   0  0  0  0  0  0  0  0  0  0  0  0
  147.8113  130.9512  151.5620 H   0  0  0  0  0  0  0  0  0  0  0  0
  1  2  1  0  0  0  0
  1 21  1  0  0  0  0
  1 22  1  0  0  0  0
  1 23  1  0  0  0  0
  2  7  1  0  0  0  0
  2  3  2  0  0  0  0
  3  4  1  0  0  0  0
  4  5  1  0  0  0  0
  5  6  1  0  0  0  0
  5  7  2  0  0  0  0
  6 24  1  0  0  0  0
  6 25  1  0  0  0  0
  6 26  1  0  0  0  0
  7  8  1  0  0  0  0
  8  9  1  0  0  0  0
  8 27  1  0  0  0  0
  8 28  1  0  0  0  0
  9 10  2  0  0  0  0
  9 11  1  0  0  0  0
 11 12  1  0  0  0  0
 11 29  1  0  0  0  0
 12 20  1  0  0  0  0
 12 13  1  0  0  0  0
 12 30  1  0  0  0  0
 13 14  1  0  0  0  0
 13 31  1  0  0  0  0
 13 32  1  0  0  0  0
 14 15  1  0  0  0  0
 14 33  1  0  0  0  0
 14 34  1  0  0  0  0
 15 20  1  0  0  0  0
 15 16  1  0  0  0  0
 15 44  1  0  0  0  0
 16 17  1  0  0  0  0
 16 35  1  0  0  0  0
 16 36  1  0  0  0  0
 17 18  1  0  0  0  0
 17 37  1  0  0  0  0
 17 38  1  0  0  0  0
 18 19  1  0  0  0  0
 18 39  1  0  0  0  0
 18 40  1  0  0  0  0
 19 20  1  0  0  0  0
 19 41  1  0  0  0  0
 19 42  1  0  0  0  0
 20 43  1  0  0  0  0
M  CHG  1  15   1
M  END
> <s_m_source_file>
AV-unprocessed.smi

> <i_m_source_file_index>
311

> <i_lp_mmshare_version>
43012

> <i_f3d_flags>
0

> <s_epik_input>
W0NIM11jMW5vYyhbQ0gzXSljMVtDSDJdQyg9TylbTkhdW0NASF0oW0NIMl1bQ0gyXTIpW0NAQEhdKE4yMylbQ0gyXVtDSDJdW0NIMl1bQ0gyXTM=

> <s_epik_cmdline>
J2VwaWtfcHl0aG9uJywgJy1waCcsICc3LjAnLCAnLXRuJywgJzgnLCAnLW1hJywgJzIwMCcsICctbWV0YWxfYmluZGluZycsICctaW1hZScsICc8aW5maWxlLm1hZT4nLCAnLW9tYWUnLCAnPG91dGZpbGUubWFlPic=

> <r_epik_Ionization_Penalty>
0.00173669

> <r_epik_Ionization_Penalty_Charging>
0.0017366

> <r_epik_Ionization_Penalty_Neutral>
9.2145e-08

> <r_epik_State_Penalty>
0.00117499

> <r_epik_Charging_Adjusted_Penalty>
0.00291159

> <i_epik_Tot_Q>
1

> <i_epik_Tot_abs_Q>
1

> <r_epik_Metal_State_Penalty>
-0

> <b_epik_Metal_Only>
0

> <s_lp_Force_Field>
OPLS_2005

> <r_lp_Energy>
29.9852

> <b_lp_Chiralities_Consistent>
1

> <s_lp_Variant>
AV-unprocessed.smi:311-6

> <Gold.Version>
5.8.1

> <Gold.Id.Protein>
6NUR|6NUR_protein|mol2

> <Gold.PLP.Fitness>
41.0586

> <Gold.PLP.PLP>
-32.8439

> <Gold.PLP.part.hbond>
-3.0000

> <Gold.PLP.part.metal>
0.0000

> <Gold.PLP.part.buried>
-3.7384

> <Gold.PLP.part.nonpolar>
-26.0365

> <Gold.PLP.part.repulsive>
0.1550

> <Gold.PLP.ligand.clash>
0.0000

> <Gold.PLP.ligand.torsion>
0.3242

> <Gold.PLP.Chemscore.Hbond>
2.9500

> <Gold.PLP.Chemscore.CHOScore>
0.0000

> <Gold.PLP.Chemscore.Metal>
0.0000

> <Gold.Chemscore.Hbonds>
donor molecule, donor type, donor heavy atom, donor atom, acceptor molecule, acceptor atom, score
      L1  H    11    29       P1  7948  0.95
      L1  H    15    44       P1 10747  1.00
      P1  H 10752 10765       L1     3  1.00

> <Gold.PLP.Chemscore.Internal.Correction>
0.0130

> <Gold.Rescore>
     Score         DG    S(hbond)    S(metal)    S(lipo)     H(rot)  DE(clash)    DE(int)     intcor
     17.80     -19.35       2.31        0.00      82.23       1.36       0.05       1.51       ----

> <Gold.Chemscore.Fitness>
17.7999

> <Gold.Chemscore.DG>
-19.3545

> <Gold.Chemscore.ZeroCoef>
-5.4800

> <Gold.Chemscore.Hbond>
2.3135

> <Gold.Chemscore.Metal>
0.0000

> <Gold.Chemscore.Lipo>
82.2275

> <Gold.Chemscore.Internal_Hbond>
0.0000

> <Gold.Chemscore.DEClash>
0.0465

> <Gold.Chemscore.DEInternal>
1.5080

> <Gold.Chemscore.Rot>
1.3567

> <Gold.Chemscore.Internal.Correction>
   9.000000E+99

> <Gold.Chemscore.Hbonds>
donor molecule, donor type, donor heavy atom, donor atom, acceptor molecule, acceptor atom, score
      L1  H    11    29       P1  7948  0.21
      L1  H    15    44       P1 10747  1.00
      P1  H 10752 10765       L1     3  0.49

> <Gold.Chemscore.Hbond.Weighted>
-7.7269

> <Gold.Chemscore.Metal.Weighted>
-0.0000

> <Gold.Chemscore.Lipo.Weighted>
-9.6206

> <Gold.Chemscore.Internal_Hbond.Weighted>
0.0000

> <Gold.Chemscore.DEClash.Weighted>
0.0465

> <Gold.Chemscore.DEInternal.Weighted>
1.5080

> <Gold.Chemscore.Rot.Weighted>
3.4731

> <Gold.Chemscore.Internal.Correction.Weighted>
   9.000000E+99

> <Gold.Protein.RotatedTorsions>
[ 6907 6896 6895 6894 ] final    0.12 input  -60.11 | X-H torsion
[ 7974 7965 7964 7962 ] final  -95.03 input  175.53 | X-H torsion
[ 8008 7997 7996 7995 ] final -105.56 input   59.86 | X-H torsion
[ 10167 10162 10161 10158 ] final   33.58 input  -65.29 | X-H torsion
[ 10718 10713 10712 10709 ] final  154.85 input   66.30 | X-H torsion
[ 10763 10752 10751 10750 ] final -171.02 input  -60.55 | X-H torsion
[ 11005 11000 10999 10996 ] final  -82.42 input  -57.11 | X-H torsion

> <Gold.Protein.ActiveResidues>
 VAL166  LYS551  ARG553  GLY616  TRP617  ASP618  TYR619  PRO620  LYS621  CYS622 
 ASP623  PHE694  ASN695  SER759  ASP760  ASP761  ALA762  ILE779  LEU786  VAL792 
 PHE793  MET794  SER795  GLU796  ALA797  LYS798  CYS799  TRP800  GLU811  SER814 

> <Gold.Protein.RotatedAtoms>
  151.5713  135.1062  159.9995 H   0  0  0  0  0  0  0  0  0  0  0  0  # atno 6907 bound_to 6896
  152.4399  133.7425  159.6659 H   0  0  0  0  0  0  0  0  0  0  0  0  # atno 6908 bound_to 6896
  150.8303  133.8033  159.3125 H   0  0  0  0  0  0  0  0  0  0  0  0  # atno 6909 bound_to 6896
  145.3655  140.9498  143.2477 H   0  0  0  0  0  0  0  0  0  0  0  0  # atno 7974 bound_to 7965
  154.9016  140.0412  157.1896 H   0  0  0  0  0  0  0  0  0  0  0  0  # atno 8008 bound_to 7997
  154.8438  140.2918  155.5621 H   0  0  0  0  0  0  0  0  0  0  0  0  # atno 8009 bound_to 7997
  156.2993  140.2478  156.3385 H   0  0  0  0  0  0  0  0  0  0  0  0  # atno 8010 bound_to 7997
  140.4394  144.1209  150.6171 H   0  0  0  0  0  0  0  0  0  0  0  0  # atno 10167 bound_to 10162
  157.2261  131.0729  151.1882 H   0  0  0  0  0  0  0  0  0  0  0  0  # atno 10718 bound_to 10713
  154.6352  135.2891  155.0170 H   0  0  0  0  0  0  0  0  0  0  0  0  # atno 10763 bound_to 10752
  154.1316  135.6532  153.4927 H   0  0  0  0  0  0  0  0  0  0  0  0  # atno 10764 bound_to 10752
  153.0299  135.5311  154.7195 H   0  0  0  0  0  0  0  0  0  0  0  0  # atno 10765 bound_to 10752
  141.1663  133.7243  156.8568 H   0  0  0  0  0  0  0  0  0  0  0  0  # atno 11005 bound_to 11000
  144.8615  139.5170  143.6810 LP  0  0  0  0  0  0  0  0  0  0  0  0  # atno 17320 bound_to 7965
  146.2909  139.7136  142.9162 LP  0  0  0  0  0  0  0  0  0  0  0  0  # atno 17321 bound_to 7965
  140.4335  143.2557  151.9564 LP  0  0  0  0  0  0  0  0  0  0  0  0  # atno 17342 bound_to 10162
  139.4789  144.5721  151.8071 LP  0  0  0  0  0  0  0  0  0  0  0  0  # atno 17343 bound_to 10162
  157.3526  130.7090  149.6450 LP  0  0  0  0  0  0  0  0  0  0  0  0  # atno 17370 bound_to 10713
  155.9678  130.4248  150.4626 LP  0  0  0  0  0  0  0  0  0  0  0  0  # atno 17371 bound_to 10713
  140.1876  134.8988  157.3023 LP  0  0  0  0  0  0  0  0  0  0  0  0  # atno 17394 bound_to 11000
  140.2325  134.3892  155.7515 LP  0  0  0  0  0  0  0  0  0  0  0  0  # atno 17395 bound_to 11000

$$$$
