AV-unprocessed.smi:1230|AV-procd|sdf|5156|dock6
  -GOLD-   22720 4233D 1   1.00000     0.00000
 Structure written by MMmdl.
 39 40  0  0  0  0  0  0  0  0  1 V2000
  153.3167  141.3420  160.3284 C   0  0  0  0  0  0  0  0  0  0  0  0
  152.7836  142.6766  159.7818 C   0  0  2  0  0  0  0  0  0  0  0  0
  152.4890  143.6566  160.9357 C   0  0  0  0  0  0  0  0  0  0  0  0
  151.9455  144.9976  160.4208 C   0  0  0  0  0  0  0  0  0  0  0  0
  150.6937  144.7888  159.5581 C   0  0  0  0  0  0  0  0  0  0  0  0
  150.9795  143.8253  158.3971 C   0  0  0  0  0  0  0  0  0  0  0  0
  151.5288  142.4738  158.9022 C   0  0  1  0  0  0  0  0  0  0  0  0
  151.9011  141.6647  157.7928 O   0  0  0  0  0  0  0  0  0  0  0  0
  150.8437  140.8919  157.2461 C   0  0  0  0  0  0  0  0  0  0  0  0
  151.2055  140.5312  155.7976 C   0  0  0  0  0  0  0  0  0  0  0  0
  150.0467  140.3147  154.9679 N   0  0  0  0  0  0  0  0  0  0  0  0
  149.0676  141.2803  154.7921 C   0  0  0  0  0  0  0  0  0  0  0  0
  147.9852  141.0909  154.0008 C   0  0  0  0  0  0  0  0  0  0  0  0
  146.9868  142.0937  153.8289 C   0  0  0  0  0  0  0  0  0  0  0  0
  146.1930  142.9219  153.6759 N   0  0  0  0  0  0  0  0  0  0  0  0
  147.7981  139.8335  153.2788 C   0  0  0  0  0  0  0  0  0  0  0  0
  146.8522  139.5641  152.5409 O   0  0  0  0  0  0  0  0  0  0  0  0
  148.8157  138.8956  153.4820 N   0  0  0  0  0  0  0  0  0  0  0  0
  149.9390  139.0765  154.2918 C   0  0  0  0  0  0  0  0  0  0  0  0
  150.7775  138.1801  154.3866 O   0  0  0  0  0  0  0  0  0  0  0  0
  148.7325  138.0127  152.9994 H   0  0  0  0  0  0  0  0  0  0  0  0
  152.5701  140.8398  160.9442 H   0  0  0  0  0  0  0  0  0  0  0  0
  154.2049  141.4962  160.9417 H   0  0  0  0  0  0  0  0  0  0  0  0
  153.5928  140.6631  159.5213 H   0  0  0  0  0  0  0  0  0  0  0  0
  153.5658  143.1168  159.1611 H   0  0  0  0  0  0  0  0  0  0  0  0
  151.7654  143.2123  161.6205 H   0  0  0  0  0  0  0  0  0  0  0  0
  153.3949  143.8312  161.5173 H   0  0  0  0  0  0  0  0  0  0  0  0
  151.7131  145.6520  161.2613 H   0  0  0  0  0  0  0  0  0  0  0  0
  152.7140  145.5047  159.8361 H   0  0  0  0  0  0  0  0  0  0  0  0
  149.8858  144.3912  160.1736 H   0  0  0  0  0  0  0  0  0  0  0  0
  150.3455  145.7463  159.1700 H   0  0  0  0  0  0  0  0  0  0  0  0
  150.0656  143.6787  157.8222 H   0  0  0  0  0  0  0  0  0  0  0  0
  151.7006  144.2811  157.7171 H   0  0  0  0  0  0  0  0  0  0  0  0
  150.7673  141.9690  159.5001 H   0  0  0  0  0  0  0  0  0  0  0  0
  150.7078  139.9816  157.8321 H   0  0  0  0  0  0  0  0  0  0  0  0
  149.9065  141.4470  157.2782 H   0  0  0  0  0  0  0  0  0  0  0  0
  151.8228  141.2930  155.3164 H   0  0  0  0  0  0  0  0  0  0  0  0
  151.7816  139.6052  155.7646 H   0  0  0  0  0  0  0  0  0  0  0  0
  149.1682  142.2271  155.3039 H   0  0  0  0  0  0  0  0  0  0  0  0
  1  2  1  0  0  0  0
  1 22  1  0  0  0  0
  1 23  1  0  0  0  0
  1 24  1  0  0  0  0
  2  7  1  0  0  0  0
  2  3  1  0  0  0  0
  2 25  1  0  0  0  0
  3  4  1  0  0  0  0
  3 26  1  0  0  0  0
  3 27  1  0  0  0  0
  4  5  1  0  0  0  0
  4 28  1  0  0  0  0
  4 29  1  0  0  0  0
  5  6  1  0  0  0  0
  5 30  1  0  0  0  0
  5 31  1  0  0  0  0
  6  7  1  0  0  0  0
  6 32  1  0  0  0  0
  6 33  1  0  0  0  0
  7  8  1  0  0  0  0
  7 34  1  0  0  0  0
  8  9  1  0  0  0  0
  9 10  1  0  0  0  0
  9 35  1  0  0  0  0
  9 36  1  0  0  0  0
 10 11  1  0  0  0  0
 10 37  1  0  0  0  0
 10 38  1  0  0  0  0
 11 19  1  0  0  0  0
 11 12  1  0  0  0  0
 12 13  2  0  0  0  0
 12 39  1  0  0  0  0
 13 14  1  0  0  0  0
 13 16  1  0  0  0  0
 14 15  3  0  0  0  0
 16 17  2  0  0  0  0
 16 18  1  0  0  0  0
 18 21  1  0  0  0  0
 18 19  1  0  0  0  0
 19 20  2  0  0  0  0
M  END
> <s_m_source_file>
AV-unprocessed.smi

> <i_m_source_file_index>
1230

> <i_lp_mmshare_version>
43012

> <i_f3d_flags>
0

> <s_epik_input>
W0NIM11bQ0BASF0xW0NIMl1bQ0gyXVtDSDJdW0NIMl1bQ0BIXTFPW0NIMl1bQ0gyXW4yW2NIXWMoQyNOKWMoPU8pW25IXWMyPU8=

> <s_epik_cmdline>
J2VwaWtfcHl0aG9uJywgJy1waCcsICc3LjAnLCAnLXRuJywgJzgnLCAnLW1hJywgJzIwMCcsICctbWV0YWxfYmluZGluZycsICctaW1hZScsICc8aW5maWxlLm1hZT4nLCAnLW9tYWUnLCAnPG91dGZpbGUubWFlPic=

> <r_epik_Ionization_Penalty>
0.421541

> <r_epik_Ionization_Penalty_Charging>
0.421541

> <r_epik_Ionization_Penalty_Neutral>
2.29267e-11

> <r_epik_State_Penalty>
0.422277

> <r_epik_Charging_Adjusted_Penalty>
0.843818

> <i_epik_Tot_Q>
0

> <i_epik_Tot_abs_Q>
0

> <r_epik_Metal_State_Penalty>
4.11629

> <b_epik_Metal_Only>
0

> <s_lp_Force_Field>
OPLS_2005

> <r_lp_Energy>
13.3679

> <b_lp_Chiralities_Consistent>
1

> <s_lp_Variant>
AV-unprocessed.smi:1230-5

> <Gold.Version>
5.8.1

> <Gold.Id.Protein>
6NUR|6NUR_protein|mol2

> <Gold.PLP.Fitness>
50.2202

> <Gold.PLP.PLP>
-45.8840

> <Gold.PLP.part.hbond>
-1.8430

> <Gold.PLP.part.metal>
0.0000

> <Gold.PLP.part.buried>
-3.5981

> <Gold.PLP.part.nonpolar>
-40.2920

> <Gold.PLP.part.repulsive>
0.7735

> <Gold.PLP.ligand.clash>
0.0000

> <Gold.PLP.ligand.torsion>
0.5955

> <Gold.PLP.Chemscore.Hbond>
0.8775

> <Gold.PLP.Chemscore.CHOScore>
0.9604

> <Gold.PLP.Chemscore.Metal>
0.0000

> <Gold.Chemscore.Hbonds>
donor molecule, donor type, donor heavy atom, donor atom, acceptor molecule, acceptor atom, score
      L1  H    18    21       P1  7948  0.83
      L1  C    12    39       P1  8028  1.00

> <Gold.PLP.Chemscore.Internal.Correction>
0.0138

> <Gold.Rescore>
     Score         DG    S(hbond)    S(metal)    S(lipo)     H(rot)  DE(clash)    DE(int)     intcor
     14.74     -15.41       0.97        0.00      99.56       1.94       0.11       0.56       ----

> <Gold.Chemscore.Fitness>
14.7378

> <Gold.Chemscore.DG>
-15.4066

> <Gold.Chemscore.ZeroCoef>
-5.4800

> <Gold.Chemscore.Hbond>
0.9701

> <Gold.Chemscore.Metal>
0.0000

> <Gold.Chemscore.Lipo>
99.5643

> <Gold.Chemscore.Internal_Hbond>
0.0000

> <Gold.Chemscore.DEClash>
0.1069

> <Gold.Chemscore.DEInternal>
0.5619

> <Gold.Chemscore.Rot>
1.9385

> <Gold.Chemscore.Internal.Correction>
   9.000000E+99

> <Gold.Chemscore.Hbonds>
donor molecule, donor type, donor heavy atom, donor atom, acceptor molecule, acceptor atom, score
      L1  H    18    21       P1  7948  0.80

> <Gold.Chemscore.Hbond.Weighted>
-3.2401

> <Gold.Chemscore.Metal.Weighted>
-0.0000

> <Gold.Chemscore.Lipo.Weighted>
-11.6490

> <Gold.Chemscore.Internal_Hbond.Weighted>
0.0000

> <Gold.Chemscore.DEClash.Weighted>
0.1069

> <Gold.Chemscore.DEInternal.Weighted>
0.5619

> <Gold.Chemscore.Rot.Weighted>
4.9625

> <Gold.Chemscore.Internal.Correction.Weighted>
   9.000000E+99

> <Gold.Protein.RotatedTorsions>
[ 6907 6896 6895 6894 ] final  -12.49 input  -60.11 | X-H torsion
[ 7974 7965 7964 7962 ] final   28.99 input  175.53 | X-H torsion
[ 8008 7997 7996 7995 ] final -106.08 input   59.86 | X-H torsion
[ 10167 10162 10161 10158 ] final  -75.88 input  -65.29 | X-H torsion
[ 10718 10713 10712 10709 ] final  -98.37 input   66.30 | X-H torsion
[ 10763 10752 10751 10750 ] final  -77.27 input  -60.55 | X-H torsion
[ 11005 11000 10999 10996 ] final   44.66 input  -57.11 | X-H torsion

> <Gold.Protein.ActiveResidues>
 VAL166  LYS551  ARG553  GLY616  TRP617  ASP618  TYR619  PRO620  LYS621  CYS622 
 ASP623  PHE694  ASN695  SER759  ASP760  ASP761  ALA762  ILE779  LEU786  VAL792 
 PHE793  MET794  SER795  GLU796  ALA797  LYS798  CYS799  TRP800  GLU811  SER814 

> <Gold.Protein.RotatedAtoms>
  151.3697  135.0920  159.9461 H   0  0  0  0  0  0  0  0  0  0  0  0  # atno 6907 bound_to 6896
  152.5139  133.9177  159.7529 H   0  0  0  0  0  0  0  0  0  0  0  0  # atno 6908 bound_to 6896
  150.9588  133.6413  159.2787 H   0  0  0  0  0  0  0  0  0  0  0  0  # atno 6909 bound_to 6896
  146.1697  139.6982  142.8976 H   0  0  0  0  0  0  0  0  0  0  0  0  # atno 7974 bound_to 7965
  154.9092  140.0410  157.1937 H   0  0  0  0  0  0  0  0  0  0  0  0  # atno 8008 bound_to 7997
  154.8365  140.2907  155.5666 H   0  0  0  0  0  0  0  0  0  0  0  0  # atno 8009 bound_to 7997
  156.2990  140.2491  156.3300 H   0  0  0  0  0  0  0  0  0  0  0  0  # atno 8010 bound_to 7997
  140.4904  143.2381  151.7915 H   0  0  0  0  0  0  0  0  0  0  0  0  # atno 10167 bound_to 10162
  156.0106  130.5235  150.6513 H   0  0  0  0  0  0  0  0  0  0  0  0  # atno 10718 bound_to 10713
  154.5108  135.5769  153.6603 H   0  0  0  0  0  0  0  0  0  0  0  0  # atno 10763 bound_to 10752
  152.9896  135.6158  154.2882 H   0  0  0  0  0  0  0  0  0  0  0  0  # atno 10764 bound_to 10752
  154.2796  135.2851  155.2682 H   0  0  0  0  0  0  0  0  0  0  0  0  # atno 10765 bound_to 10752
  140.1531  134.4436  155.8368 H   0  0  0  0  0  0  0  0  0  0  0  0  # atno 11005 bound_to 11000
  145.4372  141.0420  143.2877 LP  0  0  0  0  0  0  0  0  0  0  0  0  # atno 17320 bound_to 7965
  144.8145  139.5902  143.7014 LP  0  0  0  0  0  0  0  0  0  0  0  0  # atno 17321 bound_to 7965
  139.4850  144.4656  151.9488 LP  0  0  0  0  0  0  0  0  0  0  0  0  # atno 17342 bound_to 10162
  140.3743  144.2816  150.5916 LP  0  0  0  0  0  0  0  0  0  0  0  0  # atno 17343 bound_to 10162
  157.4274  131.0845  151.1072 LP  0  0  0  0  0  0  0  0  0  0  0  0  # atno 17370 bound_to 10713
  157.1656  130.6244  149.5624 LP  0  0  0  0  0  0  0  0  0  0  0  0  # atno 17371 bound_to 10713
  141.2201  133.6881  156.7458 LP  0  0  0  0  0  0  0  0  0  0  0  0  # atno 17394 bound_to 11000
  140.2580  134.8488  157.3732 LP  0  0  0  0  0  0  0  0  0  0  0  0  # atno 17395 bound_to 11000

$$$$
