AV-unprocessed.smi:2482|AV-procd|sdf|9775|dock6
  -GOLD-   2272013413D 1   1.00000     0.00000
 Structure written by MMmdl.
 35 36  0  0  0  0  0  0  0  0  2 V2000
  152.1835  144.5702  160.9521 C   0  0  0  0  0  0  0  0  0  0  0  0
  152.5086  143.2150  160.3523 C   0  0  0  0  0  0  0  0  0  0  0  0
  153.3913  142.4644  161.0469 N   0  0  0  0  0  0  0  0  0  0  0  0
  153.7117  141.2481  160.5605 C   0  0  0  0  0  0  0  0  0  0  0  0
  153.1787  140.7260  159.3665 C   0  0  0  0  0  0  0  0  0  0  0  0
  152.2653  141.5159  158.6279 C   0  0  0  0  0  0  0  0  0  0  0  0
  151.6490  141.0819  157.4218 N   0  0  0  0  0  0  0  0  0  0  0  0
  151.9745  140.0448  156.6273 C   0  0  0  0  0  0  0  0  0  0  0  0
  152.8997  139.2637  156.8484 O   0  0  0  0  0  0  0  0  0  0  0  0
  151.1020  139.8642  155.3750 C   0  0  2  0  0  0  0  0  0  0  0  0
  149.9613  140.9052  155.2848 C   0  0  0  0  0  0  0  0  0  0  0  0
  149.1071  140.6428  154.1037 N   0  3  2  0  0  0  0  0  0  0  0  0
  148.0228  141.6363  153.9525 C   0  0  0  0  0  0  0  0  0  0  0  0
  148.6078  139.2496  154.1101 C   0  0  0  0  0  0  0  0  0  0  0  0
  149.7822  138.2653  154.2251 C   0  0  0  0  0  0  0  0  0  0  0  0
  150.5323  138.5557  155.3977 O   0  0  0  0  0  0  0  0  0  0  0  0
  151.9135  142.7858  159.1427 C   0  0  0  0  0  0  0  0  0  0  0  0
  150.7833  143.7975  158.3059 Cl  0  0  0  0  0  0  0  0  0  0  0  0
  152.4470  145.3657  160.2548 H   0  0  0  0  0  0  0  0  0  0  0  0
  152.7320  144.7408  161.8795 H   0  0  0  0  0  0  0  0  0  0  0  0
  151.1182  144.6425  161.1729 H   0  0  0  0  0  0  0  0  0  0  0  0
  154.4105  140.6684  161.1452 H   0  0  0  0  0  0  0  0  0  0  0  0
  153.4691  139.7352  159.0542 H   0  0  0  0  0  0  0  0  0  0  0  0
  150.9179  141.6861  157.0747 H   0  0  0  0  0  0  0  0  0  0  0  0
  151.7560  139.9558  154.5060 H   0  0  0  0  0  0  0  0  0  0  0  0
  149.3488  140.8771  156.1883 H   0  0  0  0  0  0  0  0  0  0  0  0
  150.3739  141.9122  155.2071 H   0  0  0  0  0  0  0  0  0  0  0  0
  147.3378  141.6018  154.8006 H   0  0  0  0  0  0  0  0  0  0  0  0
  147.4522  141.4474  153.0428 H   0  0  0  0  0  0  0  0  0  0  0  0
  148.4329  142.6445  153.8847 H   0  0  0  0  0  0  0  0  0  0  0  0
  147.9191  139.1090  154.9451 H   0  0  0  0  0  0  0  0  0  0  0  0
  148.0481  139.0543  153.1948 H   0  0  0  0  0  0  0  0  0  0  0  0
  149.4109  137.2424  154.2874 H   0  0  0  0  0  0  0  0  0  0  0  0
  150.4247  138.3185  153.3448 H   0  0  0  0  0  0  0  0  0  0  0  0
  149.6994  140.7346  153.2904 H   0  0  0  0  0  0  0  0  0  0  0  0
  1  2  1  0  0  0  0
  1 19  1  0  0  0  0
  1 20  1  0  0  0  0
  1 21  1  0  0  0  0
  2 17  1  0  0  0  0
  2  3  2  0  0  0  0
  3  4  1  0  0  0  0
  4  5  2  0  0  0  0
  4 22  1  0  0  0  0
  5  6  1  0  0  0  0
  5 23  1  0  0  0  0
  6  7  1  0  0  0  0
  6 17  2  0  0  0  0
  7  8  1  0  0  0  0
  7 24  1  0  0  0  0
  8  9  2  0  0  0  0
  8 10  1  0  0  0  0
 10 16  1  0  0  0  0
 10 11  1  0  0  0  0
 10 25  1  0  0  0  0
 11 12  1  0  0  0  0
 11 26  1  0  0  0  0
 11 27  1  0  0  0  0
 12 13  1  0  0  0  0
 12 14  1  0  0  0  0
 12 35  1  0  0  0  0
 13 28  1  0  0  0  0
 13 29  1  0  0  0  0
 13 30  1  0  0  0  0
 14 15  1  0  0  0  0
 14 31  1  0  0  0  0
 14 32  1  0  0  0  0
 15 16  1  0  0  0  0
 15 33  1  0  0  0  0
 15 34  1  0  0  0  0
 17 18  1  0  0  0  0
M  CHG  1  12   1
M  END
> <s_m_source_file>
AV-unprocessed.smi

> <i_m_source_file_index>
2482

> <i_lp_mmshare_version>
43012

> <i_f3d_flags>
0

> <s_epik_input>
W0NIM11jMW5bY0hdW2NIXWMoYzFDbClbTkhdQyg9TylbQ0BASF0yW0NIMl1OKFtDSDNdKVtDSDJdW0NIMl1PMg==

> <s_epik_cmdline>
J2VwaWtfcHl0aG9uJywgJy1waCcsICc3LjAnLCAnLXRuJywgJzgnLCAnLW1hJywgJzIwMCcsICctbWV0YWxfYmluZGluZycsICctaW1hZScsICc8aW5maWxlLm1hZT4nLCAnLW9tYWUnLCAnPG91dGZpbGUubWFlPic=

> <r_epik_Ionization_Penalty>
0.314226

> <r_epik_Ionization_Penalty_Charging>
0.314023

> <r_epik_Ionization_Penalty_Neutral>
0.00020299

> <r_epik_State_Penalty>
0.308208

> <r_epik_Charging_Adjusted_Penalty>
0.62223

> <i_epik_Tot_Q>
1

> <i_epik_Tot_abs_Q>
1

> <r_epik_Metal_State_Penalty>
0.314444

> <b_epik_Metal_Only>
0

> <s_lp_Force_Field>
OPLS_2005

> <r_lp_Energy>
22.3098

> <b_lp_Chiralities_Consistent>
1

> <s_lp_Variant>
AV-unprocessed.smi:2482-1

> <Gold.Version>
5.8.1

> <Gold.Id.Protein>
6NUR|6NUR_protein|mol2

> <Gold.PLP.Fitness>
40.1827

> <Gold.PLP.PLP>
-37.0704

> <Gold.PLP.part.hbond>
-1.9136

> <Gold.PLP.part.metal>
0.0000

> <Gold.PLP.part.buried>
-3.0027

> <Gold.PLP.part.nonpolar>
-31.7264

> <Gold.PLP.part.repulsive>
0.3201

> <Gold.PLP.ligand.clash>
0.7658

> <Gold.PLP.ligand.torsion>
0.0530

> <Gold.PLP.Chemscore.Hbond>
1.3276

> <Gold.PLP.Chemscore.CHOScore>
0.0000

> <Gold.PLP.Chemscore.Metal>
0.0000

> <Gold.Chemscore.Hbonds>
donor molecule, donor type, donor heavy atom, donor atom, acceptor molecule, acceptor atom, score
      L1  H    12    35       P1  7957  0.35
      P1  H  7997  8009       L1     9  1.00

> <Gold.PLP.Chemscore.Internal.Correction>
0.0014

> <Gold.Rescore>
     Score         DG    S(hbond)    S(metal)    S(lipo)     H(rot)  DE(clash)    DE(int)     intcor
     18.89     -20.84       1.62        0.00     106.98       1.00       0.67       1.28       ----

> <Gold.Chemscore.Fitness>
18.8943

> <Gold.Chemscore.DG>
-20.8387

> <Gold.Chemscore.ZeroCoef>
-5.4800

> <Gold.Chemscore.Hbond>
1.6175

> <Gold.Chemscore.Metal>
0.0000

> <Gold.Chemscore.Lipo>
106.9772

> <Gold.Chemscore.Internal_Hbond>
0.0000

> <Gold.Chemscore.DEClash>
0.6685

> <Gold.Chemscore.DEInternal>
1.2759

> <Gold.Chemscore.Rot>
1.0000

> <Gold.Chemscore.Internal.Correction>
   9.000000E+99

> <Gold.Chemscore.Hbonds>
donor molecule, donor type, donor heavy atom, donor atom, acceptor molecule, acceptor atom, score
      L1  H    12    35       P1  7957  0.34
      P1  H  7997  8009       L1     9  0.85

> <Gold.Chemscore.Hbond.Weighted>
-5.4024

> <Gold.Chemscore.Metal.Weighted>
-0.0000

> <Gold.Chemscore.Lipo.Weighted>
-12.5163

> <Gold.Chemscore.Internal_Hbond.Weighted>
0.0000

> <Gold.Chemscore.DEClash.Weighted>
0.6685

> <Gold.Chemscore.DEInternal.Weighted>
1.2759

> <Gold.Chemscore.Rot.Weighted>
2.5600

> <Gold.Chemscore.Internal.Correction.Weighted>
   9.000000E+99

> <Gold.Protein.RotatedTorsions>
[ 6907 6896 6895 6894 ] final  -85.31 input  -60.11 | X-H torsion
[ 7974 7965 7964 7962 ] final -114.06 input  175.53 | X-H torsion
[ 8008 7997 7996 7995 ] final  163.07 input   59.86 | X-H torsion
[ 10167 10162 10161 10158 ] final   43.04 input  -65.29 | X-H torsion
[ 10718 10713 10712 10709 ] final -108.17 input   66.30 | X-H torsion
[ 10763 10752 10751 10750 ] final  116.75 input  -60.55 | X-H torsion
[ 11005 11000 10999 10996 ] final -154.84 input  -57.11 | X-H torsion

> <Gold.Protein.ActiveResidues>
 VAL166  LYS551  ARG553  GLY616  TRP617  ASP618  TYR619  PRO620  LYS621  CYS622 
 ASP623  PHE694  ASN695  SER759  ASP760  ASP761  ALA762  ILE779  LEU786  VAL792 
 PHE793  MET794  SER795  GLU796  ALA797  LYS798  CYS799  TRP800  GLU811  SER814 

> <Gold.Protein.RotatedAtoms>
  150.6871  134.3224  159.4791 H   0  0  0  0  0  0  0  0  0  0  0  0  # atno 6907 bound_to 6896
  152.1098  134.9280  160.0576 H   0  0  0  0  0  0  0  0  0  0  0  0  # atno 6908 bound_to 6896
  152.0527  133.3991  159.4421 H   0  0  0  0  0  0  0  0  0  0  0  0  # atno 6909 bound_to 6896
  145.1247  140.8689  143.3793 H   0  0  0  0  0  0  0  0  0  0  0  0  # atno 7974 bound_to 7965
  156.1985  140.1733  156.7949 H   0  0  0  0  0  0  0  0  0  0  0  0  # atno 8008 bound_to 7997
  154.5560  140.0708  156.8775 H   0  0  0  0  0  0  0  0  0  0  0  0  # atno 8009 bound_to 7997
  155.2938  140.3357  155.4253 H   0  0  0  0  0  0  0  0  0  0  0  0  # atno 8010 bound_to 7997
  140.3483  144.2382  150.6148 H   0  0  0  0  0  0  0  0  0  0  0  0  # atno 10167 bound_to 10162
  156.0472  130.5699  150.7923 H   0  0  0  0  0  0  0  0  0  0  0  0  # atno 10718 bound_to 10713
  153.5419  135.3557  155.2722 H   0  0  0  0  0  0  0  0  0  0  0  0  # atno 10763 bound_to 10752
  154.8716  135.4093  154.3034 H   0  0  0  0  0  0  0  0  0  0  0  0  # atno 10764 bound_to 10752
  153.3743  135.7065  153.6682 H   0  0  0  0  0  0  0  0  0  0  0  0  # atno 10765 bound_to 10752
  140.6930  134.4021  157.5217 H   0  0  0  0  0  0  0  0  0  0  0  0  # atno 11005 bound_to 11000
  145.0701  139.3038  143.5836 LP  0  0  0  0  0  0  0  0  0  0  0  0  # atno 17320 bound_to 7965
  146.3518  140.0173  142.8661 LP  0  0  0  0  0  0  0  0  0  0  0  0  # atno 17321 bound_to 7965
  140.5243  143.2258  151.8339 LP  0  0  0  0  0  0  0  0  0  0  0  0  # atno 17342 bound_to 10162
  139.4830  144.4799  151.9320 LP  0  0  0  0  0  0  0  0  0  0  0  0  # atno 17343 bound_to 10162
  157.5360  131.0939  150.9891 LP  0  0  0  0  0  0  0  0  0  0  0  0  # atno 17370 bound_to 10713
  157.0186  130.5665  149.5329 LP  0  0  0  0  0  0  0  0  0  0  0  0  # atno 17371 bound_to 10713
  139.8918  134.8770  156.2302 LP  0  0  0  0  0  0  0  0  0  0  0  0  # atno 17394 bound_to 11000
  141.0226  133.7033  156.1294 LP  0  0  0  0  0  0  0  0  0  0  0  0  # atno 17395 bound_to 11000

$$$$
