AV-unprocessed.smi:1849|AV-procd|sdf|7520|dock9
  -GOLD-   22720 9233D 1   1.00000     0.00000
 Structure written by MMmdl.
 41 42  0  0  0  0  0  0  0  0  2 V2000
  146.9150  133.1018  151.2240 C   0  0  0  0  0  0  0  0  0  0  0  0
  145.5851  133.0123  150.6168 N   0  0  0  0  0  0  0  0  0  0  0  0
  144.9471  131.8681  150.2113 C   0  0  0  0  0  0  0  0  0  0  0  0
  143.7337  132.2535  149.7036 C   0  0  0  0  0  0  0  0  0  0  0  0
  143.6808  133.6160  149.8207 N   0  3  0  0  0  0  0  0  0  0  0  0
  144.8046  134.0797  150.3798 C   0  0  0  0  0  0  0  0  0  0  0  0
  145.1103  135.5186  150.6537 C   0  0  0  0  0  0  0  0  0  0  0  0
  144.1242  136.1570  151.6460 C   0  0  0  0  0  0  0  0  0  0  0  0
  144.5708  137.4780  152.0704 N   0  0  0  0  0  0  0  0  0  0  0  0
  145.5859  137.7048  152.9159 C   0  0  0  0  0  0  0  0  0  0  0  0
  146.2604  136.8149  153.4347 O   0  0  0  0  0  0  0  0  0  0  0  0
  145.7705  139.0146  153.1328 N   0  0  0  0  0  0  0  0  0  0  0  0
  146.7832  139.5878  154.0141 C   0  0  0  0  0  0  0  0  0  0  0  0
  146.8146  141.1248  153.8775 C   0  0  0  0  0  0  0  0  0  0  0  0
  147.9317  141.7437  154.7329 C   0  0  0  0  0  0  0  0  0  0  0  0
  149.2997  141.1323  154.3926 C   0  0  0  0  0  0  0  0  0  0  0  0
  149.2735  139.6029  154.5384 C   0  0  0  0  0  0  0  0  0  0  0  0
  148.1595  138.9805  153.6811 C   0  0  0  0  0  0  0  0  0  0  0  0
  147.3760  132.1139  151.2404 H   0  0  0  0  0  0  0  0  0  0  0  0
  146.8210  133.4734  152.2448 H   0  0  0  0  0  0  0  0  0  0  0  0
  147.5385  133.7792  150.6397 H   0  0  0  0  0  0  0  0  0  0  0  0
  145.3927  130.8888  150.3103 H   0  0  0  0  0  0  0  0  0  0  0  0
  142.9258  131.6757  149.2785 H   0  0  0  0  0  0  0  0  0  0  0  0
  146.1294  135.5606  151.0401 H   0  0  0  0  0  0  0  0  0  0  0  0
  145.1085  136.0387  149.6954 H   0  0  0  0  0  0  0  0  0  0  0  0
  143.1275  136.2301  151.2078 H   0  0  0  0  0  0  0  0  0  0  0  0
  144.0278  135.5284  152.5317 H   0  0  0  0  0  0  0  0  0  0  0  0
  144.0756  138.2735  151.6939 H   0  0  0  0  0  0  0  0  0  0  0  0
  145.1625  139.6661  152.6581 H   0  0  0  0  0  0  0  0  0  0  0  0
  146.5415  139.3308  155.0475 H   0  0  0  0  0  0  0  0  0  0  0  0
  146.9661  141.3996  152.8326 H   0  0  0  0  0  0  0  0  0  0  0  0
  145.8541  141.5497  154.1716 H   0  0  0  0  0  0  0  0  0  0  0  0
  147.9594  142.8234  154.5832 H   0  0  0  0  0  0  0  0  0  0  0  0
  147.7129  141.5836  155.7894 H   0  0  0  0  0  0  0  0  0  0  0  0
  149.5756  141.3979  153.3713 H   0  0  0  0  0  0  0  0  0  0  0  0
  150.0677  141.5551  155.0409 H   0  0  0  0  0  0  0  0  0  0  0  0
  150.2394  139.1858  154.2519 H   0  0  0  0  0  0  0  0  0  0  0  0
  149.1206  139.3384  155.5854 H   0  0  0  0  0  0  0  0  0  0  0  0
  148.1395  137.9010  153.8351 H   0  0  0  0  0  0  0  0  0  0  0  0
  148.3883  139.1380  152.6259 H   0  0  0  0  0  0  0  0  0  0  0  0
  142.9028  134.1937  149.5281 H   0  0  0  0  0  0  0  0  0  0  0  0
  1  2  1  0  0  0  0
  1 19  1  0  0  0  0
  1 20  1  0  0  0  0
  1 21  1  0  0  0  0
  2  6  1  0  0  0  0
  2  3  1  0  0  0  0
  3  4  2  0  0  0  0
  3 22  1  0  0  0  0
  4  5  1  0  0  0  0
  4 23  1  0  0  0  0
  5  6  2  0  0  0  0
  5 41  1  0  0  0  0
  6  7  1  0  0  0  0
  7  8  1  0  0  0  0
  7 24  1  0  0  0  0
  7 25  1  0  0  0  0
  8  9  1  0  0  0  0
  8 26  1  0  0  0  0
  8 27  1  0  0  0  0
  9 10  1  0  0  0  0
  9 28  1  0  0  0  0
 10 11  2  0  0  0  0
 10 12  1  0  0  0  0
 12 13  1  0  0  0  0
 12 29  1  0  0  0  0
 13 18  1  0  0  0  0
 13 14  1  0  0  0  0
 13 30  1  0  0  0  0
 14 15  1  0  0  0  0
 14 31  1  0  0  0  0
 14 32  1  0  0  0  0
 15 16  1  0  0  0  0
 15 33  1  0  0  0  0
 15 34  1  0  0  0  0
 16 17  1  0  0  0  0
 16 35  1  0  0  0  0
 16 36  1  0  0  0  0
 17 18  1  0  0  0  0
 17 37  1  0  0  0  0
 17 38  1  0  0  0  0
 18 39  1  0  0  0  0
 18 40  1  0  0  0  0
M  CHG  1   5   1
M  END
> <s_m_source_file>
AV-unprocessed.smi

> <i_m_source_file_index>
1849

> <i_lp_mmshare_version>
43012

> <i_f3d_flags>
0

> <s_epik_input>
W0NIM11uMVtjSF1bY0hdbmMxW0NIMl1bQ0gyXVtOSF1DKD1PKVtOSF1bQ0hdMltDSDJdW0NIMl1bQ0gyXVtDSDJdW0NIMl0y

> <s_epik_cmdline>
J2VwaWtfcHl0aG9uJywgJy1waCcsICc3LjAnLCAnLXRuJywgJzgnLCAnLW1hJywgJzIwMCcsICctbWV0YWxfYmluZGluZycsICctaW1hZScsICc8aW5maWxlLm1hZT4nLCAnLW9tYWUnLCAnPG91dGZpbGUubWFlPic=

> <r_lp_tautomer_probability>
1

> <r_epik_Ionization_Penalty>
0.0507041

> <r_epik_Ionization_Penalty_Charging>
0

> <r_epik_Ionization_Penalty_Neutral>
0.0507041

> <r_epik_State_Penalty>
0.0433397

> <r_epik_Charging_Adjusted_Penalty>
0.0433397

> <i_epik_Tot_Q>
1

> <i_epik_Tot_abs_Q>
1

> <r_epik_Metal_State_Penalty>
0.385258

> <b_epik_Metal_Only>
0

> <s_lp_Force_Field>
OPLS_2005

> <r_lp_Energy>
7.33452

> <b_lp_Chiralities_Consistent>
1

> <s_lp_Variant>
AV-unprocessed.smi:1849-1

> <Gold.Version>
5.8.1

> <Gold.Id.Protein>
6NUR|6NUR_protein|mol2

> <Gold.PLP.Fitness>
47.3651

> <Gold.PLP.PLP>
-36.9517

> <Gold.PLP.part.hbond>
-3.6127

> <Gold.PLP.part.metal>
0.0000

> <Gold.PLP.part.buried>
-3.1618

> <Gold.PLP.part.nonpolar>
-30.8984

> <Gold.PLP.part.repulsive>
0.1814

> <Gold.PLP.ligand.clash>
0.0000

> <Gold.PLP.ligand.torsion>
0.1736

> <Gold.PLP.Chemscore.Hbond>
3.5840

> <Gold.PLP.Chemscore.CHOScore>
0.0000

> <Gold.PLP.Chemscore.Metal>
0.0000

> <Gold.Chemscore.Hbonds>
donor molecule, donor type, donor heavy atom, donor atom, acceptor molecule, acceptor atom, score
      L1  H     5    41       P1 10186  1.86
      L1  H     9    28       P1 10171  0.48
      L1  H    12    29       P1 10175  1.00

> <Gold.PLP.Chemscore.Internal.Correction>
0.0085

> <Gold.Rescore>
     Score         DG    S(hbond)    S(metal)    S(lipo)     H(rot)  DE(clash)    DE(int)     intcor
     17.40     -19.05       2.55        0.00      81.00       1.73       0.04       1.62       ----

> <Gold.Chemscore.Fitness>
17.4012

> <Gold.Chemscore.DG>
-19.0540

> <Gold.Chemscore.ZeroCoef>
-5.4800

> <Gold.Chemscore.Hbond>
2.5501

> <Gold.Chemscore.Metal>
0.0000

> <Gold.Chemscore.Lipo>
80.9965

> <Gold.Chemscore.Internal_Hbond>
0.0000

> <Gold.Chemscore.DEClash>
0.0367

> <Gold.Chemscore.DEInternal>
1.6161

> <Gold.Chemscore.Rot>
1.7265

> <Gold.Chemscore.Internal.Correction>
   9.000000E+99

> <Gold.Chemscore.Hbonds>
donor molecule, donor type, donor heavy atom, donor atom, acceptor molecule, acceptor atom, score
      L1  H     5    41       P1 10186  0.91
      L1  H     9    28       P1 10171  0.48
      L1  H    12    29       P1 10175  0.97

> <Gold.Chemscore.Hbond.Weighted>
-8.5173

> <Gold.Chemscore.Metal.Weighted>
-0.0000

> <Gold.Chemscore.Lipo.Weighted>
-9.4766

> <Gold.Chemscore.Internal_Hbond.Weighted>
0.0000

> <Gold.Chemscore.DEClash.Weighted>
0.0367

> <Gold.Chemscore.DEInternal.Weighted>
1.6161

> <Gold.Chemscore.Rot.Weighted>
4.4199

> <Gold.Chemscore.Internal.Correction.Weighted>
   9.000000E+99

> <Gold.Protein.RotatedTorsions>
[ 6907 6896 6895 6894 ] final   14.52 input  -60.11 | X-H torsion
[ 7974 7965 7964 7962 ] final -124.96 input  175.53 | X-H torsion
[ 8008 7997 7996 7995 ] final   44.07 input   59.86 | X-H torsion
[ 10167 10162 10161 10158 ] final  -60.09 input  -65.29 | X-H torsion
[ 10718 10713 10712 10709 ] final -114.74 input   66.30 | X-H torsion
[ 10763 10752 10751 10750 ] final  131.95 input  -60.55 | X-H torsion
[ 11005 11000 10999 10996 ] final   69.92 input  -57.11 | X-H torsion

> <Gold.Protein.ActiveResidues>
 VAL166  LYS551  ARG553  GLY616  TRP617  ASP618  TYR619  PRO620  LYS621  CYS622 
 ASP623  PHE694  ASN695  SER759  ASP760  ASP761  ALA762  ILE779  LEU786  VAL792 
 PHE793  MET794  SER795  GLU796  ALA797  LYS798  CYS799  TRP800  GLU811  SER814 

> <Gold.Protein.RotatedAtoms>
  151.8035  135.0702  160.0403 H   0  0  0  0  0  0  0  0  0  0  0  0  # atno 6907 bound_to 6896
  152.3071  133.5710  159.5665 H   0  0  0  0  0  0  0  0  0  0  0  0  # atno 6908 bound_to 6896
  150.7302  134.0122  159.3715 H   0  0  0  0  0  0  0  0  0  0  0  0  # atno 6909 bound_to 6896
  145.0026  140.7834  143.4487 H   0  0  0  0  0  0  0  0  0  0  0  0  # atno 7974 bound_to 7965
  155.3132  140.3392  155.4243 H   0  0  0  0  0  0  0  0  0  0  0  0  # atno 8008 bound_to 7997
  156.1945  140.1710  156.8063 H   0  0  0  0  0  0  0  0  0  0  0  0  # atno 8009 bound_to 7997
  154.5482  140.0711  156.8608 H   0  0  0  0  0  0  0  0  0  0  0  0  # atno 8010 bound_to 7997
  140.6093  143.2382  151.5746 H   0  0  0  0  0  0  0  0  0  0  0  0  # atno 10167 bound_to 10162
  156.0849  130.6043  150.8814 H   0  0  0  0  0  0  0  0  0  0  0  0  # atno 10718 bound_to 10713
  153.7828  135.3166  155.3368 H   0  0  0  0  0  0  0  0  0  0  0  0  # atno 10763 bound_to 10752
  154.8155  135.4639  154.0635 H   0  0  0  0  0  0  0  0  0  0  0  0  # atno 10764 bound_to 10752
  153.1929  135.6911  153.8415 H   0  0  0  0  0  0  0  0  0  0  0  0  # atno 10765 bound_to 10752
  139.9627  134.7034  156.0612 H   0  0  0  0  0  0  0  0  0  0  0  0  # atno 11005 bound_to 11000
  145.2132  139.2194  143.5132 LP  0  0  0  0  0  0  0  0  0  0  0  0  # atno 17320 bound_to 7965
  146.3455  140.1974  142.8589 LP  0  0  0  0  0  0  0  0  0  0  0  0  # atno 17321 bound_to 7965
  139.5349  144.2810  152.1229 LP  0  0  0  0  0  0  0  0  0  0  0  0  # atno 17342 bound_to 10162
  140.2006  144.4662  150.6433 LP  0  0  0  0  0  0  0  0  0  0  0  0  # atno 17343 bound_to 10162
  157.5980  131.0942  150.9008 LP  0  0  0  0  0  0  0  0  0  0  0  0  # atno 17370 bound_to 10713
  156.9171  130.5301  149.5279 LP  0  0  0  0  0  0  0  0  0  0  0  0  # atno 17371 bound_to 10713
  141.1305  133.6588  156.3451 LP  0  0  0  0  0  0  0  0  0  0  0  0  # atno 17394 bound_to 11000
  140.5465  134.6069  157.5395 LP  0  0  0  0  0  0  0  0  0  0  0  0  # atno 17395 bound_to 11000

$$$$
