AV-unprocessed.smi:3031|AV-procd|sdf|11546|dock3
  -GOLD-   2272016503D 1   1.00000     0.00000
 Structure written by MMmdl.
 47 48  0  0  0  0  0  0  0  0  2 V2000
  151.7138  142.8947  159.4364 C   0  0  0  0  0  0  0  0  0  0  0  0
  151.2556  142.0574  158.2774 C   0  0  0  0  0  0  0  0  0  0  0  0
  151.2070  140.6371  158.1899 C   0  0  0  0  0  0  0  0  0  0  0  0
  150.7484  140.2086  157.0252 N   0  0  0  0  0  0  0  0  0  0  0  0
  150.4921  141.3363  156.3285 N   0  0  0  0  0  0  0  0  0  0  0  0
  149.9631  141.2515  154.9787 C   0  0  0  0  0  0  0  0  0  0  0  0
  148.5012  140.7430  154.9320 C   0  0  1  0  0  0  0  0  0  0  0  0
  147.5452  141.6200  155.7594 C   0  0  0  0  0  0  0  0  0  0  0  0
  147.9977  140.6582  153.5572 N   0  0  0  0  0  0  0  0  0  0  0  0
  146.7555  139.9046  153.3831 C   0  0  0  0  0  0  0  0  0  0  0  0
  147.0326  138.4753  152.8877 C   0  0  2  0  0  0  0  0  0  0  0  0
  147.6731  138.5804  151.6322 O   0  0  0  0  0  0  0  0  0  0  0  0
  145.7438  137.6457  152.7026 C   0  0  0  0  0  0  0  0  0  0  0  0
  146.0228  136.2439  152.2988 N   0  3  0  0  0  0  0  0  0  0  0  0
  146.1288  135.3043  153.4429 C   0  0  0  0  0  0  0  0  0  0  0  0
  146.4605  133.8873  152.9446 C   0  0  0  0  0  0  0  0  0  0  0  0
  145.4685  133.4625  152.0184 O   0  0  0  0  0  0  0  0  0  0  0  0
  145.4154  134.3040  150.8735 C   0  0  0  0  0  0  0  0  0  0  0  0
  145.0507  135.7358  151.3016 C   0  0  0  0  0  0  0  0  0  0  0  0
  150.7849  142.4664  157.0619 C   0  0  0  0  0  0  0  0  0  0  0  0
  152.3671  142.3355  160.1065 H   0  0  0  0  0  0  0  0  0  0  0  0
  150.8723  143.2513  160.0305 H   0  0  0  0  0  0  0  0  0  0  0  0
  152.2693  143.7724  159.1056 H   0  0  0  0  0  0  0  0  0  0  0  0
  151.4894  139.9085  158.9353 H   0  0  0  0  0  0  0  0  0  0  0  0
  150.0352  142.2346  154.5101 H   0  0  0  0  0  0  0  0  0  0  0  0
  150.6230  140.5899  154.4178 H   0  0  0  0  0  0  0  0  0  0  0  0
  148.4802  139.7442  155.3705 H   0  0  0  0  0  0  0  0  0  0  0  0
  147.8046  141.6111  156.8183 H   0  0  0  0  0  0  0  0  0  0  0  0
  146.5180  141.2624  155.6813 H   0  0  0  0  0  0  0  0  0  0  0  0
  147.5634  142.6563  155.4209 H   0  0  0  0  0  0  0  0  0  0  0  0
  148.7195  140.2717  152.9573 H   0  0  0  0  0  0  0  0  0  0  0  0
  146.1958  139.8570  154.3171 H   0  0  0  0  0  0  0  0  0  0  0  0
  146.1201  140.4207  152.6617 H   0  0  0  0  0  0  0  0  0  0  0  0
  147.7206  137.9883  153.5786 H   0  0  0  0  0  0  0  0  0  0  0  0
  148.2525  139.3270  151.6495 H   0  0  0  0  0  0  0  0  0  0  0  0
  145.1511  137.6377  153.6185 H   0  0  0  0  0  0  0  0  0  0  0  0
  145.1235  138.1307  151.9470 H   0  0  0  0  0  0  0  0  0  0  0  0
  146.9018  135.6305  154.1375 H   0  0  0  0  0  0  0  0  0  0  0  0
  145.1882  135.2916  153.9958 H   0  0  0  0  0  0  0  0  0  0  0  0
  147.4471  133.8578  152.4797 H   0  0  0  0  0  0  0  0  0  0  0  0
  146.4826  133.1902  153.7824 H   0  0  0  0  0  0  0  0  0  0  0  0
  146.3713  134.2851  150.3476 H   0  0  0  0  0  0  0  0  0  0  0  0
  144.6653  133.9154  150.1846 H   0  0  0  0  0  0  0  0  0  0  0  0
  144.0459  135.7551  151.7267 H   0  0  0  0  0  0  0  0  0  0  0  0
  145.0423  136.3869  150.4266 H   0  0  0  0  0  0  0  0  0  0  0  0
  150.6373  143.4582  156.6604 H   0  0  0  0  0  0  0  0  0  0  0  0
  146.9220  136.2545  151.8381 H   0  0  0  0  0  0  0  0  0  0  0  0
  1  2  1  0  0  0  0
  1 21  1  0  0  0  0
  1 22  1  0  0  0  0
  1 23  1  0  0  0  0
  2 20  2  0  0  0  0
  2  3  1  0  0  0  0
  3  4  2  0  0  0  0
  3 24  1  0  0  0  0
  4  5  1  0  0  0  0
  5  6  1  0  0  0  0
  5 20  1  0  0  0  0
  6  7  1  0  0  0  0
  6 25  1  0  0  0  0
  6 26  1  0  0  0  0
  7  8  1  0  0  0  0
  7  9  1  0  0  0  0
  7 27  1  0  0  0  0
  8 28  1  0  0  0  0
  8 29  1  0  0  0  0
  8 30  1  0  0  0  0
  9 10  1  0  0  0  0
  9 31  1  0  0  0  0
 10 11  1  0  0  0  0
 10 32  1  0  0  0  0
 10 33  1  0  0  0  0
 11 12  1  0  0  0  0
 11 13  1  0  0  0  0
 11 34  1  0  0  0  0
 12 35  1  0  0  0  0
 13 14  1  0  0  0  0
 13 36  1  0  0  0  0
 13 37  1  0  0  0  0
 14 19  1  0  0  0  0
 14 15  1  0  0  0  0
 14 47  1  0  0  0  0
 15 16  1  0  0  0  0
 15 38  1  0  0  0  0
 15 39  1  0  0  0  0
 16 17  1  0  0  0  0
 16 40  1  0  0  0  0
 16 41  1  0  0  0  0
 17 18  1  0  0  0  0
 18 19  1  0  0  0  0
 18 42  1  0  0  0  0
 18 43  1  0  0  0  0
 19 44  1  0  0  0  0
 19 45  1  0  0  0  0
 20 46  1  0  0  0  0
M  CHG  1  14   1
M  END
> <s_m_source_file>
AV-unprocessed.smi

> <i_m_source_file_index>
3031

> <i_lp_mmshare_version>
43012

> <i_f3d_flags>
0

> <s_epik_input>
W0NIM11jMVtjSF1ubihbY0hdMSlbQ0gyXVtDQEhdKFtDSDNdKVtOSF1bQ0gyXVtDQEhdKFtPSF0pW0NIMl1OMltDSDJdW0NIMl1PW0NIMl1bQ0gyXTI=

> <s_epik_cmdline>
J2VwaWtfcHl0aG9uJywgJy1waCcsICc3LjAnLCAnLXRuJywgJzgnLCAnLW1hJywgJzIwMCcsICctbWV0YWxfYmluZGluZycsICctaW1hZScsICc8aW5maWxlLm1hZT4nLCAnLW9tYWUnLCAnPG91dGZpbGUubWFlPic=

> <r_epik_Ionization_Penalty>
0.467051

> <r_epik_Ionization_Penalty_Charging>
0.202493

> <r_epik_Ionization_Penalty_Neutral>
0.264558

> <r_epik_State_Penalty>
1.34287

> <r_epik_Charging_Adjusted_Penalty>
1.54537

> <i_epik_Tot_Q>
1

> <i_epik_Tot_abs_Q>
1

> <r_epik_Metal_State_Penalty>
1.34281

> <b_epik_Metal_Only>
0

> <s_lp_Force_Field>
OPLS_2005

> <r_lp_Energy>
23.2864

> <b_lp_Chiralities_Consistent>
1

> <s_lp_Variant>
AV-unprocessed.smi:3031-6

> <Gold.Version>
5.8.1

> <Gold.Id.Protein>
6NUR|6NUR_protein|mol2

> <Gold.PLP.Fitness>
49.2221

> <Gold.PLP.PLP>
-33.2384

> <Gold.PLP.part.hbond>
-4.5319

> <Gold.PLP.part.metal>
0.0000

> <Gold.PLP.part.buried>
-1.1136

> <Gold.PLP.part.nonpolar>
-27.7898

> <Gold.PLP.part.repulsive>
0.1209

> <Gold.PLP.ligand.clash>
0.0000

> <Gold.PLP.ligand.torsion>
0.9247

> <Gold.PLP.Chemscore.Hbond>
4.8576

> <Gold.PLP.Chemscore.CHOScore>
1.0000

> <Gold.PLP.Chemscore.Metal>
0.0000

> <Gold.Chemscore.Hbonds>
donor molecule, donor type, donor heavy atom, donor atom, acceptor molecule, acceptor atom, score
      L1  H     9    31       P1  7957  1.00
      L1  H    12    35       P1  7957  0.96
      L1  H    14    47       P1  7948  2.00
      P1  H  7954  7966       L1    12  0.86
      L1  C    20    46       P1  8028  1.00

> <Gold.PLP.Chemscore.Internal.Correction>
0.2602

> <Gold.Rescore>
     Score         DG    S(hbond)    S(metal)    S(lipo)     H(rot)  DE(clash)    DE(int)     intcor
     16.78     -18.77       3.02        0.00      85.53       2.65       1.06       0.92       ----

> <Gold.Chemscore.Fitness>
16.7841

> <Gold.Chemscore.DG>
-18.7681

> <Gold.Chemscore.ZeroCoef>
-5.4800

> <Gold.Chemscore.Hbond>
3.0152

> <Gold.Chemscore.Metal>
0.0000

> <Gold.Chemscore.Lipo>
85.5275

> <Gold.Chemscore.Internal_Hbond>
0.0000

> <Gold.Chemscore.DEClash>
1.0593

> <Gold.Chemscore.DEInternal>
0.9248

> <Gold.Chemscore.Rot>
2.6521

> <Gold.Chemscore.Internal.Correction>
   9.000000E+99

> <Gold.Chemscore.Hbonds>
donor molecule, donor type, donor heavy atom, donor atom, acceptor molecule, acceptor atom, score
      L1  H     9    31       P1  7957  0.91
      L1  H    12    35       P1  7957  0.88
      L1  H    14    47       P1  7948  0.94
      P1  H  7954  7966       L1    12  0.16

> <Gold.Chemscore.Hbond.Weighted>
-10.0708

> <Gold.Chemscore.Metal.Weighted>
-0.0000

> <Gold.Chemscore.Lipo.Weighted>
-10.0067

> <Gold.Chemscore.Internal_Hbond.Weighted>
0.0000

> <Gold.Chemscore.DEClash.Weighted>
1.0593

> <Gold.Chemscore.DEInternal.Weighted>
0.9248

> <Gold.Chemscore.Rot.Weighted>
6.7894

> <Gold.Chemscore.Internal.Correction.Weighted>
   9.000000E+99

> <Gold.Protein.RotatedTorsions>
[ 6907 6896 6895 6894 ] final -158.37 input  -60.11 | X-H torsion
[ 7974 7965 7964 7962 ] final  135.69 input  175.53 | X-H torsion
[ 8008 7997 7996 7995 ] final  143.53 input   59.86 | X-H torsion
[ 10167 10162 10161 10158 ] final  -12.51 input  -65.29 | X-H torsion
[ 10718 10713 10712 10709 ] final  130.70 input   66.30 | X-H torsion
[ 10763 10752 10751 10750 ] final  108.98 input  -60.55 | X-H torsion
[ 11005 11000 10999 10996 ] final -122.47 input  -57.11 | X-H torsion

> <Gold.Protein.ActiveResidues>
 VAL166  LYS551  ARG553  GLY616  TRP617  ASP618  TYR619  PRO620  LYS621  CYS622 
 ASP623  PHE694  ASN695  SER759  ASP760  ASP761  ALA762  ILE779  LEU786  VAL792 
 PHE793  MET794  SER795  GLU796  ALA797  LYS798  CYS799  TRP800  GLU811  SER814 

> <Gold.Protein.RotatedAtoms>
  151.3171  133.4055  159.2651 H   0  0  0  0  0  0  0  0  0  0  0  0  # atno 6907 bound_to 6896
  151.0065  134.9364  159.7993 H   0  0  0  0  0  0  0  0  0  0  0  0  # atno 6908 bound_to 6896
  152.5289  134.3136  159.9175 H   0  0  0  0  0  0  0  0  0  0  0  0  # atno 6909 bound_to 6896
  144.9639  139.4680  143.5466 H   0  0  0  0  0  0  0  0  0  0  0  0  # atno 7974 bound_to 7965
  156.2928  140.2260  156.4906 H   0  0  0  0  0  0  0  0  0  0  0  0  # atno 8008 bound_to 7997
  154.7774  140.0462  157.1121 H   0  0  0  0  0  0  0  0  0  0  0  0  # atno 8009 bound_to 7997
  154.9800  140.3077  155.4954 H   0  0  0  0  0  0  0  0  0  0  0  0  # atno 8010 bound_to 7997
  140.7163  143.5525  150.9285 H   0  0  0  0  0  0  0  0  0  0  0  0  # atno 10167 bound_to 10162
  157.5037  131.1095  150.9391 H   0  0  0  0  0  0  0  0  0  0  0  0  # atno 10718 bound_to 10713
  153.4283  135.3794  155.2155 H   0  0  0  0  0  0  0  0  0  0  0  0  # atno 10763 bound_to 10752
  154.8748  135.3834  154.4299 H   0  0  0  0  0  0  0  0  0  0  0  0  # atno 10764 bound_to 10752
  153.4828  135.7088  153.5991 H   0  0  0  0  0  0  0  0  0  0  0  0  # atno 10765 bound_to 10752
  140.9993  134.0426  157.3558 H   0  0  0  0  0  0  0  0  0  0  0  0  # atno 11005 bound_to 11000
  146.3361  139.8806  142.8825 LP  0  0  0  0  0  0  0  0  0  0  0  0  # atno 17320 bound_to 7965
  145.2659  141.0093  143.3799 LP  0  0  0  0  0  0  0  0  0  0  0  0  # atno 17321 bound_to 7965
  139.9249  143.6561  152.3089 LP  0  0  0  0  0  0  0  0  0  0  0  0  # atno 17342 bound_to 10162
  139.6992  144.7637  151.1304 LP  0  0  0  0  0  0  0  0  0  0  0  0  # atno 17343 bound_to 10162
  157.0053  130.5616  149.5315 LP  0  0  0  0  0  0  0  0  0  0  0  0  # atno 17370 bound_to 10713
  156.0245  130.5339  150.8368 LP  0  0  0  0  0  0  0  0  0  0  0  0  # atno 17371 bound_to 10713
  139.9030  135.0171  156.7359 LP  0  0  0  0  0  0  0  0  0  0  0  0  # atno 17394 bound_to 11000
  140.6915  133.9385  155.7969 LP  0  0  0  0  0  0  0  0  0  0  0  0  # atno 17395 bound_to 11000

$$$$
