AV-unprocessed.smi:2457|AV-procd|sdf|9707|dock4
  -GOLD-   2272013343D 1   1.00000     0.00000
 Structure written by MMmdl.
 40 41  0  0  0  0  0  0  0  0  1 V2000
  147.6937  141.5235  153.7287 C   0  0  0  0  0  0  0  0  0  0  0  0
  148.8140  140.8397  154.4465 C   0  0  0  0  0  0  0  0  0  0  0  0
  149.8109  141.4337  155.1791 C   0  0  0  0  0  0  0  0  0  0  0  0
  150.9220  140.2622  155.8319 S   0  0  0  0  0  0  0  0  0  0  0  0
  149.9779  138.9853  155.0708 C   0  0  0  0  0  0  0  0  0  0  0  0
  150.3632  137.5371  155.1240 C   0  0  1  0  0  0  0  0  0  0  0  0
  151.6068  137.3029  155.9935 C   0  0  0  0  0  0  0  0  0  0  0  0
  149.1873  136.6047  155.4925 C   0  0  0  0  0  0  0  0  0  0  0  0
  148.6227  135.9403  154.3186 N   0  0  0  0  0  0  0  0  0  0  0  0
  147.6149  135.0559  154.3389 C   0  0  0  0  0  0  0  0  0  0  0  0
  147.1016  134.6137  155.3668 O   0  0  0  0  0  0  0  0  0  0  0  0
  147.2016  134.7462  153.1026 N   0  0  0  0  0  0  0  0  0  0  0  0
  146.0462  133.9093  152.7937 C   0  0  1  0  0  0  0  0  0  0  0  0
  144.9957  134.7254  152.0102 C   0  0  0  0  0  0  0  0  0  0  0  0
  143.7256  133.9143  151.7081 C   0  0  0  0  0  0  0  0  0  0  0  0
  144.0131  132.6746  150.8489 C   0  0  0  0  0  0  0  0  0  0  0  0
  145.1327  131.5293  151.6994 S   0  0  0  0  0  0  0  0  0  0  0  0
  146.5085  132.6712  152.0067 C   0  0  0  0  0  0  0  0  0  0  0  0
  148.9180  139.4471  154.4000 N   0  0  0  0  0  0  0  0  0  0  0  0
  147.6398  142.5807  153.9894 H   0  0  0  0  0  0  0  0  0  0  0  0
  146.7324  141.0732  153.9773 H   0  0  0  0  0  0  0  0  0  0  0  0
  147.8223  141.4558  152.6482 H   0  0  0  0  0  0  0  0  0  0  0  0
  149.9613  142.4859  155.3703 H   0  0  0  0  0  0  0  0  0  0  0  0
  150.6553  137.2697  154.1074 H   0  0  0  0  0  0  0  0  0  0  0  0
  152.4477  137.9037  155.6455 H   0  0  0  0  0  0  0  0  0  0  0  0
  151.9135  136.2572  155.9666 H   0  0  0  0  0  0  0  0  0  0  0  0
  151.4173  137.5660  157.0347 H   0  0  0  0  0  0  0  0  0  0  0  0
  149.5279  135.8359  156.1865 H   0  0  0  0  0  0  0  0  0  0  0  0
  148.4162  137.1681  156.0208 H   0  0  0  0  0  0  0  0  0  0  0  0
  148.9747  136.2348  153.4196 H   0  0  0  0  0  0  0  0  0  0  0  0
  147.6859  135.1610  152.3201 H   0  0  0  0  0  0  0  0  0  0  0  0
  145.6026  133.5672  153.7308 H   0  0  0  0  0  0  0  0  0  0  0  0
  144.7159  135.6123  152.5805 H   0  0  0  0  0  0  0  0  0  0  0  0
  145.4276  135.0901  151.0772 H   0  0  0  0  0  0  0  0  0  0  0  0
  143.2491  133.6134  152.6421 H   0  0  0  0  0  0  0  0  0  0  0  0
  143.0080  134.5513  151.1901 H   0  0  0  0  0  0  0  0  0  0  0  0
  143.0852  132.1498  150.6205 H   0  0  0  0  0  0  0  0  0  0  0  0
  144.4581  132.9663  149.8970 H   0  0  0  0  0  0  0  0  0  0  0  0
  146.9443  132.9638  151.0507 H   0  0  0  0  0  0  0  0  0  0  0  0
  147.2799  132.1341  152.5596 H   0  0  0  0  0  0  0  0  0  0  0  0
  1  2  1  0  0  0  0
  1 20  1  0  0  0  0
  1 21  1  0  0  0  0
  1 22  1  0  0  0  0
  2 19  1  0  0  0  0
  2  3  2  0  0  0  0
  3  4  1  0  0  0  0
  3 23  1  0  0  0  0
  4  5  1  0  0  0  0
  5  6  1  0  0  0  0
  5 19  2  0  0  0  0
  6  7  1  0  0  0  0
  6  8  1  0  0  0  0
  6 24  1  0  0  0  0
  7 25  1  0  0  0  0
  7 26  1  0  0  0  0
  7 27  1  0  0  0  0
  8  9  1  0  0  0  0
  8 28  1  0  0  0  0
  8 29  1  0  0  0  0
  9 10  1  0  0  0  0
  9 30  1  0  0  0  0
 10 11  2  0  0  0  0
 10 12  1  0  0  0  0
 12 13  1  0  0  0  0
 12 31  1  0  0  0  0
 13 18  1  0  0  0  0
 13 14  1  0  0  0  0
 13 32  1  0  0  0  0
 14 15  1  0  0  0  0
 14 33  1  0  0  0  0
 14 34  1  0  0  0  0
 15 16  1  0  0  0  0
 15 35  1  0  0  0  0
 15 36  1  0  0  0  0
 16 17  1  0  0  0  0
 16 37  1  0  0  0  0
 16 38  1  0  0  0  0
 17 18  1  0  0  0  0
 18 39  1  0  0  0  0
 18 40  1  0  0  0  0
M  END
> <s_m_source_file>
AV-unprocessed.smi

> <i_m_source_file_index>
2457

> <i_lp_mmshare_version>
43012

> <i_f3d_flags>
0

> <s_epik_input>
W0NIM11jMVtjSF1zYyhuMSlbQ0BIXShbQ0gzXSlbQ0gyXVtOSF1DKD1PKVtOSF1bQ0BASF0yW0NIMl1bQ0gyXVtDSDJdU1tDSDJdMg==

> <s_epik_cmdline>
J2VwaWtfcHl0aG9uJywgJy1waCcsICc3LjAnLCAnLXRuJywgJzgnLCAnLW1hJywgJzIwMCcsICctbWV0YWxfYmluZGluZycsICctaW1hZScsICc8aW5maWxlLm1hZT4nLCAnLW9tYWUnLCAnPG91dGZpbGUubWFlPic=

> <r_epik_Ionization_Penalty>
0.00154805

> <r_epik_Ionization_Penalty_Charging>
0

> <r_epik_Ionization_Penalty_Neutral>
0.00154805

> <r_epik_State_Penalty>
0.00100357

> <r_epik_Charging_Adjusted_Penalty>
0.00100357

> <i_epik_Tot_Q>
0

> <i_epik_Tot_abs_Q>
0

> <r_epik_Metal_State_Penalty>
-0

> <b_epik_Metal_Only>
0

> <s_lp_Force_Field>
OPLS_2005

> <r_lp_Energy>
-7.34104

> <b_lp_Chiralities_Consistent>
1

> <s_lp_Variant>
AV-unprocessed.smi:2457-4

> <Gold.Version>
5.8.1

> <Gold.Id.Protein>
6NUR|6NUR_protein|mol2

> <Gold.PLP.Fitness>
38.1360

> <Gold.PLP.PLP>
-30.7855

> <Gold.PLP.part.hbond>
-1.8494

> <Gold.PLP.part.metal>
0.0000

> <Gold.PLP.part.buried>
-4.3005

> <Gold.PLP.part.nonpolar>
-25.3088

> <Gold.PLP.part.repulsive>
0.1696

> <Gold.PLP.ligand.clash>
0.0000

> <Gold.PLP.ligand.torsion>
0.7785

> <Gold.PLP.Chemscore.Hbond>
1.9280

> <Gold.PLP.Chemscore.CHOScore>
1.0000

> <Gold.PLP.Chemscore.Metal>
0.0000

> <Gold.Chemscore.Hbonds>
donor molecule, donor type, donor heavy atom, donor atom, acceptor molecule, acceptor atom, score
      L1  H     9    30       P1  7948  1.00
      L1  H    12    31       P1  7948  0.93
      L1  C     3    23       P1  8028  1.00

> <Gold.PLP.Chemscore.Internal.Correction>
0.1235

> <Gold.Rescore>
     Score         DG    S(hbond)    S(metal)    S(lipo)     H(rot)  DE(clash)    DE(int)     intcor
     16.76     -17.59       1.89        0.00      81.60       1.46       0.14       0.69       ----

> <Gold.Chemscore.Fitness>
16.7560

> <Gold.Chemscore.DG>
-17.5895

> <Gold.Chemscore.ZeroCoef>
-5.4800

> <Gold.Chemscore.Hbond>
1.8873

> <Gold.Chemscore.Metal>
0.0000

> <Gold.Chemscore.Lipo>
81.6025

> <Gold.Chemscore.Internal_Hbond>
0.0000

> <Gold.Chemscore.DEClash>
0.1412

> <Gold.Chemscore.DEInternal>
0.6923

> <Gold.Chemscore.Rot>
1.4616

> <Gold.Chemscore.Internal.Correction>
   9.000000E+99

> <Gold.Chemscore.Hbonds>
donor molecule, donor type, donor heavy atom, donor atom, acceptor molecule, acceptor atom, score
      L1  H     9    30       P1  7948  0.91
      L1  H    12    31       P1  7948  0.88

> <Gold.Chemscore.Hbond.Weighted>
-6.3036

> <Gold.Chemscore.Metal.Weighted>
-0.0000

> <Gold.Chemscore.Lipo.Weighted>
-9.5475

> <Gold.Chemscore.Internal_Hbond.Weighted>
0.0000

> <Gold.Chemscore.DEClash.Weighted>
0.1412

> <Gold.Chemscore.DEInternal.Weighted>
0.6923

> <Gold.Chemscore.Rot.Weighted>
3.7416

> <Gold.Chemscore.Internal.Correction.Weighted>
   9.000000E+99

> <Gold.Protein.RotatedTorsions>
[ 6907 6896 6895 6894 ] final  114.56 input  -60.11 | X-H torsion
[ 7974 7965 7964 7962 ] final  -25.01 input  175.53 | X-H torsion
[ 8008 7997 7996 7995 ] final  169.06 input   59.86 | X-H torsion
[ 10167 10162 10161 10158 ] final -127.16 input  -65.29 | X-H torsion
[ 10718 10713 10712 10709 ] final -172.36 input   66.30 | X-H torsion
[ 10763 10752 10751 10750 ] final  168.06 input  -60.55 | X-H torsion
[ 11005 11000 10999 10996 ] final   75.09 input  -57.11 | X-H torsion

> <Gold.Protein.ActiveResidues>
 VAL166  LYS551  ARG553  GLY616  TRP617  ASP618  TYR619  PRO620  LYS621  CYS622 
 ASP623  PHE694  ASN695  SER759  ASP760  ASP761  ALA762  ILE779  LEU786  VAL792 
 PHE793  MET794  SER795  GLU796  ALA797  LYS798  CYS799  TRP800  GLU811  SER814 

> <Gold.Protein.RotatedAtoms>
  152.4795  133.8220  159.7058 H   0  0  0  0  0  0  0  0  0  0  0  0  # atno 6907 bound_to 6896
  150.8835  133.7330  159.2931 H   0  0  0  0  0  0  0  0  0  0  0  0  # atno 6908 bound_to 6896
  151.4826  135.1056  159.9834 H   0  0  0  0  0  0  0  0  0  0  0  0  # atno 6909 bound_to 6896
  146.1518  140.4829  142.8608 H   0  0  0  0  0  0  0  0  0  0  0  0  # atno 7974 bound_to 7965
  156.1491  140.1574  156.8798 H   0  0  0  0  0  0  0  0  0  0  0  0  # atno 8008 bound_to 7997
  154.5055  140.0814  156.7922 H   0  0  0  0  0  0  0  0  0  0  0  0  # atno 8009 bound_to 7997
  155.3931  140.3411  155.4255 H   0  0  0  0  0  0  0  0  0  0  0  0  # atno 8010 bound_to 7997
  139.9638  143.5921  152.2436 H   0  0  0  0  0  0  0  0  0  0  0  0  # atno 10167 bound_to 10162
  156.7545  130.9390  151.3116 H   0  0  0  0  0  0  0  0  0  0  0  0  # atno 10718 bound_to 10713
  154.3629  135.2753  155.2309 H   0  0  0  0  0  0  0  0  0  0  0  0  # atno 10763 bound_to 10752
  154.4490  135.5935  153.6182 H   0  0  0  0  0  0  0  0  0  0  0  0  # atno 10764 bound_to 10752
  152.9842  135.6037  154.3852 H   0  0  0  0  0  0  0  0  0  0  0  0  # atno 10765 bound_to 10752
  139.9360  134.7488  156.1228 H   0  0  0  0  0  0  0  0  0  0  0  0  # atno 11005 bound_to 11000
  144.7914  140.6038  143.6539 LP  0  0  0  0  0  0  0  0  0  0  0  0  # atno 17320 bound_to 7965
  145.4804  139.1496  143.3765 LP  0  0  0  0  0  0  0  0  0  0  0  0  # atno 17321 bound_to 7965
  139.6533  144.7661  151.2104 LP  0  0  0  0  0  0  0  0  0  0  0  0  # atno 17342 bound_to 10162
  140.7544  143.6125  150.8591 LP  0  0  0  0  0  0  0  0  0  0  0  0  # atno 17343 bound_to 10162
  157.6762  130.9097  150.0157 LP  0  0  0  0  0  0  0  0  0  0  0  0  # atno 17370 bound_to 10713
  156.1379  130.3642  149.9627 LP  0  0  0  0  0  0  0  0  0  0  0  0  # atno 17371 bound_to 10713
  141.0974  133.6690  156.2675 LP  0  0  0  0  0  0  0  0  0  0  0  0  # atno 17394 bound_to 11000
  140.6075  134.5492  157.5528 LP  0  0  0  0  0  0  0  0  0  0  0  0  # atno 17395 bound_to 11000

$$$$
