AV-unprocessed.smi:1007|AV-procd|sdf|4402|dock8
  -GOLD-   22720 2343D 1   1.00000     0.00000
 Structure written by MMmdl.
 57 59  0  0  0  0  0  0  0  0  3 V2000
  151.7855  141.1275  158.1066 C   0  0  0  0  0  0  0  0  0  0  0  0
  151.2688  141.6292  156.8838 O   0  0  0  0  0  0  0  0  0  0  0  0
  149.8563  141.5356  156.7675 C   0  0  0  0  0  0  0  0  0  0  0  0
  149.3992  140.0754  156.5894 C   0  0  0  0  0  0  0  0  0  0  0  0
  149.9716  139.3883  155.4277 N   0  0  0  0  0  0  0  0  0  0  0  0
  149.5058  138.0071  155.3039 C   0  0  0  0  0  0  0  0  0  0  0  0
  148.0361  137.8985  154.8479 C   0  0  0  0  0  0  0  0  0  0  0  0
  147.8499  138.6086  153.5572 N   0  3  0  0  0  0  0  0  0  0  0  0
  146.4886  138.4354  152.9927 C   0  0  0  0  0  0  0  0  0  0  0  0
  146.3388  137.1700  152.1155 C   0  0  2  0  0  0  0  0  0  0  0  0
  146.4039  137.5799  150.7664 O   0  0  0  0  0  0  0  0  0  0  0  0
  145.0110  136.3986  152.2926 C   0  0  0  0  0  0  0  0  0  0  0  0
  144.9212  135.1938  151.4535 N   0  0  0  0  0  0  0  0  0  0  0  0
  144.4572  135.0639  150.1804 C   0  0  0  0  0  0  0  0  0  0  0  0
  144.5897  133.7563  149.8257 N   0  3  0  0  0  0  0  0  0  0  0  0
  145.1369  133.0373  150.8900 C   0  0  0  0  0  0  0  0  0  0  0  0
  145.4675  131.6926  151.0029 C   0  0  0  0  0  0  0  0  0  0  0  0
  146.0231  131.2658  152.2298 C   0  0  0  0  0  0  0  0  0  0  0  0
  146.4089  129.8044  152.3815 C   0  0  0  0  0  0  0  0  0  0  0  0
  146.2200  132.1783  153.2983 C   0  0  0  0  0  0  0  0  0  0  0  0
  146.8200  131.7094  154.6128 C   0  0  0  0  0  0  0  0  0  0  0  0
  145.8710  133.5413  153.1660 C   0  0  0  0  0  0  0  0  0  0  0  0
  145.3364  133.9491  151.9455 C   0  0  0  0  0  0  0  0  0  0  0  0
  148.2933  140.0225  153.6675 C   0  0  0  0  0  0  0  0  0  0  0  0
  149.7569  140.0739  154.1505 C   0  0  0  0  0  0  0  0  0  0  0  0
  152.8625  141.2918  158.1389 H   0  0  0  0  0  0  0  0  0  0  0  0
  151.6127  140.0566  158.2106 H   0  0  0  0  0  0  0  0  0  0  0  0
  151.3449  141.6390  158.9630 H   0  0  0  0  0  0  0  0  0  0  0  0
  149.3772  142.0112  157.6240 H   0  0  0  0  0  0  0  0  0  0  0  0
  149.5652  142.1108  155.8881 H   0  0  0  0  0  0  0  0  0  0  0  0
  149.6922  139.5325  157.4890 H   0  0  0  0  0  0  0  0  0  0  0  0
  148.3118  140.0312  156.5579 H   0  0  0  0  0  0  0  0  0  0  0  0
  150.1376  137.4843  154.5849 H   0  0  0  0  0  0  0  0  0  0  0  0
  149.6406  137.4828  156.2507 H   0  0  0  0  0  0  0  0  0  0  0  0
  147.7777  136.8460  154.7282 H   0  0  0  0  0  0  0  0  0  0  0  0
  147.3582  138.3045  155.5999 H   0  0  0  0  0  0  0  0  0  0  0  0
  145.7647  138.3759  153.8071 H   0  0  0  0  0  0  0  0  0  0  0  0
  146.2328  139.3302  152.4226 H   0  0  0  0  0  0  0  0  0  0  0  0
  147.1774  136.4917  152.2694 H   0  0  0  0  0  0  0  0  0  0  0  0
  145.5437  137.5050  150.3810 H   0  0  0  0  0  0  0  0  0  0  0  0
  144.8366  136.1407  153.3368 H   0  0  0  0  0  0  0  0  0  0  0  0
  144.1757  137.0363  151.9992 H   0  0  0  0  0  0  0  0  0  0  0  0
  144.0618  135.8561  149.5606 H   0  0  0  0  0  0  0  0  0  0  0  0
  145.3123  131.0027  150.1858 H   0  0  0  0  0  0  0  0  0  0  0  0
  145.8241  129.3348  153.1727 H   0  0  0  0  0  0  0  0  0  0  0  0
  147.4665  129.7100  152.6283 H   0  0  0  0  0  0  0  0  0  0  0  0
  146.2320  129.2470  151.4611 H   0  0  0  0  0  0  0  0  0  0  0  0
  146.8705  132.5196  155.3407 H   0  0  0  0  0  0  0  0  0  0  0  0
  147.8326  131.3362  154.4586 H   0  0  0  0  0  0  0  0  0  0  0  0
  146.2180  130.9104  155.0466 H   0  0  0  0  0  0  0  0  0  0  0  0
  146.0291  134.2313  153.9815 H   0  0  0  0  0  0  0  0  0  0  0  0
  148.2293  140.5155  152.6986 H   0  0  0  0  0  0  0  0  0  0  0  0
  147.6363  140.5719  154.3427 H   0  0  0  0  0  0  0  0  0  0  0  0
  150.0946  141.1079  154.2095 H   0  0  0  0  0  0  0  0  0  0  0  0
  150.3883  139.6082  153.3926 H   0  0  0  0  0  0  0  0  0  0  0  0
  148.4783  138.1605  152.9057 H   0  0  0  0  0  0  0  0  0  0  0  0
  144.3212  133.3835  148.9235 H   0  0  0  0  0  0  0  0  0  0  0  0
  1  2  1  0  0  0  0
  1 26  1  0  0  0  0
  1 27  1  0  0  0  0
  1 28  1  0  0  0  0
  2  3  1  0  0  0  0
  3  4  1  0  0  0  0
  3 29  1  0  0  0  0
  3 30  1  0  0  0  0
  4  5  1  0  0  0  0
  4 31  1  0  0  0  0
  4 32  1  0  0  0  0
  5 25  1  0  0  0  0
  5  6  1  0  0  0  0
  6  7  1  0  0  0  0
  6 33  1  0  0  0  0
  6 34  1  0  0  0  0
  7  8  1  0  0  0  0
  7 35  1  0  0  0  0
  7 36  1  0  0  0  0
  8  9  1  0  0  0  0
  8 24  1  0  0  0  0
  8 56  1  0  0  0  0
  9 10  1  0  0  0  0
  9 37  1  0  0  0  0
  9 38  1  0  0  0  0
 10 11  1  0  0  0  0
 10 12  1  0  0  0  0
 10 39  1  0  0  0  0
 11 40  1  0  0  0  0
 12 13  1  0  0  0  0
 12 41  1  0  0  0  0
 12 42  1  0  0  0  0
 13 23  1  0  0  0  0
 13 14  1  0  0  0  0
 14 15  2  0  0  0  0
 14 43  1  0  0  0  0
 15 16  1  0  0  0  0
 15 57  1  0  0  0  0
 16 23  2  0  0  0  0
 16 17  1  0  0  0  0
 17 18  2  0  0  0  0
 17 44  1  0  0  0  0
 18 19  1  0  0  0  0
 18 20  1  0  0  0  0
 19 45  1  0  0  0  0
 19 46  1  0  0  0  0
 19 47  1  0  0  0  0
 20 21  1  0  0  0  0
 20 22  2  0  0  0  0
 21 48  1  0  0  0  0
 21 49  1  0  0  0  0
 21 50  1  0  0  0  0
 22 23  1  0  0  0  0
 22 51  1  0  0  0  0
 24 25  1  0  0  0  0
 24 52  1  0  0  0  0
 24 53  1  0  0  0  0
 25 54  1  0  0  0  0
 25 55  1  0  0  0  0
M  CHG  1   8   1
M  CHG  1  15   1
M  END
> <s_m_source_file>
AV-unprocessed.smi

> <i_m_source_file_index>
1007

> <i_lp_mmshare_version>
43012

> <i_f3d_flags>
0

> <s_epik_input>
W0NIM11PW0NIMl1bQ0gyXU4xW0NIMl1bQ0gyXU4oW0NIMl1bQ0gyXTEpW0NIMl1bQ0BIXShbT0hdKVtDSDJdbihbY0hdbjIpYyhjMjMpW2NIXWMoW0NIM10pYyhbY0hdMylbQ0gzXQ==

> <s_epik_cmdline>
J2VwaWtfcHl0aG9uJywgJy1waCcsICc3LjAnLCAnLXRuJywgJzgnLCAnLW1hJywgJzIwMCcsICctbWV0YWxfYmluZGluZycsICctaW1hZScsICc8aW5maWxlLm1hZT4nLCAnLW9tYWUnLCAnPG91dGZpbGUubWFlPic=

> <r_epik_Ionization_Penalty>
1.19231

> <r_epik_Ionization_Penalty_Charging>
1.17974

> <r_epik_Ionization_Penalty_Neutral>
0.0125676

> <r_epik_State_Penalty>
1.24499

> <r_epik_Charging_Adjusted_Penalty>
2.42472

> <i_epik_Tot_Q>
2

> <i_epik_Tot_abs_Q>
2

> <r_epik_Metal_State_Penalty>
5.24866

> <b_epik_Metal_Only>
0

> <s_lp_Force_Field>
OPLS_2005

> <r_lp_Energy>
43.594

> <b_lp_Chiralities_Consistent>
1

> <s_lp_Variant>
AV-unprocessed.smi:1007-5

> <Gold.Version>
5.8.1

> <Gold.Id.Protein>
6NUR|6NUR_protein|mol2

> <Gold.PLP.Fitness>
51.2665

> <Gold.PLP.PLP>
-38.7858

> <Gold.PLP.part.hbond>
-4.9500

> <Gold.PLP.part.metal>
0.0000

> <Gold.PLP.part.buried>
-1.8052

> <Gold.PLP.part.nonpolar>
-32.4606

> <Gold.PLP.part.repulsive>
0.1505

> <Gold.PLP.ligand.clash>
0.0000

> <Gold.PLP.ligand.torsion>
1.3776

> <Gold.PLP.Chemscore.Hbond>
4.0000

> <Gold.PLP.Chemscore.CHOScore>
1.0000

> <Gold.PLP.Chemscore.Metal>
0.0000

> <Gold.Chemscore.Hbonds>
donor molecule, donor type, donor heavy atom, donor atom, acceptor molecule, acceptor atom, score
      L1  H     8    56       P1  7948  0.95
      L1  H    11    40       P1 10171  0.82
      P1  H  7954  7966       L1    11  1.00
      L1  C    14    43       P1 10171  0.54

> <Gold.PLP.Chemscore.Internal.Correction>
0.2359

> <Gold.Rescore>
     Score         DG    S(hbond)    S(metal)    S(lipo)     H(rot)  DE(clash)    DE(int)     intcor
     16.86     -20.37       2.95        0.00     100.80       2.64       2.00       1.51       ----

> <Gold.Chemscore.Fitness>
16.8632

> <Gold.Chemscore.DG>
-20.3731

> <Gold.Chemscore.ZeroCoef>
-5.4800

> <Gold.Chemscore.Hbond>
2.9540

> <Gold.Chemscore.Metal>
0.0000

> <Gold.Chemscore.Lipo>
100.7976

> <Gold.Chemscore.Internal_Hbond>
0.0000

> <Gold.Chemscore.DEClash>
1.9991

> <Gold.Chemscore.DEInternal>
1.5108

> <Gold.Chemscore.Rot>
2.6432

> <Gold.Chemscore.Internal.Correction>
   9.000000E+99

> <Gold.Chemscore.Hbonds>
donor molecule, donor type, donor heavy atom, donor atom, acceptor molecule, acceptor atom, score
      L1  H     8    56       P1  7948  0.47
      L1  H    11    40       P1 10171  0.77
      P1  H  7954  7966       L1    11  0.93

> <Gold.Chemscore.Hbond.Weighted>
-9.8663

> <Gold.Chemscore.Metal.Weighted>
-0.0000

> <Gold.Chemscore.Lipo.Weighted>
-11.7933

> <Gold.Chemscore.Internal_Hbond.Weighted>
0.0000

> <Gold.Chemscore.DEClash.Weighted>
1.9991

> <Gold.Chemscore.DEInternal.Weighted>
1.5108

> <Gold.Chemscore.Rot.Weighted>
6.7665

> <Gold.Chemscore.Internal.Correction.Weighted>
   9.000000E+99

> <Gold.Protein.RotatedTorsions>
[ 6907 6896 6895 6894 ] final   26.08 input  -60.11 | X-H torsion
[ 7974 7965 7964 7962 ] final  -65.06 input  175.53 | X-H torsion
[ 8008 7997 7996 7995 ] final -176.56 input   59.86 | X-H torsion
[ 10167 10162 10161 10158 ] final  -13.36 input  -65.29 | X-H torsion
[ 10718 10713 10712 10709 ] final   65.80 input   66.30 | X-H torsion
[ 10763 10752 10751 10750 ] final   -9.66 input  -60.55 | X-H torsion
[ 11005 11000 10999 10996 ] final  168.96 input  -57.11 | X-H torsion

> <Gold.Protein.ActiveResidues>
 VAL166  LYS551  ARG553  GLY616  TRP617  ASP618  TYR619  PRO620  LYS621  CYS622 
 ASP623  PHE694  ASN695  SER759  ASP760  ASP761  ALA762  ILE779  LEU786  VAL792 
 PHE793  MET794  SER795  GLU796  ALA797  LYS798  CYS799  TRP800  GLU811  SER814 

> <Gold.Protein.RotatedAtoms>
  151.9821  135.0023  160.0557 H   0  0  0  0  0  0  0  0  0  0  0  0  # atno 6907 bound_to 6896
  152.1686  133.4624  159.4906 H   0  0  0  0  0  0  0  0  0  0  0  0  # atno 6908 bound_to 6896
  150.6898  134.1899  159.4324 H   0  0  0  0  0  0  0  0  0  0  0  0  # atno 6909 bound_to 6896
  145.7589  140.8871  143.0440 H   0  0  0  0  0  0  0  0  0  0  0  0  # atno 7974 bound_to 7965
  155.9963  140.1211  157.0590 H   0  0  0  0  0  0  0  0  0  0  0  0  # atno 8008 bound_to 7997
  154.4228  140.1115  156.5704 H   0  0  0  0  0  0  0  0  0  0  0  0  # atno 8009 bound_to 7997
  155.6274  140.3472  155.4674 H   0  0  0  0  0  0  0  0  0  0  0  0  # atno 8010 bound_to 7997
  140.7180  143.5434  150.9383 H   0  0  0  0  0  0  0  0  0  0  0  0  # atno 10167 bound_to 10162
  157.6129  130.9234  150.0025 H   0  0  0  0  0  0  0  0  0  0  0  0  # atno 10718 bound_to 10713
  153.4579  135.7016  153.6068 H   0  0  0  0  0  0  0  0  0  0  0  0  # atno 10763 bound_to 10752
  153.4375  135.3788  155.2208 H   0  0  0  0  0  0  0  0  0  0  0  0  # atno 10764 bound_to 10752
  154.8727  135.3965  154.4001 H   0  0  0  0  0  0  0  0  0  0  0  0  # atno 10765 bound_to 10752
  140.2927  134.7660  157.3851 H   0  0  0  0  0  0  0  0  0  0  0  0  # atno 11005 bound_to 11000
  144.6834  139.9695  143.7482 LP  0  0  0  0  0  0  0  0  0  0  0  0  # atno 17320 bound_to 7965
  146.0283  139.3312  143.0770 LP  0  0  0  0  0  0  0  0  0  0  0  0  # atno 17321 bound_to 7965
  139.9157  143.6666  152.3106 LP  0  0  0  0  0  0  0  0  0  0  0  0  # atno 17342 bound_to 10162
  139.7065  144.7627  151.1184 LP  0  0  0  0  0  0  0  0  0  0  0  0  # atno 17343 bound_to 10162
  156.1239  130.3645  149.9842 LP  0  0  0  0  0  0  0  0  0  0  0  0  # atno 17370 bound_to 10713
  156.7917  130.9258  151.3646 LP  0  0  0  0  0  0  0  0  0  0  0  0  # atno 17371 bound_to 10713
  140.1181  134.5256  155.8207 LP  0  0  0  0  0  0  0  0  0  0  0  0  # atno 17394 bound_to 11000
  141.2143  133.6747  156.6814 LP  0  0  0  0  0  0  0  0  0  0  0  0  # atno 17395 bound_to 11000

$$$$
