AV-unprocessed.smi:829|AV-procd|sdf|3866|dock4
  -GOLD-   22720 1313D 1   1.00000     0.00000
 Structure written by MMmdl.
 49 51  0  0  0  0  0  0  0  0  2 V2000
  144.3823  136.5358  151.9788 O   0  0  0  0  0  0  0  0  0  0  0  0
  145.5942  136.3601  151.8567 C   0  0  0  0  0  0  0  0  0  0  0  0
  146.1813  135.2550  151.3647 N   0  0  0  0  0  0  0  0  0  0  0  0
  145.5833  134.0611  150.8746 C   0  0  0  0  0  0  0  0  0  0  0  0
  146.4379  132.9758  150.5902 C   0  0  0  0  0  0  0  0  0  0  0  0
  145.8795  131.7814  150.0930 C   0  0  0  0  0  0  0  0  0  0  0  0
  144.5594  131.6180  149.8663 N   0  0  0  0  0  0  0  0  0  0  0  0
  143.7432  132.6604  150.1287 C   0  0  0  0  0  0  0  0  0  0  0  0
  144.1984  133.8980  150.6263 C   0  0  0  0  0  0  0  0  0  0  0  0
  146.5082  137.2713  152.2217 N   0  0  0  0  0  0  0  0  0  0  0  0
  146.2064  138.5737  152.8085 C   0  0  2  0  0  0  0  0  0  0  0  0
  147.3951  139.5385  152.6459 C   0  0  0  0  0  0  0  0  0  0  0  0
  147.1246  140.8791  153.3495 C   0  0  0  0  0  0  0  0  0  0  0  0
  146.8023  140.6769  154.7858 N   0  3  1  0  0  0  0  0  0  0  0  0
  146.6750  141.9524  155.5373 C   0  0  0  0  0  0  0  0  0  0  0  0
  145.4646  142.7790  155.0633 C   0  0  0  0  0  0  0  0  0  0  0  0
  145.6617  143.5247  153.7400 C   0  0  0  0  0  0  0  0  0  0  0  0
  144.5812  144.6100  153.7344 C   0  0  0  0  0  0  0  0  0  0  0  0
  144.2431  144.8837  155.2074 C   0  0  0  0  0  0  0  0  0  0  0  0
  145.0878  143.9044  156.0309 C   0  0  0  0  0  0  0  0  0  0  0  0
  145.6304  139.7796  154.9607 C   0  0  0  0  0  0  0  0  0  0  0  0
  145.8762  138.4130  154.3008 C   0  0  0  0  0  0  0  0  0  0  0  0
  147.1905  135.2486  151.3833 H   0  0  0  0  0  0  0  0  0  0  0  0
  147.5036  133.0503  150.7514 H   0  0  0  0  0  0  0  0  0  0  0  0
  146.5116  130.9344  149.8705 H   0  0  0  0  0  0  0  0  0  0  0  0
  142.6927  132.5054  149.9314 H   0  0  0  0  0  0  0  0  0  0  0  0
  143.4806  134.6852  150.7939 H   0  0  0  0  0  0  0  0  0  0  0  0
  147.4833  137.0449  152.0901 H   0  0  0  0  0  0  0  0  0  0  0  0
  145.3320  138.9978  152.3105 H   0  0  0  0  0  0  0  0  0  0  0  0
  148.2980  139.0879  153.0610 H   0  0  0  0  0  0  0  0  0  0  0  0
  147.5969  139.7149  151.5886 H   0  0  0  0  0  0  0  0  0  0  0  0
  148.0076  141.5131  153.2572 H   0  0  0  0  0  0  0  0  0  0  0  0
  146.3022  141.4034  152.8599 H   0  0  0  0  0  0  0  0  0  0  0  0
  146.5339  141.7386  156.5979 H   0  0  0  0  0  0  0  0  0  0  0  0
  147.5967  142.5334  155.4767 H   0  0  0  0  0  0  0  0  0  0  0  0
  144.5998  142.1202  154.9643 H   0  0  0  0  0  0  0  0  0  0  0  0
  146.6459  143.9951  153.7198 H   0  0  0  0  0  0  0  0  0  0  0  0
  145.5883  142.8687  152.8723 H   0  0  0  0  0  0  0  0  0  0  0  0
  144.9170  145.5084  153.2153 H   0  0  0  0  0  0  0  0  0  0  0  0
  143.6923  144.2477  153.2162 H   0  0  0  0  0  0  0  0  0  0  0  0
  144.4527  145.9168  155.4873 H   0  0  0  0  0  0  0  0  0  0  0  0
  143.1806  144.7091  155.3821 H   0  0  0  0  0  0  0  0  0  0  0  0
  144.5587  143.5389  156.9114 H   0  0  0  0  0  0  0  0  0  0  0  0
  145.9893  144.4113  156.3782 H   0  0  0  0  0  0  0  0  0  0  0  0
  145.4228  139.6335  156.0201 H   0  0  0  0  0  0  0  0  0  0  0  0
  144.7442  140.2484  154.5296 H   0  0  0  0  0  0  0  0  0  0  0  0
  144.9954  137.7814  154.4231 H   0  0  0  0  0  0  0  0  0  0  0  0
  146.6954  137.9054  154.8128 H   0  0  0  0  0  0  0  0  0  0  0  0
  147.5986  140.1985  155.1822 H   0  0  0  0  0  0  0  0  0  0  0  0
  1  2  2  0  0  0  0
  2  3  1  0  0  0  0
  2 10  1  0  0  0  0
  3  4  1  0  0  0  0
  3 23  1  0  0  0  0
  4  9  1  0  0  0  0
  4  5  2  0  0  0  0
  5  6  1  0  0  0  0
  5 24  1  0  0  0  0
  6  7  2  0  0  0  0
  6 25  1  0  0  0  0
  7  8  1  0  0  0  0
  8  9  2  0  0  0  0
  8 26  1  0  0  0  0
  9 27  1  0  0  0  0
 10 11  1  0  0  0  0
 10 28  1  0  0  0  0
 11 22  1  0  0  0  0
 11 12  1  0  0  0  0
 11 29  1  0  0  0  0
 12 13  1  0  0  0  0
 12 30  1  0  0  0  0
 12 31  1  0  0  0  0
 13 14  1  0  0  0  0
 13 32  1  0  0  0  0
 13 33  1  0  0  0  0
 14 15  1  0  0  0  0
 14 21  1  0  0  0  0
 14 49  1  0  0  0  0
 15 16  1  0  0  0  0
 15 34  1  0  0  0  0
 15 35  1  0  0  0  0
 16 20  1  0  0  0  0
 16 17  1  0  0  0  0
 16 36  1  0  0  0  0
 17 18  1  0  0  0  0
 17 37  1  0  0  0  0
 17 38  1  0  0  0  0
 18 19  1  0  0  0  0
 18 39  1  0  0  0  0
 18 40  1  0  0  0  0
 19 20  1  0  0  0  0
 19 41  1  0  0  0  0
 19 42  1  0  0  0  0
 20 43  1  0  0  0  0
 20 44  1  0  0  0  0
 21 22  1  0  0  0  0
 21 45  1  0  0  0  0
 21 46  1  0  0  0  0
 22 47  1  0  0  0  0
 22 48  1  0  0  0  0
M  CHG  1  14   1
M  END
> <s_m_source_file>
AV-unprocessed.smi

> <i_m_source_file_index>
829

> <i_lp_mmshare_version>
43012

> <i_f3d_flags>
0

> <s_epik_input>
W2NIXTFbY0hdbltjSF1bY0hdYzFbTkhdQyg9TylbTkhdW0NIXTJbQ0gyXVtDSDJdTihbQ0gyXVtDSDJdMilbQ0gyXVtDSF0zW0NIMl1bQ0gyXVtDSDJdW0NIMl0z

> <s_epik_cmdline>
J2VwaWtfcHl0aG9uJywgJy1waCcsICc3LjAnLCAnLXRuJywgJzgnLCAnLW1hJywgJzIwMCcsICctbWV0YWxfYmluZGluZycsICctaW1hZScsICc8aW5maWxlLm1hZT4nLCAnLW9tYWUnLCAnPG91dGZpbGUubWFlPic=

> <r_epik_Ionization_Penalty>
0.101981

> <r_epik_Ionization_Penalty_Charging>
0.00207989

> <r_epik_Ionization_Penalty_Neutral>
0.0999008

> <r_epik_State_Penalty>
0.0935668

> <r_epik_Charging_Adjusted_Penalty>
0.0956467

> <i_epik_Tot_Q>
1

> <i_epik_Tot_abs_Q>
1

> <r_epik_Metal_State_Penalty>
0.0787682

> <b_epik_Metal_Only>
0

> <s_lp_Force_Field>
OPLS_2005

> <r_lp_Energy>
43.2002

> <b_lp_Chiralities_Consistent>
1

> <s_lp_Variant>
AV-unprocessed.smi:829-1

> <Gold.Version>
5.8.1

> <Gold.Id.Protein>
6NUR|6NUR_protein|mol2

> <Gold.PLP.Fitness>
48.9403

> <Gold.PLP.PLP>
-37.5723

> <Gold.PLP.part.hbond>
-3.0000

> <Gold.PLP.part.metal>
0.0000

> <Gold.PLP.part.buried>
-2.8431

> <Gold.PLP.part.nonpolar>
-34.0411

> <Gold.PLP.part.repulsive>
1.0634

> <Gold.PLP.ligand.clash>
0.0000

> <Gold.PLP.ligand.torsion>
0.4259

> <Gold.PLP.Chemscore.Hbond>
2.1870

> <Gold.PLP.Chemscore.CHOScore>
1.8714

> <Gold.PLP.Chemscore.Metal>
0.0000

> <Gold.Chemscore.Hbonds>
donor molecule, donor type, donor heavy atom, donor atom, acceptor molecule, acceptor atom, score
      L1  H     3    23       P1  7948  0.99
      L1  H    10    28       P1  7948  1.00
      P1  H 10785 10796       L1     7  0.17
      L1  C     6    25       P1 10747  0.91
      L1  C     8    26       P1 10186  0.79
      L1  C     8    26       P1 10952  0.15

> <Gold.PLP.Chemscore.Internal.Correction>
0.0447

> <Gold.Rescore>
     Score         DG    S(hbond)    S(metal)    S(lipo)     H(rot)  DE(clash)    DE(int)     intcor
     16.75     -19.96       1.84        0.00     100.65       1.35       1.62       1.59       ----

> <Gold.Chemscore.Fitness>
16.7496

> <Gold.Chemscore.DG>
-19.9556

> <Gold.Chemscore.ZeroCoef>
-5.4800

> <Gold.Chemscore.Hbond>
1.8394

> <Gold.Chemscore.Metal>
0.0000

> <Gold.Chemscore.Lipo>
100.6547

> <Gold.Chemscore.Internal_Hbond>
0.0000

> <Gold.Chemscore.DEClash>
1.6155

> <Gold.Chemscore.DEInternal>
1.5905

> <Gold.Chemscore.Rot>
1.3455

> <Gold.Chemscore.Internal.Correction>
   9.000000E+99

> <Gold.Chemscore.Hbonds>
donor molecule, donor type, donor heavy atom, donor atom, acceptor molecule, acceptor atom, score
      L1  H     3    23       P1  7948  0.76
      L1  H    10    28       P1  7948  1.00
      P1  H 10785 10796       L1     7  0.08

> <Gold.Chemscore.Hbond.Weighted>
-6.1435

> <Gold.Chemscore.Metal.Weighted>
-0.0000

> <Gold.Chemscore.Lipo.Weighted>
-11.7766

> <Gold.Chemscore.Internal_Hbond.Weighted>
0.0000

> <Gold.Chemscore.DEClash.Weighted>
1.6155

> <Gold.Chemscore.DEInternal.Weighted>
1.5905

> <Gold.Chemscore.Rot.Weighted>
3.4445

> <Gold.Chemscore.Internal.Correction.Weighted>
   9.000000E+99

> <Gold.Protein.RotatedTorsions>
[ 6907 6896 6895 6894 ] final  178.79 input  -60.11 | X-H torsion
[ 7974 7965 7964 7962 ] final -167.97 input  175.53 | X-H torsion
[ 8008 7997 7996 7995 ] final  -48.68 input   59.86 | X-H torsion
[ 10167 10162 10161 10158 ] final -141.05 input  -65.29 | X-H torsion
[ 10718 10713 10712 10709 ] final    7.19 input   66.30 | X-H torsion
[ 10763 10752 10751 10750 ] final -119.46 input  -60.55 | X-H torsion
[ 11005 11000 10999 10996 ] final -101.54 input  -57.11 | X-H torsion

> <Gold.Protein.ActiveResidues>
 VAL166  LYS551  ARG553  GLY616  TRP617  ASP618  TYR619  PRO620  LYS621  CYS622 
 ASP623  PHE694  ASN695  SER759  ASP760  ASP761  ALA762  ILE779  LEU786  VAL792 
 PHE793  MET794  SER795  GLU796  ALA797  LYS798  CYS799  TRP800  GLU811  SER814 

> <Gold.Protein.RotatedAtoms>
  151.6821  133.3312  159.3221 H   0  0  0  0  0  0  0  0  0  0  0  0  # atno 6907 bound_to 6896
  150.7818  134.6771  159.6433 H   0  0  0  0  0  0  0  0  0  0  0  0  # atno 6908 bound_to 6896
  152.3877  134.6494  160.0171 H   0  0  0  0  0  0  0  0  0  0  0  0  # atno 6909 bound_to 6896
  144.7212  140.2439  143.6288 H   0  0  0  0  0  0  0  0  0  0  0  0  # atno 7974 bound_to 7965
  154.4032  140.1315  156.4379 H   0  0  0  0  0  0  0  0  0  0  0  0  # atno 8008 bound_to 7997
  155.7488  140.3488  155.5120 H   0  0  0  0  0  0  0  0  0  0  0  0  # atno 8009 bound_to 7997
  155.8969  140.1013  157.1368 H   0  0  0  0  0  0  0  0  0  0  0  0  # atno 8010 bound_to 7997
  139.8222  143.7558  152.2666 H   0  0  0  0  0  0  0  0  0  0  0  0  # atno 10167 bound_to 10162
  156.9333  130.5834  149.5650 H   0  0  0  0  0  0  0  0  0  0  0  0  # atno 10718 bound_to 10713
  154.8618  135.4237  154.2302 H   0  0  0  0  0  0  0  0  0  0  0  0  # atno 10763 bound_to 10752
  153.3289  135.6987  153.6971 H   0  0  0  0  0  0  0  0  0  0  0  0  # atno 10764 bound_to 10752
  153.5996  135.3539  155.2914 H   0  0  0  0  0  0  0  0  0  0  0  0  # atno 10765 bound_to 10752
  141.1227  133.8486  157.1244 H   0  0  0  0  0  0  0  0  0  0  0  0  # atno 11005 bound_to 11000
  145.8293  139.2079  143.1892 LP  0  0  0  0  0  0  0  0  0  0  0  0  # atno 17320 bound_to 7965
  146.0445  140.8132  142.9812 LP  0  0  0  0  0  0  0  0  0  0  0  0  # atno 17321 bound_to 7965
  139.7740  144.7467  151.0183 LP  0  0  0  0  0  0  0  0  0  0  0  0  # atno 17342 bound_to 10162
  140.7812  143.4614  151.0273 LP  0  0  0  0  0  0  0  0  0  0  0  0  # atno 17343 bound_to 10162
  156.0437  130.5516  150.8831 LP  0  0  0  0  0  0  0  0  0  0  0  0  # atno 17370 bound_to 10713
  157.5833  131.0946  150.9237 LP  0  0  0  0  0  0  0  0  0  0  0  0  # atno 17371 bound_to 10713
  140.0197  134.9951  157.0567 LP  0  0  0  0  0  0  0  0  0  0  0  0  # atno 17394 bound_to 11000
  140.4460  134.1632  155.7177 LP  0  0  0  0  0  0  0  0  0  0  0  0  # atno 17395 bound_to 11000

$$$$
