AV-unprocessed.smi:1560|AV-procd|sdf|6281|dock2
  -GOLD-   22720 6473D 1   1.00000     0.00000
 Structure written by MMmdl.
 47 48  0  0  0  0  0  0  0  0  3 V2000
  143.5627  136.3664  154.2253 C   0  0  0  0  0  0  0  0  0  0  0  0
  144.8103  135.4649  154.2412 C   0  0  0  0  0  0  0  0  0  0  0  0
  146.0926  136.0752  153.5956 C   0  0  1  0  0  0  0  0  0  0  0  0
  145.7238  136.4958  152.1483 C   0  0  0  0  0  0  0  0  0  0  0  0
  146.5345  137.3442  154.3891 C   0  0  0  0  0  0  0  0  0  0  0  0
  147.8595  137.8392  154.0165 N   0  0  0  0  0  0  0  0  0  0  0  0
  148.4808  138.8964  154.5621 C   0  0  0  0  0  0  0  0  0  0  0  0
  147.9720  139.6044  155.4321 O   0  0  0  0  0  0  0  0  0  0  0  0
  149.8747  139.2218  154.0106 C   0  0  0  0  0  0  0  0  0  0  0  0
  150.9502  138.8684  154.9507 N   0  0  0  0  0  0  0  0  0  0  0  0
  151.1730  137.5044  155.2106 C   0  0  0  0  0  0  0  0  0  0  0  0
  152.1403  137.0905  156.0514 C   0  0  0  0  0  0  0  0  0  0  0  0
  152.9682  138.0991  156.7014 C   0  0  0  0  0  0  0  0  0  0  0  0
  153.8532  137.7395  157.4752 O   0  0  0  0  0  0  0  0  0  0  0  0
  152.7153  139.4096  156.4136 N   0  5  0  0  0  0  0  0  0  0  0  0
  151.7303  139.8158  155.5537 C   0  0  0  0  0  0  0  0  0  0  0  0
  151.5214  141.0038  155.3040 O   0  0  0  0  0  0  0  0  0  0  0  0
  147.1968  135.0467  153.5788 N   0  3  0  0  0  0  0  0  0  0  0  0
  147.8358  134.7455  154.8913 C   0  0  0  0  0  0  0  0  0  0  0  0
  149.0644  133.8397  154.6973 C   0  0  0  0  0  0  0  0  0  0  0  0
  148.6844  132.6448  154.0294 O   0  0  0  0  0  0  0  0  0  0  0  0
  148.1530  132.9097  152.7389 C   0  0  0  0  0  0  0  0  0  0  0  0
  146.8866  133.7700  152.8740 C   0  0  0  0  0  0  0  0  0  0  0  0
  142.7229  135.8593  154.7007 H   0  0  0  0  0  0  0  0  0  0  0  0
  143.2544  136.6190  153.2109 H   0  0  0  0  0  0  0  0  0  0  0  0
  143.7270  137.2960  154.7696 H   0  0  0  0  0  0  0  0  0  0  0  0
  145.0106  135.2098  155.2820 H   0  0  0  0  0  0  0  0  0  0  0  0
  144.5646  134.5122  153.7729 H   0  0  0  0  0  0  0  0  0  0  0  0
  144.7898  137.0580  152.1173 H   0  0  0  0  0  0  0  0  0  0  0  0
  145.6006  135.6329  151.4934 H   0  0  0  0  0  0  0  0  0  0  0  0
  146.4817  137.1412  151.7036 H   0  0  0  0  0  0  0  0  0  0  0  0
  145.8069  138.1488  154.2815 H   0  0  0  0  0  0  0  0  0  0  0  0
  146.5775  137.1278  155.4560 H   0  0  0  0  0  0  0  0  0  0  0  0
  148.3558  137.3210  153.3060 H   0  0  0  0  0  0  0  0  0  0  0  0
  150.0291  138.7148  153.0559 H   0  0  0  0  0  0  0  0  0  0  0  0
  149.9061  140.2868  153.7771 H   0  0  0  0  0  0  0  0  0  0  0  0
  150.5212  136.8227  154.6843 H   0  0  0  0  0  0  0  0  0  0  0  0
  152.3014  136.0389  156.2378 H   0  0  0  0  0  0  0  0  0  0  0  0
  148.1735  135.6504  155.3930 H   0  0  0  0  0  0  0  0  0  0  0  0
  147.1221  134.2561  155.5544 H   0  0  0  0  0  0  0  0  0  0  0  0
  149.8423  134.3551  154.1316 H   0  0  0  0  0  0  0  0  0  0  0  0
  149.4950  133.5800  155.6646 H   0  0  0  0  0  0  0  0  0  0  0  0
  148.8983  133.4054  152.1145 H   0  0  0  0  0  0  0  0  0  0  0  0
  147.9129  131.9620  152.2563 H   0  0  0  0  0  0  0  0  0  0  0  0
  146.1338  133.2051  153.4240 H   0  0  0  0  0  0  0  0  0  0  0  0
  146.4900  133.9473  151.8763 H   0  0  0  0  0  0  0  0  0  0  0  0
  147.9270  135.4779  153.0300 H   0  0  0  0  0  0  0  0  0  0  0  0
  1  2  1  0  0  0  0
  1 24  1  0  0  0  0
  1 25  1  0  0  0  0
  1 26  1  0  0  0  0
  2  3  1  0  0  0  0
  2 27  1  0  0  0  0
  2 28  1  0  0  0  0
  3  4  1  0  0  0  0
  3  5  1  0  0  0  0
  3 18  1  0  0  0  0
  4 29  1  0  0  0  0
  4 30  1  0  0  0  0
  4 31  1  0  0  0  0
  5  6  1  0  0  0  0
  5 32  1  0  0  0  0
  5 33  1  0  0  0  0
  6  7  1  0  0  0  0
  6 34  1  0  0  0  0
  7  8  2  0  0  0  0
  7  9  1  0  0  0  0
  9 10  1  0  0  0  0
  9 35  1  0  0  0  0
  9 36  1  0  0  0  0
 10 16  1  0  0  0  0
 10 11  1  0  0  0  0
 11 12  2  0  0  0  0
 11 37  1  0  0  0  0
 12 13  1  0  0  0  0
 12 38  1  0  0  0  0
 13 14  2  0  0  0  0
 13 15  1  0  0  0  0
 15 16  1  0  0  0  0
 16 17  2  0  0  0  0
 18 23  1  0  0  0  0
 18 19  1  0  0  0  0
 18 47  1  0  0  0  0
 19 20  1  0  0  0  0
 19 39  1  0  0  0  0
 19 40  1  0  0  0  0
 20 21  1  0  0  0  0
 20 41  1  0  0  0  0
 20 42  1  0  0  0  0
 21 22  1  0  0  0  0
 22 23  1  0  0  0  0
 22 43  1  0  0  0  0
 22 44  1  0  0  0  0
 23 45  1  0  0  0  0
 23 46  1  0  0  0  0
M  CHG  1  15  -1
M  CHG  1  18   1
M  END
> <s_m_source_file>
AV-unprocessed.smi

> <i_m_source_file_index>
1560

> <i_lp_mmshare_version>
43012

> <i_f3d_flags>
0

> <s_epik_input>
W0NIMl0xW0NIMl1PW0NIMl1bQ0gyXU4xW0NAQF0oW0NIM10pKFtDSDJdW0NIM10pW0NIMl1bTkhdQyg9TylbQ0gyXW4yW2NIXVtjSF1jKD1PKVtuSF1jMj1P

> <s_epik_cmdline>
J2VwaWtfcHl0aG9uJywgJy1waCcsICc3LjAnLCAnLXRuJywgJzgnLCAnLW1hJywgJzIwMCcsICctbWV0YWxfYmluZGluZycsICctaW1hZScsICc8aW5maWxlLm1hZT4nLCAnLW9tYWUnLCAnPG91dGZpbGUubWFlPic=

> <r_lp_tautomer_probability>
0.999537

> <r_epik_Ionization_Penalty>
3.51944

> <r_epik_Ionization_Penalty_Charging>
0.588852

> <r_epik_Ionization_Penalty_Neutral>
2.93059

> <r_epik_State_Penalty>
3.4987

> <r_epik_Charging_Adjusted_Penalty>
4.08755

> <i_epik_Tot_Q>
0

> <i_epik_Tot_abs_Q>
2

> <r_epik_Metal_State_Penalty>
1.01204

> <b_epik_Metal_Only>
1

> <s_lp_Force_Field>
OPLS_2005

> <r_lp_Energy>
37.4968

> <b_lp_Chiralities_Consistent>
1

> <s_lp_Variant>
AV-unprocessed.smi:1560-7

> <Gold.Version>
5.8.1

> <Gold.Id.Protein>
6NUR|6NUR_protein|mol2

> <Gold.PLP.Fitness>
41.5291

> <Gold.PLP.PLP>
-25.1831

> <Gold.PLP.part.hbond>
-4.0000

> <Gold.PLP.part.metal>
0.0000

> <Gold.PLP.part.buried>
0.1968

> <Gold.PLP.part.nonpolar>
-21.5549

> <Gold.PLP.part.repulsive>
0.1414

> <Gold.PLP.ligand.clash>
0.0000

> <Gold.PLP.ligand.torsion>
0.4672

> <Gold.PLP.Chemscore.Hbond>
5.6720

> <Gold.PLP.Chemscore.CHOScore>
0.0000

> <Gold.PLP.Chemscore.Metal>
0.0000

> <Gold.Chemscore.Hbonds>
donor molecule, donor type, donor heavy atom, donor atom, acceptor molecule, acceptor atom, score
      L1  H     6    34       P1  7948  1.00
      L1  H    18    47       P1  7948  2.00
      P1  H  7989  7998       L1    17  0.52
      P1  H  7997  8008       L1    15  2.00

> <Gold.PLP.Chemscore.Internal.Correction>
0.2644

> <Gold.Rescore>
     Score         DG    S(hbond)    S(metal)    S(lipo)     H(rot)  DE(clash)    DE(int)     intcor
     13.46     -14.19       2.78        0.00      49.68       2.50       0.25       0.48       ----

> <Gold.Chemscore.Fitness>
13.4635

> <Gold.Chemscore.DG>
-14.1872

> <Gold.Chemscore.ZeroCoef>
-5.4800

> <Gold.Chemscore.Hbond>
2.7806

> <Gold.Chemscore.Metal>
0.0000

> <Gold.Chemscore.Lipo>
49.6840

> <Gold.Chemscore.Internal_Hbond>
0.0000

> <Gold.Chemscore.DEClash>
0.2469

> <Gold.Chemscore.DEInternal>
0.4768

> <Gold.Chemscore.Rot>
2.4973

> <Gold.Chemscore.Internal.Correction>
   9.000000E+99

> <Gold.Chemscore.Hbonds>
donor molecule, donor type, donor heavy atom, donor atom, acceptor molecule, acceptor atom, score
      L1  H     6    34       P1  7948  1.00
      L1  H    18    47       P1  7948  1.00
      P1  H  7989  7998       L1    17  0.10
      P1  H  7997  8008       L1    15  0.44

> <Gold.Chemscore.Hbond.Weighted>
-9.2872

> <Gold.Chemscore.Metal.Weighted>
-0.0000

> <Gold.Chemscore.Lipo.Weighted>
-5.8130

> <Gold.Chemscore.Internal_Hbond.Weighted>
0.0000

> <Gold.Chemscore.DEClash.Weighted>
0.2469

> <Gold.Chemscore.DEInternal.Weighted>
0.4768

> <Gold.Chemscore.Rot.Weighted>
6.3930

> <Gold.Chemscore.Internal.Correction.Weighted>
   9.000000E+99

> <Gold.Protein.RotatedTorsions>
[ 6907 6896 6895 6894 ] final  176.75 input  -60.11 | X-H torsion
[ 7974 7965 7964 7962 ] final -138.28 input  175.53 | X-H torsion
[ 8008 7997 7996 7995 ] final  -28.97 input   59.86 | X-H torsion
[ 10167 10162 10161 10158 ] final  -61.97 input  -65.29 | X-H torsion
[ 10718 10713 10712 10709 ] final   49.48 input   66.30 | X-H torsion
[ 10763 10752 10751 10750 ] final   -7.88 input  -60.55 | X-H torsion
[ 11005 11000 10999 10996 ] final   54.13 input  -57.11 | X-H torsion

> <Gold.Protein.ActiveResidues>
 VAL166  LYS551  ARG553  GLY616  TRP617  ASP618  TYR619  PRO620  LYS621  CYS622 
 ASP623  PHE694  ASN695  SER759  ASP760  ASP761  ALA762  ILE779  LEU786  VAL792 
 PHE793  MET794  SER795  GLU796  ALA797  LYS798  CYS799  TRP800  GLU811  SER814 

> <Gold.Protein.RotatedAtoms>
  151.7151  133.3313  159.3300 H   0  0  0  0  0  0  0  0  0  0  0  0  # atno 6907 bound_to 6896
  150.7677  134.6497  159.6291 H   0  0  0  0  0  0  0  0  0  0  0  0  # atno 6908 bound_to 6896
  152.3687  134.6769  160.0235 H   0  0  0  0  0  0  0  0  0  0  0  0  # atno 6909 bound_to 6896
  144.8772  140.6454  143.5229 H   0  0  0  0  0  0  0  0  0  0  0  0  # atno 7974 bound_to 7965
  154.4310  140.1831  156.1173 H   0  0  0  0  0  0  0  0  0  0  0  0  # atno 8008 bound_to 7997
  156.0171  140.3344  155.6974 H   0  0  0  0  0  0  0  0  0  0  0  0  # atno 8009 bound_to 7997
  155.6029  140.0642  157.2718 H   0  0  0  0  0  0  0  0  0  0  0  0  # atno 8010 bound_to 7997
  140.5971  143.2353  151.6012 H   0  0  0  0  0  0  0  0  0  0  0  0  # atno 10167 bound_to 10162
  157.4790  130.8303  149.8072 H   0  0  0  0  0  0  0  0  0  0  0  0  # atno 10718 bound_to 10713
  153.4325  135.7012  153.6221 H   0  0  0  0  0  0  0  0  0  0  0  0  # atno 10763 bound_to 10752
  153.4630  135.3732  155.2349 H   0  0  0  0  0  0  0  0  0  0  0  0  # atno 10764 bound_to 10752
  154.8726  135.4024  154.3711 H   0  0  0  0  0  0  0  0  0  0  0  0  # atno 10765 bound_to 10752
  140.0711  134.5468  155.9046 H   0  0  0  0  0  0  0  0  0  0  0  0  # atno 11005 bound_to 11000
  145.4021  139.1595  143.4172 LP  0  0  0  0  0  0  0  0  0  0  0  0  # atno 17320 bound_to 7965
  146.2970  140.4119  142.8718 LP  0  0  0  0  0  0  0  0  0  0  0  0  # atno 17321 bound_to 7965
  139.5265  144.3043  152.1047 LP  0  0  0  0  0  0  0  0  0  0  0  0  # atno 17342 bound_to 10162
  140.2217  144.4459  150.6339 LP  0  0  0  0  0  0  0  0  0  0  0  0  # atno 17343 bound_to 10162
  156.0112  130.3832  150.2260 LP  0  0  0  0  0  0  0  0  0  0  0  0  # atno 17370 bound_to 10713
  157.0445  131.0045  151.3273 LP  0  0  0  0  0  0  0  0  0  0  0  0  # atno 17371 bound_to 10713
  141.2012  133.6617  156.5938 LP  0  0  0  0  0  0  0  0  0  0  0  0  # atno 17394 bound_to 11000
  140.3626  134.7675  157.4544 LP  0  0  0  0  0  0  0  0  0  0  0  0  # atno 17395 bound_to 11000

$$$$
