AV-unprocessed.smi:1510|AV-procd|sdf|6095|dock10
  -GOLD-   22720 6223D 1   1.00000     0.00000
 Structure written by MMmdl.
 32 33  0  0  0  0  0  0  0  0  2 V2000
  154.1595  139.4886  159.3075 O   0  0  0  0  0  0  0  0  0  0  0  0
  152.9281  139.5016  159.2632 C   0  0  0  0  0  0  0  0  0  0  0  0
  152.1340  138.3095  158.7059 C   0  0  0  0  0  0  0  0  0  0  0  0
  151.8166  138.4100  157.2737 N   0  0  0  0  0  0  0  0  0  0  0  0
  151.2457  139.6969  156.8856 N   0  5  0  0  0  0  0  0  0  0  0  0
  150.9150  139.9094  155.5842 C   0  0  0  0  0  0  0  0  0  0  0  0
  150.4423  140.9698  155.1814 O   0  0  0  0  0  0  0  0  0  0  0  0
  151.1304  138.8272  154.6379 C   0  0  0  0  0  0  0  0  0  0  0  0
  151.6425  137.6432  155.0276 C   0  0  0  0  0  0  0  0  0  0  0  0
  152.0150  137.3726  156.4108 C   0  0  0  0  0  0  0  0  0  0  0  0
  152.4750  136.2903  156.7754 O   0  0  0  0  0  0  0  0  0  0  0  0
  152.1921  140.5422  159.6817 N   0  0  0  0  0  0  0  0  0  0  0  0
  152.7243  141.7760  160.2473 C   0  0  0  0  0  0  0  0  0  0  0  0
  151.7341  142.9426  160.0949 C   0  0  1  0  0  0  0  0  0  0  0  0
  151.8818  144.0245  161.1665 C   0  0  0  0  0  0  0  0  0  0  0  0
  151.4633  145.3071  160.4598 C   0  0  0  0  0  0  0  0  0  0  0  0
  151.2762  144.8880  159.0006 C   0  0  0  0  0  0  0  0  0  0  0  0
  151.9770  143.6590  158.8939 O   0  0  0  0  0  0  0  0  0  0  0  0
  152.6960  137.3922  158.8899 H   0  0  0  0  0  0  0  0  0  0  0  0
  151.2176  138.2121  159.2910 H   0  0  0  0  0  0  0  0  0  0  0  0
  150.8714  138.9755  153.5999 H   0  0  0  0  0  0  0  0  0  0  0  0
  151.7831  136.8667  154.2904 H   0  0  0  0  0  0  0  0  0  0  0  0
  151.1880  140.4694  159.6100 H   0  0  0  0  0  0  0  0  0  0  0  0
  152.9704  141.6238  161.2996 H   0  0  0  0  0  0  0  0  0  0  0  0
  153.6612  142.0093  159.7408 H   0  0  0  0  0  0  0  0  0  0  0  0
  150.7053  142.5768  160.0868 H   0  0  0  0  0  0  0  0  0  0  0  0
  151.2774  143.8132  162.0493 H   0  0  0  0  0  0  0  0  0  0  0  0
  152.9213  144.1084  161.4866 H   0  0  0  0  0  0  0  0  0  0  0  0
  150.5444  145.7251  160.8721 H   0  0  0  0  0  0  0  0  0  0  0  0
  152.2459  146.0612  160.5522 H   0  0  0  0  0  0  0  0  0  0  0  0
  150.2208  144.7195  158.7812 H   0  0  0  0  0  0  0  0  0  0  0  0
  151.6568  145.6283  158.2967 H   0  0  0  0  0  0  0  0  0  0  0  0
  1  2  2  0  0  0  0
  2  3  1  0  0  0  0
  2 12  1  0  0  0  0
  3 19  1  0  0  0  0
  3 20  1  0  0  0  0
  3  4  1  0  0  0  0
  4  5  1  0  0  0  0
  4 10  1  0  0  0  0
  5  6  1  0  0  0  0
  6  7  2  0  0  0  0
  6  8  1  0  0  0  0
  8 21  1  0  0  0  0
  8  9  2  0  0  0  0
  9 22  1  0  0  0  0
  9 10  1  0  0  0  0
 10 11  2  0  0  0  0
 12 13  1  0  0  0  0
 12 23  1  0  0  0  0
 13 14  1  0  0  0  0
 13 24  1  0  0  0  0
 13 25  1  0  0  0  0
 14 18  1  0  0  0  0
 14 15  1  0  0  0  0
 14 26  1  0  0  0  0
 15 16  1  0  0  0  0
 15 27  1  0  0  0  0
 15 28  1  0  0  0  0
 16 17  1  0  0  0  0
 16 29  1  0  0  0  0
 16 30  1  0  0  0  0
 17 18  1  0  0  0  0
 17 31  1  0  0  0  0
 17 32  1  0  0  0  0
M  CHG  1   5  -1
M  END
> <s_m_source_file>
AV-unprocessed.smi

> <i_m_source_file_index>
1510

> <i_lp_mmshare_version>
43012

> <i_f3d_flags>
0

> <s_epik_input>
TzFbQ0gyXVtDSDJdW0NIMl1bQ0BIXTFbQ0gyXVtOSF1DKD1PKVtDSDJdbjJbbkhdYyg9TylbY0hdW2NIXWMyPU8=

> <s_epik_cmdline>
J2VwaWtfcHl0aG9uJywgJy1waCcsICc3LjAnLCAnLXRuJywgJzgnLCAnLW1hJywgJzIwMCcsICctbWV0YWxfYmluZGluZycsICctaW1hZScsICc8aW5maWxlLm1hZT4nLCAnLW9tYWUnLCAnPG91dGZpbGUubWFlPic=

> <r_lp_tautomer_probability>
1

> <r_epik_Ionization_Penalty>
0.0970799

> <r_epik_Ionization_Penalty_Charging>
0.0970799

> <r_epik_Ionization_Penalty_Neutral>
2.6859e-08

> <r_epik_State_Penalty>
0.0341592

> <r_epik_Charging_Adjusted_Penalty>
0.131239

> <i_epik_Tot_Q>
-1

> <i_epik_Tot_abs_Q>
1

> <r_epik_Metal_State_Penalty>
0.0341592

> <b_epik_Metal_Only>
0

> <s_lp_Force_Field>
OPLS_2005

> <r_lp_Energy>
32.1041

> <b_lp_Chiralities_Consistent>
1

> <s_lp_Variant>
AV-unprocessed.smi:1510-2

> <Gold.Version>
5.8.1

> <Gold.Id.Protein>
6NUR|6NUR_protein|mol2

> <Gold.PLP.Fitness>
41.9841

> <Gold.PLP.PLP>
-36.3219

> <Gold.PLP.part.hbond>
-3.0000

> <Gold.PLP.part.metal>
0.0000

> <Gold.PLP.part.buried>
-5.9047

> <Gold.PLP.part.nonpolar>
-28.4871

> <Gold.PLP.part.repulsive>
0.2498

> <Gold.PLP.ligand.clash>
0.0000

> <Gold.PLP.ligand.torsion>
1.0306

> <Gold.PLP.Chemscore.Hbond>
2.5712

> <Gold.PLP.Chemscore.CHOScore>
0.0000

> <Gold.PLP.Chemscore.Metal>
0.0000

> <Gold.Chemscore.Hbonds>
donor molecule, donor type, donor heavy atom, donor atom, acceptor molecule, acceptor atom, score
      P1  H  7989  7998       L1     7  0.38
      P1  H  7997  8010       L1     1  0.46
      P1  H 10752 10765       L1    11  1.00

> <Gold.PLP.Chemscore.Internal.Correction>
0.0099

> <Gold.Rescore>
     Score         DG    S(hbond)    S(metal)    S(lipo)     H(rot)  DE(clash)    DE(int)     intcor
     14.81     -15.35       1.98        0.00      72.64       2.05       0.01       0.54       ----

> <Gold.Chemscore.Fitness>
14.8051

> <Gold.Chemscore.DG>
-15.3524

> <Gold.Chemscore.ZeroCoef>
-5.4800

> <Gold.Chemscore.Hbond>
1.9798

> <Gold.Chemscore.Metal>
0.0000

> <Gold.Chemscore.Lipo>
72.6357

> <Gold.Chemscore.Internal_Hbond>
0.0000

> <Gold.Chemscore.DEClash>
0.0073

> <Gold.Chemscore.DEInternal>
0.5400

> <Gold.Chemscore.Rot>
2.0463

> <Gold.Chemscore.Internal.Correction>
   9.000000E+99

> <Gold.Chemscore.Hbonds>
donor molecule, donor type, donor heavy atom, donor atom, acceptor molecule, acceptor atom, score
      P1  H  7989  7998       L1     7  0.02
      P1  H  7997  8010       L1     1  0.25
      P1  H 10752 10765       L1    11  0.43

> <Gold.Chemscore.Hbond.Weighted>
-6.6126

> <Gold.Chemscore.Metal.Weighted>
-0.0000

> <Gold.Chemscore.Lipo.Weighted>
-8.4984

> <Gold.Chemscore.Internal_Hbond.Weighted>
0.0000

> <Gold.Chemscore.DEClash.Weighted>
0.0073

> <Gold.Chemscore.DEInternal.Weighted>
0.5400

> <Gold.Chemscore.Rot.Weighted>
5.2386

> <Gold.Chemscore.Internal.Correction.Weighted>
   9.000000E+99

> <Gold.Protein.RotatedTorsions>
[ 6907 6896 6895 6894 ] final  171.94 input  -60.11 | X-H torsion
[ 7974 7965 7964 7962 ] final   62.00 input  175.53 | X-H torsion
[ 8008 7997 7996 7995 ] final   16.51 input   59.86 | X-H torsion
[ 10167 10162 10161 10158 ] final  -77.03 input  -65.29 | X-H torsion
[ 10718 10713 10712 10709 ] final   89.62 input   66.30 | X-H torsion
[ 10763 10752 10751 10750 ] final -149.04 input  -60.55 | X-H torsion
[ 11005 11000 10999 10996 ] final  -34.34 input  -57.11 | X-H torsion

> <Gold.Protein.ActiveResidues>
 VAL166  LYS551  ARG553  GLY616  TRP617  ASP618  TYR619  PRO620  LYS621  CYS622 
 ASP623  PHE694  ASN695  SER759  ASP760  ASP761  ALA762  ILE779  LEU786  VAL792 
 PHE793  MET794  SER795  GLU796  ALA797  LYS798  CYS799  TRP800  GLU811  SER814 

> <Gold.Protein.RotatedAtoms>
  151.7922  133.3360  159.3502 H   0  0  0  0  0  0  0  0  0  0  0  0  # atno 6907 bound_to 6896
  150.7388  134.5832  159.5958 H   0  0  0  0  0  0  0  0  0  0  0  0  # atno 6908 bound_to 6896
  152.3202  134.7391  160.0367 H   0  0  0  0  0  0  0  0  0  0  0  0  # atno 6909 bound_to 6896
  145.8783  139.3425  143.0721 H   0  0  0  0  0  0  0  0  0  0  0  0  # atno 7974 bound_to 7965
  154.8779  140.2968  155.5442 H   0  0  0  0  0  0  0  0  0  0  0  0  # atno 8008 bound_to 7997
  156.3022  140.2448  156.3711 H   0  0  0  0  0  0  0  0  0  0  0  0  # atno 8009 bound_to 7997
  154.8747  140.0400  157.1735 H   0  0  0  0  0  0  0  0  0  0  0  0  # atno 8010 bound_to 7997
  140.4806  143.2403  151.8064 H   0  0  0  0  0  0  0  0  0  0  0  0  # atno 10167 bound_to 10162
  157.6956  131.0340  150.3453 H   0  0  0  0  0  0  0  0  0  0  0  0  # atno 10718 bound_to 10713
  154.8200  135.3319  154.7066 H   0  0  0  0  0  0  0  0  0  0  0  0  # atno 10763 bound_to 10752
  153.7701  135.6926  153.4912 H   0  0  0  0  0  0  0  0  0  0  0  0  # atno 10764 bound_to 10752
  153.2051  135.4502  155.0261 H   0  0  0  0  0  0  0  0  0  0  0  0  # atno 10765 bound_to 10752
  140.9708  133.7110  156.1521 H   0  0  0  0  0  0  0  0  0  0  0  0  # atno 11005 bound_to 11000
  145.9054  140.9215  143.0481 LP  0  0  0  0  0  0  0  0  0  0  0  0  # atno 17320 bound_to 7965
  144.6726  140.1089  143.7456 LP  0  0  0  0  0  0  0  0  0  0  0  0  # atno 17321 bound_to 7965
  139.4833  144.4777  151.9346 LP  0  0  0  0  0  0  0  0  0  0  0  0  # atno 17342 bound_to 10162
  140.3863  144.2673  150.5903 LP  0  0  0  0  0  0  0  0  0  0  0  0  # atno 17343 bound_to 10162
  156.3908  130.3897  149.7031 LP  0  0  0  0  0  0  0  0  0  0  0  0  # atno 17370 bound_to 10713
  156.4381  130.7848  151.2869 LP  0  0  0  0  0  0  0  0  0  0  0  0  # atno 17371 bound_to 10713
  140.7331  134.4233  157.5563 LP  0  0  0  0  0  0  0  0  0  0  0  0  # atno 17394 bound_to 11000
  139.8912  134.8786  156.2333 LP  0  0  0  0  0  0  0  0  0  0  0  0  # atno 17395 bound_to 11000

$$$$
