AV-unprocessed.smi:1703|AV-procd|sdf|6867|dock6
  -GOLD-   22720 8 63D 1   1.00000     0.00000
 Structure written by MMmdl.
 49 51  0  0  0  0  0  0  0  0  2 V2000
  145.7489  133.3526  153.4205 C   0  0  0  0  0  0  0  0  0  0  0  0
  144.9845  133.9989  152.2526 C   0  0  2  0  0  0  0  0  0  0  0  0
  145.6211  135.3150  151.7629 C   0  0  0  0  0  0  0  0  0  0  0  0
  145.4018  136.4257  152.6880 N   0  0  0  0  0  0  0  0  0  0  0  0
  145.9842  137.6821  152.2144 C   0  0  0  0  0  0  0  0  0  0  0  0
  146.5951  138.5869  153.3039 C   0  0  2  0  0  0  0  0  0  0  0  0
  145.5778  139.4161  153.8306 O   0  0  0  0  0  0  0  0  0  0  0  0
  147.7283  139.4629  152.7364 C   0  0  0  0  0  0  0  0  0  0  0  0
  148.3015  140.3749  153.7400 N   0  0  0  0  0  0  0  0  0  0  0  0
  147.8431  141.5799  154.1862 C   0  0  0  0  0  0  0  0  0  0  0  0
  146.6024  142.2818  153.7328 C   0  0  0  0  0  0  0  0  0  0  0  0
  145.7066  142.5704  154.7858 O   0  0  0  0  0  0  0  0  0  0  0  0
  148.7303  142.0267  155.1203 N   0  3  0  0  0  0  0  0  0  0  0  0
  149.7650  141.1036  155.2716 C   0  0  0  0  0  0  0  0  0  0  0  0
  150.8861  141.1204  156.0956 C   0  0  0  0  0  0  0  0  0  0  0  0
  151.7568  140.0151  156.0017 C   0  0  0  0  0  0  0  0  0  0  0  0
  151.4977  138.9504  155.1145 C   0  0  0  0  0  0  0  0  0  0  0  0
  150.3563  138.9437  154.2858 C   0  0  0  0  0  0  0  0  0  0  0  0
  149.4985  140.0395  154.3854 C   0  0  0  0  0  0  0  0  0  0  0  0
  143.9699  136.5699  152.9180 C   0  0  0  0  0  0  0  0  0  0  0  0
  143.3400  135.2770  153.4666 C   0  0  1  0  0  0  0  0  0  0  0  0
  141.8209  135.3991  153.6255 C   0  0  0  0  0  0  0  0  0  0  0  0
  143.6061  134.2021  152.5674 O   0  0  0  0  0  0  0  0  0  0  0  0
  146.7692  133.1064  153.1263 H   0  0  0  0  0  0  0  0  0  0  0  0
  145.2646  132.4293  153.7384 H   0  0  0  0  0  0  0  0  0  0  0  0
  145.8114  134.0128  154.2853 H   0  0  0  0  0  0  0  0  0  0  0  0
  145.0077  133.2881  151.4262 H   0  0  0  0  0  0  0  0  0  0  0  0
  146.6851  135.1475  151.6034 H   0  0  0  0  0  0  0  0  0  0  0  0
  145.2000  135.5680  150.7886 H   0  0  0  0  0  0  0  0  0  0  0  0
  146.7466  137.4581  151.4666 H   0  0  0  0  0  0  0  0  0  0  0  0
  145.2198  138.2577  151.6904 H   0  0  0  0  0  0  0  0  0  0  0  0
  147.0034  137.9906  154.1182 H   0  0  0  0  0  0  0  0  0  0  0  0
  144.9011  139.5121  153.1782 H   0  0  0  0  0  0  0  0  0  0  0  0
  148.5406  138.8288  152.3799 H   0  0  0  0  0  0  0  0  0  0  0  0
  147.3939  140.0351  151.8711 H   0  0  0  0  0  0  0  0  0  0  0  0
  146.8791  143.2144  153.2409 H   0  0  0  0  0  0  0  0  0  0  0  0
  146.0895  141.6646  152.9950 H   0  0  0  0  0  0  0  0  0  0  0  0
  146.1462  143.1280  155.4098 H   0  0  0  0  0  0  0  0  0  0  0  0
  151.0871  141.9362  156.7744 H   0  0  0  0  0  0  0  0  0  0  0  0
  152.6417  139.9842  156.6211 H   0  0  0  0  0  0  0  0  0  0  0  0
  152.1892  138.1217  155.0672 H   0  0  0  0  0  0  0  0  0  0  0  0
  150.1729  138.1237  153.6082 H   0  0  0  0  0  0  0  0  0  0  0  0
  143.7905  137.3812  153.6246 H   0  0  0  0  0  0  0  0  0  0  0  0
  143.4737  136.8524  151.9880 H   0  0  0  0  0  0  0  0  0  0  0  0
  143.7693  135.0483  154.4423 H   0  0  0  0  0  0  0  0  0  0  0  0
  141.5622  136.2034  154.3143 H   0  0  0  0  0  0  0  0  0  0  0  0
  141.3947  134.4755  154.0177 H   0  0  0  0  0  0  0  0  0  0  0  0
  141.3399  135.6090  152.6696 H   0  0  0  0  0  0  0  0  0  0  0  0
  148.6286  142.9040  155.6145 H   0  0  0  0  0  0  0  0  0  0  0  0
  1  2  1  0  0  0  0
  1 24  1  0  0  0  0
  1 25  1  0  0  0  0
  1 26  1  0  0  0  0
  2 23  1  0  0  0  0
  2  3  1  0  0  0  0
  2 27  1  0  0  0  0
  3  4  1  0  0  0  0
  3 28  1  0  0  0  0
  3 29  1  0  0  0  0
  4  5  1  0  0  0  0
  4 20  1  0  0  0  0
  5  6  1  0  0  0  0
  5 30  1  0  0  0  0
  5 31  1  0  0  0  0
  6  7  1  0  0  0  0
  6  8  1  0  0  0  0
  6 32  1  0  0  0  0
  7 33  1  0  0  0  0
  8  9  1  0  0  0  0
  8 34  1  0  0  0  0
  8 35  1  0  0  0  0
  9 19  1  0  0  0  0
  9 10  1  0  0  0  0
 10 11  1  0  0  0  0
 10 13  2  0  0  0  0
 11 12  1  0  0  0  0
 11 36  1  0  0  0  0
 11 37  1  0  0  0  0
 12 38  1  0  0  0  0
 13 14  1  0  0  0  0
 13 49  1  0  0  0  0
 14 19  2  0  0  0  0
 14 15  1  0  0  0  0
 15 16  2  0  0  0  0
 15 39  1  0  0  0  0
 16 17  1  0  0  0  0
 16 40  1  0  0  0  0
 17 18  2  0  0  0  0
 17 41  1  0  0  0  0
 18 19  1  0  0  0  0
 18 42  1  0  0  0  0
 20 21  1  0  0  0  0
 20 43  1  0  0  0  0
 20 44  1  0  0  0  0
 21 22  1  0  0  0  0
 21 23  1  0  0  0  0
 21 45  1  0  0  0  0
 22 46  1  0  0  0  0
 22 47  1  0  0  0  0
 22 48  1  0  0  0  0
M  CHG  1  13   1
M  END
> <s_m_source_file>
AV-unprocessed.smi

> <i_m_source_file_index>
1703

> <i_lp_mmshare_version>
43012

> <i_f3d_flags>
0

> <s_epik_input>
W0NIM11bQ0BASF0xW0NIMl1OKFtDSDJdW0NASF0oTzEpW0NIM10pW0NIMl1bQ0BIXShbT0hdKVtDSDJdbihjKG4yKVtDSDJdW09IXSljKGMyMylbY0hdW2NIXVtjSF1bY0hdMw==

> <s_epik_cmdline>
J2VwaWtfcHl0aG9uJywgJy1waCcsICc3LjAnLCAnLXRuJywgJzgnLCAnLW1hJywgJzIwMCcsICctbWV0YWxfYmluZGluZycsICctaW1hZScsICc8aW5maWxlLm1hZT4nLCAnLW9tYWUnLCAnPG91dGZpbGUubWFlPic=

> <r_epik_Ionization_Penalty>
1.7682

> <r_epik_Ionization_Penalty_Charging>
1.55298

> <r_epik_Ionization_Penalty_Neutral>
0.215215

> <r_epik_State_Penalty>
1.83821

> <r_epik_Charging_Adjusted_Penalty>
3.39119

> <i_epik_Tot_Q>
1

> <i_epik_Tot_abs_Q>
1

> <r_epik_Metal_State_Penalty>
5.89206

> <b_epik_Metal_Only>
0

> <s_lp_Force_Field>
OPLS_2005

> <r_lp_Energy>
34.6201

> <b_lp_Chiralities_Consistent>
1

> <s_lp_Variant>
AV-unprocessed.smi:1703-15

> <Gold.Version>
5.8.1

> <Gold.Id.Protein>
6NUR|6NUR_protein|mol2

> <Gold.PLP.Fitness>
49.1827

> <Gold.PLP.PLP>
-42.8722

> <Gold.PLP.part.hbond>
-1.8541

> <Gold.PLP.part.metal>
0.0000

> <Gold.PLP.part.buried>
0.4032

> <Gold.PLP.part.nonpolar>
-42.1336

> <Gold.PLP.part.repulsive>
0.4948

> <Gold.PLP.ligand.clash>
0.0000

> <Gold.PLP.ligand.torsion>
1.1124

> <Gold.PLP.Chemscore.Hbond>
2.8240

> <Gold.PLP.Chemscore.CHOScore>
0.0000

> <Gold.PLP.Chemscore.Metal>
0.0000

> <Gold.Chemscore.Hbonds>
donor molecule, donor type, donor heavy atom, donor atom, acceptor molecule, acceptor atom, score
      L1  H     7    33       P1 10175  0.98
      L1  H    13    49       P1  8028  1.95

> <Gold.PLP.Chemscore.Internal.Correction>
0.0634

> <Gold.Rescore>
     Score         DG    S(hbond)    S(metal)    S(lipo)     H(rot)  DE(clash)    DE(int)     intcor
     12.15     -15.34       1.84        0.00      96.27       2.96       2.12       1.07       ----

> <Gold.Chemscore.Fitness>
12.1497

> <Gold.Chemscore.DG>
-15.3354

> <Gold.Chemscore.ZeroCoef>
-5.4800

> <Gold.Chemscore.Hbond>
1.8438

> <Gold.Chemscore.Metal>
0.0000

> <Gold.Chemscore.Lipo>
96.2653

> <Gold.Chemscore.Internal_Hbond>
0.0000

> <Gold.Chemscore.DEClash>
2.1194

> <Gold.Chemscore.DEInternal>
1.0663

> <Gold.Chemscore.Rot>
2.9555

> <Gold.Chemscore.Internal.Correction>
   9.000000E+99

> <Gold.Chemscore.Hbonds>
donor molecule, donor type, donor heavy atom, donor atom, acceptor molecule, acceptor atom, score
      L1  H     7    33       P1 10175  0.93
      L1  H    13    49       P1  8028  0.93

> <Gold.Chemscore.Hbond.Weighted>
-6.1584

> <Gold.Chemscore.Metal.Weighted>
-0.0000

> <Gold.Chemscore.Lipo.Weighted>
-11.2630

> <Gold.Chemscore.Internal_Hbond.Weighted>
0.0000

> <Gold.Chemscore.DEClash.Weighted>
2.1194

> <Gold.Chemscore.DEInternal.Weighted>
1.0663

> <Gold.Chemscore.Rot.Weighted>
7.5660

> <Gold.Chemscore.Internal.Correction.Weighted>
   9.000000E+99

> <Gold.Protein.RotatedTorsions>
[ 6907 6896 6895 6894 ] final -125.43 input  -60.11 | X-H torsion
[ 7974 7965 7964 7962 ] final -161.39 input  175.53 | X-H torsion
[ 8008 7997 7996 7995 ] final   90.04 input   59.86 | X-H torsion
[ 10167 10162 10161 10158 ] final  -22.34 input  -65.29 | X-H torsion
[ 10718 10713 10712 10709 ] final  162.72 input   66.30 | X-H torsion
[ 10763 10752 10751 10750 ] final   75.46 input  -60.55 | X-H torsion
[ 11005 11000 10999 10996 ] final   79.01 input  -57.11 | X-H torsion

> <Gold.Protein.ActiveResidues>
 VAL166  LYS551  ARG553  GLY616  TRP617  ASP618  TYR619  PRO620  LYS621  CYS622 
 ASP623  PHE694  ASN695  SER759  ASP760  ASP761  ALA762  ILE779  LEU786  VAL792 
 PHE793  MET794  SER795  GLU796  ALA797  LYS798  CYS799  TRP800  GLU811  SER814 

> <Gold.Protein.RotatedAtoms>
  150.8867  133.7298  159.2916 H   0  0  0  0  0  0  0  0  0  0  0  0  # atno 6907 bound_to 6896
  151.4861  135.1053  159.9800 H   0  0  0  0  0  0  0  0  0  0  0  0  # atno 6908 bound_to 6896
  152.4794  133.8172  159.7090 H   0  0  0  0  0  0  0  0  0  0  0  0  # atno 6909 bound_to 6896
  144.7393  140.3405  143.6135 H   0  0  0  0  0  0  0  0  0  0  0  0  # atno 7974 bound_to 7965
  156.0072  140.3354  155.6904 H   0  0  0  0  0  0  0  0  0  0  0  0  # atno 8008 bound_to 7997
  155.6208  140.0675  157.2696 H   0  0  0  0  0  0  0  0  0  0  0  0  # atno 8009 bound_to 7997
  154.4269  140.1777  156.1358 H   0  0  0  0  0  0  0  0  0  0  0  0  # atno 8010 bound_to 7997
  140.7285  143.4543  151.0470 H   0  0  0  0  0  0  0  0  0  0  0  0  # atno 10167 bound_to 10162
  157.1186  131.0486  151.2425 H   0  0  0  0  0  0  0  0  0  0  0  0  # atno 10718 bound_to 10713
  153.0656  135.4988  154.8193 H   0  0  0  0  0  0  0  0  0  0  0  0  # atno 10763 bound_to 10752
  154.6949  135.2991  154.9428 H   0  0  0  0  0  0  0  0  0  0  0  0  # atno 10764 bound_to 10752
  154.0171  135.6747  153.4822 H   0  0  0  0  0  0  0  0  0  0  0  0  # atno 10765 bound_to 10752
  139.9190  134.7809  156.1723 H   0  0  0  0  0  0  0  0  0  0  0  0  # atno 11005 bound_to 11000
  145.7379  139.1755  143.2392 LP  0  0  0  0  0  0  0  0  0  0  0  0  # atno 17320 bound_to 7965
  146.1156  140.7373  142.9482 LP  0  0  0  0  0  0  0  0  0  0  0  0  # atno 17321 bound_to 7965
  139.8222  143.7804  152.3177 LP  0  0  0  0  0  0  0  0  0  0  0  0  # atno 17342 bound_to 10162
  139.7891  144.7417  150.9981 LP  0  0  0  0  0  0  0  0  0  0  0  0  # atno 17343 bound_to 10162
  157.4496  130.7591  149.7140 LP  0  0  0  0  0  0  0  0  0  0  0  0  # atno 17370 bound_to 10713
  155.9834  130.4001  150.3367 LP  0  0  0  0  0  0  0  0  0  0  0  0  # atno 17371 bound_to 10713
  141.0693  133.6804  156.2107 LP  0  0  0  0  0  0  0  0  0  0  0  0  # atno 17394 bound_to 11000
  140.6534  134.5044  157.5579 LP  0  0  0  0  0  0  0  0  0  0  0  0  # atno 17395 bound_to 11000

$$$$
