AV-unprocessed.smi:1501|AV-procd|sdf|6066|dock8
  -GOLD-   22720 6183D 1   1.00000     0.00000
 Structure written by MMmdl.
 48 49  0  0  0  0  0  0  0  0  2 V2000
  152.8255  138.2162  159.9013 C   0  0  0  0  0  0  0  0  0  0  0  0
  153.3405  139.5428  160.4306 C   0  0  0  0  0  0  0  0  0  0  0  0
  152.7335  140.6905  159.9004 N   0  0  0  0  0  0  0  0  0  0  0  0
  153.1129  141.8702  160.2898 C   0  0  0  0  0  0  0  0  0  0  0  0
  152.5325  143.0372  159.7852 N   0  0  0  0  0  0  0  0  0  0  0  0
  151.6666  142.9984  158.6043 C   0  0  0  0  0  0  0  0  0  0  0  0
  151.5975  144.3715  157.9154 C   0  0  0  0  0  0  0  0  0  0  0  0
  151.1735  145.3566  158.8482 O   0  0  0  0  0  0  0  0  0  0  0  0
  152.0901  145.4726  159.9278 C   0  0  0  0  0  0  0  0  0  0  0  0
  152.1744  144.1357  160.6830 C   0  0  0  0  0  0  0  0  0  0  0  0
  154.1083  142.0556  161.2367 N   0  5  0  0  0  0  0  0  0  0  0  0
  154.7369  140.9852  161.8006 C   0  0  0  0  0  0  0  0  0  0  0  0
  155.6168  141.1184  162.6505 O   0  0  0  0  0  0  0  0  0  0  0  0
  154.3267  139.6385  161.3660 C   0  0  0  0  0  0  0  0  0  0  0  0
  155.0332  138.4235  161.9633 C   0  0  0  0  0  0  0  0  0  0  0  0
  154.1039  137.6072  162.8819 C   0  0  0  0  0  0  0  0  0  0  0  0
  154.8586  136.7939  163.9379 C   0  0  0  0  0  0  0  0  0  0  0  0
  155.3692  137.3474  164.9124 O   0  0  0  0  0  0  0  0  0  0  0  0
  154.9314  135.4713  163.7248 N   0  0  0  0  0  0  0  0  0  0  0  0
  155.6144  134.5186  164.5944 C   0  0  0  0  0  0  0  0  0  0  0  0
  154.7175  133.3269  164.9918 C   0  0  0  0  0  0  0  0  0  0  0  0
  154.0132  132.7422  163.7588 C   0  0  0  0  0  0  0  0  0  0  0  0
  153.6934  133.7035  166.0761 C   0  0  0  0  0  0  0  0  0  0  0  0
  152.5469  137.5558  160.7227 H   0  0  0  0  0  0  0  0  0  0  0  0
  153.5915  137.7235  159.3024 H   0  0  0  0  0  0  0  0  0  0  0  0
  151.9455  138.3572  159.2725 H   0  0  0  0  0  0  0  0  0  0  0  0
  152.0075  142.2581  157.8802 H   0  0  0  0  0  0  0  0  0  0  0  0
  150.6683  142.6908  158.9175 H   0  0  0  0  0  0  0  0  0  0  0  0
  152.5667  144.6437  157.4949 H   0  0  0  0  0  0  0  0  0  0  0  0
  150.8889  144.3399  157.0877 H   0  0  0  0  0  0  0  0  0  0  0  0
  153.0721  145.7717  159.5573 H   0  0  0  0  0  0  0  0  0  0  0  0
  151.7502  146.2610  160.5991 H   0  0  0  0  0  0  0  0  0  0  0  0
  151.2164  143.9104  161.1528 H   0  0  0  0  0  0  0  0  0  0  0  0
  152.9093  144.2270  161.4840 H   0  0  0  0  0  0  0  0  0  0  0  0
  155.4128  137.7933  161.1592 H   0  0  0  0  0  0  0  0  0  0  0  0
  155.9197  138.7457  162.5123 H   0  0  0  0  0  0  0  0  0  0  0  0
  153.4023  138.2779  163.3805 H   0  0  0  0  0  0  0  0  0  0  0  0
  153.5055  136.9171  162.2865 H   0  0  0  0  0  0  0  0  0  0  0  0
  154.4831  135.0990  162.9001 H   0  0  0  0  0  0  0  0  0  0  0  0
  156.5001  134.1583  164.0703 H   0  0  0  0  0  0  0  0  0  0  0  0
  155.9777  135.0343  165.4851 H   0  0  0  0  0  0  0  0  0  0  0  0
  155.3554  132.5412  165.3991 H   0  0  0  0  0  0  0  0  0  0  0  0
  153.3545  133.4756  163.2924 H   0  0  0  0  0  0  0  0  0  0  0  0
  153.4099  131.8737  164.0248 H   0  0  0  0  0  0  0  0  0  0  0  0
  154.7366  132.4206  163.0090 H   0  0  0  0  0  0  0  0  0  0  0  0
  153.0345  134.5034  165.7368 H   0  0  0  0  0  0  0  0  0  0  0  0
  154.1831  134.0397  166.9904 H   0  0  0  0  0  0  0  0  0  0  0  0
  153.0696  132.8489  166.3398 H   0  0  0  0  0  0  0  0  0  0  0  0
  1  2  1  0  0  0  0
  1 24  1  0  0  0  0
  1 25  1  0  0  0  0
  1 26  1  0  0  0  0
  2 14  2  0  0  0  0
  2  3  1  0  0  0  0
  3  4  2  0  0  0  0
  4  5  1  0  0  0  0
  4 11  1  0  0  0  0
  5 10  1  0  0  0  0
  5  6  1  0  0  0  0
  6  7  1  0  0  0  0
  6 27  1  0  0  0  0
  6 28  1  0  0  0  0
  7  8  1  0  0  0  0
  7 29  1  0  0  0  0
  7 30  1  0  0  0  0
  8  9  1  0  0  0  0
  9 10  1  0  0  0  0
  9 31  1  0  0  0  0
  9 32  1  0  0  0  0
 10 33  1  0  0  0  0
 10 34  1  0  0  0  0
 11 12  1  0  0  0  0
 12 13  2  0  0  0  0
 12 14  1  0  0  0  0
 14 15  1  0  0  0  0
 15 16  1  0  0  0  0
 15 35  1  0  0  0  0
 15 36  1  0  0  0  0
 16 17  1  0  0  0  0
 16 37  1  0  0  0  0
 16 38  1  0  0  0  0
 17 18  2  0  0  0  0
 17 19  1  0  0  0  0
 19 20  1  0  0  0  0
 19 39  1  0  0  0  0
 20 21  1  0  0  0  0
 20 40  1  0  0  0  0
 20 41  1  0  0  0  0
 21 22  1  0  0  0  0
 21 23  1  0  0  0  0
 21 42  1  0  0  0  0
 22 43  1  0  0  0  0
 22 44  1  0  0  0  0
 22 45  1  0  0  0  0
 23 46  1  0  0  0  0
 23 47  1  0  0  0  0
 23 48  1  0  0  0  0
M  CHG  1  11  -1
M  END
> <s_m_source_file>
AV-unprocessed.smi

> <i_m_source_file_index>
1501

> <i_lp_mmshare_version>
43012

> <i_f3d_flags>
0

> <s_epik_input>
W0NIMl0xW0NIMl1PW0NIMl1bQ0gyXU4xYyhuYzJbQ0gzXSlbbkhdYyg9TyljMltDSDJdW0NIMl1DKD1PKVtOSF1bQ0gyXVtDSF0oW0NIM10pW0NIM10=

> <s_epik_cmdline>
J2VwaWtfcHl0aG9uJywgJy1waCcsICc3LjAnLCAnLXRuJywgJzgnLCAnLW1hJywgJzIwMCcsICctbWV0YWxfYmluZGluZycsICctaW1hZScsICc8aW5maWxlLm1hZT4nLCAnLW9tYWUnLCAnPG91dGZpbGUubWFlPic=

> <r_lp_tautomer_probability>
1

> <r_epik_Ionization_Penalty>
5.04715

> <r_epik_Ionization_Penalty_Charging>
9.89309e-08

> <r_epik_Ionization_Penalty_Neutral>
5.04715

> <r_epik_State_Penalty>
2.57778

> <r_epik_Charging_Adjusted_Penalty>
2.57778

> <i_epik_Tot_Q>
-1

> <i_epik_Tot_abs_Q>
1

> <r_epik_Metal_State_Penalty>
0.1232

> <b_epik_Metal_Only>
0

> <s_lp_Force_Field>
OPLS_2005

> <r_lp_Energy>
25.0321

> <b_lp_Chiralities_Consistent>
1

> <s_lp_Variant>
AV-unprocessed.smi:1501-3

> <Gold.Version>
5.8.1

> <Gold.Id.Protein>
6NUR|6NUR_protein|mol2

> <Gold.PLP.Fitness>
48.3637

> <Gold.PLP.PLP>
-49.9021

> <Gold.PLP.part.hbond>
-2.1544

> <Gold.PLP.part.metal>
0.0000

> <Gold.PLP.part.buried>
-5.1328

> <Gold.PLP.part.nonpolar>
-42.9380

> <Gold.PLP.part.repulsive>
0.2414

> <Gold.PLP.ligand.clash>
0.0000

> <Gold.PLP.ligand.torsion>
0.9211

> <Gold.PLP.Chemscore.Hbond>
0.0000

> <Gold.PLP.Chemscore.CHOScore>
0.0000

> <Gold.PLP.Chemscore.Metal>
0.0000

> <Gold.PLP.Chemscore.Internal.Correction>
0.3038

> <Gold.Rescore>
     Score         DG    S(hbond)    S(metal)    S(lipo)     H(rot)  DE(clash)    DE(int)     intcor
     12.48     -13.02       0.00        0.00     103.59       1.79       0.15       0.40       ----

> <Gold.Chemscore.Fitness>
12.4767

> <Gold.Chemscore.DG>
-13.0235

> <Gold.Chemscore.ZeroCoef>
-5.4800

> <Gold.Chemscore.Hbond>
0.0000

> <Gold.Chemscore.Metal>
0.0000

> <Gold.Chemscore.Lipo>
103.5859

> <Gold.Chemscore.Internal_Hbond>
0.0000

> <Gold.Chemscore.DEClash>
0.1461

> <Gold.Chemscore.DEInternal>
0.4008

> <Gold.Chemscore.Rot>
1.7875

> <Gold.Chemscore.Internal.Correction>
   9.000000E+99

> <Gold.Chemscore.Hbond.Weighted>
-0.0000

> <Gold.Chemscore.Metal.Weighted>
-0.0000

> <Gold.Chemscore.Lipo.Weighted>
-12.1195

> <Gold.Chemscore.Internal_Hbond.Weighted>
0.0000

> <Gold.Chemscore.DEClash.Weighted>
0.1461

> <Gold.Chemscore.DEInternal.Weighted>
0.4008

> <Gold.Chemscore.Rot.Weighted>
4.5760

> <Gold.Chemscore.Internal.Correction.Weighted>
   9.000000E+99

> <Gold.Protein.RotatedTorsions>
[ 6907 6896 6895 6894 ] final   67.60 input  -60.11 | X-H torsion
[ 7974 7965 7964 7962 ] final   19.32 input  175.53 | X-H torsion
[ 8008 7997 7996 7995 ] final  -98.73 input   59.86 | X-H torsion
[ 10167 10162 10161 10158 ] final  119.29 input  -65.29 | X-H torsion
[ 10718 10713 10712 10709 ] final   40.04 input   66.30 | X-H torsion
[ 10763 10752 10751 10750 ] final  -41.82 input  -60.55 | X-H torsion
[ 11005 11000 10999 10996 ] final  108.42 input  -57.11 | X-H torsion

> <Gold.Protein.ActiveResidues>
 VAL166  LYS551  ARG553  GLY616  TRP617  ASP618  TYR619  PRO620  LYS621  CYS622 
 ASP623  PHE694  ASN695  SER759  ASP760  ASP761  ALA762  ILE779  LEU786  VAL792 
 PHE793  MET794  SER795  GLU796  ALA797  LYS798  CYS799  TRP800  GLU811  SER814 

> <Gold.Protein.RotatedAtoms>
  152.4563  134.5284  159.9803 H   0  0  0  0  0  0  0  0  0  0  0  0  # atno 6907 bound_to 6896
  151.5344  133.3437  159.2932 H   0  0  0  0  0  0  0  0  0  0  0  0  # atno 6908 bound_to 6896
  150.8509  134.7863  159.7070 H   0  0  0  0  0  0  0  0  0  0  0  0  # atno 6909 bound_to 6896
  146.2153  139.8330  142.8656 H   0  0  0  0  0  0  0  0  0  0  0  0  # atno 7974 bound_to 7965
  154.8051  140.0453  157.1302 H   0  0  0  0  0  0  0  0  0  0  0  0  # atno 8008 bound_to 7997
  154.9433  140.3055  155.5090 H   0  0  0  0  0  0  0  0  0  0  0  0  # atno 8009 bound_to 7997
  156.2966  140.2301  156.4504 H   0  0  0  0  0  0  0  0  0  0  0  0  # atno 8010 bound_to 7997
  139.6056  144.7069  151.2962 H   0  0  0  0  0  0  0  0  0  0  0  0  # atno 10167 bound_to 10162
  157.3776  130.7735  149.7167 H   0  0  0  0  0  0  0  0  0  0  0  0  # atno 10718 bound_to 10713
  153.9688  135.6731  153.4746 H   0  0  0  0  0  0  0  0  0  0  0  0  # atno 10763 bound_to 10752
  153.0803  135.4927  154.8485 H   0  0  0  0  0  0  0  0  0  0  0  0  # atno 10764 bound_to 10752
  154.7231  135.3121  154.8976 H   0  0  0  0  0  0  0  0  0  0  0  0  # atno 10765 bound_to 10752
  139.8844  134.9430  156.5970 H   0  0  0  0  0  0  0  0  0  0  0  0  # atno 11005 bound_to 11000
  145.2977  141.0185  143.3626 LP  0  0  0  0  0  0  0  0  0  0  0  0  # atno 17320 bound_to 7965
  144.9029  139.4626  143.6624 LP  0  0  0  0  0  0  0  0  0  0  0  0  # atno 17321 bound_to 7965
  140.7282  143.6942  150.7897 LP  0  0  0  0  0  0  0  0  0  0  0  0  # atno 17342 bound_to 10162
  140.0527  143.5234  152.2666 LP  0  0  0  0  0  0  0  0  0  0  0  0  # atno 17343 bound_to 10162
  155.9768  130.4070  150.3751 LP  0  0  0  0  0  0  0  0  0  0  0  0  # atno 17370 bound_to 10713
  157.1850  131.0401  151.2729 LP  0  0  0  0  0  0  0  0  0  0  0  0  # atno 17371 bound_to 10713
  140.7912  133.8580  155.8648 LP  0  0  0  0  0  0  0  0  0  0  0  0  # atno 17394 bound_to 11000
  140.9675  134.1574  157.4604 LP  0  0  0  0  0  0  0  0  0  0  0  0  # atno 17395 bound_to 11000

$$$$
