AV-unprocessed.smi:568|AV-procd|sdf|2957|dock9
  -GOLD-   2262023463D 1   1.00000     0.00000
 Structure written by MMmdl.
 35 36  0  0  0  0  0  0  0  0  1 V2000
  152.0238  138.1319  159.6008 C   0  0  0  0  0  0  0  0  0  0  0  0
  153.1397  137.4712  160.3581 C   0  0  0  0  0  0  0  0  0  0  0  0
  153.3093  136.1638  160.2551 N   0  0  0  0  0  0  0  0  0  0  0  0
  154.4087  135.8552  161.0616 O   0  0  0  0  0  0  0  0  0  0  0  0
  154.8648  137.0027  161.6244 C   0  0  0  0  0  0  0  0  0  0  0  0
  156.0450  136.8785  162.5278 C   0  0  0  0  0  0  0  0  0  0  0  0
  154.1057  138.0670  161.2196 C   0  0  0  0  0  0  0  0  0  0  0  0
  154.2448  139.5218  161.5914 C   0  0  0  0  0  0  0  0  0  0  0  0
  154.2177  140.3827  160.3282 C   0  0  0  0  0  0  0  0  0  0  0  0
  154.5970  139.9175  159.2539 O   0  0  0  0  0  0  0  0  0  0  0  0
  153.7593  141.6341  160.4719 N   0  0  0  0  0  0  0  0  0  0  0  0
  153.5975  142.5931  159.3885 C   0  0  0  0  0  0  0  0  0  0  0  0
  152.3215  143.4264  159.5904 C   0  0  2  0  0  0  0  0  0  0  0  0
  152.1310  144.5475  158.5866 C   0  0  0  0  0  0  0  0  0  0  0  0
  151.1243  145.4429  159.3024 C   0  0  0  0  0  0  0  0  0  0  0  0
  151.3725  145.2756  160.6958 O   0  0  0  0  0  0  0  0  0  0  0  0
  152.2847  144.2018  160.9064 C   0  0  0  0  0  0  0  0  0  0  0  0
  151.6923  139.0429  160.0990 H   0  0  0  0  0  0  0  0  0  0  0  0
  151.1579  137.4751  159.5120 H   0  0  0  0  0  0  0  0  0  0  0  0
  152.3429  138.4013  158.5939 H   0  0  0  0  0  0  0  0  0  0  0  0
  156.0265  137.6437  163.3036 H   0  0  0  0  0  0  0  0  0  0  0  0
  156.9721  136.9894  161.9655 H   0  0  0  0  0  0  0  0  0  0  0  0
  156.0597  135.9053  163.0187 H   0  0  0  0  0  0  0  0  0  0  0  0
  153.4425  139.8434  162.2564 H   0  0  0  0  0  0  0  0  0  0  0  0
  155.1750  139.7052  162.1305 H   0  0  0  0  0  0  0  0  0  0  0  0
  153.4716  141.9314  161.3928 H   0  0  0  0  0  0  0  0  0  0  0  0
  154.4710  143.2456  159.3563 H   0  0  0  0  0  0  0  0  0  0  0  0
  153.5544  142.0663  158.4334 H   0  0  0  0  0  0  0  0  0  0  0  0
  151.4494  142.7711  159.5507 H   0  0  0  0  0  0  0  0  0  0  0  0
  153.0681  145.0849  158.4334 H   0  0  0  0  0  0  0  0  0  0  0  0
  151.7738  144.2025  157.6158 H   0  0  0  0  0  0  0  0  0  0  0  0
  151.2112  146.4877  159.0038 H   0  0  0  0  0  0  0  0  0  0  0  0
  150.1063  145.1139  159.0905 H   0  0  0  0  0  0  0  0  0  0  0  0
  151.9801  143.5804  161.7490 H   0  0  0  0  0  0  0  0  0  0  0  0
  153.2643  144.6241  161.1354 H   0  0  0  0  0  0  0  0  0  0  0  0
  1  2  1  0  0  0  0
  1 18  1  0  0  0  0
  1 19  1  0  0  0  0
  1 20  1  0  0  0  0
  2  7  1  0  0  0  0
  2  3  2  0  0  0  0
  3  4  1  0  0  0  0
  4  5  1  0  0  0  0
  5  6  1  0  0  0  0
  5  7  2  0  0  0  0
  6 21  1  0  0  0  0
  6 22  1  0  0  0  0
  6 23  1  0  0  0  0
  7  8  1  0  0  0  0
  8  9  1  0  0  0  0
  8 24  1  0  0  0  0
  8 25  1  0  0  0  0
  9 10  2  0  0  0  0
  9 11  1  0  0  0  0
 11 12  1  0  0  0  0
 11 26  1  0  0  0  0
 12 13  1  0  0  0  0
 12 27  1  0  0  0  0
 12 28  1  0  0  0  0
 13 17  1  0  0  0  0
 13 14  1  0  0  0  0
 13 29  1  0  0  0  0
 14 15  1  0  0  0  0
 14 30  1  0  0  0  0
 14 31  1  0  0  0  0
 15 16  1  0  0  0  0
 15 32  1  0  0  0  0
 15 33  1  0  0  0  0
 16 17  1  0  0  0  0
 17 34  1  0  0  0  0
 17 35  1  0  0  0  0
M  END
> <s_m_source_file>
AV-unprocessed.smi

> <i_m_source_file_index>
568

> <i_lp_mmshare_version>
43012

> <i_f3d_flags>
0

> <s_epik_input>
W0NIM11jMW5vYyhbQ0gzXSljMVtDSDJdQyg9TylbTkhdW0NIMl1bQ0BASF0yW0NIMl1bQ0gyXU9bQ0gyXTI=

> <s_epik_cmdline>
J2VwaWtfcHl0aG9uJywgJy1waCcsICc3LjAnLCAnLXRuJywgJzgnLCAnLW1hJywgJzIwMCcsICctbWV0YWxfYmluZGluZycsICctaW1hZScsICc8aW5maWxlLm1hZT4nLCAnLW9tYWUnLCAnPG91dGZpbGUubWFlPic=

> <r_lp_tautomer_probability>
1

> <r_epik_Ionization_Penalty>
2.07075e-08

> <r_epik_Ionization_Penalty_Charging>
0

> <r_epik_Ionization_Penalty_Neutral>
2.07075e-08

> <r_epik_State_Penalty>
-0

> <r_epik_Charging_Adjusted_Penalty>
0

> <i_epik_Tot_Q>
0

> <i_epik_Tot_abs_Q>
0

> <r_epik_Metal_State_Penalty>
-0

> <b_epik_Metal_Only>
0

> <s_lp_Force_Field>
OPLS_2005

> <r_lp_Energy>
12.0647

> <b_lp_Chiralities_Consistent>
1

> <s_lp_Variant>
AV-unprocessed.smi:568-1

> <Gold.Version>
5.8.1

> <Gold.Id.Protein>
6NUR|6NUR_protein|mol2

> <Gold.PLP.Fitness>
37.8598

> <Gold.PLP.PLP>
-33.1296

> <Gold.PLP.part.hbond>
-2.0000

> <Gold.PLP.part.metal>
0.0000

> <Gold.PLP.part.buried>
-5.4728

> <Gold.PLP.part.nonpolar>
-26.2993

> <Gold.PLP.part.repulsive>
0.4551

> <Gold.PLP.ligand.clash>
0.0000

> <Gold.PLP.ligand.torsion>
0.6405

> <Gold.PLP.Chemscore.Hbond>
2.0000

> <Gold.PLP.Chemscore.CHOScore>
0.0000

> <Gold.PLP.Chemscore.Metal>
0.0000

> <Gold.Chemscore.Hbonds>
donor molecule, donor type, donor heavy atom, donor atom, acceptor molecule, acceptor atom, score
      P1  H  6896  6908       L1     3  1.00
      P1  H  7997  8009       L1    10  1.00

> <Gold.PLP.Chemscore.Internal.Correction>
0.0111

> <Gold.Rescore>
     Score         DG    S(hbond)    S(metal)    S(lipo)     H(rot)  DE(clash)    DE(int)     intcor
     18.36     -18.95       1.97        0.00      92.98       1.56       0.02       0.57       ----

> <Gold.Chemscore.Fitness>
18.3604

> <Gold.Chemscore.DG>
-18.9540

> <Gold.Chemscore.ZeroCoef>
-5.4800

> <Gold.Chemscore.Hbond>
1.9690

> <Gold.Chemscore.Metal>
0.0000

> <Gold.Chemscore.Lipo>
92.9787

> <Gold.Chemscore.Internal_Hbond>
0.0000

> <Gold.Chemscore.DEClash>
0.0202

> <Gold.Chemscore.DEInternal>
0.5734

> <Gold.Chemscore.Rot>
1.5551

> <Gold.Chemscore.Internal.Correction>
   9.000000E+99

> <Gold.Chemscore.Hbonds>
donor molecule, donor type, donor heavy atom, donor atom, acceptor molecule, acceptor atom, score
      P1  H  6896  6908       L1     3  0.94
      P1  H  7997  8009       L1    10  0.94

> <Gold.Chemscore.Hbond.Weighted>
-6.5764

> <Gold.Chemscore.Metal.Weighted>
-0.0000

> <Gold.Chemscore.Lipo.Weighted>
-10.8785

> <Gold.Chemscore.Internal_Hbond.Weighted>
0.0000

> <Gold.Chemscore.DEClash.Weighted>
0.0202

> <Gold.Chemscore.DEInternal.Weighted>
0.5734

> <Gold.Chemscore.Rot.Weighted>
3.9809

> <Gold.Chemscore.Internal.Correction.Weighted>
   9.000000E+99

> <Gold.Protein.RotatedTorsions>
[ 6907 6896 6895 6894 ] final  -86.68 input  -60.11 | X-H torsion
[ 7974 7965 7964 7962 ] final  142.93 input  175.53 | X-H torsion
[ 8008 7997 7996 7995 ] final  113.59 input   59.86 | X-H torsion
[ 10167 10162 10161 10158 ] final -159.18 input  -65.29 | X-H torsion
[ 10718 10713 10712 10709 ] final  114.20 input   66.30 | X-H torsion
[ 10763 10752 10751 10750 ] final  -80.35 input  -60.55 | X-H torsion
[ 11005 11000 10999 10996 ] final  175.59 input  -57.11 | X-H torsion

> <Gold.Protein.ActiveResidues>
 VAL166  LYS551  ARG553  GLY616  TRP617  ASP618  TYR619  PRO620  LYS621  CYS622 
 ASP623  PHE694  ASN695  SER759  ASP760  ASP761  ALA762  ILE779  LEU786  VAL792 
 PHE793  MET794  SER795  GLU796  ALA797  LYS798  CYS799  TRP800  GLU811  SER814 

> <Gold.Protein.RotatedAtoms>
  150.6866  134.3014  159.4707 H   0  0  0  0  0  0  0  0  0  0  0  0  # atno 6907 bound_to 6896
  152.0909  134.9405  160.0581 H   0  0  0  0  0  0  0  0  0  0  0  0  # atno 6908 bound_to 6896
  152.0721  133.4077  159.4501 H   0  0  0  0  0  0  0  0  0  0  0  0  # atno 6909 bound_to 6896
  144.8965  139.5484  143.5774 H   0  0  0  0  0  0  0  0  0  0  0  0  # atno 7974 bound_to 7965
  156.2268  140.2976  156.0086 H   0  0  0  0  0  0  0  0  0  0  0  0  # atno 8008 bound_to 7997
  155.2336  140.0420  157.2982 H   0  0  0  0  0  0  0  0  0  0  0  0  # atno 8009 bound_to 7997
  154.5928  140.2406  155.7905 H   0  0  0  0  0  0  0  0  0  0  0  0  # atno 8010 bound_to 7997
  139.6635  143.9870  152.2240 H   0  0  0  0  0  0  0  0  0  0  0  0  # atno 10167 bound_to 10162
  157.6295  131.0995  150.7151 H   0  0  0  0  0  0  0  0  0  0  0  0  # atno 10718 bound_to 10713
  154.5501  135.5664  153.6914 H   0  0  0  0  0  0  0  0  0  0  0  0  # atno 10763 bound_to 10752
  152.9987  135.6248  154.2386 H   0  0  0  0  0  0  0  0  0  0  0  0  # atno 10764 bound_to 10752
  154.2320  135.2865  155.2866 H   0  0  0  0  0  0  0  0  0  0  0  0  # atno 10765 bound_to 10752
  140.3638  134.7089  157.4348 H   0  0  0  0  0  0  0  0  0  0  0  0  # atno 11005 bound_to 11000
  146.3084  139.7659  142.9038 LP  0  0  0  0  0  0  0  0  0  0  0  0  # atno 17320 bound_to 7965
  145.3691  141.0339  143.3241 LP  0  0  0  0  0  0  0  0  0  0  0  0  # atno 17321 bound_to 7965
  139.9616  144.6554  150.8074 LP  0  0  0  0  0  0  0  0  0  0  0  0  # atno 17342 bound_to 10162
  140.7590  143.3119  151.2825 LP  0  0  0  0  0  0  0  0  0  0  0  0  # atno 17343 bound_to 10162
  156.7493  130.4763  149.5460 LP  0  0  0  0  0  0  0  0  0  0  0  0  # atno 17370 bound_to 10713
  156.1489  130.6296  151.0568 LP  0  0  0  0  0  0  0  0  0  0  0  0  # atno 17371 bound_to 10713
  140.0605  134.6002  155.8754 LP  0  0  0  0  0  0  0  0  0  0  0  0  # atno 17394 bound_to 11000
  141.1976  133.6597  156.5748 LP  0  0  0  0  0  0  0  0  0  0  0  0  # atno 17395 bound_to 11000

$$$$
