AV-unprocessed.smi:33|AV-procd|sdf|212|dock1
  -GOLD-   2262015513D 1   1.00000     0.00000
 Structure written by MMmdl.
 67 72  0  0  0  0  0  0  0  0  1 V2000
  143.9484  131.6141  150.0745 O   0  0  0  0  0  0  0  0  0  0  0  0
  144.7969  131.8550  150.9357 C   0  0  0  0  0  0  0  0  0  0  0  0
  145.0045  133.0801  151.4562 O   0  0  0  0  0  0  0  0  0  0  0  0
  144.6068  134.2348  150.7356 C   0  0  0  0  0  0  0  0  0  0  0  0
  143.7660  135.1341  151.6497 C   0  0  1  0  0  0  0  0  0  0  0  0
  143.8595  134.7110  153.0013 O   0  0  0  0  0  0  0  0  0  0  0  0
  143.4834  135.7694  153.8259 C   0  0  1  0  0  0  0  0  0  0  0  0
  144.3388  135.7354  155.0498 N   0  0  0  0  0  0  0  0  0  0  0  0
  143.9327  135.5323  156.3499 C   0  0  0  0  0  0  0  0  0  0  0  0
  144.8814  135.5739  157.2462 N   0  0  0  0  0  0  0  0  0  0  0  0
  146.0311  135.8171  156.5057 C   0  0  0  0  0  0  0  0  0  0  0  0
  147.4025  135.9866  156.8372 C   0  0  0  0  0  0  0  0  0  0  0  0
  147.8635  135.9368  158.1094 N   0  0  0  0  0  0  0  0  0  0  0  0
  148.9632  136.8470  158.4601 C   0  0  0  0  0  0  0  0  0  0  0  0
  149.7265  136.5524  159.3818 O   0  0  0  0  0  0  0  0  0  0  0  0
  149.1896  138.1059  157.6719 C   0  0  0  0  0  0  0  0  0  0  0  0
  150.5043  138.5512  157.4122 C   0  0  0  0  0  0  0  0  0  0  0  0
  150.7212  139.7385  156.6863 C   0  0  0  0  0  0  0  0  0  0  0  0
  149.6259  140.4974  156.2317 C   0  0  0  0  0  0  0  0  0  0  0  0
  148.3126  140.0740  156.5117 C   0  0  0  0  0  0  0  0  0  0  0  0
  148.0948  138.8871  157.2374 C   0  0  0  0  0  0  0  0  0  0  0  0
  147.2243  134.9753  159.0207 C   0  0  0  0  0  0  0  0  0  0  0  0
  146.6660  133.9787  158.5571 O   0  0  0  0  0  0  0  0  0  0  0  0
  147.2969  135.1672  160.5095 C   0  0  0  0  0  0  0  0  0  0  0  0
  147.2572  134.0466  161.3680 C   0  0  0  0  0  0  0  0  0  0  0  0
  147.3077  134.2195  162.7648 C   0  0  0  0  0  0  0  0  0  0  0  0
  147.3795  135.5143  163.3128 C   0  0  0  0  0  0  0  0  0  0  0  0
  147.3915  136.6372  162.4638 C   0  0  0  0  0  0  0  0  0  0  0  0
  147.3417  136.4652  161.0669 C   0  0  0  0  0  0  0  0  0  0  0  0
  148.2791  136.2196  155.8260 N   0  0  0  0  0  0  0  0  0  0  0  0
  147.8371  136.2864  154.5669 C   0  0  0  0  0  0  0  0  0  0  0  0
  146.5889  136.1552  154.1125 N   0  0  0  0  0  0  0  0  0  0  0  0
  145.7051  135.9180  155.1252 C   0  0  0  0  0  0  0  0  0  0  0  0
  143.7048  137.0778  153.0461 C   0  0  2  0  0  0  0  0  0  0  0  0
  142.4985  137.7903  152.8593 O   0  0  0  0  0  0  0  0  0  0  0  0
  144.2336  136.5893  151.7042 C   0  0  1  0  0  0  0  0  0  0  0  0
  145.5657  136.6641  151.6982 F   0  0  0  0  0  0  0  0  0  0  0  0
  145.7050  130.8198  151.5089 C   0  0  0  0  0  0  0  0  0  0  0  0
  145.7403  129.5307  150.9276 C   0  0  0  0  0  0  0  0  0  0  0  0
  146.5904  128.5338  151.4447 C   0  0  0  0  0  0  0  0  0  0  0  0
  147.4143  128.8130  152.5505 C   0  0  0  0  0  0  0  0  0  0  0  0
  147.3868  130.0907  153.1392 C   0  0  0  0  0  0  0  0  0  0  0  0
  146.5384  131.0895  152.6226 C   0  0  0  0  0  0  0  0  0  0  0  0
  145.4755  134.7796  150.3623 H   0  0  0  0  0  0  0  0  0  0  0  0
  144.0164  133.9224  149.8732 H   0  0  0  0  0  0  0  0  0  0  0  0
  142.7176  135.1103  151.3464 H   0  0  0  0  0  0  0  0  0  0  0  0
  142.4623  135.6372  154.1873 H   0  0  0  0  0  0  0  0  0  0  0  0
  142.8999  135.3602  156.6161 H   0  0  0  0  0  0  0  0  0  0  0  0
  151.3526  137.9769  157.7560 H   0  0  0  0  0  0  0  0  0  0  0  0
  151.7289  140.0675  156.4792 H   0  0  0  0  0  0  0  0  0  0  0  0
  149.7929  141.4074  155.6746 H   0  0  0  0  0  0  0  0  0  0  0  0
  147.4720  140.6603  156.1715 H   0  0  0  0  0  0  0  0  0  0  0  0
  147.0825  138.5753  157.4516 H   0  0  0  0  0  0  0  0  0  0  0  0
  147.2015  133.0481  160.9587 H   0  0  0  0  0  0  0  0  0  0  0  0
  147.2898  133.3579  163.4158 H   0  0  0  0  0  0  0  0  0  0  0  0
  147.4181  135.6462  164.3841 H   0  0  0  0  0  0  0  0  0  0  0  0
  147.4373  137.6310  162.8838 H   0  0  0  0  0  0  0  0  0  0  0  0
  147.3464  137.3351  160.4256 H   0  0  0  0  0  0  0  0  0  0  0  0
  148.5902  136.4745  153.8161 H   0  0  0  0  0  0  0  0  0  0  0  0
  144.4223  137.7251  153.5536 H   0  0  0  0  0  0  0  0  0  0  0  0
  142.7091  138.6928  152.6732 H   0  0  0  0  0  0  0  0  0  0  0  0
  143.8859  137.1769  150.8535 H   0  0  0  0  0  0  0  0  0  0  0  0
  145.1175  129.2931  150.0771 H   0  0  0  0  0  0  0  0  0  0  0  0
  146.6103  127.5538  150.9912 H   0  0  0  0  0  0  0  0  0  0  0  0
  148.0662  128.0485  152.9468 H   0  0  0  0  0  0  0  0  0  0  0  0
  148.0184  130.3065  153.9884 H   0  0  0  0  0  0  0  0  0  0  0  0
  146.5424  132.0594  153.0980 H   0  0  0  0  0  0  0  0  0  0  0  0
  1  2  2  0  0  0  0
  2  3  1  0  0  0  0
  2 38  1  0  0  0  0
  3  4  1  0  0  0  0
  4  5  1  0  0  0  0
  4 44  1  0  0  0  0
  4 45  1  0  0  0  0
  5 36  1  0  0  0  0
  5  6  1  0  0  0  0
  5 46  1  0  0  0  0
  6  7  1  0  0  0  0
  7  8  1  0  0  0  0
  7 34  1  0  0  0  0
  7 47  1  0  0  0  0
  8 33  1  0  0  0  0
  8  9  1  0  0  0  0
  9 10  2  0  0  0  0
  9 48  1  0  0  0  0
 10 11  1  0  0  0  0
 11 33  2  0  0  0  0
 11 12  1  0  0  0  0
 12 13  1  0  0  0  0
 12 30  2  0  0  0  0
 13 14  1  0  0  0  0
 13 22  1  0  0  0  0
 14 15  2  0  0  0  0
 14 16  1  0  0  0  0
 16 21  1  0  0  0  0
 16 17  2  0  0  0  0
 17 18  1  0  0  0  0
 17 49  1  0  0  0  0
 18 19  2  0  0  0  0
 18 50  1  0  0  0  0
 19 20  1  0  0  0  0
 19 51  1  0  0  0  0
 20 21  2  0  0  0  0
 20 52  1  0  0  0  0
 21 53  1  0  0  0  0
 22 23  2  0  0  0  0
 22 24  1  0  0  0  0
 24 29  1  0  0  0  0
 24 25  2  0  0  0  0
 25 26  1  0  0  0  0
 25 54  1  0  0  0  0
 26 27  2  0  0  0  0
 26 55  1  0  0  0  0
 27 28  1  0  0  0  0
 27 56  1  0  0  0  0
 28 29  2  0  0  0  0
 28 57  1  0  0  0  0
 29 58  1  0  0  0  0
 30 31  1  0  0  0  0
 31 32  2  0  0  0  0
 31 59  1  0  0  0  0
 32 33  1  0  0  0  0
 34 35  1  0  0  0  0
 34 36  1  0  0  0  0
 34 60  1  0  0  0  0
 35 61  1  0  0  0  0
 36 37  1  0  0  0  0
 36 62  1  0  0  0  0
 38 43  1  0  0  0  0
 38 39  2  0  0  0  0
 39 40  1  0  0  0  0
 39 63  1  0  0  0  0
 40 41  2  0  0  0  0
 40 64  1  0  0  0  0
 41 42  1  0  0  0  0
 41 65  1  0  0  0  0
 42 43  2  0  0  0  0
 42 66  1  0  0  0  0
 43 67  1  0  0  0  0
M  END
> <s_m_source_file>
AV-unprocessed.smi

> <i_m_source_file_index>
33

> <i_lp_mmshare_version>
43012

> <i_f3d_flags>
0

> <s_epik_input>
W2NIXTFbY0hdW2NIXVtjSF1bY0hdYzFDKD1PKU9bQ0gyXVtDQEBIXTJPW0NASF0oW0NAQEhdKFtPSF0pW0NAQEhdMkYpbihbY0hdbjMpYyhjMzQpbltjSF1uYzROKEMoPU8pYzVbY0hdW2NIXVtjSF1bY0hdW2NIXTUpQyg9TyljNltjSF1bY0hdW2NIXVtjSF1bY0hdNg==

> <s_epik_cmdline>
J2VwaWtfcHl0aG9uJywgJy1waCcsICc3LjAnLCAnLXRuJywgJzgnLCAnLW1hJywgJzIwMCcsICctbWV0YWxfYmluZGluZycsICctaW1hZScsICc8aW5maWxlLm1hZT4nLCAnLW9tYWUnLCAnPG91dGZpbGUubWFlPic=

> <r_lp_tautomer_probability>
1

> <r_epik_Ionization_Penalty>
0.00067664

> <r_epik_Ionization_Penalty_Charging>
0

> <r_epik_Ionization_Penalty_Neutral>
0.00067664

> <r_epik_State_Penalty>
0.000428095

> <r_epik_Charging_Adjusted_Penalty>
0.000428095

> <i_epik_Tot_Q>
0

> <i_epik_Tot_abs_Q>
0

> <r_epik_Metal_State_Penalty>
-0

> <b_epik_Metal_Only>
0

> <s_epik_Chemistry_Notes>
This compound has an ester and may undergo hydrolysis at high or low pH. This compound contains an acetal/aminal-like group ( X-CH(R)-Y where X, Y are N, S, or O) that may be acid/base labile, releasing an aldehyde.

> <s_lp_Force_Field>
OPLS_2005

> <r_lp_Energy>
68.7921

> <b_lp_Chiralities_Consistent>
1

> <s_lp_Variant>
AV-unprocessed.smi:33-14

> <Gold.Version>
5.8.1

> <Gold.Id.Protein>
6NUR|6NUR_protein|mol2

> <Gold.PLP.Fitness>
60.5271

> <Gold.PLP.PLP>
-51.5703

> <Gold.PLP.part.hbond>
-2.9922

> <Gold.PLP.part.metal>
0.0000

> <Gold.PLP.part.buried>
-6.1319

> <Gold.PLP.part.nonpolar>
-43.6154

> <Gold.PLP.part.repulsive>
0.4809

> <Gold.PLP.ligand.clash>
0.0000

> <Gold.PLP.ligand.torsion>
3.3774

> <Gold.PLP.Chemscore.Hbond>
2.5031

> <Gold.PLP.Chemscore.CHOScore>
1.1168

> <Gold.PLP.Chemscore.Metal>
0.0000

> <Gold.Chemscore.Hbonds>
donor molecule, donor type, donor heavy atom, donor atom, acceptor molecule, acceptor atom, score
      L1  H    35    61       P1 10175  1.00
      P1  H  6896  6907       L1    15  0.98
      P1  H 10785 10796       L1     1  0.59
      L1  C     9    48       P1 11000  0.19
      L1  C    31    59       P1  7948  0.91

> <Gold.PLP.Chemscore.Internal.Correction>
4.8520

> <Gold.Rescore>
     Score         DG    S(hbond)    S(metal)    S(lipo)     H(rot)  DE(clash)    DE(int)     intcor
      9.39     -23.88       2.66        0.00     136.52       2.52       3.13      11.35       ----

> <Gold.Chemscore.Fitness>
9.3875

> <Gold.Chemscore.DG>
-23.8751

> <Gold.Chemscore.ZeroCoef>
-5.4800

> <Gold.Chemscore.Hbond>
2.6604

> <Gold.Chemscore.Metal>
0.0000

> <Gold.Chemscore.Lipo>
136.5199

> <Gold.Chemscore.Internal_Hbond>
0.0000

> <Gold.Chemscore.DEClash>
3.1341

> <Gold.Chemscore.DEInternal>
11.3536

> <Gold.Chemscore.Rot>
2.5247

> <Gold.Chemscore.Internal.Correction>
   9.000000E+99

> <Gold.Chemscore.Hbonds>
donor molecule, donor type, donor heavy atom, donor atom, acceptor molecule, acceptor atom, score
      L1  H    35    61       P1 10175  0.98
      P1  H  6896  6907       L1    15  0.91
      P1  H 10785 10796       L1     1  0.58

> <Gold.Chemscore.Hbond.Weighted>
-8.8856

> <Gold.Chemscore.Metal.Weighted>
-0.0000

> <Gold.Chemscore.Lipo.Weighted>
-15.9728

> <Gold.Chemscore.Internal_Hbond.Weighted>
0.0000

> <Gold.Chemscore.DEClash.Weighted>
3.1341

> <Gold.Chemscore.DEInternal.Weighted>
11.3536

> <Gold.Chemscore.Rot.Weighted>
6.4633

> <Gold.Chemscore.Internal.Correction.Weighted>
   9.000000E+99

> <Gold.Protein.RotatedTorsions>
[ 6907 6896 6895 6894 ] final  -34.90 input  -60.11 | X-H torsion
[ 7974 7965 7964 7962 ] final  134.63 input  175.53 | X-H torsion
[ 8008 7997 7996 7995 ] final -170.95 input   59.86 | X-H torsion
[ 10167 10162 10161 10158 ] final -112.26 input  -65.29 | X-H torsion
[ 10718 10713 10712 10709 ] final  -75.50 input   66.30 | X-H torsion
[ 10763 10752 10751 10750 ] final  128.49 input  -60.55 | X-H torsion
[ 11005 11000 10999 10996 ] final   79.72 input  -57.11 | X-H torsion

> <Gold.Protein.ActiveResidues>
 VAL166  LYS551  ARG553  GLY616  TRP617  ASP618  TYR619  PRO620  LYS621  CYS622 
 ASP623  PHE694  ASN695  SER759  ASP760  ASP761  ALA762  ILE779  LEU786  VAL792 
 PHE793  MET794  SER795  GLU796  ALA797  LYS798  CYS799  TRP800  GLU811  SER814 

> <Gold.Protein.RotatedAtoms>
  151.0466  134.9644  159.8189 H   0  0  0  0  0  0  0  0  0  0  0  0  # atno 6907 bound_to 6896
  152.5373  134.2590  159.8938 H   0  0  0  0  0  0  0  0  0  0  0  0  # atno 6908 bound_to 6896
  151.2604  133.4262  159.2649 H   0  0  0  0  0  0  0  0  0  0  0  0  # atno 6909 bound_to 6896
  144.9744  139.4570  143.5417 H   0  0  0  0  0  0  0  0  0  0  0  0  # atno 7974 bound_to 7965
  155.9251  140.1081  157.1177 H   0  0  0  0  0  0  0  0  0  0  0  0  # atno 8008 bound_to 7997
  154.4061  140.1248  156.4795 H   0  0  0  0  0  0  0  0  0  0  0  0  # atno 8009 bound_to 7997
  155.7149  140.3470  155.4992 H   0  0  0  0  0  0  0  0  0  0  0  0  # atno 8010 bound_to 7997
  140.1247  143.4413  152.1667 H   0  0  0  0  0  0  0  0  0  0  0  0  # atno 10167 bound_to 10162
  156.0205  130.4442  150.3053 H   0  0  0  0  0  0  0  0  0  0  0  0  # atno 10718 bound_to 10713
  153.7264  135.3245  155.3277 H   0  0  0  0  0  0  0  0  0  0  0  0  # atno 10763 bound_to 10752
  154.8340  135.4511  154.1166 H   0  0  0  0  0  0  0  0  0  0  0  0  # atno 10764 bound_to 10752
  153.2301  135.6959  153.7980 H   0  0  0  0  0  0  0  0  0  0  0  0  # atno 10765 bound_to 10752
  139.9162  134.7865  156.1816 H   0  0  0  0  0  0  0  0  0  0  0  0  # atno 11005 bound_to 11000
  146.3391  139.8978  142.8799 LP  0  0  0  0  0  0  0  0  0  0  0  0  # atno 17320 bound_to 7965
  145.2511  141.0044  143.3880 LP  0  0  0  0  0  0  0  0  0  0  0  0  # atno 17321 bound_to 7965
  139.5550  144.7366  151.4320 LP  0  0  0  0  0  0  0  0  0  0  0  0  # atno 17342 bound_to 10162
  140.6852  143.7991  150.7176 LP  0  0  0  0  0  0  0  0  0  0  0  0  # atno 17343 bound_to 10162
  157.1155  131.0233  151.3030 LP  0  0  0  0  0  0  0  0  0  0  0  0  # atno 17370 bound_to 10713
  157.4670  130.7686  149.7288 LP  0  0  0  0  0  0  0  0  0  0  0  0  # atno 17371 bound_to 10713
  141.0639  133.6828  156.2006 LP  0  0  0  0  0  0  0  0  0  0  0  0  # atno 17394 bound_to 11000
  140.6617  134.4961  157.5583 LP  0  0  0  0  0  0  0  0  0  0  0  0  # atno 17395 bound_to 11000

$$$$
