AV-unprocessed.smi:1611|AV-procd|sdf|6475|dock7
  -GOLD-   22720 7133D 1   1.00000     0.00000
 Structure written by MMmdl.
 48 49  0  0  0  0  0  0  0  0  1 V2000
  152.2481  142.0807  159.6103 C   0  0  0  0  0  0  0  0  0  0  0  0
  151.7567  141.5285  158.2834 C   0  0  0  0  0  0  0  0  0  0  0  0
  151.2416  142.4214  157.3216 C   0  0  0  0  0  0  0  0  0  0  0  0
  150.7809  141.9450  156.0820 C   0  0  0  0  0  0  0  0  0  0  0  0
  150.8218  140.5674  155.7929 C   0  0  0  0  0  0  0  0  0  0  0  0
  150.3258  140.0708  154.4477 C   0  0  0  0  0  0  0  0  0  0  0  0
  151.3207  139.6615  156.7569 C   0  0  0  0  0  0  0  0  0  0  0  0
  151.3484  138.3205  156.4712 O   0  0  0  0  0  0  0  0  0  0  0  0
  150.0582  137.7377  156.3523 C   0  0  0  0  0  0  0  0  0  0  0  0
  150.1742  136.4166  155.5735 C   0  0  1  0  0  0  0  0  0  0  0  0
  150.8649  136.7039  154.3731 O   0  0  0  0  0  0  0  0  0  0  0  0
  150.9796  135.3562  156.3564 C   0  0  0  0  0  0  0  0  0  0  0  0
  150.7649  134.0032  155.8274 N   0  0  0  0  0  0  0  0  0  0  0  0
  150.1220  133.9732  154.6047 N   0  0  0  0  0  0  0  0  0  0  0  0
  149.8768  132.8573  154.0001 C   0  0  0  0  0  0  0  0  0  0  0  0
  149.1704  132.9473  152.6742 C   0  0  0  0  0  0  0  0  0  0  0  0
  150.2837  131.5976  154.6140 C   0  0  0  0  0  0  0  0  0  0  0  0
  149.9693  130.3153  153.8554 C   0  0  0  0  0  0  0  0  0  0  0  0
  150.9115  131.6401  155.8157 C   0  0  0  0  0  0  0  0  0  0  0  0
  151.3447  130.4603  156.4926 C   0  0  0  0  0  0  0  0  0  0  0  0
  151.7151  129.5068  157.0347 N   0  0  0  0  0  0  0  0  0  0  0  0
  151.1917  132.9006  156.5070 C   0  0  0  0  0  0  0  0  0  0  0  0
  151.7592  132.9709  157.5982 O   0  0  0  0  0  0  0  0  0  0  0  0
  151.8084  140.1407  157.9992 C   0  0  0  0  0  0  0  0  0  0  0  0
  152.3804  139.1675  159.0215 C   0  0  0  0  0  0  0  0  0  0  0  0
  152.0014  143.1375  159.7163 H   0  0  0  0  0  0  0  0  0  0  0  0
  153.3311  141.9802  159.6860 H   0  0  0  0  0  0  0  0  0  0  0  0
  151.7897  141.5478  160.4438 H   0  0  0  0  0  0  0  0  0  0  0  0
  151.2012  143.4809  157.5288 H   0  0  0  0  0  0  0  0  0  0  0  0
  150.3947  142.6431  155.3538 H   0  0  0  0  0  0  0  0  0  0  0  0
  150.9912  139.3054  154.0472 H   0  0  0  0  0  0  0  0  0  0  0  0
  150.2776  140.8834  153.7220 H   0  0  0  0  0  0  0  0  0  0  0  0
  149.3280  139.6435  154.5470 H   0  0  0  0  0  0  0  0  0  0  0  0
  149.5840  137.5829  157.3237 H   0  0  0  0  0  0  0  0  0  0  0  0
  149.4293  138.4391  155.8031 H   0  0  0  0  0  0  0  0  0  0  0  0
  149.1760  136.0383  155.3479 H   0  0  0  0  0  0  0  0  0  0  0  0
  150.9616  135.9026  153.8815 H   0  0  0  0  0  0  0  0  0  0  0  0
  152.0380  135.6202  156.3995 H   0  0  0  0  0  0  0  0  0  0  0  0
  150.6543  135.3542  157.3984 H   0  0  0  0  0  0  0  0  0  0  0  0
  148.2165  132.4208  152.7081 H   0  0  0  0  0  0  0  0  0  0  0  0
  149.7741  132.5034  151.8825 H   0  0  0  0  0  0  0  0  0  0  0  0
  148.9657  133.9807  152.3908 H   0  0  0  0  0  0  0  0  0  0  0  0
  150.3283  129.4283  154.3765 H   0  0  0  0  0  0  0  0  0  0  0  0
  150.4384  130.3270  152.8712 H   0  0  0  0  0  0  0  0  0  0  0  0
  148.8926  130.2041  153.7228 H   0  0  0  0  0  0  0  0  0  0  0  0
  152.6568  138.2152  158.5698 H   0  0  0  0  0  0  0  0  0  0  0  0
  151.6470  138.9714  159.8037 H   0  0  0  0  0  0  0  0  0  0  0  0
  153.2809  139.5681  159.4865 H   0  0  0  0  0  0  0  0  0  0  0  0
  1  2  1  0  0  0  0
  1 26  1  0  0  0  0
  1 27  1  0  0  0  0
  1 28  1  0  0  0  0
  2 24  1  0  0  0  0
  2  3  2  0  0  0  0
  3  4  1  0  0  0  0
  3 29  1  0  0  0  0
  4  5  2  0  0  0  0
  4 30  1  0  0  0  0
  5  6  1  0  0  0  0
  5  7  1  0  0  0  0
  6 31  1  0  0  0  0
  6 32  1  0  0  0  0
  6 33  1  0  0  0  0
  7  8  1  0  0  0  0
  7 24  2  0  0  0  0
  8  9  1  0  0  0  0
  9 10  1  0  0  0  0
  9 34  1  0  0  0  0
  9 35  1  0  0  0  0
 10 11  1  0  0  0  0
 10 12  1  0  0  0  0
 10 36  1  0  0  0  0
 11 37  1  0  0  0  0
 12 13  1  0  0  0  0
 12 38  1  0  0  0  0
 12 39  1  0  0  0  0
 13 22  1  0  0  0  0
 13 14  1  0  0  0  0
 14 15  2  0  0  0  0
 15 16  1  0  0  0  0
 15 17  1  0  0  0  0
 16 40  1  0  0  0  0
 16 41  1  0  0  0  0
 16 42  1  0  0  0  0
 17 18  1  0  0  0  0
 17 19  2  0  0  0  0
 18 43  1  0  0  0  0
 18 44  1  0  0  0  0
 18 45  1  0  0  0  0
 19 20  1  0  0  0  0
 19 22  1  0  0  0  0
 20 21  3  0  0  0  0
 22 23  2  0  0  0  0
 24 25  1  0  0  0  0
 25 46  1  0  0  0  0
 25 47  1  0  0  0  0
 25 48  1  0  0  0  0
M  END
> <s_m_source_file>
AV-unprocessed.smi

> <i_m_source_file_index>
1611

> <i_lp_mmshare_version>
43012

> <i_f3d_flags>
0

> <s_epik_input>
W0NIM11jMVtjSF1bY0hdYyhbQ0gzXSljKGMxW0NIM10pT1tDSDJdW0NASF0oW09IXSlbQ0gyXW4ybmMoW0NIM10pYyhbQ0gzXSljKEMjTiljMj1P

> <s_epik_cmdline>
J2VwaWtfcHl0aG9uJywgJy1waCcsICc3LjAnLCAnLXRuJywgJzgnLCAnLW1hJywgJzIwMCcsICctbWV0YWxfYmluZGluZycsICctaW1hZScsICc8aW5maWxlLm1hZT4nLCAnLW9tYWUnLCAnPG91dGZpbGUubWFlPic=

> <r_lp_tautomer_probability>
1

> <r_epik_Ionization_Penalty>
1.17331e-07

> <r_epik_Ionization_Penalty_Charging>
1.57223e-10

> <r_epik_Ionization_Penalty_Neutral>
1.17174e-07

> <r_epik_State_Penalty>
-0

> <r_epik_Charging_Adjusted_Penalty>
1.57223e-10

> <i_epik_Tot_Q>
0

> <i_epik_Tot_abs_Q>
0

> <r_epik_Metal_State_Penalty>
-0

> <b_epik_Metal_Only>
0

> <s_lp_Force_Field>
OPLS_2005

> <r_lp_Energy>
37.4128

> <b_lp_Chiralities_Consistent>
1

> <s_lp_Variant>
AV-unprocessed.smi:1611-2

> <Gold.Version>
5.8.1

> <Gold.Id.Protein>
6NUR|6NUR_protein|mol2

> <Gold.PLP.Fitness>
44.6166

> <Gold.PLP.PLP>
-43.0335

> <Gold.PLP.part.hbond>
-2.8328

> <Gold.PLP.part.metal>
0.0000

> <Gold.PLP.part.buried>
-5.4148

> <Gold.PLP.part.nonpolar>
-35.0976

> <Gold.PLP.part.repulsive>
0.1231

> <Gold.PLP.ligand.clash>
0.0000

> <Gold.PLP.ligand.torsion>
0.4369

> <Gold.PLP.Chemscore.Hbond>
0.7840

> <Gold.PLP.Chemscore.CHOScore>
0.0000

> <Gold.PLP.Chemscore.Metal>
0.0000

> <Gold.Chemscore.Hbonds>
donor molecule, donor type, donor heavy atom, donor atom, acceptor molecule, acceptor atom, score
      L1  H    11    37       P1  7949  0.03
      P1  H  6896  6907       L1    23  0.75

> <Gold.PLP.Chemscore.Internal.Correction>
0.1049

> <Gold.Rescore>
     Score         DG    S(hbond)    S(metal)    S(lipo)     H(rot)  DE(clash)    DE(int)     intcor
     12.39     -14.76       0.91        0.00     103.08       2.27       0.04       2.34       ----

> <Gold.Chemscore.Fitness>
12.3906

> <Gold.Chemscore.DG>
-14.7635

> <Gold.Chemscore.ZeroCoef>
-5.4800

> <Gold.Chemscore.Hbond>
0.9088

> <Gold.Chemscore.Metal>
0.0000

> <Gold.Chemscore.Lipo>
103.0818

> <Gold.Chemscore.Internal_Hbond>
0.0000

> <Gold.Chemscore.DEClash>
0.0358

> <Gold.Chemscore.DEInternal>
2.3370

> <Gold.Chemscore.Rot>
2.2706

> <Gold.Chemscore.Internal.Correction>
   9.000000E+99

> <Gold.Chemscore.Hbonds>
donor molecule, donor type, donor heavy atom, donor atom, acceptor molecule, acceptor atom, score
      L1  H    11    37       P1  7949  0.01
      P1  H  6896  6907       L1    23  0.76

> <Gold.Chemscore.Hbond.Weighted>
-3.0355

> <Gold.Chemscore.Metal.Weighted>
-0.0000

> <Gold.Chemscore.Lipo.Weighted>
-12.0606

> <Gold.Chemscore.Internal_Hbond.Weighted>
0.0000

> <Gold.Chemscore.DEClash.Weighted>
0.0358

> <Gold.Chemscore.DEInternal.Weighted>
2.3370

> <Gold.Chemscore.Rot.Weighted>
5.8127

> <Gold.Chemscore.Internal.Correction.Weighted>
   9.000000E+99

> <Gold.Protein.RotatedTorsions>
[ 6907 6896 6895 6894 ] final  171.02 input  -60.11 | X-H torsion
[ 7974 7965 7964 7962 ] final   24.21 input  175.53 | X-H torsion
[ 8008 7997 7996 7995 ] final   47.46 input   59.86 | X-H torsion
[ 10167 10162 10161 10158 ] final   41.15 input  -65.29 | X-H torsion
[ 10718 10713 10712 10709 ] final   55.76 input   66.30 | X-H torsion
[ 10763 10752 10751 10750 ] final  -72.10 input  -60.55 | X-H torsion
[ 11005 11000 10999 10996 ] final  138.13 input  -57.11 | X-H torsion

> <Gold.Protein.ActiveResidues>
 VAL166  LYS551  ARG553  GLY616  TRP617  ASP618  TYR619  PRO620  LYS621  CYS622 
 ASP623  PHE694  ASN695  SER759  ASP760  ASP761  ALA762  ILE779  LEU786  VAL792 
 PHE793  MET794  SER795  GLU796  ALA797  LYS798  CYS799  TRP800  GLU811  SER814 

> <Gold.Protein.RotatedAtoms>
  151.8068  133.3377  159.3543 H   0  0  0  0  0  0  0  0  0  0  0  0  # atno 6907 bound_to 6896
  150.7339  134.5701  159.5895 H   0  0  0  0  0  0  0  0  0  0  0  0  # atno 6908 bound_to 6896
  152.3103  134.7506  160.0389 H   0  0  0  0  0  0  0  0  0  0  0  0  # atno 6909 bound_to 6896
  146.1948  139.7637  142.8805 H   0  0  0  0  0  0  0  0  0  0  0  0  # atno 7974 bound_to 7965
  155.3694  140.3423  155.4243 H   0  0  0  0  0  0  0  0  0  0  0  0  # atno 8008 bound_to 7997
  156.1671  140.1619  156.8547 H   0  0  0  0  0  0  0  0  0  0  0  0  # atno 8009 bound_to 7997
  154.5195  140.0770  156.8128 H   0  0  0  0  0  0  0  0  0  0  0  0  # atno 8010 bound_to 7997
  140.3671  144.2153  150.6135 H   0  0  0  0  0  0  0  0  0  0  0  0  # atno 10167 bound_to 10162
  157.5372  130.8672  149.8771 H   0  0  0  0  0  0  0  0  0  0  0  0  # atno 10718 bound_to 10713
  154.4411  135.5940  153.6129 H   0  0  0  0  0  0  0  0  0  0  0  0  # atno 10763 bound_to 10752
  152.9805  135.5998  154.3722 H   0  0  0  0  0  0  0  0  0  0  0  0  # atno 10764 bound_to 10752
  154.3572  135.2841  155.2319 H   0  0  0  0  0  0  0  0  0  0  0  0  # atno 10765 bound_to 10752
  140.0162  134.9417  157.0380 H   0  0  0  0  0  0  0  0  0  0  0  0  # atno 11005 bound_to 11000
  145.3678  141.0337  143.3248 LP  0  0  0  0  0  0  0  0  0  0  0  0  # atno 17320 bound_to 7965
  144.8559  139.5251  143.6835 LP  0  0  0  0  0  0  0  0  0  0  0  0  # atno 17321 bound_to 7965
  140.5069  143.2301  151.8594 LP  0  0  0  0  0  0  0  0  0  0  0  0  # atno 17342 bound_to 10162
  139.4807  144.4994  151.9080 LP  0  0  0  0  0  0  0  0  0  0  0  0  # atno 17343 bound_to 10162
  156.0468  130.3726  150.1297 LP  0  0  0  0  0  0  0  0  0  0  0  0  # atno 17370 bound_to 10713
  156.9479  130.9765  151.3504 LP  0  0  0  0  0  0  0  0  0  0  0  0  # atno 17371 bound_to 10713
  140.4467  134.1624  155.7178 LP  0  0  0  0  0  0  0  0  0  0  0  0  # atno 17394 bound_to 11000
  141.1744  133.8544  157.1468 LP  0  0  0  0  0  0  0  0  0  0  0  0  # atno 17395 bound_to 11000

$$$$
