AV-unprocessed.smi:1483|AV-procd|sdf|5991|dock8
  -GOLD-   22720 6 83D 1   1.00000     0.00000
 Structure written by MMmdl.
 50 51  0  0  0  0  0  0  0  0  3 V2000
  151.7648  145.1928  158.7368 C   0  0  0  0  0  0  0  0  0  0  0  0
  151.5957  143.7053  158.5108 C   0  0  0  0  0  0  0  0  0  0  0  0
  152.2452  142.7426  159.3129 C   0  0  0  0  0  0  0  0  0  0  0  0
  152.0404  141.3730  159.0469 C   0  0  0  0  0  0  0  0  0  0  0  0
  151.1923  140.9919  157.9836 C   0  0  0  0  0  0  0  0  0  0  0  0
  150.9542  139.5253  157.6709 C   0  0  0  0  0  0  0  0  0  0  0  0
  149.5362  139.3198  157.1375 C   0  0  0  0  0  0  0  0  0  0  0  0
  148.5704  139.6923  157.8028 O   0  0  0  0  0  0  0  0  0  0  0  0
  149.4257  138.7321  155.9355 N   0  0  0  0  0  0  0  0  0  0  0  0
  148.1688  138.4566  155.2461 C   0  0  2  0  0  0  0  0  0  0  0  0
  147.9334  136.9409  155.1246 C   0  0  0  0  0  0  0  0  0  0  0  0
  146.6657  136.6382  154.3083 C   0  0  0  0  0  0  0  0  0  0  0  0
  146.7265  137.2662  152.9627 N   0  3  1  0  0  0  0  0  0  0  0  0
  145.5742  136.8759  152.1093 C   0  0  0  0  0  0  0  0  0  0  0  0
  145.2175  135.3771  152.2174 C   0  0  0  0  0  0  0  0  0  0  0  0
  146.2354  134.5241  151.4462 C   0  0  0  0  0  0  0  0  0  0  0  0
  143.7905  135.0898  151.7208 C   0  0  0  0  0  0  0  0  0  0  0  0
  146.9166  138.7386  153.0580 C   0  0  0  0  0  0  0  0  0  0  0  0
  148.1921  139.0852  153.8442 C   0  0  0  0  0  0  0  0  0  0  0  0
  150.5677  141.9997  157.2164 C   0  0  0  0  0  0  0  0  0  0  0  0
  150.7895  143.3013  157.5035 N   0  3  0  0  0  0  0  0  0  0  0  0
  152.5244  145.3907  159.4937 H   0  0  0  0  0  0  0  0  0  0  0  0
  150.8261  145.6340  159.0726 H   0  0  0  0  0  0  0  0  0  0  0  0
  152.0685  145.6877  157.8140 H   0  0  0  0  0  0  0  0  0  0  0  0
  152.8922  143.0470  160.1227 H   0  0  0  0  0  0  0  0  0  0  0  0
  152.5318  140.6255  159.6526 H   0  0  0  0  0  0  0  0  0  0  0  0
  151.6852  139.1717  156.9424 H   0  0  0  0  0  0  0  0  0  0  0  0
  151.0966  138.9288  158.5731 H   0  0  0  0  0  0  0  0  0  0  0  0
  150.2748  138.4565  155.4634 H   0  0  0  0  0  0  0  0  0  0  0  0
  147.3437  138.9023  155.8056 H   0  0  0  0  0  0  0  0  0  0  0  0
  148.7926  136.4681  154.6460 H   0  0  0  0  0  0  0  0  0  0  0  0
  147.8463  136.4923  156.1151 H   0  0  0  0  0  0  0  0  0  0  0  0
  146.5592  135.5576  154.2065 H   0  0  0  0  0  0  0  0  0  0  0  0
  145.7815  136.9962  154.8385 H   0  0  0  0  0  0  0  0  0  0  0  0
  144.6950  137.4543  152.3972 H   0  0  0  0  0  0  0  0  0  0  0  0
  145.7877  137.1482  151.0744 H   0  0  0  0  0  0  0  0  0  0  0  0
  145.2781  135.0661  153.2597 H   0  0  0  0  0  0  0  0  0  0  0  0
  146.2335  134.7664  150.3829 H   0  0  0  0  0  0  0  0  0  0  0  0
  146.0134  133.4610  151.5449 H   0  0  0  0  0  0  0  0  0  0  0  0
  147.2469  134.6826  151.8218 H   0  0  0  0  0  0  0  0  0  0  0  0
  143.6667  135.3811  150.6771 H   0  0  0  0  0  0  0  0  0  0  0  0
  143.0464  135.6282  152.3079 H   0  0  0  0  0  0  0  0  0  0  0  0
  143.5558  134.0278  151.7975 H   0  0  0  0  0  0  0  0  0  0  0  0
  146.9887  139.1795  152.0648 H   0  0  0  0  0  0  0  0  0  0  0  0
  146.0467  139.1891  153.5385 H   0  0  0  0  0  0  0  0  0  0  0  0
  148.2926  140.1686  153.9219 H   0  0  0  0  0  0  0  0  0  0  0  0
  149.0641  138.7323  153.2912 H   0  0  0  0  0  0  0  0  0  0  0  0
  149.9049  141.8062  156.3853 H   0  0  0  0  0  0  0  0  0  0  0  0
  147.5497  136.8891  152.5150 H   0  0  0  0  0  0  0  0  0  0  0  0
  150.3281  144.0110  156.9339 H   0  0  0  0  0  0  0  0  0  0  0  0
  1  2  1  0  0  0  0
  1 22  1  0  0  0  0
  1 23  1  0  0  0  0
  1 24  1  0  0  0  0
  2 21  1  0  0  0  0
  2  3  2  0  0  0  0
  3  4  1  0  0  0  0
  3 25  1  0  0  0  0
  4  5  2  0  0  0  0
  4 26  1  0  0  0  0
  5  6  1  0  0  0  0
  5 20  1  0  0  0  0
  6  7  1  0  0  0  0
  6 27  1  0  0  0  0
  6 28  1  0  0  0  0
  7  8  2  0  0  0  0
  7  9  1  0  0  0  0
  9 10  1  0  0  0  0
  9 29  1  0  0  0  0
 10 19  1  0  0  0  0
 10 11  1  0  0  0  0
 10 30  1  0  0  0  0
 11 12  1  0  0  0  0
 11 31  1  0  0  0  0
 11 32  1  0  0  0  0
 12 13  1  0  0  0  0
 12 33  1  0  0  0  0
 12 34  1  0  0  0  0
 13 14  1  0  0  0  0
 13 18  1  0  0  0  0
 13 49  1  0  0  0  0
 14 15  1  0  0  0  0
 14 35  1  0  0  0  0
 14 36  1  0  0  0  0
 15 16  1  0  0  0  0
 15 17  1  0  0  0  0
 15 37  1  0  0  0  0
 16 38  1  0  0  0  0
 16 39  1  0  0  0  0
 16 40  1  0  0  0  0
 17 41  1  0  0  0  0
 17 42  1  0  0  0  0
 17 43  1  0  0  0  0
 18 19  1  0  0  0  0
 18 44  1  0  0  0  0
 18 45  1  0  0  0  0
 19 46  1  0  0  0  0
 19 47  1  0  0  0  0
 20 21  2  0  0  0  0
 20 48  1  0  0  0  0
 21 50  1  0  0  0  0
M  CHG  1  13   1
M  CHG  1  21   1
M  END
> <s_m_source_file>
AV-unprocessed.smi

> <i_m_source_file_index>
1483

> <i_lp_mmshare_version>
43012

> <i_f3d_flags>
0

> <s_epik_input>
W0NIM11jMVtjSF1bY0hdYyhbY0hdbjEpW0NIMl1DKD1PKVtOSF1bQ0hdMltDSDJdW0NIMl1OKFtDSDJdW0NIMl0yKVtDSDJdW0NIXShbQ0gzXSlbQ0gzXQ==

> <s_epik_cmdline>
J2VwaWtfcHl0aG9uJywgJy1waCcsICc3LjAnLCAnLXRuJywgJzgnLCAnLW1hJywgJzIwMCcsICctbWV0YWxfYmluZGluZycsICctaW1hZScsICc8aW5maWxlLm1hZT4nLCAnLW9tYWUnLCAnPG91dGZpbGUubWFlPic=

> <r_epik_Ionization_Penalty>
2.20554

> <r_epik_Ionization_Penalty_Charging>
2.20554

> <r_epik_Ionization_Penalty_Neutral>
2.83835e-07

> <r_epik_State_Penalty>
2.34446

> <r_epik_Charging_Adjusted_Penalty>
4.55

> <i_epik_Tot_Q>
2

> <i_epik_Tot_abs_Q>
2

> <r_epik_Metal_State_Penalty>
2.35906

> <b_epik_Metal_Only>
0

> <s_lp_Force_Field>
OPLS_2005

> <r_lp_Energy>
27.324

> <b_lp_Chiralities_Consistent>
1

> <s_lp_Variant>
AV-unprocessed.smi:1483-3

> <Gold.Version>
5.8.1

> <Gold.Id.Protein>
6NUR|6NUR_protein|mol2

> <Gold.PLP.Fitness>
44.5442

> <Gold.PLP.PLP>
-33.8148

> <Gold.PLP.part.hbond>
-2.0000

> <Gold.PLP.part.metal>
0.0000

> <Gold.PLP.part.buried>
-4.6365

> <Gold.PLP.part.nonpolar>
-27.5015

> <Gold.PLP.part.repulsive>
0.0310

> <Gold.PLP.ligand.clash>
0.0000

> <Gold.PLP.ligand.torsion>
0.6594

> <Gold.PLP.Chemscore.Hbond>
4.0000

> <Gold.PLP.Chemscore.CHOScore>
0.0000

> <Gold.PLP.Chemscore.Metal>
0.0000

> <Gold.Chemscore.Hbonds>
donor molecule, donor type, donor heavy atom, donor atom, acceptor molecule, acceptor atom, score
      L1  H    13    49       P1  7948  2.00
      L1  H    21    50       P1  8028  2.00

> <Gold.PLP.Chemscore.Internal.Correction>
0.0483

> <Gold.Rescore>
     Score         DG    S(hbond)    S(metal)    S(lipo)     H(rot)  DE(clash)    DE(int)     intcor
     18.75     -19.37       1.98        0.00      96.16       1.55       0.07       0.55       ----

> <Gold.Chemscore.Fitness>
18.7524

> <Gold.Chemscore.DG>
-19.3700

> <Gold.Chemscore.ZeroCoef>
-5.4800

> <Gold.Chemscore.Hbond>
1.9796

> <Gold.Chemscore.Metal>
0.0000

> <Gold.Chemscore.Lipo>
96.1630

> <Gold.Chemscore.Internal_Hbond>
0.0000

> <Gold.Chemscore.DEClash>
0.0715

> <Gold.Chemscore.DEInternal>
0.5461

> <Gold.Chemscore.Rot>
1.5520

> <Gold.Chemscore.Internal.Correction>
   9.000000E+99

> <Gold.Chemscore.Hbonds>
donor molecule, donor type, donor heavy atom, donor atom, acceptor molecule, acceptor atom, score
      L1  H    13    49       P1  7948  1.00
      L1  H    21    50       P1  8028  0.91

> <Gold.Chemscore.Hbond.Weighted>
-6.6119

> <Gold.Chemscore.Metal.Weighted>
-0.0000

> <Gold.Chemscore.Lipo.Weighted>
-11.2511

> <Gold.Chemscore.Internal_Hbond.Weighted>
0.0000

> <Gold.Chemscore.DEClash.Weighted>
0.0715

> <Gold.Chemscore.DEInternal.Weighted>
0.5461

> <Gold.Chemscore.Rot.Weighted>
3.9730

> <Gold.Chemscore.Internal.Correction.Weighted>
   9.000000E+99

> <Gold.Protein.RotatedTorsions>
[ 6907 6896 6895 6894 ] final  136.31 input  -60.11 | X-H torsion
[ 7974 7965 7964 7962 ] final   25.69 input  175.53 | X-H torsion
[ 8008 7997 7996 7995 ] final  161.65 input   59.86 | X-H torsion
[ 10167 10162 10161 10158 ] final   33.58 input  -65.29 | X-H torsion
[ 10718 10713 10712 10709 ] final  145.57 input   66.30 | X-H torsion
[ 10763 10752 10751 10750 ] final -145.61 input  -60.55 | X-H torsion
[ 11005 11000 10999 10996 ] final -141.37 input  -57.11 | X-H torsion

> <Gold.Protein.ActiveResidues>
 VAL166  LYS551  ARG553  GLY616  TRP617  ASP618  TYR619  PRO620  LYS621  CYS622 
 ASP623  PHE694  ASN695  SER759  ASP760  ASP761  ALA762  ILE779  LEU786  VAL792 
 PHE793  MET794  SER795  GLU796  ALA797  LYS798  CYS799  TRP800  GLU811  SER814 

> <Gold.Protein.RotatedAtoms>
  152.2908  133.5559  159.5555 H   0  0  0  0  0  0  0  0  0  0  0  0  # atno 6907 bound_to 6896
  150.7234  134.0431  159.3781 H   0  0  0  0  0  0  0  0  0  0  0  0  # atno 6908 bound_to 6896
  151.8337  135.0613  160.0491 H   0  0  0  0  0  0  0  0  0  0  0  0  # atno 6909 bound_to 6896
  146.1876  139.7431  142.8855 H   0  0  0  0  0  0  0  0  0  0  0  0  # atno 7974 bound_to 7965
  156.2088  140.1771  156.7741 H   0  0  0  0  0  0  0  0  0  0  0  0  # atno 8008 bound_to 7997
  154.5692  140.0685  156.8969 H   0  0  0  0  0  0  0  0  0  0  0  0  # atno 8009 bound_to 7997
  155.2704  140.3342  155.4268 H   0  0  0  0  0  0  0  0  0  0  0  0  # atno 8010 bound_to 7997
  140.4394  144.1209  150.6171 H   0  0  0  0  0  0  0  0  0  0  0  0  # atno 10167 bound_to 10162
  157.3437  131.0940  151.1060 H   0  0  0  0  0  0  0  0  0  0  0  0  # atno 10718 bound_to 10713
  154.8375  135.3408  154.6532 H   0  0  0  0  0  0  0  0  0  0  0  0  # atno 10763 bound_to 10752
  153.7145  135.6962  153.5033 H   0  0  0  0  0  0  0  0  0  0  0  0  # atno 10764 bound_to 10752
  153.2427  135.4379  155.0668 H   0  0  0  0  0  0  0  0  0  0  0  0  # atno 10765 bound_to 10752
  140.8331  134.2493  157.4847 H   0  0  0  0  0  0  0  0  0  0  0  0  # atno 11005 bound_to 11000
  145.3892  141.0370  143.3133 LP  0  0  0  0  0  0  0  0  0  0  0  0  # atno 17320 bound_to 7965
  144.8425  139.5448  143.6893 LP  0  0  0  0  0  0  0  0  0  0  0  0  # atno 17321 bound_to 7965
  140.4335  143.2557  151.9564 LP  0  0  0  0  0  0  0  0  0  0  0  0  # atno 17342 bound_to 10162
  139.4789  144.5721  151.8071 LP  0  0  0  0  0  0  0  0  0  0  0  0  # atno 17343 bound_to 10162
  157.2262  130.6504  149.5831 LP  0  0  0  0  0  0  0  0  0  0  0  0  # atno 17370 bound_to 10713
  155.9711  130.4613  150.6105 LP  0  0  0  0  0  0  0  0  0  0  0  0  # atno 17371 bound_to 10713
  139.8704  134.9596  156.4338 LP  0  0  0  0  0  0  0  0  0  0  0  0  # atno 17394 bound_to 11000
  140.8977  133.7802  155.9644 LP  0  0  0  0  0  0  0  0  0  0  0  0  # atno 17395 bound_to 11000

$$$$
