AV-unprocessed.smi:1566|AV-procd|sdf|6305|dock3
  -GOLD-   22720 6503D 1   1.00000     0.00000
 Structure written by MMmdl.
 42 43  0  0  0  0  0  0  0  0  1 V2000
  145.6691  137.3808  151.9707 C   0  0  0  0  0  0  0  0  0  0  0  0
  146.3856  138.7254  151.7906 C   0  0  0  0  0  0  0  0  0  0  0  0
  147.7013  138.7170  152.4194 N   0  0  0  0  0  0  0  0  0  0  0  0
  148.0669  139.4897  153.4520 C   0  0  0  0  0  0  0  0  0  0  0  0
  147.3205  140.3117  153.9836 O   0  0  0  0  0  0  0  0  0  0  0  0
  149.3297  139.2278  153.8299 N   0  0  0  0  0  0  0  0  0  0  0  0
  150.0744  139.8156  154.8875 C   0  0  0  0  0  0  0  0  0  0  0  0
  151.1703  139.1934  155.5315 C   0  0  0  0  0  0  0  0  0  0  0  0
  151.8176  139.8737  156.5807 C   0  0  0  0  0  0  0  0  0  0  0  0
  151.3478  141.1483  156.9583 C   0  0  0  0  0  0  0  0  0  0  0  0
  151.9930  141.8294  157.9998 N   0  0  0  0  0  0  0  0  0  0  0  0
  151.5359  143.2015  158.1687 C   0  0  0  0  0  0  0  0  0  0  0  0
  152.4127  143.9246  159.2069 C   0  0  1  0  0  0  0  0  0  0  0  0
  151.9014  145.3387  159.5007 C   0  0  0  0  0  0  0  0  0  0  0  0
  152.4071  143.1879  160.4306 O   0  0  0  0  0  0  0  0  0  0  0  0
  152.8423  141.8300  160.3170 C   0  0  2  0  0  0  0  0  0  0  0  0
  154.3595  141.7254  160.0808 C   0  0  0  0  0  0  0  0  0  0  0  0
  152.0022  141.0912  159.2563 C   0  0  0  0  0  0  0  0  0  0  0  0
  150.2908  141.7431  156.3562 N   0  0  0  0  0  0  0  0  0  0  0  0
  149.6738  141.0851  155.3526 C   0  0  0  0  0  0  0  0  0  0  0  0
  144.6975  137.3908  151.4763 H   0  0  0  0  0  0  0  0  0  0  0  0
  145.5011  137.1586  153.0250 H   0  0  0  0  0  0  0  0  0  0  0  0
  146.2510  136.5636  151.5435 H   0  0  0  0  0  0  0  0  0  0  0  0
  146.5166  138.9328  150.7284 H   0  0  0  0  0  0  0  0  0  0  0  0
  145.7769  139.5369  152.1928 H   0  0  0  0  0  0  0  0  0  0  0  0
  148.3788  138.0674  152.0476 H   0  0  0  0  0  0  0  0  0  0  0  0
  149.7882  138.4679  153.3489 H   0  0  0  0  0  0  0  0  0  0  0  0
  151.5166  138.2099  155.2539 H   0  0  0  0  0  0  0  0  0  0  0  0
  152.6578  139.4218  157.0877 H   0  0  0  0  0  0  0  0  0  0  0  0
  151.5779  143.7240  157.2119 H   0  0  0  0  0  0  0  0  0  0  0  0
  150.4939  143.2043  158.4922 H   0  0  0  0  0  0  0  0  0  0  0  0
  153.4331  144.0055  158.8314 H   0  0  0  0  0  0  0  0  0  0  0  0
  151.8945  145.9487  158.5971 H   0  0  0  0  0  0  0  0  0  0  0  0
  152.5360  145.8373  160.2337 H   0  0  0  0  0  0  0  0  0  0  0  0
  150.8862  145.3173  159.8983 H   0  0  0  0  0  0  0  0  0  0  0  0
  152.6411  141.3643  161.2820 H   0  0  0  0  0  0  0  0  0  0  0  0
  154.6843  140.6854  160.1183 H   0  0  0  0  0  0  0  0  0  0  0  0
  154.9103  142.2711  160.8468 H   0  0  0  0  0  0  0  0  0  0  0  0
  154.6560  142.1208  159.1097 H   0  0  0  0  0  0  0  0  0  0  0  0
  150.9779  140.9841  159.6160 H   0  0  0  0  0  0  0  0  0  0  0  0
  152.3905  140.0844  159.0971 H   0  0  0  0  0  0  0  0  0  0  0  0
  148.8342  141.5939  154.9019 H   0  0  0  0  0  0  0  0  0  0  0  0
  1  2  1  0  0  0  0
  1 21  1  0  0  0  0
  1 22  1  0  0  0  0
  1 23  1  0  0  0  0
  2  3  1  0  0  0  0
  2 24  1  0  0  0  0
  2 25  1  0  0  0  0
  3  4  1  0  0  0  0
  3 26  1  0  0  0  0
  4  5  2  0  0  0  0
  4  6  1  0  0  0  0
  6  7  1  0  0  0  0
  6 27  1  0  0  0  0
  7 20  1  0  0  0  0
  7  8  2  0  0  0  0
  8  9  1  0  0  0  0
  8 28  1  0  0  0  0
  9 10  2  0  0  0  0
  9 29  1  0  0  0  0
 10 11  1  0  0  0  0
 10 19  1  0  0  0  0
 11 18  1  0  0  0  0
 11 12  1  0  0  0  0
 12 13  1  0  0  0  0
 12 30  1  0  0  0  0
 12 31  1  0  0  0  0
 13 14  1  0  0  0  0
 13 15  1  0  0  0  0
 13 32  1  0  0  0  0
 14 33  1  0  0  0  0
 14 34  1  0  0  0  0
 14 35  1  0  0  0  0
 15 16  1  0  0  0  0
 16 17  1  0  0  0  0
 16 18  1  0  0  0  0
 16 36  1  0  0  0  0
 17 37  1  0  0  0  0
 17 38  1  0  0  0  0
 17 39  1  0  0  0  0
 18 40  1  0  0  0  0
 18 41  1  0  0  0  0
 19 20  2  0  0  0  0
 20 42  1  0  0  0  0
M  END
> <s_m_source_file>
AV-unprocessed.smi

> <i_m_source_file_index>
1566

> <i_lp_mmshare_version>
43012

> <i_f3d_flags>
0

> <s_epik_input>
W0NIM11bQ0gyXVtOSF1DKD1PKVtOSF1jMVtjSF1bY0hdYyhuW2NIXTEpTjJbQ0gyXVtDQEBIXShbQ0gzXSlPW0NAQEhdKFtDSDNdKVtDSDJdMg==

> <s_epik_cmdline>
J2VwaWtfcHl0aG9uJywgJy1waCcsICc3LjAnLCAnLXRuJywgJzgnLCAnLW1hJywgJzIwMCcsICctbWV0YWxfYmluZGluZycsICctaW1hZScsICc8aW5maWxlLm1hZT4nLCAnLW9tYWUnLCAnPG91dGZpbGUubWFlPic=

> <r_lp_tautomer_probability>
1

> <r_epik_Ionization_Penalty>
0.0027066

> <r_epik_Ionization_Penalty_Charging>
0

> <r_epik_Ionization_Penalty_Neutral>
0.0027066

> <r_epik_State_Penalty>
0.00185803

> <r_epik_Charging_Adjusted_Penalty>
0.00185803

> <i_epik_Tot_Q>
0

> <i_epik_Tot_abs_Q>
0

> <r_epik_Metal_State_Penalty>
-0

> <b_epik_Metal_Only>
0

> <s_lp_Force_Field>
OPLS_2005

> <r_lp_Energy>
23.2127

> <b_lp_Chiralities_Consistent>
1

> <s_lp_Variant>
AV-unprocessed.smi:1566-3

> <Gold.Version>
5.8.1

> <Gold.Id.Protein>
6NUR|6NUR_protein|mol2

> <Gold.PLP.Fitness>
45.6963

> <Gold.PLP.PLP>
-43.1488

> <Gold.PLP.part.hbond>
-2.9297

> <Gold.PLP.part.metal>
0.0000

> <Gold.PLP.part.buried>
-1.0367

> <Gold.PLP.part.nonpolar>
-40.4467

> <Gold.PLP.part.repulsive>
0.4430

> <Gold.PLP.ligand.clash>
0.0000

> <Gold.PLP.ligand.torsion>
0.1913

> <Gold.PLP.Chemscore.Hbond>
0.9440

> <Gold.PLP.Chemscore.CHOScore>
0.0000

> <Gold.PLP.Chemscore.Metal>
0.0000

> <Gold.Chemscore.Hbonds>
donor molecule, donor type, donor heavy atom, donor atom, acceptor molecule, acceptor atom, score
      L1  H     3    26       P1  7948  0.99

> <Gold.PLP.Chemscore.Internal.Correction>
0.0981

> <Gold.Rescore>
     Score         DG    S(hbond)    S(metal)    S(lipo)     H(rot)  DE(clash)    DE(int)     intcor
     17.19     -19.02       1.55        0.00      97.40       1.19       0.31       1.52       ----

> <Gold.Chemscore.Fitness>
17.1859

> <Gold.Chemscore.DG>
-19.0150

> <Gold.Chemscore.ZeroCoef>
-5.4800

> <Gold.Chemscore.Hbond>
1.5507

> <Gold.Chemscore.Metal>
0.0000

> <Gold.Chemscore.Lipo>
97.3967

> <Gold.Chemscore.Internal_Hbond>
0.0000

> <Gold.Chemscore.DEClash>
0.3063

> <Gold.Chemscore.DEInternal>
1.5228

> <Gold.Chemscore.Rot>
1.1873

> <Gold.Chemscore.Internal.Correction>
   9.000000E+99

> <Gold.Chemscore.Hbonds>
donor molecule, donor type, donor heavy atom, donor atom, acceptor molecule, acceptor atom, score
      L1  H     3    26       P1  7948  0.93

> <Gold.Chemscore.Hbond.Weighted>
-5.1792

> <Gold.Chemscore.Metal.Weighted>
-0.0000

> <Gold.Chemscore.Lipo.Weighted>
-11.3954

> <Gold.Chemscore.Internal_Hbond.Weighted>
0.0000

> <Gold.Chemscore.DEClash.Weighted>
0.3063

> <Gold.Chemscore.DEInternal.Weighted>
1.5228

> <Gold.Chemscore.Rot.Weighted>
3.0396

> <Gold.Chemscore.Internal.Correction.Weighted>
   9.000000E+99

> <Gold.Protein.RotatedTorsions>
[ 6907 6896 6895 6894 ] final -166.60 input  -60.11 | X-H torsion
[ 7974 7965 7964 7962 ] final  -19.12 input  175.53 | X-H torsion
[ 8008 7997 7996 7995 ] final  125.45 input   59.86 | X-H torsion
[ 10167 10162 10161 10158 ] final -167.96 input  -65.29 | X-H torsion
[ 10718 10713 10712 10709 ] final  -70.62 input   66.30 | X-H torsion
[ 10763 10752 10751 10750 ] final   69.60 input  -60.55 | X-H torsion
[ 11005 11000 10999 10996 ] final   76.72 input  -57.11 | X-H torsion

> <Gold.Protein.ActiveResidues>
 VAL166  LYS551  ARG553  GLY616  TRP617  ASP618  TYR619  PRO620  LYS621  CYS622 
 ASP623  PHE694  ASN695  SER759  ASP760  ASP761  ALA762  ILE779  LEU786  VAL792 
 PHE793  MET794  SER795  GLU796  ALA797  LYS798  CYS799  TRP800  GLU811  SER814 

> <Gold.Protein.RotatedAtoms>
  151.4462  133.3630  159.2788 H   0  0  0  0  0  0  0  0  0  0  0  0  # atno 6907 bound_to 6896
  150.9123  134.8541  159.7444 H   0  0  0  0  0  0  0  0  0  0  0  0  # atno 6908 bound_to 6896
  152.4939  134.4393  159.9590 H   0  0  0  0  0  0  0  0  0  0  0  0  # atno 6909 bound_to 6896
  146.1858  140.4017  142.8477 H   0  0  0  0  0  0  0  0  0  0  0  0  # atno 7974 bound_to 7965
  156.2834  140.2716  156.1951 H   0  0  0  0  0  0  0  0  0  0  0  0  # atno 8008 bound_to 7997
  155.0418  140.0386  157.2530 H   0  0  0  0  0  0  0  0  0  0  0  0  # atno 8009 bound_to 7997
  154.7268  140.2698  155.6497 H   0  0  0  0  0  0  0  0  0  0  0  0  # atno 8010 bound_to 7997
  139.6015  144.1000  152.1748 H   0  0  0  0  0  0  0  0  0  0  0  0  # atno 10167 bound_to 10162
  156.0399  130.4335  150.2323 H   0  0  0  0  0  0  0  0  0  0  0  0  # atno 10718 bound_to 10713
  153.0296  135.5204  154.7313 H   0  0  0  0  0  0  0  0  0  0  0  0  # atno 10763 bound_to 10752
  154.6340  135.2904  155.0185 H   0  0  0  0  0  0  0  0  0  0  0  0  # atno 10764 bound_to 10752
  154.1127  135.6619  153.4940 H   0  0  0  0  0  0  0  0  0  0  0  0  # atno 10765 bound_to 10752
  139.9286  134.7624  156.1431 H   0  0  0  0  0  0  0  0  0  0  0  0  # atno 11005 bound_to 11000
  144.8394  140.6834  143.6239 LP  0  0  0  0  0  0  0  0  0  0  0  0  # atno 17320 bound_to 7965
  145.3943  139.1610  143.4212 LP  0  0  0  0  0  0  0  0  0  0  0  0  # atno 17321 bound_to 7965
  140.0598  144.5866  150.7272 LP  0  0  0  0  0  0  0  0  0  0  0  0  # atno 17342 bound_to 10162
  140.7253  143.2630  151.4140 LP  0  0  0  0  0  0  0  0  0  0  0  0  # atno 17343 bound_to 10162
  157.0419  131.0037  151.3281 LP  0  0  0  0  0  0  0  0  0  0  0  0  # atno 17370 bound_to 10713
  157.5203  130.7994  149.7802 LP  0  0  0  0  0  0  0  0  0  0  0  0  # atno 17371 bound_to 10713
  141.0860  133.6734  156.2437 LP  0  0  0  0  0  0  0  0  0  0  0  0  # atno 17394 bound_to 11000
  140.6266  134.5307  157.5554 LP  0  0  0  0  0  0  0  0  0  0  0  0  # atno 17395 bound_to 11000

$$$$
