AV-unprocessed.smi:1830|AV-procd|sdf|7440|dock3
  -GOLD-   22720 9123D 1   1.00000     0.00000
 Structure written by MMmdl.
 52 55  0  0  0  0  0  0  0  0  1 V2000
  150.5719  133.7937  155.3379 O   0  0  0  0  0  0  0  0  0  0  0  0
  149.9611  134.3979  154.4576 C   0  0  0  0  0  0  0  0  0  0  0  0
  150.1412  135.7004  154.1973 N   0  0  0  0  0  0  0  0  0  0  0  0
  151.0378  136.5904  154.9274 C   0  0  0  0  0  0  0  0  0  0  0  0
  150.7881  138.0638  154.5638 C   0  0  2  0  0  0  0  0  0  0  0  0
  151.3336  139.0260  155.6444 C   0  0  0  0  0  0  0  0  0  0  0  0
  150.9825  140.3927  155.3080 N   0  0  0  0  0  0  0  0  0  0  0  0
  151.3568  141.4182  156.2536 C   0  0  0  0  0  0  0  0  0  0  0  0
  150.5145  142.6384  155.8408 C   0  0  0  0  0  0  0  0  0  0  0  0
  149.3513  142.0429  155.0163 C   0  0  0  0  0  0  0  0  0  0  0  0
  149.5574  140.5364  155.1811 C   0  0  1  0  0  0  0  0  0  0  0  0
  149.0146  139.6171  154.0779 C   0  0  0  0  0  0  0  0  0  0  0  0
  149.3788  138.2745  154.4063 O   0  0  0  0  0  0  0  0  0  0  0  0
  149.0345  133.8720  153.6381 N   0  0  0  0  0  0  0  0  0  0  0  0
  148.4983  132.5503  153.5774 C   0  0  0  0  0  0  0  0  0  0  0  0
  149.1404  131.4143  154.1320 C   0  0  0  0  0  0  0  0  0  0  0  0
  148.5248  130.1544  154.0256 C   0  0  0  0  0  0  0  0  0  0  0  0
  147.2877  130.0681  153.3655 C   0  0  0  0  0  0  0  0  0  0  0  0
  146.6650  131.1352  152.8278 N   0  0  0  0  0  0  0  0  0  0  0  0
  147.2474  132.3552  152.9294 C   0  0  0  0  0  0  0  0  0  0  0  0
  146.5848  133.4444  152.3251 N   0  0  0  0  0  0  0  0  0  0  0  0
  146.4253  133.2950  150.8811 C   0  0  0  0  0  0  0  0  0  0  0  0
  145.0504  133.8692  150.5332 C   0  0  0  0  0  0  0  0  0  0  0  0
  144.2613  133.6764  151.8220 C   0  0  0  0  0  0  0  0  0  0  0  0
  145.3224  133.9128  152.8947 C   0  0  0  0  0  0  0  0  0  0  0  0
  149.5962  136.1152  153.4559 H   0  0  0  0  0  0  0  0  0  0  0  0
  150.9519  136.4391  156.0049 H   0  0  0  0  0  0  0  0  0  0  0  0
  152.0582  136.3149  154.6595 H   0  0  0  0  0  0  0  0  0  0  0  0
  151.2800  138.2836  153.6145 H   0  0  0  0  0  0  0  0  0  0  0  0
  150.9195  138.7631  156.6191 H   0  0  0  0  0  0  0  0  0  0  0  0
  152.4170  138.9303  155.7234 H   0  0  0  0  0  0  0  0  0  0  0  0
  151.0933  141.1106  157.2669 H   0  0  0  0  0  0  0  0  0  0  0  0
  152.4284  141.6185  156.2281 H   0  0  0  0  0  0  0  0  0  0  0  0
  150.1589  143.1843  156.7151 H   0  0  0  0  0  0  0  0  0  0  0  0
  151.0981  143.3276  155.2294 H   0  0  0  0  0  0  0  0  0  0  0  0
  148.3731  142.3660  155.3733 H   0  0  0  0  0  0  0  0  0  0  0  0
  149.4446  142.3337  153.9689 H   0  0  0  0  0  0  0  0  0  0  0  0
  149.0889  140.2413  156.1226 H   0  0  0  0  0  0  0  0  0  0  0  0
  147.9291  139.6913  154.0124 H   0  0  0  0  0  0  0  0  0  0  0  0
  149.4218  139.8855  153.1019 H   0  0  0  0  0  0  0  0  0  0  0  0
  148.6250  134.5183  152.9796 H   0  0  0  0  0  0  0  0  0  0  0  0
  150.0910  131.4686  154.6359 H   0  0  0  0  0  0  0  0  0  0  0  0
  148.9929  129.2742  154.4407 H   0  0  0  0  0  0  0  0  0  0  0  0
  146.7860  129.1172  153.2635 H   0  0  0  0  0  0  0  0  0  0  0  0
  147.2196  133.8134  150.3438 H   0  0  0  0  0  0  0  0  0  0  0  0
  146.4686  132.2405  150.6031 H   0  0  0  0  0  0  0  0  0  0  0  0
  145.1384  134.9335  150.3110 H   0  0  0  0  0  0  0  0  0  0  0  0
  144.5921  133.3807  149.6730 H   0  0  0  0  0  0  0  0  0  0  0  0
  143.4100  134.3518  151.9091 H   0  0  0  0  0  0  0  0  0  0  0  0
  143.8921  132.6516  151.8830 H   0  0  0  0  0  0  0  0  0  0  0  0
  145.0548  133.4449  153.8423 H   0  0  0  0  0  0  0  0  0  0  0  0
  145.4231  134.9813  153.0876 H   0  0  0  0  0  0  0  0  0  0  0  0
  1  2  2  0  0  0  0
  2  3  1  0  0  0  0
  2 14  1  0  0  0  0
  3  4  1  0  0  0  0
  3 26  1  0  0  0  0
  4  5  1  0  0  0  0
  4 27  1  0  0  0  0
  4 28  1  0  0  0  0
  5 13  1  0  0  0  0
  5  6  1  0  0  0  0
  5 29  1  0  0  0  0
  6  7  1  0  0  0  0
  6 30  1  0  0  0  0
  6 31  1  0  0  0  0
  7 11  1  0  0  0  0
  7  8  1  0  0  0  0
  8  9  1  0  0  0  0
  8 32  1  0  0  0  0
  8 33  1  0  0  0  0
  9 10  1  0  0  0  0
  9 34  1  0  0  0  0
  9 35  1  0  0  0  0
 10 11  1  0  0  0  0
 10 36  1  0  0  0  0
 10 37  1  0  0  0  0
 11 12  1  0  0  0  0
 11 38  1  0  0  0  0
 12 13  1  0  0  0  0
 12 39  1  0  0  0  0
 12 40  1  0  0  0  0
 14 15  1  0  0  0  0
 14 41  1  0  0  0  0
 15 20  1  0  0  0  0
 15 16  2  0  0  0  0
 16 17  1  0  0  0  0
 16 42  1  0  0  0  0
 17 18  2  0  0  0  0
 17 43  1  0  0  0  0
 18 19  1  0  0  0  0
 18 44  1  0  0  0  0
 19 20  2  0  0  0  0
 20 21  1  0  0  0  0
 21 25  1  0  0  0  0
 21 22  1  0  0  0  0
 22 23  1  0  0  0  0
 22 45  1  0  0  0  0
 22 46  1  0  0  0  0
 23 24  1  0  0  0  0
 23 47  1  0  0  0  0
 23 48  1  0  0  0  0
 24 25  1  0  0  0  0
 24 49  1  0  0  0  0
 24 50  1  0  0  0  0
 25 51  1  0  0  0  0
 25 52  1  0  0  0  0
M  END
> <s_m_source_file>
AV-unprocessed.smi

> <i_m_source_file_index>
1830

> <i_lp_mmshare_version>
43012

> <i_f3d_flags>
0

> <s_epik_input>
W0NIMl0xW0NIMl1bQ0gyXVtDQEhdKE4xMilbQ0gyXU9bQ0BASF0oW0NIMl0yKVtDSDJdW05IXUMoPU8pW05IXWMzW2NIXVtjSF1bY0hdbmMzTjRbQ0gyXVtDSDJdW0NIMl1bQ0gyXTQ=

> <s_epik_cmdline>
J2VwaWtfcHl0aG9uJywgJy1waCcsICc3LjAnLCAnLXRuJywgJzgnLCAnLW1hJywgJzIwMCcsICctbWV0YWxfYmluZGluZycsICctaW1hZScsICc8aW5maWxlLm1hZT4nLCAnLW9tYWUnLCAnPG91dGZpbGUubWFlPic=

> <r_lp_tautomer_probability>
1

> <r_epik_Ionization_Penalty>
1.16487

> <r_epik_Ionization_Penalty_Charging>
0

> <r_epik_Ionization_Penalty_Neutral>
1.16487

> <r_epik_State_Penalty>
1.21807

> <r_epik_Charging_Adjusted_Penalty>
1.21807

> <i_epik_Tot_Q>
0

> <i_epik_Tot_abs_Q>
0

> <r_epik_Metal_State_Penalty>
1.19922

> <b_epik_Metal_Only>
0

> <s_lp_Force_Field>
OPLS_2005

> <r_lp_Energy>
77.1598

> <b_lp_Chiralities_Consistent>
1

> <s_lp_Variant>
AV-unprocessed.smi:1830-9

> <Gold.Version>
5.8.1

> <Gold.Id.Protein>
6NUR|6NUR_protein|mol2

> <Gold.PLP.Fitness>
41.9456

> <Gold.PLP.PLP>
-34.2552

> <Gold.PLP.part.hbond>
-4.0000

> <Gold.PLP.part.metal>
0.0000

> <Gold.PLP.part.buried>
4.9823

> <Gold.PLP.part.nonpolar>
-34.1528

> <Gold.PLP.part.repulsive>
0.6295

> <Gold.PLP.ligand.clash>
0.0000

> <Gold.PLP.ligand.torsion>
0.4235

> <Gold.PLP.Chemscore.Hbond>
2.8064

> <Gold.PLP.Chemscore.CHOScore>
0.0000

> <Gold.PLP.Chemscore.Metal>
0.0000

> <Gold.Chemscore.Hbonds>
donor molecule, donor type, donor heavy atom, donor atom, acceptor molecule, acceptor atom, score
      L1  H     3    26       P1  7948  1.00
      L1  H    14    41       P1  7948  0.79
      P1  H  7989  7998       L1     7  1.00

> <Gold.PLP.Chemscore.Internal.Correction>
0.1181

> <Gold.Rescore>
     Score         DG    S(hbond)    S(metal)    S(lipo)     H(rot)  DE(clash)    DE(int)     intcor
     15.80     -17.23       1.40        0.00      90.49       1.37       0.09       1.34       ----

> <Gold.Chemscore.Fitness>
15.7958

> <Gold.Chemscore.DG>
-17.2330

> <Gold.Chemscore.ZeroCoef>
-5.4800

> <Gold.Chemscore.Hbond>
1.4027

> <Gold.Chemscore.Metal>
0.0000

> <Gold.Chemscore.Lipo>
90.4861

> <Gold.Chemscore.Internal_Hbond>
0.0000

> <Gold.Chemscore.DEClash>
0.0946

> <Gold.Chemscore.DEInternal>
1.3425

> <Gold.Chemscore.Rot>
1.3746

> <Gold.Chemscore.Internal.Correction>
   9.000000E+99

> <Gold.Chemscore.Hbonds>
donor molecule, donor type, donor heavy atom, donor atom, acceptor molecule, acceptor atom, score
      L1  H     3    26       P1  7948  0.34
      L1  H    14    41       P1  7948  0.14
      P1  H  7989  7998       L1     7  0.20

> <Gold.Chemscore.Hbond.Weighted>
-4.6850

> <Gold.Chemscore.Metal.Weighted>
-0.0000

> <Gold.Chemscore.Lipo.Weighted>
-10.5869

> <Gold.Chemscore.Internal_Hbond.Weighted>
0.0000

> <Gold.Chemscore.DEClash.Weighted>
0.0946

> <Gold.Chemscore.DEInternal.Weighted>
1.3425

> <Gold.Chemscore.Rot.Weighted>
3.5189

> <Gold.Chemscore.Internal.Correction.Weighted>
   9.000000E+99

> <Gold.Protein.RotatedTorsions>
[ 6907 6896 6895 6894 ] final -153.63 input  -60.11 | X-H torsion
[ 7974 7965 7964 7962 ] final  126.27 input  175.53 | X-H torsion
[ 8008 7997 7996 7995 ] final  172.27 input   59.86 | X-H torsion
[ 10167 10162 10161 10158 ] final  101.39 input  -65.29 | X-H torsion
[ 10718 10713 10712 10709 ] final  174.03 input   66.30 | X-H torsion
[ 10763 10752 10751 10750 ] final -159.70 input  -60.55 | X-H torsion
[ 11005 11000 10999 10996 ] final  -67.03 input  -57.11 | X-H torsion

> <Gold.Protein.ActiveResidues>
 VAL166  LYS551  ARG553  GLY616  TRP617  ASP618  TYR619  PRO620  LYS621  CYS622 
 ASP623  PHE694  ASN695  SER759  ASP760  ASP761  ALA762  ILE779  LEU786  VAL792 
 PHE793  MET794  SER795  GLU796  ALA797  LYS798  CYS799  TRP800  GLU811  SER814 

> <Gold.Protein.RotatedAtoms>
  151.2455  133.4377  159.2608 H   0  0  0  0  0  0  0  0  0  0  0  0  # atno 6907 bound_to 6896
  151.0666  134.9771  159.8297 H   0  0  0  0  0  0  0  0  0  0  0  0  # atno 6908 bound_to 6896
  152.5406  134.2402  159.8912 H   0  0  0  0  0  0  0  0  0  0  0  0  # atno 6909 bound_to 6896
  145.0636  139.3786  143.4993 H   0  0  0  0  0  0  0  0  0  0  0  0  # atno 7974 bound_to 7965
  156.1191  140.1490  156.9230 H   0  0  0  0  0  0  0  0  0  0  0  0  # atno 8008 bound_to 7997
  154.4822  140.0876  156.7446 H   0  0  0  0  0  0  0  0  0  0  0  0  # atno 8009 bound_to 7997
  155.4460  140.3433  155.4297 H   0  0  0  0  0  0  0  0  0  0  0  0  # atno 8010 bound_to 7997
  139.7442  144.7002  151.0529 H   0  0  0  0  0  0  0  0  0  0  0  0  # atno 10167 bound_to 10162
  156.9555  131.0044  151.2939 H   0  0  0  0  0  0  0  0  0  0  0  0  # atno 10718 bound_to 10713
  154.7453  135.3078  154.8656 H   0  0  0  0  0  0  0  0  0  0  0  0  # atno 10763 bound_to 10752
  153.9458  135.6769  153.4748 H   0  0  0  0  0  0  0  0  0  0  0  0  # atno 10764 bound_to 10752
  153.1050  135.4893  154.8861 H   0  0  0  0  0  0  0  0  0  0  0  0  # atno 10765 bound_to 10752
  141.1497  133.6711  156.6230 H   0  0  0  0  0  0  0  0  0  0  0  0  # atno 11005 bound_to 11000
  146.3525  140.0346  142.8648 LP  0  0  0  0  0  0  0  0  0  0  0  0  # atno 17320 bound_to 7965
  145.1379  140.9555  143.4506 LP  0  0  0  0  0  0  0  0  0  0  0  0  # atno 17321 bound_to 7965
  140.7790  143.4887  150.9922 LP  0  0  0  0  0  0  0  0  0  0  0  0  # atno 17342 bound_to 10162
  139.8575  143.7358  152.3175 LP  0  0  0  0  0  0  0  0  0  0  0  0  # atno 17343 bound_to 10162
  157.5693  130.8299  149.8370 LP  0  0  0  0  0  0  0  0  0  0  0  0  # atno 17370 bound_to 10713
  156.0344  130.3755  150.1599 LP  0  0  0  0  0  0  0  0  0  0  0  0  # atno 17371 bound_to 10713
  140.3526  134.7756  157.4477 LP  0  0  0  0  0  0  0  0  0  0  0  0  # atno 17394 bound_to 11000
  140.0849  134.5680  155.8503 LP  0  0  0  0  0  0  0  0  0  0  0  0  # atno 17395 bound_to 11000

$$$$
