AV-unprocessed.smi:1056|AV-procd|sdf|4646|dock10
  -GOLD-   22720 3153D 1   1.00000     0.00000
 Structure written by MMmdl.
 45 47  0  0  0  0  0  0  0  0  4 V2000
  151.9956  144.2074  160.8663 C   0  0  0  0  0  0  0  0  0  0  0  0
  151.9476  143.1569  159.7696 C   0  0  0  0  0  0  0  0  0  0  0  0
  151.1026  143.3798  158.6593 C   0  0  0  0  0  0  0  0  0  0  0  0
  151.0824  142.4025  157.6713 C   0  0  0  0  0  0  0  0  0  0  0  0
  150.3690  142.3315  156.4735 N   0  3  0  0  0  0  0  0  0  0  0  0
  150.6789  141.1736  155.8287 C   0  0  0  0  0  0  0  0  0  0  0  0
  151.5762  140.4996  156.5993 N   0  0  0  0  0  0  0  0  0  0  0  0
  152.2308  139.2033  156.3541 C   0  0  0  0  0  0  0  0  0  0  0  0
  151.2774  138.1089  155.8259 C   0  0  2  0  0  0  0  0  0  0  0  0
  151.9427  136.8610  155.8785 O   0  0  0  0  0  0  0  0  0  0  0  0
  150.7963  138.3612  154.3797 C   0  0  0  0  0  0  0  0  0  0  0  0
  149.3888  137.9439  154.1502 N   0  3  2  0  0  0  0  0  0  0  0  0
  148.4530  139.0974  154.1051 C   0  0  0  0  0  0  0  0  0  0  0  0
  147.0822  138.6560  153.5576 C   0  0  0  0  0  0  0  0  0  0  0  0
  146.6369  137.4285  154.2271 N   0  5  0  0  0  0  0  0  0  0  0  0
  147.4344  136.5091  154.8547 C   0  0  0  0  0  0  0  0  0  0  0  0
  147.0650  135.4172  155.2810 O   0  0  0  0  0  0  0  0  0  0  0  0
  148.9191  136.8915  155.0976 C   0  0  0  0  0  0  0  0  0  0  0  0
  151.8629  141.2326  157.7582 C   0  0  0  0  0  0  0  0  0  0  0  0
  152.7006  140.9984  158.8469 C   0  0  0  0  0  0  0  0  0  0  0  0
  152.7362  141.9810  159.8621 C   0  0  0  0  0  0  0  0  0  0  0  0
  153.6432  141.7529  161.0594 C   0  0  0  0  0  0  0  0  0  0  0  0
  151.3713  145.0675  160.6226 H   0  0  0  0  0  0  0  0  0  0  0  0
  153.0147  144.5673  161.0093 H   0  0  0  0  0  0  0  0  0  0  0  0
  151.6388  143.7922  161.8091 H   0  0  0  0  0  0  0  0  0  0  0  0
  150.5004  144.2734  158.5815 H   0  0  0  0  0  0  0  0  0  0  0  0
  150.2821  140.8458  154.8783 H   0  0  0  0  0  0  0  0  0  0  0  0
  153.0262  139.3798  155.6287 H   0  0  0  0  0  0  0  0  0  0  0  0
  152.7294  138.8725  157.2647 H   0  0  0  0  0  0  0  0  0  0  0  0
  150.4300  138.0626  156.5083 H   0  0  0  0  0  0  0  0  0  0  0  0
  151.5217  136.3163  156.5263 H   0  0  0  0  0  0  0  0  0  0  0  0
  150.8954  139.4171  154.1249 H   0  0  0  0  0  0  0  0  0  0  0  0
  151.4511  137.8198  153.6952 H   0  0  0  0  0  0  0  0  0  0  0  0
  148.3485  139.5215  155.1053 H   0  0  0  0  0  0  0  0  0  0  0  0
  148.8483  139.8876  153.4657 H   0  0  0  0  0  0  0  0  0  0  0  0
  146.3669  139.4691  153.6772 H   0  0  0  0  0  0  0  0  0  0  0  0
  147.1741  138.4964  152.4830 H   0  0  0  0  0  0  0  0  0  0  0  0
  149.5249  135.9914  155.0003 H   0  0  0  0  0  0  0  0  0  0  0  0
  149.0223  137.2422  156.1255 H   0  0  0  0  0  0  0  0  0  0  0  0
  153.3038  140.1061  158.9221 H   0  0  0  0  0  0  0  0  0  0  0  0
  154.1529  140.7910  160.9967 H   0  0  0  0  0  0  0  0  0  0  0  0
  153.0680  141.7645  161.9856 H   0  0  0  0  0  0  0  0  0  0  0  0
  154.4053  142.5307  161.1145 H   0  0  0  0  0  0  0  0  0  0  0  0
  149.3501  137.5378  153.2265 H   0  0  0  0  0  0  0  0  0  0  0  0
  149.7208  143.0226  156.1173 H   0  0  0  0  0  0  0  0  0  0  0  0
  1  2  1  0  0  0  0
  1 23  1  0  0  0  0
  1 24  1  0  0  0  0
  1 25  1  0  0  0  0
  2 21  1  0  0  0  0
  2  3  2  0  0  0  0
  3  4  1  0  0  0  0
  3 26  1  0  0  0  0
  4 19  2  0  0  0  0
  4  5  1  0  0  0  0
  5  6  2  0  0  0  0
  5 45  1  0  0  0  0
  6  7  1  0  0  0  0
  6 27  1  0  0  0  0
  7  8  1  0  0  0  0
  7 19  1  0  0  0  0
  8  9  1  0  0  0  0
  8 28  1  0  0  0  0
  8 29  1  0  0  0  0
  9 10  1  0  0  0  0
  9 11  1  0  0  0  0
  9 30  1  0  0  0  0
 10 31  1  0  0  0  0
 11 12  1  0  0  0  0
 11 32  1  0  0  0  0
 11 33  1  0  0  0  0
 12 18  1  0  0  0  0
 12 13  1  0  0  0  0
 12 44  1  0  0  0  0
 13 14  1  0  0  0  0
 13 34  1  0  0  0  0
 13 35  1  0  0  0  0
 14 15  1  0  0  0  0
 14 36  1  0  0  0  0
 14 37  1  0  0  0  0
 15 16  1  0  0  0  0
 16 17  2  0  0  0  0
 16 18  1  0  0  0  0
 18 38  1  0  0  0  0
 18 39  1  0  0  0  0
 19 20  1  0  0  0  0
 20 21  2  0  0  0  0
 20 40  1  0  0  0  0
 21 22  1  0  0  0  0
 22 41  1  0  0  0  0
 22 42  1  0  0  0  0
 22 43  1  0  0  0  0
M  CHG  1   5   1
M  CHG  1  12   1
M  CHG  1  15  -1
M  END
> <s_m_source_file>
AV-unprocessed.smi

> <i_m_source_file_index>
1056

> <i_lp_mmshare_version>
43012

> <i_f3d_flags>
0

> <s_epik_input>
W0NIM11jKFtjSF0xKWMoW0NIM10pW2NIXWMoYzEyKW4oW2NIXW4yKVtDSDJdW0NASF0oW09IXSlbQ0gyXU4zW0NIMl1bQ0gyXVtOSF1DKD1PKVtDSDJdMw==

> <s_epik_cmdline>
J2VwaWtfcHl0aG9uJywgJy1waCcsICc3LjAnLCAnLXRuJywgJzgnLCAnLW1hJywgJzIwMCcsICctbWV0YWxfYmluZGluZycsICctaW1hZScsICc8aW5maWxlLm1hZT4nLCAnLW9tYWUnLCAnPG91dGZpbGUubWFlPic=

> <r_epik_Ionization_Penalty>
6.22415

> <r_epik_Ionization_Penalty_Charging>
6.22415

> <r_epik_Ionization_Penalty_Neutral>
4.02797e-07

> <r_epik_State_Penalty>
6.37716

> <r_epik_Charging_Adjusted_Penalty>
12.6013

> <i_epik_Tot_Q>
1

> <i_epik_Tot_abs_Q>
3

> <r_epik_Metal_State_Penalty>
2.53509

> <b_epik_Metal_Only>
1

> <s_lp_Force_Field>
OPLS_2005

> <r_lp_Energy>
27.0798

> <b_lp_Chiralities_Consistent>
1

> <s_lp_Variant>
AV-unprocessed.smi:1056-17

> <Gold.Version>
5.8.1

> <Gold.Id.Protein>
6NUR|6NUR_protein|mol2

> <Gold.PLP.Fitness>
53.6116

> <Gold.PLP.PLP>
-41.2030

> <Gold.PLP.part.hbond>
-3.0000

> <Gold.PLP.part.metal>
0.0000

> <Gold.PLP.part.buried>
-5.3594

> <Gold.PLP.part.nonpolar>
-33.5298

> <Gold.PLP.part.repulsive>
0.2516

> <Gold.PLP.ligand.clash>
0.0000

> <Gold.PLP.ligand.torsion>
1.3058

> <Gold.PLP.Chemscore.Hbond>
5.0000

> <Gold.PLP.Chemscore.CHOScore>
0.0000

> <Gold.PLP.Chemscore.Metal>
0.0000

> <Gold.Chemscore.Hbonds>
donor molecule, donor type, donor heavy atom, donor atom, acceptor molecule, acceptor atom, score
      L1  H     5    45       P1  8028  2.00
      L1  H    12    44       P1  7948  2.00
      P1  H 10752 10765       L1    10  1.00

> <Gold.PLP.Chemscore.Internal.Correction>
0.0202

> <Gold.Rescore>
     Score         DG    S(hbond)    S(metal)    S(lipo)     H(rot)  DE(clash)    DE(int)     intcor
     20.18     -21.61       2.73        0.00     111.74       2.37       0.07       1.36       ----

> <Gold.Chemscore.Fitness>
20.1792

> <Gold.Chemscore.DG>
-21.6118

> <Gold.Chemscore.ZeroCoef>
-5.4800

> <Gold.Chemscore.Hbond>
2.7339

> <Gold.Chemscore.Metal>
0.0000

> <Gold.Chemscore.Lipo>
111.7441

> <Gold.Chemscore.Internal_Hbond>
0.0000

> <Gold.Chemscore.DEClash>
0.0696

> <Gold.Chemscore.DEInternal>
1.3629

> <Gold.Chemscore.Rot>
2.3724

> <Gold.Chemscore.Internal.Correction>
   9.000000E+99

> <Gold.Chemscore.Hbonds>
donor molecule, donor type, donor heavy atom, donor atom, acceptor molecule, acceptor atom, score
      L1  H     5    45       P1  8028  0.99
      L1  H    12    44       P1  7948  0.96
      P1  H 10752 10765       L1    10  0.42

> <Gold.Chemscore.Hbond.Weighted>
-9.1312

> <Gold.Chemscore.Metal.Weighted>
-0.0000

> <Gold.Chemscore.Lipo.Weighted>
-13.0741

> <Gold.Chemscore.Internal_Hbond.Weighted>
0.0000

> <Gold.Chemscore.DEClash.Weighted>
0.0696

> <Gold.Chemscore.DEInternal.Weighted>
1.3629

> <Gold.Chemscore.Rot.Weighted>
6.0734

> <Gold.Chemscore.Internal.Correction.Weighted>
   9.000000E+99

> <Gold.Protein.RotatedTorsions>
[ 6907 6896 6895 6894 ] final   -4.46 input  -60.11 | X-H torsion
[ 7974 7965 7964 7962 ] final   50.70 input  175.53 | X-H torsion
[ 8008 7997 7996 7995 ] final -115.32 input   59.86 | X-H torsion
[ 10167 10162 10161 10158 ] final   49.25 input  -65.29 | X-H torsion
[ 10718 10713 10712 10709 ] final -122.72 input   66.30 | X-H torsion
[ 10763 10752 10751 10750 ] final -169.41 input  -60.55 | X-H torsion
[ 11005 11000 10999 10996 ] final -137.47 input  -57.11 | X-H torsion

> <Gold.Protein.ActiveResidues>
 VAL166  LYS551  ARG553  GLY616  TRP617  ASP618  TYR619  PRO620  LYS621  CYS622 
 ASP623  PHE694  ASN695  SER759  ASP760  ASP761  ALA762  ILE779  LEU786  VAL792 
 PHE793  MET794  SER795  GLU796  ALA797  LYS798  CYS799  TRP800  GLU811  SER814 

> <Gold.Protein.RotatedAtoms>
  151.4974  135.1060  159.9819 H   0  0  0  0  0  0  0  0  0  0  0  0  # atno 6907 bound_to 6896
  152.4716  133.8039  159.6978 H   0  0  0  0  0  0  0  0  0  0  0  0  # atno 6908 bound_to 6896
  150.8729  133.7418  159.2982 H   0  0  0  0  0  0  0  0  0  0  0  0  # atno 6909 bound_to 6896
  145.9986  139.4415  143.0029 H   0  0  0  0  0  0  0  0  0  0  0  0  # atno 7974 bound_to 7965
  155.0502  140.0393  157.2541 H   0  0  0  0  0  0  0  0  0  0  0  0  # atno 8008 bound_to 7997
  154.7144  140.2699  155.6575 H   0  0  0  0  0  0  0  0  0  0  0  0  # atno 8009 bound_to 7997
  156.2799  140.2715  156.1795 H   0  0  0  0  0  0  0  0  0  0  0  0  # atno 8010 bound_to 7997
  140.2848  144.3115  150.6255 H   0  0  0  0  0  0  0  0  0  0  0  0  # atno 10167 bound_to 10162
  156.1442  130.6488  150.9817 H   0  0  0  0  0  0  0  0  0  0  0  0  # atno 10718 bound_to 10713
  154.6526  135.2913  154.9968 H   0  0  0  0  0  0  0  0  0  0  0  0  # atno 10763 bound_to 10752
  154.1056  135.6570  153.4880 H   0  0  0  0  0  0  0  0  0  0  0  0  # atno 10764 bound_to 10752
  153.0384  135.5253  154.7440 H   0  0  0  0  0  0  0  0  0  0  0  0  # atno 10765 bound_to 10752
  140.8708  134.2053  157.4652 H   0  0  0  0  0  0  0  0  0  0  0  0  # atno 11005 bound_to 11000
  145.7522  140.9968  143.1244 LP  0  0  0  0  0  0  0  0  0  0  0  0  # atno 17320 bound_to 7965
  144.6912  139.9228  143.7468 LP  0  0  0  0  0  0  0  0  0  0  0  0  # atno 17321 bound_to 7965
  140.5782  143.2175  151.7477 LP  0  0  0  0  0  0  0  0  0  0  0  0  # atno 17342 bound_to 10162
  139.4953  144.4119  152.0071 LP  0  0  0  0  0  0  0  0  0  0  0  0  # atno 17343 bound_to 10162
  157.6602  131.0882  150.7856 LP  0  0  0  0  0  0  0  0  0  0  0  0  # atno 17370 bound_to 10713
  156.7929  130.4896  149.5382 LP  0  0  0  0  0  0  0  0  0  0  0  0  # atno 17371 bound_to 10713
  139.8712  134.9773  156.4954 LP  0  0  0  0  0  0  0  0  0  0  0  0  # atno 17394 bound_to 11000
  140.8575  133.8085  155.9231 LP  0  0  0  0  0  0  0  0  0  0  0  0  # atno 17395 bound_to 11000

$$$$
