AV-unprocessed.smi:560|AV-procd|sdf|2931|dock10
  -GOLD-   2262023423D 1   1.00000     0.00000
 Structure written by MMmdl.
 42 43  0  0  0  0  0  0  0  0  2 V2000
  149.8357  139.9203  157.8463 C   0  0  0  0  0  0  0  0  0  0  0  0
  150.6905  140.6721  156.8056 C   0  0  1  0  0  0  0  0  0  0  0  0
  149.9516  140.8980  155.4764 C   0  0  0  0  0  0  0  0  0  0  0  0
  150.4342  140.5107  154.4117 O   0  0  0  0  0  0  0  0  0  0  0  0
  148.7728  141.5366  155.5547 N   0  0  0  0  0  0  0  0  0  0  0  0
  147.8933  141.8332  154.4250 C   0  0  2  0  0  0  0  0  0  0  0  0
  146.6248  142.5908  154.8652 C   0  0  0  0  0  0  0  0  0  0  0  0
  145.6707  141.6931  155.6714 C   0  0  0  0  0  0  0  0  0  0  0  0
  145.3076  140.4732  154.9020 N   0  3  2  0  0  0  0  0  0  0  0  0
  144.2764  139.6438  155.5776 C   0  0  0  0  0  0  0  0  0  0  0  0
  142.9750  140.4071  155.8455 C   0  0  0  0  0  0  0  0  0  0  0  0
  142.3325  140.8951  154.7820 N   0  0  0  0  0  0  0  0  0  0  0  0
  142.5609  140.5680  156.9920 O   0  0  0  0  0  0  0  0  0  0  0  0
  146.5104  139.6874  154.5249 C   0  0  0  0  0  0  0  0  0  0  0  0
  147.4965  140.5354  153.6999 C   0  0  0  0  0  0  0  0  0  0  0  0
  151.2014  141.9361  157.3247 N   0  0  0  0  0  0  0  0  0  0  0  0
  150.9621  143.2087  156.8469 C   0  0  0  0  0  0  0  0  0  0  0  0
  151.6136  144.0850  157.6666 C   0  0  0  0  0  0  0  0  0  0  0  0
  152.2257  143.2465  158.6389 C   0  0  0  0  0  0  0  0  0  0  0  0
  151.9708  141.9642  158.4377 N   0  0  0  0  0  0  0  0  0  0  0  0
  149.5127  138.9515  157.4638 H   0  0  0  0  0  0  0  0  0  0  0  0
  148.9412  140.4796  158.1244 H   0  0  0  0  0  0  0  0  0  0  0  0
  150.4058  139.7372  158.7574 H   0  0  0  0  0  0  0  0  0  0  0  0
  151.5547  140.0426  156.5878 H   0  0  0  0  0  0  0  0  0  0  0  0
  148.4488  141.8111  156.4705 H   0  0  0  0  0  0  0  0  0  0  0  0
  148.4503  142.4564  153.7226 H   0  0  0  0  0  0  0  0  0  0  0  0
  146.8848  143.4765  155.4457 H   0  0  0  0  0  0  0  0  0  0  0  0
  146.1029  142.9566  153.9799 H   0  0  0  0  0  0  0  0  0  0  0  0
  146.1309  141.4064  156.6183 H   0  0  0  0  0  0  0  0  0  0  0  0
  144.7742  142.2619  155.9199 H   0  0  0  0  0  0  0  0  0  0  0  0
  144.0142  138.7955  154.9439 H   0  0  0  0  0  0  0  0  0  0  0  0
  144.6770  139.2308  156.5048 H   0  0  0  0  0  0  0  0  0  0  0  0
  141.4675  141.4032  154.8980 H   0  0  0  0  0  0  0  0  0  0  0  0
  142.7136  140.7502  153.8575 H   0  0  0  0  0  0  0  0  0  0  0  0
  146.9945  139.3065  155.4255 H   0  0  0  0  0  0  0  0  0  0  0  0
  146.2119  138.8192  153.9364 H   0  0  0  0  0  0  0  0  0  0  0  0
  147.0329  140.7887  152.7453 H   0  0  0  0  0  0  0  0  0  0  0  0
  148.3846  139.9500  153.4581 H   0  0  0  0  0  0  0  0  0  0  0  0
  150.3543  143.3841  155.9717 H   0  0  0  0  0  0  0  0  0  0  0  0
  151.6455  145.1613  157.5864 H   0  0  0  0  0  0  0  0  0  0  0  0
  152.8391  143.5290  159.4816 H   0  0  0  0  0  0  0  0  0  0  0  0
  144.8898  140.7852  154.0364 H   0  0  0  0  0  0  0  0  0  0  0  0
  1  2  1  0  0  0  0
  1 21  1  0  0  0  0
  1 22  1  0  0  0  0
  1 23  1  0  0  0  0
  2  3  1  0  0  0  0
  2 16  1  0  0  0  0
  2 24  1  0  0  0  0
  3  4  2  0  0  0  0
  3  5  1  0  0  0  0
  5  6  1  0  0  0  0
  5 25  1  0  0  0  0
  6 15  1  0  0  0  0
  6  7  1  0  0  0  0
  6 26  1  0  0  0  0
  7  8  1  0  0  0  0
  7 27  1  0  0  0  0
  7 28  1  0  0  0  0
  8  9  1  0  0  0  0
  8 29  1  0  0  0  0
  8 30  1  0  0  0  0
  9 10  1  0  0  0  0
  9 14  1  0  0  0  0
  9 42  1  0  0  0  0
 10 11  1  0  0  0  0
 10 31  1  0  0  0  0
 10 32  1  0  0  0  0
 11 12  1  0  0  0  0
 11 13  2  0  0  0  0
 12 33  1  0  0  0  0
 12 34  1  0  0  0  0
 14 15  1  0  0  0  0
 14 35  1  0  0  0  0
 14 36  1  0  0  0  0
 15 37  1  0  0  0  0
 15 38  1  0  0  0  0
 16 20  1  0  0  0  0
 16 17  1  0  0  0  0
 17 18  2  0  0  0  0
 17 39  1  0  0  0  0
 18 19  1  0  0  0  0
 18 40  1  0  0  0  0
 19 20  2  0  0  0  0
 19 41  1  0  0  0  0
M  CHG  1   9   1
M  END
> <s_m_source_file>
AV-unprocessed.smi

> <i_m_source_file_index>
560

> <i_lp_mmshare_version>
43012

> <i_f3d_flags>
0

> <s_epik_input>
bjFbY0hdW2NIXVtjSF1uMVtDQEhdKFtDSDNdKUMoPU8pW05IXVtDSF0yW0NIMl1bQ0gyXU4oW0NIMl1bQ0gyXTIpW0NIMl1DKD1PKVtOSDJd

> <s_epik_cmdline>
J2VwaWtfcHl0aG9uJywgJy1waCcsICc3LjAnLCAnLXRuJywgJzgnLCAnLW1hJywgJzIwMCcsICctbWV0YWxfYmluZGluZycsICctaW1hZScsICc8aW5maWxlLm1hZT4nLCAnLW9tYWUnLCAnPG91dGZpbGUubWFlPic=

> <r_lp_tautomer_probability>
1

> <r_epik_Ionization_Penalty>
1.02943

> <r_epik_Ionization_Penalty_Charging>
1.02936

> <r_epik_Ionization_Penalty_Neutral>
7.4537e-05

> <r_epik_State_Penalty>
1.08036

> <r_epik_Charging_Adjusted_Penalty>
2.10972

> <i_epik_Tot_Q>
1

> <i_epik_Tot_abs_Q>
1

> <r_epik_Metal_State_Penalty>
1.09347

> <b_epik_Metal_Only>
0

> <s_lp_Force_Field>
OPLS_2005

> <r_lp_Energy>
15.8217

> <b_lp_Chiralities_Consistent>
1

> <s_lp_Variant>
AV-unprocessed.smi:560-6

> <Gold.Version>
5.8.1

> <Gold.Id.Protein>
6NUR|6NUR_protein|mol2

> <Gold.PLP.Fitness>
45.1473

> <Gold.PLP.PLP>
-30.4702

> <Gold.PLP.part.hbond>
-4.2561

> <Gold.PLP.part.metal>
0.0000

> <Gold.PLP.part.buried>
0.1783

> <Gold.PLP.part.nonpolar>
-26.8619

> <Gold.PLP.part.repulsive>
0.2305

> <Gold.PLP.ligand.clash>
0.0000

> <Gold.PLP.ligand.torsion>
0.1785

> <Gold.PLP.Chemscore.Hbond>
3.9920

> <Gold.PLP.Chemscore.CHOScore>
0.9766

> <Gold.PLP.Chemscore.Metal>
0.0000

> <Gold.Chemscore.Hbonds>
donor molecule, donor type, donor heavy atom, donor atom, acceptor molecule, acceptor atom, score
      L1  H     9    42       P1 10175  2.00
      L1  H    12    34       P1 10175  1.00
      P1  H  7989  7998       L1     4  0.96
      L1  C    17    39       P1  8028  0.93

> <Gold.PLP.Chemscore.Internal.Correction>
0.1282

> <Gold.Rescore>
     Score         DG    S(hbond)    S(metal)    S(lipo)     H(rot)  DE(clash)    DE(int)     intcor
     14.97     -16.24       2.86        0.00      65.55       2.52       0.16       1.11       ----

> <Gold.Chemscore.Fitness>
14.9743

> <Gold.Chemscore.DG>
-16.2407

> <Gold.Chemscore.ZeroCoef>
-5.4800

> <Gold.Chemscore.Hbond>
2.8604

> <Gold.Chemscore.Metal>
0.0000

> <Gold.Chemscore.Lipo>
65.5487

> <Gold.Chemscore.Internal_Hbond>
0.0000

> <Gold.Chemscore.DEClash>
0.1574

> <Gold.Chemscore.DEInternal>
1.1090

> <Gold.Chemscore.Rot>
2.5243

> <Gold.Chemscore.Internal.Correction>
   9.000000E+99

> <Gold.Chemscore.Hbonds>
donor molecule, donor type, donor heavy atom, donor atom, acceptor molecule, acceptor atom, score
      L1  H     9    42       P1 10175  0.90
      L1  H    12    34       P1 10175  0.45
      P1  H  7989  7998       L1     4  0.87

> <Gold.Chemscore.Hbond.Weighted>
-9.5537

> <Gold.Chemscore.Metal.Weighted>
-0.0000

> <Gold.Chemscore.Lipo.Weighted>
-7.6692

> <Gold.Chemscore.Internal_Hbond.Weighted>
0.0000

> <Gold.Chemscore.DEClash.Weighted>
0.1574

> <Gold.Chemscore.DEInternal.Weighted>
1.1090

> <Gold.Chemscore.Rot.Weighted>
6.4622

> <Gold.Chemscore.Internal.Correction.Weighted>
   9.000000E+99

> <Gold.Protein.RotatedTorsions>
[ 6907 6896 6895 6894 ] final   31.79 input  -60.11 | X-H torsion
[ 7974 7965 7964 7962 ] final   99.57 input  175.53 | X-H torsion
[ 8008 7997 7996 7995 ] final   90.27 input   59.86 | X-H torsion
[ 10167 10162 10161 10158 ] final -177.69 input  -65.29 | X-H torsion
[ 10718 10713 10712 10709 ] final   20.41 input   66.30 | X-H torsion
[ 10763 10752 10751 10750 ] final   72.88 input  -60.55 | X-H torsion
[ 11005 11000 10999 10996 ] final -157.86 input  -57.11 | X-H torsion

> <Gold.Protein.ActiveResidues>
 VAL166  LYS551  ARG553  GLY616  TRP617  ASP618  TYR619  PRO620  LYS621  CYS622 
 ASP623  PHE694  ASN695  SER759  ASP760  ASP761  ALA762  ILE779  LEU786  VAL792 
 PHE793  MET794  SER795  GLU796  ALA797  LYS798  CYS799  TRP800  GLU811  SER814 

> <Gold.Protein.RotatedAtoms>
  152.0653  134.9568  160.0574 H   0  0  0  0  0  0  0  0  0  0  0  0  # atno 6907 bound_to 6896
  152.0915  133.4198  159.4554 H   0  0  0  0  0  0  0  0  0  0  0  0  # atno 6908 bound_to 6896
  150.6837  134.2785  159.4661 H   0  0  0  0  0  0  0  0  0  0  0  0  # atno 6909 bound_to 6896
  145.3971  139.2353  143.3320 H   0  0  0  0  0  0  0  0  0  0  0  0  # atno 7974 bound_to 7965
  156.0100  140.3351  155.6931 H   0  0  0  0  0  0  0  0  0  0  0  0  # atno 8008 bound_to 7997
  155.6171  140.0671  157.2707 H   0  0  0  0  0  0  0  0  0  0  0  0  # atno 8009 bound_to 7997
  154.4278  140.1783  156.1321 H   0  0  0  0  0  0  0  0  0  0  0  0  # atno 8010 bound_to 7997
  139.5468  144.2214  152.1003 H   0  0  0  0  0  0  0  0  0  0  0  0  # atno 10167 bound_to 10162
  157.1241  130.6562  149.5932 H   0  0  0  0  0  0  0  0  0  0  0  0  # atno 10718 bound_to 10713
  153.0486  135.5083  154.7811 H   0  0  0  0  0  0  0  0  0  0  0  0  # atno 10763 bound_to 10752
  154.6690  135.2950  154.9769 H   0  0  0  0  0  0  0  0  0  0  0  0  # atno 10764 bound_to 10752
  154.0593  135.6693  153.4862 H   0  0  0  0  0  0  0  0  0  0  0  0  # atno 10765 bound_to 10752
  140.6600  134.4359  157.5234 H   0  0  0  0  0  0  0  0  0  0  0  0  # atno 11005 bound_to 11000
  146.2770  140.4663  142.8791 LP  0  0  0  0  0  0  0  0  0  0  0  0  # atno 17320 bound_to 7965
  144.8399  140.6841  143.6236 LP  0  0  0  0  0  0  0  0  0  0  0  0  # atno 17321 bound_to 7965
  140.1702  144.4943  150.6584 LP  0  0  0  0  0  0  0  0  0  0  0  0  # atno 17342 bound_to 10162
  140.6719  143.2289  151.5604 LP  0  0  0  0  0  0  0  0  0  0  0  0  # atno 17343 bound_to 10162
  155.9822  130.4834  150.6868 LP  0  0  0  0  0  0  0  0  0  0  0  0  # atno 17370 bound_to 10713
  157.4450  131.0866  151.0904 LP  0  0  0  0  0  0  0  0  0  0  0  0  # atno 17371 bound_to 10713
  139.9016  134.8543  156.1872 LP  0  0  0  0  0  0  0  0  0  0  0  0  # atno 17394 bound_to 11000
  141.0472  133.6907  156.1705 LP  0  0  0  0  0  0  0  0  0  0  0  0  # atno 17395 bound_to 11000

$$$$
