AV-unprocessed.smi:1163|AV-procd|sdf|4923|dock2
  -GOLD-   22720 3503D 1   1.00000     0.00000
 Structure written by MMmdl.
 40 41  0  0  0  0  0  0  0  0  2 V2000
  153.8630  138.3750  158.8781 C   0  0  0  0  0  0  0  0  0  0  0  0
  153.5472  138.9028  157.5946 O   0  0  0  0  0  0  0  0  0  0  0  0
  152.6722  138.1979  156.7937 C   0  0  0  0  0  0  0  0  0  0  0  0
  152.3933  138.6902  155.5033 C   0  0  0  0  0  0  0  0  0  0  0  0
  151.5005  137.9781  154.6797 C   0  0  0  0  0  0  0  0  0  0  0  0
  150.9062  136.7939  155.1780 C   0  0  0  0  0  0  0  0  0  0  0  0
  150.0042  135.9759  154.4446 N   0  0  0  0  0  0  0  0  0  0  0  0
  149.5626  134.7405  154.7365 C   0  0  0  0  0  0  0  0  0  0  0  0
  149.8922  134.0762  155.7187 O   0  0  0  0  0  0  0  0  0  0  0  0
  148.7142  134.2940  153.7994 N   0  0  0  0  0  0  0  0  0  0  0  0
  148.0590  132.9905  153.8243 C   0  0  1  0  0  0  0  0  0  0  0  0
  146.9902  132.8181  152.7543 C   0  0  0  0  0  0  0  0  0  0  0  0
  146.8347  131.2951  152.6978 C   0  0  0  0  0  0  0  0  0  0  0  0
  148.1595  130.7184  153.0438 N   0  3  2  0  0  0  0  0  0  0  0  0
  148.1137  129.5529  153.9628 C   0  0  0  0  0  0  0  0  0  0  0  0
  147.8175  128.2299  153.2336 C   0  0  0  0  0  0  0  0  0  0  0  0
  147.6973  127.2557  154.1342 F   0  0  0  0  0  0  0  0  0  0  0  0
  146.6839  128.3010  152.5367 F   0  0  0  0  0  0  0  0  0  0  0  0
  148.8210  127.9281  152.4098 F   0  0  0  0  0  0  0  0  0  0  0  0
  149.0134  131.8324  153.5185 C   0  0  0  0  0  0  0  0  0  0  0  0
  151.2631  136.3794  156.4780 C   0  0  0  0  0  0  0  0  0  0  0  0
  152.1171  137.0576  157.2728 N   0  0  0  0  0  0  0  0  0  0  0  0
  154.5612  139.0436  159.3814 H   0  0  0  0  0  0  0  0  0  0  0  0
  154.3396  137.3964  158.8015 H   0  0  0  0  0  0  0  0  0  0  0  0
  152.9740  138.2924  159.5050 H   0  0  0  0  0  0  0  0  0  0  0  0
  152.8596  139.5975  155.1490 H   0  0  0  0  0  0  0  0  0  0  0  0
  151.3040  138.3476  153.6856 H   0  0  0  0  0  0  0  0  0  0  0  0
  149.6970  136.3604  153.5632 H   0  0  0  0  0  0  0  0  0  0  0  0
  148.4987  134.9014  153.0221 H   0  0  0  0  0  0  0  0  0  0  0  0
  147.6015  132.8337  154.8037 H   0  0  0  0  0  0  0  0  0  0  0  0
  146.0579  133.3299  152.9956 H   0  0  0  0  0  0  0  0  0  0  0  0
  147.3464  133.1936  151.7936 H   0  0  0  0  0  0  0  0  0  0  0  0
  146.0868  130.9913  153.4320 H   0  0  0  0  0  0  0  0  0  0  0  0
  146.4968  130.9511  151.7199 H   0  0  0  0  0  0  0  0  0  0  0  0
  149.0877  129.4569  154.4449 H   0  0  0  0  0  0  0  0  0  0  0  0
  147.3904  129.7297  154.7604 H   0  0  0  0  0  0  0  0  0  0  0  0
  149.6910  132.1027  152.7072 H   0  0  0  0  0  0  0  0  0  0  0  0
  149.6271  131.5680  154.3810 H   0  0  0  0  0  0  0  0  0  0  0  0
  150.8472  135.4752  156.8980 H   0  0  0  0  0  0  0  0  0  0  0  0
  148.5810  130.3905  152.1861 H   0  0  0  0  0  0  0  0  0  0  0  0
  1  2  1  0  0  0  0
  1 23  1  0  0  0  0
  1 24  1  0  0  0  0
  1 25  1  0  0  0  0
  2  3  1  0  0  0  0
  3 22  1  0  0  0  0
  3  4  2  0  0  0  0
  4  5  1  0  0  0  0
  4 26  1  0  0  0  0
  5  6  2  0  0  0  0
  5 27  1  0  0  0  0
  6  7  1  0  0  0  0
  6 21  1  0  0  0  0
  7  8  1  0  0  0  0
  7 28  1  0  0  0  0
  8  9  2  0  0  0  0
  8 10  1  0  0  0  0
 10 11  1  0  0  0  0
 10 29  1  0  0  0  0
 11 20  1  0  0  0  0
 11 12  1  0  0  0  0
 11 30  1  0  0  0  0
 12 13  1  0  0  0  0
 12 31  1  0  0  0  0
 12 32  1  0  0  0  0
 13 14  1  0  0  0  0
 13 33  1  0  0  0  0
 13 34  1  0  0  0  0
 14 15  1  0  0  0  0
 14 20  1  0  0  0  0
 14 40  1  0  0  0  0
 15 16  1  0  0  0  0
 15 35  1  0  0  0  0
 15 36  1  0  0  0  0
 16 17  1  0  0  0  0
 16 18  1  0  0  0  0
 16 19  1  0  0  0  0
 20 37  1  0  0  0  0
 20 38  1  0  0  0  0
 21 22  2  0  0  0  0
 21 39  1  0  0  0  0
M  CHG  1  14   1
M  END
> <s_m_source_file>
AV-unprocessed.smi

> <i_m_source_file_index>
1163

> <i_lp_mmshare_version>
43012

> <i_f3d_flags>
0

> <s_epik_input>
W0NIM11PYzFbY0hdW2NIXWMoW2NIXW4xKVtOSF1DKD1PKVtOSF1bQ0BASF0yW0NIMl1bQ0gyXU4oW0NIMl0yKVtDSDJdQyhGKShGKUY=

> <s_epik_cmdline>
J2VwaWtfcHl0aG9uJywgJy1waCcsICc3LjAnLCAnLXRuJywgJzgnLCAnLW1hJywgJzIwMCcsICctbWV0YWxfYmluZGluZycsICctaW1hZScsICc8aW5maWxlLm1hZT4nLCAnLW9tYWUnLCAnPG91dGZpbGUubWFlPic=

> <r_lp_tautomer_probability>
1

> <r_epik_Ionization_Penalty>
1.12054

> <r_epik_Ionization_Penalty_Charging>
1.12047

> <r_epik_Ionization_Penalty_Neutral>
7.20346e-05

> <r_epik_State_Penalty>
1.17927

> <r_epik_Charging_Adjusted_Penalty>
2.29974

> <i_epik_Tot_Q>
1

> <i_epik_Tot_abs_Q>
1

> <r_epik_Metal_State_Penalty>
1.17928

> <b_epik_Metal_Only>
0

> <s_lp_Force_Field>
OPLS_2005

> <r_lp_Energy>
31.6131

> <b_lp_Chiralities_Consistent>
1

> <s_lp_Variant>
AV-unprocessed.smi:1163-4

> <Gold.Version>
5.8.1

> <Gold.Id.Protein>
6NUR|6NUR_protein|mol2

> <Gold.PLP.Fitness>
45.8054

> <Gold.PLP.PLP>
-34.2167

> <Gold.PLP.part.hbond>
-4.6295

> <Gold.PLP.part.metal>
0.0000

> <Gold.PLP.part.buried>
-3.3216

> <Gold.PLP.part.nonpolar>
-26.3965

> <Gold.PLP.part.repulsive>
0.1043

> <Gold.PLP.ligand.clash>
0.0000

> <Gold.PLP.ligand.torsion>
0.4251

> <Gold.PLP.Chemscore.Hbond>
3.9760

> <Gold.PLP.Chemscore.CHOScore>
0.0000

> <Gold.PLP.Chemscore.Metal>
0.0000

> <Gold.Chemscore.Hbonds>
donor molecule, donor type, donor heavy atom, donor atom, acceptor molecule, acceptor atom, score
      L1  H     7    28       P1  7948  1.00
      L1  H    10    29       P1  7948  1.00
      L1  H    14    40       P1 10747  0.93
      P1  H  7997  8010       L1     2  1.00

> <Gold.PLP.Chemscore.Internal.Correction>
0.5109

> <Gold.Rescore>
     Score         DG    S(hbond)    S(metal)    S(lipo)     H(rot)  DE(clash)    DE(int)     intcor
     17.47     -19.34       3.31        0.00      60.75       1.68       0.01       1.87       ----

> <Gold.Chemscore.Fitness>
17.4665

> <Gold.Chemscore.DG>
-19.3391

> <Gold.Chemscore.ZeroCoef>
-5.4800

> <Gold.Chemscore.Hbond>
3.3075

> <Gold.Chemscore.Metal>
0.0000

> <Gold.Chemscore.Lipo>
60.7466

> <Gold.Chemscore.Internal_Hbond>
0.0000

> <Gold.Chemscore.DEClash>
0.0067

> <Gold.Chemscore.DEInternal>
1.8659

> <Gold.Chemscore.Rot>
1.6778

> <Gold.Chemscore.Internal.Correction>
   9.000000E+99

> <Gold.Chemscore.Hbonds>
donor molecule, donor type, donor heavy atom, donor atom, acceptor molecule, acceptor atom, score
      L1  H     7    28       P1  7948  0.38
      L1  H    10    29       P1  7948  0.58
      L1  H    14    40       P1 10747  0.57
      P1  H  7997  8010       L1     2  0.72

> <Gold.Chemscore.Hbond.Weighted>
-11.0469

> <Gold.Chemscore.Metal.Weighted>
-0.0000

> <Gold.Chemscore.Lipo.Weighted>
-7.1073

> <Gold.Chemscore.Internal_Hbond.Weighted>
0.0000

> <Gold.Chemscore.DEClash.Weighted>
0.0067

> <Gold.Chemscore.DEInternal.Weighted>
1.8659

> <Gold.Chemscore.Rot.Weighted>
4.2951

> <Gold.Chemscore.Internal.Correction.Weighted>
   9.000000E+99

> <Gold.Protein.RotatedTorsions>
[ 6907 6896 6895 6894 ] final -179.81 input  -60.11 | X-H torsion
[ 7974 7965 7964 7962 ] final -131.02 input  175.53 | X-H torsion
[ 8008 7997 7996 7995 ] final   23.77 input   59.86 | X-H torsion
[ 10167 10162 10161 10158 ] final   82.59 input  -65.29 | X-H torsion
[ 10718 10713 10712 10709 ] final -174.58 input   66.30 | X-H torsion
[ 10763 10752 10751 10750 ] final  168.54 input  -60.55 | X-H torsion
[ 11005 11000 10999 10996 ] final -120.66 input  -57.11 | X-H torsion

> <Gold.Protein.ActiveResidues>
 VAL166  LYS551  ARG553  GLY616  TRP617  ASP618  TYR619  PRO620  LYS621  CYS622 
 ASP623  PHE694  ASN695  SER759  ASP760  ASP761  ALA762  ILE779  LEU786  VAL792 
 PHE793  MET794  SER795  GLU796  ALA797  LYS798  CYS799  TRP800  GLU811  SER814 

> <Gold.Protein.RotatedAtoms>
  151.6595  133.3317  159.3170 H   0  0  0  0  0  0  0  0  0  0  0  0  # atno 6907 bound_to 6896
  150.7920  134.6955  159.6530 H   0  0  0  0  0  0  0  0  0  0  0  0  # atno 6908 bound_to 6896
  152.4002  134.6303  160.0125 H   0  0  0  0  0  0  0  0  0  0  0  0  # atno 6909 bound_to 6896
  144.9419  140.7248  143.4841 H   0  0  0  0  0  0  0  0  0  0  0  0  # atno 7974 bound_to 7965
  154.9860  140.3108  155.4926 H   0  0  0  0  0  0  0  0  0  0  0  0  # atno 8008 bound_to 7997
  156.2946  140.2258  156.4902 H   0  0  0  0  0  0  0  0  0  0  0  0  # atno 8009 bound_to 7997
  154.7746  140.0450  157.1067 H   0  0  0  0  0  0  0  0  0  0  0  0  # atno 8010 bound_to 7997
  139.9272  144.6175  150.8381 H   0  0  0  0  0  0  0  0  0  0  0  0  # atno 10167 bound_to 10162
  156.7872  130.9505  151.3120 H   0  0  0  0  0  0  0  0  0  0  0  0  # atno 10718 bound_to 10713
  154.3700  135.2753  155.2271 H   0  0  0  0  0  0  0  0  0  0  0  0  # atno 10763 bound_to 10752
  154.4423  135.5951  153.6141 H   0  0  0  0  0  0  0  0  0  0  0  0  # atno 10764 bound_to 10752
  152.9839  135.6021  154.3930 H   0  0  0  0  0  0  0  0  0  0  0  0  # atno 10765 bound_to 10752
  141.0127  134.0240  157.3391 H   0  0  0  0  0  0  0  0  0  0  0  0  # atno 11005 bound_to 11000
  145.2977  139.1861  143.4706 LP  0  0  0  0  0  0  0  0  0  0  0  0  # atno 17320 bound_to 7965
  146.3289  140.2964  142.8618 LP  0  0  0  0  0  0  0  0  0  0  0  0  # atno 17321 bound_to 7965
  140.7647  143.3255  151.2525 LP  0  0  0  0  0  0  0  0  0  0  0  0  # atno 17342 bound_to 10162
  139.6812  143.9851  152.2809 LP  0  0  0  0  0  0  0  0  0  0  0  0  # atno 17343 bound_to 10162
  157.6618  130.8973  149.9846 LP  0  0  0  0  0  0  0  0  0  0  0  0  # atno 17370 bound_to 10713
  156.1181  130.3647  149.9933 LP  0  0  0  0  0  0  0  0  0  0  0  0  # atno 17371 bound_to 10713
  139.9099  135.0188  156.7647 LP  0  0  0  0  0  0  0  0  0  0  0  0  # atno 17394 bound_to 11000
  140.6706  133.9563  155.7854 LP  0  0  0  0  0  0  0  0  0  0  0  0  # atno 17395 bound_to 11000

$$$$
