AV-unprocessed.smi:2714|AV-procd|sdf|10481|dock7
  -GOLD-   2272014523D 1   1.00000     0.00000
 Structure written by MMmdl.
 46 47  0  0  0  0  0  0  0  0  1 V2000
  152.8730  142.9972  162.1390 C   0  0  0  0  0  0  0  0  0  0  0  0
  153.1602  142.1007  160.9299 C   0  0  0  0  0  0  0  0  0  0  0  0
  153.4364  142.9104  159.6496 C   0  0  0  0  0  0  0  0  0  0  0  0
  152.3751  143.9892  159.3384 C   0  0  1  0  0  0  0  0  0  0  0  0
  152.7133  144.7344  158.0357 C   0  0  0  0  0  0  0  0  0  0  0  0
  150.9607  143.3976  159.2497 C   0  0  0  0  0  0  0  0  0  0  0  0
  150.0928  143.7491  160.0491 O   0  0  0  0  0  0  0  0  0  0  0  0
  150.7500  142.4993  158.2750 N   0  0  0  0  0  0  0  0  0  0  0  0
  149.5114  141.7638  158.0426 C   0  0  0  0  0  0  0  0  0  0  0  0
  149.5377  141.0048  156.7226 C   0  0  0  0  0  0  0  0  0  0  0  0
  148.8819  141.5498  155.5978 C   0  0  0  0  0  0  0  0  0  0  0  0
  148.9288  140.8600  154.3728 C   0  0  0  0  0  0  0  0  0  0  0  0
  149.6363  139.6455  154.3188 C   0  0  0  0  0  0  0  0  0  0  0  0
  150.2679  139.1111  155.3841 N   0  0  0  0  0  0  0  0  0  0  0  0
  150.2251  139.7719  156.5670 C   0  0  0  0  0  0  0  0  0  0  0  0
  150.8716  139.1754  157.6628 N   0  0  0  0  0  0  0  0  0  0  0  0
  152.3290  139.2283  157.6509 C   0  0  0  0  0  0  0  0  0  0  0  0
  152.8810  138.6935  158.9831 C   0  0  0  0  0  0  0  0  0  0  0  0
  152.3910  137.3738  159.2047 O   0  0  0  0  0  0  0  0  0  0  0  0
  150.9688  137.3378  159.2888 C   0  0  0  0  0  0  0  0  0  0  0  0
  150.3564  137.8484  157.9727 C   0  0  0  0  0  0  0  0  0  0  0  0
  152.6846  142.3989  163.0306 H   0  0  0  0  0  0  0  0  0  0  0  0
  151.9968  143.6229  161.9669 H   0  0  0  0  0  0  0  0  0  0  0  0
  153.7175  143.6534  162.3515 H   0  0  0  0  0  0  0  0  0  0  0  0
  154.0114  141.4600  161.1621 H   0  0  0  0  0  0  0  0  0  0  0  0
  152.3102  141.4373  160.7663 H   0  0  0  0  0  0  0  0  0  0  0  0
  154.4076  143.3963  159.7513 H   0  0  0  0  0  0  0  0  0  0  0  0
  153.5335  142.2295  158.8022 H   0  0  0  0  0  0  0  0  0  0  0  0
  152.3918  144.7219  160.1471 H   0  0  0  0  0  0  0  0  0  0  0  0
  151.9570  145.4835  157.7976 H   0  0  0  0  0  0  0  0  0  0  0  0
  152.7833  144.0508  157.1886 H   0  0  0  0  0  0  0  0  0  0  0  0
  153.6688  145.2526  158.1201 H   0  0  0  0  0  0  0  0  0  0  0  0
  151.5243  142.2809  157.6648 H   0  0  0  0  0  0  0  0  0  0  0  0
  149.2863  141.0734  158.8563 H   0  0  0  0  0  0  0  0  0  0  0  0
  148.6926  142.4839  158.0331 H   0  0  0  0  0  0  0  0  0  0  0  0
  148.3521  142.4886  155.6682 H   0  0  0  0  0  0  0  0  0  0  0  0
  148.4373  141.2539  153.4955 H   0  0  0  0  0  0  0  0  0  0  0  0
  149.6966  139.0875  153.3961 H   0  0  0  0  0  0  0  0  0  0  0  0
  152.7178  138.6296  156.8258 H   0  0  0  0  0  0  0  0  0  0  0  0
  152.6591  140.2557  157.4927 H   0  0  0  0  0  0  0  0  0  0  0  0
  153.9703  138.6693  158.9563 H   0  0  0  0  0  0  0  0  0  0  0  0
  152.5967  139.3425  159.8125 H   0  0  0  0  0  0  0  0  0  0  0  0
  150.6503  136.3126  159.4775 H   0  0  0  0  0  0  0  0  0  0  0  0
  150.6294  137.9366  160.1350 H   0  0  0  0  0  0  0  0  0  0  0  0
  149.2692  137.8749  158.0526 H   0  0  0  0  0  0  0  0  0  0  0  0
  150.6024  137.1665  157.1575 H   0  0  0  0  0  0  0  0  0  0  0  0
  1  2  1  0  0  0  0
  1 22  1  0  0  0  0
  1 23  1  0  0  0  0
  1 24  1  0  0  0  0
  2  3  1  0  0  0  0
  2 25  1  0  0  0  0
  2 26  1  0  0  0  0
  3  4  1  0  0  0  0
  3 27  1  0  0  0  0
  3 28  1  0  0  0  0
  4  5  1  0  0  0  0
  4  6  1  0  0  0  0
  4 29  1  0  0  0  0
  5 30  1  0  0  0  0
  5 31  1  0  0  0  0
  5 32  1  0  0  0  0
  6  7  2  0  0  0  0
  6  8  1  0  0  0  0
  8  9  1  0  0  0  0
  8 33  1  0  0  0  0
  9 10  1  0  0  0  0
  9 34  1  0  0  0  0
  9 35  1  0  0  0  0
 10 15  1  0  0  0  0
 10 11  2  0  0  0  0
 11 12  1  0  0  0  0
 11 36  1  0  0  0  0
 12 13  2  0  0  0  0
 12 37  1  0  0  0  0
 13 14  1  0  0  0  0
 13 38  1  0  0  0  0
 14 15  2  0  0  0  0
 15 16  1  0  0  0  0
 16 21  1  0  0  0  0
 16 17  1  0  0  0  0
 17 18  1  0  0  0  0
 17 39  1  0  0  0  0
 17 40  1  0  0  0  0
 18 19  1  0  0  0  0
 18 41  1  0  0  0  0
 18 42  1  0  0  0  0
 19 20  1  0  0  0  0
 20 21  1  0  0  0  0
 20 43  1  0  0  0  0
 20 44  1  0  0  0  0
 21 45  1  0  0  0  0
 21 46  1  0  0  0  0
M  END
> <s_m_source_file>
AV-unprocessed.smi

> <i_m_source_file_index>
2714

> <i_lp_mmshare_version>
43012

> <i_f3d_flags>
0

> <s_epik_input>
W0NIM11bQ0gyXVtDSDJdW0NASF0oW0NIM10pQyg9TylbTkhdW0NIMl1jMVtjSF1bY0hdW2NIXW5jMU4yW0NIMl1bQ0gyXU9bQ0gyXVtDSDJdMg==

> <s_epik_cmdline>
J2VwaWtfcHl0aG9uJywgJy1waCcsICc3LjAnLCAnLXRuJywgJzgnLCAnLW1hJywgJzIwMCcsICctbWV0YWxfYmluZGluZycsICctaW1hZScsICc8aW5maWxlLm1hZT4nLCAnLW9tYWUnLCAnPG91dGZpbGUubWFlPic=

> <r_lp_tautomer_probability>
1

> <r_epik_Ionization_Penalty>
0.00517355

> <r_epik_Ionization_Penalty_Charging>
0

> <r_epik_Ionization_Penalty_Neutral>
0.00517355

> <r_epik_State_Penalty>
0.00376978

> <r_epik_Charging_Adjusted_Penalty>
0.00376978

> <i_epik_Tot_Q>
0

> <i_epik_Tot_abs_Q>
0

> <r_epik_Metal_State_Penalty>
-0

> <b_epik_Metal_Only>
0

> <s_lp_Force_Field>
OPLS_2005

> <r_lp_Energy>
17.5243

> <b_lp_Chiralities_Consistent>
1

> <s_lp_Variant>
AV-unprocessed.smi:2714-2

> <Gold.Version>
5.8.1

> <Gold.Id.Protein>
6NUR|6NUR_protein|mol2

> <Gold.PLP.Fitness>
43.2522

> <Gold.PLP.PLP>
-41.3663

> <Gold.PLP.part.hbond>
-1.0000

> <Gold.PLP.part.metal>
0.0000

> <Gold.PLP.part.buried>
-5.1121

> <Gold.PLP.part.nonpolar>
-35.8437

> <Gold.PLP.part.repulsive>
0.2311

> <Gold.PLP.ligand.clash>
0.0000

> <Gold.PLP.ligand.torsion>
0.4975

> <Gold.PLP.Chemscore.Hbond>
0.0130

> <Gold.PLP.Chemscore.CHOScore>
0.8809

> <Gold.PLP.Chemscore.Metal>
0.0000

> <Gold.Chemscore.Hbonds>
donor molecule, donor type, donor heavy atom, donor atom, acceptor molecule, acceptor atom, score
      L1  C    13    38       P1  7957  0.92

> <Gold.PLP.Chemscore.Internal.Correction>
0.1992

> <Gold.Rescore>
     Score         DG    S(hbond)    S(metal)    S(lipo)     H(rot)  DE(clash)    DE(int)     intcor
     13.69     -14.45       0.34        0.00     104.60       1.72       0.37       0.39       ----

> <Gold.Chemscore.Fitness>
13.6886

> <Gold.Chemscore.DG>
-14.4529

> <Gold.Chemscore.ZeroCoef>
-5.4800

> <Gold.Chemscore.Hbond>
0.3401

> <Gold.Chemscore.Metal>
0.0000

> <Gold.Chemscore.Lipo>
104.5987

> <Gold.Chemscore.Internal_Hbond>
0.0000

> <Gold.Chemscore.DEClash>
0.3709

> <Gold.Chemscore.DEInternal>
0.3934

> <Gold.Chemscore.Rot>
1.7192

> <Gold.Chemscore.Internal.Correction>
   9.000000E+99

> <Gold.Chemscore.Hbond.Weighted>
-1.1360

> <Gold.Chemscore.Metal.Weighted>
-0.0000

> <Gold.Chemscore.Lipo.Weighted>
-12.2380

> <Gold.Chemscore.Internal_Hbond.Weighted>
0.0000

> <Gold.Chemscore.DEClash.Weighted>
0.3709

> <Gold.Chemscore.DEInternal.Weighted>
0.3934

> <Gold.Chemscore.Rot.Weighted>
4.4011

> <Gold.Chemscore.Internal.Correction.Weighted>
   9.000000E+99

> <Gold.Protein.RotatedTorsions>
[ 6907 6896 6895 6894 ] final  144.48 input  -60.11 | X-H torsion
[ 7974 7965 7964 7962 ] final    2.53 input  175.53 | X-H torsion
[ 8008 7997 7996 7995 ] final -116.79 input   59.86 | X-H torsion
[ 10167 10162 10161 10158 ] final  -64.75 input  -65.29 | X-H torsion
[ 10718 10713 10712 10709 ] final  -66.03 input   66.30 | X-H torsion
[ 10763 10752 10751 10750 ] final   81.29 input  -60.55 | X-H torsion
[ 11005 11000 10999 10996 ] final   47.99 input  -57.11 | X-H torsion

> <Gold.Protein.ActiveResidues>
 VAL166  LYS551  ARG553  GLY616  TRP617  ASP618  TYR619  PRO620  LYS621  CYS622 
 ASP623  PHE694  ASN695  SER759  ASP760  ASP761  ALA762  ILE779  LEU786  VAL792 
 PHE793  MET794  SER795  GLU796  ALA797  LYS798  CYS799  TRP800  GLU811  SER814 

> <Gold.Protein.RotatedAtoms>
  152.1931  133.4787  159.5018 H   0  0  0  0  0  0  0  0  0  0  0  0  # atno 6907 bound_to 6896
  150.6955  134.1687  159.4213 H   0  0  0  0  0  0  0  0  0  0  0  0  # atno 6908 bound_to 6896
  151.9602  135.0127  160.0598 H   0  0  0  0  0  0  0  0  0  0  0  0  # atno 6909 bound_to 6896
  146.2444  140.0822  142.8356 H   0  0  0  0  0  0  0  0  0  0  0  0  # atno 7974 bound_to 7965
  155.0734  140.0393  157.2616 H   0  0  0  0  0  0  0  0  0  0  0  0  # atno 8008 bound_to 7997
  154.6965  140.2664  155.6737 H   0  0  0  0  0  0  0  0  0  0  0  0  # atno 8009 bound_to 7997
  156.2746  140.2749  156.1560 H   0  0  0  0  0  0  0  0  0  0  0  0  # atno 8010 bound_to 7997
  140.5778  143.2324  151.6405 H   0  0  0  0  0  0  0  0  0  0  0  0  # atno 10167 bound_to 10162
  156.0635  130.4256  150.1650 H   0  0  0  0  0  0  0  0  0  0  0  0  # atno 10718 bound_to 10713
  153.1104  135.4771  154.9025 H   0  0  0  0  0  0  0  0  0  0  0  0  # atno 10763 bound_to 10752
  154.7474  135.3097  154.8621 H   0  0  0  0  0  0  0  0  0  0  0  0  # atno 10764 bound_to 10752
  153.9212  135.6855  153.4801 H   0  0  0  0  0  0  0  0  0  0  0  0  # atno 10765 bound_to 10752
  140.1230  134.4804  155.8582 H   0  0  0  0  0  0  0  0  0  0  0  0  # atno 11005 bound_to 11000
  145.0723  140.9164  143.4875 LP  0  0  0  0  0  0  0  0  0  0  0  0  # atno 17320 bound_to 7965
  145.0958  139.2857  143.5711 LP  0  0  0  0  0  0  0  0  0  0  0  0  # atno 17321 bound_to 7965
  139.5153  144.3384  152.0762 LP  0  0  0  0  0  0  0  0  0  0  0  0  # atno 17342 bound_to 10162
  140.2530  144.4148  150.6214 LP  0  0  0  0  0  0  0  0  0  0  0  0  # atno 17343 bound_to 10162
  156.9714  130.9836  151.3458 LP  0  0  0  0  0  0  0  0  0  0  0  0  # atno 17370 bound_to 10713
  157.5661  130.8278  149.8329 LP  0  0  0  0  0  0  0  0  0  0  0  0  # atno 17371 bound_to 10713
  141.2155  133.6767  156.6926 LP  0  0  0  0  0  0  0  0  0  0  0  0  # atno 17394 bound_to 11000
  140.2940  134.8218  157.4041 LP  0  0  0  0  0  0  0  0  0  0  0  0  # atno 17395 bound_to 11000

$$$$
