AV-unprocessed.smi:876|AV-procd|sdf|4022|dock8
  -GOLD-   22720 1513D 1   1.00000     0.00000
 Structure written by MMmdl.
 41 42  0  0  0  0  0  0  0  0  2 V2000
  151.7525  142.1264  158.1411 C   0  0  0  0  0  0  0  0  0  0  0  0
  151.0938  142.4999  156.8961 N   0  0  0  0  0  0  0  0  0  0  0  0
  151.0609  143.8946  156.4697 C   0  0  0  0  0  0  0  0  0  0  0  0
  150.5268  141.5015  156.0746 C   0  0  0  0  0  0  0  0  0  0  0  0
  151.1194  140.2301  155.8769 C   0  0  0  0  0  0  0  0  0  0  0  0
  150.4938  139.2830  155.0400 C   0  0  0  0  0  0  0  0  0  0  0  0
  149.2685  139.6088  154.4083 C   0  0  0  0  0  0  0  0  0  0  0  0
  148.5601  138.7400  153.5341 N   0  0  0  0  0  0  0  0  0  0  0  0
  147.2769  138.8057  153.1386 C   0  0  0  0  0  0  0  0  0  0  0  0
  146.4732  139.6781  153.4669 O   0  0  0  0  0  0  0  0  0  0  0  0
  146.9718  137.7942  152.3137 N   0  0  0  0  0  0  0  0  0  0  0  0
  145.6616  137.5789  151.7095 C   0  0  1  0  0  0  0  0  0  0  0  0
  145.7066  136.4223  150.7491 C   0  0  0  0  0  0  0  0  0  0  0  0
  144.7975  135.4899  151.0246 C   0  0  0  0  0  0  0  0  0  0  0  0
  143.9609  135.8276  152.2326 C   0  0  1  0  0  0  0  0  0  0  0  0
  143.9561  134.7109  153.2909 C   0  0  0  0  0  0  0  0  0  0  0  0
  143.2507  133.5816  152.8199 O   0  0  0  0  0  0  0  0  0  0  0  0
  144.5865  137.1505  152.7433 C   0  0  0  0  0  0  0  0  0  0  0  0
  148.7275  140.8911  154.6291 C   0  0  0  0  0  0  0  0  0  0  0  0
  149.3604  141.7679  155.4378 N   0  3  0  0  0  0  0  0  0  0  0  0
  145.3444  138.4675  151.1611 H   0  0  0  0  0  0  0  0  0  0  0  0
  142.9418  136.0161  151.8918 H   0  0  0  0  0  0  0  0  0  0  0  0
  152.5985  141.4671  157.9443 H   0  0  0  0  0  0  0  0  0  0  0  0
  151.0559  141.6131  158.8047 H   0  0  0  0  0  0  0  0  0  0  0  0
  152.1288  143.0029  158.6692 H   0  0  0  0  0  0  0  0  0  0  0  0
  150.0319  144.2329  156.3438 H   0  0  0  0  0  0  0  0  0  0  0  0
  151.5857  144.0176  155.5217 H   0  0  0  0  0  0  0  0  0  0  0  0
  151.5385  144.5456  157.2024 H   0  0  0  0  0  0  0  0  0  0  0  0
  152.0518  139.9631  156.3511 H   0  0  0  0  0  0  0  0  0  0  0  0
  150.9782  138.3305  154.8924 H   0  0  0  0  0  0  0  0  0  0  0  0
  149.1104  138.0015  153.1209 H   0  0  0  0  0  0  0  0  0  0  0  0
  147.6915  137.1228  152.0899 H   0  0  0  0  0  0  0  0  0  0  0  0
  146.4005  136.3865  149.9219 H   0  0  0  0  0  0  0  0  0  0  0  0
  144.6455  134.5849  150.4551 H   0  0  0  0  0  0  0  0  0  0  0  0
  144.9734  134.4160  153.5509 H   0  0  0  0  0  0  0  0  0  0  0  0
  143.4765  135.0598  154.2057 H   0  0  0  0  0  0  0  0  0  0  0  0
  143.3911  132.8671  153.4224 H   0  0  0  0  0  0  0  0  0  0  0  0
  145.0315  137.0049  153.7293 H   0  0  0  0  0  0  0  0  0  0  0  0
  143.8264  137.9242  152.8574 H   0  0  0  0  0  0  0  0  0  0  0  0
  147.8060  141.2432  154.1881 H   0  0  0  0  0  0  0  0  0  0  0  0
  148.9352  142.6847  155.5765 H   0  0  0  0  0  0  0  0  0  0  0  0
  1  2  1  0  0  0  0
  1 23  1  0  0  0  0
  1 24  1  0  0  0  0
  1 25  1  0  0  0  0
  2  3  1  0  0  0  0
  2  4  1  0  0  0  0
  3 26  1  0  0  0  0
  3 27  1  0  0  0  0
  3 28  1  0  0  0  0
  4 20  1  0  0  0  0
  4  5  2  0  0  0  0
  5  6  1  0  0  0  0
  5 29  1  0  0  0  0
  6  7  2  0  0  0  0
  6 30  1  0  0  0  0
  7  8  1  0  0  0  0
  7 19  1  0  0  0  0
  8  9  1  0  0  0  0
  8 31  1  0  0  0  0
  9 10  2  0  0  0  0
  9 11  1  0  0  0  0
 11 12  1  0  0  0  0
 11 32  1  0  0  0  0
 12 21  1  0  0  0  0
 12 18  1  0  0  0  0
 12 13  1  0  0  0  0
 13 14  2  0  0  0  0
 13 33  1  0  0  0  0
 14 15  1  0  0  0  0
 14 34  1  0  0  0  0
 15 22  1  0  0  0  0
 15 16  1  0  0  0  0
 15 18  1  0  0  0  0
 16 17  1  0  0  0  0
 16 35  1  0  0  0  0
 16 36  1  0  0  0  0
 17 37  1  0  0  0  0
 18 38  1  0  0  0  0
 18 39  1  0  0  0  0
 19 20  2  0  0  0  0
 19 40  1  0  0  0  0
 20 41  1  0  0  0  0
M  CHG  1  20   1
M  END
> <s_m_source_file>
AV-unprocessed.smi

> <i_m_source_file_index>
876

> <i_lp_mmshare_version>
43012

> <i_f3d_flags>
0

> <s_epik_input>
W0NIM11OKFtDSDNdKWMxW2NIXVtjSF1jKFtjSF1uMSlbTkhdQyg9TylbTkhdW0NAQEhdMltDSF09W0NIXVtDQEBIXShbQ0gyXTIpW0NIMl1bT0hd

> <s_epik_cmdline>
J2VwaWtfcHl0aG9uJywgJy1waCcsICc3LjAnLCAnLXRuJywgJzgnLCAnLW1hJywgJzIwMCcsICctbWV0YWxfYmluZGluZycsICctaW1hZScsICc8aW5maWxlLm1hZT4nLCAnLW9tYWUnLCAnPG91dGZpbGUubWFlPic=

> <r_lp_tautomer_probability>
0.999994

> <r_epik_Ionization_Penalty>
0.257994

> <r_epik_Ionization_Penalty_Charging>
0.257974

> <r_epik_Ionization_Penalty_Neutral>
1.95938e-05

> <r_epik_State_Penalty>
0.249586

> <r_epik_Charging_Adjusted_Penalty>
0.50756

> <i_epik_Tot_Q>
1

> <i_epik_Tot_abs_Q>
1

> <r_epik_Metal_State_Penalty>
0.538508

> <b_epik_Metal_Only>
0

> <s_lp_Force_Field>
OPLS_2005

> <r_lp_Energy>
25.8864

> <b_lp_Chiralities_Consistent>
1

> <s_lp_Variant>
AV-unprocessed.smi:876-4

> <Gold.Version>
5.8.1

> <Gold.Id.Protein>
6NUR|6NUR_protein|mol2

> <Gold.PLP.Fitness>
46.2386

> <Gold.PLP.PLP>
-33.9016

> <Gold.PLP.part.hbond>
-4.9792

> <Gold.PLP.part.metal>
0.0000

> <Gold.PLP.part.buried>
3.9995

> <Gold.PLP.part.nonpolar>
-36.4694

> <Gold.PLP.part.repulsive>
0.9542

> <Gold.PLP.ligand.clash>
0.0000

> <Gold.PLP.ligand.torsion>
0.7513

> <Gold.PLP.Chemscore.Hbond>
4.6068

> <Gold.PLP.Chemscore.CHOScore>
0.0000

> <Gold.PLP.Chemscore.Metal>
0.0000

> <Gold.Chemscore.Hbonds>
donor molecule, donor type, donor heavy atom, donor atom, acceptor molecule, acceptor atom, score
      L1  H     8    31       P1  7948  0.60
      L1  H    11    32       P1  7948  1.00
      L1  H    17    37       P1 10957  0.94
      L1  H    20    41       P1  8028  1.98

> <Gold.PLP.Chemscore.Internal.Correction>
0.0192

> <Gold.Rescore>
     Score         DG    S(hbond)    S(metal)    S(lipo)     H(rot)  DE(clash)    DE(int)     intcor
     16.59     -21.44       3.39        0.00      79.47       1.82       2.74       2.10       ----

> <Gold.Chemscore.Fitness>
16.5936

> <Gold.Chemscore.DG>
-21.4389

> <Gold.Chemscore.ZeroCoef>
-5.4800

> <Gold.Chemscore.Hbond>
3.3889

> <Gold.Chemscore.Metal>
0.0000

> <Gold.Chemscore.Lipo>
79.4738

> <Gold.Chemscore.Internal_Hbond>
0.0000

> <Gold.Chemscore.DEClash>
2.7409

> <Gold.Chemscore.DEInternal>
2.1044

> <Gold.Chemscore.Rot>
1.8197

> <Gold.Chemscore.Internal.Correction>
   9.000000E+99

> <Gold.Chemscore.Hbonds>
donor molecule, donor type, donor heavy atom, donor atom, acceptor molecule, acceptor atom, score
      L1  H     8    31       P1  7948  0.60
      L1  H    11    32       P1  7948  0.94
      L1  H    17    37       P1 10957  0.68
      L1  H    20    41       P1  8028  0.91

> <Gold.Chemscore.Hbond.Weighted>
-11.3190

> <Gold.Chemscore.Metal.Weighted>
-0.0000

> <Gold.Chemscore.Lipo.Weighted>
-9.2984

> <Gold.Chemscore.Internal_Hbond.Weighted>
0.0000

> <Gold.Chemscore.DEClash.Weighted>
2.7409

> <Gold.Chemscore.DEInternal.Weighted>
2.1044

> <Gold.Chemscore.Rot.Weighted>
4.6585

> <Gold.Chemscore.Internal.Correction.Weighted>
   9.000000E+99

> <Gold.Protein.RotatedTorsions>
[ 6907 6896 6895 6894 ] final -124.24 input  -60.11 | X-H torsion
[ 7974 7965 7964 7962 ] final  -46.36 input  175.53 | X-H torsion
[ 8008 7997 7996 7995 ] final  -63.58 input   59.86 | X-H torsion
[ 10167 10162 10161 10158 ] final  120.69 input  -65.29 | X-H torsion
[ 10718 10713 10712 10709 ] final -175.36 input   66.30 | X-H torsion
[ 10763 10752 10751 10750 ] final    0.10 input  -60.55 | X-H torsion
[ 11005 11000 10999 10996 ] final -101.66 input  -57.11 | X-H torsion

> <Gold.Protein.ActiveResidues>
 VAL166  LYS551  ARG553  GLY616  TRP617  ASP618  TYR619  PRO620  LYS621  CYS622 
 ASP623  PHE694  ASN695  SER759  ASP760  ASP761  ALA762  ILE779  LEU786  VAL792 
 PHE793  MET794  SER795  GLU796  ALA797  LYS798  CYS799  TRP800  GLU811  SER814 

> <Gold.Protein.RotatedAtoms>
  150.8749  133.7453  159.2949 H   0  0  0  0  0  0  0  0  0  0  0  0  # atno 6907 bound_to 6896
  151.5054  135.1062  159.9849 H   0  0  0  0  0  0  0  0  0  0  0  0  # atno 6908 bound_to 6896
  152.4720  133.8007  159.7007 H   0  0  0  0  0  0  0  0  0  0  0  0  # atno 6909 bound_to 6896
  145.9727  140.7366  142.9402 H   0  0  0  0  0  0  0  0  0  0  0  0  # atno 7974 bound_to 7965
  154.4562  140.0972  156.6764 H   0  0  0  0  0  0  0  0  0  0  0  0  # atno 8008 bound_to 7997
  155.5131  140.3477  155.4374 H   0  0  0  0  0  0  0  0  0  0  0  0  # atno 8009 bound_to 7997
  156.0782  140.1366  156.9734 H   0  0  0  0  0  0  0  0  0  0  0  0  # atno 8010 bound_to 7997
  139.5966  144.7043  151.3161 H   0  0  0  0  0  0  0  0  0  0  0  0  # atno 10167 bound_to 10162
  156.7987  130.9544  151.3119 H   0  0  0  0  0  0  0  0  0  0  0  0  # atno 10718 bound_to 10713
  153.3250  135.6971  153.6997 H   0  0  0  0  0  0  0  0  0  0  0  0  # atno 10763 bound_to 10752
  153.5822  135.3495  155.2880 H   0  0  0  0  0  0  0  0  0  0  0  0  # atno 10764 bound_to 10752
  154.8606  135.4298  154.2424 H   0  0  0  0  0  0  0  0  0  0  0  0  # atno 10765 bound_to 10752
  141.1222  133.8496  157.1260 H   0  0  0  0  0  0  0  0  0  0  0  0  # atno 11005 bound_to 11000
  144.6841  140.2775  143.7297 LP  0  0  0  0  0  0  0  0  0  0  0  0  # atno 17320 bound_to 7965
  145.7883  139.1917  143.2117 LP  0  0  0  0  0  0  0  0  0  0  0  0  # atno 17321 bound_to 7965
  140.7217  143.7118  150.7764 LP  0  0  0  0  0  0  0  0  0  0  0  0  # atno 17342 bound_to 10162
  140.0685  143.5084  152.2592 LP  0  0  0  0  0  0  0  0  0  0  0  0  # atno 17343 bound_to 10162
  157.6564  130.8928  149.9738 LP  0  0  0  0  0  0  0  0  0  0  0  0  # atno 17370 bound_to 10713
  156.1114  130.3650  150.0042 LP  0  0  0  0  0  0  0  0  0  0  0  0  # atno 17371 bound_to 10713
  140.0188  134.9955  157.0549 LP  0  0  0  0  0  0  0  0  0  0  0  0  # atno 17394 bound_to 11000
  140.4474  134.1617  155.7178 LP  0  0  0  0  0  0  0  0  0  0  0  0  # atno 17395 bound_to 11000

$$$$
