AV-unprocessed.smi:2954|AV-procd|sdf|11298|dock1
  -GOLD-   2272016193D 1   1.00000     0.00000
 Structure written by MMmdl.
 42 44  0  0  0  0  0  0  0  0  1 V2000
  152.4229  139.0298  157.0385 C   0  0  0  0  0  0  0  0  0  0  0  0
  151.8530  139.2723  158.4421 C   0  0  1  0  0  0  0  0  0  0  0  0
  152.6510  138.5674  159.4420 N   0  0  0  0  0  0  0  0  0  0  0  0
  153.9487  138.8031  159.6758 C   0  0  0  0  0  0  0  0  0  0  0  0
  154.5991  139.6484  159.0667 O   0  0  0  0  0  0  0  0  0  0  0  0
  151.8148  140.7398  158.7912 C   0  0  0  0  0  0  0  0  0  0  0  0
  152.4701  141.2352  159.8449 N   0  0  0  0  0  0  0  0  0  0  0  0
  152.1539  142.5779  159.8020 C   0  0  0  0  0  0  0  0  0  0  0  0
  152.5313  143.6378  160.6571 C   0  0  0  0  0  0  0  0  0  0  0  0
  152.0724  144.9488  160.4142 C   0  0  0  0  0  0  0  0  0  0  0  0
  151.2321  145.2181  159.3148 C   0  0  0  0  0  0  0  0  0  0  0  0
  150.8470  144.1765  158.4492 C   0  0  0  0  0  0  0  0  0  0  0  0
  151.3084  142.8693  158.6956 C   0  0  0  0  0  0  0  0  0  0  0  0
  151.1188  141.6467  158.0574 N   0  0  0  0  0  0  0  0  0  0  0  0
  150.3147  141.4273  156.8623 C   0  0  0  0  0  0  0  0  0  0  0  0
  149.1195  140.5020  157.1357 C   0  0  0  0  0  0  0  0  0  0  0  0
  147.9482  141.2940  157.2792 O   0  0  0  0  0  0  0  0  0  0  0  0
  147.3263  141.7621  156.1426 C   0  0  0  0  0  0  0  0  0  0  0  0
  147.7489  141.4471  154.8262 C   0  0  0  0  0  0  0  0  0  0  0  0
  147.0596  141.9647  153.7127 C   0  0  0  0  0  0  0  0  0  0  0  0
  145.9449  142.8024  153.8988 C   0  0  0  0  0  0  0  0  0  0  0  0
  145.5204  143.1238  155.2011 C   0  0  0  0  0  0  0  0  0  0  0  0
  146.2079  142.6071  156.3169 C   0  0  0  0  0  0  0  0  0  0  0  0
  145.6637  143.0085  157.9069 Cl  0  0  0  0  0  0  0  0  0  0  0  0
  151.8214  139.5351  156.2825 H   0  0  0  0  0  0  0  0  0  0  0  0
  152.4328  137.9667  156.7962 H   0  0  0  0  0  0  0  0  0  0  0  0
  153.4448  139.4014  156.9535 H   0  0  0  0  0  0  0  0  0  0  0  0
  150.8482  138.8528  158.4675 H   0  0  0  0  0  0  0  0  0  0  0  0
  152.1868  137.8557  159.9873 H   0  0  0  0  0  0  0  0  0  0  0  0
  154.3481  138.1565  160.4722 H   0  0  0  0  0  0  0  0  0  0  0  0
  153.1728  143.4411  161.5034 H   0  0  0  0  0  0  0  0  0  0  0  0
  152.3651  145.7512  161.0754 H   0  0  0  0  0  0  0  0  0  0  0  0
  150.8820  146.2242  159.1367 H   0  0  0  0  0  0  0  0  0  0  0  0
  150.1989  144.3801  157.6100 H   0  0  0  0  0  0  0  0  0  0  0  0
  149.9547  142.3934  156.5078 H   0  0  0  0  0  0  0  0  0  0  0  0
  150.9446  141.0311  156.0656 H   0  0  0  0  0  0  0  0  0  0  0  0
  148.9998  139.7944  156.3142 H   0  0  0  0  0  0  0  0  0  0  0  0
  149.3026  139.9295  158.0451 H   0  0  0  0  0  0  0  0  0  0  0  0
  148.6035  140.8132  154.6454 H   0  0  0  0  0  0  0  0  0  0  0  0
  147.3882  141.7190  152.7136 H   0  0  0  0  0  0  0  0  0  0  0  0
  145.4166  143.1982  153.0440 H   0  0  0  0  0  0  0  0  0  0  0  0
  144.6645  143.7672  155.3436 H   0  0  0  0  0  0  0  0  0  0  0  0
  1  2  1  0  0  0  0
  1 25  1  0  0  0  0
  1 26  1  0  0  0  0
  1 27  1  0  0  0  0
  2  3  1  0  0  0  0
  2  6  1  0  0  0  0
  2 28  1  0  0  0  0
  3  4  1  0  0  0  0
  3 29  1  0  0  0  0
  4  5  2  0  0  0  0
  4 30  1  0  0  0  0
  6 14  1  0  0  0  0
  6  7  2  0  0  0  0
  7  8  1  0  0  0  0
  8 13  2  0  0  0  0
  8  9  1  0  0  0  0
  9 10  2  0  0  0  0
  9 31  1  0  0  0  0
 10 11  1  0  0  0  0
 10 32  1  0  0  0  0
 11 12  2  0  0  0  0
 11 33  1  0  0  0  0
 12 13  1  0  0  0  0
 12 34  1  0  0  0  0
 13 14  1  0  0  0  0
 14 15  1  0  0  0  0
 15 16  1  0  0  0  0
 15 35  1  0  0  0  0
 15 36  1  0  0  0  0
 16 17  1  0  0  0  0
 16 37  1  0  0  0  0
 16 38  1  0  0  0  0
 17 18  1  0  0  0  0
 18 23  1  0  0  0  0
 18 19  2  0  0  0  0
 19 20  1  0  0  0  0
 19 39  1  0  0  0  0
 20 21  2  0  0  0  0
 20 40  1  0  0  0  0
 21 22  1  0  0  0  0
 21 41  1  0  0  0  0
 22 23  2  0  0  0  0
 22 42  1  0  0  0  0
 23 24  1  0  0  0  0
M  END
> <s_m_source_file>
AV-unprocessed.smi

> <i_m_source_file_index>
2954

> <i_lp_mmshare_version>
43012

> <i_f3d_flags>
0

> <s_epik_input>
Tz1bQ0hdW05IXVtDQEBIXShbQ0gzXSljKG4xKW4oYyhjMTIpW2NIXVtjSF1bY0hdW2NIXTIpW0NIMl1bQ0gyXU9jM1tjSF1bY0hdW2NIXVtjSF1jM0Ns

> <s_epik_cmdline>
J2VwaWtfcHl0aG9uJywgJy1waCcsICc3LjAnLCAnLXRuJywgJzgnLCAnLW1hJywgJzIwMCcsICctbWV0YWxfYmluZGluZycsICctaW1hZScsICc8aW5maWxlLm1hZT4nLCAnLW9tYWUnLCAnPG91dGZpbGUubWFlPic=

> <r_lp_tautomer_probability>
1

> <r_epik_Ionization_Penalty>
0.0861383

> <r_epik_Ionization_Penalty_Charging>
0

> <r_epik_Ionization_Penalty_Neutral>
0.0861383

> <r_epik_State_Penalty>
0.0766841

> <r_epik_Charging_Adjusted_Penalty>
0.0766841

> <i_epik_Tot_Q>
0

> <i_epik_Tot_abs_Q>
0

> <r_epik_Metal_State_Penalty>
0.0668745

> <b_epik_Metal_Only>
0

> <s_lp_Force_Field>
OPLS_2005

> <r_lp_Energy>
11.8377

> <b_lp_Chiralities_Consistent>
1

> <s_lp_Variant>
AV-unprocessed.smi:2954-2

> <Gold.Version>
5.8.1

> <Gold.Id.Protein>
6NUR|6NUR_protein|mol2

> <Gold.PLP.Fitness>
48.0427

> <Gold.PLP.PLP>
-45.6520

> <Gold.PLP.part.hbond>
-1.0000

> <Gold.PLP.part.metal>
0.0000

> <Gold.PLP.part.buried>
-8.2099

> <Gold.PLP.part.nonpolar>
-37.1546

> <Gold.PLP.part.repulsive>
0.1892

> <Gold.PLP.ligand.clash>
0.0000

> <Gold.PLP.ligand.torsion>
0.4024

> <Gold.PLP.Chemscore.Hbond>
1.0000

> <Gold.PLP.Chemscore.CHOScore>
0.0000

> <Gold.PLP.Chemscore.Metal>
0.0000

> <Gold.Chemscore.Hbonds>
donor molecule, donor type, donor heavy atom, donor atom, acceptor molecule, acceptor atom, score
      P1  H  7997  8010       L1     5  1.00

> <Gold.PLP.Chemscore.Internal.Correction>
0.1954

> <Gold.Rescore>
     Score         DG    S(hbond)    S(metal)    S(lipo)     H(rot)  DE(clash)    DE(int)     intcor
     14.24     -16.35       1.00        0.00     114.33       2.28       0.05       2.06       ----

> <Gold.Chemscore.Fitness>
14.2353

> <Gold.Chemscore.DG>
-16.3454

> <Gold.Chemscore.ZeroCoef>
-5.4800

> <Gold.Chemscore.Hbond>
0.9995

> <Gold.Chemscore.Metal>
0.0000

> <Gold.Chemscore.Lipo>
114.3283

> <Gold.Chemscore.Internal_Hbond>
0.0000

> <Gold.Chemscore.DEClash>
0.0485

> <Gold.Chemscore.DEInternal>
2.0616

> <Gold.Chemscore.Rot>
2.2849

> <Gold.Chemscore.Internal.Correction>
   9.000000E+99

> <Gold.Chemscore.Hbonds>
donor molecule, donor type, donor heavy atom, donor atom, acceptor molecule, acceptor atom, score
      P1  H  7997  8010       L1     5  1.00

> <Gold.Chemscore.Hbond.Weighted>
-3.3385

> <Gold.Chemscore.Metal.Weighted>
-0.0000

> <Gold.Chemscore.Lipo.Weighted>
-13.3764

> <Gold.Chemscore.Internal_Hbond.Weighted>
0.0000

> <Gold.Chemscore.DEClash.Weighted>
0.0485

> <Gold.Chemscore.DEInternal.Weighted>
2.0616

> <Gold.Chemscore.Rot.Weighted>
5.8495

> <Gold.Chemscore.Internal.Correction.Weighted>
   9.000000E+99

> <Gold.Protein.RotatedTorsions>
[ 6907 6896 6895 6894 ] final -158.76 input  -60.11 | X-H torsion
[ 7974 7965 7964 7962 ] final   28.72 input  175.53 | X-H torsion
[ 8008 7997 7996 7995 ] final   -1.47 input   59.86 | X-H torsion
[ 10167 10162 10161 10158 ] final  -80.64 input  -65.29 | X-H torsion
[ 10718 10713 10712 10709 ] final   77.77 input   66.30 | X-H torsion
[ 10763 10752 10751 10750 ] final  -74.10 input  -60.55 | X-H torsion
[ 11005 11000 10999 10996 ] final   89.23 input  -57.11 | X-H torsion

> <Gold.Protein.ActiveResidues>
 VAL166  LYS551  ARG553  GLY616  TRP617  ASP618  TYR619  PRO620  LYS621  CYS622 
 ASP623  PHE694  ASN695  SER759  ASP760  ASP761  ALA762  ILE779  LEU786  VAL792 
 PHE793  MET794  SER795  GLU796  ALA797  LYS798  CYS799  TRP800  GLU811  SER814 

> <Gold.Protein.RotatedAtoms>
  151.3231  133.4032  159.2655 H   0  0  0  0  0  0  0  0  0  0  0  0  # atno 6907 bound_to 6896
  151.0018  134.9329  159.7968 H   0  0  0  0  0  0  0  0  0  0  0  0  # atno 6908 bound_to 6896
  152.5277  134.3196  159.9196 H   0  0  0  0  0  0  0  0  0  0  0  0  # atno 6909 bound_to 6896
  146.1713  139.7018  142.8966 H   0  0  0  0  0  0  0  0  0  0  0  0  # atno 7974 bound_to 7965
  154.6464  140.2558  155.7263 H   0  0  0  0  0  0  0  0  0  0  0  0  # atno 8008 bound_to 7997
  156.2554  140.2877  156.0801 H   0  0  0  0  0  0  0  0  0  0  0  0  # atno 8009 bound_to 7997
  155.1517  140.0382  157.2813 H   0  0  0  0  0  0  0  0  0  0  0  0  # atno 8010 bound_to 7997
  140.4485  143.2491  151.8524 H   0  0  0  0  0  0  0  0  0  0  0  0  # atno 10167 bound_to 10162
  157.6722  130.9837  150.1690 H   0  0  0  0  0  0  0  0  0  0  0  0  # atno 10718 bound_to 10713
  154.4685  135.5875  153.6305 H   0  0  0  0  0  0  0  0  0  0  0  0  # atno 10763 bound_to 10752
  152.9831  135.6061  154.3397 H   0  0  0  0  0  0  0  0  0  0  0  0  # atno 10764 bound_to 10752
  154.3276  135.2843  155.2467 H   0  0  0  0  0  0  0  0  0  0  0  0  # atno 10765 bound_to 10752
  139.8879  134.8538  156.3113 H   0  0  0  0  0  0  0  0  0  0  0  0  # atno 11005 bound_to 11000
  145.4333  141.0417  143.2898 LP  0  0  0  0  0  0  0  0  0  0  0  0  # atno 17320 bound_to 7965
  144.8167  139.5864  143.7005 LP  0  0  0  0  0  0  0  0  0  0  0  0  # atno 17321 bound_to 7965
  139.4794  144.5148  151.8883 LP  0  0  0  0  0  0  0  0  0  0  0  0  # atno 17342 bound_to 10162
  140.4235  144.2211  150.5887 LP  0  0  0  0  0  0  0  0  0  0  0  0  # atno 17343 bound_to 10162
  156.2448  130.3694  149.8297 LP  0  0  0  0  0  0  0  0  0  0  0  0  # atno 17370 bound_to 10713
  156.6086  130.8577  151.3449 LP  0  0  0  0  0  0  0  0  0  0  0  0  # atno 17371 bound_to 10713
  140.9848  133.7245  156.0726 LP  0  0  0  0  0  0  0  0  0  0  0  0  # atno 17394 bound_to 11000
  140.7702  134.3841  157.5509 LP  0  0  0  0  0  0  0  0  0  0  0  0  # atno 17395 bound_to 11000

$$$$
