AV-unprocessed.smi:1813|AV-procd|sdf|7344|dock5
  -GOLD-   22720 9 03D 1   1.00000     0.00000
 Structure written by MMmdl.
 39 40  0  0  0  0  0  0  0  0  3 V2000
  145.5547  136.0571  150.6570 C   0  0  0  0  0  0  0  0  0  0  0  0
  145.9679  136.3746  152.0190 N   0  5  0  0  0  0  0  0  0  0  0  0
  145.8826  137.6202  152.5580 C   0  0  0  0  0  0  0  0  0  0  0  0
  145.3093  138.0206  153.5765 O   0  0  0  0  0  0  0  0  0  0  0  0
  146.6741  138.6375  151.7283 C   0  0  0  0  0  0  0  0  0  0  0  0
  147.3771  139.5860  152.6274 N   0  3  2  0  0  0  0  0  0  0  0  0
  148.1307  138.8952  153.7039 C   0  0  0  0  0  0  0  0  0  0  0  0
  148.9737  139.8920  154.5162 C   0  0  0  0  0  0  0  0  0  0  0  0
  148.1013  141.0131  155.1037 C   0  0  1  0  0  0  0  0  0  0  0  0
  148.9464  141.9914  155.7822 N   0  0  0  0  0  0  0  0  0  0  0  0
  149.8644  141.7049  156.7166 C   0  0  0  0  0  0  0  0  0  0  0  0
  150.1003  140.5615  157.1083 O   0  0  0  0  0  0  0  0  0  0  0  0
  150.4728  142.8197  157.1578 N   0  0  0  0  0  0  0  0  0  0  0  0
  151.5103  142.9315  158.1202 C   0  0  0  0  0  0  0  0  0  0  0  0
  151.9686  144.0917  158.6045 N   0  0  0  0  0  0  0  0  0  0  0  0
  152.9869  143.9021  159.5421 C   0  0  0  0  0  0  0  0  0  0  0  0
  153.2938  142.5820  159.7602 C   0  0  0  0  0  0  0  0  0  0  0  0
  152.3096  141.5178  158.7920 S   0  0  0  0  0  0  0  0  0  0  0  0
  147.2908  141.6816  153.9782 C   0  0  0  0  0  0  0  0  0  0  0  0
  146.4876  140.6441  153.1773 C   0  0  0  0  0  0  0  0  0  0  0  0
  145.7860  135.0253  150.3933 H   0  0  0  0  0  0  0  0  0  0  0  0
  146.0470  136.6839  149.9129 H   0  0  0  0  0  0  0  0  0  0  0  0
  144.4809  136.1792  150.5123 H   0  0  0  0  0  0  0  0  0  0  0  0
  147.3780  138.1686  151.0369 H   0  0  0  0  0  0  0  0  0  0  0  0
  145.9502  139.1730  151.1123 H   0  0  0  0  0  0  0  0  0  0  0  0
  147.4338  138.3676  154.3572 H   0  0  0  0  0  0  0  0  0  0  0  0
  148.7902  138.1434  153.2687 H   0  0  0  0  0  0  0  0  0  0  0  0
  149.4964  139.3663  155.3161 H   0  0  0  0  0  0  0  0  0  0  0  0
  149.7440  140.3195  153.8723 H   0  0  0  0  0  0  0  0  0  0  0  0
  147.4119  140.5686  155.8244 H   0  0  0  0  0  0  0  0  0  0  0  0
  148.8219  142.9586  155.5211 H   0  0  0  0  0  0  0  0  0  0  0  0
  150.1637  143.6912  156.7533 H   0  0  0  0  0  0  0  0  0  0  0  0
  153.4392  144.7652  160.0077 H   0  0  0  0  0  0  0  0  0  0  0  0
  154.0355  142.1731  160.4302 H   0  0  0  0  0  0  0  0  0  0  0  0
  146.6121  142.4277  154.3934 H   0  0  0  0  0  0  0  0  0  0  0  0
  147.9616  142.2167  153.3040 H   0  0  0  0  0  0  0  0  0  0  0  0
  145.9602  141.1537  152.3710 H   0  0  0  0  0  0  0  0  0  0  0  0
  145.7259  140.1873  153.8111 H   0  0  0  0  0  0  0  0  0  0  0  0
  148.0646  140.0499  152.0506 H   0  0  0  0  0  0  0  0  0  0  0  0
  1  2  1  0  0  0  0
  1 21  1  0  0  0  0
  1 22  1  0  0  0  0
  1 23  1  0  0  0  0
  2  3  1  0  0  0  0
  3  4  2  0  0  0  0
  3  5  1  0  0  0  0
  5  6  1  0  0  0  0
  5 24  1  0  0  0  0
  5 25  1  0  0  0  0
  6 20  1  0  0  0  0
  6  7  1  0  0  0  0
  6 39  1  0  0  0  0
  7  8  1  0  0  0  0
  7 26  1  0  0  0  0
  7 27  1  0  0  0  0
  8  9  1  0  0  0  0
  8 28  1  0  0  0  0
  8 29  1  0  0  0  0
  9 10  1  0  0  0  0
  9 19  1  0  0  0  0
  9 30  1  0  0  0  0
 10 11  1  0  0  0  0
 10 31  1  0  0  0  0
 11 12  2  0  0  0  0
 11 13  1  0  0  0  0
 13 14  1  0  0  0  0
 13 32  1  0  0  0  0
 14 18  1  0  0  0  0
 14 15  2  0  0  0  0
 15 16  1  0  0  0  0
 16 17  2  0  0  0  0
 16 33  1  0  0  0  0
 17 18  1  0  0  0  0
 17 34  1  0  0  0  0
 19 20  1  0  0  0  0
 19 35  1  0  0  0  0
 19 36  1  0  0  0  0
 20 37  1  0  0  0  0
 20 38  1  0  0  0  0
M  CHG  1   2  -1
M  CHG  1   6   1
M  END
> <s_m_source_file>
AV-unprocessed.smi

> <i_m_source_file_index>
1813

> <i_lp_mmshare_version>
43012

> <i_f3d_flags>
0

> <s_epik_input>
W0NIM11bTkhdQyg9TylbQ0gyXU4xW0NIMl1bQ0gyXVtDSF0oW0NIMl1bQ0gyXTEpW05IXUMoPU8pW05IXWMybltjSF1bY0hdczI=

> <s_epik_cmdline>
J2VwaWtfcHl0aG9uJywgJy1waCcsICc3LjAnLCAnLXRuJywgJzgnLCAnLW1hJywgJzIwMCcsICctbWV0YWxfYmluZGluZycsICctaW1hZScsICc8aW5maWxlLm1hZT4nLCAnLW9tYWUnLCAnPG91dGZpbGUubWFlPic=

> <r_lp_tautomer_probability>
0.999

> <r_epik_Ionization_Penalty>
6.14232

> <r_epik_Ionization_Penalty_Charging>
6.14218

> <r_epik_Ionization_Penalty_Neutral>
0.000139308

> <r_epik_State_Penalty>
6.98503

> <r_epik_Charging_Adjusted_Penalty>
13.1272

> <i_epik_Tot_Q>
0

> <i_epik_Tot_abs_Q>
2

> <r_epik_Metal_State_Penalty>
2.95036

> <b_epik_Metal_Only>
1

> <s_lp_Force_Field>
OPLS_2005

> <r_lp_Energy>
7.46639

> <b_lp_Chiralities_Consistent>
1

> <s_lp_Variant>
AV-unprocessed.smi:1813-5

> <Gold.Version>
5.8.1

> <Gold.Id.Protein>
6NUR|6NUR_protein|mol2

> <Gold.PLP.Fitness>
41.9996

> <Gold.PLP.PLP>
-34.9349

> <Gold.PLP.part.hbond>
-3.0000

> <Gold.PLP.part.metal>
0.0000

> <Gold.PLP.part.buried>
-3.7316

> <Gold.PLP.part.nonpolar>
-30.9376

> <Gold.PLP.part.repulsive>
2.0231

> <Gold.PLP.ligand.clash>
0.0000

> <Gold.PLP.ligand.torsion>
0.9953

> <Gold.PLP.Chemscore.Hbond>
2.9920

> <Gold.PLP.Chemscore.CHOScore>
0.0000

> <Gold.PLP.Chemscore.Metal>
0.0000

> <Gold.Chemscore.Hbonds>
donor molecule, donor type, donor heavy atom, donor atom, acceptor molecule, acceptor atom, score
      L1  H     6    39       P1  7957  1.00
      L1  H    10    31       P1  8028  1.00
      L1  H    13    32       P1  8028  1.00

> <Gold.PLP.Chemscore.Internal.Correction>
0.0794

> <Gold.Rescore>
     Score         DG    S(hbond)    S(metal)    S(lipo)     H(rot)  DE(clash)    DE(int)     intcor
     13.21     -20.81       2.96        0.00      84.30       1.73       1.23       6.37       ----

> <Gold.Chemscore.Fitness>
13.2097

> <Gold.Chemscore.DG>
-20.8102

> <Gold.Chemscore.ZeroCoef>
-5.4800

> <Gold.Chemscore.Hbond>
2.9639

> <Gold.Chemscore.Metal>
0.0000

> <Gold.Chemscore.Lipo>
84.2967

> <Gold.Chemscore.Internal_Hbond>
0.0000

> <Gold.Chemscore.DEClash>
1.2289

> <Gold.Chemscore.DEInternal>
6.3717

> <Gold.Chemscore.Rot>
1.7312

> <Gold.Chemscore.Internal.Correction>
   9.000000E+99

> <Gold.Chemscore.Hbonds>
donor molecule, donor type, donor heavy atom, donor atom, acceptor molecule, acceptor atom, score
      L1  H     6    39       P1  7957  0.95
      L1  H    10    31       P1  8028  0.99
      L1  H    13    32       P1  8028  0.95

> <Gold.Chemscore.Hbond.Weighted>
-9.8994

> <Gold.Chemscore.Metal.Weighted>
-0.0000

> <Gold.Chemscore.Lipo.Weighted>
-9.8627

> <Gold.Chemscore.Internal_Hbond.Weighted>
0.0000

> <Gold.Chemscore.DEClash.Weighted>
1.2289

> <Gold.Chemscore.DEInternal.Weighted>
6.3717

> <Gold.Chemscore.Rot.Weighted>
4.4319

> <Gold.Chemscore.Internal.Correction.Weighted>
   9.000000E+99

> <Gold.Protein.RotatedTorsions>
[ 6907 6896 6895 6894 ] final  -36.12 input  -60.11 | X-H torsion
[ 7974 7965 7964 7962 ] final -158.55 input  175.53 | X-H torsion
[ 8008 7997 7996 7995 ] final -173.55 input   59.86 | X-H torsion
[ 10167 10162 10161 10158 ] final -170.15 input  -65.29 | X-H torsion
[ 10718 10713 10712 10709 ] final  -66.01 input   66.30 | X-H torsion
[ 10763 10752 10751 10750 ] final   63.23 input  -60.55 | X-H torsion
[ 11005 11000 10999 10996 ] final -152.42 input  -57.11 | X-H torsion

> <Gold.Protein.ActiveResidues>
 VAL166  LYS551  ARG553  GLY616  TRP617  ASP618  TYR619  PRO620  LYS621  CYS622 
 ASP623  PHE694  ASN695  SER759  ASP760  ASP761  ALA762  ILE779  LEU786  VAL792 
 PHE793  MET794  SER795  GLU796  ALA797  LYS798  CYS799  TRP800  GLU811  SER814 

> <Gold.Protein.RotatedAtoms>
  151.0311  134.9540  159.8111 H   0  0  0  0  0  0  0  0  0  0  0  0  # atno 6907 bound_to 6896
  152.5346  134.2778  159.9006 H   0  0  0  0  0  0  0  0  0  0  0  0  # atno 6908 bound_to 6896
  151.2788  133.4177  159.2659 H   0  0  0  0  0  0  0  0  0  0  0  0  # atno 6909 bound_to 6896
  144.7501  140.3811  143.6055 H   0  0  0  0  0  0  0  0  0  0  0  0  # atno 7974 bound_to 7965
  155.9589  140.1140  157.0913 H   0  0  0  0  0  0  0  0  0  0  0  0  # atno 8008 bound_to 7997
  154.4127  140.1186  156.5219 H   0  0  0  0  0  0  0  0  0  0  0  0  # atno 8009 bound_to 7997
  155.6746  140.3473  155.4834 H   0  0  0  0  0  0  0  0  0  0  0  0  # atno 8010 bound_to 7997
  139.5879  144.1278  152.1598 H   0  0  0  0  0  0  0  0  0  0  0  0  # atno 10167 bound_to 10162
  156.0637  130.4255  150.1646 H   0  0  0  0  0  0  0  0  0  0  0  0  # atno 10718 bound_to 10713
  153.0010  135.5436  154.6319 H   0  0  0  0  0  0  0  0  0  0  0  0  # atno 10763 bound_to 10752
  154.5594  135.2832  155.0935 H   0  0  0  0  0  0  0  0  0  0  0  0  # atno 10764 bound_to 10752
  154.2144  135.6461  153.5178 H   0  0  0  0  0  0  0  0  0  0  0  0  # atno 10765 bound_to 10752
  140.7190  134.3748  157.5186 H   0  0  0  0  0  0  0  0  0  0  0  0  # atno 11005 bound_to 11000
  145.6976  139.1653  143.2611 LP  0  0  0  0  0  0  0  0  0  0  0  0  # atno 17320 bound_to 7965
  146.1438  140.7021  142.9354 LP  0  0  0  0  0  0  0  0  0  0  0  0  # atno 17321 bound_to 7965
  140.0845  144.5672  150.7098 LP  0  0  0  0  0  0  0  0  0  0  0  0  # atno 17342 bound_to 10162
  140.7147  143.2535  151.4470 LP  0  0  0  0  0  0  0  0  0  0  0  0  # atno 17343 bound_to 10162
  156.9710  130.9834  151.3459 LP  0  0  0  0  0  0  0  0  0  0  0  0  # atno 17370 bound_to 10713
  157.5664  130.8280  149.8332 LP  0  0  0  0  0  0  0  0  0  0  0  0  # atno 17371 bound_to 10713
  139.8853  134.8942  156.2653 LP  0  0  0  0  0  0  0  0  0  0  0  0  # atno 17394 bound_to 11000
  141.0019  133.7146  156.0974 LP  0  0  0  0  0  0  0  0  0  0  0  0  # atno 17395 bound_to 11000

$$$$
