AV-unprocessed.smi:155|AV-procd|sdf|1278|dock7
  -GOLD-   2262018543D 1   1.00000     0.00000
 Structure written by MMmdl.
 63 66  0  0  0  0  0  0  0  0  2 V2000
  144.3251  132.3223  150.0417 C   0  0  0  0  0  0  0  0  0  0  0  0
  145.2893  133.4440  150.1299 N   0  3  0  0  0  0  0  0  0  0  0  0
  146.6456  132.9638  150.4757 C   0  0  0  0  0  0  0  0  0  0  0  0
  144.8352  134.5367  151.0264 C   0  0  0  0  0  0  0  0  0  0  0  0
  145.8004  135.7410  151.0158 C   0  0  0  0  0  0  0  0  0  0  0  0
  145.5543  136.6483  152.1373 N   0  0  0  0  0  0  0  0  0  0  0  0
  145.6117  135.9662  153.4391 C   0  0  0  0  0  0  0  0  0  0  0  0
  147.0188  135.8720  154.0657 C   0  0  0  0  0  0  0  0  0  0  0  0
  147.3588  137.0922  154.9432 C   0  0  0  0  0  0  0  0  0  0  0  0
  147.5202  138.3286  154.1762 N   0  0  0  0  0  0  0  0  0  0  0  0
  148.2014  139.3506  154.7545 C   0  0  0  0  0  0  0  0  0  0  0  0
  148.0608  140.6139  154.2710 N   0  0  0  0  0  0  0  0  0  0  0  0
  148.7381  141.6263  154.8201 C   0  0  0  0  0  0  0  0  0  0  0  0
  149.5918  141.6006  155.8452 N   0  0  0  0  0  0  0  0  0  0  0  0
  149.7276  140.3389  156.3444 C   0  0  0  0  0  0  0  0  0  0  0  0
  149.0754  139.1681  155.8637 C   0  0  0  0  0  0  0  0  0  0  0  0
  149.4532  138.0696  156.6275 N   0  0  0  0  0  0  0  0  0  0  0  0
  150.2900  138.5606  157.5003 C   0  0  0  0  0  0  0  0  0  0  0  0
  150.5015  139.9182  157.4123 N   0  0  0  0  0  0  0  0  0  0  0  0
  151.3859  140.7146  158.2463 C   0  0  0  0  0  0  0  0  0  0  0  0
  151.1191  142.2349  158.1652 C   0  0  1  0  0  0  0  0  0  0  0  0
  149.7617  142.4061  158.5184 O   0  0  0  0  0  0  0  0  0  0  0  0
  151.9492  143.1046  159.1363 C   0  0  1  0  0  0  0  0  0  0  0  0
  151.5723  144.5874  159.2038 C   0  0  0  0  0  0  0  0  0  0  0  0
  151.9963  145.0149  160.6000 C   0  0  0  0  0  0  0  0  0  0  0  0
  152.2188  143.6941  161.3369 C   0  0  0  0  0  0  0  0  0  0  0  0
  151.6804  142.7047  160.4728 O   0  0  0  0  0  0  0  0  0  0  0  0
  146.4506  138.7151  153.2570 C   0  0  0  0  0  0  0  0  0  0  0  0
  146.4478  137.8046  152.0185 C   0  0  0  0  0  0  0  0  0  0  0  0
  144.2006  131.8372  151.0107 H   0  0  0  0  0  0  0  0  0  0  0  0
  144.6754  131.5726  149.3314 H   0  0  0  0  0  0  0  0  0  0  0  0
  143.3457  132.6568  149.7020 H   0  0  0  0  0  0  0  0  0  0  0  0
  146.6655  132.5394  151.4806 H   0  0  0  0  0  0  0  0  0  0  0  0
  147.3689  133.7789  150.4333 H   0  0  0  0  0  0  0  0  0  0  0  0
  146.9750  132.1966  149.7739 H   0  0  0  0  0  0  0  0  0  0  0  0
  143.8283  134.8406  150.7348 H   0  0  0  0  0  0  0  0  0  0  0  0
  144.7589  134.1549  152.0448 H   0  0  0  0  0  0  0  0  0  0  0  0
  146.8402  135.4112  151.0027 H   0  0  0  0  0  0  0  0  0  0  0  0
  145.6476  136.3036  150.0951 H   0  0  0  0  0  0  0  0  0  0  0  0
  144.9516  136.4914  154.1300 H   0  0  0  0  0  0  0  0  0  0  0  0
  145.1852  134.9680  153.3578 H   0  0  0  0  0  0  0  0  0  0  0  0
  147.0364  134.9942  154.7123 H   0  0  0  0  0  0  0  0  0  0  0  0
  147.7887  135.6949  153.3139 H   0  0  0  0  0  0  0  0  0  0  0  0
  146.5868  137.2360  155.7004 H   0  0  0  0  0  0  0  0  0  0  0  0
  148.2868  136.8816  155.4768 H   0  0  0  0  0  0  0  0  0  0  0  0
  148.5732  142.5956  154.3733 H   0  0  0  0  0  0  0  0  0  0  0  0
  150.7755  137.9413  158.2406 H   0  0  0  0  0  0  0  0  0  0  0  0
  151.2475  140.3677  159.2715 H   0  0  0  0  0  0  0  0  0  0  0  0
  152.4225  140.4965  157.9864 H   0  0  0  0  0  0  0  0  0  0  0  0
  151.2498  142.5849  157.1405 H   0  0  0  0  0  0  0  0  0  0  0  0
  149.3967  143.0859  157.9722 H   0  0  0  0  0  0  0  0  0  0  0  0
  153.0174  143.0060  158.9312 H   0  0  0  0  0  0  0  0  0  0  0  0
  152.0557  145.1801  158.4277 H   0  0  0  0  0  0  0  0  0  0  0  0
  150.4932  144.7091  159.1026 H   0  0  0  0  0  0  0  0  0  0  0  0
  152.9139  145.6041  160.5788 H   0  0  0  0  0  0  0  0  0  0  0  0
  151.2199  145.6165  161.0743 H   0  0  0  0  0  0  0  0  0  0  0  0
  153.2844  143.5071  161.4782 H   0  0  0  0  0  0  0  0  0  0  0  0
  151.7349  143.6705  162.3138 H   0  0  0  0  0  0  0  0  0  0  0  0
  145.4873  138.6987  153.7683 H   0  0  0  0  0  0  0  0  0  0  0  0
  146.5824  139.7454  152.9277 H   0  0  0  0  0  0  0  0  0  0  0  0
  147.4671  137.4916  151.7843 H   0  0  0  0  0  0  0  0  0  0  0  0
  146.1076  138.3858  151.1606 H   0  0  0  0  0  0  0  0  0  0  0  0
  145.3627  133.8434  149.2049 H   0  0  0  0  0  0  0  0  0  0  0  0
  1  2  1  0  0  0  0
  1 30  1  0  0  0  0
  1 31  1  0  0  0  0
  1 32  1  0  0  0  0
  2  3  1  0  0  0  0
  2  4  1  0  0  0  0
  2 63  1  0  0  0  0
  3 33  1  0  0  0  0
  3 34  1  0  0  0  0
  3 35  1  0  0  0  0
  4  5  1  0  0  0  0
  4 36  1  0  0  0  0
  4 37  1  0  0  0  0
  5  6  1  0  0  0  0
  5 38  1  0  0  0  0
  5 39  1  0  0  0  0
  6 29  1  0  0  0  0
  6  7  1  0  0  0  0
  7  8  1  0  0  0  0
  7 40  1  0  0  0  0
  7 41  1  0  0  0  0
  8  9  1  0  0  0  0
  8 42  1  0  0  0  0
  8 43  1  0  0  0  0
  9 10  1  0  0  0  0
  9 44  1  0  0  0  0
  9 45  1  0  0  0  0
 10 11  1  0  0  0  0
 10 28  1  0  0  0  0
 11 16  1  0  0  0  0
 11 12  2  0  0  0  0
 12 13  1  0  0  0  0
 13 14  2  0  0  0  0
 13 46  1  0  0  0  0
 14 15  1  0  0  0  0
 15 19  1  0  0  0  0
 15 16  2  0  0  0  0
 16 17  1  0  0  0  0
 17 18  2  0  0  0  0
 18 19  1  0  0  0  0
 18 47  1  0  0  0  0
 19 20  1  0  0  0  0
 20 21  1  0  0  0  0
 20 48  1  0  0  0  0
 20 49  1  0  0  0  0
 21 22  1  0  0  0  0
 21 23  1  0  0  0  0
 21 50  1  0  0  0  0
 22 51  1  0  0  0  0
 23 27  1  0  0  0  0
 23 24  1  0  0  0  0
 23 52  1  0  0  0  0
 24 25  1  0  0  0  0
 24 53  1  0  0  0  0
 24 54  1  0  0  0  0
 25 26  1  0  0  0  0
 25 55  1  0  0  0  0
 25 56  1  0  0  0  0
 26 27  1  0  0  0  0
 26 57  1  0  0  0  0
 26 58  1  0  0  0  0
 28 29  1  0  0  0  0
 28 59  1  0  0  0  0
 28 60  1  0  0  0  0
 29 61  1  0  0  0  0
 29 62  1  0  0  0  0
M  CHG  1   2   1
M  END
> <s_m_source_file>
AV-unprocessed.smi

> <i_m_source_file_index>
155

> <i_lp_mmshare_version>
43012

> <i_f3d_flags>
0

> <s_epik_input>
W0NIM11OKFtDSDNdKVtDSDJdW0NIMl1OMVtDSDJdW0NIMl1bQ0gyXU4oW0NIMl1bQ0gyXTEpYyhuW2NIXW4yKWMoYzIzKW5bY0hdbjNbQ0gyXVtDQEhdKFtPSF0pW0NAQEhdNFtDSDJdW0NIMl1bQ0gyXU80

> <s_epik_cmdline>
J2VwaWtfcHl0aG9uJywgJy1waCcsICc3LjAnLCAnLXRuJywgJzgnLCAnLW1hJywgJzIwMCcsICctbWV0YWxfYmluZGluZycsICctaW1hZScsICc8aW5maWxlLm1hZT4nLCAnLW9tYWUnLCAnPG91dGZpbGUubWFlPic=

> <r_lp_tautomer_probability>
1

> <r_epik_Ionization_Penalty>
0.0599493

> <r_epik_Ionization_Penalty_Charging>
0.00816363

> <r_epik_Ionization_Penalty_Neutral>
0.0517857

> <r_epik_State_Penalty>
0.460607

> <r_epik_Charging_Adjusted_Penalty>
0.468771

> <i_epik_Tot_Q>
1

> <i_epik_Tot_abs_Q>
1

> <r_epik_Metal_State_Penalty>
0.45965

> <b_epik_Metal_Only>
0

> <s_lp_Force_Field>
OPLS_2005

> <r_lp_Energy>
60.0635

> <b_lp_Chiralities_Consistent>
1

> <s_lp_Variant>
AV-unprocessed.smi:155-12

> <Gold.Version>
5.8.1

> <Gold.Id.Protein>
6NUR|6NUR_protein|mol2

> <Gold.PLP.Fitness>
50.4640

> <Gold.PLP.PLP>
-46.3029

> <Gold.PLP.part.hbond>
-1.8339

> <Gold.PLP.part.metal>
0.0000

> <Gold.PLP.part.buried>
-4.8558

> <Gold.PLP.part.nonpolar>
-41.2457

> <Gold.PLP.part.repulsive>
0.8513

> <Gold.PLP.ligand.clash>
0.0000

> <Gold.PLP.ligand.torsion>
0.4461

> <Gold.PLP.Chemscore.Hbond>
1.0000

> <Gold.PLP.Chemscore.CHOScore>
0.5622

> <Gold.PLP.Chemscore.Metal>
0.0000

> <Gold.Chemscore.Hbonds>
donor molecule, donor type, donor heavy atom, donor atom, acceptor molecule, acceptor atom, score
      L1  H     2    63       P1  7921  1.00
      L1  C    13    46       P1  8028  0.86

> <Gold.PLP.Chemscore.Internal.Correction>
0.3667

> <Gold.Rescore>
     Score         DG    S(hbond)    S(metal)    S(lipo)     H(rot)  DE(clash)    DE(int)     intcor
     10.27     -14.51       0.80        0.00     113.76       2.71       0.80       3.44       ----

> <Gold.Chemscore.Fitness>
10.2693

> <Gold.Chemscore.DG>
-14.5123

> <Gold.Chemscore.ZeroCoef>
-5.4800

> <Gold.Chemscore.Hbond>
0.7950

> <Gold.Chemscore.Metal>
0.0000

> <Gold.Chemscore.Lipo>
113.7563

> <Gold.Chemscore.Internal_Hbond>
0.0000

> <Gold.Chemscore.DEClash>
0.8041

> <Gold.Chemscore.DEInternal>
3.4389

> <Gold.Chemscore.Rot>
2.7080

> <Gold.Chemscore.Internal.Correction>
   9.000000E+99

> <Gold.Chemscore.Hbonds>
donor molecule, donor type, donor heavy atom, donor atom, acceptor molecule, acceptor atom, score
      L1  H     2    63       P1  7921  0.72

> <Gold.Chemscore.Hbond.Weighted>
-2.6554

> <Gold.Chemscore.Metal.Weighted>
-0.0000

> <Gold.Chemscore.Lipo.Weighted>
-13.3095

> <Gold.Chemscore.Internal_Hbond.Weighted>
0.0000

> <Gold.Chemscore.DEClash.Weighted>
0.8041

> <Gold.Chemscore.DEInternal.Weighted>
3.4389

> <Gold.Chemscore.Rot.Weighted>
6.9326

> <Gold.Chemscore.Internal.Correction.Weighted>
   9.000000E+99

> <Gold.Protein.RotatedTorsions>
[ 6907 6896 6895 6894 ] final  -56.71 input  -60.11 | X-H torsion
[ 7974 7965 7964 7962 ] final    7.56 input  175.53 | X-H torsion
[ 8008 7997 7996 7995 ] final    9.09 input   59.86 | X-H torsion
[ 10167 10162 10161 10158 ] final   56.81 input  -65.29 | X-H torsion
[ 10718 10713 10712 10709 ] final  -48.92 input   66.30 | X-H torsion
[ 10763 10752 10751 10750 ] final  -26.56 input  -60.55 | X-H torsion
[ 11005 11000 10999 10996 ] final   76.75 input  -57.11 | X-H torsion

> <Gold.Protein.ActiveResidues>
 VAL166  LYS551  ARG553  GLY616  TRP617  ASP618  TYR619  PRO620  LYS621  CYS622 
 ASP623  PHE694  ASN695  SER759  ASP760  ASP761  ALA762  ILE779  LEU786  VAL792 
 PHE793  MET794  SER795  GLU796  ALA797  LYS798  CYS799  TRP800  GLU811  SER814 

> <Gold.Protein.RotatedAtoms>
  150.8145  134.7319  159.6717 H   0  0  0  0  0  0  0  0  0  0  0  0  # atno 6907 bound_to 6896
  152.4264  134.5857  159.9970 H   0  0  0  0  0  0  0  0  0  0  0  0  # atno 6908 bound_to 6896
  151.6057  133.3314  159.3093 H   0  0  0  0  0  0  0  0  0  0  0  0  # atno 6909 bound_to 6896
  146.2425  140.0064  142.8411 H   0  0  0  0  0  0  0  0  0  0  0  0  # atno 7974 bound_to 7965
  154.7754  140.2809  155.6105 H   0  0  0  0  0  0  0  0  0  0  0  0  # atno 8008 bound_to 7997
  156.2941  140.2633  156.2495 H   0  0  0  0  0  0  0  0  0  0  0  0  # atno 8009 bound_to 7997
  154.9849  140.0374  157.2283 H   0  0  0  0  0  0  0  0  0  0  0  0  # atno 8010 bound_to 7997
  140.2047  144.3951  150.6514 H   0  0  0  0  0  0  0  0  0  0  0  0  # atno 10167 bound_to 10162
  156.1942  130.4154  149.9329 H   0  0  0  0  0  0  0  0  0  0  0  0  # atno 10718 bound_to 10713
  153.7179  135.6946  153.5020 H   0  0  0  0  0  0  0  0  0  0  0  0  # atno 10763 bound_to 10752
  153.2225  135.4365  155.0504 H   0  0  0  0  0  0  0  0  0  0  0  0  # atno 10764 bound_to 10752
  154.8294  135.3464  154.6713 H   0  0  0  0  0  0  0  0  0  0  0  0  # atno 10765 bound_to 10752
  139.9284  134.7626  156.1435 H   0  0  0  0  0  0  0  0  0  0  0  0  # atno 11005 bound_to 11000
  145.1368  140.9549  143.4512 LP  0  0  0  0  0  0  0  0  0  0  0  0  # atno 17320 bound_to 7965
  145.0334  139.3321  143.6013 LP  0  0  0  0  0  0  0  0  0  0  0  0  # atno 17321 bound_to 7965
  140.6365  143.2196  151.6383 LP  0  0  0  0  0  0  0  0  0  0  0  0  # atno 17342 bound_to 10162
  139.5203  144.3227  152.0896 LP  0  0  0  0  0  0  0  0  0  0  0  0  # atno 17343 bound_to 10162
  156.7060  130.8951  151.3604 LP  0  0  0  0  0  0  0  0  0  0  0  0  # atno 17370 bound_to 10713
  157.6947  130.9270  150.0612 LP  0  0  0  0  0  0  0  0  0  0  0  0  # atno 17371 bound_to 10713
  141.0858  133.6735  156.2432 LP  0  0  0  0  0  0  0  0  0  0  0  0  # atno 17394 bound_to 11000
  140.6270  134.5303  157.5555 LP  0  0  0  0  0  0  0  0  0  0  0  0  # atno 17395 bound_to 11000

$$$$
