AV-unprocessed.smi:2761|AV-procd|sdf|10633|dock6
  -GOLD-   2272015 83D 1   1.00000     0.00000
 Structure written by MMmdl.
 27 28  0  0  0  0  0  0  0  0  1 V2000
  151.2236  140.5349  155.3624 O   0  0  0  0  0  0  0  0  0  0  0  0
  150.2633  141.0709  155.9202 C   0  0  0  0  0  0  0  0  0  0  0  0
  148.9800  140.9843  155.5073 N   0  0  0  0  0  0  0  0  0  0  0  0
  148.4707  140.3134  154.3899 C   0  0  0  0  0  0  0  0  0  0  0  0
  147.4349  141.0780  153.7377 C   0  0  0  0  0  0  0  0  0  0  0  0
  146.8572  140.5431  152.6402 C   0  0  0  0  0  0  0  0  0  0  0  0
  147.2708  139.2361  152.1307 C   0  0  0  0  0  0  0  0  0  0  0  0
  146.7927  138.6898  151.1397 O   0  0  0  0  0  0  0  0  0  0  0  0
  148.2576  138.6599  152.8669 N   0  0  0  0  0  0  0  0  0  0  0  0
  148.8957  139.1460  154.0019 N   0  0  0  0  0  0  0  0  0  0  0  0
  150.4825  141.8934  157.1989 C   0  0  1  0  0  0  0  0  0  0  0  0
  151.1768  141.0936  158.3261 C   0  0  0  0  0  0  0  0  0  0  0  0
  151.3754  141.9416  159.4499 O   0  0  0  0  0  0  0  0  0  0  0  0
  152.1869  143.0592  159.1176 C   0  0  0  0  0  0  0  0  0  0  0  0
  151.4940  143.8649  158.0070 C   0  0  0  0  0  0  0  0  0  0  0  0
  151.2932  143.0222  156.8801 O   0  0  0  0  0  0  0  0  0  0  0  0
  148.3121  141.4739  156.0849 H   0  0  0  0  0  0  0  0  0  0  0  0
  147.1049  142.0465  154.0853 H   0  0  0  0  0  0  0  0  0  0  0  0
  146.0773  141.0876  152.1283 H   0  0  0  0  0  0  0  0  0  0  0  0
  148.5972  137.7542  152.5762 H   0  0  0  0  0  0  0  0  0  0  0  0
  149.5050  142.2375  157.5414 H   0  0  0  0  0  0  0  0  0  0  0  0
  150.5591  140.2511  158.6387 H   0  0  0  0  0  0  0  0  0  0  0  0
  152.1332  140.6864  157.9930 H   0  0  0  0  0  0  0  0  0  0  0  0
  152.3241  143.6768  160.0052 H   0  0  0  0  0  0  0  0  0  0  0  0
  153.1764  142.7269  158.7997 H   0  0  0  0  0  0  0  0  0  0  0  0
  150.5403  144.2663  158.3530 H   0  0  0  0  0  0  0  0  0  0  0  0
  152.1122  144.7127  157.7117 H   0  0  0  0  0  0  0  0  0  0  0  0
  1  2  2  0  0  0  0
  2  3  1  0  0  0  0
  2 11  1  0  0  0  0
  3 17  1  0  0  0  0
  3  4  1  0  0  0  0
  4  5  1  0  0  0  0
  4 10  2  0  0  0  0
  5  6  2  0  0  0  0
  5 18  1  0  0  0  0
  6  7  1  0  0  0  0
  6 19  1  0  0  0  0
  7  8  2  0  0  0  0
  7  9  1  0  0  0  0
  9 10  1  0  0  0  0
  9 20  1  0  0  0  0
 11 16  1  0  0  0  0
 11 12  1  0  0  0  0
 11 21  1  0  0  0  0
 12 13  1  0  0  0  0
 12 22  1  0  0  0  0
 12 23  1  0  0  0  0
 13 14  1  0  0  0  0
 14 15  1  0  0  0  0
 14 24  1  0  0  0  0
 14 25  1  0  0  0  0
 15 16  1  0  0  0  0
 15 26  1  0  0  0  0
 15 27  1  0  0  0  0
M  END
> <s_m_source_file>
AV-unprocessed.smi

> <i_m_source_file_index>
2761

> <i_lp_mmshare_version>
43012

> <i_f3d_flags>
0

> <s_epik_input>
TzFbQ0gyXVtDSDJdT1tDSDJdW0NASF0xQyg9TylbTkhdYzJbY0hdW2NIXWMoW09IXSlubjI=

> <s_epik_cmdline>
J2VwaWtfcHl0aG9uJywgJy1waCcsICc3LjAnLCAnLXRuJywgJzgnLCAnLW1hJywgJzIwMCcsICctbWV0YWxfYmluZGluZycsICctaW1hZScsICc8aW5maWxlLm1hZT4nLCAnLW9tYWUnLCAnPG91dGZpbGUubWFlPic=

> <r_lp_tautomer_probability>
1

> <r_epik_Ionization_Penalty>
0.000593199

> <r_epik_Ionization_Penalty_Charging>
0.000590119

> <r_epik_Ionization_Penalty_Neutral>
3.08036e-06

> <r_epik_State_Penalty>
-0

> <r_epik_Charging_Adjusted_Penalty>
0.000590119

> <i_epik_Tot_Q>
0

> <i_epik_Tot_abs_Q>
0

> <r_epik_Metal_State_Penalty>
0.240077

> <b_epik_Metal_Only>
0

> <s_lp_Force_Field>
OPLS_2005

> <r_lp_Energy>
26.3126

> <b_lp_Chiralities_Consistent>
1

> <s_lp_Variant>
AV-unprocessed.smi:2761-2

> <Gold.Version>
5.8.1

> <Gold.Id.Protein>
6NUR|6NUR_protein|mol2

> <Gold.PLP.Fitness>
35.5890

> <Gold.PLP.PLP>
-27.5400

> <Gold.PLP.part.hbond>
-4.4586

> <Gold.PLP.part.metal>
0.0000

> <Gold.PLP.part.buried>
-0.2134

> <Gold.PLP.part.nonpolar>
-24.1365

> <Gold.PLP.part.repulsive>
1.5676

> <Gold.PLP.ligand.clash>
0.0000

> <Gold.PLP.ligand.torsion>
0.3321

> <Gold.PLP.Chemscore.Hbond>
2.9040

> <Gold.PLP.Chemscore.CHOScore>
0.0000

> <Gold.PLP.Chemscore.Metal>
0.0000

> <Gold.Chemscore.Hbonds>
donor molecule, donor type, donor heavy atom, donor atom, acceptor molecule, acceptor atom, score
      L1  H     9    20       P1  7948  1.00
      P1  H  7954  7966       L1     8  0.99
      P1  H  7989  7998       L1     1  0.90

> <Gold.PLP.Chemscore.Internal.Correction>
0.0012

> <Gold.Rescore>
     Score         DG    S(hbond)    S(metal)    S(lipo)     H(rot)  DE(clash)    DE(int)     intcor
     15.19     -17.90       2.72        0.00      50.32       1.00       1.65       1.07       ----

> <Gold.Chemscore.Fitness>
15.1852

> <Gold.Chemscore.DG>
-17.8988

> <Gold.Chemscore.ZeroCoef>
-5.4800

> <Gold.Chemscore.Hbond>
2.7221

> <Gold.Chemscore.Metal>
0.0000

> <Gold.Chemscore.Lipo>
50.3174

> <Gold.Chemscore.Internal_Hbond>
0.0000

> <Gold.Chemscore.DEClash>
1.6458

> <Gold.Chemscore.DEInternal>
1.0679

> <Gold.Chemscore.Rot>
1.0000

> <Gold.Chemscore.Internal.Correction>
   9.000000E+99

> <Gold.Chemscore.Hbonds>
donor molecule, donor type, donor heavy atom, donor atom, acceptor molecule, acceptor atom, score
      L1  H     9    20       P1  7948  1.00
      P1  H  7954  7966       L1     8  0.79
      P1  H  7989  7998       L1     1  0.87

> <Gold.Chemscore.Hbond.Weighted>
-9.0917

> <Gold.Chemscore.Metal.Weighted>
-0.0000

> <Gold.Chemscore.Lipo.Weighted>
-5.8871

> <Gold.Chemscore.Internal_Hbond.Weighted>
0.0000

> <Gold.Chemscore.DEClash.Weighted>
1.6458

> <Gold.Chemscore.DEInternal.Weighted>
1.0679

> <Gold.Chemscore.Rot.Weighted>
2.5600

> <Gold.Chemscore.Internal.Correction.Weighted>
   9.000000E+99

> <Gold.Protein.RotatedTorsions>
[ 6907 6896 6895 6894 ] final   66.84 input  -60.11 | X-H torsion
[ 7974 7965 7964 7962 ] final -144.54 input  175.53 | X-H torsion
[ 8008 7997 7996 7995 ] final  -70.86 input   59.86 | X-H torsion
[ 10167 10162 10161 10158 ] final  -92.61 input  -65.29 | X-H torsion
[ 10718 10713 10712 10709 ] final -105.92 input   66.30 | X-H torsion
[ 10763 10752 10751 10750 ] final  157.53 input  -60.55 | X-H torsion
[ 11005 11000 10999 10996 ] final -109.11 input  -57.11 | X-H torsion

> <Gold.Protein.ActiveResidues>
 VAL166  LYS551  ARG553  GLY616  TRP617  ASP618  TYR619  PRO620  LYS621  CYS622 
 ASP623  PHE694  ASN695  SER759  ASP760  ASP761  ALA762  ILE779  LEU786  VAL792 
 PHE793  MET794  SER795  GLU796  ALA797  LYS798  CYS799  TRP800  GLU811  SER814 

> <Gold.Protein.RotatedAtoms>
  152.4510  134.5394  159.9834 H   0  0  0  0  0  0  0  0  0  0  0  0  # atno 6907 bound_to 6896
  151.5466  133.3418  159.2953 H   0  0  0  0  0  0  0  0  0  0  0  0  # atno 6908 bound_to 6896
  150.8439  134.7772  159.7018 H   0  0  0  0  0  0  0  0  0  0  0  0  # atno 6909 bound_to 6896
  144.8290  140.5697  143.5527 H   0  0  0  0  0  0  0  0  0  0  0  0  # atno 7974 bound_to 7965
  154.5043  140.0826  156.7863 H   0  0  0  0  0  0  0  0  0  0  0  0  # atno 8008 bound_to 7997
  155.3929  140.3433  155.4234 H   0  0  0  0  0  0  0  0  0  0  0  0  # atno 8009 bound_to 7997
  156.1496  140.1554  156.8778 H   0  0  0  0  0  0  0  0  0  0  0  0  # atno 8010 bound_to 7997
  140.3331  143.2984  151.9920 H   0  0  0  0  0  0  0  0  0  0  0  0  # atno 10167 bound_to 10162
  156.0367  130.5587  150.7607 H   0  0  0  0  0  0  0  0  0  0  0  0  # atno 10718 bound_to 10713
  154.2017  135.2790  155.2988 H   0  0  0  0  0  0  0  0  0  0  0  0  # atno 10763 bound_to 10752
  154.5849  135.5578  153.7225 H   0  0  0  0  0  0  0  0  0  0  0  0  # atno 10764 bound_to 10752
  153.0086  135.6354  154.2155 H   0  0  0  0  0  0  0  0  0  0  0  0  # atno 10765 bound_to 10752
  141.0865  133.9129  157.2173 H   0  0  0  0  0  0  0  0  0  0  0  0  # atno 11005 bound_to 11000
  145.4936  139.1487  143.3696 LP  0  0  0  0  0  0  0  0  0  0  0  0  # atno 17320 bound_to 7965
  146.2594  140.5075  142.8860 LP  0  0  0  0  0  0  0  0  0  0  0  0  # atno 17321 bound_to 7965
  139.4853  144.6219  151.7239 LP  0  0  0  0  0  0  0  0  0  0  0  0  # atno 17342 bound_to 10162
  140.5379  144.0626  150.6077 LP  0  0  0  0  0  0  0  0  0  0  0  0  # atno 17343 bound_to 10162
  157.5127  131.0926  151.0177 LP  0  0  0  0  0  0  0  0  0  0  0  0  # atno 17370 bound_to 10713
  157.0529  130.5794  149.5373 LP  0  0  0  0  0  0  0  0  0  0  0  0  # atno 17371 bound_to 10713
  139.9684  135.0135  156.9448 LP  0  0  0  0  0  0  0  0  0  0  0  0  # atno 17394 bound_to 11000
  140.5350  134.0776  155.7326 LP  0  0  0  0  0  0  0  0  0  0  0  0  # atno 17395 bound_to 11000

$$$$
