AV-unprocessed.smi:3245|AV-procd|sdf|12403|dock7
  -GOLD-   2272018283D 1   1.00000     0.00000
 Structure written by MMmdl.
 36 37  0  0  0  0  0  0  0  0  2 V2000
  150.9002  142.0839  157.0506 C   0  0  0  0  0  0  0  0  0  0  0  0
  150.2381  142.6190  158.3274 C   0  0  1  0  0  0  0  0  0  0  0  0
  151.1369  143.6771  159.0040 C   0  0  0  0  0  0  0  0  0  0  0  0
  152.0375  143.1094  159.9915 N   0  0  0  0  0  0  0  0  0  0  0  0
  153.1523  142.3244  159.7852 C   0  0  0  0  0  0  0  0  0  0  0  0
  153.6627  142.0142  161.0132 C   0  0  0  0  0  0  0  0  0  0  0  0
  152.7832  142.6678  161.9210 C   0  0  0  0  0  0  0  0  0  0  0  0
  151.8111  143.3225  161.3062 N   0  0  0  0  0  0  0  0  0  0  0  0
  148.9089  143.1802  157.9940 N   0  3  0  0  0  0  0  0  0  0  0  0
  147.8150  142.1902  157.9184 C   0  0  0  0  0  0  0  0  0  0  0  0
  147.9552  141.3139  156.6656 C   0  0  0  0  0  0  0  0  0  0  0  0
  147.1799  141.8577  155.5482 N   0  0  0  0  0  0  0  0  0  0  0  0
  147.6480  141.9985  154.3015 C   0  0  0  0  0  0  0  0  0  0  0  0
  148.7703  141.7109  153.8871 O   0  0  0  0  0  0  0  0  0  0  0  0
  146.5464  142.5746  153.4388 C   0  0  0  0  0  0  0  0  0  0  0  0
  145.4973  142.6715  154.4311 N   0  0  0  0  0  0  0  0  0  0  0  0
  145.8946  142.2466  155.6374 C   0  0  0  0  0  0  0  0  0  0  0  0
  145.1917  142.2138  156.6463 O   0  0  0  0  0  0  0  0  0  0  0  0
  151.8666  141.6290  157.2708 H   0  0  0  0  0  0  0  0  0  0  0  0
  151.0660  142.8803  156.3240 H   0  0  0  0  0  0  0  0  0  0  0  0
  150.2809  141.3226  156.5749 H   0  0  0  0  0  0  0  0  0  0  0  0
  150.1110  141.7727  159.0048 H   0  0  0  0  0  0  0  0  0  0  0  0
  151.7446  144.1843  158.2534 H   0  0  0  0  0  0  0  0  0  0  0  0
  150.5293  144.4488  159.4802 H   0  0  0  0  0  0  0  0  0  0  0  0
  153.4830  142.0508  158.7940 H   0  0  0  0  0  0  0  0  0  0  0  0
  154.5327  141.4125  161.2309 H   0  0  0  0  0  0  0  0  0  0  0  0
  152.8206  142.6834  163.0003 H   0  0  0  0  0  0  0  0  0  0  0  0
  148.6762  143.8733  158.6913 H   0  0  0  0  0  0  0  0  0  0  0  0
  147.8303  141.5750  158.8191 H   0  0  0  0  0  0  0  0  0  0  0  0
  146.8523  142.7005  157.9000 H   0  0  0  0  0  0  0  0  0  0  0  0
  149.0058  141.2406  156.3787 H   0  0  0  0  0  0  0  0  0  0  0  0
  147.6362  140.2935  156.8855 H   0  0  0  0  0  0  0  0  0  0  0  0
  146.8164  143.5535  153.0410 H   0  0  0  0  0  0  0  0  0  0  0  0
  146.2733  141.8989  152.6278 H   0  0  0  0  0  0  0  0  0  0  0  0
  144.5720  143.0173  154.2213 H   0  0  0  0  0  0  0  0  0  0  0  0
  148.9700  143.6369  157.0951 H   0  0  0  0  0  0  0  0  0  0  0  0
  1  2  1  0  0  0  0
  1 19  1  0  0  0  0
  1 20  1  0  0  0  0
  1 21  1  0  0  0  0
  2  3  1  0  0  0  0
  2  9  1  0  0  0  0
  2 22  1  0  0  0  0
  3  4  1  0  0  0  0
  3 23  1  0  0  0  0
  3 24  1  0  0  0  0
  4  8  1  0  0  0  0
  4  5  1  0  0  0  0
  5  6  2  0  0  0  0
  5 25  1  0  0  0  0
  6  7  1  0  0  0  0
  6 26  1  0  0  0  0
  7  8  2  0  0  0  0
  7 27  1  0  0  0  0
  9 10  1  0  0  0  0
  9 28  1  0  0  0  0
  9 36  1  0  0  0  0
 10 11  1  0  0  0  0
 10 29  1  0  0  0  0
 10 30  1  0  0  0  0
 11 12  1  0  0  0  0
 11 31  1  0  0  0  0
 11 32  1  0  0  0  0
 12 17  1  0  0  0  0
 12 13  1  0  0  0  0
 13 14  2  0  0  0  0
 13 15  1  0  0  0  0
 15 16  1  0  0  0  0
 15 33  1  0  0  0  0
 15 34  1  0  0  0  0
 16 17  1  0  0  0  0
 16 35  1  0  0  0  0
 17 18  2  0  0  0  0
M  CHG  1   9   1
M  END
> <s_m_source_file>
AV-unprocessed.smi

> <i_m_source_file_index>
3245

> <i_lp_mmshare_version>
43012

> <i_f3d_flags>
0

> <s_epik_input>
bjFbY0hdW2NIXVtjSF1uMVtDSDJdW0NAQEhdKFtDSDNdKVtOSF1bQ0gyXVtDSDJdTjJDKD1PKVtDSDJdW05IXUMyPU8=

> <s_epik_cmdline>
J2VwaWtfcHl0aG9uJywgJy1waCcsICc3LjAnLCAnLXRuJywgJzgnLCAnLW1hJywgJzIwMCcsICctbWV0YWxfYmluZGluZycsICctaW1hZScsICc8aW5maWxlLm1hZT4nLCAnLW9tYWUnLCAnPG91dGZpbGUubWFlPic=

> <r_lp_tautomer_probability>
1

> <r_epik_Ionization_Penalty>
0.0160742

> <r_epik_Ionization_Penalty_Charging>
0.0159586

> <r_epik_Ionization_Penalty_Neutral>
0.000115543

> <r_epik_State_Penalty>
0.0125702

> <r_epik_Charging_Adjusted_Penalty>
0.0285288

> <i_epik_Tot_Q>
1

> <i_epik_Tot_abs_Q>
1

> <r_epik_Metal_State_Penalty>
0.0881892

> <b_epik_Metal_Only>
0

> <s_lp_Force_Field>
OPLS_2005

> <r_lp_Energy>
19.8129

> <b_lp_Chiralities_Consistent>
1

> <s_lp_Variant>
AV-unprocessed.smi:3245-2

> <Gold.Version>
5.8.1

> <Gold.Id.Protein>
6NUR|6NUR_protein|mol2

> <Gold.PLP.Fitness>
43.8831

> <Gold.PLP.PLP>
-38.4865

> <Gold.PLP.part.hbond>
-3.2920

> <Gold.PLP.part.metal>
0.0000

> <Gold.PLP.part.buried>
-6.6156

> <Gold.PLP.part.nonpolar>
-28.3623

> <Gold.PLP.part.repulsive>
0.4703

> <Gold.PLP.ligand.clash>
0.0000

> <Gold.PLP.ligand.torsion>
1.2170

> <Gold.PLP.Chemscore.Hbond>
2.5920

> <Gold.PLP.Chemscore.CHOScore>
0.0000

> <Gold.PLP.Chemscore.Metal>
0.0000

> <Gold.Chemscore.Hbonds>
donor molecule, donor type, donor heavy atom, donor atom, acceptor molecule, acceptor atom, score
      L1  H     9    36       P1  8028  2.00
      P1  H  8011  8017       L1    14  0.59

> <Gold.PLP.Chemscore.Internal.Correction>
0.0546

> <Gold.Rescore>
     Score         DG    S(hbond)    S(metal)    S(lipo)     H(rot)  DE(clash)    DE(int)     intcor
      7.35      -9.72       0.92        0.00      69.87       2.74       0.04       2.32       ----

> <Gold.Chemscore.Fitness>
7.3521

> <Gold.Chemscore.DG>
-9.7167

> <Gold.Chemscore.ZeroCoef>
-5.4800

> <Gold.Chemscore.Hbond>
0.9185

> <Gold.Chemscore.Metal>
0.0000

> <Gold.Chemscore.Lipo>
69.8745

> <Gold.Chemscore.Internal_Hbond>
0.0000

> <Gold.Chemscore.DEClash>
0.0446

> <Gold.Chemscore.DEInternal>
2.3200

> <Gold.Chemscore.Rot>
2.7369

> <Gold.Chemscore.Internal.Correction>
   9.000000E+99

> <Gold.Chemscore.Hbonds>
donor molecule, donor type, donor heavy atom, donor atom, acceptor molecule, acceptor atom, score
      L1  H     9    36       P1  8028  0.40
      P1  H  8011  8017       L1    14  0.58

> <Gold.Chemscore.Hbond.Weighted>
-3.0679

> <Gold.Chemscore.Metal.Weighted>
-0.0000

> <Gold.Chemscore.Lipo.Weighted>
-8.1753

> <Gold.Chemscore.Internal_Hbond.Weighted>
0.0000

> <Gold.Chemscore.DEClash.Weighted>
0.0446

> <Gold.Chemscore.DEInternal.Weighted>
2.3200

> <Gold.Chemscore.Rot.Weighted>
7.0065

> <Gold.Chemscore.Internal.Correction.Weighted>
   9.000000E+99

> <Gold.Protein.RotatedTorsions>
[ 6907 6896 6895 6894 ] final   29.12 input  -60.11 | X-H torsion
[ 7974 7965 7964 7962 ] final   55.58 input  175.53 | X-H torsion
[ 8008 7997 7996 7995 ] final   70.52 input   59.86 | X-H torsion
[ 10167 10162 10161 10158 ] final   47.45 input  -65.29 | X-H torsion
[ 10718 10713 10712 10709 ] final -141.64 input   66.30 | X-H torsion
[ 10763 10752 10751 10750 ] final  -54.33 input  -60.55 | X-H torsion
[ 11005 11000 10999 10996 ] final  -92.73 input  -57.11 | X-H torsion

> <Gold.Protein.ActiveResidues>
 VAL166  LYS551  ARG553  GLY616  TRP617  ASP618  TYR619  PRO620  LYS621  CYS622 
 ASP623  PHE694  ASN695  SER759  ASP760  ASP761  ALA762  ILE779  LEU786  VAL792 
 PHE793  MET794  SER795  GLU796  ALA797  LYS798  CYS799  TRP800  GLU811  SER814 

> <Gold.Protein.RotatedAtoms>
  152.0269  134.9790  160.0571 H   0  0  0  0  0  0  0  0  0  0  0  0  # atno 6907 bound_to 6896
  152.1283  133.4388  159.4716 H   0  0  0  0  0  0  0  0  0  0  0  0  # atno 6908 bound_to 6896
  150.6854  134.2370  159.4500 H   0  0  0  0  0  0  0  0  0  0  0  0  # atno 6909 bound_to 6896
  145.9489  139.3954  143.0318 H   0  0  0  0  0  0  0  0  0  0  0  0  # atno 7974 bound_to 7965
  155.7400  140.3490  155.5100 H   0  0  0  0  0  0  0  0  0  0  0  0  # atno 8008 bound_to 7997
  155.9103  140.1049  157.1306 H   0  0  0  0  0  0  0  0  0  0  0  0  # atno 8009 bound_to 7997
  154.4055  140.1269  156.4535 H   0  0  0  0  0  0  0  0  0  0  0  0  # atno 8010 bound_to 7997
  140.3035  144.2906  150.6214 H   0  0  0  0  0  0  0  0  0  0  0  0  # atno 10167 bound_to 10162
  156.3364  130.7614  151.1741 H   0  0  0  0  0  0  0  0  0  0  0  0  # atno 10718 bound_to 10713
  154.1732  135.6455  153.5015 H   0  0  0  0  0  0  0  0  0  0  0  0  # atno 10763 bound_to 10752
  153.0079  135.5388  154.6591 H   0  0  0  0  0  0  0  0  0  0  0  0  # atno 10764 bound_to 10752
  154.5936  135.2936  155.0582 H   0  0  0  0  0  0  0  0  0  0  0  0  # atno 10765 bound_to 10752
  141.1515  133.7840  157.0061 H   0  0  0  0  0  0  0  0  0  0  0  0  # atno 11005 bound_to 11000
  145.8199  140.9684  143.0904 LP  0  0  0  0  0  0  0  0  0  0  0  0  # atno 17320 bound_to 7965
  144.6792  140.0028  143.7484 LP  0  0  0  0  0  0  0  0  0  0  0  0  # atno 17321 bound_to 7965
  140.5631  143.2189  151.7731 LP  0  0  0  0  0  0  0  0  0  0  0  0  # atno 17342 bound_to 10162
  139.4909  144.4322  151.9860 LP  0  0  0  0  0  0  0  0  0  0  0  0  # atno 17343 bound_to 10162
  157.7439  131.0467  150.4906 LP  0  0  0  0  0  0  0  0  0  0  0  0  # atno 17370 bound_to 10713
  156.5079  130.4132  149.6317 LP  0  0  0  0  0  0  0  0  0  0  0  0  # atno 17371 bound_to 10713
  140.0908  134.9593  157.1773 LP  0  0  0  0  0  0  0  0  0  0  0  0  # atno 17394 bound_to 11000
  140.3448  134.2664  155.7207 LP  0  0  0  0  0  0  0  0  0  0  0  0  # atno 17395 bound_to 11000

$$$$
