AV-unprocessed.smi:1809|AV-procd|sdf|7318|dock8
  -GOLD-   22720 8573D 1   1.00000     0.00000
 Structure written by MMmdl.
 39 41  0  0  0  0  0  0  0  0  1 V2000
  148.2015  129.2064  152.8103 C   0  0  0  0  0  0  0  0  0  0  0  0
  148.8298  130.4880  153.2401 C   0  0  0  0  0  0  0  0  0  0  0  0
  149.8001  130.5480  154.1605 N   0  0  0  0  0  0  0  0  0  0  0  0
  150.2292  131.8479  154.3888 N   0  0  0  0  0  0  0  0  0  0  0  0
  149.5683  132.7330  153.6299 C   0  0  0  0  0  0  0  0  0  0  0  0
  149.8071  134.1325  153.6599 N   0  0  0  0  0  0  0  0  0  0  0  0
  150.5252  134.8366  154.5525 C   0  0  0  0  0  0  0  0  0  0  0  0
  151.1124  134.3626  155.5252 O   0  0  0  0  0  0  0  0  0  0  0  0
  150.5282  136.1420  154.2474 N   0  0  0  0  0  0  0  0  0  0  0  0
  151.2439  137.1809  154.9810 C   0  0  0  0  0  0  0  0  0  0  0  0
  151.1067  138.5530  154.2883 C   0  0  1  0  0  0  0  0  0  0  0  0
  149.7587  139.2497  154.5930 C   0  0  0  0  0  0  0  0  0  0  0  0
  149.7575  139.8084  155.9318 N   0  0  0  0  0  0  0  0  0  0  0  0
  148.5930  140.5723  156.3163 C   0  0  0  0  0  0  0  0  0  0  0  0
  149.0451  141.3514  157.5632 C   0  0  0  0  0  0  0  0  0  0  0  0
  150.5869  141.3634  157.4711 C   0  0  0  0  0  0  0  0  0  0  0  0
  150.8521  140.7234  156.1068 C   0  0  1  0  0  0  0  0  0  0  0  0
  152.1931  140.0047  155.9124 C   0  0  0  0  0  0  0  0  0  0  0  0
  152.2068  139.4215  154.6050 O   0  0  0  0  0  0  0  0  0  0  0  0
  148.3529  132.0425  152.5681 S   0  0  0  0  0  0  0  0  0  0  0  0
  148.4933  128.3924  153.4748 H   0  0  0  0  0  0  0  0  0  0  0  0
  148.5164  128.9603  151.7962 H   0  0  0  0  0  0  0  0  0  0  0  0
  147.1155  129.2982  152.8280 H   0  0  0  0  0  0  0  0  0  0  0  0
  149.3888  134.6587  152.9073 H   0  0  0  0  0  0  0  0  0  0  0  0
  150.0153  136.4390  153.4303 H   0  0  0  0  0  0  0  0  0  0  0  0
  150.8040  137.2334  155.9771 H   0  0  0  0  0  0  0  0  0  0  0  0
  152.2903  136.9121  155.1317 H   0  0  0  0  0  0  0  0  0  0  0  0
  151.1478  138.3781  153.2126 H   0  0  0  0  0  0  0  0  0  0  0  0
  149.5977  140.0469  153.8658 H   0  0  0  0  0  0  0  0  0  0  0  0
  148.9305  138.5501  154.4759 H   0  0  0  0  0  0  0  0  0  0  0  0
  148.3207  141.2698  155.5223 H   0  0  0  0  0  0  0  0  0  0  0  0
  147.7349  139.9285  156.5108 H   0  0  0  0  0  0  0  0  0  0  0  0
  148.6261  142.3580  157.5719 H   0  0  0  0  0  0  0  0  0  0  0  0
  148.7247  140.8467  158.4754 H   0  0  0  0  0  0  0  0  0  0  0  0
  151.0047  142.3681  157.5416 H   0  0  0  0  0  0  0  0  0  0  0  0
  151.0156  140.7598  158.2723 H   0  0  0  0  0  0  0  0  0  0  0  0
  150.7783  141.5099  155.3524 H   0  0  0  0  0  0  0  0  0  0  0  0
  153.0225  140.7065  155.9993 H   0  0  0  0  0  0  0  0  0  0  0  0
  152.3400  139.2397  156.6747 H   0  0  0  0  0  0  0  0  0  0  0  0
  1  2  1  0  0  0  0
  1 21  1  0  0  0  0
  1 22  1  0  0  0  0
  1 23  1  0  0  0  0
  2 20  1  0  0  0  0
  2  3  2  0  0  0  0
  3  4  1  0  0  0  0
  4  5  2  0  0  0  0
  5  6  1  0  0  0  0
  5 20  1  0  0  0  0
  6  7  1  0  0  0  0
  6 24  1  0  0  0  0
  7  8  2  0  0  0  0
  7  9  1  0  0  0  0
  9 10  1  0  0  0  0
  9 25  1  0  0  0  0
 10 11  1  0  0  0  0
 10 26  1  0  0  0  0
 10 27  1  0  0  0  0
 11 19  1  0  0  0  0
 11 12  1  0  0  0  0
 11 28  1  0  0  0  0
 12 13  1  0  0  0  0
 12 29  1  0  0  0  0
 12 30  1  0  0  0  0
 13 17  1  0  0  0  0
 13 14  1  0  0  0  0
 14 15  1  0  0  0  0
 14 31  1  0  0  0  0
 14 32  1  0  0  0  0
 15 16  1  0  0  0  0
 15 33  1  0  0  0  0
 15 34  1  0  0  0  0
 16 17  1  0  0  0  0
 16 35  1  0  0  0  0
 16 36  1  0  0  0  0
 17 18  1  0  0  0  0
 17 37  1  0  0  0  0
 18 19  1  0  0  0  0
 18 38  1  0  0  0  0
 18 39  1  0  0  0  0
M  END
> <s_m_source_file>
AV-unprocessed.smi

> <i_m_source_file_index>
1809

> <i_lp_mmshare_version>
43012

> <i_f3d_flags>
0

> <s_epik_input>
W0NIM11jMW5uYyhzMSlbTkhdQyg9TylbTkhdW0NIMl1bQ0BIXShbQ0gyXTIpT1tDSDJdW0NAQEhdKE4yMylbQ0gyXVtDSDJdW0NIMl0z

> <s_epik_cmdline>
J2VwaWtfcHl0aG9uJywgJy1waCcsICc3LjAnLCAnLXRuJywgJzgnLCAnLW1hJywgJzIwMCcsICctbWV0YWxfYmluZGluZycsICctaW1hZScsICc8aW5maWxlLm1hZT4nLCAnLW9tYWUnLCAnPG91dGZpbGUubWFlPic=

> <r_lp_tautomer_probability>
1

> <r_epik_Ionization_Penalty>
1.05954

> <r_epik_Ionization_Penalty_Charging>
0

> <r_epik_Ionization_Penalty_Neutral>
1.05954

> <r_epik_State_Penalty>
1.4238

> <r_epik_Charging_Adjusted_Penalty>
1.4238

> <i_epik_Tot_Q>
0

> <i_epik_Tot_abs_Q>
0

> <r_epik_Metal_State_Penalty>
1.7901

> <b_epik_Metal_Only>
0

> <s_lp_Force_Field>
OPLS_2005

> <r_lp_Energy>
48.8115

> <b_lp_Chiralities_Consistent>
1

> <s_lp_Variant>
AV-unprocessed.smi:1809-10

> <Gold.Version>
5.8.1

> <Gold.Id.Protein>
6NUR|6NUR_protein|mol2

> <Gold.PLP.Fitness>
39.2627

> <Gold.PLP.PLP>
-31.2201

> <Gold.PLP.part.hbond>
-3.7217

> <Gold.PLP.part.metal>
0.0000

> <Gold.PLP.part.buried>
-3.8552

> <Gold.PLP.part.nonpolar>
-24.1517

> <Gold.PLP.part.repulsive>
0.2508

> <Gold.PLP.ligand.clash>
0.0000

> <Gold.PLP.ligand.torsion>
0.2786

> <Gold.PLP.Chemscore.Hbond>
2.8640

> <Gold.PLP.Chemscore.CHOScore>
0.0000

> <Gold.PLP.Chemscore.Metal>
0.0000

> <Gold.Chemscore.Hbonds>
donor molecule, donor type, donor heavy atom, donor atom, acceptor molecule, acceptor atom, score
      L1  H     6    24       P1  7948  0.05
      L1  H     9    25       P1  7948  0.70
      P1  H  7989  7998       L1    19  0.67

> <Gold.PLP.Chemscore.Internal.Correction>
0.0079

> <Gold.Rescore>
     Score         DG    S(hbond)    S(metal)    S(lipo)     H(rot)  DE(clash)    DE(int)     intcor
     13.92     -15.37       2.13        0.00      52.51       1.32       0.01       1.44       ----

> <Gold.Chemscore.Fitness>
13.9214

> <Gold.Chemscore.DG>
-15.3727

> <Gold.Chemscore.ZeroCoef>
-5.4800

> <Gold.Chemscore.Hbond>
2.1340

> <Gold.Chemscore.Metal>
0.0000

> <Gold.Chemscore.Lipo>
52.5068

> <Gold.Chemscore.Internal_Hbond>
0.0000

> <Gold.Chemscore.DEClash>
0.0098

> <Gold.Chemscore.DEInternal>
1.4415

> <Gold.Chemscore.Rot>
1.3196

> <Gold.Chemscore.Internal.Correction>
   9.000000E+99

> <Gold.Chemscore.Hbonds>
donor molecule, donor type, donor heavy atom, donor atom, acceptor molecule, acceptor atom, score
      L1  H     9    25       P1  7948  0.07
      P1  H  7989  7998       L1    19  0.05

> <Gold.Chemscore.Hbond.Weighted>
-7.1277

> <Gold.Chemscore.Metal.Weighted>
-0.0000

> <Gold.Chemscore.Lipo.Weighted>
-6.1433

> <Gold.Chemscore.Internal_Hbond.Weighted>
0.0000

> <Gold.Chemscore.DEClash.Weighted>
0.0098

> <Gold.Chemscore.DEInternal.Weighted>
1.4415

> <Gold.Chemscore.Rot.Weighted>
3.3783

> <Gold.Chemscore.Internal.Correction.Weighted>
   9.000000E+99

> <Gold.Protein.RotatedTorsions>
[ 6907 6896 6895 6894 ] final  133.94 input  -60.11 | X-H torsion
[ 7974 7965 7964 7962 ] final  -93.91 input  175.53 | X-H torsion
[ 8008 7997 7996 7995 ] final -166.77 input   59.86 | X-H torsion
[ 10167 10162 10161 10158 ] final   77.74 input  -65.29 | X-H torsion
[ 10718 10713 10712 10709 ] final  142.86 input   66.30 | X-H torsion
[ 10763 10752 10751 10750 ] final   52.26 input  -60.55 | X-H torsion
[ 11005 11000 10999 10996 ] final  178.84 input  -57.11 | X-H torsion

> <Gold.Protein.ActiveResidues>
 VAL166  LYS551  ARG553  GLY616  TRP617  ASP618  TYR619  PRO620  LYS621  CYS622 
 ASP623  PHE694  ASN695  SER759  ASP760  ASP761  ALA762  ILE779  LEU786  VAL792 
 PHE793  MET794  SER795  GLU796  ALA797  LYS798  CYS799  TRP800  GLU811  SER814 

> <Gold.Protein.RotatedAtoms>
  152.3166  133.5809  159.5715 H   0  0  0  0  0  0  0  0  0  0  0  0  # atno 6907 bound_to 6896
  150.7349  134.0074  159.3667 H   0  0  0  0  0  0  0  0  0  0  0  0  # atno 6908 bound_to 6896
  151.7962  135.0722  160.0445 H   0  0  0  0  0  0  0  0  0  0  0  0  # atno 6909 bound_to 6896
  145.3803  140.9516  143.2397 H   0  0  0  0  0  0  0  0  0  0  0  0  # atno 7974 bound_to 7965
  155.8684  140.0989  157.1567 H   0  0  0  0  0  0  0  0  0  0  0  0  # atno 8008 bound_to 7997
  154.3995  140.1352  156.4110 H   0  0  0  0  0  0  0  0  0  0  0  0  # atno 8009 bound_to 7997
  155.7778  140.3459  155.5283 H   0  0  0  0  0  0  0  0  0  0  0  0  # atno 8010 bound_to 7997
  139.9783  144.5844  150.7923 H   0  0  0  0  0  0  0  0  0  0  0  0  # atno 10167 bound_to 10162
  157.3757  131.0985  151.0787 H   0  0  0  0  0  0  0  0  0  0  0  0  # atno 10718 bound_to 10713
  152.9788  135.5818  154.4549 H   0  0  0  0  0  0  0  0  0  0  0  0  # atno 10763 bound_to 10752
  154.4133  135.2770  155.2025 H   0  0  0  0  0  0  0  0  0  0  0  0  # atno 10764 bound_to 10752
  154.3805  135.6147  153.5842 H   0  0  0  0  0  0  0  0  0  0  0  0  # atno 10765 bound_to 10752
  140.3996  134.6790  157.4554 H   0  0  0  0  0  0  0  0  0  0  0  0  # atno 11005 bound_to 11000
  144.8512  139.5318  143.6855 LP  0  0  0  0  0  0  0  0  0  0  0  0  # atno 17320 bound_to 7965
  146.2845  139.6967  142.9205 LP  0  0  0  0  0  0  0  0  0  0  0  0  # atno 17321 bound_to 7965
  140.7498  143.2944  151.3243 LP  0  0  0  0  0  0  0  0  0  0  0  0  # atno 17342 bound_to 10162
  139.6429  144.0506  152.2568 LP  0  0  0  0  0  0  0  0  0  0  0  0  # atno 17343 bound_to 10162
  157.1874  130.6336  149.5692 LP  0  0  0  0  0  0  0  0  0  0  0  0  # atno 17370 bound_to 10713
  155.9765  130.4733  150.6530 LP  0  0  0  0  0  0  0  0  0  0  0  0  # atno 17371 bound_to 10713
  140.0346  134.6355  155.9060 LP  0  0  0  0  0  0  0  0  0  0  0  0  # atno 17394 bound_to 11000
  141.1862  133.6556  156.5228 LP  0  0  0  0  0  0  0  0  0  0  0  0  # atno 17395 bound_to 11000

$$$$
