AV-unprocessed.smi:1645|AV-procd|sdf|6601|dock3
  -GOLD-   22720 7303D 1   1.00000     0.00000
 Structure written by MMmdl.
 55 58  0  0  0  0  0  0  0  0  2 V2000
  146.7763  137.7147  155.4238 O   0  0  0  0  0  0  0  0  0  0  0  0
  147.4366  137.4762  154.4137 C   0  0  0  0  0  0  0  0  0  0  0  0
  148.6638  137.9547  154.1463 N   0  0  0  0  0  0  0  0  0  0  0  0
  149.4789  138.8290  154.9173 C   0  0  0  0  0  0  0  0  0  0  0  0
  150.8719  139.0068  154.7431 C   0  0  0  0  0  0  0  0  0  0  0  0
  151.5546  139.9111  155.5789 C   0  0  0  0  0  0  0  0  0  0  0  0
  150.8343  140.6252  156.5648 C   0  0  0  0  0  0  0  0  0  0  0  0
  151.5011  141.5350  157.4146 N   0  0  0  0  0  0  0  0  0  0  0  0
  151.9124  141.0567  158.7374 C   0  0  0  0  0  0  0  0  0  0  0  0
  152.9525  141.9964  159.3706 C   0  0  0  0  0  0  0  0  0  0  0  0
  152.4421  143.4441  159.4002 C   0  0  0  0  0  0  0  0  0  0  0  0
  152.0359  143.8857  157.9866 C   0  0  0  0  0  0  0  0  0  0  0  0
  151.0106  142.9147  157.3762 C   0  0  0  0  0  0  0  0  0  0  0  0
  149.4993  140.4558  156.7255 N   0  0  0  0  0  0  0  0  0  0  0  0
  148.8489  139.5880  155.9232 C   0  0  0  0  0  0  0  0  0  0  0  0
  147.0012  136.6844  153.4229 N   0  0  0  0  0  0  0  0  0  0  0  0
  145.6974  136.0238  153.3848 C   0  0  1  0  0  0  0  0  0  0  0  0
  144.7077  136.6946  152.4136 C   0  0  0  0  0  0  0  0  0  0  0  0
  143.9609  135.5278  151.7595 C   0  0  0  0  0  0  0  0  0  0  0  0
  144.9894  134.4841  151.6870 N   0  3  2  0  0  0  0  0  0  0  0  0
  144.5829  133.1116  151.3247 C   0  0  0  0  0  0  0  0  0  0  0  0
  145.8588  132.2662  151.1231 C   0  0  0  0  0  0  0  0  0  0  0  0
  146.8154  132.3517  152.3345 C   0  0  0  0  0  0  0  0  0  0  0  0
  147.0924  133.8136  152.7494 C   0  0  0  0  0  0  0  0  0  0  0  0
  145.7498  134.5401  152.9475 C   0  0  1  0  0  0  0  0  0  0  0  0
  149.0541  137.6883  153.2541 H   0  0  0  0  0  0  0  0  0  0  0  0
  151.4361  138.4787  153.9916 H   0  0  0  0  0  0  0  0  0  0  0  0
  152.6209  140.0349  155.4629 H   0  0  0  0  0  0  0  0  0  0  0  0
  151.0335  140.9860  159.3797 H   0  0  0  0  0  0  0  0  0  0  0  0
  152.3388  140.0556  158.6623 H   0  0  0  0  0  0  0  0  0  0  0  0
  153.1908  141.6617  160.3804 H   0  0  0  0  0  0  0  0  0  0  0  0
  153.8814  141.9485  158.8006 H   0  0  0  0  0  0  0  0  0  0  0  0
  151.5849  143.5188  160.0704 H   0  0  0  0  0  0  0  0  0  0  0  0
  153.2107  144.1075  159.7975 H   0  0  0  0  0  0  0  0  0  0  0  0
  151.6233  144.8946  158.0139 H   0  0  0  0  0  0  0  0  0  0  0  0
  152.9202  143.9296  157.3495 H   0  0  0  0  0  0  0  0  0  0  0  0
  150.7821  143.2371  156.3614 H   0  0  0  0  0  0  0  0  0  0  0  0
  150.0754  142.9645  157.9352 H   0  0  0  0  0  0  0  0  0  0  0  0
  147.7866  139.4947  156.0950 H   0  0  0  0  0  0  0  0  0  0  0  0
  147.6078  136.5436  152.6282 H   0  0  0  0  0  0  0  0  0  0  0  0
  145.2558  136.0669  154.3825 H   0  0  0  0  0  0  0  0  0  0  0  0
  144.0352  137.3930  152.9130 H   0  0  0  0  0  0  0  0  0  0  0  0
  145.2486  137.2499  151.6455 H   0  0  0  0  0  0  0  0  0  0  0  0
  143.1384  135.1928  152.3935 H   0  0  0  0  0  0  0  0  0  0  0  0
  143.5630  135.7791  150.7761 H   0  0  0  0  0  0  0  0  0  0  0  0
  143.9519  132.6863  152.1066 H   0  0  0  0  0  0  0  0  0  0  0  0
  143.9944  133.1304  150.4069 H   0  0  0  0  0  0  0  0  0  0  0  0
  145.5922  131.2268  150.9294 H   0  0  0  0  0  0  0  0  0  0  0  0
  146.3821  132.6182  150.2329 H   0  0  0  0  0  0  0  0  0  0  0  0
  146.3728  131.8178  153.1765 H   0  0  0  0  0  0  0  0  0  0  0  0
  147.7527  131.8425  152.1084 H   0  0  0  0  0  0  0  0  0  0  0  0
  147.6765  133.8281  153.6699 H   0  0  0  0  0  0  0  0  0  0  0  0
  147.6880  134.3143  151.9847 H   0  0  0  0  0  0  0  0  0  0  0  0
  145.1814  133.9847  153.6969 H   0  0  0  0  0  0  0  0  0  0  0  0
  145.6277  134.7900  150.9666 H   0  0  0  0  0  0  0  0  0  0  0  0
  1  2  2  0  0  0  0
  2  3  1  0  0  0  0
  2 16  1  0  0  0  0
  3  4  1  0  0  0  0
  3 26  1  0  0  0  0
  4 15  1  0  0  0  0
  4  5  2  0  0  0  0
  5  6  1  0  0  0  0
  5 27  1  0  0  0  0
  6  7  2  0  0  0  0
  6 28  1  0  0  0  0
  7  8  1  0  0  0  0
  7 14  1  0  0  0  0
  8 13  1  0  0  0  0
  8  9  1  0  0  0  0
  9 10  1  0  0  0  0
  9 29  1  0  0  0  0
  9 30  1  0  0  0  0
 10 11  1  0  0  0  0
 10 31  1  0  0  0  0
 10 32  1  0  0  0  0
 11 12  1  0  0  0  0
 11 33  1  0  0  0  0
 11 34  1  0  0  0  0
 12 13  1  0  0  0  0
 12 35  1  0  0  0  0
 12 36  1  0  0  0  0
 13 37  1  0  0  0  0
 13 38  1  0  0  0  0
 14 15  2  0  0  0  0
 15 39  1  0  0  0  0
 16 17  1  0  0  0  0
 16 40  1  0  0  0  0
 17 25  1  0  0  0  0
 17 18  1  0  0  0  0
 17 41  1  0  0  0  0
 18 19  1  0  0  0  0
 18 42  1  0  0  0  0
 18 43  1  0  0  0  0
 19 20  1  0  0  0  0
 19 44  1  0  0  0  0
 19 45  1  0  0  0  0
 20 25  1  0  0  0  0
 20 21  1  0  0  0  0
 20 55  1  0  0  0  0
 21 22  1  0  0  0  0
 21 46  1  0  0  0  0
 21 47  1  0  0  0  0
 22 23  1  0  0  0  0
 22 48  1  0  0  0  0
 22 49  1  0  0  0  0
 23 24  1  0  0  0  0
 23 50  1  0  0  0  0
 23 51  1  0  0  0  0
 24 25  1  0  0  0  0
 24 52  1  0  0  0  0
 24 53  1  0  0  0  0
 25 54  1  0  0  0  0
M  CHG  1  20   1
M  END
> <s_m_source_file>
AV-unprocessed.smi

> <i_m_source_file_index>
1645

> <i_lp_mmshare_version>
43012

> <i_f3d_flags>
0

> <s_epik_input>
W0NIMl0xW0NIMl1bQ0gyXVtDSDJdW0NASF0oTjEyKVtDQEBIXShbQ0gyXVtDSDJdMilbTkhdQyg9TylbTkhdYzNbY0hdW2NIXWMobltjSF0zKU40W0NIMl1bQ0gyXVtDSDJdW0NIMl1bQ0gyXTQ=

> <s_epik_cmdline>
J2VwaWtfcHl0aG9uJywgJy1waCcsICc3LjAnLCAnLXRuJywgJzgnLCAnLW1hJywgJzIwMCcsICctbWV0YWxfYmluZGluZycsICctaW1hZScsICc8aW5maWxlLm1hZT4nLCAnLW9tYWUnLCAnPG91dGZpbGUubWFlPic=

> <r_lp_tautomer_probability>
1

> <r_epik_Ionization_Penalty>
0.0808019

> <r_epik_Ionization_Penalty_Charging>
0.000974069

> <r_epik_Ionization_Penalty_Neutral>
0.0798278

> <r_epik_State_Penalty>
0.0653665

> <r_epik_Charging_Adjusted_Penalty>
0.0663406

> <i_epik_Tot_Q>
1

> <i_epik_Tot_abs_Q>
1

> <r_epik_Metal_State_Penalty>
0.0585673

> <b_epik_Metal_Only>
0

> <s_lp_Force_Field>
OPLS_2005

> <r_lp_Energy>
56.9849

> <b_lp_Chiralities_Consistent>
1

> <s_lp_Variant>
AV-unprocessed.smi:1645-2

> <Gold.Version>
5.8.1

> <Gold.Id.Protein>
6NUR|6NUR_protein|mol2

> <Gold.PLP.Fitness>
46.2972

> <Gold.PLP.PLP>
-41.5036

> <Gold.PLP.part.hbond>
-2.0000

> <Gold.PLP.part.metal>
0.0000

> <Gold.PLP.part.buried>
-3.9585

> <Gold.PLP.part.nonpolar>
-36.1246

> <Gold.PLP.part.repulsive>
0.0842

> <Gold.PLP.ligand.clash>
0.0000

> <Gold.PLP.ligand.torsion>
0.5943

> <Gold.PLP.Chemscore.Hbond>
1.8480

> <Gold.PLP.Chemscore.CHOScore>
0.0000

> <Gold.PLP.Chemscore.Metal>
0.0000

> <Gold.Chemscore.Hbonds>
donor molecule, donor type, donor heavy atom, donor atom, acceptor molecule, acceptor atom, score
      L1  H     3    26       P1  7948  0.85
      L1  H    16    40       P1  7948  1.00

> <Gold.PLP.Chemscore.Internal.Correction>
0.4382

> <Gold.Rescore>
     Score         DG    S(hbond)    S(metal)    S(lipo)     H(rot)  DE(clash)    DE(int)     intcor
     19.86     -21.93       1.80        0.00     114.77       1.17       0.07       2.00       ----

> <Gold.Chemscore.Fitness>
19.8608

> <Gold.Chemscore.DG>
-21.9327

> <Gold.Chemscore.ZeroCoef>
-5.4800

> <Gold.Chemscore.Hbond>
1.8049

> <Gold.Chemscore.Metal>
0.0000

> <Gold.Chemscore.Lipo>
114.7667

> <Gold.Chemscore.Internal_Hbond>
0.0000

> <Gold.Chemscore.DEClash>
0.0706

> <Gold.Chemscore.DEInternal>
2.0014

> <Gold.Chemscore.Rot>
1.1731

> <Gold.Chemscore.Internal.Correction>
   9.000000E+99

> <Gold.Chemscore.Hbonds>
donor molecule, donor type, donor heavy atom, donor atom, acceptor molecule, acceptor atom, score
      L1  H     3    26       P1  7948  0.82
      L1  H    16    40       P1  7948  0.97

> <Gold.Chemscore.Hbond.Weighted>
-6.0283

> <Gold.Chemscore.Metal.Weighted>
-0.0000

> <Gold.Chemscore.Lipo.Weighted>
-13.4277

> <Gold.Chemscore.Internal_Hbond.Weighted>
0.0000

> <Gold.Chemscore.DEClash.Weighted>
0.0706

> <Gold.Chemscore.DEInternal.Weighted>
2.0014

> <Gold.Chemscore.Rot.Weighted>
3.0032

> <Gold.Chemscore.Internal.Correction.Weighted>
   9.000000E+99

> <Gold.Protein.RotatedTorsions>
[ 6907 6896 6895 6894 ] final   84.93 input  -60.11 | X-H torsion
[ 7974 7965 7964 7962 ] final  -46.44 input  175.53 | X-H torsion
[ 8008 7997 7996 7995 ] final  -77.33 input   59.86 | X-H torsion
[ 10167 10162 10161 10158 ] final   30.52 input  -65.29 | X-H torsion
[ 10718 10713 10712 10709 ] final   60.14 input   66.30 | X-H torsion
[ 10763 10752 10751 10750 ] final   51.60 input  -60.55 | X-H torsion
[ 11005 11000 10999 10996 ] final -115.21 input  -57.11 | X-H torsion

> <Gold.Protein.ActiveResidues>
 VAL166  LYS551  ARG553  GLY616  TRP617  ASP618  TYR619  PRO620  LYS621  CYS622 
 ASP623  PHE694  ASN695  SER759  ASP760  ASP761  ALA762  ILE779  LEU786  VAL792 
 PHE793  MET794  SER795  GLU796  ALA797  LYS798  CYS799  TRP800  GLU811  SER814 

> <Gold.Protein.RotatedAtoms>
  152.5363  134.2665  159.8954 H   0  0  0  0  0  0  0  0  0  0  0  0  # atno 6907 bound_to 6896
  151.2623  133.4289  159.2624 H   0  0  0  0  0  0  0  0  0  0  0  0  # atno 6908 bound_to 6896
  151.0442  134.9643  159.8234 H   0  0  0  0  0  0  0  0  0  0  0  0  # atno 6909 bound_to 6896
  145.9719  140.7374  142.9406 H   0  0  0  0  0  0  0  0  0  0  0  0  # atno 7974 bound_to 7965
  154.5586  140.0712  156.8783 H   0  0  0  0  0  0  0  0  0  0  0  0  # atno 8008 bound_to 7997
  155.2854  140.3374  155.4237 H   0  0  0  0  0  0  0  0  0  0  0  0  # atno 8009 bound_to 7997
  156.2023  140.1726  156.7858 H   0  0  0  0  0  0  0  0  0  0  0  0  # atno 8010 bound_to 7997
  140.4671  144.0819  150.6227 H   0  0  0  0  0  0  0  0  0  0  0  0  # atno 10167 bound_to 10162
  157.5730  130.8922  149.9299 H   0  0  0  0  0  0  0  0  0  0  0  0  # atno 10718 bound_to 10713
  152.9786  135.5840  154.4442 H   0  0  0  0  0  0  0  0  0  0  0  0  # atno 10763 bound_to 10752
  154.4039  135.2769  155.2081 H   0  0  0  0  0  0  0  0  0  0  0  0  # atno 10764 bound_to 10752
  154.3900  135.6127  153.5892 H   0  0  0  0  0  0  0  0  0  0  0  0  # atno 10765 bound_to 10752
  141.0502  133.9699  157.2849 H   0  0  0  0  0  0  0  0  0  0  0  0  # atno 11005 bound_to 11000
  144.6839  140.2763  143.7298 LP  0  0  0  0  0  0  0  0  0  0  0  0  # atno 17320 bound_to 7965
  145.7894  139.1921  143.2112 LP  0  0  0  0  0  0  0  0  0  0  0  0  # atno 17321 bound_to 7965
  140.4023  143.2698  151.9933 LP  0  0  0  0  0  0  0  0  0  0  0  0  # atno 17342 bound_to 10162
  139.4813  144.5987  151.7644 LP  0  0  0  0  0  0  0  0  0  0  0  0  # atno 17343 bound_to 10162
  156.0775  130.3677  150.0648 LP  0  0  0  0  0  0  0  0  0  0  0  0  # atno 17370 bound_to 10713
  156.8798  130.9552  151.3600 LP  0  0  0  0  0  0  0  0  0  0  0  0  # atno 17371 bound_to 10713
  139.9344  135.0197  156.8508 LP  0  0  0  0  0  0  0  0  0  0  0  0  # atno 17394 bound_to 11000
  140.6069  134.0119  155.7560 LP  0  0  0  0  0  0  0  0  0  0  0  0  # atno 17395 bound_to 11000

$$$$
