AV-unprocessed.smi:1809|AV-procd|sdf|7321|dock9
  -GOLD-   22720 8573D 1   1.00000     0.00000
 Structure written by MMmdl.
 39 41  0  0  0  0  0  0  0  0  3 V2000
  155.8123  139.8027  163.1715 C   0  0  0  0  0  0  0  0  0  0  0  0
  155.4135  139.8967  161.7387 C   0  0  0  0  0  0  0  0  0  0  0  0
  156.1353  140.5576  160.8305 N   0  0  0  0  0  0  0  0  0  0  0  0
  155.5645  140.5011  159.5673 N   0  0  0  0  0  0  0  0  0  0  0  0
  154.4279  139.7914  159.5348 C   0  0  0  0  0  0  0  0  0  0  0  0
  153.7198  139.6197  158.4060 N   0  5  0  0  0  0  0  0  0  0  0  0
  152.4121  139.2838  158.4722 C   0  0  0  0  0  0  0  0  0  0  0  0
  151.9409  138.2786  159.0094 O   0  0  0  0  0  0  0  0  0  0  0  0
  151.5975  140.1708  157.8840 N   0  0  0  0  0  0  0  0  0  0  0  0
  150.1434  140.0752  157.8158 C   0  0  0  0  0  0  0  0  0  0  0  0
  149.5558  141.0729  156.8034 C   0  0  2  0  0  0  0  0  0  0  0  0
  148.0782  141.4070  157.1136 C   0  0  0  0  0  0  0  0  0  0  0  0
  147.5712  142.2810  156.0402 N   0  3  2  0  0  0  0  0  0  0  0  0
  146.1815  142.7606  156.1247 C   0  0  0  0  0  0  0  0  0  0  0  0
  145.7932  143.0971  154.6708 C   0  0  0  0  0  0  0  0  0  0  0  0
  146.9628  142.6019  153.7997 C   0  0  0  0  0  0  0  0  0  0  0  0
  147.7034  141.6443  154.7280 C   0  0  1  0  0  0  0  0  0  0  0  0
  149.1872  141.3668  154.4541 C   0  0  0  0  0  0  0  0  0  0  0  0
  149.6608  140.5066  155.4913 O   0  0  0  0  0  0  0  0  0  0  0  0
  153.9596  139.1425  161.1065 S   0  0  0  0  0  0  0  0  0  0  0  0
  156.5818  139.0404  163.2938 H   0  0  0  0  0  0  0  0  0  0  0  0
  154.9530  139.5362  163.7869 H   0  0  0  0  0  0  0  0  0  0  0  0
  156.2058  140.7585  163.5183 H   0  0  0  0  0  0  0  0  0  0  0  0
  152.0245  140.9784  157.4540 H   0  0  0  0  0  0  0  0  0  0  0  0
  149.8778  139.0553  157.5365 H   0  0  0  0  0  0  0  0  0  0  0  0
  149.7201  140.2443  158.8074 H   0  0  0  0  0  0  0  0  0  0  0  0
  150.1348  141.9978  156.8308 H   0  0  0  0  0  0  0  0  0  0  0  0
  147.4787  140.4972  157.1711 H   0  0  0  0  0  0  0  0  0  0  0  0
  147.9930  141.9171  158.0736 H   0  0  0  0  0  0  0  0  0  0  0  0
  145.5371  141.9697  156.5118 H   0  0  0  0  0  0  0  0  0  0  0  0
  146.1036  143.6206  156.7903 H   0  0  0  0  0  0  0  0  0  0  0  0
  144.8658  142.5896  154.4024 H   0  0  0  0  0  0  0  0  0  0  0  0
  145.6331  144.1672  154.5337 H   0  0  0  0  0  0  0  0  0  0  0  0
  146.6315  142.1231  152.8776 H   0  0  0  0  0  0  0  0  0  0  0  0
  147.6070  143.4406  153.5313 H   0  0  0  0  0  0  0  0  0  0  0  0
  147.1622  140.6954  154.7446 H   0  0  0  0  0  0  0  0  0  0  0  0
  149.3137  140.8723  153.4910 H   0  0  0  0  0  0  0  0  0  0  0  0
  149.7703  142.2888  154.4284 H   0  0  0  0  0  0  0  0  0  0  0  0
  148.1586  143.1028  156.0199 H   0  0  0  0  0  0  0  0  0  0  0  0
  1  2  1  0  0  0  0
  1 21  1  0  0  0  0
  1 22  1  0  0  0  0
  1 23  1  0  0  0  0
  2 20  1  0  0  0  0
  2  3  2  0  0  0  0
  3  4  1  0  0  0  0
  4  5  2  0  0  0  0
  5  6  1  0  0  0  0
  5 20  1  0  0  0  0
  6  7  1  0  0  0  0
  7  8  2  0  0  0  0
  7  9  1  0  0  0  0
  9 10  1  0  0  0  0
  9 24  1  0  0  0  0
 10 11  1  0  0  0  0
 10 25  1  0  0  0  0
 10 26  1  0  0  0  0
 11 19  1  0  0  0  0
 11 12  1  0  0  0  0
 11 27  1  0  0  0  0
 12 13  1  0  0  0  0
 12 28  1  0  0  0  0
 12 29  1  0  0  0  0
 13 17  1  0  0  0  0
 13 14  1  0  0  0  0
 13 39  1  0  0  0  0
 14 15  1  0  0  0  0
 14 30  1  0  0  0  0
 14 31  1  0  0  0  0
 15 16  1  0  0  0  0
 15 32  1  0  0  0  0
 15 33  1  0  0  0  0
 16 17  1  0  0  0  0
 16 34  1  0  0  0  0
 16 35  1  0  0  0  0
 17 18  1  0  0  0  0
 17 36  1  0  0  0  0
 18 19  1  0  0  0  0
 18 37  1  0  0  0  0
 18 38  1  0  0  0  0
M  CHG  1   6  -1
M  CHG  1  13   1
M  END
> <s_m_source_file>
AV-unprocessed.smi

> <i_m_source_file_index>
1809

> <i_lp_mmshare_version>
43012

> <i_f3d_flags>
0

> <s_epik_input>
W0NIM11jMW5uYyhzMSlbTkhdQyg9TylbTkhdW0NIMl1bQ0BIXShbQ0gyXTIpT1tDSDJdW0NAQEhdKE4yMylbQ0gyXVtDSDJdW0NIMl0z

> <s_epik_cmdline>
J2VwaWtfcHl0aG9uJywgJy1waCcsICc3LjAnLCAnLXRuJywgJzgnLCAnLW1hJywgJzIwMCcsICctbWV0YWxfYmluZGluZycsICctaW1hZScsICc8aW5maWxlLm1hZT4nLCAnLW9tYWUnLCAnPG91dGZpbGUubWFlPic=

> <r_lp_tautomer_probability>
1

> <r_epik_Ionization_Penalty>
3.2601

> <r_epik_Ionization_Penalty_Charging>
3.1406

> <r_epik_Ionization_Penalty_Neutral>
0.119497

> <r_epik_State_Penalty>
3.08894

> <r_epik_Charging_Adjusted_Penalty>
6.22954

> <i_epik_Tot_Q>
0

> <i_epik_Tot_abs_Q>
2

> <r_epik_Metal_State_Penalty>
0.510807

> <b_epik_Metal_Only>
1

> <s_lp_Force_Field>
OPLS_2005

> <r_lp_Energy>
28.6606

> <b_lp_Chiralities_Consistent>
1

> <s_lp_Variant>
AV-unprocessed.smi:1809-13

> <Gold.Version>
5.8.1

> <Gold.Id.Protein>
6NUR|6NUR_protein|mol2

> <Gold.PLP.Fitness>
38.9015

> <Gold.PLP.PLP>
-28.8081

> <Gold.PLP.part.hbond>
-3.7262

> <Gold.PLP.part.metal>
0.0000

> <Gold.PLP.part.buried>
-3.5207

> <Gold.PLP.part.nonpolar>
-20.1604

> <Gold.PLP.part.repulsive>
0.1769

> <Gold.PLP.ligand.clash>
0.0000

> <Gold.PLP.ligand.torsion>
0.9584

> <Gold.PLP.Chemscore.Hbond>
4.0000

> <Gold.PLP.Chemscore.CHOScore>
0.0000

> <Gold.PLP.Chemscore.Metal>
0.0000

> <Gold.Chemscore.Hbonds>
donor molecule, donor type, donor heavy atom, donor atom, acceptor molecule, acceptor atom, score
      L1  H    13    39       P1  8028  2.00
      P1  H  7997  8009       L1     6  1.90

> <Gold.PLP.Chemscore.Internal.Correction>
0.0103

> <Gold.Rescore>
     Score         DG    S(hbond)    S(metal)    S(lipo)     H(rot)  DE(clash)    DE(int)     intcor
     12.56     -14.98       1.80        0.00      58.72       1.32       1.46       0.95       ----

> <Gold.Chemscore.Fitness>
12.5618

> <Gold.Chemscore.DG>
-14.9764

> <Gold.Chemscore.ZeroCoef>
-5.4800

> <Gold.Chemscore.Hbond>
1.8015

> <Gold.Chemscore.Metal>
0.0000

> <Gold.Chemscore.Lipo>
58.7202

> <Gold.Chemscore.Internal_Hbond>
0.0000

> <Gold.Chemscore.DEClash>
1.4620

> <Gold.Chemscore.DEInternal>
0.9526

> <Gold.Chemscore.Rot>
1.3246

> <Gold.Chemscore.Internal.Correction>
   9.000000E+99

> <Gold.Chemscore.Hbonds>
donor molecule, donor type, donor heavy atom, donor atom, acceptor molecule, acceptor atom, score
      L1  H    13    39       P1  8028  0.70
      P1  H  7997  8009       L1     6  0.21

> <Gold.Chemscore.Hbond.Weighted>
-6.0171

> <Gold.Chemscore.Metal.Weighted>
-0.0000

> <Gold.Chemscore.Lipo.Weighted>
-6.8703

> <Gold.Chemscore.Internal_Hbond.Weighted>
0.0000

> <Gold.Chemscore.DEClash.Weighted>
1.4620

> <Gold.Chemscore.DEInternal.Weighted>
0.9526

> <Gold.Chemscore.Rot.Weighted>
3.3910

> <Gold.Chemscore.Internal.Correction.Weighted>
   9.000000E+99

> <Gold.Protein.RotatedTorsions>
[ 6907 6896 6895 6894 ] final -146.54 input  -60.11 | X-H torsion
[ 7974 7965 7964 7962 ] final   18.73 input  175.53 | X-H torsion
[ 8008 7997 7996 7995 ] final  129.33 input   59.86 | X-H torsion
[ 10167 10162 10161 10158 ] final   71.33 input  -65.29 | X-H torsion
[ 10718 10713 10712 10709 ] final   52.14 input   66.30 | X-H torsion
[ 10763 10752 10751 10750 ] final   80.32 input  -60.55 | X-H torsion
[ 11005 11000 10999 10996 ] final  129.93 input  -57.11 | X-H torsion

> <Gold.Protein.ActiveResidues>
 VAL166  LYS551  ARG553  GLY616  TRP617  ASP618  TYR619  PRO620  LYS621  CYS622 
 ASP623  PHE694  ASN695  SER759  ASP760  ASP761  ALA762  ILE779  LEU786  VAL792 
 PHE793  MET794  SER795  GLU796  ALA797  LYS798  CYS799  TRP800  GLU811  SER814 

> <Gold.Protein.RotatedAtoms>
  151.1430  133.4958  159.2596 H   0  0  0  0  0  0  0  0  0  0  0  0  # atno 6907 bound_to 6896
  151.1634  135.0284  159.8730 H   0  0  0  0  0  0  0  0  0  0  0  0  # atno 6908 bound_to 6896
  152.5462  134.1301  159.8489 H   0  0  0  0  0  0  0  0  0  0  0  0  # atno 6909 bound_to 6896
  146.2174  139.8414  142.8640 H   0  0  0  0  0  0  0  0  0  0  0  0  # atno 7974 bound_to 7965
  156.2934  140.2623  156.2581 H   0  0  0  0  0  0  0  0  0  0  0  0  # atno 8008 bound_to 7997
  154.9816  140.0389  157.2298 H   0  0  0  0  0  0  0  0  0  0  0  0  # atno 8009 bound_to 7997
  154.7767  140.2788  155.6100 H   0  0  0  0  0  0  0  0  0  0  0  0  # atno 8010 bound_to 7997
  140.0473  144.5341  150.7389 H   0  0  0  0  0  0  0  0  0  0  0  0  # atno 10167 bound_to 10162
  157.5047  130.8461  149.8360 H   0  0  0  0  0  0  0  0  0  0  0  0  # atno 10718 bound_to 10713
  153.1024  135.4807  154.8891 H   0  0  0  0  0  0  0  0  0  0  0  0  # atno 10763 bound_to 10752
  154.7393  135.3078  154.8758 H   0  0  0  0  0  0  0  0  0  0  0  0  # atno 10764 bound_to 10752
  153.9371  135.6838  153.4798 H   0  0  0  0  0  0  0  0  0  0  0  0  # atno 10765 bound_to 10752
  139.9643  134.9594  156.9220 H   0  0  0  0  0  0  0  0  0  0  0  0  # atno 11005 bound_to 11000
  145.2895  141.0163  143.3671 LP  0  0  0  0  0  0  0  0  0  0  0  0  # atno 17320 bound_to 7965
  144.9088  139.4555  143.6597 LP  0  0  0  0  0  0  0  0  0  0  0  0  # atno 17321 bound_to 7965
  140.7233  143.2610  151.4206 LP  0  0  0  0  0  0  0  0  0  0  0  0  # atno 17342 bound_to 10162
  139.5976  144.1365  152.2161 LP  0  0  0  0  0  0  0  0  0  0  0  0  # atno 17343 bound_to 10162
  156.0251  130.3782  150.1847 LP  0  0  0  0  0  0  0  0  0  0  0  0  # atno 17370 bound_to 10713
  157.0037  130.9930  151.3384 LP  0  0  0  0  0  0  0  0  0  0  0  0  # atno 17371 bound_to 10713
  140.5430  134.0701  155.7347 LP  0  0  0  0  0  0  0  0  0  0  0  0  # atno 17394 bound_to 11000
  141.1322  133.9282  157.2510 LP  0  0  0  0  0  0  0  0  0  0  0  0  # atno 17395 bound_to 11000

$$$$
