AV-unprocessed.smi:2061|AV-procd|sdf|8375|dock4
  -GOLD-   2272011 53D 1   1.00000     0.00000
 Structure written by MMmdl.
 44 45  0  0  0  0  0  0  0  0  2 V2000
  147.8884  132.2457  153.9488 C   0  0  0  0  0  0  0  0  0  0  0  0
  148.6681  133.4494  154.3542 C   0  0  0  0  0  0  0  0  0  0  0  0
  149.6595  134.1617  153.7415 C   0  0  0  0  0  0  0  0  0  0  0  0
  149.9488  135.1893  154.6806 C   0  0  0  0  0  0  0  0  0  0  0  0
  150.8765  136.1486  154.5399 N   0  5  0  0  0  0  0  0  0  0  0  0
  150.8377  137.2542  155.3192 C   0  0  0  0  0  0  0  0  0  0  0  0
  149.9900  137.5135  156.1761 O   0  0  0  0  0  0  0  0  0  0  0  0
  151.8398  138.1135  155.0808 N   0  0  0  0  0  0  0  0  0  0  0  0
  152.0703  139.3926  155.7504 C   0  0  0  0  0  0  0  0  0  0  0  0
  152.3053  139.2434  157.2808 C   0  0  1  0  0  0  0  0  0  0  0  0
  153.2797  138.0640  157.5319 C   0  0  0  0  0  0  0  0  0  0  0  0
  152.7495  140.5003  157.9304 N   0  0  0  0  0  0  0  0  0  0  0  0
  153.0186  140.3291  159.3624 C   0  0  0  0  0  0  0  0  0  0  0  0
  153.4622  141.6336  160.0516 C   0  0  2  0  0  0  0  0  0  0  0  0
  153.6635  141.4524  161.5599 C   0  0  0  0  0  0  0  0  0  0  0  0
  152.4660  142.6283  159.8527 O   0  0  0  0  0  0  0  0  0  0  0  0
  152.2233  142.8914  158.4766 C   0  0  2  0  0  0  0  0  0  0  0  0
  151.1605  143.9911  158.3785 C   0  0  0  0  0  0  0  0  0  0  0  0
  151.7789  141.5901  157.7815 C   0  0  0  0  0  0  0  0  0  0  0  0
  149.2104  135.0978  155.7741 N   0  0  0  0  0  0  0  0  0  0  0  0
  148.3820  133.9880  155.5701 O   0  0  0  0  0  0  0  0  0  0  0  0
  148.5168  131.3553  153.9699 H   0  0  0  0  0  0  0  0  0  0  0  0
  147.4990  132.3614  152.9373 H   0  0  0  0  0  0  0  0  0  0  0  0
  147.0441  132.0801  154.6184 H   0  0  0  0  0  0  0  0  0  0  0  0
  150.1049  133.9811  152.7747 H   0  0  0  0  0  0  0  0  0  0  0  0
  152.5045  137.8530  154.3674 H   0  0  0  0  0  0  0  0  0  0  0  0
  152.8944  139.9452  155.2966 H   0  0  0  0  0  0  0  0  0  0  0  0
  151.1690  139.9664  155.5443 H   0  0  0  0  0  0  0  0  0  0  0  0
  151.3476  138.9602  157.7206 H   0  0  0  0  0  0  0  0  0  0  0  0
  152.9614  137.1497  157.0333 H   0  0  0  0  0  0  0  0  0  0  0  0
  153.3479  137.7959  158.5849 H   0  0  0  0  0  0  0  0  0  0  0  0
  154.2830  138.2994  157.1756 H   0  0  0  0  0  0  0  0  0  0  0  0
  152.1296  139.9373  159.8596 H   0  0  0  0  0  0  0  0  0  0  0  0
  153.8138  139.6025  159.5173 H   0  0  0  0  0  0  0  0  0  0  0  0
  154.4008  141.9774  159.6133 H   0  0  0  0  0  0  0  0  0  0  0  0
  154.4290  140.7041  161.7667 H   0  0  0  0  0  0  0  0  0  0  0  0
  152.7411  141.1317  162.0451 H   0  0  0  0  0  0  0  0  0  0  0  0
  153.9779  142.3866  162.0261 H   0  0  0  0  0  0  0  0  0  0  0  0
  153.1444  143.2542  158.0169 H   0  0  0  0  0  0  0  0  0  0  0  0
  150.9493  144.2408  157.3385 H   0  0  0  0  0  0  0  0  0  0  0  0
  151.4938  144.9010  158.8780 H   0  0  0  0  0  0  0  0  0  0  0  0
  150.2255  143.6783  158.8443 H   0  0  0  0  0  0  0  0  0  0  0  0
  151.6324  141.8311  156.7306 H   0  0  0  0  0  0  0  0  0  0  0  0
  150.8104  141.2763  158.1746 H   0  0  0  0  0  0  0  0  0  0  0  0
  1  2  1  0  0  0  0
  1 22  1  0  0  0  0
  1 23  1  0  0  0  0
  1 24  1  0  0  0  0
  2 21  1  0  0  0  0
  2  3  2  0  0  0  0
  3  4  1  0  0  0  0
  3 25  1  0  0  0  0
  4  5  1  0  0  0  0
  4 20  2  0  0  0  0
  5  6  1  0  0  0  0
  6  7  2  0  0  0  0
  6  8  1  0  0  0  0
  8  9  1  0  0  0  0
  8 26  1  0  0  0  0
  9 10  1  0  0  0  0
  9 27  1  0  0  0  0
  9 28  1  0  0  0  0
 10 11  1  0  0  0  0
 10 12  1  0  0  0  0
 10 29  1  0  0  0  0
 11 30  1  0  0  0  0
 11 31  1  0  0  0  0
 11 32  1  0  0  0  0
 12 19  1  0  0  0  0
 12 13  1  0  0  0  0
 13 14  1  0  0  0  0
 13 33  1  0  0  0  0
 13 34  1  0  0  0  0
 14 15  1  0  0  0  0
 14 16  1  0  0  0  0
 14 35  1  0  0  0  0
 15 36  1  0  0  0  0
 15 37  1  0  0  0  0
 15 38  1  0  0  0  0
 16 17  1  0  0  0  0
 17 18  1  0  0  0  0
 17 19  1  0  0  0  0
 17 39  1  0  0  0  0
 18 40  1  0  0  0  0
 18 41  1  0  0  0  0
 18 42  1  0  0  0  0
 19 43  1  0  0  0  0
 19 44  1  0  0  0  0
 20 21  1  0  0  0  0
M  CHG  1   5  -1
M  END
> <s_m_source_file>
AV-unprocessed.smi

> <i_m_source_file_index>
2061

> <i_lp_mmshare_version>
43012

> <i_f3d_flags>
0

> <s_epik_input>
W0NIM11jMVtjSF1jKG5vMSlbTkhdQyg9TylbTkhdW0NIMl1bQ0BIXShbQ0gzXSlOMltDSDJdW0NAQEhdKFtDSDNdKU9bQ0BASF0oW0NIM10pW0NIMl0y

> <s_epik_cmdline>
J2VwaWtfcHl0aG9uJywgJy1waCcsICc3LjAnLCAnLXRuJywgJzgnLCAnLW1hJywgJzIwMCcsICctbWV0YWxfYmluZGluZycsICctaW1hZScsICc8aW5maWxlLm1hZT4nLCAnLW9tYWUnLCAnPG91dGZpbGUubWFlPic=

> <r_epik_Ionization_Penalty>
6.88367

> <r_epik_Ionization_Penalty_Charging>
6.57198

> <r_epik_Ionization_Penalty_Neutral>
0.311681

> <r_epik_State_Penalty>
6.77619

> <r_epik_Charging_Adjusted_Penalty>
13.3482

> <i_epik_Tot_Q>
-1

> <i_epik_Tot_abs_Q>
1

> <r_epik_Metal_State_Penalty>
2.70524

> <b_epik_Metal_Only>
1

> <s_lp_Force_Field>
OPLS_2005

> <r_lp_Energy>
21.0449

> <b_lp_Chiralities_Consistent>
1

> <s_lp_Variant>
AV-unprocessed.smi:2061-16

> <Gold.Version>
5.8.1

> <Gold.Id.Protein>
6NUR|6NUR_protein|mol2

> <Gold.PLP.Fitness>
38.9402

> <Gold.PLP.PLP>
-32.7969

> <Gold.PLP.part.hbond>
-2.0000

> <Gold.PLP.part.metal>
0.0000

> <Gold.PLP.part.buried>
-4.3010

> <Gold.PLP.part.nonpolar>
-26.2094

> <Gold.PLP.part.repulsive>
0.3615

> <Gold.PLP.ligand.clash>
0.0000

> <Gold.PLP.ligand.torsion>
0.1661

> <Gold.PLP.Chemscore.Hbond>
2.1310

> <Gold.PLP.Chemscore.CHOScore>
0.0000

> <Gold.PLP.Chemscore.Metal>
0.0000

> <Gold.Chemscore.Hbonds>
donor molecule, donor type, donor heavy atom, donor atom, acceptor molecule, acceptor atom, score
      P1  H  7997  8008       L1    12  0.13
      P1  H 10752 10765       L1     5  1.59

> <Gold.PLP.Chemscore.Internal.Correction>
0.0822

> <Gold.Rescore>
     Score         DG    S(hbond)    S(metal)    S(lipo)     H(rot)  DE(clash)    DE(int)     intcor
     13.05     -14.88       0.82        0.00      90.12       1.52       0.01       1.82       ----

> <Gold.Chemscore.Fitness>
13.0533

> <Gold.Chemscore.DG>
-14.8802

> <Gold.Chemscore.ZeroCoef>
-5.4800

> <Gold.Chemscore.Hbond>
0.8216

> <Gold.Chemscore.Metal>
0.0000

> <Gold.Chemscore.Lipo>
90.1246

> <Gold.Chemscore.Internal_Hbond>
0.0000

> <Gold.Chemscore.DEClash>
0.0081

> <Gold.Chemscore.DEInternal>
1.8188

> <Gold.Chemscore.Rot>
1.5190

> <Gold.Chemscore.Internal.Correction>
   9.000000E+99

> <Gold.Chemscore.Hbonds>
donor molecule, donor type, donor heavy atom, donor atom, acceptor molecule, acceptor atom, score
      P1  H 10752 10765       L1     5  0.38

> <Gold.Chemscore.Hbond.Weighted>
-2.7443

> <Gold.Chemscore.Metal.Weighted>
-0.0000

> <Gold.Chemscore.Lipo.Weighted>
-10.5446

> <Gold.Chemscore.Internal_Hbond.Weighted>
0.0000

> <Gold.Chemscore.DEClash.Weighted>
0.0081

> <Gold.Chemscore.DEInternal.Weighted>
1.8188

> <Gold.Chemscore.Rot.Weighted>
3.8886

> <Gold.Chemscore.Internal.Correction.Weighted>
   9.000000E+99

> <Gold.Protein.RotatedTorsions>
[ 6907 6896 6895 6894 ] final  -20.04 input  -60.11 | X-H torsion
[ 7974 7965 7964 7962 ] final  -91.51 input  175.53 | X-H torsion
[ 8008 7997 7996 7995 ] final  -97.35 input   59.86 | X-H torsion
[ 10167 10162 10161 10158 ] final  -14.74 input  -65.29 | X-H torsion
[ 10718 10713 10712 10709 ] final   95.88 input   66.30 | X-H torsion
[ 10763 10752 10751 10750 ] final  171.27 input  -60.55 | X-H torsion
[ 11005 11000 10999 10996 ] final -119.33 input  -57.11 | X-H torsion

> <Gold.Protein.ActiveResidues>
 VAL166  LYS551  ARG553  GLY616  TRP617  ASP618  TYR619  PRO620  LYS621  CYS622 
 ASP623  PHE694  ASN695  SER759  ASP760  ASP761  ALA762  ILE779  LEU786  VAL792 
 PHE793  MET794  SER795  GLU796  ALA797  LYS798  CYS799  TRP800  GLU811  SER814 

> <Gold.Protein.RotatedAtoms>
  151.2541  135.0632  159.9072 H   0  0  0  0  0  0  0  0  0  0  0  0  # atno 6907 bound_to 6896
  152.5376  134.0301  159.8031 H   0  0  0  0  0  0  0  0  0  0  0  0  # atno 6908 bound_to 6896
  151.0513  133.5572  159.2673 H   0  0  0  0  0  0  0  0  0  0  0  0  # atno 6909 bound_to 6896
  145.4122  140.9546  143.2227 H   0  0  0  0  0  0  0  0  0  0  0  0  # atno 7974 bound_to 7965
  154.7866  140.0464  157.1168 H   0  0  0  0  0  0  0  0  0  0  0  0  # atno 8008 bound_to 7997
  154.9641  140.3081  155.4997 H   0  0  0  0  0  0  0  0  0  0  0  0  # atno 8009 bound_to 7997
  156.2944  140.2265  156.4729 H   0  0  0  0  0  0  0  0  0  0  0  0  # atno 8010 bound_to 7997
  140.7206  143.5290  150.9543 H   0  0  0  0  0  0  0  0  0  0  0  0  # atno 10167 bound_to 10162
  157.6934  131.0560  150.4406 H   0  0  0  0  0  0  0  0  0  0  0  0  # atno 10718 bound_to 10713
  154.4095  135.2756  155.2046 H   0  0  0  0  0  0  0  0  0  0  0  0  # atno 10763 bound_to 10752
  154.4037  135.6038  153.5916 H   0  0  0  0  0  0  0  0  0  0  0  0  # atno 10764 bound_to 10752
  152.9831  135.5932  154.4375 H   0  0  0  0  0  0  0  0  0  0  0  0  # atno 10765 bound_to 10752
  141.0223  134.0106  157.3265 H   0  0  0  0  0  0  0  0  0  0  0  0  # atno 11005 bound_to 11000
  144.8301  139.5643  143.6947 LP  0  0  0  0  0  0  0  0  0  0  0  0  # atno 17320 bound_to 7965
  146.2699  139.6609  142.9303 LP  0  0  0  0  0  0  0  0  0  0  0  0  # atno 17321 bound_to 7965
  139.9010  143.6836  152.3131 LP  0  0  0  0  0  0  0  0  0  0  0  0  # atno 17342 bound_to 10162
  139.7186  144.7607  151.0993 LP  0  0  0  0  0  0  0  0  0  0  0  0  # atno 17343 bound_to 10162
  156.4765  130.4064  149.6487 LP  0  0  0  0  0  0  0  0  0  0  0  0  # atno 17370 bound_to 10713
  156.3548  130.7451  151.2415 LP  0  0  0  0  0  0  0  0  0  0  0  0  # atno 17371 bound_to 10713
  139.9154  135.0196  156.7859 LP  0  0  0  0  0  0  0  0  0  0  0  0  # atno 17394 bound_to 11000
  140.6552  133.9695  155.7775 LP  0  0  0  0  0  0  0  0  0  0  0  0  # atno 17395 bound_to 11000

$$$$
