AV-unprocessed.smi:1703|AV-procd|sdf|6864|dock6
  -GOLD-   22720 8 53D 1   1.00000     0.00000
 Structure written by MMmdl.
 49 51  0  0  0  0  0  0  0  0  2 V2000
  148.5826  133.0045  153.5729 C   0  0  0  0  0  0  0  0  0  0  0  0
  149.1508  133.4012  154.9470 C   0  0  1  0  0  0  0  0  0  0  0  0
  150.1514  134.5719  154.8841 C   0  0  0  0  0  0  0  0  0  0  0  0
  149.4567  135.8588  154.6453 N   0  3  2  0  0  0  0  0  0  0  0  0
  150.4010  136.9964  154.5087 C   0  0  0  0  0  0  0  0  0  0  0  0
  149.6937  138.3674  154.5853 C   0  0  2  0  0  0  0  0  0  0  0  0
  148.7541  138.4579  153.5335 O   0  0  0  0  0  0  0  0  0  0  0  0
  150.6528  139.5686  154.4639 C   0  0  0  0  0  0  0  0  0  0  0  0
  151.4706  139.7558  155.6553 N   0  0  0  0  0  0  0  0  0  0  0  0
  152.5803  139.0732  156.0392 C   0  0  0  0  0  0  0  0  0  0  0  0
  153.1590  137.9545  155.2279 C   0  0  0  0  0  0  0  0  0  0  0  0
  154.4646  138.2320  154.7691 O   0  0  0  0  0  0  0  0  0  0  0  0
  153.1256  139.4570  157.1936 N   0  0  0  0  0  0  0  0  0  0  0  0
  152.3034  140.4930  157.5904 C   0  0  0  0  0  0  0  0  0  0  0  0
  152.3533  141.3177  158.7369 C   0  0  0  0  0  0  0  0  0  0  0  0
  151.3899  142.3292  158.9308 C   0  0  0  0  0  0  0  0  0  0  0  0
  150.3647  142.5294  157.9842 C   0  0  0  0  0  0  0  0  0  0  0  0
  150.2953  141.7173  156.8361 C   0  0  0  0  0  0  0  0  0  0  0  0
  151.2593  140.7087  156.6472 C   0  0  0  0  0  0  0  0  0  0  0  0
  148.4097  136.0735  155.6730 C   0  0  0  0  0  0  0  0  0  0  0  0
  147.4163  134.8980  155.6773 C   0  0  2  0  0  0  0  0  0  0  0  0
  146.3637  135.0406  156.7822 C   0  0  0  0  0  0  0  0  0  0  0  0
  148.1229  133.6799  155.8979 O   0  0  0  0  0  0  0  0  0  0  0  0
  149.3795  132.6716  152.9074 H   0  0  0  0  0  0  0  0  0  0  0  0
  148.0747  133.8320  153.0785 H   0  0  0  0  0  0  0  0  0  0  0  0
  147.8714  132.1840  153.6691 H   0  0  0  0  0  0  0  0  0  0  0  0
  149.6852  132.5304  155.3283 H   0  0  0  0  0  0  0  0  0  0  0  0
  150.7017  134.6357  155.8244 H   0  0  0  0  0  0  0  0  0  0  0  0
  150.8870  134.3884  154.0999 H   0  0  0  0  0  0  0  0  0  0  0  0
  151.1691  136.9040  155.2778 H   0  0  0  0  0  0  0  0  0  0  0  0
  150.9203  136.9303  153.5515 H   0  0  0  0  0  0  0  0  0  0  0  0
  149.1496  138.4582  155.5243 H   0  0  0  0  0  0  0  0  0  0  0  0
  149.1259  138.9802  152.8389 H   0  0  0  0  0  0  0  0  0  0  0  0
  151.2954  139.4546  153.5913 H   0  0  0  0  0  0  0  0  0  0  0  0
  150.0841  140.4850  154.3006 H   0  0  0  0  0  0  0  0  0  0  0  0
  153.1897  137.0479  155.8333 H   0  0  0  0  0  0  0  0  0  0  0  0
  152.5109  137.7408  154.3782 H   0  0  0  0  0  0  0  0  0  0  0  0
  155.0329  137.5232  155.0300 H   0  0  0  0  0  0  0  0  0  0  0  0
  153.1353  141.1735  159.4676 H   0  0  0  0  0  0  0  0  0  0  0  0
  151.4393  142.9552  159.8096 H   0  0  0  0  0  0  0  0  0  0  0  0
  149.6322  143.3080  158.1397 H   0  0  0  0  0  0  0  0  0  0  0  0
  149.5120  141.8707  156.1088 H   0  0  0  0  0  0  0  0  0  0  0  0
  148.8774  136.1770  156.6537 H   0  0  0  0  0  0  0  0  0  0  0  0
  147.8686  136.9990  155.4810 H   0  0  0  0  0  0  0  0  0  0  0  0
  146.8959  134.8542  154.7202 H   0  0  0  0  0  0  0  0  0  0  0  0
  145.7803  135.9528  156.6537 H   0  0  0  0  0  0  0  0  0  0  0  0
  146.8273  135.0762  157.7685 H   0  0  0  0  0  0  0  0  0  0  0  0
  145.6703  134.1992  156.7703 H   0  0  0  0  0  0  0  0  0  0  0  0
  148.9878  135.7692  153.7547 H   0  0  0  0  0  0  0  0  0  0  0  0
  1  2  1  0  0  0  0
  1 24  1  0  0  0  0
  1 25  1  0  0  0  0
  1 26  1  0  0  0  0
  2 23  1  0  0  0  0
  2  3  1  0  0  0  0
  2 27  1  0  0  0  0
  3  4  1  0  0  0  0
  3 28  1  0  0  0  0
  3 29  1  0  0  0  0
  4  5  1  0  0  0  0
  4 20  1  0  0  0  0
  4 49  1  0  0  0  0
  5  6  1  0  0  0  0
  5 30  1  0  0  0  0
  5 31  1  0  0  0  0
  6  7  1  0  0  0  0
  6  8  1  0  0  0  0
  6 32  1  0  0  0  0
  7 33  1  0  0  0  0
  8  9  1  0  0  0  0
  8 34  1  0  0  0  0
  8 35  1  0  0  0  0
  9 19  1  0  0  0  0
  9 10  1  0  0  0  0
 10 11  1  0  0  0  0
 10 13  2  0  0  0  0
 11 12  1  0  0  0  0
 11 36  1  0  0  0  0
 11 37  1  0  0  0  0
 12 38  1  0  0  0  0
 13 14  1  0  0  0  0
 14 19  2  0  0  0  0
 14 15  1  0  0  0  0
 15 16  2  0  0  0  0
 15 39  1  0  0  0  0
 16 17  1  0  0  0  0
 16 40  1  0  0  0  0
 17 18  2  0  0  0  0
 17 41  1  0  0  0  0
 18 19  1  0  0  0  0
 18 42  1  0  0  0  0
 20 21  1  0  0  0  0
 20 43  1  0  0  0  0
 20 44  1  0  0  0  0
 21 22  1  0  0  0  0
 21 23  1  0  0  0  0
 21 45  1  0  0  0  0
 22 46  1  0  0  0  0
 22 47  1  0  0  0  0
 22 48  1  0  0  0  0
M  CHG  1   4   1
M  END
> <s_m_source_file>
AV-unprocessed.smi

> <i_m_source_file_index>
1703

> <i_lp_mmshare_version>
43012

> <i_f3d_flags>
0

> <s_epik_input>
W0NIM11bQ0BASF0xW0NIMl1OKFtDSDJdW0NASF0oTzEpW0NIM10pW0NIMl1bQ0BIXShbT0hdKVtDSDJdbihjKG4yKVtDSDJdW09IXSljKGMyMylbY0hdW2NIXVtjSF1bY0hdMw==

> <s_epik_cmdline>
J2VwaWtfcHl0aG9uJywgJy1waCcsICc3LjAnLCAnLXRuJywgJzgnLCAnLW1hJywgJzIwMCcsICctbWV0YWxfYmluZGluZycsICctaW1hZScsICc8aW5maWxlLm1hZT4nLCAnLW9tYWUnLCAnPG91dGZpbGUubWFlPic=

> <r_epik_Ionization_Penalty>
0.655661

> <r_epik_Ionization_Penalty_Charging>
0.608065

> <r_epik_Ionization_Penalty_Neutral>
0.0475963

> <r_epik_State_Penalty>
0.695267

> <r_epik_Charging_Adjusted_Penalty>
1.30333

> <i_epik_Tot_Q>
1

> <i_epik_Tot_abs_Q>
1

> <r_epik_Metal_State_Penalty>
0.653591

> <b_epik_Metal_Only>
0

> <s_lp_Force_Field>
OPLS_2005

> <r_lp_Energy>
25.3139

> <b_lp_Chiralities_Consistent>
1

> <s_lp_Variant>
AV-unprocessed.smi:1703-12

> <Gold.Version>
5.8.1

> <Gold.Id.Protein>
6NUR|6NUR_protein|mol2

> <Gold.PLP.Fitness>
48.5975

> <Gold.PLP.PLP>
-35.9456

> <Gold.PLP.part.hbond>
-4.8151

> <Gold.PLP.part.metal>
0.0000

> <Gold.PLP.part.buried>
3.4493

> <Gold.PLP.part.nonpolar>
-32.8380

> <Gold.PLP.part.repulsive>
0.0479

> <Gold.PLP.ligand.clash>
0.0000

> <Gold.PLP.ligand.torsion>
0.4658

> <Gold.PLP.Chemscore.Hbond>
4.4880

> <Gold.PLP.Chemscore.CHOScore>
0.0000

> <Gold.PLP.Chemscore.Metal>
0.0000

> <Gold.Chemscore.Hbonds>
donor molecule, donor type, donor heavy atom, donor atom, acceptor molecule, acceptor atom, score
      L1  H     4    49       P1  7948  1.89
      L1  H     7    33       P1  7957  0.99
      P1  H  7997  8009       L1    13  1.00
      P1  H  7997  8010       L1    12  0.17

> <Gold.PLP.Chemscore.Internal.Correction>
0.1194

> <Gold.Rescore>
     Score         DG    S(hbond)    S(metal)    S(lipo)     H(rot)  DE(clash)    DE(int)     intcor
     14.64     -18.12       2.75        0.00      94.47       2.96       1.77       1.72       ----

> <Gold.Chemscore.Fitness>
14.6379

> <Gold.Chemscore.DG>
-18.1249

> <Gold.Chemscore.ZeroCoef>
-5.4800

> <Gold.Chemscore.Hbond>
2.7463

> <Gold.Chemscore.Metal>
0.0000

> <Gold.Chemscore.Lipo>
94.4677

> <Gold.Chemscore.Internal_Hbond>
0.0000

> <Gold.Chemscore.DEClash>
1.7701

> <Gold.Chemscore.DEInternal>
1.7169

> <Gold.Chemscore.Rot>
2.9611

> <Gold.Chemscore.Internal.Correction>
   9.000000E+99

> <Gold.Chemscore.Hbonds>
donor molecule, donor type, donor heavy atom, donor atom, acceptor molecule, acceptor atom, score
      L1  H     4    49       P1  7948  0.82
      L1  H     7    33       P1  7957  0.92
      P1  H  7997  8009       L1    13  0.45
      P1  H  7997  8010       L1    12  0.12

> <Gold.Chemscore.Hbond.Weighted>
-9.1725

> <Gold.Chemscore.Metal.Weighted>
-0.0000

> <Gold.Chemscore.Lipo.Weighted>
-11.0527

> <Gold.Chemscore.Internal_Hbond.Weighted>
0.0000

> <Gold.Chemscore.DEClash.Weighted>
1.7701

> <Gold.Chemscore.DEInternal.Weighted>
1.7169

> <Gold.Chemscore.Rot.Weighted>
7.5803

> <Gold.Chemscore.Internal.Correction.Weighted>
   9.000000E+99

> <Gold.Protein.RotatedTorsions>
[ 6907 6896 6895 6894 ] final   49.95 input  -60.11 | X-H torsion
[ 7974 7965 7964 7962 ] final  127.74 input  175.53 | X-H torsion
[ 8008 7997 7996 7995 ] final  158.48 input   59.86 | X-H torsion
[ 10167 10162 10161 10158 ] final -167.68 input  -65.29 | X-H torsion
[ 10718 10713 10712 10709 ] final   35.34 input   66.30 | X-H torsion
[ 10763 10752 10751 10750 ] final  -68.82 input  -60.55 | X-H torsion
[ 11005 11000 10999 10996 ] final -108.59 input  -57.11 | X-H torsion

> <Gold.Protein.ActiveResidues>
 VAL166  LYS551  ARG553  GLY616  TRP617  ASP618  TYR619  PRO620  LYS621  CYS622 
 ASP623  PHE694  ASN695  SER759  ASP760  ASP761  ALA762  ILE779  LEU786  VAL792 
 PHE793  MET794  SER795  GLU796  ALA797  LYS798  CYS799  TRP800  GLU811  SER814 

> <Gold.Protein.RotatedAtoms>
  152.2964  134.7662  160.0366 H   0  0  0  0  0  0  0  0  0  0  0  0  # atno 6907 bound_to 6896
  151.8190  133.3386  159.3586 H   0  0  0  0  0  0  0  0  0  0  0  0  # atno 6908 bound_to 6896
  150.7253  134.5521  159.5844 H   0  0  0  0  0  0  0  0  0  0  0  0  # atno 6909 bound_to 6896
  145.0472  139.3913  143.5072 H   0  0  0  0  0  0  0  0  0  0  0  0  # atno 7974 bound_to 7965
  156.2300  140.1857  156.7267 H   0  0  0  0  0  0  0  0  0  0  0  0  # atno 8008 bound_to 7997
  154.6006  140.0636  156.9391 H   0  0  0  0  0  0  0  0  0  0  0  0  # atno 8009 bound_to 7997
  155.2181  140.3305  155.4322 H   0  0  0  0  0  0  0  0  0  0  0  0  # atno 8010 bound_to 7997
  139.6034  144.0963  152.1767 H   0  0  0  0  0  0  0  0  0  0  0  0  # atno 10167 bound_to 10162
  157.3215  130.7450  149.6788 H   0  0  0  0  0  0  0  0  0  0  0  0  # atno 10718 bound_to 10713
  154.3946  135.6045  153.5862 H   0  0  0  0  0  0  0  0  0  0  0  0  # atno 10763 bound_to 10752
  152.9787  135.5892  154.4257 H   0  0  0  0  0  0  0  0  0  0  0  0  # atno 10764 bound_to 10752
  154.4046  135.2843  155.2053 H   0  0  0  0  0  0  0  0  0  0  0  0  # atno 10765 bound_to 10752
  141.0893  133.9083  157.2112 H   0  0  0  0  0  0  0  0  0  0  0  0  # atno 11005 bound_to 11000
  146.3515  140.0103  142.8667 LP  0  0  0  0  0  0  0  0  0  0  0  0  # atno 17320 bound_to 7965
  145.1573  140.9654  143.4398 LP  0  0  0  0  0  0  0  0  0  0  0  0  # atno 17321 bound_to 7965
  140.0565  144.5891  150.7296 LP  0  0  0  0  0  0  0  0  0  0  0  0  # atno 17342 bound_to 10162
  140.7267  143.2643  151.4097 LP  0  0  0  0  0  0  0  0  0  0  0  0  # atno 17343 bound_to 10162
  155.9686  130.4222  150.4504 LP  0  0  0  0  0  0  0  0  0  0  0  0  # atno 17370 bound_to 10713
  157.2520  131.0548  151.2373 LP  0  0  0  0  0  0  0  0  0  0  0  0  # atno 17371 bound_to 10713
  139.9716  135.0126  156.9527 LP  0  0  0  0  0  0  0  0  0  0  0  0  # atno 17394 bound_to 11000
  140.5289  134.0833  155.7310 LP  0  0  0  0  0  0  0  0  0  0  0  0  # atno 17395 bound_to 11000

$$$$
