AV-unprocessed.smi:2831|AV-procd|sdf|10911|dock7
  -GOLD-   2272015353D 1   1.00000     0.00000
 Structure written by MMmdl.
 29 30  0  0  0  0  0  0  0  0  2 V2000
  146.9755  134.0971  162.7624 C   0  0  0  0  0  0  0  0  0  0  0  0
  147.4254  135.1354  161.7927 C   0  0  0  0  0  0  0  0  0  0  0  0
  147.2237  136.4411  161.9858 N   0  0  0  0  0  0  0  0  0  0  0  0
  147.7338  137.2076  160.9478 N   0  0  0  0  0  0  0  0  0  0  0  0
  148.3225  136.4742  159.9923 C   0  0  0  0  0  0  0  0  0  0  0  0
  148.8790  137.0245  158.9005 N   0  5  0  0  0  0  0  0  0  0  0  0
  150.1885  137.3619  158.9059 C   0  0  0  0  0  0  0  0  0  0  0  0
  150.9550  137.2794  159.8678 O   0  0  0  0  0  0  0  0  0  0  0  0
  150.6273  137.8180  157.7203 N   0  0  0  0  0  0  0  0  0  0  0  0
  151.9689  138.2791  157.3348 C   0  0  2  0  0  0  0  0  0  0  0  0
  151.9073  138.6816  155.8495 C   0  0  0  0  0  0  0  0  0  0  0  0
  153.0622  137.2187  157.5568 C   0  0  0  0  0  0  0  0  0  0  0  0
  153.9960  137.8504  158.5878 C   0  0  0  0  0  0  0  0  0  0  0  0
  153.8379  139.2412  158.3680 O   0  0  0  0  0  0  0  0  0  0  0  0
  152.4483  139.4691  158.1936 C   0  0  0  0  0  0  0  0  0  0  0  0
  148.2663  134.7393  160.3036 S   0  0  0  0  0  0  0  0  0  0  0  0
  147.6877  134.0224  163.5843 H   0  0  0  0  0  0  0  0  0  0  0  0
  146.9042  133.1269  162.2708 H   0  0  0  0  0  0  0  0  0  0  0  0
  145.9964  134.3554  163.1664 H   0  0  0  0  0  0  0  0  0  0  0  0
  149.9340  137.8521  156.9872 H   0  0  0  0  0  0  0  0  0  0  0  0
  152.8674  139.0638  155.5004 H   0  0  0  0  0  0  0  0  0  0  0  0
  151.1640  139.4617  155.6802 H   0  0  0  0  0  0  0  0  0  0  0  0
  151.6413  137.8313  155.2203 H   0  0  0  0  0  0  0  0  0  0  0  0
  152.6857  136.2507  157.8896 H   0  0  0  0  0  0  0  0  0  0  0  0
  153.6179  137.0372  156.6360 H   0  0  0  0  0  0  0  0  0  0  0  0
  153.6846  137.6036  159.6036 H   0  0  0  0  0  0  0  0  0  0  0  0
  155.0329  137.5383  158.4631 H   0  0  0  0  0  0  0  0  0  0  0  0
  152.2661  140.4363  157.7242 H   0  0  0  0  0  0  0  0  0  0  0  0
  151.9786  139.4948  159.1774 H   0  0  0  0  0  0  0  0  0  0  0  0
  1  2  1  0  0  0  0
  1 17  1  0  0  0  0
  1 18  1  0  0  0  0
  1 19  1  0  0  0  0
  2 16  1  0  0  0  0
  2  3  2  0  0  0  0
  3  4  1  0  0  0  0
  4  5  2  0  0  0  0
  5  6  1  0  0  0  0
  5 16  1  0  0  0  0
  6  7  1  0  0  0  0
  7  8  2  0  0  0  0
  7  9  1  0  0  0  0
  9 10  1  0  0  0  0
  9 20  1  0  0  0  0
 10 15  1  0  0  0  0
 10 11  1  0  0  0  0
 10 12  1  0  0  0  0
 11 21  1  0  0  0  0
 11 22  1  0  0  0  0
 11 23  1  0  0  0  0
 12 13  1  0  0  0  0
 12 24  1  0  0  0  0
 12 25  1  0  0  0  0
 13 14  1  0  0  0  0
 13 26  1  0  0  0  0
 13 27  1  0  0  0  0
 14 15  1  0  0  0  0
 15 28  1  0  0  0  0
 15 29  1  0  0  0  0
M  CHG  1   6  -1
M  END
> <s_m_source_file>
AV-unprocessed.smi

> <i_m_source_file_index>
2831

> <i_lp_mmshare_version>
43012

> <i_f3d_flags>
0

> <s_epik_input>
W0NIM11jMW5uYyhzMSlbTkhdQyg9TylbTkhdW0NAQF0yKFtDSDNdKVtDSDJdW0NIMl1PW0NIMl0y

> <s_epik_cmdline>
J2VwaWtfcHl0aG9uJywgJy1waCcsICc3LjAnLCAnLXRuJywgJzgnLCAnLW1hJywgJzIwMCcsICctbWV0YWxfYmluZGluZycsICctaW1hZScsICc8aW5maWxlLm1hZT4nLCAnLW9tYWUnLCAnPG91dGZpbGUubWFlPic=

> <r_lp_tautomer_probability>
1

> <r_epik_Ionization_Penalty>
3.33648

> <r_epik_Ionization_Penalty_Charging>
3.18522

> <r_epik_Ionization_Penalty_Neutral>
0.151254

> <r_epik_State_Penalty>
3.18248

> <r_epik_Charging_Adjusted_Penalty>
6.3677

> <i_epik_Tot_Q>
-1

> <i_epik_Tot_abs_Q>
1

> <r_epik_Metal_State_Penalty>
0.469716

> <b_epik_Metal_Only>
1

> <s_lp_Force_Field>
OPLS_2005

> <r_lp_Energy>
14.5797

> <b_lp_Chiralities_Consistent>
1

> <s_lp_Variant>
AV-unprocessed.smi:2831-4

> <Gold.Version>
5.8.1

> <Gold.Id.Protein>
6NUR|6NUR_protein|mol2

> <Gold.PLP.Fitness>
33.0015

> <Gold.PLP.PLP>
-23.2207

> <Gold.PLP.part.hbond>
-3.9943

> <Gold.PLP.part.metal>
0.0000

> <Gold.PLP.part.buried>
-4.1520

> <Gold.PLP.part.nonpolar>
-15.0606

> <Gold.PLP.part.repulsive>
0.0465

> <Gold.PLP.ligand.clash>
0.0000

> <Gold.PLP.ligand.torsion>
0.7571

> <Gold.PLP.Chemscore.Hbond>
3.7600

> <Gold.PLP.Chemscore.CHOScore>
0.0000

> <Gold.PLP.Chemscore.Metal>
0.0000

> <Gold.Chemscore.Hbonds>
donor molecule, donor type, donor heavy atom, donor atom, acceptor molecule, acceptor atom, score
      P1  H  6896  6909       L1     8  0.68
      P1  H  6931  6943       L1     4  0.88
      P1  H  6934  6947       L1     4  0.88
      P1  H  7997  8010       L1    14  1.00

> <Gold.PLP.Chemscore.Internal.Correction>
0.0151

> <Gold.Rescore>
     Score         DG    S(hbond)    S(metal)    S(lipo)     H(rot)  DE(clash)    DE(int)     intcor
     17.61     -19.38       3.37        0.00      44.44       1.00       0.00       1.77       ----

> <Gold.Chemscore.Fitness>
17.6109

> <Gold.Chemscore.DG>
-19.3824

> <Gold.Chemscore.ZeroCoef>
-5.4800

> <Gold.Chemscore.Hbond>
3.3721

> <Gold.Chemscore.Metal>
0.0000

> <Gold.Chemscore.Lipo>
44.4407

> <Gold.Chemscore.Internal_Hbond>
0.0000

> <Gold.Chemscore.DEClash>
0.0000

> <Gold.Chemscore.DEInternal>
1.7715

> <Gold.Chemscore.Rot>
1.0000

> <Gold.Chemscore.Internal.Correction>
   9.000000E+99

> <Gold.Chemscore.Hbonds>
donor molecule, donor type, donor heavy atom, donor atom, acceptor molecule, acceptor atom, score
      P1  H  6896  6909       L1     8  0.21
      P1  H  6931  6943       L1     4  0.20
      P1  H  6934  6947       L1     4  0.80
      P1  H  7997  8010       L1    14  0.88

> <Gold.Chemscore.Hbond.Weighted>
-11.2628

> <Gold.Chemscore.Metal.Weighted>
-0.0000

> <Gold.Chemscore.Lipo.Weighted>
-5.1996

> <Gold.Chemscore.Internal_Hbond.Weighted>
0.0000

> <Gold.Chemscore.DEClash.Weighted>
0.0000

> <Gold.Chemscore.DEInternal.Weighted>
1.7715

> <Gold.Chemscore.Rot.Weighted>
2.5600

> <Gold.Chemscore.Internal.Correction.Weighted>
   9.000000E+99

> <Gold.Protein.RotatedTorsions>
[ 6907 6896 6895 6894 ] final  104.68 input  -60.11 | X-H torsion
[ 7974 7965 7964 7962 ] final   42.65 input  175.53 | X-H torsion
[ 8008 7997 7996 7995 ] final   16.21 input   59.86 | X-H torsion
[ 10167 10162 10161 10158 ] final -155.06 input  -65.29 | X-H torsion
[ 10718 10713 10712 10709 ] final  -48.63 input   66.30 | X-H torsion
[ 10763 10752 10751 10750 ] final   -0.93 input  -60.55 | X-H torsion
[ 11005 11000 10999 10996 ] final   95.91 input  -57.11 | X-H torsion

> <Gold.Protein.ActiveResidues>
 VAL166  LYS551  ARG553  GLY616  TRP617  ASP618  TYR619  PRO620  LYS621  CYS622 
 ASP623  PHE694  ASN695  SER759  ASP760  ASP761  ALA762  ILE779  LEU786  VAL792 
 PHE793  MET794  SER795  GLU796  ALA797  LYS798  CYS799  TRP800  GLU811  SER814 

> <Gold.Protein.RotatedAtoms>
  152.5256  133.9641  159.7730 H   0  0  0  0  0  0  0  0  0  0  0  0  # atno 6907 bound_to 6896
  150.9926  133.6127  159.2713 H   0  0  0  0  0  0  0  0  0  0  0  0  # atno 6908 bound_to 6896
  151.3264  135.0837  159.9377 H   0  0  0  0  0  0  0  0  0  0  0  0  # atno 6909 bound_to 6896
  146.0722  139.5276  142.9590 H   0  0  0  0  0  0  0  0  0  0  0  0  # atno 7974 bound_to 7965
  154.8737  140.2962  155.5466 H   0  0  0  0  0  0  0  0  0  0  0  0  # atno 8008 bound_to 7997
  156.3022  140.2455  156.3662 H   0  0  0  0  0  0  0  0  0  0  0  0  # atno 8009 bound_to 7997
  154.8790  140.0398  157.1760 H   0  0  0  0  0  0  0  0  0  0  0  0  # atno 8010 bound_to 7997
  139.6962  143.9338  152.2408 H   0  0  0  0  0  0  0  0  0  0  0  0  # atno 10167 bound_to 10162
  156.1969  130.4154  149.9294 H   0  0  0  0  0  0  0  0  0  0  0  0  # atno 10718 bound_to 10713
  153.3382  135.6979  153.6889 H   0  0  0  0  0  0  0  0  0  0  0  0  # atno 10763 bound_to 10752
  153.5664  135.3525  155.2821 H   0  0  0  0  0  0  0  0  0  0  0  0  # atno 10764 bound_to 10752
  154.8631  135.4262  154.2588 H   0  0  0  0  0  0  0  0  0  0  0  0  # atno 10765 bound_to 10752
  139.8785  134.8923  156.4080 H   0  0  0  0  0  0  0  0  0  0  0  0  # atno 11005 bound_to 11000
  145.6371  141.0292  143.1832 LP  0  0  0  0  0  0  0  0  0  0  0  0  # atno 17320 bound_to 7965
  144.7239  139.7940  143.7372 LP  0  0  0  0  0  0  0  0  0  0  0  0  # atno 17321 bound_to 7965
  139.9167  144.6824  150.8504 LP  0  0  0  0  0  0  0  0  0  0  0  0  # atno 17342 bound_to 10162
  140.7697  143.3404  151.2220 LP  0  0  0  0  0  0  0  0  0  0  0  0  # atno 17343 bound_to 10162
  156.7016  130.8935  151.3600 LP  0  0  0  0  0  0  0  0  0  0  0  0  # atno 17370 bound_to 10713
  157.6963  130.9285  150.0654 LP  0  0  0  0  0  0  0  0  0  0  0  0  # atno 17371 bound_to 10713
  140.9220  133.7638  155.9918 LP  0  0  0  0  0  0  0  0  0  0  0  0  # atno 17394 bound_to 11000
  140.8429  134.3046  157.5306 LP  0  0  0  0  0  0  0  0  0  0  0  0  # atno 17395 bound_to 11000

$$$$
