AV-unprocessed.smi:19|AV-procd|sdf|109|dock7
  -GOLD-   2262015273D 1   1.00000     0.00000
 Structure written by MMmdl.
 57 60  0  0  0  0  0  0  0  0  1 V2000
  157.7829  140.3472  159.1123 C   0  0  0  0  0  0  0  0  0  0  0  0
  156.4133  139.9916  159.2178 O   0  0  0  0  0  0  0  0  0  0  0  0
  155.6029  140.9686  159.8583 C   0  0  0  0  0  0  0  0  0  0  0  0
  154.2764  140.3700  160.3802 C   0  0  2  0  0  0  0  0  0  0  0  0
  153.3652  139.8277  159.2626 C   0  0  0  0  0  0  0  0  0  0  0  0
  152.7485  140.9241  158.5246 N   0  0  0  0  0  0  0  0  0  0  0  0
  152.1873  140.5794  157.3386 C   0  0  0  0  0  0  0  0  0  0  0  0
  152.7892  139.6533  156.5453 N   0  0  0  0  0  0  0  0  0  0  0  0
  152.2466  139.3154  155.3720 C   0  0  0  0  0  0  0  0  0  0  0  0
  151.1234  139.7667  154.8117 N   0  0  0  0  0  0  0  0  0  0  0  0
  150.5066  140.6863  155.6075 C   0  0  0  0  0  0  0  0  0  0  0  0
  150.9690  141.1489  156.8721 C   0  0  0  0  0  0  0  0  0  0  0  0
  150.0788  142.0833  157.3872 N   0  0  0  0  0  0  0  0  0  0  0  0
  149.1522  142.1780  156.4740 C   0  0  0  0  0  0  0  0  0  0  0  0
  149.3182  141.3597  155.3787 N   0  0  0  0  0  0  0  0  0  0  0  0
  148.4371  141.2619  154.2225 C   0  0  0  0  0  0  0  0  0  0  0  0
  147.2267  140.2962  154.3977 C   0  0  0  0  0  0  0  0  0  0  0  0
  146.8157  139.6787  153.0302 C   0  0  0  0  0  0  0  0  0  0  0  0
  147.8413  138.8821  152.4721 O   0  0  0  0  0  0  0  0  0  0  0  0
  147.5936  139.1605  155.3874 C   0  0  0  0  0  0  0  0  0  0  0  0
  146.3708  138.3581  155.8708 C   0  0  0  0  0  0  0  0  0  0  0  0
  145.4051  139.2300  156.4423 O   0  0  0  0  0  0  0  0  0  0  0  0
  144.9090  140.1857  155.5142 C   0  0  0  0  0  0  0  0  0  0  0  0
  146.0580  141.0901  155.0352 C   0  0  0  0  0  0  0  0  0  0  0  0
  152.0335  141.8602  159.3856 C   0  0  0  0  0  0  0  0  0  0  0  0
  152.9766  142.3959  160.4774 C   0  0  1  0  0  0  0  0  0  0  0  0
  152.2390  143.2841  161.4844 C   0  0  0  0  0  0  0  0  0  0  0  0
  153.5538  141.3013  161.1900 O   0  0  0  0  0  0  0  0  0  0  0  0
  158.3210  139.5585  158.5865 H   0  0  0  0  0  0  0  0  0  0  0  0
  158.2507  140.4712  160.0886 H   0  0  0  0  0  0  0  0  0  0  0  0
  157.9078  141.2701  158.5446 H   0  0  0  0  0  0  0  0  0  0  0  0
  156.1560  141.4455  160.6690 H   0  0  0  0  0  0  0  0  0  0  0  0
  155.4008  141.7503  159.1262 H   0  0  0  0  0  0  0  0  0  0  0  0
  154.5151  139.5415  161.0454 H   0  0  0  0  0  0  0  0  0  0  0  0
  153.9337  139.1644  158.6117 H   0  0  0  0  0  0  0  0  0  0  0  0
  152.5705  139.2230  159.7019 H   0  0  0  0  0  0  0  0  0  0  0  0
  152.7902  138.5777  154.8003 H   0  0  0  0  0  0  0  0  0  0  0  0
  148.3099  142.8461  156.5808 H   0  0  0  0  0  0  0  0  0  0  0  0
  148.0822  142.2687  153.9986 H   0  0  0  0  0  0  0  0  0  0  0  0
  149.0371  140.9668  153.3609 H   0  0  0  0  0  0  0  0  0  0  0  0
  145.9203  139.0657  153.1348 H   0  0  0  0  0  0  0  0  0  0  0  0
  146.5671  140.4462  152.2993 H   0  0  0  0  0  0  0  0  0  0  0  0
  148.5292  139.4513  152.1622 H   0  0  0  0  0  0  0  0  0  0  0  0
  148.3137  138.4758  154.9385 H   0  0  0  0  0  0  0  0  0  0  0  0
  148.0840  139.5881  156.2629 H   0  0  0  0  0  0  0  0  0  0  0  0
  145.9236  137.7789  155.0625 H   0  0  0  0  0  0  0  0  0  0  0  0
  146.6797  137.6394  156.6301 H   0  0  0  0  0  0  0  0  0  0  0  0
  144.4156  139.6864  154.6798 H   0  0  0  0  0  0  0  0  0  0  0  0
  144.1480  140.7876  156.0110 H   0  0  0  0  0  0  0  0  0  0  0  0
  146.4269  141.6456  155.8989 H   0  0  0  0  0  0  0  0  0  0  0  0
  145.6747  141.8416  154.3442 H   0  0  0  0  0  0  0  0  0  0  0  0
  151.6444  142.6920  158.7968 H   0  0  0  0  0  0  0  0  0  0  0  0
  151.1804  141.3532  159.8388 H   0  0  0  0  0  0  0  0  0  0  0  0
  153.7660  142.9910  160.0176 H   0  0  0  0  0  0  0  0  0  0  0  0
  151.7865  144.1444  160.9904 H   0  0  0  0  0  0  0  0  0  0  0  0
  152.9224  143.6601  162.2463 H   0  0  0  0  0  0  0  0  0  0  0  0
  151.4459  142.7326  161.9902 H   0  0  0  0  0  0  0  0  0  0  0  0
  1  2  1  0  0  0  0
  1 29  1  0  0  0  0
  1 30  1  0  0  0  0
  1 31  1  0  0  0  0
  2  3  1  0  0  0  0
  3  4  1  0  0  0  0
  3 32  1  0  0  0  0
  3 33  1  0  0  0  0
  4 28  1  0  0  0  0
  4  5  1  0  0  0  0
  4 34  1  0  0  0  0
  5  6  1  0  0  0  0
  5 35  1  0  0  0  0
  5 36  1  0  0  0  0
  6  7  1  0  0  0  0
  6 25  1  0  0  0  0
  7 12  1  0  0  0  0
  7  8  2  0  0  0  0
  8  9  1  0  0  0  0
  9 10  2  0  0  0  0
  9 37  1  0  0  0  0
 10 11  1  0  0  0  0
 11 15  1  0  0  0  0
 11 12  2  0  0  0  0
 12 13  1  0  0  0  0
 13 14  2  0  0  0  0
 14 15  1  0  0  0  0
 14 38  1  0  0  0  0
 15 16  1  0  0  0  0
 16 17  1  0  0  0  0
 16 39  1  0  0  0  0
 16 40  1  0  0  0  0
 17 24  1  0  0  0  0
 17 18  1  0  0  0  0
 17 20  1  0  0  0  0
 18 19  1  0  0  0  0
 18 41  1  0  0  0  0
 18 42  1  0  0  0  0
 19 43  1  0  0  0  0
 20 21  1  0  0  0  0
 20 44  1  0  0  0  0
 20 45  1  0  0  0  0
 21 22  1  0  0  0  0
 21 46  1  0  0  0  0
 21 47  1  0  0  0  0
 22 23  1  0  0  0  0
 23 24  1  0  0  0  0
 23 48  1  0  0  0  0
 23 49  1  0  0  0  0
 24 50  1  0  0  0  0
 24 51  1  0  0  0  0
 25 26  1  0  0  0  0
 25 52  1  0  0  0  0
 25 53  1  0  0  0  0
 26 27  1  0  0  0  0
 26 28  1  0  0  0  0
 26 54  1  0  0  0  0
 27 55  1  0  0  0  0
 27 56  1  0  0  0  0
 27 57  1  0  0  0  0
M  END
> <s_m_source_file>
AV-unprocessed.smi

> <i_m_source_file_index>
19

> <i_lp_mmshare_version>
43012

> <i_f3d_flags>
0

> <s_epik_input>
W0NIM11PW0NIMl1bQ0BASF0xW0NIMl1OKFtDSDJdW0NASF0oTzEpW0NIM10pYyhuW2NIXW4yKWMoYzIzKW5bY0hdbjNbQ0gyXUM0KFtDSDJdW09IXSlbQ0gyXVtDSDJdT1tDSDJdW0NIMl00

> <s_epik_cmdline>
J2VwaWtfcHl0aG9uJywgJy1waCcsICc3LjAnLCAnLXRuJywgJzgnLCAnLW1hJywgJzIwMCcsICctbWV0YWxfYmluZGluZycsICctaW1hZScsICc8aW5maWxlLm1hZT4nLCAnLW9tYWUnLCAnPG91dGZpbGUubWFlPic=

> <r_lp_tautomer_probability>
1

> <r_epik_Ionization_Penalty>
6.20357e-05

> <r_epik_Ionization_Penalty_Charging>
0

> <r_epik_Ionization_Penalty_Neutral>
6.20357e-05

> <r_epik_State_Penalty>
-0

> <r_epik_Charging_Adjusted_Penalty>
0

> <i_epik_Tot_Q>
0

> <i_epik_Tot_abs_Q>
0

> <r_epik_Metal_State_Penalty>
-0

> <b_epik_Metal_Only>
0

> <s_lp_Force_Field>
OPLS_2005

> <r_lp_Energy>
39.3548

> <b_lp_Chiralities_Consistent>
1

> <s_lp_Variant>
AV-unprocessed.smi:19-1

> <Gold.Version>
5.8.1

> <Gold.Id.Protein>
6NUR|6NUR_protein|mol2

> <Gold.PLP.Fitness>
54.6652

> <Gold.PLP.PLP>
-43.3318

> <Gold.PLP.part.hbond>
-5.0490

> <Gold.PLP.part.metal>
0.0000

> <Gold.PLP.part.buried>
-2.1688

> <Gold.PLP.part.nonpolar>
-36.0749

> <Gold.PLP.part.repulsive>
0.2375

> <Gold.PLP.ligand.clash>
0.0000

> <Gold.PLP.ligand.torsion>
1.3248

> <Gold.PLP.Chemscore.Hbond>
3.9500

> <Gold.PLP.Chemscore.CHOScore>
0.5624

> <Gold.PLP.Chemscore.Metal>
0.0000

> <Gold.Chemscore.Hbonds>
donor molecule, donor type, donor heavy atom, donor atom, acceptor molecule, acceptor atom, score
      L1  H    19    43       P1  7957  1.00
      P1  H  7989  7998       L1    10  0.90
      P1  H  7997  8008       L1     2  0.96
      P1  H  7997  8009       L1     8  1.00
      L1  C    14    38       P1  8028  0.55

> <Gold.PLP.Chemscore.Internal.Correction>
0.4460

> <Gold.Rescore>
     Score         DG    S(hbond)    S(metal)    S(lipo)     H(rot)  DE(clash)    DE(int)     intcor
     12.43     -16.78       2.14        0.00      98.46       2.87       1.56       2.79       ----

> <Gold.Chemscore.Fitness>
12.4294

> <Gold.Chemscore.DG>
-16.7789

> <Gold.Chemscore.ZeroCoef>
-5.4800

> <Gold.Chemscore.Hbond>
2.1359

> <Gold.Chemscore.Metal>
0.0000

> <Gold.Chemscore.Lipo>
98.4587

> <Gold.Chemscore.Internal_Hbond>
0.0000

> <Gold.Chemscore.DEClash>
1.5631

> <Gold.Chemscore.DEInternal>
2.7865

> <Gold.Chemscore.Rot>
2.8729

> <Gold.Chemscore.Internal.Correction>
   9.000000E+99

> <Gold.Chemscore.Hbonds>
donor molecule, donor type, donor heavy atom, donor atom, acceptor molecule, acceptor atom, score
      L1  H    19    43       P1  7957  0.95
      P1  H  7989  7998       L1    10  0.10
      P1  H  7997  8008       L1     2  0.12
      P1  H  7997  8009       L1     8  0.45

> <Gold.Chemscore.Hbond.Weighted>
-7.1339

> <Gold.Chemscore.Metal.Weighted>
-0.0000

> <Gold.Chemscore.Lipo.Weighted>
-11.5197

> <Gold.Chemscore.Internal_Hbond.Weighted>
0.0000

> <Gold.Chemscore.DEClash.Weighted>
1.5631

> <Gold.Chemscore.DEInternal.Weighted>
2.7865

> <Gold.Chemscore.Rot.Weighted>
7.3546

> <Gold.Chemscore.Internal.Correction.Weighted>
   9.000000E+99

> <Gold.Protein.RotatedTorsions>
[ 6907 6896 6895 6894 ] final  163.33 input  -60.11 | X-H torsion
[ 7974 7965 7964 7962 ] final   38.25 input  175.53 | X-H torsion
[ 8008 7997 7996 7995 ] final -162.11 input   59.86 | X-H torsion
[ 10167 10162 10161 10158 ] final  -24.90 input  -65.29 | X-H torsion
[ 10718 10713 10712 10709 ] final   55.64 input   66.30 | X-H torsion
[ 10763 10752 10751 10750 ] final   77.82 input  -60.55 | X-H torsion
[ 11005 11000 10999 10996 ] final   -9.99 input  -57.11 | X-H torsion

> <Gold.Protein.ActiveResidues>
 VAL166  LYS551  ARG553  GLY616  TRP617  ASP618  TYR619  PRO620  LYS621  CYS622 
 ASP623  PHE694  ASN695  SER759  ASP760  ASP761  ALA762  ILE779  LEU786  VAL792 
 PHE793  MET794  SER795  GLU796  ALA797  LYS798  CYS799  TRP800  GLU811  SER814 

> <Gold.Protein.RotatedAtoms>
  151.9268  133.3600  159.3916 H   0  0  0  0  0  0  0  0  0  0  0  0  # atno 6907 bound_to 6896
  150.7025  134.4578  159.5376 H   0  0  0  0  0  0  0  0  0  0  0  0  # atno 6908 bound_to 6896
  152.2212  134.8411  160.0536 H   0  0  0  0  0  0  0  0  0  0  0  0  # atno 6909 bound_to 6896
  146.1076  139.5794  142.9373 H   0  0  0  0  0  0  0  0  0  0  0  0  # atno 7974 bound_to 7965
  155.8021  140.0893  157.1951 H   0  0  0  0  0  0  0  0  0  0  0  0  # atno 8008 bound_to 7997
  154.3982  140.1470  156.3345 H   0  0  0  0  0  0  0  0  0  0  0  0  # atno 8009 bound_to 7997
  155.8452  140.3437  155.5660 H   0  0  0  0  0  0  0  0  0  0  0  0  # atno 8010 bound_to 7997
  140.7287  143.4312  151.0799 H   0  0  0  0  0  0  0  0  0  0  0  0  # atno 10167 bound_to 10162
  157.5363  130.8665  149.8758 H   0  0  0  0  0  0  0  0  0  0  0  0  # atno 10718 bound_to 10713
  153.0827  135.4900  154.8535 H   0  0  0  0  0  0  0  0  0  0  0  0  # atno 10763 bound_to 10752
  154.7171  135.3032  154.9108 H   0  0  0  0  0  0  0  0  0  0  0  0  # atno 10764 bound_to 10752
  153.9783  135.6793  153.4802 H   0  0  0  0  0  0  0  0  0  0  0  0  # atno 10765 bound_to 10752
  140.7400  133.8678  155.8960 H   0  0  0  0  0  0  0  0  0  0  0  0  # atno 11005 bound_to 11000
  145.5729  141.0392  143.2164 LP  0  0  0  0  0  0  0  0  0  0  0  0  # atno 17320 bound_to 7965
  144.7484  139.7259  143.7283 LP  0  0  0  0  0  0  0  0  0  0  0  0  # atno 17321 bound_to 7965
  139.7969  143.8139  152.3158 LP  0  0  0  0  0  0  0  0  0  0  0  0  # atno 17342 bound_to 10162
  139.8142  144.7323  150.9657 LP  0  0  0  0  0  0  0  0  0  0  0  0  # atno 17343 bound_to 10162
  156.0461  130.3727  150.1315 LP  0  0  0  0  0  0  0  0  0  0  0  0  # atno 17370 bound_to 10713
  156.9497  130.9771  151.3500 LP  0  0  0  0  0  0  0  0  0  0  0  0  # atno 17371 bound_to 10713
  140.9845  134.1361  157.4464 LP  0  0  0  0  0  0  0  0  0  0  0  0  # atno 17394 bound_to 11000
  139.8808  135.0021  156.6107 LP  0  0  0  0  0  0  0  0  0  0  0  0  # atno 17395 bound_to 11000

$$$$
