AV-unprocessed.smi:109|AV-procd|sdf|1033|dock8
  -GOLD-   2262018 43D 1   1.00000     0.00000
 Structure written by MMmdl.
 58 61  0  0  0  0  0  0  0  0  1 V2000
  146.6003  130.0413  160.2237 O   0  0  0  0  0  0  0  0  0  0  0  0
  146.9993  131.3940  160.2677 C   0  0  0  0  0  0  0  0  0  0  0  0
  146.0295  132.2537  159.4390 C   0  0  0  0  0  0  0  0  0  0  0  0
  146.5159  133.7043  159.1977 C   0  0  2  0  0  0  0  0  0  0  0  0
  147.9494  133.6934  158.8965 N   0  0  0  0  0  0  0  0  0  0  0  0
  148.4253  133.4876  157.6479 C   0  0  0  0  0  0  0  0  0  0  0  0
  149.7383  133.6640  157.3492 N   0  0  0  0  0  0  0  0  0  0  0  0
  150.1751  133.4564  156.1041 C   0  0  0  0  0  0  0  0  0  0  0  0
  149.4804  133.0764  155.0302 N   0  0  0  0  0  0  0  0  0  0  0  0
  148.1595  132.8978  155.3219 C   0  0  0  0  0  0  0  0  0  0  0  0
  147.5604  133.0804  156.5997 C   0  0  0  0  0  0  0  0  0  0  0  0
  146.2014  132.8067  156.5266 N   0  0  0  0  0  0  0  0  0  0  0  0
  146.0132  132.4788  155.2767 C   0  0  0  0  0  0  0  0  0  0  0  0
  147.1365  132.5056  154.4801 N   0  0  0  0  0  0  0  0  0  0  0  0
  147.2154  132.1772  153.0187 C   0  0  1  0  0  0  0  0  0  0  0  0
  146.1097  131.4019  152.6569 O   0  0  0  0  0  0  0  0  0  0  0  0
  145.3358  132.0631  151.6558 C   0  0  2  0  0  0  0  0  0  0  0  0
  144.6823  131.0198  150.7380 C   0  0  0  0  0  0  0  0  0  0  0  0
  143.8511  131.6632  149.7960 O   0  0  0  0  0  0  0  0  0  0  0  0
  146.3698  132.9433  150.9519 C   0  0  1  0  0  0  0  0  0  0  0  0
  145.7913  134.0045  150.2155 O   0  0  0  0  0  0  0  0  0  0  0  0
  147.2337  133.4221  152.1103 C   0  0  1  0  0  0  0  0  0  0  0  0
  146.7222  134.5905  152.7326 O   0  0  0  0  0  0  0  0  0  0  0  0
  146.2459  134.6622  160.3941 C   0  0  0  0  0  0  0  0  0  0  0  0
  146.5592  136.1454  160.0709 C   0  0  0  0  0  0  0  0  0  0  0  0
  146.3426  137.0725  161.2784 C   0  0  0  0  0  0  0  0  0  0  0  0
  147.1629  136.6168  162.4906 C   0  0  0  0  0  0  0  0  0  0  0  0
  146.8334  135.1624  162.8452 C   0  0  0  0  0  0  0  0  0  0  0  0
  147.0604  134.2338  161.6425 C   0  0  0  0  0  0  0  0  0  0  0  0
  148.1164  131.5705  152.9205 H   0  0  0  0  0  0  0  0  0  0  0  0
  144.5827  132.6968  152.1269 H   0  0  0  0  0  0  0  0  0  0  0  0
  146.9763  132.3327  150.2809 H   0  0  0  0  0  0  0  0  0  0  0  0
  148.2562  133.6265  151.7914 H   0  0  0  0  0  0  0  0  0  0  0  0
  146.5404  129.7749  159.3190 H   0  0  0  0  0  0  0  0  0  0  0  0
  147.0219  131.7124  161.3097 H   0  0  0  0  0  0  0  0  0  0  0  0
  148.0139  131.4759  159.8772 H   0  0  0  0  0  0  0  0  0  0  0  0
  145.8989  131.7430  158.4866 H   0  0  0  0  0  0  0  0  0  0  0  0
  145.0490  132.2693  159.9169 H   0  0  0  0  0  0  0  0  0  0  0  0
  145.9508  134.1026  158.3554 H   0  0  0  0  0  0  0  0  0  0  0  0
  148.5586  133.8224  159.6917 H   0  0  0  0  0  0  0  0  0  0  0  0
  151.2311  133.6182  155.9454 H   0  0  0  0  0  0  0  0  0  0  0  0
  145.0398  132.2033  154.8979 H   0  0  0  0  0  0  0  0  0  0  0  0
  145.4455  130.4744  150.1822 H   0  0  0  0  0  0  0  0  0  0  0  0
  144.1128  130.2877  151.3114 H   0  0  0  0  0  0  0  0  0  0  0  0
  143.1587  132.1070  150.2620 H   0  0  0  0  0  0  0  0  0  0  0  0
  145.8587  133.8030  149.2947 H   0  0  0  0  0  0  0  0  0  0  0  0
  147.3397  135.2938  152.5967 H   0  0  0  0  0  0  0  0  0  0  0  0
  145.1863  134.5972  160.6466 H   0  0  0  0  0  0  0  0  0  0  0  0
  147.5885  136.2366  159.7216 H   0  0  0  0  0  0  0  0  0  0  0  0
  145.9236  136.5103  159.2659 H   0  0  0  0  0  0  0  0  0  0  0  0
  146.6114  138.0954  161.0129 H   0  0  0  0  0  0  0  0  0  0  0  0
  145.2837  137.0905  161.5397 H   0  0  0  0  0  0  0  0  0  0  0  0
  148.2274  136.7109  162.2718 H   0  0  0  0  0  0  0  0  0  0  0  0
  146.9617  137.2647  163.3440 H   0  0  0  0  0  0  0  0  0  0  0  0
  147.4474  134.8374  163.6857 H   0  0  0  0  0  0  0  0  0  0  0  0
  145.7958  135.0900  163.1736 H   0  0  0  0  0  0  0  0  0  0  0  0
  146.8016  133.2186  161.9436 H   0  0  0  0  0  0  0  0  0  0  0  0
  148.1230  134.2155  161.3963 H   0  0  0  0  0  0  0  0  0  0  0  0
  1  2  1  0  0  0  0
  1 34  1  0  0  0  0
  2  3  1  0  0  0  0
  2 35  1  0  0  0  0
  2 36  1  0  0  0  0
  3  4  1  0  0  0  0
  3 37  1  0  0  0  0
  3 38  1  0  0  0  0
  4  5  1  0  0  0  0
  4 24  1  0  0  0  0
  4 39  1  0  0  0  0
  5  6  1  0  0  0  0
  5 40  1  0  0  0  0
  6 11  1  0  0  0  0
  6  7  2  0  0  0  0
  7  8  1  0  0  0  0
  8  9  2  0  0  0  0
  8 41  1  0  0  0  0
  9 10  1  0  0  0  0
 10 14  1  0  0  0  0
 10 11  2  0  0  0  0
 11 12  1  0  0  0  0
 12 13  2  0  0  0  0
 13 14  1  0  0  0  0
 13 42  1  0  0  0  0
 14 15  1  0  0  0  0
 15 30  1  0  0  0  0
 15 22  1  0  0  0  0
 15 16  1  0  0  0  0
 16 17  1  0  0  0  0
 17 31  1  0  0  0  0
 17 18  1  0  0  0  0
 17 20  1  0  0  0  0
 18 19  1  0  0  0  0
 18 43  1  0  0  0  0
 18 44  1  0  0  0  0
 19 45  1  0  0  0  0
 20 32  1  0  0  0  0
 20 21  1  0  0  0  0
 20 22  1  0  0  0  0
 21 46  1  0  0  0  0
 22 33  1  0  0  0  0
 22 23  1  0  0  0  0
 23 47  1  0  0  0  0
 24 29  1  0  0  0  0
 24 25  1  0  0  0  0
 24 48  1  0  0  0  0
 25 26  1  0  0  0  0
 25 49  1  0  0  0  0
 25 50  1  0  0  0  0
 26 27  1  0  0  0  0
 26 51  1  0  0  0  0
 26 52  1  0  0  0  0
 27 28  1  0  0  0  0
 27 53  1  0  0  0  0
 27 54  1  0  0  0  0
 28 29  1  0  0  0  0
 28 55  1  0  0  0  0
 28 56  1  0  0  0  0
 29 57  1  0  0  0  0
 29 58  1  0  0  0  0
M  END
> <s_m_source_file>
AV-unprocessed.smi

> <i_m_source_file_index>
109

> <i_lp_mmshare_version>
43012

> <i_f3d_flags>
0

> <s_epik_input>
W0NIMl0xW0NIMl1bQ0gyXVtDSDJdW0NIMl1bQ0hdMVtDQEhdKFtDSDJdW0NIMl1bT0hdKVtOSF1jKG5bY0hdbjIpYyhjMjMpbltjSF1uM1tDQEBIXTRPW0NASF0oW0NIMl1bT0hdKVtDQEBIXShbT0hdKVtDQEhdNFtPSF0=

> <s_epik_cmdline>
J2VwaWtfcHl0aG9uJywgJy1waCcsICc3LjAnLCAnLXRuJywgJzgnLCAnLW1hJywgJzIwMCcsICctbWV0YWxfYmluZGluZycsICctaW1hZScsICc8aW5maWxlLm1hZT4nLCAnLW9tYWUnLCAnPG91dGZpbGUubWFlPic=

> <r_lp_tautomer_probability>
1

> <r_epik_Ionization_Penalty>
0.000793976

> <r_epik_Ionization_Penalty_Charging>
0

> <r_epik_Ionization_Penalty_Neutral>
0.000793976

> <r_epik_State_Penalty>
-0

> <r_epik_Charging_Adjusted_Penalty>
0

> <i_epik_Tot_Q>
0

> <i_epik_Tot_abs_Q>
0

> <r_epik_Metal_State_Penalty>
-0

> <b_epik_Metal_Only>
0

> <s_epik_Chemistry_Notes>
This compound contains an acetal/aminal-like group ( X-CH(R)-Y where X, Y are N, S, or O) that may be acid/base labile, releasing an aldehyde.

> <s_lp_Force_Field>
OPLS_2005

> <r_lp_Energy>
57.1061

> <b_lp_Chiralities_Consistent>
1

> <s_lp_Variant>
AV-unprocessed.smi:109-3

> <Gold.Version>
5.8.1

> <Gold.Id.Protein>
6NUR|6NUR_protein|mol2

> <Gold.PLP.Fitness>
47.9822

> <Gold.PLP.PLP>
-37.7975

> <Gold.PLP.part.hbond>
-3.9384

> <Gold.PLP.part.metal>
0.0000

> <Gold.PLP.part.buried>
-5.8590

> <Gold.PLP.part.nonpolar>
-28.8314

> <Gold.PLP.part.repulsive>
0.3180

> <Gold.PLP.ligand.clash>
0.0000

> <Gold.PLP.ligand.torsion>
1.2260

> <Gold.PLP.Chemscore.Hbond>
3.2661

> <Gold.PLP.Chemscore.CHOScore>
0.8748

> <Gold.PLP.Chemscore.Metal>
0.0000

> <Gold.Chemscore.Hbonds>
donor molecule, donor type, donor heavy atom, donor atom, acceptor molecule, acceptor atom, score
      L1  H    21    46       P1  7921  0.66
      L1  H    23    47       P1  7948  1.00
      P1  H  6896  6909       L1     7  0.62
      P1  H 10785 10796       L1    19  0.80
      L1  C    13    42       P1 10957  1.00

> <Gold.PLP.Chemscore.Internal.Correction>
0.2139

> <Gold.Rescore>
     Score         DG    S(hbond)    S(metal)    S(lipo)     H(rot)  DE(clash)    DE(int)     intcor
      5.72      -8.32       2.27        0.00      79.19       5.47       0.00       2.59       ----

> <Gold.Chemscore.Fitness>
5.7248

> <Gold.Chemscore.DG>
-8.3197

> <Gold.Chemscore.ZeroCoef>
-5.4800

> <Gold.Chemscore.Hbond>
2.2659

> <Gold.Chemscore.Metal>
0.0000

> <Gold.Chemscore.Lipo>
79.1882

> <Gold.Chemscore.Internal_Hbond>
0.0000

> <Gold.Chemscore.DEClash>
0.0000

> <Gold.Chemscore.DEInternal>
2.5950

> <Gold.Chemscore.Rot>
5.4662

> <Gold.Chemscore.Internal.Correction>
   9.000000E+99

> <Gold.Chemscore.Hbonds>
donor molecule, donor type, donor heavy atom, donor atom, acceptor molecule, acceptor atom, score
      L1  H    21    46       P1  7921  0.13
      L1  H    23    47       P1  7948  0.96
      P1  H  6896  6909       L1     7  0.37
      P1  H 10785 10796       L1    19  0.20

> <Gold.Chemscore.Hbond.Weighted>
-7.5682

> <Gold.Chemscore.Metal.Weighted>
-0.0000

> <Gold.Chemscore.Lipo.Weighted>
-9.2650

> <Gold.Chemscore.Internal_Hbond.Weighted>
0.0000

> <Gold.Chemscore.DEClash.Weighted>
0.0000

> <Gold.Chemscore.DEInternal.Weighted>
2.5950

> <Gold.Chemscore.Rot.Weighted>
13.9935

> <Gold.Chemscore.Internal.Correction.Weighted>
   9.000000E+99

> <Gold.Protein.RotatedTorsions>
[ 6907 6896 6895 6894 ] final   -0.94 input  -60.11 | X-H torsion
[ 7974 7965 7964 7962 ] final   16.96 input  175.53 | X-H torsion
[ 8008 7997 7996 7995 ] final   70.91 input   59.86 | X-H torsion
[ 10167 10162 10161 10158 ] final -172.42 input  -65.29 | X-H torsion
[ 10718 10713 10712 10709 ] final    5.09 input   66.30 | X-H torsion
[ 10763 10752 10751 10750 ] final  -52.66 input  -60.55 | X-H torsion
[ 11005 11000 10999 10996 ] final  173.35 input  -57.11 | X-H torsion

> <Gold.Protein.ActiveResidues>
 VAL166  LYS551  ARG553  GLY616  TRP617  ASP618  TYR619  PRO620  LYS621  CYS622 
 ASP623  PHE694  ASN695  SER759  ASP760  ASP761  ALA762  ILE779  LEU786  VAL792 
 PHE793  MET794  SER795  GLU796  ALA797  LYS798  CYS799  TRP800  GLU811  SER814 

> <Gold.Protein.RotatedAtoms>
  151.5541  135.1067  159.9956 H   0  0  0  0  0  0  0  0  0  0  0  0  # atno 6907 bound_to 6896
  152.4477  133.7565  159.6733 H   0  0  0  0  0  0  0  0  0  0  0  0  # atno 6908 bound_to 6896
  150.8397  133.7888  159.3089 H   0  0  0  0  0  0  0  0  0  0  0  0  # atno 6909 bound_to 6896
  146.2233  139.8671  142.8594 H   0  0  0  0  0  0  0  0  0  0  0  0  # atno 7974 bound_to 7965
  155.7459  140.3489  155.5126 H   0  0  0  0  0  0  0  0  0  0  0  0  # atno 8008 bound_to 7997
  155.9051  140.1040  157.1343 H   0  0  0  0  0  0  0  0  0  0  0  0  # atno 8009 bound_to 7997
  154.4048  140.1278  156.4472 H   0  0  0  0  0  0  0  0  0  0  0  0  # atno 8010 bound_to 7997
  139.5746  144.1563  152.1432 H   0  0  0  0  0  0  0  0  0  0  0  0  # atno 10167 bound_to 10162
  156.9023  130.5726  149.5648 H   0  0  0  0  0  0  0  0  0  0  0  0  # atno 10718 bound_to 10713
  154.1463  135.6497  153.4953 H   0  0  0  0  0  0  0  0  0  0  0  0  # atno 10763 bound_to 10752
  153.0151  135.5327  154.6854 H   0  0  0  0  0  0  0  0  0  0  0  0  # atno 10764 bound_to 10752
  154.6129  135.2956  155.0383 H   0  0  0  0  0  0  0  0  0  0  0  0  # atno 10765 bound_to 10752
  140.3395  134.7288  157.4192 H   0  0  0  0  0  0  0  0  0  0  0  0  # atno 11005 bound_to 11000
  145.2645  141.0088  143.3807 LP  0  0  0  0  0  0  0  0  0  0  0  0  # atno 17320 bound_to 7965
  144.9272  139.4341  143.6512 LP  0  0  0  0  0  0  0  0  0  0  0  0  # atno 17321 bound_to 7965
  140.1103  144.5463  150.6929 LP  0  0  0  0  0  0  0  0  0  0  0  0  # atno 17342 bound_to 10162
  140.7029  143.2447  151.4812 LP  0  0  0  0  0  0  0  0  0  0  0  0  # atno 17343 bound_to 10162
  156.0576  130.5635  150.9125 LP  0  0  0  0  0  0  0  0  0  0  0  0  # atno 17370 bound_to 10713
  157.6019  131.0941  150.8946 LP  0  0  0  0  0  0  0  0  0  0  0  0  # atno 17371 bound_to 10713
  140.0793  134.5754  155.8558 LP  0  0  0  0  0  0  0  0  0  0  0  0  # atno 17394 bound_to 11000
  141.2042  133.6637  156.6108 LP  0  0  0  0  0  0  0  0  0  0  0  0  # atno 17395 bound_to 11000

$$$$
