AV-unprocessed.smi:668|AV-procd|sdf|3261|dock3
  -GOLD-   22720 0213D 1   1.00000     0.00000
 Structure written by MMmdl.
 38 39  0  0  0  0  0  0  0  0  1 V2000
  151.2961  141.5147  158.0324 C   0  0  0  0  0  0  0  0  0  0  0  0
  151.0573  141.5635  156.6301 O   0  0  0  0  0  0  0  0  0  0  0  0
  150.3824  140.5126  156.0436 C   0  0  0  0  0  0  0  0  0  0  0  0
  149.4337  139.8082  156.8105 C   0  0  0  0  0  0  0  0  0  0  0  0
  148.7361  138.7376  156.2184 C   0  0  0  0  0  0  0  0  0  0  0  0
  149.0134  138.4006  154.8711 C   0  0  0  0  0  0  0  0  0  0  0  0
  148.3800  137.3551  154.1428 N   0  0  0  0  0  0  0  0  0  0  0  0
  147.1968  136.7548  154.3594 C   0  0  0  0  0  0  0  0  0  0  0  0
  146.4266  136.9972  155.2875 O   0  0  0  0  0  0  0  0  0  0  0  0
  146.9525  135.8266  153.4238 N   0  0  0  0  0  0  0  0  0  0  0  0
  145.7561  134.9834  153.3600 C   0  0  2  0  0  0  0  0  0  0  0  0
  145.7940  134.0252  152.1496 C   0  0  0  0  0  0  0  0  0  0  0  0
  144.4748  134.2084  151.3947 C   0  0  0  0  0  0  0  0  0  0  0  0
  143.5296  134.8722  152.3959 C   0  0  0  0  0  0  0  0  0  0  0  0
  144.4194  135.7727  153.2674 C   0  0  2  0  0  0  0  0  0  0  0  0
  144.5245  137.1895  152.6618 C   0  0  0  0  0  0  0  0  0  0  0  0
  143.3949  137.8973  152.5773 N   0  0  0  0  0  0  0  0  0  0  0  0
  145.6028  137.6410  152.2799 O   0  0  0  0  0  0  0  0  0  0  0  0
  149.9806  139.1706  154.1919 C   0  0  0  0  0  0  0  0  0  0  0  0
  150.6520  140.1980  154.7528 N   0  0  0  0  0  0  0  0  0  0  0  0
  151.8434  142.4066  158.3367 H   0  0  0  0  0  0  0  0  0  0  0  0
  151.9003  140.6478  158.3042 H   0  0  0  0  0  0  0  0  0  0  0  0
  150.3620  141.4911  158.5954 H   0  0  0  0  0  0  0  0  0  0  0  0
  149.2404  140.0870  157.8359 H   0  0  0  0  0  0  0  0  0  0  0  0
  148.0053  138.2127  156.8117 H   0  0  0  0  0  0  0  0  0  0  0  0
  148.9045  137.0105  153.3522 H   0  0  0  0  0  0  0  0  0  0  0  0
  147.6452  135.6836  152.7033 H   0  0  0  0  0  0  0  0  0  0  0  0
  145.7140  134.3825  154.2708 H   0  0  0  0  0  0  0  0  0  0  0  0
  146.6412  134.2128  151.4882 H   0  0  0  0  0  0  0  0  0  0  0  0
  145.8877  132.9970  152.5011 H   0  0  0  0  0  0  0  0  0  0  0  0
  144.6299  134.8667  150.5392 H   0  0  0  0  0  0  0  0  0  0  0  0
  144.0795  133.2668  151.0128 H   0  0  0  0  0  0  0  0  0  0  0  0
  142.7217  135.4109  151.8982 H   0  0  0  0  0  0  0  0  0  0  0  0
  143.0662  134.1087  153.0221 H   0  0  0  0  0  0  0  0  0  0  0  0
  143.9810  135.8641  154.2629 H   0  0  0  0  0  0  0  0  0  0  0  0
  143.4104  138.8300  152.1909 H   0  0  0  0  0  0  0  0  0  0  0  0
  142.5276  137.4960  152.9033 H   0  0  0  0  0  0  0  0  0  0  0  0
  150.2250  138.9570  153.1615 H   0  0  0  0  0  0  0  0  0  0  0  0
  1  2  1  0  0  0  0
  1 21  1  0  0  0  0
  1 22  1  0  0  0  0
  1 23  1  0  0  0  0
  2  3  1  0  0  0  0
  3 20  1  0  0  0  0
  3  4  2  0  0  0  0
  4  5  1  0  0  0  0
  4 24  1  0  0  0  0
  5  6  2  0  0  0  0
  5 25  1  0  0  0  0
  6  7  1  0  0  0  0
  6 19  1  0  0  0  0
  7  8  1  0  0  0  0
  7 26  1  0  0  0  0
  8  9  2  0  0  0  0
  8 10  1  0  0  0  0
 10 11  1  0  0  0  0
 10 27  1  0  0  0  0
 11 15  1  0  0  0  0
 11 12  1  0  0  0  0
 11 28  1  0  0  0  0
 12 13  1  0  0  0  0
 12 29  1  0  0  0  0
 12 30  1  0  0  0  0
 13 14  1  0  0  0  0
 13 31  1  0  0  0  0
 13 32  1  0  0  0  0
 14 15  1  0  0  0  0
 14 33  1  0  0  0  0
 14 34  1  0  0  0  0
 15 16  1  0  0  0  0
 15 35  1  0  0  0  0
 16 17  1  0  0  0  0
 16 18  2  0  0  0  0
 17 36  1  0  0  0  0
 17 37  1  0  0  0  0
 19 20  2  0  0  0  0
 19 38  1  0  0  0  0
M  END
> <s_m_source_file>
AV-unprocessed.smi

> <i_m_source_file_index>
668

> <i_lp_mmshare_version>
43012

> <i_f3d_flags>
0

> <s_epik_input>
W0NIM11PYzFbY0hdW2NIXWMoW2NIXW4xKVtOSF1DKD1PKVtOSF1bQ0BASF0yW0NIMl1bQ0gyXVtDSDJdW0NASF0yQyg9TylbTkgyXQ==

> <s_epik_cmdline>
J2VwaWtfcHl0aG9uJywgJy1waCcsICc3LjAnLCAnLXRuJywgJzgnLCAnLW1hJywgJzIwMCcsICctbWV0YWxfYmluZGluZycsICctaW1hZScsICc8aW5maWxlLm1hZT4nLCAnLW9tYWUnLCAnPG91dGZpbGUubWFlPic=

> <r_lp_tautomer_probability>
1

> <r_epik_Ionization_Penalty>
9.0916e-05

> <r_epik_Ionization_Penalty_Charging>
0

> <r_epik_Ionization_Penalty_Neutral>
9.0916e-05

> <r_epik_State_Penalty>
-0

> <r_epik_Charging_Adjusted_Penalty>
0

> <i_epik_Tot_Q>
0

> <i_epik_Tot_abs_Q>
0

> <r_epik_Metal_State_Penalty>
-0

> <b_epik_Metal_Only>
0

> <s_lp_Force_Field>
OPLS_2005

> <r_lp_Energy>
18.8655

> <b_lp_Chiralities_Consistent>
1

> <s_lp_Variant>
AV-unprocessed.smi:668-3

> <Gold.Version>
5.8.1

> <Gold.Id.Protein>
6NUR|6NUR_protein|mol2

> <Gold.PLP.Fitness>
37.4903

> <Gold.PLP.PLP>
-23.4822

> <Gold.PLP.part.hbond>
-5.0000

> <Gold.PLP.part.metal>
0.0000

> <Gold.PLP.part.buried>
-4.0069

> <Gold.PLP.part.nonpolar>
-15.0485

> <Gold.PLP.part.repulsive>
0.4636

> <Gold.PLP.ligand.clash>
0.0000

> <Gold.PLP.ligand.torsion>
0.4943

> <Gold.PLP.Chemscore.Hbond>
3.9920

> <Gold.PLP.Chemscore.CHOScore>
1.0000

> <Gold.PLP.Chemscore.Metal>
0.0000

> <Gold.Chemscore.Hbonds>
donor molecule, donor type, donor heavy atom, donor atom, acceptor molecule, acceptor atom, score
      L1  H     7    26       P1  7948  1.00
      L1  H    10    27       P1  7948  1.00
      L1  H    17    36       P1 10175  0.96
      P1  H  7989  7998       L1    20  1.00
      L1  C    19    38       P1  7957  1.00

> <Gold.PLP.Chemscore.Internal.Correction>
0.0208

> <Gold.Rescore>
     Score         DG    S(hbond)    S(metal)    S(lipo)     H(rot)  DE(clash)    DE(int)     intcor
     12.51     -16.99       3.46        0.00      40.40       1.86       0.10       4.38       ----

> <Gold.Chemscore.Fitness>
12.5079

> <Gold.Chemscore.DG>
-16.9867

> <Gold.Chemscore.ZeroCoef>
-5.4800

> <Gold.Chemscore.Hbond>
3.4592

> <Gold.Chemscore.Metal>
0.0000

> <Gold.Chemscore.Lipo>
40.4019

> <Gold.Chemscore.Internal_Hbond>
0.0000

> <Gold.Chemscore.DEClash>
0.0991

> <Gold.Chemscore.DEInternal>
4.3797

> <Gold.Chemscore.Rot>
1.8648

> <Gold.Chemscore.Internal.Correction>
   9.000000E+99

> <Gold.Chemscore.Hbonds>
donor molecule, donor type, donor heavy atom, donor atom, acceptor molecule, acceptor atom, score
      L1  H     7    26       P1  7948  0.96
      L1  H    10    27       P1  7948  0.95
      L1  H    17    36       P1 10175  0.92
      P1  H  7989  7998       L1    20  0.55

> <Gold.Chemscore.Hbond.Weighted>
-11.5536

> <Gold.Chemscore.Metal.Weighted>
-0.0000

> <Gold.Chemscore.Lipo.Weighted>
-4.7270

> <Gold.Chemscore.Internal_Hbond.Weighted>
0.0000

> <Gold.Chemscore.DEClash.Weighted>
0.0991

> <Gold.Chemscore.DEInternal.Weighted>
4.3797

> <Gold.Chemscore.Rot.Weighted>
4.7739

> <Gold.Chemscore.Internal.Correction.Weighted>
   9.000000E+99

> <Gold.Protein.RotatedTorsions>
[ 6907 6896 6895 6894 ] final  110.39 input  -60.11 | X-H torsion
[ 7974 7965 7964 7962 ] final  117.15 input  175.53 | X-H torsion
[ 8008 7997 7996 7995 ] final  100.00 input   59.86 | X-H torsion
[ 10167 10162 10161 10158 ] final  -26.71 input  -65.29 | X-H torsion
[ 10718 10713 10712 10709 ] final  -26.39 input   66.30 | X-H torsion
[ 10763 10752 10751 10750 ] final  120.05 input  -60.55 | X-H torsion
[ 11005 11000 10999 10996 ] final  -17.54 input  -57.11 | X-H torsion

> <Gold.Protein.ActiveResidues>
 VAL166  LYS551  ARG553  GLY616  TRP617  ASP618  TYR619  PRO620  LYS621  CYS622 
 ASP623  PHE694  ASN695  SER759  ASP760  ASP761  ALA762  ILE779  LEU786  VAL792 
 PHE793  MET794  SER795  GLU796  ALA797  LYS798  CYS799  TRP800  GLU811  SER814 

> <Gold.Protein.RotatedAtoms>
  152.5022  133.8807  159.7344 H   0  0  0  0  0  0  0  0  0  0  0  0  # atno 6907 bound_to 6896
  150.9270  133.6803  159.2826 H   0  0  0  0  0  0  0  0  0  0  0  0  # atno 6908 bound_to 6896
  151.4160  135.0996  159.9652 H   0  0  0  0  0  0  0  0  0  0  0  0  # atno 6909 bound_to 6896
  145.1709  139.3102  143.4468 H   0  0  0  0  0  0  0  0  0  0  0  0  # atno 7974 bound_to 7965
  156.1160  140.3220  155.8140 H   0  0  0  0  0  0  0  0  0  0  0  0  # atno 8008 bound_to 7997
  155.4589  140.0538  157.3010 H   0  0  0  0  0  0  0  0  0  0  0  0  # atno 8009 bound_to 7997
  154.4793  140.2046  155.9815 H   0  0  0  0  0  0  0  0  0  0  0  0  # atno 8010 bound_to 7997
  140.7281  143.4155  151.1035 H   0  0  0  0  0  0  0  0  0  0  0  0  # atno 10167 bound_to 10162
  156.4518  130.4485  149.6985 H   0  0  0  0  0  0  0  0  0  0  0  0  # atno 10718 bound_to 10713
  153.5924  135.3463  155.2915 H   0  0  0  0  0  0  0  0  0  0  0  0  # atno 10763 bound_to 10752
  154.8650  135.4208  154.2501 H   0  0  0  0  0  0  0  0  0  0  0  0  # atno 10764 bound_to 10752
  153.3312  135.7044  153.7017 H   0  0  0  0  0  0  0  0  0  0  0  0  # atno 10765 bound_to 10752
  140.8178  133.8091  155.9629 H   0  0  0  0  0  0  0  0  0  0  0  0  # atno 11005 bound_to 11000
  146.3468  140.1854  142.8589 LP  0  0  0  0  0  0  0  0  0  0  0  0  # atno 17320 bound_to 7965
  145.0234  140.8812  143.5153 LP  0  0  0  0  0  0  0  0  0  0  0  0  # atno 17321 bound_to 7965
  139.7794  143.8377  152.3135 LP  0  0  0  0  0  0  0  0  0  0  0  0  # atno 17342 bound_to 10162
  139.8323  144.7248  150.9434 LP  0  0  0  0  0  0  0  0  0  0  0  0  # atno 17343 bound_to 10162
  156.3808  130.7578  151.2571 LP  0  0  0  0  0  0  0  0  0  0  0  0  # atno 17370 bound_to 10713
  157.7502  131.0296  150.4100 LP  0  0  0  0  0  0  0  0  0  0  0  0  # atno 17371 bound_to 10713
  140.9130  134.2236  157.4974 LP  0  0  0  0  0  0  0  0  0  0  0  0  # atno 17394 bound_to 11000
  139.8710  134.9759  156.4899 LP  0  0  0  0  0  0  0  0  0  0  0  0  # atno 17395 bound_to 11000

$$$$
