AV-unprocessed.smi:148|AV-procd|sdf|1222|dock5
  -GOLD-   2262018413D 1   1.00000     0.00000
 Structure written by MMmdl.
 63 67  0  0  0  0  0  0  0  0  1 V2000
  147.1865  138.6675  152.7247 O   0  0  0  0  0  0  0  0  0  0  0  0
  146.7759  138.4867  154.0640 C   0  0  0  0  0  0  0  0  0  0  0  0
  147.8760  138.9438  155.0531 C   0  0  2  0  0  0  0  0  0  0  0  0
  147.8442  138.1484  156.3871 C   0  0  0  0  0  0  0  0  0  0  0  0
  148.9602  138.4629  157.2604 N   0  0  0  0  0  0  0  0  0  0  0  0
  149.0052  138.3124  158.6288 C   0  0  0  0  0  0  0  0  0  0  0  0
  150.1373  138.6424  159.1882 N   0  0  0  0  0  0  0  0  0  0  0  0
  150.9246  139.0619  158.1243 C   0  0  0  0  0  0  0  0  0  0  0  0
  152.2626  139.5190  158.0092 C   0  0  0  0  0  0  0  0  0  0  0  0
  153.0756  139.6132  159.0829 N   0  0  0  0  0  0  0  0  0  0  0  0
  153.1352  138.3295  159.7849 C   0  0  0  0  0  0  0  0  0  0  0  0
  154.2814  138.3026  160.8005 C   0  0  0  0  0  0  0  0  0  0  0  0
  154.1408  139.4753  161.7720 C   0  0  0  0  0  0  0  0  0  0  0  0
  154.0741  140.7948  160.9921 C   0  0  0  0  0  0  0  0  0  0  0  0
  152.9344  140.8125  159.9358 C   0  0  1  0  0  0  0  0  0  0  0  0
  152.9412  142.1688  159.1447 C   0  0  1  0  0  0  0  0  0  0  0  0
  151.7069  142.4773  158.2668 C   0  0  0  0  0  0  0  0  0  0  0  0
  151.6466  144.0018  158.0928 C   0  0  0  0  0  0  0  0  0  0  0  0
  152.7055  144.5810  159.0348 C   0  0  0  0  0  0  0  0  0  0  0  0
  153.0449  143.4476  160.0036 C   0  0  1  0  0  0  0  0  0  0  0  0
  152.0867  143.4497  161.0477 O   0  0  0  0  0  0  0  0  0  0  0  0
  152.7216  139.8549  156.7745 N   0  0  0  0  0  0  0  0  0  0  0  0
  151.9179  139.7356  155.7129 C   0  0  0  0  0  0  0  0  0  0  0  0
  150.6546  139.3050  155.6653 N   0  0  0  0  0  0  0  0  0  0  0  0
  150.1962  138.9730  156.9067 C   0  0  0  0  0  0  0  0  0  0  0  0
  147.8728  140.4847  155.2609 C   0  0  1  0  0  0  0  0  0  0  0  0
  147.9315  141.3173  153.9762 C   0  0  0  0  0  0  0  0  0  0  0  0
  146.8023  142.3321  154.1373 C   0  0  0  0  0  0  0  0  0  0  0  0
  145.8724  141.6599  154.9693 O   0  0  0  0  0  0  0  0  0  0  0  0
  146.6291  141.0222  155.9855 C   0  0  0  0  0  0  0  0  0  0  0  0
  147.8679  138.0419  152.5307 H   0  0  0  0  0  0  0  0  0  0  0  0
  145.8451  139.0282  154.2331 H   0  0  0  0  0  0  0  0  0  0  0  0
  146.5517  137.4269  154.1839 H   0  0  0  0  0  0  0  0  0  0  0  0
  148.8293  138.7048  154.5789 H   0  0  0  0  0  0  0  0  0  0  0  0
  146.9286  138.3521  156.9418 H   0  0  0  0  0  0  0  0  0  0  0  0
  147.8564  137.0747  156.2042 H   0  0  0  0  0  0  0  0  0  0  0  0
  148.1712  137.9328  159.2012 H   0  0  0  0  0  0  0  0  0  0  0  0
  152.1888  138.1499  160.2972 H   0  0  0  0  0  0  0  0  0  0  0  0
  153.2684  137.5169  159.0686 H   0  0  0  0  0  0  0  0  0  0  0  0
  154.2792  137.3583  161.3453 H   0  0  0  0  0  0  0  0  0  0  0  0
  155.2381  138.3637  160.2803 H   0  0  0  0  0  0  0  0  0  0  0  0
  153.2382  139.3547  162.3723 H   0  0  0  0  0  0  0  0  0  0  0  0
  154.9809  139.4906  162.4670 H   0  0  0  0  0  0  0  0  0  0  0  0
  153.9553  141.5990  161.7162 H   0  0  0  0  0  0  0  0  0  0  0  0
  155.0311  140.9668  160.4969 H   0  0  0  0  0  0  0  0  0  0  0  0
  151.9854  140.7280  160.4672 H   0  0  0  0  0  0  0  0  0  0  0  0
  153.8154  142.1645  158.4908 H   0  0  0  0  0  0  0  0  0  0  0  0
  151.7469  141.9972  157.2913 H   0  0  0  0  0  0  0  0  0  0  0  0
  150.7991  142.1329  158.7638 H   0  0  0  0  0  0  0  0  0  0  0  0
  151.8455  144.2949  157.0613 H   0  0  0  0  0  0  0  0  0  0  0  0
  150.6534  144.3704  158.3515 H   0  0  0  0  0  0  0  0  0  0  0  0
  153.5950  144.8364  158.4573 H   0  0  0  0  0  0  0  0  0  0  0  0
  152.3739  145.4910  159.5366 H   0  0  0  0  0  0  0  0  0  0  0  0
  154.0397  143.5823  160.4295 H   0  0  0  0  0  0  0  0  0  0  0  0
  151.2654  143.1351  160.7022 H   0  0  0  0  0  0  0  0  0  0  0  0
  152.3517  140.0181  154.7651 H   0  0  0  0  0  0  0  0  0  0  0  0
  148.7319  140.7440  155.8807 H   0  0  0  0  0  0  0  0  0  0  0  0
  148.8974  141.8056  153.8430 H   0  0  0  0  0  0  0  0  0  0  0  0
  147.7559  140.7105  153.0893 H   0  0  0  0  0  0  0  0  0  0  0  0
  147.1567  143.2337  154.6394 H   0  0  0  0  0  0  0  0  0  0  0  0
  146.3567  142.6210  153.1853 H   0  0  0  0  0  0  0  0  0  0  0  0
  146.0516  140.2534  156.4994 H   0  0  0  0  0  0  0  0  0  0  0  0
  146.9151  141.7676  156.7295 H   0  0  0  0  0  0  0  0  0  0  0  0
  1  2  1  0  0  0  0
  1 31  1  0  0  0  0
  2  3  1  0  0  0  0
  2 32  1  0  0  0  0
  2 33  1  0  0  0  0
  3  4  1  0  0  0  0
  3 26  1  0  0  0  0
  3 34  1  0  0  0  0
  4  5  1  0  0  0  0
  4 35  1  0  0  0  0
  4 36  1  0  0  0  0
  5 25  1  0  0  0  0
  5  6  1  0  0  0  0
  6  7  2  0  0  0  0
  6 37  1  0  0  0  0
  7  8  1  0  0  0  0
  8 25  2  0  0  0  0
  8  9  1  0  0  0  0
  9 10  1  0  0  0  0
  9 22  2  0  0  0  0
 10 15  1  0  0  0  0
 10 11  1  0  0  0  0
 11 12  1  0  0  0  0
 11 38  1  0  0  0  0
 11 39  1  0  0  0  0
 12 13  1  0  0  0  0
 12 40  1  0  0  0  0
 12 41  1  0  0  0  0
 13 14  1  0  0  0  0
 13 42  1  0  0  0  0
 13 43  1  0  0  0  0
 14 15  1  0  0  0  0
 14 44  1  0  0  0  0
 14 45  1  0  0  0  0
 15 16  1  0  0  0  0
 15 46  1  0  0  0  0
 16 20  1  0  0  0  0
 16 17  1  0  0  0  0
 16 47  1  0  0  0  0
 17 18  1  0  0  0  0
 17 48  1  0  0  0  0
 17 49  1  0  0  0  0
 18 19  1  0  0  0  0
 18 50  1  0  0  0  0
 18 51  1  0  0  0  0
 19 20  1  0  0  0  0
 19 52  1  0  0  0  0
 19 53  1  0  0  0  0
 20 21  1  0  0  0  0
 20 54  1  0  0  0  0
 21 55  1  0  0  0  0
 22 23  1  0  0  0  0
 23 24  2  0  0  0  0
 23 56  1  0  0  0  0
 24 25  1  0  0  0  0
 26 30  1  0  0  0  0
 26 27  1  0  0  0  0
 26 57  1  0  0  0  0
 27 28  1  0  0  0  0
 27 58  1  0  0  0  0
 27 59  1  0  0  0  0
 28 29  1  0  0  0  0
 28 60  1  0  0  0  0
 28 61  1  0  0  0  0
 29 30  1  0  0  0  0
 30 62  1  0  0  0  0
 30 63  1  0  0  0  0
M  END
> <s_m_source_file>
AV-unprocessed.smi

> <i_m_source_file_index>
148

> <i_lp_mmshare_version>
43012

> <i_f3d_flags>
0

> <s_epik_input>
W0NIMl0xT1tDSDJdW0NIMl1bQ0BIXTFbQ0BIXShbQ0gyXVtPSF0pW0NIMl1uKFtjSF1uMiljKGMyMyluW2NIXW5jM040W0NIMl1bQ0gyXVtDSDJdW0NIMl1bQ0BIXTRbQ0BASF01W0NIMl1bQ0gyXVtDSDJdW0NASF01W09IXQ==

> <s_epik_cmdline>
J2VwaWtfcHl0aG9uJywgJy1waCcsICc3LjAnLCAnLXRuJywgJzgnLCAnLW1hJywgJzIwMCcsICctbWV0YWxfYmluZGluZycsICctaW1hZScsICc8aW5maWxlLm1hZT4nLCAnLW9tYWUnLCAnPG91dGZpbGUubWFlPic=

> <r_lp_tautomer_probability>
1

> <r_epik_Ionization_Penalty>
0.00556303

> <r_epik_Ionization_Penalty_Charging>
0

> <r_epik_Ionization_Penalty_Neutral>
0.00556303

> <r_epik_State_Penalty>
0.00401767

> <r_epik_Charging_Adjusted_Penalty>
0.00401767

> <i_epik_Tot_Q>
0

> <i_epik_Tot_abs_Q>
0

> <r_epik_Metal_State_Penalty>
-0

> <b_epik_Metal_Only>
0

> <s_lp_Force_Field>
OPLS_2005

> <r_lp_Energy>
71.6968

> <b_lp_Chiralities_Consistent>
1

> <s_lp_Variant>
AV-unprocessed.smi:148-21

> <Gold.Version>
5.8.1

> <Gold.Id.Protein>
6NUR|6NUR_protein|mol2

> <Gold.PLP.Fitness>
52.5113

> <Gold.PLP.PLP>
-48.0617

> <Gold.PLP.part.hbond>
-3.6517

> <Gold.PLP.part.metal>
0.0000

> <Gold.PLP.part.buried>
-6.7935

> <Gold.PLP.part.nonpolar>
-37.8504

> <Gold.PLP.part.repulsive>
0.1734

> <Gold.PLP.ligand.clash>
0.0000

> <Gold.PLP.ligand.torsion>
1.1163

> <Gold.PLP.Chemscore.Hbond>
2.0000

> <Gold.PLP.Chemscore.CHOScore>
0.0000

> <Gold.PLP.Chemscore.Metal>
0.0000

> <Gold.Chemscore.Hbonds>
donor molecule, donor type, donor heavy atom, donor atom, acceptor molecule, acceptor atom, score
      L1  H     1    31       P1  7948  0.59
      P1  H  7997  8010       L1    22  1.00

> <Gold.PLP.Chemscore.Internal.Correction>
0.6821

> <Gold.Rescore>
     Score         DG    S(hbond)    S(metal)    S(lipo)     H(rot)  DE(clash)    DE(int)     intcor
     15.53     -18.19       1.91        0.00     126.73       3.32       0.08       2.58       ----

> <Gold.Chemscore.Fitness>
15.5331

> <Gold.Chemscore.DG>
-18.1912

> <Gold.Chemscore.ZeroCoef>
-5.4800

> <Gold.Chemscore.Hbond>
1.9113

> <Gold.Chemscore.Metal>
0.0000

> <Gold.Chemscore.Lipo>
126.7307

> <Gold.Chemscore.Internal_Hbond>
0.0000

> <Gold.Chemscore.DEClash>
0.0807

> <Gold.Chemscore.DEInternal>
2.5775

> <Gold.Chemscore.Rot>
3.3203

> <Gold.Chemscore.Internal.Correction>
   9.000000E+99

> <Gold.Chemscore.Hbonds>
donor molecule, donor type, donor heavy atom, donor atom, acceptor molecule, acceptor atom, score
      L1  H     1    31       P1  7948  0.58
      P1  H  7997  8010       L1    22  0.94

> <Gold.Chemscore.Hbond.Weighted>
-6.3837

> <Gold.Chemscore.Metal.Weighted>
-0.0000

> <Gold.Chemscore.Lipo.Weighted>
-14.8275

> <Gold.Chemscore.Internal_Hbond.Weighted>
0.0000

> <Gold.Chemscore.DEClash.Weighted>
0.0807

> <Gold.Chemscore.DEInternal.Weighted>
2.5775

> <Gold.Chemscore.Rot.Weighted>
8.5000

> <Gold.Chemscore.Internal.Correction.Weighted>
   9.000000E+99

> <Gold.Protein.RotatedTorsions>
[ 6907 6896 6895 6894 ] final  -45.31 input  -60.11 | X-H torsion
[ 7974 7965 7964 7962 ] final  -48.61 input  175.53 | X-H torsion
[ 8008 7997 7996 7995 ] final   62.35 input   59.86 | X-H torsion
[ 10167 10162 10161 10158 ] final  -30.29 input  -65.29 | X-H torsion
[ 10718 10713 10712 10709 ] final   50.75 input   66.30 | X-H torsion
[ 10763 10752 10751 10750 ] final -133.27 input  -60.55 | X-H torsion
[ 11005 11000 10999 10996 ] final  -60.76 input  -57.11 | X-H torsion

> <Gold.Protein.ActiveResidues>
 VAL166  LYS551  ARG553  GLY616  TRP617  ASP618  TYR619  PRO620  LYS621  CYS622 
 ASP623  PHE694  ASN695  SER759  ASP760  ASP761  ALA762  ILE779  LEU786  VAL792 
 PHE793  MET794  SER795  GLU796  ALA797  LYS798  CYS799  TRP800  GLU811  SER814 

> <Gold.Protein.RotatedAtoms>
  150.9233  134.8650  159.7503 H   0  0  0  0  0  0  0  0  0  0  0  0  # atno 6907 bound_to 6896
  152.5003  134.4186  159.9483 H   0  0  0  0  0  0  0  0  0  0  0  0  # atno 6908 bound_to 6896
  151.4218  133.3656  159.2792 H   0  0  0  0  0  0  0  0  0  0  0  0  # atno 6909 bound_to 6896
  145.9494  140.7587  142.9512 H   0  0  0  0  0  0  0  0  0  0  0  0  # atno 7974 bound_to 7965
  155.6129  140.3495  155.4628 H   0  0  0  0  0  0  0  0  0  0  0  0  # atno 8008 bound_to 7997
  156.0140  140.1239  157.0449 H   0  0  0  0  0  0  0  0  0  0  0  0  # atno 8009 bound_to 7997
  154.4291  140.1076  156.5855 H   0  0  0  0  0  0  0  0  0  0  0  0  # atno 8010 bound_to 7997
  140.7251  143.3860  151.1514 H   0  0  0  0  0  0  0  0  0  0  0  0  # atno 10167 bound_to 10162
  157.4914  130.8379  149.8208 H   0  0  0  0  0  0  0  0  0  0  0  0  # atno 10718 bound_to 10713
  154.8734  135.3771  154.4545 H   0  0  0  0  0  0  0  0  0  0  0  0  # atno 10763 bound_to 10752
  153.5219  135.7029  153.5732 H   0  0  0  0  0  0  0  0  0  0  0  0  # atno 10764 bound_to 10752
  153.3975  135.3956  155.1931 H   0  0  0  0  0  0  0  0  0  0  0  0  # atno 10765 bound_to 10752
  141.1299  133.6624  156.5272 H   0  0  0  0  0  0  0  0  0  0  0  0  # atno 11005 bound_to 11000
  144.6793  140.2409  143.7344 LP  0  0  0  0  0  0  0  0  0  0  0  0  # atno 17320 bound_to 7965
  145.8192  139.2036  143.1948 LP  0  0  0  0  0  0  0  0  0  0  0  0  # atno 17321 bound_to 7965
  139.7458  143.8855  152.3063 LP  0  0  0  0  0  0  0  0  0  0  0  0  # atno 17342 bound_to 10162
  139.8691  144.7077  150.9008 LP  0  0  0  0  0  0  0  0  0  0  0  0  # atno 17343 bound_to 10162
  156.0176  130.3808  150.2062 LP  0  0  0  0  0  0  0  0  0  0  0  0  # atno 17370 bound_to 10713
  157.0251  130.9991  151.3328 LP  0  0  0  0  0  0  0  0  0  0  0  0  # atno 17371 bound_to 10713
  140.4244  134.7158  157.4908 LP  0  0  0  0  0  0  0  0  0  0  0  0  # atno 17394 bound_to 11000
  140.0337  134.6369  155.9072 LP  0  0  0  0  0  0  0  0  0  0  0  0  # atno 17395 bound_to 11000

$$$$
