AV-unprocessed.smi:942|AV-procd|sdf|4221|dock3
  -GOLD-   22720 2133D 1   1.00000     0.00000
 Structure written by MMmdl.
 43 45  0  0  0  0  0  0  0  0  2 V2000
  150.7719  140.0674  158.7376 O   0  0  0  0  0  0  0  0  0  0  0  0
  151.0599  140.9158  157.8925 C   0  0  0  0  0  0  0  0  0  0  0  0
  150.6853  140.8262  156.6068 N   0  0  0  0  0  0  0  0  0  0  0  0
  149.9011  139.7315  156.0420 C   0  0  2  0  0  0  0  0  0  0  0  0
  150.6446  138.3896  156.1926 C   0  0  0  0  0  0  0  0  0  0  0  0
  150.9707  137.9105  154.7750 C   0  0  0  0  0  0  0  0  0  0  0  0
  149.8843  138.5304  153.9015 C   0  0  0  0  0  0  0  0  0  0  0  0
  149.6753  139.9154  154.5222 C   0  0  1  0  0  0  0  0  0  0  0  0
  148.3861  140.5341  154.1779 N   0  0  0  0  0  0  0  0  0  0  0  0
  148.0006  141.8248  154.4377 C   0  0  0  0  0  0  0  0  0  0  0  0
  146.7230  141.9582  153.9590 C   0  0  0  0  0  0  0  0  0  0  0  0
  146.3813  140.7452  153.4244 N   0  3  0  0  0  0  0  0  0  0  0  0
  147.3928  139.8814  153.5570 C   0  0  0  0  0  0  0  0  0  0  0  0
  151.8802  142.1510  158.2850 C   0  0  0  0  0  0  0  0  0  0  0  0
  152.1483  142.1751  159.8053 C   0  0  0  0  0  0  0  0  0  0  0  0
  152.9558  143.4188  160.2106 C   0  0  0  0  0  0  0  0  0  0  0  0
  152.2501  144.7093  159.7649 C   0  0  0  0  0  0  0  0  0  0  0  0
  151.9688  144.6949  158.2541 C   0  0  0  0  0  0  0  0  0  0  0  0
  151.1660  143.4480  157.8477 C   0  0  0  0  0  0  0  0  0  0  0  0
  150.9617  141.5658  155.9770 H   0  0  0  0  0  0  0  0  0  0  0  0
  148.9547  139.6544  156.5803 H   0  0  0  0  0  0  0  0  0  0  0  0
  151.5423  138.4596  156.8090 H   0  0  0  0  0  0  0  0  0  0  0  0
  149.9855  137.6662  156.6743 H   0  0  0  0  0  0  0  0  0  0  0  0
  151.9461  138.2948  154.4733 H   0  0  0  0  0  0  0  0  0  0  0  0
  151.0034  136.8235  154.6970 H   0  0  0  0  0  0  0  0  0  0  0  0
  150.1704  138.5809  152.8505 H   0  0  0  0  0  0  0  0  0  0  0  0
  148.9776  137.9284  153.9721 H   0  0  0  0  0  0  0  0  0  0  0  0
  150.4570  140.5660  154.1240 H   0  0  0  0  0  0  0  0  0  0  0  0
  148.6450  142.5337  154.9373 H   0  0  0  0  0  0  0  0  0  0  0  0
  146.0490  142.8024  153.9602 H   0  0  0  0  0  0  0  0  0  0  0  0
  147.4015  138.8561  153.2323 H   0  0  0  0  0  0  0  0  0  0  0  0
  152.8425  142.1023  157.7716 H   0  0  0  0  0  0  0  0  0  0  0  0
  151.2056  142.1666  160.3549 H   0  0  0  0  0  0  0  0  0  0  0  0
  152.6889  141.2765  160.1063 H   0  0  0  0  0  0  0  0  0  0  0  0
  153.1042  143.4302  161.2908 H   0  0  0  0  0  0  0  0  0  0  0  0
  153.9490  143.3718  159.7624 H   0  0  0  0  0  0  0  0  0  0  0  0
  151.3120  144.8196  160.3105 H   0  0  0  0  0  0  0  0  0  0  0  0
  152.8612  145.5752  160.0214 H   0  0  0  0  0  0  0  0  0  0  0  0
  151.4254  145.5962  157.9694 H   0  0  0  0  0  0  0  0  0  0  0  0
  152.9118  144.7173  157.7068 H   0  0  0  0  0  0  0  0  0  0  0  0
  151.0168  143.4484  156.7671 H   0  0  0  0  0  0  0  0  0  0  0  0
  150.1726  143.5010  158.2961 H   0  0  0  0  0  0  0  0  0  0  0  0
  145.4907  140.5291  152.9944 H   0  0  0  0  0  0  0  0  0  0  0  0
  1  2  2  0  0  0  0
  2  3  1  0  0  0  0
  2 14  1  0  0  0  0
  3  4  1  0  0  0  0
  3 20  1  0  0  0  0
  4  8  1  0  0  0  0
  4  5  1  0  0  0  0
  4 21  1  0  0  0  0
  5  6  1  0  0  0  0
  5 22  1  0  0  0  0
  5 23  1  0  0  0  0
  6  7  1  0  0  0  0
  6 24  1  0  0  0  0
  6 25  1  0  0  0  0
  7  8  1  0  0  0  0
  7 26  1  0  0  0  0
  7 27  1  0  0  0  0
  8  9  1  0  0  0  0
  8 28  1  0  0  0  0
  9 13  1  0  0  0  0
  9 10  1  0  0  0  0
 10 11  2  0  0  0  0
 10 29  1  0  0  0  0
 11 12  1  0  0  0  0
 11 30  1  0  0  0  0
 12 13  2  0  0  0  0
 12 43  1  0  0  0  0
 13 31  1  0  0  0  0
 14 19  1  0  0  0  0
 14 15  1  0  0  0  0
 14 32  1  0  0  0  0
 15 16  1  0  0  0  0
 15 33  1  0  0  0  0
 15 34  1  0  0  0  0
 16 17  1  0  0  0  0
 16 35  1  0  0  0  0
 16 36  1  0  0  0  0
 17 18  1  0  0  0  0
 17 37  1  0  0  0  0
 17 38  1  0  0  0  0
 18 19  1  0  0  0  0
 18 39  1  0  0  0  0
 18 40  1  0  0  0  0
 19 41  1  0  0  0  0
 19 42  1  0  0  0  0
M  CHG  1  12   1
M  END
> <s_m_source_file>
AV-unprocessed.smi

> <i_m_source_file_index>
942

> <i_lp_mmshare_version>
43012

> <i_f3d_flags>
0

> <s_epik_input>
W0NIMl0xW0NIMl1bQ0gyXVtDSDJdW0NIMl1bQ0hdMUMoPU8pW05IXVtDQEBIXTJbQ0gyXVtDSDJdW0NIMl1bQ0BIXTJuM1tjSF1bY0hdbltjSF0z

> <s_epik_cmdline>
J2VwaWtfcHl0aG9uJywgJy1waCcsICc3LjAnLCAnLXRuJywgJzgnLCAnLW1hJywgJzIwMCcsICctbWV0YWxfYmluZGluZycsICctaW1hZScsICc8aW5maWxlLm1hZT4nLCAnLW9tYWUnLCAnPG91dGZpbGUubWFlPic=

> <r_lp_tautomer_probability>
1

> <r_epik_Ionization_Penalty>
0.185467

> <r_epik_Ionization_Penalty_Charging>
0

> <r_epik_Ionization_Penalty_Neutral>
0.185467

> <r_epik_State_Penalty>
0.175036

> <r_epik_Charging_Adjusted_Penalty>
0.175036

> <i_epik_Tot_Q>
1

> <i_epik_Tot_abs_Q>
1

> <r_epik_Metal_State_Penalty>
0.487091

> <b_epik_Metal_Only>
0

> <s_lp_Force_Field>
OPLS_2005

> <r_lp_Energy>
31.9707

> <b_lp_Chiralities_Consistent>
1

> <s_lp_Variant>
AV-unprocessed.smi:942-1

> <Gold.Version>
5.8.1

> <Gold.Id.Protein>
6NUR|6NUR_protein|mol2

> <Gold.PLP.Fitness>
50.0093

> <Gold.PLP.PLP>
-41.4274

> <Gold.PLP.part.hbond>
-1.0000

> <Gold.PLP.part.metal>
0.0000

> <Gold.PLP.part.buried>
-1.3896

> <Gold.PLP.part.nonpolar>
-39.1823

> <Gold.PLP.part.repulsive>
0.0929

> <Gold.PLP.ligand.clash>
0.0000

> <Gold.PLP.ligand.torsion>
0.2179

> <Gold.PLP.Chemscore.Hbond>
2.0000

> <Gold.PLP.Chemscore.CHOScore>
1.0000

> <Gold.PLP.Chemscore.Metal>
0.0000

> <Gold.Chemscore.Hbonds>
donor molecule, donor type, donor heavy atom, donor atom, acceptor molecule, acceptor atom, score
      L1  H    12    43       P1 10175  2.00
      L1  C    10    29       P1  8028  1.00

> <Gold.PLP.Chemscore.Internal.Correction>
0.0178

> <Gold.Rescore>
     Score         DG    S(hbond)    S(metal)    S(lipo)     H(rot)  DE(clash)    DE(int)     intcor
     18.03     -18.40       0.98        0.00     114.76       1.48       0.02       0.35       ----

> <Gold.Chemscore.Fitness>
18.0275

> <Gold.Chemscore.DG>
-18.3958

> <Gold.Chemscore.ZeroCoef>
-5.4800

> <Gold.Chemscore.Hbond>
0.9808

> <Gold.Chemscore.Metal>
0.0000

> <Gold.Chemscore.Lipo>
114.7551

> <Gold.Chemscore.Internal_Hbond>
0.0000

> <Gold.Chemscore.DEClash>
0.0154

> <Gold.Chemscore.DEInternal>
0.3529

> <Gold.Chemscore.Rot>
1.4790

> <Gold.Chemscore.Internal.Correction>
   9.000000E+99

> <Gold.Chemscore.Hbonds>
donor molecule, donor type, donor heavy atom, donor atom, acceptor molecule, acceptor atom, score
      L1  H    12    43       P1 10175  0.85

> <Gold.Chemscore.Hbond.Weighted>
-3.2757

> <Gold.Chemscore.Metal.Weighted>
-0.0000

> <Gold.Chemscore.Lipo.Weighted>
-13.4263

> <Gold.Chemscore.Internal_Hbond.Weighted>
0.0000

> <Gold.Chemscore.DEClash.Weighted>
0.0154

> <Gold.Chemscore.DEInternal.Weighted>
0.3529

> <Gold.Chemscore.Rot.Weighted>
3.7863

> <Gold.Chemscore.Internal.Correction.Weighted>
   9.000000E+99

> <Gold.Protein.RotatedTorsions>
[ 6907 6896 6895 6894 ] final -134.74 input  -60.11 | X-H torsion
[ 7974 7965 7964 7962 ] final -113.87 input  175.53 | X-H torsion
[ 8008 7997 7996 7995 ] final  175.97 input   59.86 | X-H torsion
[ 10167 10162 10161 10158 ] final  -23.80 input  -65.29 | X-H torsion
[ 10718 10713 10712 10709 ] final -165.58 input   66.30 | X-H torsion
[ 10763 10752 10751 10750 ] final  -55.80 input  -60.55 | X-H torsion
[ 11005 11000 10999 10996 ] final  -48.18 input  -57.11 | X-H torsion

> <Gold.Protein.ActiveResidues>
 VAL166  LYS551  ARG553  GLY616  TRP617  ASP618  TYR619  PRO620  LYS621  CYS622 
 ASP623  PHE694  ASN695  SER759  ASP760  ASP761  ALA762  ILE779  LEU786  VAL792 
 PHE793  MET794  SER795  GLU796  ALA797  LYS798  CYS799  TRP800  GLU811  SER814 

> <Gold.Protein.RotatedAtoms>
  150.9895  133.6164  159.2710 H   0  0  0  0  0  0  0  0  0  0  0  0  # atno 6907 bound_to 6896
  151.3390  135.0858  159.9374 H   0  0  0  0  0  0  0  0  0  0  0  0  # atno 6908 bound_to 6896
  152.5241  133.9510  159.7726 H   0  0  0  0  0  0  0  0  0  0  0  0  # atno 6909 bound_to 6896
  145.1269  140.8702  143.3781 H   0  0  0  0  0  0  0  0  0  0  0  0  # atno 7974 bound_to 7965
  156.0814  140.1395  156.9707 H   0  0  0  0  0  0  0  0  0  0  0  0  # atno 8008 bound_to 7997
  154.4587  140.0951  156.6881 H   0  0  0  0  0  0  0  0  0  0  0  0  # atno 8009 bound_to 7997
  155.5069  140.3452  155.4383 H   0  0  0  0  0  0  0  0  0  0  0  0  # atno 8010 bound_to 7997
  140.7288  143.4410  151.0657 H   0  0  0  0  0  0  0  0  0  0  0  0  # atno 10167 bound_to 10162
  156.6554  130.9024  151.3020 H   0  0  0  0  0  0  0  0  0  0  0  0  # atno 10718 bound_to 10713
  154.1965  135.6418  153.5075 H   0  0  0  0  0  0  0  0  0  0  0  0  # atno 10763 bound_to 10752
  153.0022  135.5441  154.6360 H   0  0  0  0  0  0  0  0  0  0  0  0  # atno 10764 bound_to 10752
  154.5762  135.2921  155.0751 H   0  0  0  0  0  0  0  0  0  0  0  0  # atno 10765 bound_to 10752
  141.0685  133.6686  156.3404 H   0  0  0  0  0  0  0  0  0  0  0  0  # atno 11005 bound_to 11000
  145.0678  139.3055  143.5847 LP  0  0  0  0  0  0  0  0  0  0  0  0  # atno 17320 bound_to 7965
  146.3517  140.0142  142.8664 LP  0  0  0  0  0  0  0  0  0  0  0  0  # atno 17321 bound_to 7965
  139.8077  143.7994  152.3169 LP  0  0  0  0  0  0  0  0  0  0  0  0  # atno 17342 bound_to 10162
  139.8033  144.7365  150.9795 LP  0  0  0  0  0  0  0  0  0  0  0  0  # atno 17343 bound_to 10162
  157.7127  130.9459  150.1145 LP  0  0  0  0  0  0  0  0  0  0  0  0  # atno 17370 bound_to 10713
  156.2052  130.3663  149.8739 LP  0  0  0  0  0  0  0  0  0  0  0  0  # atno 17371 bound_to 10713
  140.5723  134.5828  157.5460 LP  0  0  0  0  0  0  0  0  0  0  0  0  # atno 17394 bound_to 11000
  139.9500  134.7634  156.0471 LP  0  0  0  0  0  0  0  0  0  0  0  0  # atno 17395 bound_to 11000

$$$$
