AV-unprocessed.smi:2564|AV-procd|sdf|10066|dock3
  -GOLD-   2272014103D 1   1.00000     0.00000
 Structure written by MMmdl.
 28 29  0  0  0  0  0  0  0  0  1 V2000
  152.2368  145.0314  159.0362 C   0  0  0  0  0  0  0  0  0  0  0  0
  151.9059  144.5520  160.3165 C   0  0  0  0  0  0  0  0  0  0  0  0
  151.0437  143.5288  160.5103 N   0  0  0  0  0  0  0  0  0  0  0  0
  150.4666  142.9317  159.4612 N   0  0  0  0  0  0  0  0  0  0  0  0
  150.7357  143.3450  158.1966 C   0  0  0  0  0  0  0  0  0  0  0  0
  150.1149  142.7025  157.1157 N   0  0  0  0  0  0  0  0  0  0  0  0
  149.6540  141.3225  157.2163 C   0  0  0  0  0  0  0  0  0  0  0  0
  148.7227  140.9261  156.0581 C   0  0  2  0  0  0  0  0  0  0  0  0
  149.5102  140.7107  154.7501 C   0  0  0  0  0  0  0  0  0  0  0  0
  148.5991  140.4151  153.6453 N   0  0  0  0  0  0  0  0  0  0  0  0
  147.5829  141.4554  153.5023 C   0  0  0  0  0  0  0  0  0  0  0  0
  146.8464  141.6679  154.8360 C   0  0  0  0  0  0  0  0  0  0  0  0
  147.7913  141.9859  155.8518 O   0  0  0  0  0  0  0  0  0  0  0  0
  151.6291  144.4029  157.9355 C   0  0  0  0  0  0  0  0  0  0  0  0
  152.9294  145.8494  158.9049 H   0  0  0  0  0  0  0  0  0  0  0  0
  152.3392  144.9956  161.2007 H   0  0  0  0  0  0  0  0  0  0  0  0
  149.7715  143.2614  156.3481 H   0  0  0  0  0  0  0  0  0  0  0  0
  150.5265  140.6687  157.2278 H   0  0  0  0  0  0  0  0  0  0  0  0
  149.1530  141.1745  158.1737 H   0  0  0  0  0  0  0  0  0  0  0  0
  148.1888  140.0085  156.3130 H   0  0  0  0  0  0  0  0  0  0  0  0
  150.0942  141.6027  154.5197 H   0  0  0  0  0  0  0  0  0  0  0  0
  150.2221  139.8940  154.8722 H   0  0  0  0  0  0  0  0  0  0  0  0
  149.1265  140.3338  152.7819 H   0  0  0  0  0  0  0  0  0  0  0  0
  148.0503  142.3900  153.1898 H   0  0  0  0  0  0  0  0  0  0  0  0
  146.8738  141.1822  152.7207 H   0  0  0  0  0  0  0  0  0  0  0  0
  146.1367  142.4902  154.7446 H   0  0  0  0  0  0  0  0  0  0  0  0
  146.2734  140.7818  155.1142 H   0  0  0  0  0  0  0  0  0  0  0  0
  151.8411  144.7253  156.9266 H   0  0  0  0  0  0  0  0  0  0  0  0
  1 14  1  0  0  0  0
  1  2  2  0  0  0  0
  1 15  1  0  0  0  0
  2  3  1  0  0  0  0
  2 16  1  0  0  0  0
  3  4  2  0  0  0  0
  4  5  1  0  0  0  0
  5  6  1  0  0  0  0
  5 14  2  0  0  0  0
  6  7  1  0  0  0  0
  6 17  1  0  0  0  0
  7  8  1  0  0  0  0
  7 18  1  0  0  0  0
  7 19  1  0  0  0  0
  8 13  1  0  0  0  0
  8  9  1  0  0  0  0
  8 20  1  0  0  0  0
  9 10  1  0  0  0  0
  9 21  1  0  0  0  0
  9 22  1  0  0  0  0
 10 11  1  0  0  0  0
 10 23  1  0  0  0  0
 11 12  1  0  0  0  0
 11 24  1  0  0  0  0
 11 25  1  0  0  0  0
 12 13  1  0  0  0  0
 12 26  1  0  0  0  0
 12 27  1  0  0  0  0
 14 28  1  0  0  0  0
M  END
> <s_m_source_file>
AV-unprocessed.smi

> <i_m_source_file_index>
2564

> <i_lp_mmshare_version>
43012

> <i_f3d_flags>
0

> <s_epik_input>
W2NIXTFbY0hdW2NIXW5uYzFbTkhdW0NIMl1bQ0BASF0yW0NIMl1bTkhdW0NIMl1bQ0gyXU8y

> <s_epik_cmdline>
J2VwaWtfcHl0aG9uJywgJy1waCcsICc3LjAnLCAnLXRuJywgJzgnLCAnLW1hJywgJzIwMCcsICctbWV0YWxfYmluZGluZycsICctaW1hZScsICc8aW5maWxlLm1hZT4nLCAnLW9tYWUnLCAnPG91dGZpbGUubWFlPic=

> <r_lp_tautomer_probability>
0.999978

> <r_epik_Ionization_Penalty>
2.48194

> <r_epik_Ionization_Penalty_Charging>
0

> <r_epik_Ionization_Penalty_Neutral>
2.48194

> <r_epik_State_Penalty>
2.63388

> <r_epik_Charging_Adjusted_Penalty>
2.63388

> <i_epik_Tot_Q>
0

> <i_epik_Tot_abs_Q>
0

> <r_epik_Metal_State_Penalty>
2.61931

> <b_epik_Metal_Only>
0

> <s_lp_Force_Field>
OPLS_2005

> <r_lp_Energy>
19.9467

> <b_lp_Chiralities_Consistent>
1

> <s_lp_Variant>
AV-unprocessed.smi:2564-5

> <Gold.Version>
5.8.1

> <Gold.Id.Protein>
6NUR|6NUR_protein|mol2

> <Gold.PLP.Fitness>
35.9469

> <Gold.PLP.PLP>
-30.6101

> <Gold.PLP.part.hbond>
-4.0000

> <Gold.PLP.part.metal>
0.0000

> <Gold.PLP.part.buried>
-5.8572

> <Gold.PLP.part.nonpolar>
-22.2319

> <Gold.PLP.part.repulsive>
1.5229

> <Gold.PLP.ligand.clash>
0.0000

> <Gold.PLP.ligand.torsion>
0.3328

> <Gold.PLP.Chemscore.Hbond>
2.0000

> <Gold.PLP.Chemscore.CHOScore>
0.0000

> <Gold.PLP.Chemscore.Metal>
0.0000

> <Gold.Chemscore.Hbonds>
donor molecule, donor type, donor heavy atom, donor atom, acceptor molecule, acceptor atom, score
      L1  H     6    17       P1  8028  1.00
      L1  H    10    23       P1  7957  1.00

> <Gold.PLP.Chemscore.Internal.Correction>
0.0023

> <Gold.Rescore>
     Score         DG    S(hbond)    S(metal)    S(lipo)     H(rot)  DE(clash)    DE(int)     intcor
     16.46     -16.92       1.98        0.00      69.66       1.30       0.16       0.30       ----

> <Gold.Chemscore.Fitness>
16.4564

> <Gold.Chemscore.DG>
-16.9154

> <Gold.Chemscore.ZeroCoef>
-5.4800

> <Gold.Chemscore.Hbond>
1.9804

> <Gold.Chemscore.Metal>
0.0000

> <Gold.Chemscore.Lipo>
69.6628

> <Gold.Chemscore.Internal_Hbond>
0.0000

> <Gold.Chemscore.DEClash>
0.1567

> <Gold.Chemscore.DEInternal>
0.3023

> <Gold.Chemscore.Rot>
1.3006

> <Gold.Chemscore.Internal.Correction>
   9.000000E+99

> <Gold.Chemscore.Hbonds>
donor molecule, donor type, donor heavy atom, donor atom, acceptor molecule, acceptor atom, score
      L1  H     6    17       P1  8028  0.96
      L1  H    10    23       P1  7957  1.00

> <Gold.Chemscore.Hbond.Weighted>
-6.6145

> <Gold.Chemscore.Metal.Weighted>
-0.0000

> <Gold.Chemscore.Lipo.Weighted>
-8.1505

> <Gold.Chemscore.Internal_Hbond.Weighted>
0.0000

> <Gold.Chemscore.DEClash.Weighted>
0.1567

> <Gold.Chemscore.DEInternal.Weighted>
0.3023

> <Gold.Chemscore.Rot.Weighted>
3.3296

> <Gold.Chemscore.Internal.Correction.Weighted>
   9.000000E+99

> <Gold.Protein.RotatedTorsions>
[ 6907 6896 6895 6894 ] final   11.51 input  -60.11 | X-H torsion
[ 7974 7965 7964 7962 ] final -118.61 input  175.53 | X-H torsion
[ 8008 7997 7996 7995 ] final   32.71 input   59.86 | X-H torsion
[ 10167 10162 10161 10158 ] final  -14.46 input  -65.29 | X-H torsion
[ 10718 10713 10712 10709 ] final   53.80 input   66.30 | X-H torsion
[ 10763 10752 10751 10750 ] final -125.17 input  -60.55 | X-H torsion
[ 11005 11000 10999 10996 ] final -115.84 input  -57.11 | X-H torsion

> <Gold.Protein.ActiveResidues>
 VAL166  LYS551  ARG553  GLY616  TRP617  ASP618  TYR619  PRO620  LYS621  CYS622 
 ASP623  PHE694  ASN695  SER759  ASP760  ASP761  ALA762  ILE779  LEU786  VAL792 
 PHE793  MET794  SER795  GLU796  ALA797  LYS798  CYS799  TRP800  GLU811  SER814 

> <Gold.Protein.RotatedAtoms>
  151.7554  135.0823  160.0337 H   0  0  0  0  0  0  0  0  0  0  0  0  # atno 6907 bound_to 6896
  152.3388  133.6039  159.5870 H   0  0  0  0  0  0  0  0  0  0  0  0  # atno 6908 bound_to 6896
  150.7467  133.9670  159.3575 H   0  0  0  0  0  0  0  0  0  0  0  0  # atno 6909 bound_to 6896
  145.0719  140.8365  143.4090 H   0  0  0  0  0  0  0  0  0  0  0  0  # atno 7974 bound_to 7965
  155.1269  140.3253  155.4483 H   0  0  0  0  0  0  0  0  0  0  0  0  # atno 8008 bound_to 7997
  156.2646  140.2017  156.6338 H   0  0  0  0  0  0  0  0  0  0  0  0  # atno 8009 bound_to 7997
  154.6642  140.0544  157.0082 H   0  0  0  0  0  0  0  0  0  0  0  0  # atno 8010 bound_to 7997
  140.7201  143.5319  150.9510 H   0  0  0  0  0  0  0  0  0  0  0  0  # atno 10167 bound_to 10162
  157.5199  130.8558  149.8545 H   0  0  0  0  0  0  0  0  0  0  0  0  # atno 10718 bound_to 10713
  154.8732  135.4039  154.3224 H   0  0  0  0  0  0  0  0  0  0  0  0  # atno 10763 bound_to 10752
  153.4050  135.7019  153.6404 H   0  0  0  0  0  0  0  0  0  0  0  0  # atno 10764 bound_to 10752
  153.5131  135.3703  155.2567 H   0  0  0  0  0  0  0  0  0  0  0  0  # atno 10765 bound_to 10752
  141.0461  133.9760  157.2915 H   0  0  0  0  0  0  0  0  0  0  0  0  # atno 11005 bound_to 11000
  145.1282  139.2649  143.5553 LP  0  0  0  0  0  0  0  0  0  0  0  0  # atno 17320 bound_to 7965
  146.3529  140.0925  142.8612 LP  0  0  0  0  0  0  0  0  0  0  0  0  # atno 17321 bound_to 7965
  139.9040  143.6801  152.3126 LP  0  0  0  0  0  0  0  0  0  0  0  0  # atno 17342 bound_to 10162
  139.7161  144.7611  151.1032 LP  0  0  0  0  0  0  0  0  0  0  0  0  # atno 17343 bound_to 10162
  156.0346  130.3755  150.1594 LP  0  0  0  0  0  0  0  0  0  0  0  0  # atno 17370 bound_to 10713
  156.9783  130.9856  151.3443 LP  0  0  0  0  0  0  0  0  0  0  0  0  # atno 17371 bound_to 10713
  139.9313  135.0199  156.8409 LP  0  0  0  0  0  0  0  0  0  0  0  0  # atno 17394 bound_to 11000
  140.6144  134.0052  155.7590 LP  0  0  0  0  0  0  0  0  0  0  0  0  # atno 17395 bound_to 11000

$$$$
