AV-unprocessed.smi:55|AV-procd|sdf|570|dock7
  -GOLD-   2262016473D 1   1.00000     0.00000
 Structure written by MMmdl.
 30 31  0  0  0  0  0  0  0  0  2 V2000
  149.5063  141.6459  154.9055 C   0  0  0  0  0  0  0  0  0  0  0  0
  150.4968  141.4067  156.0315 C   0  0  0  0  0  0  0  0  0  0  0  0
  150.4947  142.1453  157.1632 C   0  0  0  0  0  0  0  0  0  0  0  0
  151.4004  141.9261  158.1857 N   0  0  0  0  0  0  0  0  0  0  0  0
  151.3667  142.7813  159.4322 C   0  0  1  0  0  0  0  0  0  0  0  0
  152.3126  143.9768  159.2964 C   0  0  0  0  0  0  0  0  0  0  0  0
  151.5136  145.0738  159.9688 C   0  0  1  0  0  0  0  0  0  0  0  0
  151.8975  146.3446  159.4847 O   0  0  0  0  0  0  0  0  0  0  0  0
  150.0796  144.7045  159.5772 C   0  0  2  0  0  0  0  0  0  0  0  0
  148.9943  145.2364  160.5258 C   0  0  0  0  0  0  0  0  0  0  0  0
  147.7090  145.0294  159.9790 O   0  0  0  0  0  0  0  0  0  0  0  0
  150.0715  143.2791  159.6087 O   0  0  0  0  0  0  0  0  0  0  0  0
  152.3850  140.9128  158.0458 C   0  0  0  0  0  0  0  0  0  0  0  0
  153.2029  140.7638  158.9537 O   0  0  0  0  0  0  0  0  0  0  0  0
  152.3890  140.1562  156.9112 N   0  5  0  0  0  0  0  0  0  0  0  0
  151.4979  140.3420  155.8953 C   0  0  0  0  0  0  0  0  0  0  0  0
  151.5117  139.6494  154.8783 O   0  0  0  0  0  0  0  0  0  0  0  0
  151.5911  142.1415  160.2860 H   0  0  0  0  0  0  0  0  0  0  0  0
  151.6456  145.0237  161.0505 H   0  0  0  0  0  0  0  0  0  0  0  0
  149.8753  145.0142  158.5507 H   0  0  0  0  0  0  0  0  0  0  0  0
  148.8241  142.4621  155.1446 H   0  0  0  0  0  0  0  0  0  0  0  0
  148.9113  140.7504  154.7249 H   0  0  0  0  0  0  0  0  0  0  0  0
  150.0309  141.9026  153.9845 H   0  0  0  0  0  0  0  0  0  0  0  0
  149.7652  142.9339  157.2666 H   0  0  0  0  0  0  0  0  0  0  0  0
  153.2758  143.7759  159.7662 H   0  0  0  0  0  0  0  0  0  0  0  0
  152.4713  144.2034  158.2405 H   0  0  0  0  0  0  0  0  0  0  0  0
  151.1954  146.6832  158.9499 H   0  0  0  0  0  0  0  0  0  0  0  0
  149.0462  144.7131  161.4808 H   0  0  0  0  0  0  0  0  0  0  0  0
  149.1400  146.2970  160.7319 H   0  0  0  0  0  0  0  0  0  0  0  0
  147.7474  145.1998  159.0501 H   0  0  0  0  0  0  0  0  0  0  0  0
  1  2  1  0  0  0  0
  1 21  1  0  0  0  0
  1 22  1  0  0  0  0
  1 23  1  0  0  0  0
  2 16  1  0  0  0  0
  2  3  2  0  0  0  0
  3  4  1  0  0  0  0
  3 24  1  0  0  0  0
  4  5  1  0  0  0  0
  4 13  1  0  0  0  0
  5 18  1  0  0  0  0
  5 12  1  0  0  0  0
  5  6  1  0  0  0  0
  6  7  1  0  0  0  0
  6 25  1  0  0  0  0
  6 26  1  0  0  0  0
  7 19  1  0  0  0  0
  7  8  1  0  0  0  0
  7  9  1  0  0  0  0
  8 27  1  0  0  0  0
  9 20  1  0  0  0  0
  9 10  1  0  0  0  0
  9 12  1  0  0  0  0
 10 11  1  0  0  0  0
 10 28  1  0  0  0  0
 10 29  1  0  0  0  0
 11 30  1  0  0  0  0
 13 14  2  0  0  0  0
 13 15  1  0  0  0  0
 15 16  1  0  0  0  0
 16 17  2  0  0  0  0
M  CHG  1  15  -1
M  END
> <s_m_source_file>
AV-unprocessed.smi

> <i_m_source_file_index>
55

> <i_lp_mmshare_version>
43012

> <i_f3d_flags>
0

> <s_epik_input>
Tz1jMVtuSF1jKD1PKW4oW2NIXWMxW0NIM10pW0NAQEhdMltDSDJdW0NAQEhdKFtPSF0pW0NAQEhdKE8yKVtDSDJdW09IXQ==

> <s_epik_cmdline>
J2VwaWtfcHl0aG9uJywgJy1waCcsICc3LjAnLCAnLXRuJywgJzgnLCAnLW1hJywgJzIwMCcsICctbWV0YWxfYmluZGluZycsICctaW1hZScsICc8aW5maWxlLm1hZT4nLCAnLW9tYWUnLCAnPG91dGZpbGUubWFlPic=

> <r_lp_tautomer_probability>
0.999537

> <r_epik_Ionization_Penalty>
3.66603

> <r_epik_Ionization_Penalty_Charging>
1.09773e-07

> <r_epik_Ionization_Penalty_Neutral>
3.66603

> <r_epik_State_Penalty>
3.66562

> <r_epik_Charging_Adjusted_Penalty>
3.66562

> <i_epik_Tot_Q>
-1

> <i_epik_Tot_abs_Q>
1

> <r_epik_Metal_State_Penalty>
0.234536

> <b_epik_Metal_Only>
1

> <s_epik_Chemistry_Notes>
This compound contains an acetal/aminal-like group ( X-CH(R)-Y where X, Y are N, S, or O) that may be acid/base labile, releasing an aldehyde.

> <s_lp_Force_Field>
OPLS_2005

> <r_lp_Energy>
34.2111

> <b_lp_Chiralities_Consistent>
1

> <s_lp_Variant>
AV-unprocessed.smi:55-10

> <Gold.Version>
5.8.1

> <Gold.Id.Protein>
6NUR|6NUR_protein|mol2

> <Gold.PLP.Fitness>
47.9007

> <Gold.PLP.PLP>
-34.4656

> <Gold.PLP.part.hbond>
-5.8363

> <Gold.PLP.part.metal>
0.0000

> <Gold.PLP.part.buried>
-0.6546

> <Gold.PLP.part.nonpolar>
-25.2744

> <Gold.PLP.part.repulsive>
0.1387

> <Gold.PLP.ligand.clash>
0.0000

> <Gold.PLP.ligand.torsion>
0.7770

> <Gold.PLP.Chemscore.Hbond>
4.0000

> <Gold.PLP.Chemscore.CHOScore>
0.9935

> <Gold.PLP.Chemscore.Metal>
0.0000

> <Gold.Chemscore.Hbonds>
donor molecule, donor type, donor heavy atom, donor atom, acceptor molecule, acceptor atom, score
      L1  H    11    30       P1  8029  1.00
      P1  H  7989  7998       L1    17  1.00
      P1  H  7997  8010       L1    15  2.00
      L1  C     3    24       P1  8028  0.95

> <Gold.PLP.Chemscore.Internal.Correction>
0.0085

> <Gold.Rescore>
     Score         DG    S(hbond)    S(metal)    S(lipo)     H(rot)  DE(clash)    DE(int)     intcor
      9.92     -13.03       2.20        0.00      60.66       2.69       2.48       0.63       ----

> <Gold.Chemscore.Fitness>
9.9218

> <Gold.Chemscore.DG>
-13.0333

> <Gold.Chemscore.ZeroCoef>
-5.4800

> <Gold.Chemscore.Hbond>
2.1962

> <Gold.Chemscore.Metal>
0.0000

> <Gold.Chemscore.Lipo>
60.6580

> <Gold.Chemscore.Internal_Hbond>
0.0000

> <Gold.Chemscore.DEClash>
2.4777

> <Gold.Chemscore.DEInternal>
0.6338

> <Gold.Chemscore.Rot>
2.6871

> <Gold.Chemscore.Internal.Correction>
   9.000000E+99

> <Gold.Chemscore.Hbonds>
donor molecule, donor type, donor heavy atom, donor atom, acceptor molecule, acceptor atom, score
      L1  H    11    30       P1  8029  1.00
      P1  H  7989  7998       L1    17  0.50
      P1  H  7997  8010       L1    15  0.24

> <Gold.Chemscore.Hbond.Weighted>
-7.3354

> <Gold.Chemscore.Metal.Weighted>
-0.0000

> <Gold.Chemscore.Lipo.Weighted>
-7.0970

> <Gold.Chemscore.Internal_Hbond.Weighted>
0.0000

> <Gold.Chemscore.DEClash.Weighted>
2.4777

> <Gold.Chemscore.DEInternal.Weighted>
0.6338

> <Gold.Chemscore.Rot.Weighted>
6.8791

> <Gold.Chemscore.Internal.Correction.Weighted>
   9.000000E+99

> <Gold.Protein.RotatedTorsions>
[ 6907 6896 6895 6894 ] final  -30.37 input  -60.11 | X-H torsion
[ 7974 7965 7964 7962 ] final   33.14 input  175.53 | X-H torsion
[ 8008 7997 7996 7995 ] final   67.10 input   59.86 | X-H torsion
[ 10167 10162 10161 10158 ] final -108.56 input  -65.29 | X-H torsion
[ 10718 10713 10712 10709 ] final   54.15 input   66.30 | X-H torsion
[ 10763 10752 10751 10750 ] final   62.07 input  -60.55 | X-H torsion
[ 11005 11000 10999 10996 ] final  -60.76 input  -57.11 | X-H torsion

> <Gold.Protein.ActiveResidues>
 VAL166  LYS551  ARG553  GLY616  TRP617  ASP618  TYR619  PRO620  LYS621  CYS622 
 ASP623  PHE694  ASN695  SER759  ASP760  ASP761  ALA762  ILE779  LEU786  VAL792 
 PHE793  MET794  SER795  GLU796  ALA797  LYS798  CYS799  TRP800  GLU811  SER814 

> <Gold.Protein.RotatedAtoms>
  151.1065  135.0002  159.8473 H   0  0  0  0  0  0  0  0  0  0  0  0  # atno 6907 bound_to 6896
  152.5440  134.1887  159.8675 H   0  0  0  0  0  0  0  0  0  0  0  0  # atno 6908 bound_to 6896
  151.1934  133.4609  159.2628 H   0  0  0  0  0  0  0  0  0  0  0  0  # atno 6909 bound_to 6896
  146.1440  139.6435  142.9144 H   0  0  0  0  0  0  0  0  0  0  0  0  # atno 7974 bound_to 7965
  155.6876  140.3496  155.4880 H   0  0  0  0  0  0  0  0  0  0  0  0  # atno 8008 bound_to 7997
  155.9552  140.1127  157.0965 H   0  0  0  0  0  0  0  0  0  0  0  0  # atno 8009 bound_to 7997
  154.4130  140.1186  156.5092 H   0  0  0  0  0  0  0  0  0  0  0  0  # atno 8010 bound_to 7997
  140.1648  143.4090  152.1399 H   0  0  0  0  0  0  0  0  0  0  0  0  # atno 10167 bound_to 10162
  157.5231  130.8578  149.8585 H   0  0  0  0  0  0  0  0  0  0  0  0  # atno 10718 bound_to 10713
  152.9970  135.5478  154.6134 H   0  0  0  0  0  0  0  0  0  0  0  0  # atno 10763 bound_to 10752
  154.5450  135.2822  155.1063 H   0  0  0  0  0  0  0  0  0  0  0  0  # atno 10764 bound_to 10752
  154.2326  135.6431  153.5233 H   0  0  0  0  0  0  0  0  0  0  0  0  # atno 10765 bound_to 10752
  141.1299  133.6624  156.5272 H   0  0  0  0  0  0  0  0  0  0  0  0  # atno 11005 bound_to 11000
  145.4981  141.0438  143.2556 LP  0  0  0  0  0  0  0  0  0  0  0  0  # atno 17320 bound_to 7965
  144.7825  139.6496  143.7148 LP  0  0  0  0  0  0  0  0  0  0  0  0  # atno 17321 bound_to 7965
  139.5364  144.7214  151.4878 LP  0  0  0  0  0  0  0  0  0  0  0  0  # atno 17342 bound_to 10162
  140.6620  143.8479  150.6898 LP  0  0  0  0  0  0  0  0  0  0  0  0  # atno 17343 bound_to 10162
  156.0367  130.3749  150.1541 LP  0  0  0  0  0  0  0  0  0  0  0  0  # atno 17370 bound_to 10713
  156.9728  130.9840  151.3455 LP  0  0  0  0  0  0  0  0  0  0  0  0  # atno 17371 bound_to 10713
  140.4245  134.7157  157.4908 LP  0  0  0  0  0  0  0  0  0  0  0  0  # atno 17394 bound_to 11000
  140.0337  134.6369  155.9073 LP  0  0  0  0  0  0  0  0  0  0  0  0  # atno 17395 bound_to 11000

$$$$
