AV-unprocessed.smi:2027|AV-procd|sdf|8220|dock9
  -GOLD-   2272010493D 1   1.00000     0.00000
 Structure written by MMmdl.
 51 53  0  0  0  0  0  0  0  0  3 V2000
  152.0805  143.6040  160.4106 C   0  0  0  0  0  0  0  0  0  0  0  0
  151.8729  142.6560  159.2419 C   0  0  0  0  0  0  0  0  0  0  0  0
  150.9391  143.0112  158.2424 C   0  0  0  0  0  0  0  0  0  0  0  0
  150.7645  142.1192  157.1908 C   0  0  0  0  0  0  0  0  0  0  0  0
  149.9289  142.1758  156.0732 N   0  3  0  0  0  0  0  0  0  0  0  0
  150.0996  141.0538  155.3204 C   0  0  0  0  0  0  0  0  0  0  0  0
  151.0304  140.2795  155.9416 N   0  0  0  0  0  0  0  0  0  0  0  0
  151.5703  138.9693  155.5502 C   0  0  0  0  0  0  0  0  0  0  0  0
  150.7104  138.2416  154.4936 C   0  0  1  0  0  0  0  0  0  0  0  0
  151.4430  137.1066  154.0772 O   0  0  0  0  0  0  0  0  0  0  0  0
  149.3293  137.7949  155.0262 C   0  0  0  0  0  0  0  0  0  0  0  0
  148.2118  137.9630  154.0561 N   0  3  2  0  0  0  0  0  0  0  0  0
  148.1000  139.3449  153.5313 C   0  0  0  0  0  0  0  0  0  0  0  0
  146.9091  137.4790  154.5852 C   0  0  0  0  0  0  0  0  0  0  0  0
  145.9698  137.0576  153.4852 C   0  0  0  0  0  0  0  0  0  0  0  0
  144.6968  137.6115  153.1628 C   0  0  0  0  0  0  0  0  0  0  0  0
  144.1121  136.9999  152.1469 N   0  0  0  0  0  0  0  0  0  0  0  0
  144.9921  136.0472  151.7766 N   0  0  0  0  0  0  0  0  0  0  0  0
  144.6724  135.1722  150.6690 C   0  0  0  0  0  0  0  0  0  0  0  0
  146.1240  136.0613  152.5626 C   0  0  0  0  0  0  0  0  0  0  0  0
  151.4837  140.9109  157.1076 C   0  0  0  0  0  0  0  0  0  0  0  0
  152.4176  140.5529  158.0784 C   0  0  0  0  0  0  0  0  0  0  0  0
  152.6037  141.4426  159.1599 C   0  0  0  0  0  0  0  0  0  0  0  0
  153.6054  141.0689  160.2395 C   0  0  0  0  0  0  0  0  0  0  0  0
  151.4184  144.4680  160.3463 H   0  0  0  0  0  0  0  0  0  0  0  0
  153.1073  143.9701  160.4283 H   0  0  0  0  0  0  0  0  0  0  0  0
  151.8760  143.0992  161.3550 H   0  0  0  0  0  0  0  0  0  0  0  0
  150.3813  143.9349  158.2973 H   0  0  0  0  0  0  0  0  0  0  0  0
  149.5872  140.8201  154.3979 H   0  0  0  0  0  0  0  0  0  0  0  0
  152.5740  139.1402  155.1584 H   0  0  0  0  0  0  0  0  0  0  0  0
  151.6976  138.3581  156.4443 H   0  0  0  0  0  0  0  0  0  0  0  0
  150.5909  138.9065  153.6386 H   0  0  0  0  0  0  0  0  0  0  0  0
  151.2637  136.9417  153.1642 H   0  0  0  0  0  0  0  0  0  0  0  0
  149.4157  136.7467  155.3069 H   0  0  0  0  0  0  0  0  0  0  0  0
  149.0766  138.3379  155.9378 H   0  0  0  0  0  0  0  0  0  0  0  0
  147.9244  140.0570  154.3386 H   0  0  0  0  0  0  0  0  0  0  0  0
  147.2742  139.4252  152.8234 H   0  0  0  0  0  0  0  0  0  0  0  0
  149.0003  139.6453  152.9971 H   0  0  0  0  0  0  0  0  0  0  0  0
  147.0910  136.6599  155.2827 H   0  0  0  0  0  0  0  0  0  0  0  0
  146.4463  138.2729  155.1727 H   0  0  0  0  0  0  0  0  0  0  0  0
  144.1778  138.4277  153.6437 H   0  0  0  0  0  0  0  0  0  0  0  0
  145.4729  134.4465  150.5225 H   0  0  0  0  0  0  0  0  0  0  0  0
  144.5542  135.7583  149.7571 H   0  0  0  0  0  0  0  0  0  0  0  0
  143.7443  134.6381  150.8755 H   0  0  0  0  0  0  0  0  0  0  0  0
  146.9339  135.3637  152.4062 H   0  0  0  0  0  0  0  0  0  0  0  0
  152.9778  139.6316  158.0208 H   0  0  0  0  0  0  0  0  0  0  0  0
  154.0982  140.1218  160.0172 H   0  0  0  0  0  0  0  0  0  0  0  0
  153.1081  140.9654  161.2040 H   0  0  0  0  0  0  0  0  0  0  0  0
  154.3777  141.8333  160.3274 H   0  0  0  0  0  0  0  0  0  0  0  0
  148.4250  137.3720  153.2652 H   0  0  0  0  0  0  0  0  0  0  0  0
  149.2895  142.9247  155.8381 H   0  0  0  0  0  0  0  0  0  0  0  0
  1  2  1  0  0  0  0
  1 25  1  0  0  0  0
  1 26  1  0  0  0  0
  1 27  1  0  0  0  0
  2 23  1  0  0  0  0
  2  3  2  0  0  0  0
  3  4  1  0  0  0  0
  3 28  1  0  0  0  0
  4 21  2  0  0  0  0
  4  5  1  0  0  0  0
  5  6  2  0  0  0  0
  5 51  1  0  0  0  0
  6  7  1  0  0  0  0
  6 29  1  0  0  0  0
  7  8  1  0  0  0  0
  7 21  1  0  0  0  0
  8  9  1  0  0  0  0
  8 30  1  0  0  0  0
  8 31  1  0  0  0  0
  9 10  1  0  0  0  0
  9 11  1  0  0  0  0
  9 32  1  0  0  0  0
 10 33  1  0  0  0  0
 11 12  1  0  0  0  0
 11 34  1  0  0  0  0
 11 35  1  0  0  0  0
 12 13  1  0  0  0  0
 12 14  1  0  0  0  0
 12 50  1  0  0  0  0
 13 36  1  0  0  0  0
 13 37  1  0  0  0  0
 13 38  1  0  0  0  0
 14 15  1  0  0  0  0
 14 39  1  0  0  0  0
 14 40  1  0  0  0  0
 15 20  2  0  0  0  0
 15 16  1  0  0  0  0
 16 17  2  0  0  0  0
 16 41  1  0  0  0  0
 17 18  1  0  0  0  0
 18 19  1  0  0  0  0
 18 20  1  0  0  0  0
 19 42  1  0  0  0  0
 19 43  1  0  0  0  0
 19 44  1  0  0  0  0
 20 45  1  0  0  0  0
 21 22  1  0  0  0  0
 22 23  2  0  0  0  0
 22 46  1  0  0  0  0
 23 24  1  0  0  0  0
 24 47  1  0  0  0  0
 24 48  1  0  0  0  0
 24 49  1  0  0  0  0
M  CHG  1   5   1
M  CHG  1  12   1
M  END
> <s_m_source_file>
AV-unprocessed.smi

> <i_m_source_file_index>
2027

> <i_lp_mmshare_version>
43012

> <i_f3d_flags>
0

> <s_epik_input>
W0NIM11jKFtjSF0xKWMoW0NIM10pW2NIXWMoYzEyKW4oW2NIXW4yKVtDSDJdW0NASF0oW09IXSlbQ0gyXU4oW0NIM10pW0NIMl1jM1tjSF1ubihbQ0gzXSlbY0hdMw==

> <s_epik_cmdline>
J2VwaWtfcHl0aG9uJywgJy1waCcsICc3LjAnLCAnLXRuJywgJzgnLCAnLW1hJywgJzIwMCcsICctbWV0YWxfYmluZGluZycsICctaW1hZScsICc8aW5maWxlLm1hZT4nLCAnLW9tYWUnLCAnPG91dGZpbGUubWFlPic=

> <r_lp_tautomer_probability>
1

> <r_epik_Ionization_Penalty>
1.77469

> <r_epik_Ionization_Penalty_Charging>
1.77463

> <r_epik_Ionization_Penalty_Neutral>
6.41153e-05

> <r_epik_State_Penalty>
1.85225

> <r_epik_Charging_Adjusted_Penalty>
3.62688

> <i_epik_Tot_Q>
2

> <i_epik_Tot_abs_Q>
2

> <r_epik_Metal_State_Penalty>
1.92669

> <b_epik_Metal_Only>
0

> <s_lp_Force_Field>
OPLS_2005

> <r_lp_Energy>
22.5678

> <b_lp_Chiralities_Consistent>
1

> <s_lp_Variant>
AV-unprocessed.smi:2027-12

> <Gold.Version>
5.8.1

> <Gold.Id.Protein>
6NUR|6NUR_protein|mol2

> <Gold.PLP.Fitness>
63.9239

> <Gold.PLP.PLP>
-43.7034

> <Gold.PLP.part.hbond>
-3.9362

> <Gold.PLP.part.metal>
0.0000

> <Gold.PLP.part.buried>
-1.2898

> <Gold.PLP.part.nonpolar>
-37.7589

> <Gold.PLP.part.repulsive>
1.0788

> <Gold.PLP.ligand.clash>
0.0000

> <Gold.PLP.ligand.torsion>
1.0418

> <Gold.PLP.Chemscore.Hbond>
5.8450

> <Gold.PLP.Chemscore.CHOScore>
1.5401

> <Gold.PLP.Chemscore.Metal>
0.0000

> <Gold.Chemscore.Hbonds>
donor molecule, donor type, donor heavy atom, donor atom, acceptor molecule, acceptor atom, score
      L1  H     5    51       P1  8028  2.00
      L1  H    10    33       P1  7949  1.00
      L1  H    12    50       P1  7948  2.00
      P1  H 10752 10764       L1    10  0.76
      L1  C    16    41       P1 10175  0.84
      L1  C    20    45       P1  7948  0.76

> <Gold.PLP.Chemscore.Internal.Correction>
0.1488

> <Gold.Rescore>
     Score         DG    S(hbond)    S(metal)    S(lipo)     H(rot)  DE(clash)    DE(int)     intcor
     19.68     -21.48       2.90        0.00     110.55       2.58       0.71       1.09       ----

> <Gold.Chemscore.Fitness>
19.6833

> <Gold.Chemscore.DG>
-21.4778

> <Gold.Chemscore.ZeroCoef>
-5.4800

> <Gold.Chemscore.Hbond>
2.8974

> <Gold.Chemscore.Metal>
0.0000

> <Gold.Chemscore.Lipo>
110.5487

> <Gold.Chemscore.Internal_Hbond>
0.0000

> <Gold.Chemscore.DEClash>
0.7082

> <Gold.Chemscore.DEInternal>
1.0863

> <Gold.Chemscore.Rot>
2.5836

> <Gold.Chemscore.Internal.Correction>
   9.000000E+99

> <Gold.Chemscore.Hbonds>
donor molecule, donor type, donor heavy atom, donor atom, acceptor molecule, acceptor atom, score
      L1  H     5    51       P1  8028  0.96
      L1  H    10    33       P1  7949  0.65
      L1  H    12    50       P1  7948  1.00
      P1  H 10752 10764       L1    10  0.17

> <Gold.Chemscore.Hbond.Weighted>
-9.6775

> <Gold.Chemscore.Metal.Weighted>
-0.0000

> <Gold.Chemscore.Lipo.Weighted>
-12.9342

> <Gold.Chemscore.Internal_Hbond.Weighted>
0.0000

> <Gold.Chemscore.DEClash.Weighted>
0.7082

> <Gold.Chemscore.DEInternal.Weighted>
1.0863

> <Gold.Chemscore.Rot.Weighted>
6.6139

> <Gold.Chemscore.Internal.Correction.Weighted>
   9.000000E+99

> <Gold.Protein.RotatedTorsions>
[ 6907 6896 6895 6894 ] final  -46.85 input  -60.11 | X-H torsion
[ 7974 7965 7964 7962 ] final  127.53 input  175.53 | X-H torsion
[ 8008 7997 7996 7995 ] final  112.03 input   59.86 | X-H torsion
[ 10167 10162 10161 10158 ] final -174.26 input  -65.29 | X-H torsion
[ 10718 10713 10712 10709 ] final  -36.31 input   66.30 | X-H torsion
[ 10763 10752 10751 10750 ] final  -70.69 input  -60.55 | X-H torsion
[ 11005 11000 10999 10996 ] final  -12.73 input  -57.11 | X-H torsion

> <Gold.Protein.ActiveResidues>
 VAL166  LYS551  ARG553  GLY616  TRP617  ASP618  TYR619  PRO620  LYS621  CYS622 
 ASP623  PHE694  ASN695  SER759  ASP760  ASP761  ALA762  ILE779  LEU786  VAL792 
 PHE793  MET794  SER795  GLU796  ALA797  LYS798  CYS799  TRP800  GLU811  SER814 

> <Gold.Protein.RotatedAtoms>
  150.9069  134.8485  159.7398 H   0  0  0  0  0  0  0  0  0  0  0  0  # atno 6907 bound_to 6896
  152.4923  134.4417  159.9555 H   0  0  0  0  0  0  0  0  0  0  0  0  # atno 6908 bound_to 6896
  151.4463  133.3590  159.2824 H   0  0  0  0  0  0  0  0  0  0  0  0  # atno 6909 bound_to 6896
  145.0495  139.3895  143.5061 H   0  0  0  0  0  0  0  0  0  0  0  0  # atno 7974 bound_to 7965
  156.2165  140.3007  155.9851 H   0  0  0  0  0  0  0  0  0  0  0  0  # atno 8008 bound_to 7997
  155.2592  140.0429  157.3012 H   0  0  0  0  0  0  0  0  0  0  0  0  # atno 8009 bound_to 7997
  154.5775  140.2366  155.8109 H   0  0  0  0  0  0  0  0  0  0  0  0  # atno 8010 bound_to 7997
  139.5644  144.1792  152.1289 H   0  0  0  0  0  0  0  0  0  0  0  0  # atno 10167 bound_to 10162
  156.3283  130.4275  149.7896 H   0  0  0  0  0  0  0  0  0  0  0  0  # atno 10718 bound_to 10713
  154.4212  135.5986  153.6011 H   0  0  0  0  0  0  0  0  0  0  0  0  # atno 10763 bound_to 10752
  152.9794  135.5953  154.3952 H   0  0  0  0  0  0  0  0  0  0  0  0  # atno 10764 bound_to 10752
  154.3778  135.2841  155.2207 H   0  0  0  0  0  0  0  0  0  0  0  0  # atno 10765 bound_to 10752
  140.7688  133.8455  155.9188 H   0  0  0  0  0  0  0  0  0  0  0  0  # atno 11005 bound_to 11000
  146.3517  140.0138  142.8664 LP  0  0  0  0  0  0  0  0  0  0  0  0  # atno 17320 bound_to 7965
  145.1545  140.9640  143.4413 LP  0  0  0  0  0  0  0  0  0  0  0  0  # atno 17321 bound_to 7965
  140.1312  144.5287  150.6801 LP  0  0  0  0  0  0  0  0  0  0  0  0  # atno 17342 bound_to 10162
  140.6926  143.2385  151.5089 LP  0  0  0  0  0  0  0  0  0  0  0  0  # atno 17343 bound_to 10162
  156.5178  130.8201  151.3192 LP  0  0  0  0  0  0  0  0  0  0  0  0  # atno 17370 bound_to 10713
  157.7425  130.9893  150.2525 LP  0  0  0  0  0  0  0  0  0  0  0  0  # atno 17371 bound_to 10713
  140.9593  134.1676  157.4666 LP  0  0  0  0  0  0  0  0  0  0  0  0  # atno 17394 bound_to 11000
  139.8759  134.9939  156.5666 LP  0  0  0  0  0  0  0  0  0  0  0  0  # atno 17395 bound_to 11000

$$$$
