AV-unprocessed.smi:3303|AV-procd|sdf|12673|dock1
  -GOLD-   2272019 03D 1   1.00000     0.00000
 Structure written by MMmdl.
 44 45  0  0  0  0  0  0  0  0  2 V2000
  150.7990  145.2466  159.7479 C   0  0  0  0  0  0  0  0  0  0  0  0
  151.4467  143.8842  160.0494 C   0  0  2  0  0  0  0  0  0  0  0  0
  152.1853  143.9366  161.4011 C   0  0  0  0  0  0  0  0  0  0  0  0
  152.7760  142.6403  161.7445 N   0  0  0  0  0  0  0  0  0  0  0  0
  153.3488  142.7668  163.0820 C   0  0  0  0  0  0  0  0  0  0  0  0
  153.7880  142.2604  160.7439 C   0  0  1  0  0  0  0  0  0  0  0  0
  154.4811  140.9276  161.0938 C   0  0  0  0  0  0  0  0  0  0  0  0
  153.1093  142.1390  159.3633 C   0  0  0  0  0  0  0  0  0  0  0  0
  152.4194  143.4428  158.9388 C   0  0  1  0  0  0  0  0  0  0  0  0
  151.7037  143.2323  157.6603 N   0  3  0  0  0  0  0  0  0  0  0  0
  151.0450  141.9176  157.5281 C   0  0  0  0  0  0  0  0  0  0  0  0
  150.7220  141.6093  156.0597 C   0  0  0  0  0  0  0  0  0  0  0  0
  151.0585  140.1785  155.6854 C   0  0  0  0  0  0  0  0  0  0  0  0
  151.7191  139.3304  156.5996 C   0  0  0  0  0  0  0  0  0  0  0  0
  152.0021  138.0086  156.2039 C   0  0  0  0  0  0  0  0  0  0  0  0
  151.6153  137.5884  154.9167 C   0  0  0  0  0  0  0  0  0  0  0  0
  150.9592  138.5122  154.0789 C   0  0  0  0  0  0  0  0  0  0  0  0
  150.6808  139.7811  154.4496 N   0  0  0  0  0  0  0  0  0  0  0  0
  151.5520  146.0269  159.6316 H   0  0  0  0  0  0  0  0  0  0  0  0
  150.1312  145.5490  160.5549 H   0  0  0  0  0  0  0  0  0  0  0  0
  150.2065  145.2166  158.8334 H   0  0  0  0  0  0  0  0  0  0  0  0
  150.6482  143.1443  160.1310 H   0  0  0  0  0  0  0  0  0  0  0  0
  152.9600  144.7053  161.3808 H   0  0  0  0  0  0  0  0  0  0  0  0
  151.4762  144.2239  162.1791 H   0  0  0  0  0  0  0  0  0  0  0  0
  153.6933  141.8050  163.4607 H   0  0  0  0  0  0  0  0  0  0  0  0
  152.6005  143.1274  163.7887 H   0  0  0  0  0  0  0  0  0  0  0  0
  154.1884  143.4634  163.0917 H   0  0  0  0  0  0  0  0  0  0  0  0
  154.5487  143.0417  160.6957 H   0  0  0  0  0  0  0  0  0  0  0  0
  155.1288  140.6022  160.2792 H   0  0  0  0  0  0  0  0  0  0  0  0
  153.7545  140.1340  161.2722 H   0  0  0  0  0  0  0  0  0  0  0  0
  155.1156  141.0118  161.9758 H   0  0  0  0  0  0  0  0  0  0  0  0
  153.8511  141.8635  158.6122 H   0  0  0  0  0  0  0  0  0  0  0  0
  152.3812  141.3260  159.3866 H   0  0  0  0  0  0  0  0  0  0  0  0
  153.1857  144.2104  158.8146 H   0  0  0  0  0  0  0  0  0  0  0  0
  151.0023  143.9529  157.5652 H   0  0  0  0  0  0  0  0  0  0  0  0
  151.6994  141.1443  157.9329 H   0  0  0  0  0  0  0  0  0  0  0  0
  150.1316  141.9153  158.1245 H   0  0  0  0  0  0  0  0  0  0  0  0
  149.6632  141.7856  155.8638 H   0  0  0  0  0  0  0  0  0  0  0  0
  151.2723  142.2878  155.4065 H   0  0  0  0  0  0  0  0  0  0  0  0
  152.0031  139.6808  157.5811 H   0  0  0  0  0  0  0  0  0  0  0  0
  152.5059  137.3294  156.8757 H   0  0  0  0  0  0  0  0  0  0  0  0
  151.8168  136.5824  154.5794 H   0  0  0  0  0  0  0  0  0  0  0  0
  150.6487  138.2239  153.0854 H   0  0  0  0  0  0  0  0  0  0  0  0
  152.3696  143.3334  156.9078 H   0  0  0  0  0  0  0  0  0  0  0  0
  1  2  1  0  0  0  0
  1 19  1  0  0  0  0
  1 20  1  0  0  0  0
  1 21  1  0  0  0  0
  2  9  1  0  0  0  0
  2  3  1  0  0  0  0
  2 22  1  0  0  0  0
  3  4  1  0  0  0  0
  3 23  1  0  0  0  0
  3 24  1  0  0  0  0
  4  5  1  0  0  0  0
  4  6  1  0  0  0  0
  5 25  1  0  0  0  0
  5 26  1  0  0  0  0
  5 27  1  0  0  0  0
  6  7  1  0  0  0  0
  6  8  1  0  0  0  0
  6 28  1  0  0  0  0
  7 29  1  0  0  0  0
  7 30  1  0  0  0  0
  7 31  1  0  0  0  0
  8  9  1  0  0  0  0
  8 32  1  0  0  0  0
  8 33  1  0  0  0  0
  9 10  1  0  0  0  0
  9 34  1  0  0  0  0
 10 11  1  0  0  0  0
 10 35  1  0  0  0  0
 10 44  1  0  0  0  0
 11 12  1  0  0  0  0
 11 36  1  0  0  0  0
 11 37  1  0  0  0  0
 12 13  1  0  0  0  0
 12 38  1  0  0  0  0
 12 39  1  0  0  0  0
 13 18  1  0  0  0  0
 13 14  2  0  0  0  0
 14 15  1  0  0  0  0
 14 40  1  0  0  0  0
 15 16  2  0  0  0  0
 15 41  1  0  0  0  0
 16 17  1  0  0  0  0
 16 42  1  0  0  0  0
 17 18  2  0  0  0  0
 17 43  1  0  0  0  0
M  CHG  1  10   1
M  END
> <s_m_source_file>
AV-unprocessed.smi

> <i_m_source_file_index>
3303

> <i_lp_mmshare_version>
43012

> <i_f3d_flags>
0

> <s_epik_input>
W0NIM11bQ0BASF0xW0NIMl1OKFtDSDNdKVtDQEBIXShbQ0gzXSlbQ0gyXVtDQEhdMVtOSF1bQ0gyXVtDSDJdYzJbY0hdW2NIXVtjSF1bY0hdbjI=

> <s_epik_cmdline>
J2VwaWtfcHl0aG9uJywgJy1waCcsICc3LjAnLCAnLXRuJywgJzgnLCAnLW1hJywgJzIwMCcsICctbWV0YWxfYmluZGluZycsICctaW1hZScsICc8aW5maWxlLm1hZT4nLCAnLW9tYWUnLCAnPG91dGZpbGUubWFlPic=

> <r_epik_Ionization_Penalty>
1.37325

> <r_epik_Ionization_Penalty_Charging>
0.000251572

> <r_epik_Ionization_Penalty_Neutral>
1.373

> <r_epik_State_Penalty>
1.46343

> <r_epik_Charging_Adjusted_Penalty>
1.46368

> <i_epik_Tot_Q>
1

> <i_epik_Tot_abs_Q>
1

> <r_epik_Metal_State_Penalty>
1.46331

> <b_epik_Metal_Only>
0

> <s_lp_Force_Field>
OPLS_2005

> <r_lp_Energy>
21.6133

> <b_lp_Chiralities_Consistent>
1

> <s_lp_Variant>
AV-unprocessed.smi:3303-17

> <Gold.Version>
5.8.1

> <Gold.Id.Protein>
6NUR|6NUR_protein|mol2

> <Gold.PLP.Fitness>
52.2492

> <Gold.PLP.PLP>
-46.6246

> <Gold.PLP.part.hbond>
-1.0000

> <Gold.PLP.part.metal>
0.0000

> <Gold.PLP.part.buried>
-6.9264

> <Gold.PLP.part.nonpolar>
-39.6010

> <Gold.PLP.part.repulsive>
0.1900

> <Gold.PLP.ligand.clash>
0.0000

> <Gold.PLP.ligand.torsion>
0.6487

> <Gold.PLP.Chemscore.Hbond>
0.8000

> <Gold.PLP.Chemscore.CHOScore>
1.4992

> <Gold.PLP.Chemscore.Metal>
0.0000

> <Gold.Chemscore.Hbonds>
donor molecule, donor type, donor heavy atom, donor atom, acceptor molecule, acceptor atom, score
      P1  H  7989  7998       L1    18  1.00
      L1  C    17    43       P1  7948  0.16
      L1  C    17    43       P1  7949  0.25
      L1  C    17    43       P1  7957  0.21

> <Gold.PLP.Chemscore.Internal.Correction>
0.0244

> <Gold.Rescore>
     Score         DG    S(hbond)    S(metal)    S(lipo)     H(rot)  DE(clash)    DE(int)     intcor
     20.09     -20.94       0.90        0.00     135.60       1.33       0.07       0.79       ----

> <Gold.Chemscore.Fitness>
20.0917

> <Gold.Chemscore.DG>
-20.9442

> <Gold.Chemscore.ZeroCoef>
-5.4800

> <Gold.Chemscore.Hbond>
0.8991

> <Gold.Chemscore.Metal>
0.0000

> <Gold.Chemscore.Lipo>
135.6030

> <Gold.Chemscore.Internal_Hbond>
0.0000

> <Gold.Chemscore.DEClash>
0.0650

> <Gold.Chemscore.DEInternal>
0.7875

> <Gold.Chemscore.Rot>
1.3298

> <Gold.Chemscore.Internal.Correction>
   9.000000E+99

> <Gold.Chemscore.Hbonds>
donor molecule, donor type, donor heavy atom, donor atom, acceptor molecule, acceptor atom, score
      P1  H  7989  7998       L1    18  0.18

> <Gold.Chemscore.Hbond.Weighted>
-3.0030

> <Gold.Chemscore.Metal.Weighted>
-0.0000

> <Gold.Chemscore.Lipo.Weighted>
-15.8656

> <Gold.Chemscore.Internal_Hbond.Weighted>
0.0000

> <Gold.Chemscore.DEClash.Weighted>
0.0650

> <Gold.Chemscore.DEInternal.Weighted>
0.7875

> <Gold.Chemscore.Rot.Weighted>
3.4043

> <Gold.Chemscore.Internal.Correction.Weighted>
   9.000000E+99

> <Gold.Protein.RotatedTorsions>
[ 6907 6896 6895 6894 ] final    9.80 input  -60.11 | X-H torsion
[ 7974 7965 7964 7962 ] final   49.78 input  175.53 | X-H torsion
[ 8008 7997 7996 7995 ] final  106.15 input   59.86 | X-H torsion
[ 10167 10162 10161 10158 ] final -102.11 input  -65.29 | X-H torsion
[ 10718 10713 10712 10709 ] final   21.47 input   66.30 | X-H torsion
[ 10763 10752 10751 10750 ] final  -45.90 input  -60.55 | X-H torsion
[ 11005 11000 10999 10996 ] final  120.08 input  -57.11 | X-H torsion

> <Gold.Protein.ActiveResidues>
 VAL166  LYS551  ARG553  GLY616  TRP617  ASP618  TYR619  PRO620  LYS621  CYS622 
 ASP623  PHE694  ASN695  SER759  ASP760  ASP761  ALA762  ILE779  LEU786  VAL792 
 PHE793  MET794  SER795  GLU796  ALA797  LYS798  CYS799  TRP800  GLU811  SER814 

> <Gold.Protein.RotatedAtoms>
  151.7279  135.0881  160.0294 H   0  0  0  0  0  0  0  0  0  0  0  0  # atno 6907 bound_to 6896
  152.3560  133.6233  159.5988 H   0  0  0  0  0  0  0  0  0  0  0  0  # atno 6908 bound_to 6896
  150.7571  133.9416  159.3499 H   0  0  0  0  0  0  0  0  0  0  0  0  # atno 6909 bound_to 6896
  146.0076  139.4507  142.9976 H   0  0  0  0  0  0  0  0  0  0  0  0  # atno 7974 bound_to 7965
  156.1719  140.3118  155.8989 H   0  0  0  0  0  0  0  0  0  0  0  0  # atno 8008 bound_to 7997
  155.3569  140.0474  157.3063 H   0  0  0  0  0  0  0  0  0  0  0  0  # atno 8009 bound_to 7997
  154.5249  140.2211  155.8918 H   0  0  0  0  0  0  0  0  0  0  0  0  # atno 8010 bound_to 7997
  140.2342  143.3585  152.0860 H   0  0  0  0  0  0  0  0  0  0  0  0  # atno 10167 bound_to 10162
  157.1388  130.6623  149.5974 H   0  0  0  0  0  0  0  0  0  0  0  0  # atno 10718 bound_to 10713
  154.0362  135.6650  153.4785 H   0  0  0  0  0  0  0  0  0  0  0  0  # atno 10763 bound_to 10752
  153.0520  135.5079  154.7886 H   0  0  0  0  0  0  0  0  0  0  0  0  # atno 10764 bound_to 10752
  154.6847  135.3051  154.9529 H   0  0  0  0  0  0  0  0  0  0  0  0  # atno 10765 bound_to 10752
  139.9171  134.9632  156.7753 H   0  0  0  0  0  0  0  0  0  0  0  0  # atno 11005 bound_to 11000
  145.7392  141.0014  143.1310 LP  0  0  0  0  0  0  0  0  0  0  0  0  # atno 17320 bound_to 7965
  144.6941  139.9078  143.7462 LP  0  0  0  0  0  0  0  0  0  0  0  0  # atno 17321 bound_to 7965
  139.5099  144.6876  151.5847 LP  0  0  0  0  0  0  0  0  0  0  0  0  # atno 17342 bound_to 10162
  140.6162  143.9343  150.6491 LP  0  0  0  0  0  0  0  0  0  0  0  0  # atno 17343 bound_to 10162
  155.9793  130.4785  150.6705 LP  0  0  0  0  0  0  0  0  0  0  0  0  # atno 17370 bound_to 10713
  157.4326  131.0851  151.1024 LP  0  0  0  0  0  0  0  0  0  0  0  0  # atno 17371 bound_to 10713
  140.6588  133.9664  155.7793 LP  0  0  0  0  0  0  0  0  0  0  0  0  # atno 17394 bound_to 11000
  141.0658  134.0279  157.3596 LP  0  0  0  0  0  0  0  0  0  0  0  0  # atno 17395 bound_to 11000

$$$$
