AV-unprocessed.smi:460|AV-procd|sdf|2626|dock3
  -GOLD-   2262023 23D 1   1.00000     0.00000
 Structure written by MMmdl.
 46 48  0  0  0  0  0  0  0  0  1 V2000
  155.1671  140.0046  160.6426 C   0  0  0  0  0  0  0  0  0  0  0  0
  153.8645  139.1961  160.7125 C   0  0  0  0  0  0  0  0  0  0  0  0
  152.9090  139.4700  159.5352 C   0  0  2  0  0  0  0  0  0  0  0  0
  153.5405  139.0861  158.3296 O   0  0  0  0  0  0  0  0  0  0  0  0
  152.4678  140.9094  159.5013 C   0  0  0  0  0  0  0  0  0  0  0  0
  152.8850  141.7885  160.4155 N   0  0  0  0  0  0  0  0  0  0  0  0
  152.2454  142.9519  160.0395 C   0  0  0  0  0  0  0  0  0  0  0  0
  152.2782  144.2430  160.6136 C   0  0  0  0  0  0  0  0  0  0  0  0
  151.5276  145.2946  160.0488 C   0  0  0  0  0  0  0  0  0  0  0  0
  150.7342  145.0701  158.9052 C   0  0  0  0  0  0  0  0  0  0  0  0
  150.6877  143.7911  158.3178 C   0  0  0  0  0  0  0  0  0  0  0  0
  151.4408  142.7443  158.8842 C   0  0  0  0  0  0  0  0  0  0  0  0
  151.6171  141.4013  158.5614 N   0  0  0  0  0  0  0  0  0  0  0  0
  150.9993  140.7089  157.4390 C   0  0  0  0  0  0  0  0  0  0  0  0
  151.2540  141.4282  156.1087 C   0  0  0  0  0  0  0  0  0  0  0  0
  150.0025  141.7965  155.5477 O   0  0  0  0  0  0  0  0  0  0  0  0
  149.2753  140.8364  154.8742 C   0  0  0  0  0  0  0  0  0  0  0  0
  149.6918  139.4874  154.7379 C   0  0  0  0  0  0  0  0  0  0  0  0
  148.8981  138.5618  154.0368 C   0  0  0  0  0  0  0  0  0  0  0  0
  147.6820  138.9713  153.4648 C   0  0  0  0  0  0  0  0  0  0  0  0
  147.2592  140.3066  153.5932 C   0  0  0  0  0  0  0  0  0  0  0  0
  148.0508  141.2487  154.2982 C   0  0  0  0  0  0  0  0  0  0  0  0
  147.6960  142.5721  154.4637 O   0  0  0  0  0  0  0  0  0  0  0  0
  146.4258  142.9936  153.9885 C   0  0  0  0  0  0  0  0  0  0  0  0
  155.8242  139.7506  161.4746 H   0  0  0  0  0  0  0  0  0  0  0  0
  154.9741  141.0765  160.6897 H   0  0  0  0  0  0  0  0  0  0  0  0
  155.7081  139.8000  159.7182 H   0  0  0  0  0  0  0  0  0  0  0  0
  154.1288  138.1381  160.7199 H   0  0  0  0  0  0  0  0  0  0  0  0
  153.3579  139.3848  161.6600 H   0  0  0  0  0  0  0  0  0  0  0  0
  152.0397  138.8242  159.6402 H   0  0  0  0  0  0  0  0  0  0  0  0
  154.0608  138.3155  158.4968 H   0  0  0  0  0  0  0  0  0  0  0  0
  152.8826  144.4239  161.4902 H   0  0  0  0  0  0  0  0  0  0  0  0
  151.5606  146.2778  160.4949 H   0  0  0  0  0  0  0  0  0  0  0  0
  150.1620  145.8810  158.4785 H   0  0  0  0  0  0  0  0  0  0  0  0
  150.0797  143.6194  157.4421 H   0  0  0  0  0  0  0  0  0  0  0  0
  151.3997  139.6960  157.3897 H   0  0  0  0  0  0  0  0  0  0  0  0
  149.9317  140.5951  157.6265 H   0  0  0  0  0  0  0  0  0  0  0  0
  151.8626  142.3170  156.2754 H   0  0  0  0  0  0  0  0  0  0  0  0
  151.7921  140.7660  155.4283 H   0  0  0  0  0  0  0  0  0  0  0  0
  150.6188  139.1346  155.1634 H   0  0  0  0  0  0  0  0  0  0  0  0
  149.2228  137.5364  153.9385 H   0  0  0  0  0  0  0  0  0  0  0  0
  147.0720  138.2606  152.9266 H   0  0  0  0  0  0  0  0  0  0  0  0
  146.3195  140.5833  153.1402 H   0  0  0  0  0  0  0  0  0  0  0  0
  146.2969  144.0550  154.1998 H   0  0  0  0  0  0  0  0  0  0  0  0
  145.6154  142.4589  154.4855 H   0  0  0  0  0  0  0  0  0  0  0  0
  146.3400  142.8600  152.9094 H   0  0  0  0  0  0  0  0  0  0  0  0
  1  2  1  0  0  0  0
  1 25  1  0  0  0  0
  1 26  1  0  0  0  0
  1 27  1  0  0  0  0
  2  3  1  0  0  0  0
  2 28  1  0  0  0  0
  2 29  1  0  0  0  0
  3  4  1  0  0  0  0
  3  5  1  0  0  0  0
  3 30  1  0  0  0  0
  4 31  1  0  0  0  0
  5 13  1  0  0  0  0
  5  6  2  0  0  0  0
  6  7  1  0  0  0  0
  7 12  2  0  0  0  0
  7  8  1  0  0  0  0
  8  9  2  0  0  0  0
  8 32  1  0  0  0  0
  9 10  1  0  0  0  0
  9 33  1  0  0  0  0
 10 11  2  0  0  0  0
 10 34  1  0  0  0  0
 11 12  1  0  0  0  0
 11 35  1  0  0  0  0
 12 13  1  0  0  0  0
 13 14  1  0  0  0  0
 14 15  1  0  0  0  0
 14 36  1  0  0  0  0
 14 37  1  0  0  0  0
 15 16  1  0  0  0  0
 15 38  1  0  0  0  0
 15 39  1  0  0  0  0
 16 17  1  0  0  0  0
 17 22  1  0  0  0  0
 17 18  2  0  0  0  0
 18 19  1  0  0  0  0
 18 40  1  0  0  0  0
 19 20  2  0  0  0  0
 19 41  1  0  0  0  0
 20 21  1  0  0  0  0
 20 42  1  0  0  0  0
 21 22  2  0  0  0  0
 21 43  1  0  0  0  0
 22 23  1  0  0  0  0
 23 24  1  0  0  0  0
 24 44  1  0  0  0  0
 24 45  1  0  0  0  0
 24 46  1  0  0  0  0
M  END
> <s_m_source_file>
AV-unprocessed.smi

> <i_m_source_file_index>
460

> <i_lp_mmshare_version>
43012

> <i_f3d_flags>
0

> <s_epik_input>
W2NIXTFbY0hdW2NIXVtjSF1jKGMxMiluKGMobjIpW0NAQEhdKFtPSF0pW0NIMl1bQ0gzXSlbQ0gyXVtDSDJdT2MzW2NIXVtjSF1bY0hdW2NIXWMzT1tDSDNd

> <s_epik_cmdline>
J2VwaWtfcHl0aG9uJywgJy1waCcsICc3LjAnLCAnLXRuJywgJzgnLCAnLW1hJywgJzIwMCcsICctbWV0YWxfYmluZGluZycsICctaW1hZScsICc8aW5maWxlLm1hZT4nLCAnLW9tYWUnLCAnPG91dGZpbGUubWFlPic=

> <r_lp_tautomer_probability>
1

> <r_epik_Ionization_Penalty>
0.0507825

> <r_epik_Ionization_Penalty_Charging>
0

> <r_epik_Ionization_Penalty_Neutral>
0.0507825

> <r_epik_State_Penalty>
0.0434615

> <r_epik_Charging_Adjusted_Penalty>
0.0434615

> <i_epik_Tot_Q>
0

> <i_epik_Tot_abs_Q>
0

> <r_epik_Metal_State_Penalty>
4.50935e-05

> <b_epik_Metal_Only>
0

> <s_lp_Force_Field>
OPLS_2005

> <r_lp_Energy>
20.8142

> <b_lp_Chiralities_Consistent>
1

> <s_lp_Variant>
AV-unprocessed.smi:460-1

> <Gold.Version>
5.8.1

> <Gold.Id.Protein>
6NUR|6NUR_protein|mol2

> <Gold.PLP.Fitness>
49.9043

> <Gold.PLP.PLP>
-47.8660

> <Gold.PLP.part.hbond>
-1.0000

> <Gold.PLP.part.metal>
0.0000

> <Gold.PLP.part.buried>
-7.9144

> <Gold.PLP.part.nonpolar>
-41.7974

> <Gold.PLP.part.repulsive>
2.7430

> <Gold.PLP.ligand.clash>
0.0000

> <Gold.PLP.ligand.torsion>
0.5484

> <Gold.PLP.Chemscore.Hbond>
1.0000

> <Gold.PLP.Chemscore.CHOScore>
0.0000

> <Gold.PLP.Chemscore.Metal>
0.0000

> <Gold.Chemscore.Hbonds>
donor molecule, donor type, donor heavy atom, donor atom, acceptor molecule, acceptor atom, score
      P1  H  7997  8009       L1     4  1.00

> <Gold.PLP.Chemscore.Internal.Correction>
0.1351

> <Gold.Rescore>
     Score         DG    S(hbond)    S(metal)    S(lipo)     H(rot)  DE(clash)    DE(int)     intcor
     15.46     -17.72       0.55        0.00     140.61       2.36       0.55       1.71       ----

> <Gold.Chemscore.Fitness>
15.4618

> <Gold.Chemscore.DG>
-17.7222

> <Gold.Chemscore.ZeroCoef>
-5.4800

> <Gold.Chemscore.Hbond>
0.5477

> <Gold.Chemscore.Metal>
0.0000

> <Gold.Chemscore.Lipo>
140.6080

> <Gold.Chemscore.Internal_Hbond>
0.0000

> <Gold.Chemscore.DEClash>
0.5520

> <Gold.Chemscore.DEInternal>
1.7084

> <Gold.Chemscore.Rot>
2.3587

> <Gold.Chemscore.Internal.Correction>
   9.000000E+99

> <Gold.Chemscore.Hbonds>
donor molecule, donor type, donor heavy atom, donor atom, acceptor molecule, acceptor atom, score
      P1  H  7997  8009       L1     4  0.35

> <Gold.Chemscore.Hbond.Weighted>
-1.8294

> <Gold.Chemscore.Metal.Weighted>
-0.0000

> <Gold.Chemscore.Lipo.Weighted>
-16.4511

> <Gold.Chemscore.Internal_Hbond.Weighted>
0.0000

> <Gold.Chemscore.DEClash.Weighted>
0.5520

> <Gold.Chemscore.DEInternal.Weighted>
1.7084

> <Gold.Chemscore.Rot.Weighted>
6.0384

> <Gold.Chemscore.Internal.Correction.Weighted>
   9.000000E+99

> <Gold.Protein.RotatedTorsions>
[ 6907 6896 6895 6894 ] final  -58.01 input  -60.11 | X-H torsion
[ 7974 7965 7964 7962 ] final   51.56 input  175.53 | X-H torsion
[ 8008 7997 7996 7995 ] final  151.75 input   59.86 | X-H torsion
[ 10167 10162 10161 10158 ] final  -55.37 input  -65.29 | X-H torsion
[ 10718 10713 10712 10709 ] final  103.70 input   66.30 | X-H torsion
[ 10763 10752 10751 10750 ] final -165.86 input  -60.55 | X-H torsion
[ 11005 11000 10999 10996 ] final  -20.39 input  -57.11 | X-H torsion

> <Gold.Protein.ActiveResidues>
 VAL166  LYS551  ARG553  GLY616  TRP617  ASP618  TYR619  PRO620  LYS621  CYS622 
 ASP623  PHE694  ASN695  SER759  ASP760  ASP761  ALA762  ILE779  LEU786  VAL792 
 PHE793  MET794  SER795  GLU796  ALA797  LYS798  CYS799  TRP800  GLU811  SER814 

> <Gold.Protein.RotatedAtoms>
  150.8040  134.7153  159.6626 H   0  0  0  0  0  0  0  0  0  0  0  0  # atno 6907 bound_to 6896
  152.4159  134.6039  160.0017 H   0  0  0  0  0  0  0  0  0  0  0  0  # atno 6908 bound_to 6896
  151.6268  133.3298  159.3136 H   0  0  0  0  0  0  0  0  0  0  0  0  # atno 6909 bound_to 6896
  145.9901  139.4330  143.0079 H   0  0  0  0  0  0  0  0  0  0  0  0  # atno 7974 bound_to 7965
  156.2660  140.2039  156.6226 H   0  0  0  0  0  0  0  0  0  0  0  0  # atno 8008 bound_to 7997
  154.6745  140.0546  157.0225 H   0  0  0  0  0  0  0  0  0  0  0  0  # atno 8009 bound_to 7997
  155.1089  140.3213  155.4530 H   0  0  0  0  0  0  0  0  0  0  0  0  # atno 8010 bound_to 7997
  140.6379  143.2491  151.5070 H   0  0  0  0  0  0  0  0  0  0  0  0  # atno 10167 bound_to 10162
  157.6764  131.0785  150.5594 H   0  0  0  0  0  0  0  0  0  0  0  0  # atno 10718 bound_to 10713
  154.6890  135.2967  154.9506 H   0  0  0  0  0  0  0  0  0  0  0  0  # atno 10763 bound_to 10752
  154.0475  135.6649  153.4800 H   0  0  0  0  0  0  0  0  0  0  0  0  # atno 10764 bound_to 10752
  153.0599  135.5122  154.7973 H   0  0  0  0  0  0  0  0  0  0  0  0  # atno 10765 bound_to 10752
  140.8459  133.7892  155.9912 H   0  0  0  0  0  0  0  0  0  0  0  0  # atno 11005 bound_to 11000
  145.7642  140.9923  143.1184 LP  0  0  0  0  0  0  0  0  0  0  0  0  # atno 17320 bound_to 7965
  144.6886  139.9368  143.7473 LP  0  0  0  0  0  0  0  0  0  0  0  0  # atno 17321 bound_to 7965
  139.5588  144.2207  152.1657 LP  0  0  0  0  0  0  0  0  0  0  0  0  # atno 17342 bound_to 10162
  140.1469  144.5150  150.6710 LP  0  0  0  0  0  0  0  0  0  0  0  0  # atno 17343 bound_to 10162
  156.5897  130.4326  149.5941 LP  0  0  0  0  0  0  0  0  0  0  0  0  # atno 17370 bound_to 10713
  156.2593  130.6953  151.1716 LP  0  0  0  0  0  0  0  0  0  0  0  0  # atno 17371 bound_to 10713
  140.8843  134.2573  157.5128 LP  0  0  0  0  0  0  0  0  0  0  0  0  # atno 17394 bound_to 11000
  139.8703  134.9630  156.4449 LP  0  0  0  0  0  0  0  0  0  0  0  0  # atno 17395 bound_to 11000

$$$$
