AV-unprocessed.smi:2763|AV-procd|sdf|10639|dock2
  -GOLD-   2272015 83D 1   1.00000     0.00000
 Structure written by MMmdl.
 37 38  0  0  0  0  0  0  0  0  1 V2000
  150.2366  140.5167  156.7116 O   0  0  0  0  0  0  0  0  0  0  0  0
  150.0601  141.6822  156.3556 C   0  0  0  0  0  0  0  0  0  0  0  0
  149.4479  142.0252  155.2131 N   0  0  0  0  0  0  0  0  0  0  0  0
  148.9044  141.0931  154.2315 C   0  0  0  0  0  0  0  0  0  0  0  0
  147.7250  141.7298  153.4807 C   0  0  0  0  0  0  0  0  0  0  0  0
  146.8837  142.6645  154.3651 C   0  0  1  0  0  0  0  0  0  0  0  0
  145.8011  143.4042  153.5545 C   0  0  0  0  0  0  0  0  0  0  0  0
  144.9294  144.2660  154.4753 C   0  0  0  0  0  0  0  0  0  0  0  0
  144.3828  143.4091  155.6220 C   0  0  0  0  0  0  0  0  0  0  0  0
  145.5290  142.6664  156.3263 C   0  0  0  0  0  0  0  0  0  0  0  0
  146.2529  141.8858  155.3803 O   0  0  0  0  0  0  0  0  0  0  0  0
  150.4418  142.7712  157.0462 N   0  0  0  0  0  0  0  0  0  0  0  0
  151.1284  142.8289  158.2885 C   0  0  0  0  0  0  0  0  0  0  0  0
  151.2182  144.1176  158.8627 C   0  0  0  0  0  0  0  0  0  0  0  0
  151.8818  144.2834  160.0941 C   0  0  0  0  0  0  0  0  0  0  0  0
  152.4399  143.1539  160.7183 C   0  0  0  0  0  0  0  0  0  0  0  0
  153.0877  143.2641  161.9023 F   0  0  0  0  0  0  0  0  0  0  0  0
  152.3074  141.9065  160.0807 C   0  0  0  0  0  0  0  0  0  0  0  0
  151.6710  141.7463  158.9008 N   0  0  0  0  0  0  0  0  0  0  0  0
  149.3471  143.0081  155.0067 H   0  0  0  0  0  0  0  0  0  0  0  0
  149.6694  140.7837  153.5175 H   0  0  0  0  0  0  0  0  0  0  0  0
  148.5775  140.1938  154.7544 H   0  0  0  0  0  0  0  0  0  0  0  0
  148.1084  142.2951  152.6301 H   0  0  0  0  0  0  0  0  0  0  0  0
  147.0878  140.9467  153.0673 H   0  0  0  0  0  0  0  0  0  0  0  0
  147.5467  143.3949  154.8326 H   0  0  0  0  0  0  0  0  0  0  0  0
  146.2613  144.0291  152.7884 H   0  0  0  0  0  0  0  0  0  0  0  0
  145.1733  142.6807  153.0326 H   0  0  0  0  0  0  0  0  0  0  0  0
  145.5228  145.0868  154.8803 H   0  0  0  0  0  0  0  0  0  0  0  0
  144.1111  144.7172  153.9135 H   0  0  0  0  0  0  0  0  0  0  0  0
  143.8409  144.0318  156.3342 H   0  0  0  0  0  0  0  0  0  0  0  0
  143.6674  142.6847  155.2305 H   0  0  0  0  0  0  0  0  0  0  0  0
  146.1998  143.3677  156.8254 H   0  0  0  0  0  0  0  0  0  0  0  0
  145.1301  142.0058  157.0964 H   0  0  0  0  0  0  0  0  0  0  0  0
  150.2159  143.6643  156.6340 H   0  0  0  0  0  0  0  0  0  0  0  0
  150.7840  144.9743  158.3678 H   0  0  0  0  0  0  0  0  0  0  0  0
  151.9609  145.2594  160.5497 H   0  0  0  0  0  0  0  0  0  0  0  0
  152.7223  141.0151  160.5274 H   0  0  0  0  0  0  0  0  0  0  0  0
  1  2  2  0  0  0  0
  2  3  1  0  0  0  0
  2 12  1  0  0  0  0
  3  4  1  0  0  0  0
  3 20  1  0  0  0  0
  4  5  1  0  0  0  0
  4 21  1  0  0  0  0
  4 22  1  0  0  0  0
  5  6  1  0  0  0  0
  5 23  1  0  0  0  0
  5 24  1  0  0  0  0
  6 11  1  0  0  0  0
  6  7  1  0  0  0  0
  6 25  1  0  0  0  0
  7  8  1  0  0  0  0
  7 26  1  0  0  0  0
  7 27  1  0  0  0  0
  8  9  1  0  0  0  0
  8 28  1  0  0  0  0
  8 29  1  0  0  0  0
  9 10  1  0  0  0  0
  9 30  1  0  0  0  0
  9 31  1  0  0  0  0
 10 11  1  0  0  0  0
 10 32  1  0  0  0  0
 10 33  1  0  0  0  0
 12 13  1  0  0  0  0
 12 34  1  0  0  0  0
 13 19  1  0  0  0  0
 13 14  2  0  0  0  0
 14 15  1  0  0  0  0
 14 35  1  0  0  0  0
 15 16  2  0  0  0  0
 15 36  1  0  0  0  0
 16 17  1  0  0  0  0
 16 18  1  0  0  0  0
 18 19  2  0  0  0  0
 18 37  1  0  0  0  0
M  END
> <s_m_source_file>
AV-unprocessed.smi

> <i_m_source_file_index>
2763

> <i_lp_mmshare_version>
43012

> <i_f3d_flags>
0

> <s_epik_input>
bjFbY0hdYyhGKVtjSF1bY0hdYzFbTkhdQyg9TylbTkhdW0NIMl1bQ0gyXVtDQEBIXTJbQ0gyXVtDSDJdW0NIMl1bQ0gyXU8y

> <s_epik_cmdline>
J2VwaWtfcHl0aG9uJywgJy1waCcsICc3LjAnLCAnLXRuJywgJzgnLCAnLW1hJywgJzIwMCcsICctbWV0YWxfYmluZGluZycsICctaW1hZScsICc8aW5maWxlLm1hZT4nLCAnLW9tYWUnLCAnPG91dGZpbGUubWFlPic=

> <r_lp_tautomer_probability>
1

> <r_epik_Ionization_Penalty>
3.67849e-05

> <r_epik_Ionization_Penalty_Charging>
0

> <r_epik_Ionization_Penalty_Neutral>
3.67849e-05

> <r_epik_State_Penalty>
-0

> <r_epik_Charging_Adjusted_Penalty>
0

> <i_epik_Tot_Q>
0

> <i_epik_Tot_abs_Q>
0

> <r_epik_Metal_State_Penalty>
-0

> <b_epik_Metal_Only>
0

> <s_lp_Force_Field>
OPLS_2005

> <r_lp_Energy>
13.3257

> <b_lp_Chiralities_Consistent>
1

> <s_lp_Variant>
AV-unprocessed.smi:2763-2

> <Gold.Version>
5.8.1

> <Gold.Id.Protein>
6NUR|6NUR_protein|mol2

> <Gold.PLP.Fitness>
46.4214

> <Gold.PLP.PLP>
-41.1393

> <Gold.PLP.part.hbond>
-2.0000

> <Gold.PLP.part.metal>
0.0000

> <Gold.PLP.part.buried>
-6.4797

> <Gold.PLP.part.nonpolar>
-32.3397

> <Gold.PLP.part.repulsive>
0.3385

> <Gold.PLP.ligand.clash>
0.0000

> <Gold.PLP.ligand.torsion>
0.3636

> <Gold.PLP.Chemscore.Hbond>
2.0000

> <Gold.PLP.Chemscore.CHOScore>
0.0000

> <Gold.PLP.Chemscore.Metal>
0.0000

> <Gold.Chemscore.Hbonds>
donor molecule, donor type, donor heavy atom, donor atom, acceptor molecule, acceptor atom, score
      L1  H     3    20       P1  8028  0.96
      L1  H    12    34       P1  8028  0.94

> <Gold.PLP.Chemscore.Internal.Correction>
0.0093

> <Gold.Rescore>
     Score         DG    S(hbond)    S(metal)    S(lipo)     H(rot)  DE(clash)    DE(int)     intcor
     15.34     -17.67       1.94        0.00      82.53       1.54       0.67       1.65       ----

> <Gold.Chemscore.Fitness>
15.3444

> <Gold.Chemscore.DG>
-17.6670

> <Gold.Chemscore.ZeroCoef>
-5.4800

> <Gold.Chemscore.Hbond>
1.9369

> <Gold.Chemscore.Metal>
0.0000

> <Gold.Chemscore.Lipo>
82.5310

> <Gold.Chemscore.Internal_Hbond>
0.0000

> <Gold.Chemscore.DEClash>
0.6731

> <Gold.Chemscore.DEInternal>
1.6496

> <Gold.Chemscore.Rot>
1.5384

> <Gold.Chemscore.Internal.Correction>
   9.000000E+99

> <Gold.Chemscore.Hbonds>
donor molecule, donor type, donor heavy atom, donor atom, acceptor molecule, acceptor atom, score
      L1  H     3    20       P1  8028  0.92
      L1  H    12    34       P1  8028  0.90

> <Gold.Chemscore.Hbond.Weighted>
-6.4691

> <Gold.Chemscore.Metal.Weighted>
-0.0000

> <Gold.Chemscore.Lipo.Weighted>
-9.6561

> <Gold.Chemscore.Internal_Hbond.Weighted>
0.0000

> <Gold.Chemscore.DEClash.Weighted>
0.6731

> <Gold.Chemscore.DEInternal.Weighted>
1.6496

> <Gold.Chemscore.Rot.Weighted>
3.9382

> <Gold.Chemscore.Internal.Correction.Weighted>
   9.000000E+99

> <Gold.Protein.RotatedTorsions>
[ 6907 6896 6895 6894 ] final -167.67 input  -60.11 | X-H torsion
[ 7974 7965 7964 7962 ] final  -24.41 input  175.53 | X-H torsion
[ 8008 7997 7996 7995 ] final  -10.36 input   59.86 | X-H torsion
[ 10167 10162 10161 10158 ] final  167.80 input  -65.29 | X-H torsion
[ 10718 10713 10712 10709 ] final    9.16 input   66.30 | X-H torsion
[ 10763 10752 10751 10750 ] final -136.42 input  -60.55 | X-H torsion
[ 11005 11000 10999 10996 ] final -108.02 input  -57.11 | X-H torsion

> <Gold.Protein.ActiveResidues>
 VAL166  LYS551  ARG553  GLY616  TRP617  ASP618  TYR619  PRO620  LYS621  CYS622 
 ASP623  PHE694  ASN695  SER759  ASP760  ASP761  ALA762  ILE779  LEU786  VAL792 
 PHE793  MET794  SER795  GLU796  ALA797  LYS798  CYS799  TRP800  GLU811  SER814 

> <Gold.Protein.RotatedAtoms>
  151.4632  133.3587  159.2812 H   0  0  0  0  0  0  0  0  0  0  0  0  # atno 6907 bound_to 6896
  150.9011  134.8425  159.7371 H   0  0  0  0  0  0  0  0  0  0  0  0  # atno 6908 bound_to 6896
  152.4880  134.4552  159.9639 H   0  0  0  0  0  0  0  0  0  0  0  0  # atno 6909 bound_to 6896
  146.1556  140.4747  142.8593 H   0  0  0  0  0  0  0  0  0  0  0  0  # atno 7974 bound_to 7965
  154.5561  140.2331  155.8408 H   0  0  0  0  0  0  0  0  0  0  0  0  # atno 8008 bound_to 7997
  156.1989  140.3057  155.9446 H   0  0  0  0  0  0  0  0  0  0  0  0  # atno 8009 bound_to 7997
  155.2977  140.0429  157.3018 H   0  0  0  0  0  0  0  0  0  0  0  0  # atno 8010 bound_to 7997
  139.4953  144.3883  151.9546 H   0  0  0  0  0  0  0  0  0  0  0  0  # atno 10167 bound_to 10162
  156.9623  130.5937  149.5663 H   0  0  0  0  0  0  0  0  0  0  0  0  # atno 10718 bound_to 10713
  154.8684  135.3673  154.5057 H   0  0  0  0  0  0  0  0  0  0  0  0  # atno 10763 bound_to 10752
  153.5695  135.7021  153.5516 H   0  0  0  0  0  0  0  0  0  0  0  0  # atno 10764 bound_to 10752
  153.3555  135.4060  155.1641 H   0  0  0  0  0  0  0  0  0  0  0  0  # atno 10765 bound_to 10752
  141.0924  133.9032  157.2044 H   0  0  0  0  0  0  0  0  0  0  0  0  # atno 11005 bound_to 11000
  144.7960  140.6123  143.6510 LP  0  0  0  0  0  0  0  0  0  0  0  0  # atno 17320 bound_to 7965
  145.4715  139.1503  143.3811 LP  0  0  0  0  0  0  0  0  0  0  0  0  # atno 17321 bound_to 7965
  140.3320  144.3305  150.5985 LP  0  0  0  0  0  0  0  0  0  0  0  0  # atno 17342 bound_to 10162
  140.5637  143.2189  151.7721 LP  0  0  0  0  0  0  0  0  0  0  0  0  # atno 17343 bound_to 10162
  156.0317  130.5408  150.8551 LP  0  0  0  0  0  0  0  0  0  0  0  0  # atno 17370 bound_to 10713
  157.5649  131.0946  150.9504 LP  0  0  0  0  0  0  0  0  0  0  0  0  # atno 17371 bound_to 10713
  139.9752  135.0116  156.9614 LP  0  0  0  0  0  0  0  0  0  0  0  0  # atno 17394 bound_to 11000
  140.5221  134.0897  155.7294 LP  0  0  0  0  0  0  0  0  0  0  0  0  # atno 17395 bound_to 11000

$$$$
