AV-unprocessed.smi:2169|AV-procd|sdf|8823|dock7
  -GOLD-   2272012 13D 1   1.00000     0.00000
 Structure written by MMmdl.
 45 46  0  0  0  0  0  0  0  0  2 V2000
  151.4793  141.8091  158.7423 C   0  0  0  0  0  0  0  0  0  0  0  0
  151.2198  140.2028  157.8844 S   0  0  0  0  0  0  0  0  0  0  0  0
  152.3821  139.9522  157.0183 O   0  0  0  0  0  0  0  0  0  0  0  0
  150.8320  139.2030  158.8912 O   0  0  0  0  0  0  0  0  0  0  0  0
  149.8429  140.4866  156.8586 N   0  0  0  0  0  0  0  0  0  0  0  0
  150.0353  140.7192  155.4130 C   0  0  0  0  0  0  0  0  0  0  0  0
  149.7206  139.4597  154.5862 C   0  0  0  0  0  0  0  0  0  0  0  0
  148.3161  138.9175  154.9018 C   0  0  0  0  0  0  0  0  0  0  0  0
  148.0571  137.6797  154.1721 N   0  0  0  0  0  0  0  0  0  0  0  0
  147.0522  136.8301  154.4257 C   0  0  0  0  0  0  0  0  0  0  0  0
  146.2078  137.0002  155.3057 O   0  0  0  0  0  0  0  0  0  0  0  0
  147.0786  135.7682  153.6082 N   0  0  0  0  0  0  0  0  0  0  0  0
  146.1223  134.6681  153.6414 C   0  0  0  0  0  0  0  0  0  0  0  0
  146.5908  133.4834  152.7801 C   0  0  0  0  0  0  0  0  0  0  0  0
  145.6978  133.2641  151.5747 C   0  0  0  0  0  0  0  0  0  0  0  0
  146.0730  132.3643  150.5524 C   0  0  0  0  0  0  0  0  0  0  0  0
  145.2205  132.1838  149.4431 C   0  0  0  0  0  0  0  0  0  0  0  0
  144.0123  132.9081  149.3808 C   0  0  0  0  0  0  0  0  0  0  0  0
  143.6873  133.7606  150.3776 N   0  3  0  0  0  0  0  0  0  0  0  0
  144.4760  133.9610  151.4563 C   0  0  0  0  0  0  0  0  0  0  0  0
  148.1977  138.6641  156.4117 C   0  0  0  0  0  0  0  0  0  0  0  0
  148.5238  139.9307  157.2221 C   0  0  0  0  0  0  0  0  0  0  0  0
  152.3348  141.7207  159.4113 H   0  0  0  0  0  0  0  0  0  0  0  0
  150.5980  142.0626  159.3288 H   0  0  0  0  0  0  0  0  0  0  0  0
  151.6814  142.5916  158.0131 H   0  0  0  0  0  0  0  0  0  0  0  0
  149.3747  141.5304  155.1048 H   0  0  0  0  0  0  0  0  0  0  0  0
  151.0514  141.0590  155.2146 H   0  0  0  0  0  0  0  0  0  0  0  0
  149.8012  139.6978  153.5250 H   0  0  0  0  0  0  0  0  0  0  0  0
  150.4674  138.6907  154.7811 H   0  0  0  0  0  0  0  0  0  0  0  0
  147.5712  139.6638  154.6178 H   0  0  0  0  0  0  0  0  0  0  0  0
  148.6975  137.4502  153.4262 H   0  0  0  0  0  0  0  0  0  0  0  0
  147.8108  135.7173  152.9147 H   0  0  0  0  0  0  0  0  0  0  0  0
  145.9577  134.3522  154.6731 H   0  0  0  0  0  0  0  0  0  0  0  0
  145.1656  135.0402  153.2738 H   0  0  0  0  0  0  0  0  0  0  0  0
  147.6154  133.6474  152.4435 H   0  0  0  0  0  0  0  0  0  0  0  0
  146.6057  132.5668  153.3713 H   0  0  0  0  0  0  0  0  0  0  0  0
  147.0032  131.8181  150.6153 H   0  0  0  0  0  0  0  0  0  0  0  0
  145.4901  131.4993  148.6519 H   0  0  0  0  0  0  0  0  0  0  0  0
  143.3019  132.8320  148.5703 H   0  0  0  0  0  0  0  0  0  0  0  0
  144.1089  134.6686  152.1857 H   0  0  0  0  0  0  0  0  0  0  0  0
  147.1883  138.3295  156.6542 H   0  0  0  0  0  0  0  0  0  0  0  0
  148.8644  137.8541  156.7058 H   0  0  0  0  0  0  0  0  0  0  0  0
  148.4811  139.7191  158.2902 H   0  0  0  0  0  0  0  0  0  0  0  0
  147.7662  140.6911  157.0295 H   0  0  0  0  0  0  0  0  0  0  0  0
  142.8084  134.2751  150.3130 H   0  0  0  0  0  0  0  0  0  0  0  0
  1  2  1  0  0  0  0
  1 23  1  0  0  0  0
  1 24  1  0  0  0  0
  1 25  1  0  0  0  0
  2  3  2  0  0  0  0
  2  4  2  0  0  0  0
  2  5  1  0  0  0  0
  5 22  1  0  0  0  0
  5  6  1  0  0  0  0
  6  7  1  0  0  0  0
  6 26  1  0  0  0  0
  6 27  1  0  0  0  0
  7  8  1  0  0  0  0
  7 28  1  0  0  0  0
  7 29  1  0  0  0  0
  8  9  1  0  0  0  0
  8 21  1  0  0  0  0
  8 30  1  0  0  0  0
  9 10  1  0  0  0  0
  9 31  1  0  0  0  0
 10 11  2  0  0  0  0
 10 12  1  0  0  0  0
 12 13  1  0  0  0  0
 12 32  1  0  0  0  0
 13 14  1  0  0  0  0
 13 33  1  0  0  0  0
 13 34  1  0  0  0  0
 14 15  1  0  0  0  0
 14 35  1  0  0  0  0
 14 36  1  0  0  0  0
 15 20  1  0  0  0  0
 15 16  2  0  0  0  0
 16 17  1  0  0  0  0
 16 37  1  0  0  0  0
 17 18  2  0  0  0  0
 17 38  1  0  0  0  0
 18 19  1  0  0  0  0
 18 39  1  0  0  0  0
 19 20  2  0  0  0  0
 19 45  1  0  0  0  0
 20 40  1  0  0  0  0
 21 22  1  0  0  0  0
 21 41  1  0  0  0  0
 21 42  1  0  0  0  0
 22 43  1  0  0  0  0
 22 44  1  0  0  0  0
M  CHG  1  19   1
M  END
> <s_m_source_file>
AV-unprocessed.smi

> <i_m_source_file_index>
2169

> <i_lp_mmshare_version>
43012

> <i_f3d_flags>
0

> <s_epik_input>
W0NIM11TKD1PKSg9TylOMVtDSDJdW0NIMl1bQ0hdKFtDSDJdW0NIMl0xKVtOSF1DKD1PKVtOSF1bQ0gyXVtDSDJdYzJbY0hdW2NIXVtjSF1uW2NIXTI=

> <s_epik_cmdline>
J2VwaWtfcHl0aG9uJywgJy1waCcsICc3LjAnLCAnLXRuJywgJzgnLCAnLW1hJywgJzIwMCcsICctbWV0YWxfYmluZGluZycsICctaW1hZScsICc8aW5maWxlLm1hZT4nLCAnLW9tYWUnLCAnPG91dGZpbGUubWFlPic=

> <r_epik_Ionization_Penalty>
2.21124

> <r_epik_Ionization_Penalty_Charging>
2.21119

> <r_epik_Ionization_Penalty_Neutral>
4.90089e-05

> <r_epik_State_Penalty>
2.35542

> <r_epik_Charging_Adjusted_Penalty>
4.56661

> <i_epik_Tot_Q>
1

> <i_epik_Tot_abs_Q>
1

> <r_epik_Metal_State_Penalty>
2.36951

> <b_epik_Metal_Only>
0

> <s_lp_Force_Field>
OPLS_2005

> <r_lp_Energy>
3.64161

> <b_lp_Chiralities_Consistent>
1

> <s_lp_Variant>
AV-unprocessed.smi:2169-2

> <Gold.Version>
5.8.1

> <Gold.Id.Protein>
6NUR|6NUR_protein|mol2

> <Gold.PLP.Fitness>
45.7461

> <Gold.PLP.PLP>
-32.5655

> <Gold.PLP.part.hbond>
-4.0000

> <Gold.PLP.part.metal>
0.0000

> <Gold.PLP.part.buried>
-4.1842

> <Gold.PLP.part.nonpolar>
-23.9273

> <Gold.PLP.part.repulsive>
0.0408

> <Gold.PLP.ligand.clash>
0.0000

> <Gold.PLP.ligand.torsion>
1.7171

> <Gold.PLP.Chemscore.Hbond>
4.8480

> <Gold.PLP.Chemscore.CHOScore>
0.0000

> <Gold.PLP.Chemscore.Metal>
0.0000

> <Gold.Chemscore.Hbonds>
donor molecule, donor type, donor heavy atom, donor atom, acceptor molecule, acceptor atom, score
      L1  H     9    31       P1  7948  0.88
      L1  H    12    32       P1  7948  1.00
      L1  H    19    45       P1 10186  1.98
      P1  H  7997  8009       L1     3  0.99

> <Gold.PLP.Chemscore.Internal.Correction>
2.0708

> <Gold.Rescore>
     Score         DG    S(hbond)    S(metal)    S(lipo)     H(rot)  DE(clash)    DE(int)     intcor
     19.54     -22.76       3.75        0.00      78.41       1.73       0.10       3.12       ----

> <Gold.Chemscore.Fitness>
19.5438

> <Gold.Chemscore.DG>
-22.7634

> <Gold.Chemscore.ZeroCoef>
-5.4800

> <Gold.Chemscore.Hbond>
3.7537

> <Gold.Chemscore.Metal>
0.0000

> <Gold.Chemscore.Lipo>
78.4091

> <Gold.Chemscore.Internal_Hbond>
0.0000

> <Gold.Chemscore.DEClash>
0.0961

> <Gold.Chemscore.DEInternal>
3.1235

> <Gold.Chemscore.Rot>
1.7297

> <Gold.Chemscore.Internal.Correction>
   9.000000E+99

> <Gold.Chemscore.Hbonds>
donor molecule, donor type, donor heavy atom, donor atom, acceptor molecule, acceptor atom, score
      L1  H     9    31       P1  7948  0.84
      L1  H    12    32       P1  7948  0.99
      L1  H    19    45       P1 10186  0.76
      P1  H  7997  8009       L1     3  0.92

> <Gold.Chemscore.Hbond.Weighted>
-12.5375

> <Gold.Chemscore.Metal.Weighted>
-0.0000

> <Gold.Chemscore.Lipo.Weighted>
-9.1739

> <Gold.Chemscore.Internal_Hbond.Weighted>
0.0000

> <Gold.Chemscore.DEClash.Weighted>
0.0961

> <Gold.Chemscore.DEInternal.Weighted>
3.1235

> <Gold.Chemscore.Rot.Weighted>
4.4280

> <Gold.Chemscore.Internal.Correction.Weighted>
   9.000000E+99

> <Gold.Protein.RotatedTorsions>
[ 6907 6896 6895 6894 ] final -141.92 input  -60.11 | X-H torsion
[ 7974 7965 7964 7962 ] final   40.87 input  175.53 | X-H torsion
[ 8008 7997 7996 7995 ] final -170.56 input   59.86 | X-H torsion
[ 10167 10162 10161 10158 ] final -172.70 input  -65.29 | X-H torsion
[ 10718 10713 10712 10709 ] final -122.57 input   66.30 | X-H torsion
[ 10763 10752 10751 10750 ] final  134.08 input  -60.55 | X-H torsion
[ 11005 11000 10999 10996 ] final  -25.52 input  -57.11 | X-H torsion

> <Gold.Protein.ActiveResidues>
 VAL166  LYS551  ARG553  GLY616  TRP617  ASP618  TYR619  PRO620  LYS621  CYS622 
 ASP623  PHE694  ASN695  SER759  ASP760  ASP761  ALA762  ILE779  LEU786  VAL792 
 PHE793  MET794  SER795  GLU796  ALA797  LYS798  CYS799  TRP800  GLU811  SER814 

> <Gold.Protein.RotatedAtoms>
  151.0802  133.5396  159.2620 H   0  0  0  0  0  0  0  0  0  0  0  0  # atno 6907 bound_to 6896
  151.2302  135.0551  159.8994 H   0  0  0  0  0  0  0  0  0  0  0  0  # atno 6908 bound_to 6896
  152.5423  134.0592  159.8198 H   0  0  0  0  0  0  0  0  0  0  0  0  # atno 6909 bound_to 6896
  146.0870  139.5482  142.9500 H   0  0  0  0  0  0  0  0  0  0  0  0  # atno 7974 bound_to 7965
  155.9200  140.1072  157.1214 H   0  0  0  0  0  0  0  0  0  0  0  0  # atno 8008 bound_to 7997
  154.4053  140.1258  156.4732 H   0  0  0  0  0  0  0  0  0  0  0  0  # atno 8009 bound_to 7997
  155.7207  140.3470  155.5017 H   0  0  0  0  0  0  0  0  0  0  0  0  # atno 8010 bound_to 7997
  139.5729  144.1599  152.1410 H   0  0  0  0  0  0  0  0  0  0  0  0  # atno 10167 bound_to 10162
  156.1430  130.6479  150.9799 H   0  0  0  0  0  0  0  0  0  0  0  0  # atno 10718 bound_to 10713
  153.8177  135.3120  155.3407 H   0  0  0  0  0  0  0  0  0  0  0  0  # atno 10763 bound_to 10752
  154.8025  135.4718  154.0314 H   0  0  0  0  0  0  0  0  0  0  0  0  # atno 10764 bound_to 10752
  153.1713  135.6878  153.8693 H   0  0  0  0  0  0  0  0  0  0  0  0  # atno 10765 bound_to 10752
  140.8945  133.7566  156.0463 H   0  0  0  0  0  0  0  0  0  0  0  0  # atno 11005 bound_to 11000
  145.6111  141.0339  143.1966 LP  0  0  0  0  0  0  0  0  0  0  0  0  # atno 17320 bound_to 7965
  144.7333  139.7661  143.7339 LP  0  0  0  0  0  0  0  0  0  0  0  0  # atno 17321 bound_to 7965
  140.1135  144.5436  150.6909 LP  0  0  0  0  0  0  0  0  0  0  0  0  # atno 17342 bound_to 10162
  140.7013  143.2437  151.4855 LP  0  0  0  0  0  0  0  0  0  0  0  0  # atno 17343 bound_to 10162
  157.6592  131.0884  150.7878 LP  0  0  0  0  0  0  0  0  0  0  0  0  # atno 17370 bound_to 10713
  156.7951  130.4903  149.5378 LP  0  0  0  0  0  0  0  0  0  0  0  0  # atno 17371 bound_to 10713
  140.8306  134.3182  157.5350 LP  0  0  0  0  0  0  0  0  0  0  0  0  # atno 17394 bound_to 11000
  139.8734  134.9361  156.3652 LP  0  0  0  0  0  0  0  0  0  0  0  0  # atno 17395 bound_to 11000

$$$$
