AV-unprocessed.smi:212|AV-procd|sdf|1618|dock8
  -GOLD-   2262019553D 1   1.00000     0.00000
 Structure written by MMmdl.
 65 68  0  0  0  0  0  0  0  0  2 V2000
  142.6111  135.3130  153.7183 C   0  0  0  0  0  0  0  0  0  0  0  0
  144.1134  135.2927  154.0470 C   0  0  1  0  0  0  0  0  0  0  0  0
  144.8795  134.2505  153.2054 C   0  0  0  0  0  0  0  0  0  0  0  0
  145.0096  134.6825  151.7894 N   0  3  2  0  0  0  0  0  0  0  0  0
  145.6154  133.6492  150.9095 C   0  0  0  0  0  0  0  0  0  0  0  0
  144.5781  133.0143  149.9554 C   0  0  0  0  0  0  0  0  0  0  0  0
  145.2673  132.0199  149.0063 C   0  0  0  0  0  0  0  0  0  0  0  0
  143.4232  132.3228  150.7030 C   0  0  0  0  0  0  0  0  0  0  0  0
  144.0325  134.0392  149.1476 O   0  0  0  0  0  0  0  0  0  0  0  0
  145.6537  136.0138  151.6650 C   0  0  0  0  0  0  0  0  0  0  0  0
  144.9062  137.0669  152.5039 C   0  0  0  0  0  0  0  0  0  0  0  0
  144.7210  136.6164  153.8847 N   0  0  0  0  0  0  0  0  0  0  0  0
  145.6512  136.9595  154.8140 C   0  0  0  0  0  0  0  0  0  0  0  0
  145.5414  136.4967  156.0879 N   0  0  0  0  0  0  0  0  0  0  0  0
  146.4416  136.8428  157.0126 C   0  0  0  0  0  0  0  0  0  0  0  0
  147.5137  137.6252  156.8806 N   0  0  0  0  0  0  0  0  0  0  0  0
  147.6382  138.0828  155.6025 C   0  0  0  0  0  0  0  0  0  0  0  0
  146.7591  137.8033  154.5184 C   0  0  0  0  0  0  0  0  0  0  0  0
  147.2097  138.4407  153.3683 N   0  0  0  0  0  0  0  0  0  0  0  0
  148.2880  139.0675  153.7520 C   0  0  0  0  0  0  0  0  0  0  0  0
  148.6277  138.8941  155.0750 N   0  0  0  0  0  0  0  0  0  0  0  0
  149.7627  139.4787  155.7656 C   0  0  0  0  0  0  0  0  0  0  0  0
  149.4158  140.6555  156.7214 C   0  0  2  0  0  0  0  0  0  0  0  0
  148.4904  141.6608  156.0006 C   0  0  0  0  0  0  0  0  0  0  0  0
  149.0985  142.1742  154.8334 O   0  0  0  0  0  0  0  0  0  0  0  0
  150.6186  141.4133  157.3571 C   0  0  2  0  0  0  0  0  0  0  0  0
  151.5929  140.5985  158.1872 C   0  0  0  0  0  0  0  0  0  0  0  0
  152.3908  141.6884  158.9028 C   0  0  0  0  0  0  0  0  0  0  0  0
  151.5526  142.8421  158.9494 O   0  0  0  0  0  0  0  0  0  0  0  0
  150.3133  142.5751  158.3036 C   0  0  0  0  0  0  0  0  0  0  0  0
  142.1594  134.3384  153.9047 H   0  0  0  0  0  0  0  0  0  0  0  0
  142.4214  135.5683  152.6756 H   0  0  0  0  0  0  0  0  0  0  0  0
  142.0876  136.0401  154.3400 H   0  0  0  0  0  0  0  0  0  0  0  0
  144.1960  134.9747  155.0860 H   0  0  0  0  0  0  0  0  0  0  0  0
  145.8776  134.1060  153.6222 H   0  0  0  0  0  0  0  0  0  0  0  0
  144.3765  133.2844  153.2605 H   0  0  0  0  0  0  0  0  0  0  0  0
  146.4231  134.0878  150.3207 H   0  0  0  0  0  0  0  0  0  0  0  0
  146.0894  132.8730  151.5127 H   0  0  0  0  0  0  0  0  0  0  0  0
  145.7147  131.1931  149.5589 H   0  0  0  0  0  0  0  0  0  0  0  0
  146.0619  132.4995  148.4332 H   0  0  0  0  0  0  0  0  0  0  0  0
  144.5608  131.5928  148.2933 H   0  0  0  0  0  0  0  0  0  0  0  0
  143.7960  131.5399  151.3642 H   0  0  0  0  0  0  0  0  0  0  0  0
  142.7228  131.8589  150.0079 H   0  0  0  0  0  0  0  0  0  0  0  0
  142.8532  133.0259  151.3111 H   0  0  0  0  0  0  0  0  0  0  0  0
  144.7060  134.3535  148.5633 H   0  0  0  0  0  0  0  0  0  0  0  0
  146.6944  135.9414  151.9835 H   0  0  0  0  0  0  0  0  0  0  0  0
  145.6621  136.3223  150.6188 H   0  0  0  0  0  0  0  0  0  0  0  0
  145.4272  138.0246  152.4703 H   0  0  0  0  0  0  0  0  0  0  0  0
  143.9238  137.2511  152.0690 H   0  0  0  0  0  0  0  0  0  0  0  0
  146.2803  136.4348  157.9996 H   0  0  0  0  0  0  0  0  0  0  0  0
  148.8723  139.6709  153.0724 H   0  0  0  0  0  0  0  0  0  0  0  0
  150.2882  138.6911  156.3060 H   0  0  0  0  0  0  0  0  0  0  0  0
  150.4549  139.8174  154.9943 H   0  0  0  0  0  0  0  0  0  0  0  0
  148.8385  140.2509  157.5537 H   0  0  0  0  0  0  0  0  0  0  0  0
  147.5591  141.1828  155.6956 H   0  0  0  0  0  0  0  0  0  0  0  0
  148.2243  142.4859  156.6620 H   0  0  0  0  0  0  0  0  0  0  0  0
  149.2603  143.0968  154.9592 H   0  0  0  0  0  0  0  0  0  0  0  0
  151.1905  141.8585  156.5409 H   0  0  0  0  0  0  0  0  0  0  0  0
  151.0723  139.9914  158.9263 H   0  0  0  0  0  0  0  0  0  0  0  0
  152.2218  139.9398  157.5880 H   0  0  0  0  0  0  0  0  0  0  0  0
  152.6941  141.3815  159.9040 H   0  0  0  0  0  0  0  0  0  0  0  0
  153.2904  141.9387  158.3396 H   0  0  0  0  0  0  0  0  0  0  0  0
  149.9408  143.4556  157.7797 H   0  0  0  0  0  0  0  0  0  0  0  0
  149.5942  142.3146  159.0748 H   0  0  0  0  0  0  0  0  0  0  0  0
  144.0674  134.8065  151.4467 H   0  0  0  0  0  0  0  0  0  0  0  0
  1  2  1  0  0  0  0
  1 31  1  0  0  0  0
  1 32  1  0  0  0  0
  1 33  1  0  0  0  0
  2 12  1  0  0  0  0
  2  3  1  0  0  0  0
  2 34  1  0  0  0  0
  3  4  1  0  0  0  0
  3 35  1  0  0  0  0
  3 36  1  0  0  0  0
  4  5  1  0  0  0  0
  4 10  1  0  0  0  0
  4 65  1  0  0  0  0
  5  6  1  0  0  0  0
  5 37  1  0  0  0  0
  5 38  1  0  0  0  0
  6  7  1  0  0  0  0
  6  8  1  0  0  0  0
  6  9  1  0  0  0  0
  7 39  1  0  0  0  0
  7 40  1  0  0  0  0
  7 41  1  0  0  0  0
  8 42  1  0  0  0  0
  8 43  1  0  0  0  0
  8 44  1  0  0  0  0
  9 45  1  0  0  0  0
 10 11  1  0  0  0  0
 10 46  1  0  0  0  0
 10 47  1  0  0  0  0
 11 12  1  0  0  0  0
 11 48  1  0  0  0  0
 11 49  1  0  0  0  0
 12 13  1  0  0  0  0
 13 18  1  0  0  0  0
 13 14  2  0  0  0  0
 14 15  1  0  0  0  0
 15 16  2  0  0  0  0
 15 50  1  0  0  0  0
 16 17  1  0  0  0  0
 17 21  1  0  0  0  0
 17 18  2  0  0  0  0
 18 19  1  0  0  0  0
 19 20  2  0  0  0  0
 20 21  1  0  0  0  0
 20 51  1  0  0  0  0
 21 22  1  0  0  0  0
 22 23  1  0  0  0  0
 22 52  1  0  0  0  0
 22 53  1  0  0  0  0
 23 24  1  0  0  0  0
 23 26  1  0  0  0  0
 23 54  1  0  0  0  0
 24 25  1  0  0  0  0
 24 55  1  0  0  0  0
 24 56  1  0  0  0  0
 25 57  1  0  0  0  0
 26 30  1  0  0  0  0
 26 27  1  0  0  0  0
 26 58  1  0  0  0  0
 27 28  1  0  0  0  0
 27 59  1  0  0  0  0
 27 60  1  0  0  0  0
 28 29  1  0  0  0  0
 28 61  1  0  0  0  0
 28 62  1  0  0  0  0
 29 30  1  0  0  0  0
 30 63  1  0  0  0  0
 30 64  1  0  0  0  0
M  CHG  1   4   1
M  END
> <s_m_source_file>
AV-unprocessed.smi

> <i_m_source_file_index>
212

> <i_lp_mmshare_version>
43012

> <i_f3d_flags>
0

> <s_epik_input>
W0NIM11bQ0BASF0xW0NIMl1OKFtDSDJdQyhbQ0gzXSkoW0NIM10pW09IXSlbQ0gyXVtDSDJdTjFjKG5bY0hdbjIpYyhjMjMpbltjSF1uM1tDSDJdW0NASF0oW0NIMl1bT0hdKVtDQEBIXTRbQ0gyXVtDSDJdT1tDSDJdNA==

> <s_epik_cmdline>
J2VwaWtfcHl0aG9uJywgJy1waCcsICc3LjAnLCAnLXRuJywgJzgnLCAnLW1hJywgJzIwMCcsICctbWV0YWxfYmluZGluZycsICctaW1hZScsICc8aW5maWxlLm1hZT4nLCAnLW9tYWUnLCAnPG91dGZpbGUubWFlPic=

> <r_lp_tautomer_probability>
1

> <r_epik_Ionization_Penalty>
0.00182193

> <r_epik_Ionization_Penalty_Charging>
0.00173996

> <r_epik_Ionization_Penalty_Neutral>
8.19718e-05

> <r_epik_State_Penalty>
-0

> <r_epik_Charging_Adjusted_Penalty>
0.00173996

> <i_epik_Tot_Q>
1

> <i_epik_Tot_abs_Q>
1

> <r_epik_Metal_State_Penalty>
-0

> <b_epik_Metal_Only>
0

> <s_lp_Force_Field>
OPLS_2005

> <r_lp_Energy>
59.4292

> <b_lp_Chiralities_Consistent>
1

> <s_lp_Variant>
AV-unprocessed.smi:212-2

> <Gold.Version>
5.8.1

> <Gold.Id.Protein>
6NUR|6NUR_protein|mol2

> <Gold.PLP.Fitness>
43.5935

> <Gold.PLP.PLP>
-35.7649

> <Gold.PLP.part.hbond>
-3.7217

> <Gold.PLP.part.metal>
0.0000

> <Gold.PLP.part.buried>
-4.8335

> <Gold.PLP.part.nonpolar>
-27.5528

> <Gold.PLP.part.repulsive>
0.2466

> <Gold.PLP.ligand.clash>
0.0000

> <Gold.PLP.ligand.torsion>
1.1795

> <Gold.PLP.Chemscore.Hbond>
2.0000

> <Gold.PLP.Chemscore.CHOScore>
1.0000

> <Gold.PLP.Chemscore.Metal>
0.0000

> <Gold.Chemscore.Hbonds>
donor molecule, donor type, donor heavy atom, donor atom, acceptor molecule, acceptor atom, score
      L1  H     9    45       P1  7921  1.00
      L1  H    25    57       P1  8028  1.00
      L1  C    20    51       P1  7957  1.00

> <Gold.PLP.Chemscore.Internal.Correction>
1.1876

> <Gold.Rescore>
     Score         DG    S(hbond)    S(metal)    S(lipo)     H(rot)  DE(clash)    DE(int)     intcor
     12.55     -15.34       2.00        0.00     101.67       3.40       0.30       2.50       ----

> <Gold.Chemscore.Fitness>
12.5481

> <Gold.Chemscore.DG>
-15.3432

> <Gold.Chemscore.ZeroCoef>
-5.4800

> <Gold.Chemscore.Hbond>
1.9966

> <Gold.Chemscore.Metal>
0.0000

> <Gold.Chemscore.Lipo>
101.6655

> <Gold.Chemscore.Internal_Hbond>
0.0000

> <Gold.Chemscore.DEClash>
0.2974

> <Gold.Chemscore.DEInternal>
2.4977

> <Gold.Chemscore.Rot>
3.3986

> <Gold.Chemscore.Internal.Correction>
   9.000000E+99

> <Gold.Chemscore.Hbonds>
donor molecule, donor type, donor heavy atom, donor atom, acceptor molecule, acceptor atom, score
      L1  H     9    45       P1  7921  1.00
      L1  H    25    57       P1  8028  0.98

> <Gold.Chemscore.Hbond.Weighted>
-6.6688

> <Gold.Chemscore.Metal.Weighted>
-0.0000

> <Gold.Chemscore.Lipo.Weighted>
-11.8949

> <Gold.Chemscore.Internal_Hbond.Weighted>
0.0000

> <Gold.Chemscore.DEClash.Weighted>
0.2974

> <Gold.Chemscore.DEInternal.Weighted>
2.4977

> <Gold.Chemscore.Rot.Weighted>
8.7005

> <Gold.Chemscore.Internal.Correction.Weighted>
   9.000000E+99

> <Gold.Protein.RotatedTorsions>
[ 6907 6896 6895 6894 ] final  -51.92 input  -60.11 | X-H torsion
[ 7974 7965 7964 7962 ] final  -56.28 input  175.53 | X-H torsion
[ 8008 7997 7996 7995 ] final   93.87 input   59.86 | X-H torsion
[ 10167 10162 10161 10158 ] final   -7.39 input  -65.29 | X-H torsion
[ 10718 10713 10712 10709 ] final -111.91 input   66.30 | X-H torsion
[ 10763 10752 10751 10750 ] final   43.34 input  -60.55 | X-H torsion
[ 11005 11000 10999 10996 ] final  135.05 input  -57.11 | X-H torsion

> <Gold.Protein.ActiveResidues>
 VAL166  LYS551  ARG553  GLY616  TRP617  ASP618  TYR619  PRO620  LYS621  CYS622 
 ASP623  PHE694  ASN695  SER759  ASP760  ASP761  ALA762  ILE779  LEU786  VAL792 
 PHE793  MET794  SER795  GLU796  ALA797  LYS798  CYS799  TRP800  GLU811  SER814 

> <Gold.Protein.RotatedAtoms>
  150.8566  134.7906  159.7049 H   0  0  0  0  0  0  0  0  0  0  0  0  # atno 6907 bound_to 6896
  152.4615  134.5169  159.9780 H   0  0  0  0  0  0  0  0  0  0  0  0  # atno 6908 bound_to 6896
  151.5280  133.3416  159.2949 H   0  0  0  0  0  0  0  0  0  0  0  0  # atno 6909 bound_to 6896
  145.8645  140.8261  142.9920 H   0  0  0  0  0  0  0  0  0  0  0  0  # atno 7974 bound_to 7965
  156.0516  140.3307  155.7358 H   0  0  0  0  0  0  0  0  0  0  0  0  # atno 8008 bound_to 7997
  155.5592  140.0617  157.2850 H   0  0  0  0  0  0  0  0  0  0  0  0  # atno 8009 bound_to 7997
  154.4438  140.1880  156.0753 H   0  0  0  0  0  0  0  0  0  0  0  0  # atno 8010 bound_to 7997
  140.7027  143.6086  150.8726 H   0  0  0  0  0  0  0  0  0  0  0  0  # atno 10167 bound_to 10162
  156.0674  130.5892  150.8437 H   0  0  0  0  0  0  0  0  0  0  0  0  # atno 10718 bound_to 10713
  152.9863  135.6104  154.3096 H   0  0  0  0  0  0  0  0  0  0  0  0  # atno 10763 bound_to 10752
  154.2812  135.2777  155.2698 H   0  0  0  0  0  0  0  0  0  0  0  0  # atno 10764 bound_to 10752
  154.5036  135.5860  153.6607 H   0  0  0  0  0  0  0  0  0  0  0  0  # atno 10765 bound_to 10752
  139.9954  134.9499  156.9953 H   0  0  0  0  0  0  0  0  0  0  0  0  # atno 11005 bound_to 11000
  144.6726  140.1145  143.7453 LP  0  0  0  0  0  0  0  0  0  0  0  0  # atno 17320 bound_to 7965
  145.9209  139.2545  143.1382 LP  0  0  0  0  0  0  0  0  0  0  0  0  # atno 17321 bound_to 7965
  139.9809  143.5952  152.2943 LP  0  0  0  0  0  0  0  0  0  0  0  0  # atno 17342 bound_to 10162
  139.6573  144.7662  151.2031 LP  0  0  0  0  0  0  0  0  0  0  0  0  # atno 17343 bound_to 10162
  157.5725  131.0946  150.9396 LP  0  0  0  0  0  0  0  0  0  0  0  0  # atno 17370 bound_to 10713
  156.9609  130.5455  149.5286 LP  0  0  0  0  0  0  0  0  0  0  0  0  # atno 17371 bound_to 10713
  140.4827  134.1273  155.7219 LP  0  0  0  0  0  0  0  0  0  0  0  0  # atno 17394 bound_to 11000
  141.1600  133.8810  157.1873 LP  0  0  0  0  0  0  0  0  0  0  0  0  # atno 17395 bound_to 11000

$$$$
