AV-unprocessed.smi:2603|AV-procd|sdf|10187|dock7
  -GOLD-   2272014203D 1   1.00000     0.00000
 Structure written by MMmdl.
 35 36  0  0  0  0  0  0  0  0  1 V2000
  144.2493  131.8487  150.2513 C   0  0  0  0  0  0  0  0  0  0  0  0
  145.6711  132.4151  150.2444 C   0  0  0  0  0  0  0  0  0  0  0  0
  146.0477  132.7291  151.5729 O   0  0  0  0  0  0  0  0  0  0  0  0
  145.2884  133.8026  152.1055 C   0  0  2  0  0  0  0  0  0  0  0  0
  145.6483  135.1444  151.5317 C   0  0  0  0  0  0  0  0  0  0  0  0
  146.1107  134.7702  152.9292 C   0  0  2  0  0  0  0  0  0  0  0  0
  147.4959  134.4834  153.1119 N   0  0  0  0  0  0  0  0  0  0  0  0
  148.0034  133.3719  153.6642 C   0  0  0  0  0  0  0  0  0  0  0  0
  147.3138  132.4663  154.1320 O   0  0  0  0  0  0  0  0  0  0  0  0
  149.5291  133.2614  153.6832 C   0  0  0  0  0  0  0  0  0  0  0  0
  150.0182  133.1107  155.1032 C   0  0  0  0  0  0  0  0  0  0  0  0
  150.6633  131.9844  155.6910 C   0  0  0  0  0  0  0  0  0  0  0  0
  151.0143  130.6690  155.0575 C   0  0  0  0  0  0  0  0  0  0  0  0
  150.9635  132.1941  156.9616 N   0  0  0  0  0  0  0  0  0  0  0  0
  150.5243  133.4895  157.2503 O   0  0  0  0  0  0  0  0  0  0  0  0
  149.9673  134.0144  156.1299 C   0  0  0  0  0  0  0  0  0  0  0  0
  149.4457  135.4072  156.2402 C   0  0  0  0  0  0  0  0  0  0  0  0
  143.9171  131.6192  149.2389 H   0  0  0  0  0  0  0  0  0  0  0  0
  143.5457  132.5619  150.6814 H   0  0  0  0  0  0  0  0  0  0  0  0
  144.1960  130.9305  150.8359 H   0  0  0  0  0  0  0  0  0  0  0  0
  146.3623  131.6853  149.8201 H   0  0  0  0  0  0  0  0  0  0  0  0
  145.7117  133.3107  149.6228 H   0  0  0  0  0  0  0  0  0  0  0  0
  144.2689  133.5726  152.4110 H   0  0  0  0  0  0  0  0  0  0  0  0
  146.3915  135.1700  150.7369 H   0  0  0  0  0  0  0  0  0  0  0  0
  144.8528  135.8820  151.4480 H   0  0  0  0  0  0  0  0  0  0  0  0
  145.5920  135.2657  153.7486 H   0  0  0  0  0  0  0  0  0  0  0  0
  148.1465  135.1644  152.7479 H   0  0  0  0  0  0  0  0  0  0  0  0
  149.8265  132.4147  153.0639 H   0  0  0  0  0  0  0  0  0  0  0  0
  149.9590  134.1454  153.2106 H   0  0  0  0  0  0  0  0  0  0  0  0
  151.1679  130.7757  153.9834 H   0  0  0  0  0  0  0  0  0  0  0  0
  150.2187  129.9394  155.2085 H   0  0  0  0  0  0  0  0  0  0  0  0
  151.9312  130.2553  155.4789 H   0  0  0  0  0  0  0  0  0  0  0  0
  149.0447  135.7556  155.2886 H   0  0  0  0  0  0  0  0  0  0  0  0
  150.2384  136.0920  156.5398 H   0  0  0  0  0  0  0  0  0  0  0  0
  148.6504  135.4639  156.9835 H   0  0  0  0  0  0  0  0  0  0  0  0
  1  2  1  0  0  0  0
  1 18  1  0  0  0  0
  1 19  1  0  0  0  0
  1 20  1  0  0  0  0
  2  3  1  0  0  0  0
  2 21  1  0  0  0  0
  2 22  1  0  0  0  0
  3  4  1  0  0  0  0
  4  6  1  0  0  0  0
  4  5  1  0  0  0  0
  4 23  1  0  0  0  0
  5  6  1  0  0  0  0
  5 24  1  0  0  0  0
  5 25  1  0  0  0  0
  6  7  1  0  0  0  0
  6 26  1  0  0  0  0
  7  8  1  0  0  0  0
  7 27  1  0  0  0  0
  8  9  2  0  0  0  0
  8 10  1  0  0  0  0
 10 11  1  0  0  0  0
 10 28  1  0  0  0  0
 10 29  1  0  0  0  0
 11 16  2  0  0  0  0
 11 12  1  0  0  0  0
 12 13  1  0  0  0  0
 12 14  2  0  0  0  0
 13 30  1  0  0  0  0
 13 31  1  0  0  0  0
 13 32  1  0  0  0  0
 14 15  1  0  0  0  0
 15 16  1  0  0  0  0
 16 17  1  0  0  0  0
 17 33  1  0  0  0  0
 17 34  1  0  0  0  0
 17 35  1  0  0  0  0
M  END
> <s_m_source_file>
AV-unprocessed.smi

> <i_m_source_file_index>
2603

> <i_lp_mmshare_version>
43012

> <i_f3d_flags>
0

> <s_epik_input>
W0NIM11bQ0gyXU9bQ0BASF0xW0NIMl1bQ0BIXTFbTkhdQyg9TylbQ0gyXWMyYyhbQ0gzXSlub2MyW0NIM10=

> <s_epik_cmdline>
J2VwaWtfcHl0aG9uJywgJy1waCcsICc3LjAnLCAnLXRuJywgJzgnLCAnLW1hJywgJzIwMCcsICctbWV0YWxfYmluZGluZycsICctaW1hZScsICc8aW5maWxlLm1hZT4nLCAnLW9tYWUnLCAnPG91dGZpbGUubWFlPic=

> <r_lp_tautomer_probability>
1

> <r_epik_Ionization_Penalty>
2.37325e-08

> <r_epik_Ionization_Penalty_Charging>
0

> <r_epik_Ionization_Penalty_Neutral>
2.37325e-08

> <r_epik_State_Penalty>
-0

> <r_epik_Charging_Adjusted_Penalty>
0

> <i_epik_Tot_Q>
0

> <i_epik_Tot_abs_Q>
0

> <r_epik_Metal_State_Penalty>
-0

> <b_epik_Metal_Only>
0

> <s_lp_Force_Field>
OPLS_2005

> <r_lp_Energy>
11.1697

> <b_lp_Chiralities_Consistent>
1

> <s_lp_Variant>
AV-unprocessed.smi:2603-3

> <Gold.Version>
5.8.1

> <Gold.Id.Protein>
6NUR|6NUR_protein|mol2

> <Gold.PLP.Fitness>
33.1436

> <Gold.PLP.PLP>
-27.2680

> <Gold.PLP.part.hbond>
-1.9591

> <Gold.PLP.part.metal>
0.0000

> <Gold.PLP.part.buried>
-4.6125

> <Gold.PLP.part.nonpolar>
-21.8865

> <Gold.PLP.part.repulsive>
0.1910

> <Gold.PLP.ligand.clash>
0.0000

> <Gold.PLP.ligand.torsion>
0.4015

> <Gold.PLP.Chemscore.Hbond>
2.0000

> <Gold.PLP.Chemscore.CHOScore>
0.0000

> <Gold.PLP.Chemscore.Metal>
0.0000

> <Gold.Chemscore.Hbonds>
donor molecule, donor type, donor heavy atom, donor atom, acceptor molecule, acceptor atom, score
      L1  H     7    27       P1  7948  1.00
      P1  H  6896  6907       L1    15  0.90

> <Gold.PLP.Chemscore.Internal.Correction>
0.6785

> <Gold.Rescore>
     Score         DG    S(hbond)    S(metal)    S(lipo)     H(rot)  DE(clash)    DE(int)     intcor
     13.93     -14.67       1.88        0.00      61.93       1.69       0.12       0.62       ----

> <Gold.Chemscore.Fitness>
13.9279

> <Gold.Chemscore.DG>
-14.6659

> <Gold.Chemscore.ZeroCoef>
-5.4800

> <Gold.Chemscore.Hbond>
1.8787

> <Gold.Chemscore.Metal>
0.0000

> <Gold.Chemscore.Lipo>
61.9308

> <Gold.Chemscore.Internal_Hbond>
0.0000

> <Gold.Chemscore.DEClash>
0.1214

> <Gold.Chemscore.DEInternal>
0.6165

> <Gold.Chemscore.Rot>
1.6933

> <Gold.Chemscore.Internal.Correction>
   9.000000E+99

> <Gold.Chemscore.Hbonds>
donor molecule, donor type, donor heavy atom, donor atom, acceptor molecule, acceptor atom, score
      L1  H     7    27       P1  7948  0.93
      P1  H  6896  6907       L1    15  0.29

> <Gold.Chemscore.Hbond.Weighted>
-6.2747

> <Gold.Chemscore.Metal.Weighted>
-0.0000

> <Gold.Chemscore.Lipo.Weighted>
-7.2459

> <Gold.Chemscore.Internal_Hbond.Weighted>
0.0000

> <Gold.Chemscore.DEClash.Weighted>
0.1214

> <Gold.Chemscore.DEInternal.Weighted>
0.6165

> <Gold.Chemscore.Rot.Weighted>
4.3348

> <Gold.Chemscore.Internal.Correction.Weighted>
   9.000000E+99

> <Gold.Protein.RotatedTorsions>
[ 6907 6896 6895 6894 ] final -131.78 input  -60.11 | X-H torsion
[ 7974 7965 7964 7962 ] final  -33.63 input  175.53 | X-H torsion
[ 8008 7997 7996 7995 ] final  101.91 input   59.86 | X-H torsion
[ 10167 10162 10161 10158 ] final  -61.00 input  -65.29 | X-H torsion
[ 10718 10713 10712 10709 ] final -141.59 input   66.30 | X-H torsion
[ 10763 10752 10751 10750 ] final  -48.71 input  -60.55 | X-H torsion
[ 11005 11000 10999 10996 ] final   29.51 input  -57.11 | X-H torsion

> <Gold.Protein.ActiveResidues>
 VAL166  LYS551  ARG553  GLY616  TRP617  ASP618  TYR619  PRO620  LYS621  CYS622 
 ASP623  PHE694  ASN695  SER759  ASP760  ASP761  ALA762  ILE779  LEU786  VAL792 
 PHE793  MET794  SER795  GLU796  ALA797  LYS798  CYS799  TRP800  GLU811  SER814 

> <Gold.Protein.RotatedAtoms>
  150.9549  133.6508  159.2764 H   0  0  0  0  0  0  0  0  0  0  0  0  # atno 6907 bound_to 6896
  151.3851  135.0945  159.9518 H   0  0  0  0  0  0  0  0  0  0  0  0  # atno 6908 bound_to 6896
  152.5125  133.9075  159.7526 H   0  0  0  0  0  0  0  0  0  0  0  0  # atno 6909 bound_to 6896
  146.0895  140.5940  142.8871 H   0  0  0  0  0  0  0  0  0  0  0  0  # atno 7974 bound_to 7965
  156.1344  140.3190  155.8398 H   0  0  0  0  0  0  0  0  0  0  0  0  # atno 8008 bound_to 7997
  155.4272  140.0516  157.3038 H   0  0  0  0  0  0  0  0  0  0  0  0  # atno 8009 bound_to 7997
  154.4925  140.2098  155.9531 H   0  0  0  0  0  0  0  0  0  0  0  0  # atno 8010 bound_to 7997
  140.6035  143.2367  151.5875 H   0  0  0  0  0  0  0  0  0  0  0  0  # atno 10167 bound_to 10162
  156.3358  130.7611  151.1738 H   0  0  0  0  0  0  0  0  0  0  0  0  # atno 10718 bound_to 10713
  154.0823  135.6589  153.4839 H   0  0  0  0  0  0  0  0  0  0  0  0  # atno 10763 bound_to 10752
  153.0351  135.5183  154.7462 H   0  0  0  0  0  0  0  0  0  0  0  0  # atno 10764 bound_to 10752
  154.6560  135.3008  154.9895 H   0  0  0  0  0  0  0  0  0  0  0  0  # atno 10765 bound_to 10752
  140.3042  134.2722  155.7747 H   0  0  0  0  0  0  0  0  0  0  0  0  # atno 11005 bound_to 11000
  144.7350  140.4781  143.6910 LP  0  0  0  0  0  0  0  0  0  0  0  0  # atno 17320 bound_to 7965
  145.6066  139.1509  143.3099 LP  0  0  0  0  0  0  0  0  0  0  0  0  # atno 17321 bound_to 7965
  139.5308  144.2923  152.1142 LP  0  0  0  0  0  0  0  0  0  0  0  0  # atno 17342 bound_to 10162
  140.2108  144.4565  150.6387 LP  0  0  0  0  0  0  0  0  0  0  0  0  # atno 17343 bound_to 10162
  157.7438  131.0468  150.4913 LP  0  0  0  0  0  0  0  0  0  0  0  0  # atno 17370 bound_to 10713
  156.5086  130.4134  149.6313 LP  0  0  0  0  0  0  0  0  0  0  0  0  # atno 17371 bound_to 10713
  141.2122  133.7666  156.9812 LP  0  0  0  0  0  0  0  0  0  0  0  0  # atno 17394 bound_to 11000
  140.1082  134.9493  157.2026 LP  0  0  0  0  0  0  0  0  0  0  0  0  # atno 17395 bound_to 11000

$$$$
