AV-unprocessed.smi:171|AV-procd|sdf|1421|dock9
  -GOLD-   2262019193D 1   1.00000     0.00000
 Structure written by MMmdl.
 56 59  0  0  0  0  0  0  0  0  1 V2000
  147.2557  134.0516  161.9101 C   0  0  0  0  0  0  0  0  0  0  0  0
  147.5961  135.3311  161.1296 C   0  0  0  0  0  0  0  0  0  0  0  0
  146.6798  136.4818  161.5740 C   0  0  0  0  0  0  0  0  0  0  0  0
  147.5393  135.1553  159.5939 C   0  0  0  0  0  0  0  0  0  0  0  0
  147.6887  136.4691  158.7675 C   0  0  1  0  0  0  0  0  0  0  0  0
  149.0680  137.1668  158.8747 C   0  0  0  0  0  0  0  0  0  0  0  0
  149.7772  137.0139  159.8668 O   0  0  0  0  0  0  0  0  0  0  0  0
  149.4631  137.9466  157.8522 N   0  0  0  0  0  0  0  0  0  0  0  0
  148.7287  138.1637  156.6030 C   0  0  0  0  0  0  0  0  0  0  0  0
  147.3065  137.5639  156.6073 C   0  0  0  0  0  0  0  0  0  0  0  0
  147.2679  136.3140  157.3631 N   0  0  0  0  0  0  0  0  0  0  0  0
  147.6830  135.2471  156.6266 C   0  0  0  0  0  0  0  0  0  0  0  0
  149.0027  134.9279  156.5486 N   0  0  0  0  0  0  0  0  0  0  0  0
  149.4038  133.8889  155.8109 C   0  0  0  0  0  0  0  0  0  0  0  0
  148.6667  133.0519  155.0786 N   0  0  0  0  0  0  0  0  0  0  0  0
  147.3423  133.3692  155.1490 C   0  0  0  0  0  0  0  0  0  0  0  0
  146.7707  134.4384  155.8945 C   0  0  0  0  0  0  0  0  0  0  0  0
  145.3904  134.4445  155.7343 N   0  0  0  0  0  0  0  0  0  0  0  0
  145.1596  133.4391  154.9347 C   0  0  0  0  0  0  0  0  0  0  0  0
  146.2762  132.7454  154.5249 N   0  0  0  0  0  0  0  0  0  0  0  0
  146.3121  131.5966  153.6326 C   0  0  0  0  0  0  0  0  0  0  0  0
  145.9439  131.9446  152.1661 C   0  0  2  0  0  0  0  0  0  0  0  0
  147.0164  132.6828  151.6045 O   0  0  0  0  0  0  0  0  0  0  0  0
  144.6803  132.7935  152.0427 C   0  0  0  0  0  0  0  0  0  0  0  0
  144.1214  132.3863  150.6884 C   0  0  0  0  0  0  0  0  0  0  0  0
  144.3643  130.9912  150.6681 O   0  0  0  0  0  0  0  0  0  0  0  0
  145.6530  130.7423  151.2230 C   0  0  2  0  0  0  0  0  0  0  0  0
  145.6286  129.3459  151.8637 C   0  0  0  0  0  0  0  0  0  0  0  0
  146.2615  133.6832  161.6553 H   0  0  0  0  0  0  0  0  0  0  0  0
  147.2762  134.2318  162.9851 H   0  0  0  0  0  0  0  0  0  0  0  0
  147.9732  133.2570  161.7079 H   0  0  0  0  0  0  0  0  0  0  0  0
  148.6150  135.6163  161.3947 H   0  0  0  0  0  0  0  0  0  0  0  0
  145.6359  136.2695  161.3401 H   0  0  0  0  0  0  0  0  0  0  0  0
  146.9487  137.4157  161.0798 H   0  0  0  0  0  0  0  0  0  0  0  0
  146.7522  136.6499  162.6490 H   0  0  0  0  0  0  0  0  0  0  0  0
  148.2723  134.4125  159.2758 H   0  0  0  0  0  0  0  0  0  0  0  0
  146.5706  134.7048  159.3749 H   0  0  0  0  0  0  0  0  0  0  0  0
  146.9775  137.1830  159.1849 H   0  0  0  0  0  0  0  0  0  0  0  0
  150.3602  138.4025  157.9341 H   0  0  0  0  0  0  0  0  0  0  0  0
  148.6934  139.2299  156.3780 H   0  0  0  0  0  0  0  0  0  0  0  0
  149.3117  137.6974  155.8080 H   0  0  0  0  0  0  0  0  0  0  0  0
  146.6208  138.2639  157.0860 H   0  0  0  0  0  0  0  0  0  0  0  0
  146.9408  137.4452  155.5867 H   0  0  0  0  0  0  0  0  0  0  0  0
  150.4675  133.7031  155.8051 H   0  0  0  0  0  0  0  0  0  0  0  0
  144.1611  133.1777  154.6161 H   0  0  0  0  0  0  0  0  0  0  0  0
  147.3098  131.1586  153.6820 H   0  0  0  0  0  0  0  0  0  0  0  0
  145.6258  130.8495  154.0317 H   0  0  0  0  0  0  0  0  0  0  0  0
  147.3917  132.1773  150.8999 H   0  0  0  0  0  0  0  0  0  0  0  0
  143.9624  132.5120  152.8142 H   0  0  0  0  0  0  0  0  0  0  0  0
  144.8572  133.8666  152.1303 H   0  0  0  0  0  0  0  0  0  0  0  0
  143.0604  132.6131  150.5826 H   0  0  0  0  0  0  0  0  0  0  0  0
  144.6649  132.8701  149.8753 H   0  0  0  0  0  0  0  0  0  0  0  0
  146.3661  130.7272  150.3965 H   0  0  0  0  0  0  0  0  0  0  0  0
  146.5967  129.0883  152.2935 H   0  0  0  0  0  0  0  0  0  0  0  0
  145.3917  128.5868  151.1183 H   0  0  0  0  0  0  0  0  0  0  0  0
  144.8755  129.2765  152.6489 H   0  0  0  0  0  0  0  0  0  0  0  0
  1  2  1  0  0  0  0
  1 29  1  0  0  0  0
  1 30  1  0  0  0  0
  1 31  1  0  0  0  0
  2  3  1  0  0  0  0
  2  4  1  0  0  0  0
  2 32  1  0  0  0  0
  3 33  1  0  0  0  0
  3 34  1  0  0  0  0
  3 35  1  0  0  0  0
  4  5  1  0  0  0  0
  4 36  1  0  0  0  0
  4 37  1  0  0  0  0
  5 11  1  0  0  0  0
  5  6  1  0  0  0  0
  5 38  1  0  0  0  0
  6  7  2  0  0  0  0
  6  8  1  0  0  0  0
  8  9  1  0  0  0  0
  8 39  1  0  0  0  0
  9 10  1  0  0  0  0
  9 40  1  0  0  0  0
  9 41  1  0  0  0  0
 10 11  1  0  0  0  0
 10 42  1  0  0  0  0
 10 43  1  0  0  0  0
 11 12  1  0  0  0  0
 12 17  1  0  0  0  0
 12 13  2  0  0  0  0
 13 14  1  0  0  0  0
 14 15  2  0  0  0  0
 14 44  1  0  0  0  0
 15 16  1  0  0  0  0
 16 20  1  0  0  0  0
 16 17  2  0  0  0  0
 17 18  1  0  0  0  0
 18 19  2  0  0  0  0
 19 20  1  0  0  0  0
 19 45  1  0  0  0  0
 20 21  1  0  0  0  0
 21 22  1  0  0  0  0
 21 46  1  0  0  0  0
 21 47  1  0  0  0  0
 22 27  1  0  0  0  0
 22 23  1  0  0  0  0
 22 24  1  0  0  0  0
 23 48  1  0  0  0  0
 24 25  1  0  0  0  0
 24 49  1  0  0  0  0
 24 50  1  0  0  0  0
 25 26  1  0  0  0  0
 25 51  1  0  0  0  0
 25 52  1  0  0  0  0
 26 27  1  0  0  0  0
 27 28  1  0  0  0  0
 27 53  1  0  0  0  0
 28 54  1  0  0  0  0
 28 55  1  0  0  0  0
 28 56  1  0  0  0  0
M  END
> <s_m_source_file>
AV-unprocessed.smi

> <i_m_source_file_index>
171

> <i_lp_mmshare_version>
43012

> <i_f3d_flags>
0

> <s_epik_input>
W0NIM11bQ0hdKFtDSDNdKVtDSDJdW0NAQEhdMUMoPU8pW05IXVtDSDJdW0NIMl1OMWMobltjSF1uMiljKGMyMyluW2NIXW4zW0NIMl1bQ0BAXTQoW09IXSlbQ0gyXVtDSDJdT1tDQEhdNFtDSDNd

> <s_epik_cmdline>
J2VwaWtfcHl0aG9uJywgJy1waCcsICc3LjAnLCAnLXRuJywgJzgnLCAnLW1hJywgJzIwMCcsICctbWV0YWxfYmluZGluZycsICctaW1hZScsICc8aW5maWxlLm1hZT4nLCAnLW9tYWUnLCAnPG91dGZpbGUubWFlPic=

> <r_lp_tautomer_probability>
1

> <r_epik_Ionization_Penalty>
0.000670584

> <r_epik_Ionization_Penalty_Charging>
0

> <r_epik_Ionization_Penalty_Neutral>
0.000670584

> <r_epik_State_Penalty>
0.000304767

> <r_epik_Charging_Adjusted_Penalty>
0.000304767

> <i_epik_Tot_Q>
0

> <i_epik_Tot_abs_Q>
0

> <r_epik_Metal_State_Penalty>
-0

> <b_epik_Metal_Only>
0

> <s_lp_Force_Field>
OPLS_2005

> <r_lp_Energy>
45.2633

> <b_lp_Chiralities_Consistent>
1

> <s_lp_Variant>
AV-unprocessed.smi:171-8

> <Gold.Version>
5.8.1

> <Gold.Id.Protein>
6NUR|6NUR_protein|mol2

> <Gold.PLP.Fitness>
38.8528

> <Gold.PLP.PLP>
-30.9788

> <Gold.PLP.part.hbond>
-2.9036

> <Gold.PLP.part.metal>
0.0000

> <Gold.PLP.part.buried>
-6.5973

> <Gold.PLP.part.nonpolar>
-23.1212

> <Gold.PLP.part.repulsive>
0.2585

> <Gold.PLP.ligand.clash>
0.0000

> <Gold.PLP.ligand.torsion>
0.7490

> <Gold.PLP.Chemscore.Hbond>
2.0000

> <Gold.PLP.Chemscore.CHOScore>
1.0000

> <Gold.PLP.Chemscore.Metal>
0.0000

> <Gold.Chemscore.Hbonds>
donor molecule, donor type, donor heavy atom, donor atom, acceptor molecule, acceptor atom, score
      L1  H    23    48       P1 10747  0.66
      P1  H  6896  6908       L1     7  0.18
      P1  H 10785 10796       L1    26  0.05
      L1  C    19    45       P1 10957  1.00

> <Gold.PLP.Chemscore.Internal.Correction>
0.3721

> <Gold.Rescore>
     Score         DG    S(hbond)    S(metal)    S(lipo)     H(rot)  DE(clash)    DE(int)     intcor
     13.62     -14.54       1.98        0.00      78.00       2.61       0.03       0.89       ----

> <Gold.Chemscore.Fitness>
13.6189

> <Gold.Chemscore.DG>
-14.5353

> <Gold.Chemscore.ZeroCoef>
-5.4800

> <Gold.Chemscore.Hbond>
1.9772

> <Gold.Chemscore.Metal>
0.0000

> <Gold.Chemscore.Lipo>
78.0015

> <Gold.Chemscore.Internal_Hbond>
0.0000

> <Gold.Chemscore.DEClash>
0.0299

> <Gold.Chemscore.DEInternal>
0.8865

> <Gold.Chemscore.Rot>
2.6074

> <Gold.Chemscore.Internal.Correction>
   9.000000E+99

> <Gold.Chemscore.Hbonds>
donor molecule, donor type, donor heavy atom, donor atom, acceptor molecule, acceptor atom, score
      L1  H    23    48       P1 10747  0.63
      P1  H  6896  6908       L1     7  0.18
      P1  H  6931  6943       L1     7  0.01
      P1  H 10785 10796       L1    26  0.03

> <Gold.Chemscore.Hbond.Weighted>
-6.6039

> <Gold.Chemscore.Metal.Weighted>
-0.0000

> <Gold.Chemscore.Lipo.Weighted>
-9.1262

> <Gold.Chemscore.Internal_Hbond.Weighted>
0.0000

> <Gold.Chemscore.DEClash.Weighted>
0.0299

> <Gold.Chemscore.DEInternal.Weighted>
0.8865

> <Gold.Chemscore.Rot.Weighted>
6.6748

> <Gold.Chemscore.Internal.Correction.Weighted>
   9.000000E+99

> <Gold.Protein.RotatedTorsions>
[ 6907 6896 6895 6894 ] final -144.92 input  -60.11 | X-H torsion
[ 7974 7965 7964 7962 ] final  179.93 input  175.53 | X-H torsion
[ 8008 7997 7996 7995 ] final    6.78 input   59.86 | X-H torsion
[ 10167 10162 10161 10158 ] final -145.60 input  -65.29 | X-H torsion
[ 10718 10713 10712 10709 ] final -122.82 input   66.30 | X-H torsion
[ 10763 10752 10751 10750 ] final  -26.77 input  -60.55 | X-H torsion
[ 11005 11000 10999 10996 ] final  -64.44 input  -57.11 | X-H torsion

> <Gold.Protein.ActiveResidues>
 VAL166  LYS551  ARG553  GLY616  TRP617  ASP618  TYR619  PRO620  LYS621  CYS622 
 ASP623  PHE694  ASN695  SER759  ASP760  ASP761  ALA762  ILE779  LEU786  VAL792 
 PHE793  MET794  SER795  GLU796  ALA797  LYS798  CYS799  TRP800  GLU811  SER814 

> <Gold.Protein.RotatedAtoms>
  151.1207  133.5106  159.2601 H   0  0  0  0  0  0  0  0  0  0  0  0  # atno 6907 bound_to 6896
  151.1865  135.0383  159.8824 H   0  0  0  0  0  0  0  0  0  0  0  0  # atno 6908 bound_to 6896
  152.5455  134.1053  159.8388 H   0  0  0  0  0  0  0  0  0  0  0  0  # atno 6909 bound_to 6896
  144.7141  140.0622  143.6432 H   0  0  0  0  0  0  0  0  0  0  0  0  # atno 7974 bound_to 7965
  154.7454  140.2757  155.6337 H   0  0  0  0  0  0  0  0  0  0  0  0  # atno 8008 bound_to 7997
  156.2883  140.2689  156.2120 H   0  0  0  0  0  0  0  0  0  0  0  0  # atno 8009 bound_to 7997
  155.0204  140.0371  157.2425 H   0  0  0  0  0  0  0  0  0  0  0  0  # atno 8010 bound_to 7997
  139.7791  143.8127  152.2636 H   0  0  0  0  0  0  0  0  0  0  0  0  # atno 10167 bound_to 10162
  156.1450  130.6494  150.9829 H   0  0  0  0  0  0  0  0  0  0  0  0  # atno 10718 bound_to 10713
  153.7213  135.6944  153.5012 H   0  0  0  0  0  0  0  0  0  0  0  0  # atno 10763 bound_to 10752
  153.2202  135.4372  155.0479 H   0  0  0  0  0  0  0  0  0  0  0  0  # atno 10764 bound_to 10752
  154.8283  135.3458  154.6746 H   0  0  0  0  0  0  0  0  0  0  0  0  # atno 10765 bound_to 10752
  141.1425  133.6666  156.5833 H   0  0  0  0  0  0  0  0  0  0  0  0  # atno 11005 bound_to 11000
  145.9854  139.2973  143.1017 LP  0  0  0  0  0  0  0  0  0  0  0  0  # atno 17320 bound_to 7965
  145.8963  140.9271  143.0526 LP  0  0  0  0  0  0  0  0  0  0  0  0  # atno 17321 bound_to 7965
  139.8184  144.7306  150.9605 LP  0  0  0  0  0  0  0  0  0  0  0  0  # atno 17342 bound_to 10162
  140.7817  143.4183  151.0883 LP  0  0  0  0  0  0  0  0  0  0  0  0  # atno 17343 bound_to 10162
  157.6609  131.0881  150.7840 LP  0  0  0  0  0  0  0  0  0  0  0  0  # atno 17370 bound_to 10713
  156.7913  130.4891  149.5384 LP  0  0  0  0  0  0  0  0  0  0  0  0  # atno 17371 bound_to 10713
  140.3820  134.7515  157.4667 LP  0  0  0  0  0  0  0  0  0  0  0  0  # atno 17394 bound_to 11000
  140.0630  134.5969  155.8727 LP  0  0  0  0  0  0  0  0  0  0  0  0  # atno 17395 bound_to 11000

$$$$
