AV-unprocessed.smi:788|AV-procd|sdf|3733|dock1
  -GOLD-   22720 1163D 1   1.00000     0.00000
 Structure written by MMmdl.
 35 36  0  0  0  0  0  0  0  0  1 V2000
  144.9954  135.7370  151.3279 C   0  0  0  0  0  0  0  0  0  0  0  0
  145.4574  134.3134  150.9671 C   0  0  2  0  0  0  0  0  0  0  0  0
  144.3067  133.5246  150.3136 C   0  0  0  0  0  0  0  0  0  0  0  0
  144.7448  132.1088  149.9180 C   0  0  0  0  0  0  0  0  0  0  0  0
  145.2924  131.3462  151.1309 C   0  0  0  0  0  0  0  0  0  0  0  0
  146.4578  132.1010  151.7984 C   0  0  2  0  0  0  0  0  0  0  0  0
  147.0006  131.2995  152.9959 C   0  0  0  0  0  0  0  0  0  0  0  0
  146.0292  133.5410  152.1844 C   0  0  1  0  0  0  0  0  0  0  0  0
  147.1720  134.2668  152.7408 N   0  0  0  0  0  0  0  0  0  0  0  0
  147.5577  134.2809  154.0282 C   0  0  0  0  0  0  0  0  0  0  0  0
  146.9680  133.6586  154.9098 O   0  0  0  0  0  0  0  0  0  0  0  0
  148.6390  135.0348  154.3202 N   0  0  0  0  0  0  0  0  0  0  0  0
  149.3195  135.2844  155.5476 C   0  0  0  0  0  0  0  0  0  0  0  0
  149.0309  134.6871  156.7155 N   0  0  0  0  0  0  0  0  0  0  0  0
  149.8488  135.1305  157.7462 N   0  0  0  0  0  0  0  0  0  0  0  0
  150.7179  136.0509  157.3198 C   0  0  0  0  0  0  0  0  0  0  0  0
  150.6194  136.4667  155.6181 S   0  0  0  0  0  0  0  0  0  0  0  0
  144.2319  135.7187  152.1058 H   0  0  0  0  0  0  0  0  0  0  0  0
  144.5733  136.2434  150.4595 H   0  0  0  0  0  0  0  0  0  0  0  0
  145.8215  136.3513  151.6861 H   0  0  0  0  0  0  0  0  0  0  0  0
  146.2521  134.4090  150.2252 H   0  0  0  0  0  0  0  0  0  0  0  0
  143.4628  133.4652  151.0025 H   0  0  0  0  0  0  0  0  0  0  0  0
  143.9461  134.0522  149.4297 H   0  0  0  0  0  0  0  0  0  0  0  0
  143.9025  131.5664  149.4878 H   0  0  0  0  0  0  0  0  0  0  0  0
  145.5083  132.1628  149.1405 H   0  0  0  0  0  0  0  0  0  0  0  0
  144.4910  131.1904  151.8545 H   0  0  0  0  0  0  0  0  0  0  0  0
  145.6204  130.3547  150.8168 H   0  0  0  0  0  0  0  0  0  0  0  0
  147.2636  132.1744  151.0661 H   0  0  0  0  0  0  0  0  0  0  0  0
  146.2586  131.2269  153.7917 H   0  0  0  0  0  0  0  0  0  0  0  0
  147.8964  131.7570  153.4159 H   0  0  0  0  0  0  0  0  0  0  0  0
  147.2686  130.2856  152.6985 H   0  0  0  0  0  0  0  0  0  0  0  0
  145.2367  133.4634  152.9312 H   0  0  0  0  0  0  0  0  0  0  0  0
  147.7189  134.8088  152.0868 H   0  0  0  0  0  0  0  0  0  0  0  0
  149.0391  135.5082  153.5232 H   0  0  0  0  0  0  0  0  0  0  0  0
  151.4202  136.4904  158.0125 H   0  0  0  0  0  0  0  0  0  0  0  0
  1  2  1  0  0  0  0
  1 18  1  0  0  0  0
  1 19  1  0  0  0  0
  1 20  1  0  0  0  0
  2  8  1  0  0  0  0
  2  3  1  0  0  0  0
  2 21  1  0  0  0  0
  3  4  1  0  0  0  0
  3 22  1  0  0  0  0
  3 23  1  0  0  0  0
  4  5  1  0  0  0  0
  4 24  1  0  0  0  0
  4 25  1  0  0  0  0
  5  6  1  0  0  0  0
  5 26  1  0  0  0  0
  5 27  1  0  0  0  0
  6  7  1  0  0  0  0
  6  8  1  0  0  0  0
  6 28  1  0  0  0  0
  7 29  1  0  0  0  0
  7 30  1  0  0  0  0
  7 31  1  0  0  0  0
  8  9  1  0  0  0  0
  8 32  1  0  0  0  0
  9 10  1  0  0  0  0
  9 33  1  0  0  0  0
 10 11  2  0  0  0  0
 10 12  1  0  0  0  0
 12 13  1  0  0  0  0
 12 34  1  0  0  0  0
 13 17  1  0  0  0  0
 13 14  2  0  0  0  0
 14 15  1  0  0  0  0
 15 16  2  0  0  0  0
 16 17  1  0  0  0  0
 16 35  1  0  0  0  0
M  END
> <s_m_source_file>
AV-unprocessed.smi

> <i_m_source_file_index>
788

> <i_lp_mmshare_version>
43012

> <i_f3d_flags>
0

> <s_epik_input>
W0NIM11bQ0BASF0xW0NIMl1bQ0gyXVtDSDJdW0NAQEhdKFtDSDNdKVtDQEhdMVtOSF1DKD1PKVtOSF1jMm5uW2NIXXMy

> <s_epik_cmdline>
J2VwaWtfcHl0aG9uJywgJy1waCcsICc3LjAnLCAnLXRuJywgJzgnLCAnLW1hJywgJzIwMCcsICctbWV0YWxfYmluZGluZycsICctaW1hZScsICc8aW5maWxlLm1hZT4nLCAnLW9tYWUnLCAnPG91dGZpbGUubWFlPic=

> <r_lp_tautomer_probability>
1

> <r_epik_Ionization_Penalty>
0.000304078

> <r_epik_Ionization_Penalty_Charging>
0

> <r_epik_Ionization_Penalty_Neutral>
0.000304078

> <r_epik_State_Penalty>
-0

> <r_epik_Charging_Adjusted_Penalty>
0

> <i_epik_Tot_Q>
0

> <i_epik_Tot_abs_Q>
0

> <r_epik_Metal_State_Penalty>
0.164801

> <b_epik_Metal_Only>
0

> <s_lp_Force_Field>
OPLS_2005

> <r_lp_Energy>
14.1502

> <b_lp_Chiralities_Consistent>
1

> <s_lp_Variant>
AV-unprocessed.smi:788-3

> <Gold.Version>
5.8.1

> <Gold.Id.Protein>
6NUR|6NUR_protein|mol2

> <Gold.PLP.Fitness>
33.8490

> <Gold.PLP.PLP>
-25.8661

> <Gold.PLP.part.hbond>
-3.0000

> <Gold.PLP.part.metal>
0.0000

> <Gold.PLP.part.buried>
-3.8796

> <Gold.PLP.part.nonpolar>
-19.8732

> <Gold.PLP.part.repulsive>
0.0416

> <Gold.PLP.ligand.clash>
0.0000

> <Gold.PLP.ligand.torsion>
0.3795

> <Gold.PLP.Chemscore.Hbond>
2.9117

> <Gold.PLP.Chemscore.CHOScore>
0.0000

> <Gold.PLP.Chemscore.Metal>
0.0000

> <Gold.Chemscore.Hbonds>
donor molecule, donor type, donor heavy atom, donor atom, acceptor molecule, acceptor atom, score
      L1  H     9    33       P1  7948  0.96
      L1  H    12    34       P1  7948  1.00
      P1  H  6896  6909       L1    15  0.91

> <Gold.PLP.Chemscore.Internal.Correction>
0.0066

> <Gold.Rescore>
     Score         DG    S(hbond)    S(metal)    S(lipo)     H(rot)  DE(clash)    DE(int)     intcor
     17.05     -18.73       2.67        0.00      58.93       1.00       0.09       1.59       ----

> <Gold.Chemscore.Fitness>
17.0485

> <Gold.Chemscore.DG>
-18.7343

> <Gold.Chemscore.ZeroCoef>
-5.4800

> <Gold.Chemscore.Hbond>
2.6704

> <Gold.Chemscore.Metal>
0.0000

> <Gold.Chemscore.Lipo>
58.9322

> <Gold.Chemscore.Internal_Hbond>
0.0000

> <Gold.Chemscore.DEClash>
0.0917

> <Gold.Chemscore.DEInternal>
1.5942

> <Gold.Chemscore.Rot>
1.0000

> <Gold.Chemscore.Internal.Correction>
   9.000000E+99

> <Gold.Chemscore.Hbonds>
donor molecule, donor type, donor heavy atom, donor atom, acceptor molecule, acceptor atom, score
      L1  H     9    33       P1  7948  0.65
      L1  H    12    34       P1  7948  0.68
      P1  H  6896  6909       L1    15  0.42

> <Gold.Chemscore.Hbond.Weighted>
-8.9192

> <Gold.Chemscore.Metal.Weighted>
-0.0000

> <Gold.Chemscore.Lipo.Weighted>
-6.8951

> <Gold.Chemscore.Internal_Hbond.Weighted>
0.0000

> <Gold.Chemscore.DEClash.Weighted>
0.0917

> <Gold.Chemscore.DEInternal.Weighted>
1.5942

> <Gold.Chemscore.Rot.Weighted>
2.5600

> <Gold.Chemscore.Internal.Correction.Weighted>
   9.000000E+99

> <Gold.Protein.RotatedTorsions>
[ 6907 6896 6895 6894 ] final   37.13 input  -60.11 | X-H torsion
[ 7974 7965 7964 7962 ] final -119.44 input  175.53 | X-H torsion
[ 8008 7997 7996 7995 ] final  -44.62 input   59.86 | X-H torsion
[ 10167 10162 10161 10158 ] final -103.40 input  -65.29 | X-H torsion
[ 10718 10713 10712 10709 ] final  101.33 input   66.30 | X-H torsion
[ 10763 10752 10751 10750 ] final    3.99 input  -60.55 | X-H torsion
[ 11005 11000 10999 10996 ] final   62.63 input  -57.11 | X-H torsion

> <Gold.Protein.ActiveResidues>
 VAL166  LYS551  ARG553  GLY616  TRP617  ASP618  TYR619  PRO620  LYS621  CYS622 
 ASP623  PHE694  ASN695  SER759  ASP760  ASP761  ALA762  ILE779  LEU786  VAL792 
 PHE793  MET794  SER795  GLU796  ALA797  LYS798  CYS799  TRP800  GLU811  SER814 

> <Gold.Protein.RotatedAtoms>
  152.1390  134.9077  160.0554 H   0  0  0  0  0  0  0  0  0  0  0  0  # atno 6907 bound_to 6896
  152.0152  133.3872  159.4244 H   0  0  0  0  0  0  0  0  0  0  0  0  # atno 6908 bound_to 6896
  150.6863  134.3608  159.4993 H   0  0  0  0  0  0  0  0  0  0  0  0  # atno 6909 bound_to 6896
  145.0625  140.8301  143.4143 H   0  0  0  0  0  0  0  0  0  0  0  0  # atno 7974 bound_to 7965
  154.3998  140.1417  156.3714 H   0  0  0  0  0  0  0  0  0  0  0  0  # atno 8008 bound_to 7997
  155.8089  140.3473  155.5425 H   0  0  0  0  0  0  0  0  0  0  0  0  # atno 8009 bound_to 7997
  155.8406  140.0926  157.1727 H   0  0  0  0  0  0  0  0  0  0  0  0  # atno 8010 bound_to 7997
  140.2204  143.3680  152.0974 H   0  0  0  0  0  0  0  0  0  0  0  0  # atno 10167 bound_to 10162
  157.6832  131.0723  150.5236 H   0  0  0  0  0  0  0  0  0  0  0  0  # atno 10718 bound_to 10713
  153.2766  135.6937  153.7427 H   0  0  0  0  0  0  0  0  0  0  0  0  # atno 10763 bound_to 10752
  153.6430  135.3390  155.3078 H   0  0  0  0  0  0  0  0  0  0  0  0  # atno 10764 bound_to 10752
  154.8482  135.4436  154.1806 H   0  0  0  0  0  0  0  0  0  0  0  0  # atno 10765 bound_to 10752
  140.0079  134.6341  155.9826 H   0  0  0  0  0  0  0  0  0  0  0  0  # atno 11005 bound_to 11000
  145.1391  139.2584  143.5500 LP  0  0  0  0  0  0  0  0  0  0  0  0  # atno 17320 bound_to 7965
  146.3525  140.1063  142.8606 LP  0  0  0  0  0  0  0  0  0  0  0  0  # atno 17321 bound_to 7965
  139.5146  144.6950  151.5654 LP  0  0  0  0  0  0  0  0  0  0  0  0  # atno 17342 bound_to 10162
  140.6259  143.9170  150.6564 LP  0  0  0  0  0  0  0  0  0  0  0  0  # atno 17343 bound_to 10162
  156.5548  130.4241  149.6090 LP  0  0  0  0  0  0  0  0  0  0  0  0  # atno 17370 bound_to 10713
  156.2871  130.7103  151.1943 LP  0  0  0  0  0  0  0  0  0  0  0  0  # atno 17371 bound_to 10713
  141.1690  133.6537  156.4582 LP  0  0  0  0  0  0  0  0  0  0  0  0  # atno 17394 bound_to 11000
  140.4608  134.6843  157.5084 LP  0  0  0  0  0  0  0  0  0  0  0  0  # atno 17395 bound_to 11000

$$$$
