AV-unprocessed.smi:1060|AV-procd|sdf|4657|dock8
  -GOLD-   22720 3163D 1   1.00000     0.00000
 Structure written by MMmdl.
 37 38  0  0  0  0  0  0  0  0  1 V2000
  151.2951  138.5021  156.6670 O   0  0  0  0  0  0  0  0  0  0  0  0
  151.4506  139.5911  157.2181 C   0  0  0  0  0  0  0  0  0  0  0  0
  152.5143  139.7287  158.3066 C   0  0  0  0  0  0  0  0  0  0  0  0
  152.3090  140.9467  159.0058 O   0  0  0  0  0  0  0  0  0  0  0  0
  153.3103  141.1964  159.9774 C   0  0  0  0  0  0  0  0  0  0  0  0
  152.6689  141.8921  161.1842 C   0  0  1  0  0  0  0  0  0  0  0  0
  153.6405  142.1402  162.3363 C   0  0  0  0  0  0  0  0  0  0  0  0
  152.9743  143.2933  163.0516 C   0  0  0  0  0  0  0  0  0  0  0  0
  152.4347  144.1150  161.8844 C   0  0  0  0  0  0  0  0  0  0  0  0
  152.2055  143.1911  160.8227 O   0  0  0  0  0  0  0  0  0  0  0  0
  150.7271  140.7010  156.9689 N   0  0  0  0  0  0  0  0  0  0  0  0
  149.7068  140.9105  156.0260 C   0  0  0  0  0  0  0  0  0  0  0  0
  148.5134  141.5041  156.2908 C   0  0  0  0  0  0  0  0  0  0  0  0
  147.4949  141.6788  155.2688 C   0  0  0  0  0  0  0  0  0  0  0  0
  146.1412  142.2936  155.5907 C   0  0  0  0  0  0  0  0  0  0  0  0
  146.1137  142.7818  156.8315 F   0  0  0  0  0  0  0  0  0  0  0  0
  145.8524  143.2835  154.7454 F   0  0  0  0  0  0  0  0  0  0  0  0
  145.1876  141.3689  155.4872 F   0  0  0  0  0  0  0  0  0  0  0  0
  147.7817  141.1931  154.0468 C   0  0  0  0  0  0  0  0  0  0  0  0
  149.0057  140.5819  153.7662 N   0  0  0  0  0  0  0  0  0  0  0  0
  149.9916  140.4028  154.6737 C   0  0  0  0  0  0  0  0  0  0  0  0
  151.0411  139.8481  154.3491 O   0  0  0  0  0  0  0  0  0  0  0  0
  149.1481  140.2512  152.8228 H   0  0  0  0  0  0  0  0  0  0  0  0
  152.4415  138.8785  158.9866 H   0  0  0  0  0  0  0  0  0  0  0  0
  153.5082  139.7138  157.8558 H   0  0  0  0  0  0  0  0  0  0  0  0
  153.7480  140.2470  160.2900 H   0  0  0  0  0  0  0  0  0  0  0  0
  154.1125  141.8094  159.5633 H   0  0  0  0  0  0  0  0  0  0  0  0
  151.8219  141.3113  161.5530 H   0  0  0  0  0  0  0  0  0  0  0  0
  153.7804  141.2652  162.9715 H   0  0  0  0  0  0  0  0  0  0  0  0
  154.6158  142.4499  161.9583 H   0  0  0  0  0  0  0  0  0  0  0  0
  152.1513  142.9262  163.6666 H   0  0  0  0  0  0  0  0  0  0  0  0
  153.6556  143.8554  163.6910 H   0  0  0  0  0  0  0  0  0  0  0  0
  151.5245  144.6558  162.1447 H   0  0  0  0  0  0  0  0  0  0  0  0
  153.1772  144.8421  161.5538 H   0  0  0  0  0  0  0  0  0  0  0  0
  150.9244  141.4981  157.5574 H   0  0  0  0  0  0  0  0  0  0  0  0
  148.2756  141.8551  157.2814 H   0  0  0  0  0  0  0  0  0  0  0  0
  147.1075  141.2289  153.2039 H   0  0  0  0  0  0  0  0  0  0  0  0
  1  2  2  0  0  0  0
  2  3  1  0  0  0  0
  2 11  1  0  0  0  0
  3  4  1  0  0  0  0
  3 24  1  0  0  0  0
  3 25  1  0  0  0  0
  4  5  1  0  0  0  0
  5  6  1  0  0  0  0
  5 26  1  0  0  0  0
  5 27  1  0  0  0  0
  6 10  1  0  0  0  0
  6  7  1  0  0  0  0
  6 28  1  0  0  0  0
  7  8  1  0  0  0  0
  7 29  1  0  0  0  0
  7 30  1  0  0  0  0
  8  9  1  0  0  0  0
  8 31  1  0  0  0  0
  8 32  1  0  0  0  0
  9 10  1  0  0  0  0
  9 33  1  0  0  0  0
  9 34  1  0  0  0  0
 11 12  1  0  0  0  0
 11 35  1  0  0  0  0
 12 21  1  0  0  0  0
 12 13  2  0  0  0  0
 13 14  1  0  0  0  0
 13 36  1  0  0  0  0
 14 15  1  0  0  0  0
 14 19  2  0  0  0  0
 15 16  1  0  0  0  0
 15 17  1  0  0  0  0
 15 18  1  0  0  0  0
 19 20  1  0  0  0  0
 19 37  1  0  0  0  0
 20 23  1  0  0  0  0
 20 21  1  0  0  0  0
 21 22  2  0  0  0  0
M  END
> <s_m_source_file>
AV-unprocessed.smi

> <i_m_source_file_index>
1060

> <i_lp_mmshare_version>
43012

> <i_f3d_flags>
0

> <s_epik_input>
Tz1jMVtuSF1bY0hdYyhDKEYpKEYpRilbY0hdYzFbTkhdQyg9TylbQ0gyXU9bQ0gyXVtDQEBIXTJbQ0gyXVtDSDJdW0NIMl1PMg==

> <s_epik_cmdline>
J2VwaWtfcHl0aG9uJywgJy1waCcsICc3LjAnLCAnLXRuJywgJzgnLCAnLW1hJywgJzIwMCcsICctbWV0YWxfYmluZGluZycsICctaW1hZScsICc8aW5maWxlLm1hZT4nLCAnLW9tYWUnLCAnPG91dGZpbGUubWFlPic=

> <r_lp_tautomer_probability>
0.999

> <r_epik_Ionization_Penalty>
0.00950091

> <r_epik_Ionization_Penalty_Charging>
0.00950081

> <r_epik_Ionization_Penalty_Neutral>
1.00143e-07

> <r_epik_State_Penalty>
0.00721819

> <r_epik_Charging_Adjusted_Penalty>
0.016719

> <i_epik_Tot_Q>
0

> <i_epik_Tot_abs_Q>
0

> <r_epik_Metal_State_Penalty>
0.323303

> <b_epik_Metal_Only>
0

> <s_lp_Force_Field>
OPLS_2005

> <r_lp_Energy>
32.1884

> <b_lp_Chiralities_Consistent>
1

> <s_lp_Variant>
AV-unprocessed.smi:1060-2

> <Gold.Version>
5.8.1

> <Gold.Id.Protein>
6NUR|6NUR_protein|mol2

> <Gold.PLP.Fitness>
42.8519

> <Gold.PLP.PLP>
-38.5970

> <Gold.PLP.part.hbond>
-2.0000

> <Gold.PLP.part.metal>
0.0000

> <Gold.PLP.part.buried>
-5.2804

> <Gold.PLP.part.nonpolar>
-30.8467

> <Gold.PLP.part.repulsive>
0.3997

> <Gold.PLP.ligand.clash>
0.0000

> <Gold.PLP.ligand.torsion>
0.9245

> <Gold.PLP.Chemscore.Hbond>
2.0000

> <Gold.PLP.Chemscore.CHOScore>
0.0000

> <Gold.PLP.Chemscore.Metal>
0.0000

> <Gold.Chemscore.Hbonds>
donor molecule, donor type, donor heavy atom, donor atom, acceptor molecule, acceptor atom, score
      L1  H    20    23       P1  7957  1.00
      P1  H  7989  7998       L1    22  0.81

> <Gold.PLP.Chemscore.Internal.Correction>
0.1039

> <Gold.Rescore>
     Score         DG    S(hbond)    S(metal)    S(lipo)     H(rot)  DE(clash)    DE(int)     intcor
     12.96     -16.32       1.93        0.00      80.19       1.95       0.07       3.29       ----

> <Gold.Chemscore.Fitness>
12.9615

> <Gold.Chemscore.DG>
-16.3239

> <Gold.Chemscore.ZeroCoef>
-5.4800

> <Gold.Chemscore.Hbond>
1.9344

> <Gold.Chemscore.Metal>
0.0000

> <Gold.Chemscore.Lipo>
80.1873

> <Gold.Chemscore.Internal_Hbond>
0.0000

> <Gold.Chemscore.DEClash>
0.0727

> <Gold.Chemscore.DEInternal>
3.2897

> <Gold.Chemscore.Rot>
1.9527

> <Gold.Chemscore.Internal.Correction>
   9.000000E+99

> <Gold.Chemscore.Hbonds>
donor molecule, donor type, donor heavy atom, donor atom, acceptor molecule, acceptor atom, score
      L1  H    20    23       P1  7957  1.00
      P1  H  7989  7998       L1    22  0.24

> <Gold.Chemscore.Hbond.Weighted>
-6.4610

> <Gold.Chemscore.Metal.Weighted>
-0.0000

> <Gold.Chemscore.Lipo.Weighted>
-9.3819

> <Gold.Chemscore.Internal_Hbond.Weighted>
0.0000

> <Gold.Chemscore.DEClash.Weighted>
0.0727

> <Gold.Chemscore.DEInternal.Weighted>
3.2897

> <Gold.Chemscore.Rot.Weighted>
4.9990

> <Gold.Chemscore.Internal.Correction.Weighted>
   9.000000E+99

> <Gold.Protein.RotatedTorsions>
[ 6907 6896 6895 6894 ] final -141.45 input  -60.11 | X-H torsion
[ 7974 7965 7964 7962 ] final  -59.86 input  175.53 | X-H torsion
[ 8008 7997 7996 7995 ] final  -35.18 input   59.86 | X-H torsion
[ 10167 10162 10161 10158 ] final  -47.26 input  -65.29 | X-H torsion
[ 10718 10713 10712 10709 ] final  108.95 input   66.30 | X-H torsion
[ 10763 10752 10751 10750 ] final  -84.91 input  -60.55 | X-H torsion
[ 11005 11000 10999 10996 ] final  -12.59 input  -57.11 | X-H torsion

> <Gold.Protein.ActiveResidues>
 VAL166  LYS551  ARG553  GLY616  TRP617  ASP618  TYR619  PRO620  LYS621  CYS622 
 ASP623  PHE694  ASN695  SER759  ASP760  ASP761  ALA762  ILE779  LEU786  VAL792 
 PHE793  MET794  SER795  GLU796  ALA797  LYS798  CYS799  TRP800  GLU811  SER814 

> <Gold.Protein.RotatedAtoms>
  151.0740  133.5443  159.2624 H   0  0  0  0  0  0  0  0  0  0  0  0  # atno 6907 bound_to 6896
  151.2372  135.0575  159.9021 H   0  0  0  0  0  0  0  0  0  0  0  0  # atno 6908 bound_to 6896
  152.5415  134.0520  159.8168 H   0  0  0  0  0  0  0  0  0  0  0  0  # atno 6909 bound_to 6896
  145.8225  140.8531  143.0125 H   0  0  0  0  0  0  0  0  0  0  0  0  # atno 7974 bound_to 7965
  154.4102  140.1664  156.2169 H   0  0  0  0  0  0  0  0  0  0  0  0  # atno 8008 bound_to 7997
  155.9396  140.3409  155.6293 H   0  0  0  0  0  0  0  0  0  0  0  0  # atno 8009 bound_to 7997
  155.7005  140.0744  157.2403 H   0  0  0  0  0  0  0  0  0  0  0  0  # atno 8010 bound_to 7997
  140.6783  143.2793  151.3900 H   0  0  0  0  0  0  0  0  0  0  0  0  # atno 10167 bound_to 10162
  157.6563  131.0904  150.6382 H   0  0  0  0  0  0  0  0  0  0  0  0  # atno 10718 bound_to 10713
  154.6050  135.5504  153.7413 H   0  0  0  0  0  0  0  0  0  0  0  0  # atno 10763 bound_to 10752
  153.0170  135.6375  154.1660 H   0  0  0  0  0  0  0  0  0  0  0  0  # atno 10764 bound_to 10752
  154.1599  135.2898  155.3091 H   0  0  0  0  0  0  0  0  0  0  0  0  # atno 10765 bound_to 10752
  140.7673  133.8467  155.9176 H   0  0  0  0  0  0  0  0  0  0  0  0  # atno 11005 bound_to 11000
  144.6746  140.0553  143.7477 LP  0  0  0  0  0  0  0  0  0  0  0  0  # atno 17320 bound_to 7965
  145.9660  139.2835  143.1127 LP  0  0  0  0  0  0  0  0  0  0  0  0  # atno 17321 bound_to 7965
  139.6088  144.1140  152.2277 LP  0  0  0  0  0  0  0  0  0  0  0  0  # atno 17342 bound_to 10162
  140.0548  144.5904  150.7308 LP  0  0  0  0  0  0  0  0  0  0  0  0  # atno 17343 bound_to 10162
  156.6688  130.4533  149.5664 LP  0  0  0  0  0  0  0  0  0  0  0  0  # atno 17370 bound_to 10713
  156.2013  130.6621  151.1170 LP  0  0  0  0  0  0  0  0  0  0  0  0  # atno 17371 bound_to 10713
  140.9607  134.1659  157.4656 LP  0  0  0  0  0  0  0  0  0  0  0  0  # atno 17394 bound_to 11000
  139.8761  134.9943  156.5690 LP  0  0  0  0  0  0  0  0  0  0  0  0  # atno 17395 bound_to 11000

$$$$
