AV-unprocessed.smi:237|AV-procd|sdf|1818|dock3
  -GOLD-   2262020413D 1   1.00000     0.00000
 Structure written by MMmdl.
 53 56  0  0  0  0  0  0  0  0  1 V2000
  153.9143  137.1790  162.2088 C   0  0  0  0  0  0  0  0  0  0  0  0
  153.4075  137.4858  160.7981 C   0  0  0  0  0  0  0  0  0  0  0  0
  154.4552  138.1101  160.0735 O   0  0  0  0  0  0  0  0  0  0  0  0
  154.0621  138.7093  158.8442 C   0  0  0  0  0  0  0  0  0  0  0  0
  152.9453  139.7805  158.9757 C   0  0  1  0  0  0  0  0  0  0  0  0
  153.4297  140.8765  159.9526 C   0  0  0  0  0  0  0  0  0  0  0  0
  152.4158  142.0196  160.0910 C   0  0  0  0  0  0  0  0  0  0  0  0
  152.0949  142.5971  158.7086 C   0  0  0  0  0  0  0  0  0  0  0  0
  151.5991  141.4859  157.7751 C   0  0  0  0  0  0  0  0  0  0  0  0
  152.5668  140.3899  157.6883 N   0  0  0  0  0  0  0  0  0  0  0  0
  152.2144  139.5042  156.7280 C   0  0  0  0  0  0  0  0  0  0  0  0
  153.0086  139.3313  155.6378 N   0  0  0  0  0  0  0  0  0  0  0  0
  152.6437  138.4780  154.6765 C   0  0  0  0  0  0  0  0  0  0  0  0
  151.5496  137.7163  154.6070 N   0  0  0  0  0  0  0  0  0  0  0  0
  150.7552  137.8866  155.7033 C   0  0  0  0  0  0  0  0  0  0  0  0
  151.0106  138.7561  156.7994 C   0  0  0  0  0  0  0  0  0  0  0  0
  149.9750  138.6824  157.7208 N   0  0  0  0  0  0  0  0  0  0  0  0
  149.1519  137.8147  157.1984 C   0  0  0  0  0  0  0  0  0  0  0  0
  149.5496  137.2721  155.9957 N   0  0  0  0  0  0  0  0  0  0  0  0
  148.8300  136.2913  155.1947 C   0  0  0  0  0  0  0  0  0  0  0  0
  148.8584  134.8467  155.7511 C   0  0  0  0  0  0  0  0  0  0  0  0
  148.1106  133.9415  154.7625 C   0  0  0  0  0  0  0  0  0  0  0  0
  148.7406  133.9298  153.4975 O   0  0  0  0  0  0  0  0  0  0  0  0
  150.1989  134.3088  156.2824 C   0  0  0  0  0  0  0  0  0  0  0  0
  149.8156  134.5522  157.6523 O   0  0  0  0  0  0  0  0  0  0  0  0
  148.4442  134.6838  157.2236 C   0  0  0  0  0  0  0  0  0  0  0  0
  153.1432  136.6883  162.8028 H   0  0  0  0  0  0  0  0  0  0  0  0
  154.2056  138.0932  162.7266 H   0  0  0  0  0  0  0  0  0  0  0  0
  154.7827  136.5206  162.1777 H   0  0  0  0  0  0  0  0  0  0  0  0
  153.0965  136.5601  160.3150 H   0  0  0  0  0  0  0  0  0  0  0  0
  152.5382  138.1426  160.8500 H   0  0  0  0  0  0  0  0  0  0  0  0
  154.9472  139.1370  158.3709 H   0  0  0  0  0  0  0  0  0  0  0  0
  153.7232  137.9158  158.1774 H   0  0  0  0  0  0  0  0  0  0  0  0
  152.0531  139.3318  159.4118 H   0  0  0  0  0  0  0  0  0  0  0  0
  153.6230  140.4433  160.9346 H   0  0  0  0  0  0  0  0  0  0  0  0
  154.3802  141.2835  159.6038 H   0  0  0  0  0  0  0  0  0  0  0  0
  151.5027  141.6507  160.5597 H   0  0  0  0  0  0  0  0  0  0  0  0
  152.8116  142.7987  160.7429 H   0  0  0  0  0  0  0  0  0  0  0  0
  151.3410  143.3801  158.7928 H   0  0  0  0  0  0  0  0  0  0  0  0
  152.9856  143.0634  158.2854 H   0  0  0  0  0  0  0  0  0  0  0  0
  150.6437  141.1062  158.1413 H   0  0  0  0  0  0  0  0  0  0  0  0
  151.4183  141.8978  156.7809 H   0  0  0  0  0  0  0  0  0  0  0  0
  153.3232  138.3976  153.8411 H   0  0  0  0  0  0  0  0  0  0  0  0
  148.2246  137.5457  157.6824 H   0  0  0  0  0  0  0  0  0  0  0  0
  147.7999  136.6366  155.0990 H   0  0  0  0  0  0  0  0  0  0  0  0
  149.2462  136.3280  154.1875 H   0  0  0  0  0  0  0  0  0  0  0  0
  148.0745  132.9135  155.1251 H   0  0  0  0  0  0  0  0  0  0  0  0
  147.0760  134.2632  154.6405 H   0  0  0  0  0  0  0  0  0  0  0  0
  148.8896  134.8228  153.2266 H   0  0  0  0  0  0  0  0  0  0  0  0
  150.3517  133.2452  156.0918 H   0  0  0  0  0  0  0  0  0  0  0  0
  151.0763  134.8773  155.9794 H   0  0  0  0  0  0  0  0  0  0  0  0
  147.9442  135.5493  157.6558 H   0  0  0  0  0  0  0  0  0  0  0  0
  147.8732  133.7762  157.4268 H   0  0  0  0  0  0  0  0  0  0  0  0
  1  2  1  0  0  0  0
  1 27  1  0  0  0  0
  1 28  1  0  0  0  0
  1 29  1  0  0  0  0
  2  3  1  0  0  0  0
  2 30  1  0  0  0  0
  2 31  1  0  0  0  0
  3  4  1  0  0  0  0
  4  5  1  0  0  0  0
  4 32  1  0  0  0  0
  4 33  1  0  0  0  0
  5 10  1  0  0  0  0
  5  6  1  0  0  0  0
  5 34  1  0  0  0  0
  6  7  1  0  0  0  0
  6 35  1  0  0  0  0
  6 36  1  0  0  0  0
  7  8  1  0  0  0  0
  7 37  1  0  0  0  0
  7 38  1  0  0  0  0
  8  9  1  0  0  0  0
  8 39  1  0  0  0  0
  8 40  1  0  0  0  0
  9 10  1  0  0  0  0
  9 41  1  0  0  0  0
  9 42  1  0  0  0  0
 10 11  1  0  0  0  0
 11 16  1  0  0  0  0
 11 12  2  0  0  0  0
 12 13  1  0  0  0  0
 13 14  2  0  0  0  0
 13 43  1  0  0  0  0
 14 15  1  0  0  0  0
 15 19  1  0  0  0  0
 15 16  2  0  0  0  0
 16 17  1  0  0  0  0
 17 18  2  0  0  0  0
 18 19  1  0  0  0  0
 18 44  1  0  0  0  0
 19 20  1  0  0  0  0
 20 21  1  0  0  0  0
 20 45  1  0  0  0  0
 20 46  1  0  0  0  0
 21 26  1  0  0  0  0
 21 22  1  0  0  0  0
 21 24  1  0  0  0  0
 22 23  1  0  0  0  0
 22 47  1  0  0  0  0
 22 48  1  0  0  0  0
 23 49  1  0  0  0  0
 24 25  1  0  0  0  0
 24 50  1  0  0  0  0
 24 51  1  0  0  0  0
 25 26  1  0  0  0  0
 26 52  1  0  0  0  0
 26 53  1  0  0  0  0
M  END
> <s_m_source_file>
AV-unprocessed.smi

> <i_m_source_file_index>
237

> <i_lp_mmshare_version>
43012

> <i_f3d_flags>
0

> <s_epik_input>
W0NIM11bQ0gyXU9bQ0gyXVtDQEBIXTFbQ0gyXVtDSDJdW0NIMl1bQ0gyXU4xYyhuW2NIXW4yKWMoYzIzKW5bY0hdbjNbQ0gyXUM0KFtDSDJdW09IXSlbQ0gyXU9bQ0gyXTQ=

> <s_epik_cmdline>
J2VwaWtfcHl0aG9uJywgJy1waCcsICc3LjAnLCAnLXRuJywgJzgnLCAnLW1hJywgJzIwMCcsICctbWV0YWxfYmluZGluZycsICctaW1hZScsICc8aW5maWxlLm1hZT4nLCAnLW9tYWUnLCAnPG91dGZpbGUubWFlPic=

> <r_lp_tautomer_probability>
1

> <r_epik_Ionization_Penalty>
0.00358373

> <r_epik_Ionization_Penalty_Charging>
0

> <r_epik_Ionization_Penalty_Neutral>
0.00358373

> <r_epik_State_Penalty>
0.00240903

> <r_epik_Charging_Adjusted_Penalty>
0.00240903

> <i_epik_Tot_Q>
0

> <i_epik_Tot_abs_Q>
0

> <r_epik_Metal_State_Penalty>
-0

> <b_epik_Metal_Only>
0

> <s_lp_Force_Field>
OPLS_2005

> <r_lp_Energy>
39.3208

> <b_lp_Chiralities_Consistent>
1

> <s_lp_Variant>
AV-unprocessed.smi:237-2

> <Gold.Version>
5.8.1

> <Gold.Id.Protein>
6NUR|6NUR_protein|mol2

> <Gold.PLP.Fitness>
43.0625

> <Gold.PLP.PLP>
-34.3687

> <Gold.PLP.part.hbond>
-4.0000

> <Gold.PLP.part.metal>
0.0000

> <Gold.PLP.part.buried>
-4.6932

> <Gold.PLP.part.nonpolar>
-25.6829

> <Gold.PLP.part.repulsive>
0.1435

> <Gold.PLP.ligand.clash>
0.0000

> <Gold.PLP.ligand.torsion>
0.4658

> <Gold.PLP.Chemscore.Hbond>
3.0000

> <Gold.PLP.Chemscore.CHOScore>
0.0000

> <Gold.PLP.Chemscore.Metal>
0.0000

> <Gold.Chemscore.Hbonds>
donor molecule, donor type, donor heavy atom, donor atom, acceptor molecule, acceptor atom, score
      L1  H    23    49       P1  7948  0.95
      P1  H  6896  6909       L1    25  0.98
      P1  H  7997  8008       L1    12  1.00

> <Gold.PLP.Chemscore.Internal.Correction>
0.6253

> <Gold.Rescore>
     Score         DG    S(hbond)    S(metal)    S(lipo)     H(rot)  DE(clash)    DE(int)     intcor
     14.94     -15.37       2.52        0.00      79.53       3.06       0.00       0.44       ----

> <Gold.Chemscore.Fitness>
14.9356

> <Gold.Chemscore.DG>
-15.3718

> <Gold.Chemscore.ZeroCoef>
-5.4800

> <Gold.Chemscore.Hbond>
2.5225

> <Gold.Chemscore.Metal>
0.0000

> <Gold.Chemscore.Lipo>
79.5320

> <Gold.Chemscore.Internal_Hbond>
0.0000

> <Gold.Chemscore.DEClash>
0.0000

> <Gold.Chemscore.DEInternal>
0.4361

> <Gold.Chemscore.Rot>
3.0620

> <Gold.Chemscore.Internal.Correction>
   9.000000E+99

> <Gold.Chemscore.Hbonds>
donor molecule, donor type, donor heavy atom, donor atom, acceptor molecule, acceptor atom, score
      L1  H    23    49       P1  7948  0.20
      P1  H  6896  6909       L1    25  0.91
      P1  H  7997  8008       L1    12  0.45

> <Gold.Chemscore.Hbond.Weighted>
-8.4253

> <Gold.Chemscore.Metal.Weighted>
-0.0000

> <Gold.Chemscore.Lipo.Weighted>
-9.3052

> <Gold.Chemscore.Internal_Hbond.Weighted>
0.0000

> <Gold.Chemscore.DEClash.Weighted>
0.0000

> <Gold.Chemscore.DEInternal.Weighted>
0.4361

> <Gold.Chemscore.Rot.Weighted>
7.8388

> <Gold.Chemscore.Internal.Correction.Weighted>
   9.000000E+99

> <Gold.Protein.RotatedTorsions>
[ 6907 6896 6895 6894 ] final   19.81 input  -60.11 | X-H torsion
[ 7974 7965 7964 7962 ] final  -23.89 input  175.53 | X-H torsion
[ 8008 7997 7996 7995 ] final  -23.11 input   59.86 | X-H torsion
[ 10167 10162 10161 10158 ] final  158.18 input  -65.29 | X-H torsion
[ 10718 10713 10712 10709 ] final -172.04 input   66.30 | X-H torsion
[ 10763 10752 10751 10750 ] final  -88.79 input  -60.55 | X-H torsion
[ 11005 11000 10999 10996 ] final -178.40 input  -57.11 | X-H torsion

> <Gold.Protein.ActiveResidues>
 VAL166  LYS551  ARG553  GLY616  TRP617  ASP618  TYR619  PRO620  LYS621  CYS622 
 ASP623  PHE694  ASN695  SER759  ASP760  ASP761  ALA762  ILE779  LEU786  VAL792 
 PHE793  MET794  SER795  GLU796  ALA797  LYS798  CYS799  TRP800  GLU811  SER814 

> <Gold.Protein.RotatedAtoms>
  151.8867  135.0432  160.0493 H   0  0  0  0  0  0  0  0  0  0  0  0  # atno 6907 bound_to 6896
  152.2469  133.5178  159.5311 H   0  0  0  0  0  0  0  0  0  0  0  0  # atno 6908 bound_to 6896
  150.7071  134.0929  159.3981 H   0  0  0  0  0  0  0  0  0  0  0  0  # atno 6909 bound_to 6896
  146.1588  140.4678  142.8580 H   0  0  0  0  0  0  0  0  0  0  0  0  # atno 7974 bound_to 7965
  154.4604  140.1989  156.0260 H   0  0  0  0  0  0  0  0  0  0  0  0  # atno 8008 bound_to 7997
  156.0829  140.3269  155.7688 H   0  0  0  0  0  0  0  0  0  0  0  0  # atno 8009 bound_to 7997
  155.5082  140.0559  157.2918 H   0  0  0  0  0  0  0  0  0  0  0  0  # atno 8010 bound_to 7997
  139.4826  144.4848  151.8392 H   0  0  0  0  0  0  0  0  0  0  0  0  # atno 10167 bound_to 10162
  156.7498  130.9374  151.3114 H   0  0  0  0  0  0  0  0  0  0  0  0  # atno 10718 bound_to 10713
  154.6484  135.5364  153.7872 H   0  0  0  0  0  0  0  0  0  0  0  0  # atno 10763 bound_to 10752
  153.0372  135.6476  154.1054 H   0  0  0  0  0  0  0  0  0  0  0  0  # atno 10764 bound_to 10752
  154.0973  135.2935  155.3239 H   0  0  0  0  0  0  0  0  0  0  0  0  # atno 10765 bound_to 10752
  140.4302  134.6526  157.4708 H   0  0  0  0  0  0  0  0  0  0  0  0  # atno 11005 bound_to 11000
  144.7999  140.6194  143.6485 LP  0  0  0  0  0  0  0  0  0  0  0  0  # atno 17320 bound_to 7965
  145.4640  139.1510  143.3850 LP  0  0  0  0  0  0  0  0  0  0  0  0  # atno 17321 bound_to 7965
  140.4327  144.2093  150.5888 LP  0  0  0  0  0  0  0  0  0  0  0  0  # atno 17342 bound_to 10162
  140.4763  143.2395  151.9019 LP  0  0  0  0  0  0  0  0  0  0  0  0  # atno 17343 bound_to 10162
  157.6782  130.9114  150.0202 LP  0  0  0  0  0  0  0  0  0  0  0  0  # atno 17370 bound_to 10713
  156.1409  130.3642  149.9584 LP  0  0  0  0  0  0  0  0  0  0  0  0  # atno 17371 bound_to 10713
  140.0140  134.6648  155.9338 LP  0  0  0  0  0  0  0  0  0  0  0  0  # atno 17394 bound_to 11000
  141.1749  133.6539  156.4789 LP  0  0  0  0  0  0  0  0  0  0  0  0  # atno 17395 bound_to 11000

$$$$
