AV-unprocessed.smi:2259|AV-procd|sdf|9130|dock8
  -GOLD-   2272012333D 1   1.00000     0.00000
 Structure written by MMmdl.
 39 40  0  0  0  0  0  0  0  0  1 V2000
  152.5655  143.4678  160.8530 C   0  0  0  0  0  0  0  0  0  0  0  0
  152.1305  142.7986  159.5613 C   0  0  0  0  0  0  0  0  0  0  0  0
  151.1643  143.4858  158.8211 N   0  0  0  0  0  0  0  0  0  0  0  0
  150.7271  142.9873  157.7114 C   0  0  0  0  0  0  0  0  0  0  0  0
  151.1960  141.7576  157.2177 N   0  0  0  0  0  0  0  0  0  0  0  0
  150.6214  141.2951  155.9407 C   0  0  0  0  0  0  0  0  0  0  0  0
  149.1951  140.7142  156.0871 C   0  0  2  0  0  0  0  0  0  0  0  0
  149.3363  139.3786  156.5265 O   0  0  0  0  0  0  0  0  0  0  0  0
  148.3871  140.7088  154.7765 C   0  0  0  0  0  0  0  0  0  0  0  0
  147.0016  140.6764  155.0925 O   0  0  0  0  0  0  0  0  0  0  0  0
  146.2350  141.7813  154.7890 C   0  0  0  0  0  0  0  0  0  0  0  0
  146.6354  142.5511  153.6776 C   0  0  0  0  0  0  0  0  0  0  0  0
  145.9130  143.6976  153.2945 C   0  0  0  0  0  0  0  0  0  0  0  0
  144.7731  144.0886  154.0242 C   0  0  0  0  0  0  0  0  0  0  0  0
  144.0259  145.2722  153.6322 C   0  0  0  0  0  0  0  0  0  0  0  0
  143.4312  146.2144  153.3203 N   0  0  0  0  0  0  0  0  0  0  0  0
  144.3611  143.3269  155.1354 C   0  0  0  0  0  0  0  0  0  0  0  0
  145.0857  142.1806  155.5175 C   0  0  0  0  0  0  0  0  0  0  0  0
  152.1534  141.0337  157.8672 C   0  0  0  0  0  0  0  0  0  0  0  0
  152.5784  139.9694  157.4138 O   0  0  0  0  0  0  0  0  0  0  0  0
  152.6344  141.6091  159.1338 C   0  0  0  0  0  0  0  0  0  0  0  0
  153.6873  140.8158  159.8979 C   0  0  0  0  0  0  0  0  0  0  0  0
  153.6370  143.6687  160.8373 H   0  0  0  0  0  0  0  0  0  0  0  0
  152.3421  142.8288  161.7078 H   0  0  0  0  0  0  0  0  0  0  0  0
  152.0500  144.4175  161.0018 H   0  0  0  0  0  0  0  0  0  0  0  0
  149.9712  143.4840  157.1006 H   0  0  0  0  0  0  0  0  0  0  0  0
  150.6151  142.0891  155.1910 H   0  0  0  0  0  0  0  0  0  0  0  0
  151.2823  140.5324  155.5240 H   0  0  0  0  0  0  0  0  0  0  0  0
  148.6497  141.2668  156.8527 H   0  0  0  0  0  0  0  0  0  0  0  0
  148.7483  138.8326  156.0275 H   0  0  0  0  0  0  0  0  0  0  0  0
  148.5788  141.6255  154.2188 H   0  0  0  0  0  0  0  0  0  0  0  0
  148.6784  139.8670  154.1456 H   0  0  0  0  0  0  0  0  0  0  0  0
  147.5085  142.2597  153.1119 H   0  0  0  0  0  0  0  0  0  0  0  0
  146.2398  144.2724  152.4397 H   0  0  0  0  0  0  0  0  0  0  0  0
  143.4876  143.6165  155.7019 H   0  0  0  0  0  0  0  0  0  0  0  0
  144.7374  141.6239  156.3740 H   0  0  0  0  0  0  0  0  0  0  0  0
  153.3070  139.8231  160.1406 H   0  0  0  0  0  0  0  0  0  0  0  0
  153.9871  141.2881  160.8320 H   0  0  0  0  0  0  0  0  0  0  0  0
  154.5833  140.6956  159.2881 H   0  0  0  0  0  0  0  0  0  0  0  0
  1  2  1  0  0  0  0
  1 23  1  0  0  0  0
  1 24  1  0  0  0  0
  1 25  1  0  0  0  0
  2 21  2  0  0  0  0
  2  3  1  0  0  0  0
  3  4  2  0  0  0  0
  4  5  1  0  0  0  0
  4 26  1  0  0  0  0
  5  6  1  0  0  0  0
  5 19  1  0  0  0  0
  6  7  1  0  0  0  0
  6 27  1  0  0  0  0
  6 28  1  0  0  0  0
  7  8  1  0  0  0  0
  7  9  1  0  0  0  0
  7 29  1  0  0  0  0
  8 30  1  0  0  0  0
  9 10  1  0  0  0  0
  9 31  1  0  0  0  0
  9 32  1  0  0  0  0
 10 11  1  0  0  0  0
 11 18  1  0  0  0  0
 11 12  2  0  0  0  0
 12 13  1  0  0  0  0
 12 33  1  0  0  0  0
 13 14  2  0  0  0  0
 13 34  1  0  0  0  0
 14 15  1  0  0  0  0
 14 17  1  0  0  0  0
 15 16  3  0  0  0  0
 17 18  2  0  0  0  0
 17 35  1  0  0  0  0
 18 36  1  0  0  0  0
 19 20  2  0  0  0  0
 19 21  1  0  0  0  0
 21 22  1  0  0  0  0
 22 37  1  0  0  0  0
 22 38  1  0  0  0  0
 22 39  1  0  0  0  0
M  END
> <s_m_source_file>
AV-unprocessed.smi

> <i_m_source_file_index>
2259

> <i_lp_mmshare_version>
43012

> <i_f3d_flags>
0

> <s_epik_input>
W0NIM11jMW5bY0hdbihjKD1PKWMxW0NIM10pW0NIMl1bQ0BIXShbT0hdKVtDSDJdT2MyW2NIXVtjSF1jKEMjTilbY0hdW2NIXTI=

> <s_epik_cmdline>
J2VwaWtfcHl0aG9uJywgJy1waCcsICc3LjAnLCAnLXRuJywgJzgnLCAnLW1hJywgJzIwMCcsICctbWV0YWxfYmluZGluZycsICctaW1hZScsICc8aW5maWxlLm1hZT4nLCAnLW9tYWUnLCAnPG91dGZpbGUubWFlPic=

> <r_lp_tautomer_probability>
1

> <r_epik_Ionization_Penalty>
3.47921e-05

> <r_epik_Ionization_Penalty_Charging>
7.82631e-08

> <r_epik_Ionization_Penalty_Neutral>
3.47138e-05

> <r_epik_State_Penalty>
-0

> <r_epik_Charging_Adjusted_Penalty>
7.82631e-08

> <i_epik_Tot_Q>
0

> <i_epik_Tot_abs_Q>
0

> <r_epik_Metal_State_Penalty>
-0

> <b_epik_Metal_Only>
0

> <s_lp_Force_Field>
OPLS_2005

> <r_lp_Energy>
23.7954

> <b_lp_Chiralities_Consistent>
1

> <s_lp_Variant>
AV-unprocessed.smi:2259-1

> <Gold.Version>
5.8.1

> <Gold.Id.Protein>
6NUR|6NUR_protein|mol2

> <Gold.PLP.Fitness>
46.5617

> <Gold.PLP.PLP>
-43.2978

> <Gold.PLP.part.hbond>
-3.0000

> <Gold.PLP.part.metal>
0.0000

> <Gold.PLP.part.buried>
-6.8540

> <Gold.PLP.part.nonpolar>
-33.7651

> <Gold.PLP.part.repulsive>
0.2072

> <Gold.PLP.ligand.clash>
0.0000

> <Gold.PLP.ligand.torsion>
1.4027

> <Gold.PLP.Chemscore.Hbond>
1.0000

> <Gold.PLP.Chemscore.CHOScore>
1.0000

> <Gold.PLP.Chemscore.Metal>
0.0000

> <Gold.Chemscore.Hbonds>
donor molecule, donor type, donor heavy atom, donor atom, acceptor molecule, acceptor atom, score
      P1  H  7997  8009       L1    20  1.00
      L1  C     4    26       P1  8028  1.00

> <Gold.PLP.Chemscore.Internal.Correction>
0.0692

> <Gold.Rescore>
     Score         DG    S(hbond)    S(metal)    S(lipo)     H(rot)  DE(clash)    DE(int)     intcor
     10.93     -12.34       0.94        0.00      89.92       2.66       0.05       1.36       ----

> <Gold.Chemscore.Fitness>
10.9307

> <Gold.Chemscore.DG>
-12.3368

> <Gold.Chemscore.ZeroCoef>
-5.4800

> <Gold.Chemscore.Hbond>
0.9391

> <Gold.Chemscore.Metal>
0.0000

> <Gold.Chemscore.Lipo>
89.9170

> <Gold.Chemscore.Internal_Hbond>
0.0000

> <Gold.Chemscore.DEClash>
0.0475

> <Gold.Chemscore.DEInternal>
1.3586

> <Gold.Chemscore.Rot>
2.6563

> <Gold.Chemscore.Internal.Correction>
   9.000000E+99

> <Gold.Chemscore.Hbonds>
donor molecule, donor type, donor heavy atom, donor atom, acceptor molecule, acceptor atom, score
      P1  H  7997  8009       L1    20  0.82

> <Gold.Chemscore.Hbond.Weighted>
-3.1367

> <Gold.Chemscore.Metal.Weighted>
-0.0000

> <Gold.Chemscore.Lipo.Weighted>
-10.5203

> <Gold.Chemscore.Internal_Hbond.Weighted>
0.0000

> <Gold.Chemscore.DEClash.Weighted>
0.0475

> <Gold.Chemscore.DEInternal.Weighted>
1.3586

> <Gold.Chemscore.Rot.Weighted>
6.8002

> <Gold.Chemscore.Internal.Correction.Weighted>
   9.000000E+99

> <Gold.Protein.RotatedTorsions>
[ 6907 6896 6895 6894 ] final -159.99 input  -60.11 | X-H torsion
[ 7974 7965 7964 7962 ] final  105.59 input  175.53 | X-H torsion
[ 8008 7997 7996 7995 ] final -171.41 input   59.86 | X-H torsion
[ 10167 10162 10161 10158 ] final -176.69 input  -65.29 | X-H torsion
[ 10718 10713 10712 10709 ] final  153.14 input   66.30 | X-H torsion
[ 10763 10752 10751 10750 ] final  -49.65 input  -60.55 | X-H torsion
[ 11005 11000 10999 10996 ] final -163.87 input  -57.11 | X-H torsion

> <Gold.Protein.ActiveResidues>
 VAL166  LYS551  ARG553  GLY616  TRP617  ASP618  TYR619  PRO620  LYS621  CYS622 
 ASP623  PHE694  ASN695  SER759  ASP760  ASP761  ALA762  ILE779  LEU786  VAL792 
 PHE793  MET794  SER795  GLU796  ALA797  LYS798  CYS799  TRP800  GLU811  SER814 

> <Gold.Protein.RotatedAtoms>
  151.3421  133.3958  159.2671 H   0  0  0  0  0  0  0  0  0  0  0  0  # atno 6907 bound_to 6896
  150.9869  134.9213  159.7887 H   0  0  0  0  0  0  0  0  0  0  0  0  # atno 6908 bound_to 6896
  152.5235  134.3386  159.9261 H   0  0  0  0  0  0  0  0  0  0  0  0  # atno 6909 bound_to 6896
  145.3177  139.2522  143.3729 H   0  0  0  0  0  0  0  0  0  0  0  0  # atno 7974 bound_to 7965
  155.9311  140.1091  157.1131 H   0  0  0  0  0  0  0  0  0  0  0  0  # atno 8008 bound_to 7997
  154.4071  140.1237  156.4870 H   0  0  0  0  0  0  0  0  0  0  0  0  # atno 8009 bound_to 7997
  155.7078  140.3471  155.4963 H   0  0  0  0  0  0  0  0  0  0  0  0  # atno 8010 bound_to 7997
  139.5517  144.2092  152.1089 H   0  0  0  0  0  0  0  0  0  0  0  0  # atno 10167 bound_to 10162
  157.2486  131.0774  151.1745 H   0  0  0  0  0  0  0  0  0  0  0  0  # atno 10718 bound_to 10713
  154.0975  135.6568  153.4862 H   0  0  0  0  0  0  0  0  0  0  0  0  # atno 10763 bound_to 10752
  153.0300  135.5217  154.7319 H   0  0  0  0  0  0  0  0  0  0  0  0  # atno 10764 bound_to 10752
  154.6461  135.2995  155.0013 H   0  0  0  0  0  0  0  0  0  0  0  0  # atno 10765 bound_to 10752
  140.5932  134.5023  157.5195 H   0  0  0  0  0  0  0  0  0  0  0  0  # atno 11005 bound_to 11000
  146.3094  140.3727  142.8676 LP  0  0  0  0  0  0  0  0  0  0  0  0  # atno 17320 bound_to 7965
  144.8965  140.7589  143.5894 LP  0  0  0  0  0  0  0  0  0  0  0  0  # atno 17321 bound_to 7965
  140.1588  144.5045  150.6644 LP  0  0  0  0  0  0  0  0  0  0  0  0  # atno 17342 bound_to 10162
  140.6781  143.2314  151.5454 LP  0  0  0  0  0  0  0  0  0  0  0  0  # atno 17343 bound_to 10162
  157.3302  130.6981  149.6320 LP  0  0  0  0  0  0  0  0  0  0  0  0  # atno 17370 bound_to 10713
  155.9667  130.4309  150.4899 LP  0  0  0  0  0  0  0  0  0  0  0  0  # atno 17371 bound_to 10713
  139.9265  134.8046  156.1054 LP  0  0  0  0  0  0  0  0  0  0  0  0  # atno 17394 bound_to 11000
  141.0921  133.6710  156.2564 LP  0  0  0  0  0  0  0  0  0  0  0  0  # atno 17395 bound_to 11000

$$$$
