AV-unprocessed.smi:2837|AV-procd|sdf|10926|dock4
  -GOLD-   2272015373D 1   1.00000     0.00000
 Structure written by MMmdl.
 33 35  0  0  0  0  0  0  0  0  2 V2000
  144.1408  132.7670  149.7235 F   0  0  0  0  0  0  0  0  0  0  0  0
  145.0163  132.4497  150.7085 C   0  0  0  0  0  0  0  0  0  0  0  0
  145.9231  131.5887  150.1877 F   0  0  0  0  0  0  0  0  0  0  0  0
  145.6494  133.5657  151.1586 O   0  0  0  0  0  0  0  0  0  0  0  0
  144.9017  134.6268  151.6160 C   0  0  0  0  0  0  0  0  0  0  0  0
  144.0589  134.4218  152.7281 C   0  0  0  0  0  0  0  0  0  0  0  0
  143.2874  135.4888  153.2321 C   0  0  0  0  0  0  0  0  0  0  0  0
  143.3766  136.7612  152.6193 C   0  0  0  0  0  0  0  0  0  0  0  0
  142.6604  137.8940  153.0302 N   0  0  0  0  0  0  0  0  0  0  0  0
  141.7392  137.8392  154.1594 C   0  0  2  0  0  0  0  0  0  0  0  0
  140.6781  136.7456  154.0144 C   0  0  0  0  0  0  0  0  0  0  0  0
  139.3789  137.5362  154.2232 C   0  0  2  0  0  0  0  0  0  0  0  0
  139.0315  138.3834  152.9927 C   0  0  0  0  0  0  0  0  0  0  0  0
  140.0783  139.4926  153.0745 C   0  0  0  0  0  0  0  0  0  0  0  0
  140.8647  139.0971  154.3364 C   0  0  1  0  0  0  0  0  0  0  0  0
  139.8171  138.5468  155.1164 O   0  0  0  0  0  0  0  0  0  0  0  0
  144.2036  136.9199  151.5625 N   0  3  0  0  0  0  0  0  0  0  0  0
  144.9569  135.9228  151.0491 C   0  0  0  0  0  0  0  0  0  0  0  0
  144.4899  131.9337  151.5119 H   0  0  0  0  0  0  0  0  0  0  0  0
  144.0013  133.4476  153.1914 H   0  0  0  0  0  0  0  0  0  0  0  0
  142.6413  135.3124  154.0789 H   0  0  0  0  0  0  0  0  0  0  0  0
  142.9149  138.8007  152.6655 H   0  0  0  0  0  0  0  0  0  0  0  0
  142.3002  137.6495  155.0752 H   0  0  0  0  0  0  0  0  0  0  0  0
  140.6951  136.2384  153.0484 H   0  0  0  0  0  0  0  0  0  0  0  0
  140.8042  135.9920  154.7926 H   0  0  0  0  0  0  0  0  0  0  0  0
  138.5488  136.9347  154.5945 H   0  0  0  0  0  0  0  0  0  0  0  0
  139.0881  137.8134  152.0647 H   0  0  0  0  0  0  0  0  0  0  0  0
  138.0269  138.7993  153.0781 H   0  0  0  0  0  0  0  0  0  0  0  0
  140.7014  139.5577  152.1824 H   0  0  0  0  0  0  0  0  0  0  0  0
  139.5927  140.4588  153.2147 H   0  0  0  0  0  0  0  0  0  0  0  0
  141.3771  139.9326  154.8133 H   0  0  0  0  0  0  0  0  0  0  0  0
  145.5780  136.2000  150.2097 H   0  0  0  0  0  0  0  0  0  0  0  0
  144.2667  137.8415  151.1293 H   0  0  0  0  0  0  0  0  0  0  0  0
  1  2  1  0  0  0  0
  2  3  1  0  0  0  0
  2  4  1  0  0  0  0
  2 19  1  0  0  0  0
  4  5  1  0  0  0  0
  5 18  1  0  0  0  0
  5  6  2  0  0  0  0
  6  7  1  0  0  0  0
  6 20  1  0  0  0  0
  7  8  2  0  0  0  0
  7 21  1  0  0  0  0
  8  9  1  0  0  0  0
  8 17  1  0  0  0  0
  9 10  1  0  0  0  0
  9 22  1  0  0  0  0
 10 15  1  0  0  0  0
 10 11  1  0  0  0  0
 10 23  1  0  0  0  0
 11 12  1  0  0  0  0
 11 24  1  0  0  0  0
 11 25  1  0  0  0  0
 12 16  1  0  0  0  0
 12 13  1  0  0  0  0
 12 26  1  0  0  0  0
 13 14  1  0  0  0  0
 13 27  1  0  0  0  0
 13 28  1  0  0  0  0
 14 15  1  0  0  0  0
 14 29  1  0  0  0  0
 14 30  1  0  0  0  0
 15 16  1  0  0  0  0
 15 31  1  0  0  0  0
 17 18  2  0  0  0  0
 17 33  1  0  0  0  0
 18 32  1  0  0  0  0
M  CHG  1  17   1
M  END
> <s_m_source_file>
AV-unprocessed.smi

> <i_m_source_file_index>
2837

> <i_lp_mmshare_version>
43012

> <i_f3d_flags>
0

> <s_epik_input>
RltDSF0oRilPYzFbY0hdW2NIXWMobltjSF0xKVtOSF1bQ0BIXShbQ0gyXVtDQEBIXTIzKVtDQEBIXShPMylbQ0gyXVtDSDJdMg==

> <s_epik_cmdline>
J2VwaWtfcHl0aG9uJywgJy1waCcsICc3LjAnLCAnLXRuJywgJzgnLCAnLW1hJywgJzIwMCcsICctbWV0YWxfYmluZGluZycsICctaW1hZScsICc8aW5maWxlLm1hZT4nLCAnLW9tYWUnLCAnPG91dGZpbGUubWFlPic=

> <r_lp_tautomer_probability>
0.999429

> <r_epik_Ionization_Penalty>
2.29716

> <r_epik_Ionization_Penalty_Charging>
2.29716

> <r_epik_Ionization_Penalty_Neutral>
1.42285e-06

> <r_epik_State_Penalty>
2.44762

> <r_epik_Charging_Adjusted_Penalty>
4.74478

> <i_epik_Tot_Q>
1

> <i_epik_Tot_abs_Q>
1

> <r_epik_Metal_State_Penalty>
6.53078

> <b_epik_Metal_Only>
0

> <s_lp_Force_Field>
OPLS_2005

> <r_lp_Energy>
46.8355

> <b_lp_Chiralities_Consistent>
1

> <s_lp_Variant>
AV-unprocessed.smi:2837-7

> <Gold.Version>
5.8.1

> <Gold.Id.Protein>
6NUR|6NUR_protein|mol2

> <Gold.PLP.Fitness>
43.0199

> <Gold.PLP.PLP>
-34.5576

> <Gold.PLP.part.hbond>
-1.6584

> <Gold.PLP.part.metal>
0.0000

> <Gold.PLP.part.buried>
-2.2102

> <Gold.PLP.part.nonpolar>
-31.1233

> <Gold.PLP.part.repulsive>
0.2522

> <Gold.PLP.ligand.clash>
0.0000

> <Gold.PLP.ligand.torsion>
0.0707

> <Gold.PLP.Chemscore.Hbond>
2.8640

> <Gold.PLP.Chemscore.CHOScore>
0.0000

> <Gold.PLP.Chemscore.Metal>
0.0000

> <Gold.Chemscore.Hbonds>
donor molecule, donor type, donor heavy atom, donor atom, acceptor molecule, acceptor atom, score
      L1  H     9    22       P1 10175  2.00
      L1  H    17    33       P1 10171  0.82

> <Gold.PLP.Chemscore.Internal.Correction>
0.0118

> <Gold.Rescore>
     Score         DG    S(hbond)    S(metal)    S(lipo)     H(rot)  DE(clash)    DE(int)     intcor
     14.15     -15.70       1.76        0.00      66.23       1.34       1.53       0.03       ----

> <Gold.Chemscore.Fitness>
14.1457

> <Gold.Chemscore.DG>
-15.6981

> <Gold.Chemscore.ZeroCoef>
-5.4800

> <Gold.Chemscore.Hbond>
1.7640

> <Gold.Chemscore.Metal>
0.0000

> <Gold.Chemscore.Lipo>
66.2274

> <Gold.Chemscore.Internal_Hbond>
0.0000

> <Gold.Chemscore.DEClash>
1.5254

> <Gold.Chemscore.DEInternal>
0.0271

> <Gold.Chemscore.Rot>
1.3368

> <Gold.Chemscore.Internal.Correction>
   9.000000E+99

> <Gold.Chemscore.Hbonds>
donor molecule, donor type, donor heavy atom, donor atom, acceptor molecule, acceptor atom, score
      L1  H     9    22       P1 10175  1.00
      L1  H    17    33       P1 10171  0.78

> <Gold.Chemscore.Hbond.Weighted>
-5.8918

> <Gold.Chemscore.Metal.Weighted>
-0.0000

> <Gold.Chemscore.Lipo.Weighted>
-7.7486

> <Gold.Chemscore.Internal_Hbond.Weighted>
0.0000

> <Gold.Chemscore.DEClash.Weighted>
1.5254

> <Gold.Chemscore.DEInternal.Weighted>
0.0271

> <Gold.Chemscore.Rot.Weighted>
3.4223

> <Gold.Chemscore.Internal.Correction.Weighted>
   9.000000E+99

> <Gold.Protein.RotatedTorsions>
[ 6907 6896 6895 6894 ] final  -23.79 input  -60.11 | X-H torsion
[ 7974 7965 7964 7962 ] final  -38.80 input  175.53 | X-H torsion
[ 8008 7997 7996 7995 ] final -122.05 input   59.86 | X-H torsion
[ 10167 10162 10161 10158 ] final  -83.94 input  -65.29 | X-H torsion
[ 10718 10713 10712 10709 ] final  163.43 input   66.30 | X-H torsion
[ 10763 10752 10751 10750 ] final  -54.37 input  -60.55 | X-H torsion
[ 11005 11000 10999 10996 ] final -124.61 input  -57.11 | X-H torsion

> <Gold.Protein.ActiveResidues>
 VAL166  LYS551  ARG553  GLY616  TRP617  ASP618  TYR619  PRO620  LYS621  CYS622 
 ASP623  PHE694  ASN695  SER759  ASP760  ASP761  ALA762  ILE779  LEU786  VAL792 
 PHE793  MET794  SER795  GLU796  ALA797  LYS798  CYS799  TRP800  GLU811  SER814 

> <Gold.Protein.RotatedAtoms>
  151.1989  135.0434  159.8863 H   0  0  0  0  0  0  0  0  0  0  0  0  # atno 6907 bound_to 6896
  152.5434  134.0873  159.8271 H   0  0  0  0  0  0  0  0  0  0  0  0  # atno 6908 bound_to 6896
  151.1011  133.5195  159.2642 H   0  0  0  0  0  0  0  0  0  0  0  0  # atno 6909 bound_to 6896
  146.0454  140.6553  142.9067 H   0  0  0  0  0  0  0  0  0  0  0  0  # atno 7974 bound_to 7965
  155.1580  140.0405  157.2836 H   0  0  0  0  0  0  0  0  0  0  0  0  # atno 8008 bound_to 7997
  154.6357  140.2535  155.7354 H   0  0  0  0  0  0  0  0  0  0  0  0  # atno 8009 bound_to 7997
  156.2507  140.2866  156.0728 H   0  0  0  0  0  0  0  0  0  0  0  0  # atno 8010 bound_to 7997
  140.4179  143.2596  151.8929 H   0  0  0  0  0  0  0  0  0  0  0  0  # atno 10167 bound_to 10162
  157.1086  131.0462  151.2467 H   0  0  0  0  0  0  0  0  0  0  0  0  # atno 10718 bound_to 10713
  154.1738  135.6454  153.5016 H   0  0  0  0  0  0  0  0  0  0  0  0  # atno 10763 bound_to 10752
  153.0077  135.5390  154.6585 H   0  0  0  0  0  0  0  0  0  0  0  0  # atno 10764 bound_to 10752
  154.5931  135.2936  155.0587 H   0  0  0  0  0  0  0  0  0  0  0  0  # atno 10765 bound_to 10752
  140.9827  134.0650  157.3746 H   0  0  0  0  0  0  0  0  0  0  0  0  # atno 11005 bound_to 11000
  144.7095  140.3984  143.7092 LP  0  0  0  0  0  0  0  0  0  0  0  0  # atno 17320 bound_to 7965
  145.6815  139.1619  143.2698 LP  0  0  0  0  0  0  0  0  0  0  0  0  # atno 17321 bound_to 7965
  139.4782  144.5468  151.8446 LP  0  0  0  0  0  0  0  0  0  0  0  0  # atno 17342 bound_to 10162
  140.4566  144.1781  150.5902 LP  0  0  0  0  0  0  0  0  0  0  0  0  # atno 17343 bound_to 10162
  157.4579  130.7636  149.7209 LP  0  0  0  0  0  0  0  0  0  0  0  0  # atno 17370 bound_to 10713
  155.9856  130.3982  150.3254 LP  0  0  0  0  0  0  0  0  0  0  0  0  # atno 17371 bound_to 10713
  139.8957  135.0142  156.7016 LP  0  0  0  0  0  0  0  0  0  0  0  0  # atno 17394 bound_to 11000
  140.7161  133.9181  155.8116 LP  0  0  0  0  0  0  0  0  0  0  0  0  # atno 17395 bound_to 11000

$$$$
