AV-unprocessed.smi:114|AV-procd|sdf|1114|dock10
  -GOLD-   2262018233D 1   1.00000     0.00000
 Structure written by MMmdl.
 32 34  0  0  0  0  0  0  0  0  1 V2000
  134.0876  138.3266  152.1117 N   0  0  0  0  0  0  0  0  0  0  0  0
  135.0650  138.0082  152.9720 C   0  0  0  0  0  0  0  0  0  0  0  0
  134.7278  137.4061  154.1361 N   0  0  0  0  0  0  0  0  0  0  0  0
  135.6731  137.0729  155.0235 C   0  0  0  0  0  0  0  0  0  0  0  0
  135.2474  136.4751  156.1610 F   0  0  0  0  0  0  0  0  0  0  0  0
  136.9920  137.2626  154.9124 N   0  0  0  0  0  0  0  0  0  0  0  0
  137.3370  137.8683  153.7394 C   0  0  0  0  0  0  0  0  0  0  0  0
  136.4336  138.2725  152.7204 C   0  0  0  0  0  0  0  0  0  0  0  0
  137.1320  138.8567  151.6724 N   0  0  0  0  0  0  0  0  0  0  0  0
  138.3795  138.7998  152.0564 C   0  0  0  0  0  0  0  0  0  0  0  0
  138.5936  138.2163  153.2862 N   0  0  0  0  0  0  0  0  0  0  0  0
  139.8989  138.0137  153.9850 C   0  0  1  0  0  0  0  0  0  0  0  0
  140.1459  136.6431  154.0453 O   0  0  0  0  0  0  0  0  0  0  0  0
  141.5183  136.3897  153.7697 C   0  0  1  0  0  0  0  0  0  0  0  0
  141.6854  134.9530  153.2523 C   0  0  0  0  0  0  0  0  0  0  0  0
  141.0388  134.0468  154.1205 O   0  0  0  0  0  0  0  0  0  0  0  0
  141.8487  137.4580  152.7257 C   0  0  2  0  0  0  0  0  0  0  0  0
  143.2384  137.7053  152.6158 O   0  0  0  0  0  0  0  0  0  0  0  0
  141.0511  138.6698  153.2054 C   0  0  2  0  0  0  0  0  0  0  0  0
  141.8137  139.5139  154.0490 O   0  0  0  0  0  0  0  0  0  0  0  0
  139.7500  138.4273  154.9836 H   0  0  0  0  0  0  0  0  0  0  0  0
  142.1074  136.5614  154.6730 H   0  0  0  0  0  0  0  0  0  0  0  0
  141.4757  137.1456  151.7503 H   0  0  0  0  0  0  0  0  0  0  0  0
  140.6755  139.2610  152.3689 H   0  0  0  0  0  0  0  0  0  0  0  0
  134.3148  138.7769  151.2367 H   0  0  0  0  0  0  0  0  0  0  0  0
  133.1264  138.1185  152.3408 H   0  0  0  0  0  0  0  0  0  0  0  0
  139.1843  139.1830  151.4459 H   0  0  0  0  0  0  0  0  0  0  0  0
  141.3014  134.8494  152.2368 H   0  0  0  0  0  0  0  0  0  0  0  0
  142.7415  134.6834  153.2273 H   0  0  0  0  0  0  0  0  0  0  0  0
  141.6893  133.4698  154.4906 H   0  0  0  0  0  0  0  0  0  0  0  0
  143.4385  137.8913  151.7110 H   0  0  0  0  0  0  0  0  0  0  0  0
  142.4655  139.9514  153.5227 H   0  0  0  0  0  0  0  0  0  0  0  0
  1  2  1  0  0  0  0
  1 25  1  0  0  0  0
  1 26  1  0  0  0  0
  2  8  1  0  0  0  0
  2  3  2  0  0  0  0
  3  4  1  0  0  0  0
  4  5  1  0  0  0  0
  4  6  2  0  0  0  0
  6  7  1  0  0  0  0
  7 11  1  0  0  0  0
  7  8  2  0  0  0  0
  8  9  1  0  0  0  0
  9 10  2  0  0  0  0
 10 11  1  0  0  0  0
 10 27  1  0  0  0  0
 11 12  1  0  0  0  0
 12 21  1  0  0  0  0
 12 19  1  0  0  0  0
 12 13  1  0  0  0  0
 13 14  1  0  0  0  0
 14 22  1  0  0  0  0
 14 15  1  0  0  0  0
 14 17  1  0  0  0  0
 15 16  1  0  0  0  0
 15 28  1  0  0  0  0
 15 29  1  0  0  0  0
 16 30  1  0  0  0  0
 17 23  1  0  0  0  0
 17 18  1  0  0  0  0
 17 19  1  0  0  0  0
 18 31  1  0  0  0  0
 19 24  1  0  0  0  0
 19 20  1  0  0  0  0
 20 32  1  0  0  0  0
M  END
> <s_m_source_file>
AV-unprocessed.smi

> <i_m_source_file_index>
114

> <i_lp_mmshare_version>
43012

> <i_f3d_flags>
0

> <s_epik_input>
RmMobjEpbmMoW05IMl0pYyhjMTIpbltjSF1uMltDQEBIXTNPW0NASF0oW0NIMl1bT0hdKVtDQEBIXShbT0hdKVtDQEBIXTNbT0hd

> <s_epik_cmdline>
J2VwaWtfcHl0aG9uJywgJy1waCcsICc3LjAnLCAnLXRuJywgJzgnLCAnLW1hJywgJzIwMCcsICctbWV0YWxfYmluZGluZycsICctaW1hZScsICc8aW5maWxlLm1hZT4nLCAnLW9tYWUnLCAnPG91dGZpbGUubWFlPic=

> <r_lp_tautomer_probability>
1

> <r_epik_Ionization_Penalty>
1.13199e-05

> <r_epik_Ionization_Penalty_Charging>
0

> <r_epik_Ionization_Penalty_Neutral>
1.13199e-05

> <r_epik_State_Penalty>
-0

> <r_epik_Charging_Adjusted_Penalty>
0

> <i_epik_Tot_Q>
0

> <i_epik_Tot_abs_Q>
0

> <r_epik_Metal_State_Penalty>
-0

> <b_epik_Metal_Only>
0

> <s_epik_Chemistry_Notes>
This compound contains an acetal/aminal-like group ( X-CH(R)-Y where X, Y are N, S, or O) that may be acid/base labile, releasing an aldehyde.

> <s_lp_Force_Field>
OPLS_2005

> <r_lp_Energy>
39.1669

> <b_lp_Chiralities_Consistent>
1

> <s_lp_Variant>
AV-unprocessed.smi:114-8

> <Gold.Version>
5.8.1

> <Gold.Id.Protein>
6NUR|6NUR_protein|mol2

> <Gold.PLP.Fitness>
41.0308

> <Gold.PLP.PLP>
-26.4195

> <Gold.PLP.part.hbond>
-6.3489

> <Gold.PLP.part.metal>
0.0000

> <Gold.PLP.part.buried>
-3.4193

> <Gold.PLP.part.nonpolar>
-17.3566

> <Gold.PLP.part.repulsive>
0.1951

> <Gold.PLP.ligand.clash>
0.0000

> <Gold.PLP.ligand.torsion>
0.1648

> <Gold.PLP.Chemscore.Hbond>
3.9760

> <Gold.PLP.Chemscore.CHOScore>
1.0000

> <Gold.PLP.Chemscore.Metal>
0.0000

> <Gold.Chemscore.Hbonds>
donor molecule, donor type, donor heavy atom, donor atom, acceptor molecule, acceptor atom, score
      L1  H    16    30       P1 10957  1.00
      L1  H    18    31       P1 10171  0.94
      L1  H    20    32       P1 10175  1.00
      P1  H 10995 11001       L1    16  0.05
      P1  H 11000 11005       L1    16  0.25
      L1  C    10    27       P1 10160  0.69

> <Gold.PLP.Chemscore.Internal.Correction>
0.0130

> <Gold.Rescore>
     Score         DG    S(hbond)    S(metal)    S(lipo)     H(rot)  DE(clash)    DE(int)     intcor
     10.01     -10.35       3.56        0.00      28.19       4.03       0.31       0.04       ----

> <Gold.Chemscore.Fitness>
10.0076

> <Gold.Chemscore.DG>
-10.3493

> <Gold.Chemscore.ZeroCoef>
-5.4800

> <Gold.Chemscore.Hbond>
3.5576

> <Gold.Chemscore.Metal>
0.0000

> <Gold.Chemscore.Lipo>
28.1859

> <Gold.Chemscore.Internal_Hbond>
0.0000

> <Gold.Chemscore.DEClash>
0.3063

> <Gold.Chemscore.DEInternal>
0.0355

> <Gold.Chemscore.Rot>
4.0277

> <Gold.Chemscore.Internal.Correction>
   9.000000E+99

> <Gold.Chemscore.Hbonds>
donor molecule, donor type, donor heavy atom, donor atom, acceptor molecule, acceptor atom, score
      L1  H    16    30       P1 10957  0.97
      L1  H    18    31       P1 10171  0.79
      L1  H    20    32       P1 10175  0.95
      P1  H 10995 11001       L1    16  0.04

> <Gold.Chemscore.Hbond.Weighted>
-11.8825

> <Gold.Chemscore.Metal.Weighted>
-0.0000

> <Gold.Chemscore.Lipo.Weighted>
-3.2978

> <Gold.Chemscore.Internal_Hbond.Weighted>
0.0000

> <Gold.Chemscore.DEClash.Weighted>
0.3063

> <Gold.Chemscore.DEInternal.Weighted>
0.0355

> <Gold.Chemscore.Rot.Weighted>
10.3110

> <Gold.Chemscore.Internal.Correction.Weighted>
   9.000000E+99

> <Gold.Protein.RotatedTorsions>
[ 6907 6896 6895 6894 ] final -107.07 input  -60.11 | X-H torsion
[ 7974 7965 7964 7962 ] final -172.71 input  175.53 | X-H torsion
[ 8008 7997 7996 7995 ] final -126.67 input   59.86 | X-H torsion
[ 10167 10162 10161 10158 ] final   95.10 input  -65.29 | X-H torsion
[ 10718 10713 10712 10709 ] final  154.33 input   66.30 | X-H torsion
[ 10763 10752 10751 10750 ] final   64.99 input  -60.55 | X-H torsion
[ 11005 11000 10999 10996 ] final   19.72 input  -57.11 | X-H torsion

> <Gold.Protein.ActiveResidues>
 VAL166  LYS551  ARG553  GLY616  TRP617  ASP618  TYR619  PRO620  LYS621  CYS622 
 ASP623  PHE694  ASN695  SER759  ASP760  ASP761  ALA762  ILE779  LEU786  VAL792 
 PHE793  MET794  SER795  GLU796  ALA797  LYS798  CYS799  TRP800  GLU811  SER814 

> <Gold.Protein.RotatedAtoms>
  150.7424  133.9881  159.3597 H   0  0  0  0  0  0  0  0  0  0  0  0  # atno 6907 bound_to 6896
  151.7827  135.0755  160.0385 H   0  0  0  0  0  0  0  0  0  0  0  0  # atno 6908 bound_to 6896
  152.3263  133.5872  159.5815 H   0  0  0  0  0  0  0  0  0  0  0  0  # atno 6909 bound_to 6896
  144.7144  140.1731  143.6365 H   0  0  0  0  0  0  0  0  0  0  0  0  # atno 7974 bound_to 7965
  155.2335  140.0426  157.2965 H   0  0  0  0  0  0  0  0  0  0  0  0  # atno 8008 bound_to 7997
  154.5873  140.2417  155.7939 H   0  0  0  0  0  0  0  0  0  0  0  0  # atno 8009 bound_to 7997
  156.2235  140.2962  156.0018 H   0  0  0  0  0  0  0  0  0  0  0  0  # atno 8010 bound_to 7997
  139.8021  144.6809  150.9751 H   0  0  0  0  0  0  0  0  0  0  0  0  # atno 10167 bound_to 10162
  157.2331  131.0743  151.1840 H   0  0  0  0  0  0  0  0  0  0  0  0  # atno 10718 bound_to 10713
  153.0078  135.5373  154.6597 H   0  0  0  0  0  0  0  0  0  0  0  0  # atno 10763 bound_to 10752
  154.5809  135.2850  155.0736 H   0  0  0  0  0  0  0  0  0  0  0  0  # atno 10764 bound_to 10752
  154.1866  135.6507  153.5101 H   0  0  0  0  0  0  0  0  0  0  0  0  # atno 10765 bound_to 10752
  140.4105  134.1623  155.7667 H   0  0  0  0  0  0  0  0  0  0  0  0  # atno 11005 bound_to 11000
  145.8925  139.2384  143.1541 LP  0  0  0  0  0  0  0  0  0  0  0  0  # atno 17320 bound_to 7965
  145.9889  140.8619  143.0076 LP  0  0  0  0  0  0  0  0  0  0  0  0  # atno 17321 bound_to 7965
  140.7820  143.4271  151.0752 LP  0  0  0  0  0  0  0  0  0  0  0  0  # atno 17342 bound_to 10162
  139.7942  143.8175  152.3155 LP  0  0  0  0  0  0  0  0  0  0  0  0  # atno 17343 bound_to 10162
  157.3457  130.7056  149.6409 LP  0  0  0  0  0  0  0  0  0  0  0  0  # atno 17370 bound_to 10713
  155.9674  130.4267  150.4710 LP  0  0  0  0  0  0  0  0  0  0  0  0  # atno 17371 bound_to 10713
  141.1823  133.8388  157.1215 LP  0  0  0  0  0  0  0  0  0  0  0  0  # atno 17394 bound_to 11000
  140.0271  134.9919  157.0707 LP  0  0  0  0  0  0  0  0  0  0  0  0  # atno 17395 bound_to 11000

$$$$
