AV-unprocessed.smi:99|AV-procd|sdf|869|dock2
  -GOLD-   2262017323D 1   1.00000     0.00000
 Structure written by MMmdl.
 53 56  0  0  0  0  0  0  0  0  1 V2000
  151.0140  140.4713  155.2189 O   0  0  0  0  0  0  0  0  0  0  0  0
  151.4686  140.1859  156.3287 C   0  0  0  0  0  0  0  0  0  0  0  0
  151.8065  138.9339  156.6955 O   0  0  0  0  0  0  0  0  0  0  0  0
  151.5043  137.8414  155.8437 C   0  0  0  0  0  0  0  0  0  0  0  0
  151.0452  136.6440  156.6905 C   0  0  2  0  0  0  0  0  0  0  0  0
  151.5074  135.4406  156.0891 O   0  0  0  0  0  0  0  0  0  0  0  0
  150.5641  134.9668  155.1802 C   0  0  1  0  0  0  0  0  0  0  0  0
  150.5531  133.4551  155.2969 N   0  0  0  0  0  0  0  0  0  0  0  0
  151.3875  132.7970  156.1934 C   0  0  0  0  0  0  0  0  0  0  0  0
  151.4790  131.4488  156.2753 C   0  0  0  0  0  0  0  0  0  0  0  0
  150.7020  130.5998  155.3799 C   0  0  0  0  0  0  0  0  0  0  0  0
  150.7052  129.3707  155.3865 O   0  0  0  0  0  0  0  0  0  0  0  0
  149.9190  131.2982  154.4571 N   0  0  0  0  0  0  0  0  0  0  0  0
  149.8284  132.6876  154.3547 C   0  0  0  0  0  0  0  0  0  0  0  0
  149.1317  133.1858  153.4713 O   0  0  0  0  0  0  0  0  0  0  0  0
  149.2047  135.6194  155.5028 C   0  0  2  0  0  0  0  0  0  0  0  0
  148.7353  136.4336  154.4463 O   0  0  0  0  0  0  0  0  0  0  0  0
  149.5202  136.4970  156.7133 C   0  0  1  0  0  0  0  0  0  0  0  0
  149.1373  135.8620  157.9272 O   0  0  0  0  0  0  0  0  0  0  0  0
  148.9878  136.5705  159.0666 C   0  0  0  0  0  0  0  0  0  0  0  0
  149.3741  137.7326  159.2049 O   0  0  0  0  0  0  0  0  0  0  0  0
  148.2947  135.7989  160.1375 C   0  0  0  0  0  0  0  0  0  0  0  0
  148.0216  134.4256  159.9371 C   0  0  0  0  0  0  0  0  0  0  0  0
  147.3710  133.6713  160.9329 C   0  0  0  0  0  0  0  0  0  0  0  0
  146.9865  134.2806  162.1415 C   0  0  0  0  0  0  0  0  0  0  0  0
  147.2540  135.6456  162.3537 C   0  0  0  0  0  0  0  0  0  0  0  0
  147.9041  136.4019  161.3591 C   0  0  0  0  0  0  0  0  0  0  0  0
  151.7015  141.1908  157.4058 C   0  0  0  0  0  0  0  0  0  0  0  0
  151.2615  142.5219  157.2179 C   0  0  0  0  0  0  0  0  0  0  0  0
  151.4668  143.4933  158.2170 C   0  0  0  0  0  0  0  0  0  0  0  0
  152.1143  143.1453  159.4165 C   0  0  0  0  0  0  0  0  0  0  0  0
  152.5574  141.8247  159.6155 C   0  0  0  0  0  0  0  0  0  0  0  0
  152.3532  140.8518  158.6174 C   0  0  0  0  0  0  0  0  0  0  0  0
  149.3830  130.7508  153.7992 H   0  0  0  0  0  0  0  0  0  0  0  0
  150.7050  138.1396  155.1638 H   0  0  0  0  0  0  0  0  0  0  0  0
  152.3709  137.5798  155.2351 H   0  0  0  0  0  0  0  0  0  0  0  0
  151.4444  136.7436  157.7010 H   0  0  0  0  0  0  0  0  0  0  0  0
  150.8847  135.2171  154.1678 H   0  0  0  0  0  0  0  0  0  0  0  0
  152.0103  133.3685  156.8622 H   0  0  0  0  0  0  0  0  0  0  0  0
  152.1384  130.9960  157.0019 H   0  0  0  0  0  0  0  0  0  0  0  0
  148.4322  134.8776  155.7048 H   0  0  0  0  0  0  0  0  0  0  0  0
  149.1099  136.1236  153.6361 H   0  0  0  0  0  0  0  0  0  0  0  0
  149.0398  137.4753  156.6534 H   0  0  0  0  0  0  0  0  0  0  0  0
  148.3074  133.9358  159.0171 H   0  0  0  0  0  0  0  0  0  0  0  0
  147.1666  132.6236  160.7684 H   0  0  0  0  0  0  0  0  0  0  0  0
  146.4873  133.7020  162.9047 H   0  0  0  0  0  0  0  0  0  0  0  0
  146.9604  136.1143  163.2815 H   0  0  0  0  0  0  0  0  0  0  0  0
  148.0955  137.4469  161.5559 H   0  0  0  0  0  0  0  0  0  0  0  0
  150.7612  142.8127  156.3053 H   0  0  0  0  0  0  0  0  0  0  0  0
  151.1262  144.5065  158.0622 H   0  0  0  0  0  0  0  0  0  0  0  0
  152.2704  143.8903  160.1830 H   0  0  0  0  0  0  0  0  0  0  0  0
  153.0548  141.5564  160.5360 H   0  0  0  0  0  0  0  0  0  0  0  0
  152.7055  139.8476  158.8024 H   0  0  0  0  0  0  0  0  0  0  0  0
  1  2  2  0  0  0  0
  2  3  1  0  0  0  0
  2 28  1  0  0  0  0
  3  4  1  0  0  0  0
  4  5  1  0  0  0  0
  4 35  1  0  0  0  0
  4 36  1  0  0  0  0
  5 18  1  0  0  0  0
  5  6  1  0  0  0  0
  5 37  1  0  0  0  0
  6  7  1  0  0  0  0
  7  8  1  0  0  0  0
  7 16  1  0  0  0  0
  7 38  1  0  0  0  0
  8 14  1  0  0  0  0
  8  9  1  0  0  0  0
  9 10  2  0  0  0  0
  9 39  1  0  0  0  0
 10 11  1  0  0  0  0
 10 40  1  0  0  0  0
 11 12  2  0  0  0  0
 11 13  1  0  0  0  0
 13 34  1  0  0  0  0
 13 14  1  0  0  0  0
 14 15  2  0  0  0  0
 16 17  1  0  0  0  0
 16 18  1  0  0  0  0
 16 41  1  0  0  0  0
 17 42  1  0  0  0  0
 18 19  1  0  0  0  0
 18 43  1  0  0  0  0
 19 20  1  0  0  0  0
 20 21  2  0  0  0  0
 20 22  1  0  0  0  0
 22 27  1  0  0  0  0
 22 23  2  0  0  0  0
 23 24  1  0  0  0  0
 23 44  1  0  0  0  0
 24 25  2  0  0  0  0
 24 45  1  0  0  0  0
 25 26  1  0  0  0  0
 25 46  1  0  0  0  0
 26 27  2  0  0  0  0
 26 47  1  0  0  0  0
 27 48  1  0  0  0  0
 28 33  1  0  0  0  0
 28 29  2  0  0  0  0
 29 30  1  0  0  0  0
 29 49  1  0  0  0  0
 30 31  2  0  0  0  0
 30 50  1  0  0  0  0
 31 32  1  0  0  0  0
 31 51  1  0  0  0  0
 32 33  2  0  0  0  0
 32 52  1  0  0  0  0
 33 53  1  0  0  0  0
M  END
> <s_m_source_file>
AV-unprocessed.smi

> <i_m_source_file_index>
99

> <i_lp_mmshare_version>
43012

> <i_f3d_flags>
0

> <s_epik_input>
W2NIXTFbY0hdW2NIXVtjSF1bY0hdYzFDKD1PKU9bQ0gyXVtDQEBIXTJPW0NAQEhdKG4zW2NIXVtjSF1jKD1PKVtuSF1jMz1PKVtDQEBIXShbT0hdKVtDQEhdMk9DKD1PKWM0W2NIXVtjSF1bY0hdW2NIXVtjSF00

> <s_epik_cmdline>
J2VwaWtfcHl0aG9uJywgJy1waCcsICc3LjAnLCAnLXRuJywgJzgnLCAnLW1hJywgJzIwMCcsICctbWV0YWxfYmluZGluZycsICctaW1hZScsICc8aW5maWxlLm1hZT4nLCAnLW9tYWUnLCAnPG91dGZpbGUubWFlPic=

> <r_lp_tautomer_probability>
1

> <r_epik_Ionization_Penalty>
0.00454555

> <r_epik_Ionization_Penalty_Charging>
0.0045191

> <r_epik_Ionization_Penalty_Neutral>
2.64449e-05

> <r_epik_State_Penalty>
-0

> <r_epik_Charging_Adjusted_Penalty>
0.0045191

> <i_epik_Tot_Q>
0

> <i_epik_Tot_abs_Q>
0

> <r_epik_Metal_State_Penalty>
1.27877

> <b_epik_Metal_Only>
0

> <s_epik_Chemistry_Notes>
This compound has an ester and may undergo hydrolysis at high or low pH. This compound contains an acetal/aminal-like group ( X-CH(R)-Y where X, Y are N, S, or O) that may be acid/base labile, releasing an aldehyde.

> <s_lp_Force_Field>
OPLS_2005

> <r_lp_Energy>
32.4523

> <b_lp_Chiralities_Consistent>
1

> <s_lp_Variant>
AV-unprocessed.smi:99-5

> <Gold.Version>
5.8.1

> <Gold.Id.Protein>
6NUR|6NUR_protein|mol2

> <Gold.PLP.Fitness>
64.3323

> <Gold.PLP.PLP>
-57.4852

> <Gold.PLP.part.hbond>
-3.6519

> <Gold.PLP.part.metal>
0.0000

> <Gold.PLP.part.buried>
-9.4201

> <Gold.PLP.part.nonpolar>
-44.6174

> <Gold.PLP.part.repulsive>
0.3355

> <Gold.PLP.ligand.clash>
0.0000

> <Gold.PLP.ligand.torsion>
1.3130

> <Gold.PLP.Chemscore.Hbond>
2.9920

> <Gold.PLP.Chemscore.CHOScore>
0.0000

> <Gold.PLP.Chemscore.Metal>
0.0000

> <Gold.Chemscore.Hbonds>
donor molecule, donor type, donor heavy atom, donor atom, acceptor molecule, acceptor atom, score
      L1  H    17    42       P1  7948  0.90
      P1  H  7989  7998       L1     1  0.99
      P1  H 10752 10763       L1     6  1.00

> <Gold.PLP.Chemscore.Internal.Correction>
0.4971

> <Gold.Rescore>
     Score         DG    S(hbond)    S(metal)    S(lipo)     H(rot)  DE(clash)    DE(int)     intcor
     19.93     -21.09       2.76        0.00     124.37       3.19       0.06       1.10       ----

> <Gold.Chemscore.Fitness>
19.9319

> <Gold.Chemscore.DG>
-21.0939

> <Gold.Chemscore.ZeroCoef>
-5.4800

> <Gold.Chemscore.Hbond>
2.7634

> <Gold.Chemscore.Metal>
0.0000

> <Gold.Chemscore.Lipo>
124.3688

> <Gold.Chemscore.Internal_Hbond>
0.0000

> <Gold.Chemscore.DEClash>
0.0630

> <Gold.Chemscore.DEInternal>
1.0990

> <Gold.Chemscore.Rot>
3.1903

> <Gold.Chemscore.Internal.Correction>
   9.000000E+99

> <Gold.Chemscore.Hbonds>
donor molecule, donor type, donor heavy atom, donor atom, acceptor molecule, acceptor atom, score
      L1  H    17    42       P1  7948  0.82
      P1  H  7989  7998       L1     1  0.94
      P1  H 10752 10763       L1     6  0.34

> <Gold.Chemscore.Hbond.Weighted>
-9.2298

> <Gold.Chemscore.Metal.Weighted>
-0.0000

> <Gold.Chemscore.Lipo.Weighted>
-14.5511

> <Gold.Chemscore.Internal_Hbond.Weighted>
0.0000

> <Gold.Chemscore.DEClash.Weighted>
0.0630

> <Gold.Chemscore.DEInternal.Weighted>
1.0990

> <Gold.Chemscore.Rot.Weighted>
8.1671

> <Gold.Chemscore.Internal.Correction.Weighted>
   9.000000E+99

> <Gold.Protein.RotatedTorsions>
[ 6907 6896 6895 6894 ] final -136.38 input  -60.11 | X-H torsion
[ 7974 7965 7964 7962 ] final  176.48 input  175.53 | X-H torsion
[ 8008 7997 7996 7995 ] final  -75.86 input   59.86 | X-H torsion
[ 10167 10162 10161 10158 ] final  116.09 input  -65.29 | X-H torsion
[ 10718 10713 10712 10709 ] final  162.35 input   66.30 | X-H torsion
[ 10763 10752 10751 10750 ] final   87.79 input  -60.55 | X-H torsion
[ 11005 11000 10999 10996 ] final   33.08 input  -57.11 | X-H torsion

> <Gold.Protein.ActiveResidues>
 VAL166  LYS551  ARG553  GLY616  TRP617  ASP618  TYR619  PRO620  LYS621  CYS622 
 ASP623  PHE694  ASN695  SER759  ASP760  ASP761  ALA762  ILE779  LEU786  VAL792 
 PHE793  MET794  SER795  GLU796  ALA797  LYS798  CYS799  TRP800  GLU811  SER814 

> <Gold.Protein.RotatedAtoms>
  151.0094  133.5980  159.2684 H   0  0  0  0  0  0  0  0  0  0  0  0  # atno 6907 bound_to 6896
  151.3137  135.0800  159.9291 H   0  0  0  0  0  0  0  0  0  0  0  0  # atno 6908 bound_to 6896
  152.5295  133.9754  159.7836 H   0  0  0  0  0  0  0  0  0  0  0  0  # atno 6909 bound_to 6896
  144.7184  140.0103  143.6440 H   0  0  0  0  0  0  0  0  0  0  0  0  # atno 7974 bound_to 7965
  154.5454  140.0737  156.8580 H   0  0  0  0  0  0  0  0  0  0  0  0  # atno 8008 bound_to 7997
  155.3097  140.3389  155.4226 H   0  0  0  0  0  0  0  0  0  0  0  0  # atno 8009 bound_to 7997
  156.1913  140.1687  156.8072 H   0  0  0  0  0  0  0  0  0  0  0  0  # atno 8010 bound_to 7997
  139.6271  144.7110  151.2509 H   0  0  0  0  0  0  0  0  0  0  0  0  # atno 10167 bound_to 10162
  157.1238  131.0499  151.2403 H   0  0  0  0  0  0  0  0  0  0  0  0  # atno 10718 bound_to 10713
  153.1703  135.4530  154.9894 H   0  0  0  0  0  0  0  0  0  0  0  0  # atno 10763 bound_to 10752
  154.7961  135.3238  154.7665 H   0  0  0  0  0  0  0  0  0  0  0  0  # atno 10764 bound_to 10752
  153.8142  135.6952  153.4891 H   0  0  0  0  0  0  0  0  0  0  0  0  # atno 10765 bound_to 10752
  140.2668  134.3128  155.7840 H   0  0  0  0  0  0  0  0  0  0  0  0  # atno 11005 bound_to 11000
  146.0264  139.3296  143.0782 LP  0  0  0  0  0  0  0  0  0  0  0  0  # atno 17320 bound_to 7965
  145.8506  140.9531  143.0751 LP  0  0  0  0  0  0  0  0  0  0  0  0  # atno 17321 bound_to 7965
  140.7417  143.6547  150.8217 LP  0  0  0  0  0  0  0  0  0  0  0  0  # atno 17342 bound_to 10162
  140.0167  143.5586  152.2817 LP  0  0  0  0  0  0  0  0  0  0  0  0  # atno 17343 bound_to 10162
  157.4453  130.7567  149.7104 LP  0  0  0  0  0  0  0  0  0  0  0  0  # atno 17370 bound_to 10713
  155.9822  130.4011  150.3427 LP  0  0  0  0  0  0  0  0  0  0  0  0  # atno 17371 bound_to 10713
  141.2183  133.7443  156.9273 LP  0  0  0  0  0  0  0  0  0  0  0  0  # atno 17394 bound_to 11000
  140.1411  134.9293  157.2468 LP  0  0  0  0  0  0  0  0  0  0  0  0  # atno 17395 bound_to 11000

$$$$
