AV-unprocessed.smi:1952|AV-procd|sdf|7883|dock8
  -GOLD-   2272010 33D 1   1.00000     0.00000
 Structure written by MMmdl.
 39 40  0  0  0  0  0  0  0  0  1 V2000
  152.5149  139.0491  158.3669 C   0  0  0  0  0  0  0  0  0  0  0  0
  151.7665  139.7707  157.2993 C   0  0  0  0  0  0  0  0  0  0  0  0
  150.6375  140.5406  157.3122 C   0  0  0  0  0  0  0  0  0  0  0  0
  150.4880  140.9125  155.9497 C   0  0  0  0  0  0  0  0  0  0  0  0
  149.4110  141.7365  155.5346 N   0  0  0  0  0  0  0  0  0  0  0  0
  148.2219  141.3457  155.0458 C   0  0  0  0  0  0  0  0  0  0  0  0
  147.8741  140.1760  154.8822 O   0  0  0  0  0  0  0  0  0  0  0  0
  147.4462  142.4018  154.7573 N   0  0  0  0  0  0  0  0  0  0  0  0
  146.0816  142.3447  154.2353 C   0  0  2  0  0  0  0  0  0  0  0  0
  145.9210  143.4096  153.1422 C   0  0  0  0  0  0  0  0  0  0  0  0
  145.0628  142.5600  155.3756 C   0  0  0  0  0  0  0  0  0  0  0  0
  144.8916  143.9432  155.8221 N   0  0  0  0  0  0  0  0  0  0  0  0
  143.9130  144.6450  154.9991 C   0  0  0  0  0  0  0  0  0  0  0  0
  143.7291  146.1056  155.4462 C   0  0  0  0  0  0  0  0  0  0  0  0
  143.3530  146.1409  156.8190 O   0  0  0  0  0  0  0  0  0  0  0  0
  144.3030  145.5011  157.6649 C   0  0  0  0  0  0  0  0  0  0  0  0
  144.4859  144.0391  157.2229 C   0  0  0  0  0  0  0  0  0  0  0  0
  151.4389  140.4136  155.1748 N   0  0  0  0  0  0  0  0  0  0  0  0
  152.2633  139.6796  156.0358 O   0  0  0  0  0  0  0  0  0  0  0  0
  151.9972  139.1224  159.3233 H   0  0  0  0  0  0  0  0  0  0  0  0
  153.5135  139.4687  158.4897 H   0  0  0  0  0  0  0  0  0  0  0  0
  152.6194  137.9926  158.1195 H   0  0  0  0  0  0  0  0  0  0  0  0
  150.0208  140.7953  158.1614 H   0  0  0  0  0  0  0  0  0  0  0  0
  149.5618  142.7306  155.6200 H   0  0  0  0  0  0  0  0  0  0  0  0
  147.8221  143.3227  154.9290 H   0  0  0  0  0  0  0  0  0  0  0  0
  145.8993  141.3808  153.7591 H   0  0  0  0  0  0  0  0  0  0  0  0
  144.9187  143.3821  152.7139 H   0  0  0  0  0  0  0  0  0  0  0  0
  146.6298  143.2483  152.3292 H   0  0  0  0  0  0  0  0  0  0  0  0
  146.0872  144.4131  153.5356 H   0  0  0  0  0  0  0  0  0  0  0  0
  144.0990  142.1792  155.0340 H   0  0  0  0  0  0  0  0  0  0  0  0
  145.3393  141.9383  156.2284 H   0  0  0  0  0  0  0  0  0  0  0  0
  144.2255  144.6263  153.9547 H   0  0  0  0  0  0  0  0  0  0  0  0
  142.9522  144.1300  155.0464 H   0  0  0  0  0  0  0  0  0  0  0  0
  144.6490  146.6734  155.2992 H   0  0  0  0  0  0  0  0  0  0  0  0
  142.9542  146.5894  154.8515 H   0  0  0  0  0  0  0  0  0  0  0  0
  145.2533  146.0362  157.6274 H   0  0  0  0  0  0  0  0  0  0  0  0
  143.9505  145.5453  158.6955 H   0  0  0  0  0  0  0  0  0  0  0  0
  143.5524  143.4956  157.3764 H   0  0  0  0  0  0  0  0  0  0  0  0
  145.2278  143.5725  157.8692 H   0  0  0  0  0  0  0  0  0  0  0  0
  1  2  1  0  0  0  0
  1 20  1  0  0  0  0
  1 21  1  0  0  0  0
  1 22  1  0  0  0  0
  2 19  1  0  0  0  0
  2  3  2  0  0  0  0
  3  4  1  0  0  0  0
  3 23  1  0  0  0  0
  4  5  1  0  0  0  0
  4 18  2  0  0  0  0
  5  6  1  0  0  0  0
  5 24  1  0  0  0  0
  6  7  2  0  0  0  0
  6  8  1  0  0  0  0
  8  9  1  0  0  0  0
  8 25  1  0  0  0  0
  9 10  1  0  0  0  0
  9 11  1  0  0  0  0
  9 26  1  0  0  0  0
 10 27  1  0  0  0  0
 10 28  1  0  0  0  0
 10 29  1  0  0  0  0
 11 12  1  0  0  0  0
 11 30  1  0  0  0  0
 11 31  1  0  0  0  0
 12 17  1  0  0  0  0
 12 13  1  0  0  0  0
 13 14  1  0  0  0  0
 13 32  1  0  0  0  0
 13 33  1  0  0  0  0
 14 15  1  0  0  0  0
 14 34  1  0  0  0  0
 14 35  1  0  0  0  0
 15 16  1  0  0  0  0
 16 17  1  0  0  0  0
 16 36  1  0  0  0  0
 16 37  1  0  0  0  0
 17 38  1  0  0  0  0
 17 39  1  0  0  0  0
 18 19  1  0  0  0  0
M  END
> <s_m_source_file>
AV-unprocessed.smi

> <i_m_source_file_index>
1952

> <i_lp_mmshare_version>
43012

> <i_f3d_flags>
0

> <s_epik_input>
W0NIM11jMVtjSF1jKG5vMSlbTkhdQyg9TylbTkhdW0NASF0oW0NIM10pW0NIMl1OMltDSDJdW0NIMl1PW0NIMl1bQ0gyXTI=

> <s_epik_cmdline>
J2VwaWtfcHl0aG9uJywgJy1waCcsICc3LjAnLCAnLXRuJywgJzgnLCAnLW1hJywgJzIwMCcsICctbWV0YWxfYmluZGluZycsICctaW1hZScsICc8aW5maWxlLm1hZT4nLCAnLW9tYWUnLCAnPG91dGZpbGUubWFlPic=

> <r_epik_Ionization_Penalty>
0.214075

> <r_epik_Ionization_Penalty_Charging>
0

> <r_epik_Ionization_Penalty_Neutral>
0.214075

> <r_epik_State_Penalty>
0.204211

> <r_epik_Charging_Adjusted_Penalty>
0.204211

> <i_epik_Tot_Q>
0

> <i_epik_Tot_abs_Q>
0

> <r_epik_Metal_State_Penalty>
0.218782

> <b_epik_Metal_Only>
0

> <s_lp_Force_Field>
OPLS_2005

> <r_lp_Energy>
23.1599

> <b_lp_Chiralities_Consistent>
1

> <s_lp_Variant>
AV-unprocessed.smi:1952-1

> <Gold.Version>
5.8.1

> <Gold.Id.Protein>
6NUR|6NUR_protein|mol2

> <Gold.PLP.Fitness>
37.2459

> <Gold.PLP.PLP>
-28.6294

> <Gold.PLP.part.hbond>
-4.0000

> <Gold.PLP.part.metal>
0.0000

> <Gold.PLP.part.buried>
-6.0345

> <Gold.PLP.part.nonpolar>
-19.2970

> <Gold.PLP.part.repulsive>
0.5181

> <Gold.PLP.ligand.clash>
0.0000

> <Gold.PLP.ligand.torsion>
1.4570

> <Gold.PLP.Chemscore.Hbond>
3.8400

> <Gold.PLP.Chemscore.CHOScore>
0.0000

> <Gold.PLP.Chemscore.Metal>
0.0000

> <Gold.Chemscore.Hbonds>
donor molecule, donor type, donor heavy atom, donor atom, acceptor molecule, acceptor atom, score
      L1  H     5    24       P1  8028  0.83
      L1  H     8    25       P1  8028  1.00
      P1  H  7989  7998       L1    18  0.93
      P1  H  7997  8009       L1    19  0.58

> <Gold.PLP.Chemscore.Internal.Correction>
0.0105

> <Gold.Rescore>
     Score         DG    S(hbond)    S(metal)    S(lipo)     H(rot)  DE(clash)    DE(int)     intcor
     15.46     -17.09       3.02        0.00      47.10       1.56       0.04       1.59       ----

> <Gold.Chemscore.Fitness>
15.4602

> <Gold.Chemscore.DG>
-17.0909

> <Gold.Chemscore.ZeroCoef>
-5.4800

> <Gold.Chemscore.Hbond>
3.0217

> <Gold.Chemscore.Metal>
0.0000

> <Gold.Chemscore.Lipo>
47.1047

> <Gold.Chemscore.Internal_Hbond>
0.0000

> <Gold.Chemscore.DEClash>
0.0359

> <Gold.Chemscore.DEInternal>
1.5948

> <Gold.Chemscore.Rot>
1.5597

> <Gold.Chemscore.Internal.Correction>
   9.000000E+99

> <Gold.Chemscore.Hbonds>
donor molecule, donor type, donor heavy atom, donor atom, acceptor molecule, acceptor atom, score
      L1  H     5    24       P1  8028  0.77
      L1  H     8    25       P1  8028  0.60
      P1  H  7989  7998       L1    18  0.89
      P1  H  7997  8009       L1    19  0.11

> <Gold.Chemscore.Hbond.Weighted>
-10.0925

> <Gold.Chemscore.Metal.Weighted>
-0.0000

> <Gold.Chemscore.Lipo.Weighted>
-5.5112

> <Gold.Chemscore.Internal_Hbond.Weighted>
0.0000

> <Gold.Chemscore.DEClash.Weighted>
0.0359

> <Gold.Chemscore.DEInternal.Weighted>
1.5948

> <Gold.Chemscore.Rot.Weighted>
3.9928

> <Gold.Chemscore.Internal.Correction.Weighted>
   9.000000E+99

> <Gold.Protein.RotatedTorsions>
[ 6907 6896 6895 6894 ] final  -88.25 input  -60.11 | X-H torsion
[ 7974 7965 7964 7962 ] final  146.76 input  175.53 | X-H torsion
[ 8008 7997 7996 7995 ] final -172.37 input   59.86 | X-H torsion
[ 10167 10162 10161 10158 ] final  144.37 input  -65.29 | X-H torsion
[ 10718 10713 10712 10709 ] final -104.62 input   66.30 | X-H torsion
[ 10763 10752 10751 10750 ] final  -73.38 input  -60.55 | X-H torsion
[ 11005 11000 10999 10996 ] final    4.43 input  -57.11 | X-H torsion

> <Gold.Protein.ActiveResidues>
 VAL166  LYS551  ARG553  GLY616  TRP617  ASP618  TYR619  PRO620  LYS621  CYS622 
 ASP623  PHE694  ASN695  SER759  ASP760  ASP761  ALA762  ILE779  LEU786  VAL792 
 PHE793  MET794  SER795  GLU796  ALA797  LYS798  CYS799  TRP800  GLU811  SER814 

> <Gold.Protein.RotatedAtoms>
  150.6868  134.2771  159.4611 H   0  0  0  0  0  0  0  0  0  0  0  0  # atno 6907 bound_to 6896
  152.0688  134.9544  160.0584 H   0  0  0  0  0  0  0  0  0  0  0  0  # atno 6908 bound_to 6896
  152.0942  133.4181  159.4594 H   0  0  0  0  0  0  0  0  0  0  0  0  # atno 6909 bound_to 6896
  144.8645  139.5945  143.5915 H   0  0  0  0  0  0  0  0  0  0  0  0  # atno 7974 bound_to 7965
  155.9436  140.1113  157.1035 H   0  0  0  0  0  0  0  0  0  0  0  0  # atno 8008 bound_to 7997
  154.4094  140.1214  156.5026 H   0  0  0  0  0  0  0  0  0  0  0  0  # atno 8009 bound_to 7997
  155.6930  140.3472  155.4904 H   0  0  0  0  0  0  0  0  0  0  0  0  # atno 8010 bound_to 7997
  139.4948  144.5977  151.6548 H   0  0  0  0  0  0  0  0  0  0  0  0  # atno 10167 bound_to 10162
  156.0312  130.5524  150.7423 H   0  0  0  0  0  0  0  0  0  0  0  0  # atno 10718 bound_to 10713
  154.4587  135.5899  153.6241 H   0  0  0  0  0  0  0  0  0  0  0  0  # atno 10763 bound_to 10752
  152.9821  135.6038  154.3514 H   0  0  0  0  0  0  0  0  0  0  0  0  # atno 10764 bound_to 10752
  154.3383  135.2842  155.2415 H   0  0  0  0  0  0  0  0  0  0  0  0  # atno 10765 bound_to 10752
  140.5820  134.0004  155.8051 H   0  0  0  0  0  0  0  0  0  0  0  0  # atno 11005 bound_to 11000
  146.2885  139.7073  142.9178 LP  0  0  0  0  0  0  0  0  0  0  0  0  # atno 17320 bound_to 7965
  145.4248  141.0410  143.2944 LP  0  0  0  0  0  0  0  0  0  0  0  0  # atno 17321 bound_to 7965
  140.5619  144.0255  150.6173 LP  0  0  0  0  0  0  0  0  0  0  0  0  # atno 17342 bound_to 10162
  140.3343  143.3058  152.0654 LP  0  0  0  0  0  0  0  0  0  0  0  0  # atno 17343 bound_to 10162
  157.4988  131.0917  151.0339 LP  0  0  0  0  0  0  0  0  0  0  0  0  # atno 17370 bound_to 10713
  157.0725  130.5870  149.5405 LP  0  0  0  0  0  0  0  0  0  0  0  0  # atno 17371 bound_to 10713
  141.0990  133.9798  157.3111 LP  0  0  0  0  0  0  0  0  0  0  0  0  # atno 17394 bound_to 11000
  139.9313  135.0199  156.8409 LP  0  0  0  0  0  0  0  0  0  0  0  0  # atno 17395 bound_to 11000

$$$$
