AV-unprocessed.smi:1480|AV-procd|sdf|5986|dock5
  -GOLD-   22720 6 83D 1   1.00000     0.00000
 Structure written by MMmdl.
 37 38  0  0  0  0  0  0  0  0  1 V2000
  151.9967  145.7152  159.9383 C   0  0  0  0  0  0  0  0  0  0  0  0
  151.6322  144.6613  158.9898 N   0  0  0  0  0  0  0  0  0  0  0  0
  152.0817  144.8847  157.6083 C   0  0  0  0  0  0  0  0  0  0  0  0
  151.3561  144.0107  156.5773 C   0  0  0  0  0  0  0  0  0  0  0  0
  151.3282  142.5515  157.0498 C   0  0  2  0  0  0  0  0  0  0  0  0
  150.6576  141.6513  156.0017 C   0  0  0  0  0  0  0  0  0  0  0  0
  151.2797  140.7006  155.5277 O   0  0  0  0  0  0  0  0  0  0  0  0
  149.3944  141.9785  155.6722 N   0  0  0  0  0  0  0  0  0  0  0  0
  148.5316  141.3516  154.7362 C   0  0  0  0  0  0  0  0  0  0  0  0
  147.6659  142.0126  153.8135 C   0  0  0  0  0  0  0  0  0  0  0  0
  147.0591  140.9794  153.1584 C   0  0  0  0  0  0  0  0  0  0  0  0
  147.5574  139.8037  153.6834 N   0  0  0  0  0  0  0  0  0  0  0  0
  147.2201  138.4398  153.3164 C   0  0  0  0  0  0  0  0  0  0  0  0
  146.4682  138.3957  151.9853 C   0  0  0  0  0  0  0  0  0  0  0  0
  145.1969  137.9878  152.0163 N   0  0  0  0  0  0  0  0  0  0  0  0
  147.0282  138.7265  150.9425 O   0  0  0  0  0  0  0  0  0  0  0  0
  148.4659  140.0333  154.6574 N   0  0  0  0  0  0  0  0  0  0  0  0
  150.5975  142.4595  158.4049 C   0  0  0  0  0  0  0  0  0  0  0  0
  151.0050  143.5400  159.4208 C   0  0  0  0  0  0  0  0  0  0  0  0
  150.7152  143.3593  160.6039 O   0  0  0  0  0  0  0  0  0  0  0  0
  152.6590  145.3236  160.7118 H   0  0  0  0  0  0  0  0  0  0  0  0
  151.1073  146.1198  160.4233 H   0  0  0  0  0  0  0  0  0  0  0  0
  152.5154  146.5447  159.4565 H   0  0  0  0  0  0  0  0  0  0  0  0
  151.9531  145.9330  157.3350 H   0  0  0  0  0  0  0  0  0  0  0  0
  153.1528  144.6818  157.5683 H   0  0  0  0  0  0  0  0  0  0  0  0
  150.3390  144.3828  156.4408 H   0  0  0  0  0  0  0  0  0  0  0  0
  151.8518  144.0956  155.6091 H   0  0  0  0  0  0  0  0  0  0  0  0
  152.3581  142.2166  157.1893 H   0  0  0  0  0  0  0  0  0  0  0  0
  149.0043  142.7795  156.1472 H   0  0  0  0  0  0  0  0  0  0  0  0
  147.5024  143.0662  153.6458 H   0  0  0  0  0  0  0  0  0  0  0  0
  146.3218  140.9815  152.3690 H   0  0  0  0  0  0  0  0  0  0  0  0
  148.1288  137.8380  153.2579 H   0  0  0  0  0  0  0  0  0  0  0  0
  146.6018  138.0095  154.1054 H   0  0  0  0  0  0  0  0  0  0  0  0
  144.6591  137.9484  151.1625 H   0  0  0  0  0  0  0  0  0  0  0  0
  144.7760  137.7257  152.8961 H   0  0  0  0  0  0  0  0  0  0  0  0
  149.5191  142.5482  158.2647 H   0  0  0  0  0  0  0  0  0  0  0  0
  150.7694  141.4779  158.8489 H   0  0  0  0  0  0  0  0  0  0  0  0
  1  2  1  0  0  0  0
  1 21  1  0  0  0  0
  1 22  1  0  0  0  0
  1 23  1  0  0  0  0
  2 19  1  0  0  0  0
  2  3  1  0  0  0  0
  3  4  1  0  0  0  0
  3 24  1  0  0  0  0
  3 25  1  0  0  0  0
  4  5  1  0  0  0  0
  4 26  1  0  0  0  0
  4 27  1  0  0  0  0
  5  6  1  0  0  0  0
  5 18  1  0  0  0  0
  5 28  1  0  0  0  0
  6  7  2  0  0  0  0
  6  8  1  0  0  0  0
  8  9  1  0  0  0  0
  8 29  1  0  0  0  0
  9 17  2  0  0  0  0
  9 10  1  0  0  0  0
 10 11  2  0  0  0  0
 10 30  1  0  0  0  0
 11 12  1  0  0  0  0
 11 31  1  0  0  0  0
 12 13  1  0  0  0  0
 12 17  1  0  0  0  0
 13 14  1  0  0  0  0
 13 32  1  0  0  0  0
 13 33  1  0  0  0  0
 14 15  1  0  0  0  0
 14 16  2  0  0  0  0
 15 34  1  0  0  0  0
 15 35  1  0  0  0  0
 18 19  1  0  0  0  0
 18 36  1  0  0  0  0
 18 37  1  0  0  0  0
 19 20  2  0  0  0  0
M  END
> <s_m_source_file>
AV-unprocessed.smi

> <i_m_source_file_index>
1480

> <i_lp_mmshare_version>
43012

> <i_f3d_flags>
0

> <s_epik_input>
W0NIM11OMVtDSDJdW0NIMl1bQ0BIXShbQ0gyXUMxPU8pQyg9TylbTkhdYzJbY0hdW2NIXW4objIpW0NIMl1DKD1PKVtOSDJd

> <s_epik_cmdline>
J2VwaWtfcHl0aG9uJywgJy1waCcsICc3LjAnLCAnLXRuJywgJzgnLCAnLW1hJywgJzIwMCcsICctbWV0YWxfYmluZGluZycsICctaW1hZScsICc8aW5maWxlLm1hZT4nLCAnLW9tYWUnLCAnPG91dGZpbGUubWFlPic=

> <r_lp_tautomer_probability>
1

> <r_epik_Ionization_Penalty>
3.93272e-06

> <r_epik_Ionization_Penalty_Charging>
0

> <r_epik_Ionization_Penalty_Neutral>
3.93272e-06

> <r_epik_State_Penalty>
-0

> <r_epik_Charging_Adjusted_Penalty>
0

> <i_epik_Tot_Q>
0

> <i_epik_Tot_abs_Q>
0

> <r_epik_Metal_State_Penalty>
-0

> <b_epik_Metal_Only>
0

> <s_lp_Force_Field>
OPLS_2005

> <r_lp_Energy>
16.8293

> <b_lp_Chiralities_Consistent>
1

> <s_lp_Variant>
AV-unprocessed.smi:1480-2

> <Gold.Version>
5.8.1

> <Gold.Id.Protein>
6NUR|6NUR_protein|mol2

> <Gold.PLP.Fitness>
52.6904

> <Gold.PLP.PLP>
-41.4334

> <Gold.PLP.part.hbond>
-6.0000

> <Gold.PLP.part.metal>
0.0000

> <Gold.PLP.part.buried>
-5.1832

> <Gold.PLP.part.nonpolar>
-32.1445

> <Gold.PLP.part.repulsive>
1.2138

> <Gold.PLP.ligand.clash>
0.0000

> <Gold.PLP.ligand.torsion>
0.5655

> <Gold.PLP.Chemscore.Hbond>
3.2860

> <Gold.PLP.Chemscore.CHOScore>
0.8410

> <Gold.PLP.Chemscore.Metal>
0.0000

> <Gold.Chemscore.Hbonds>
donor molecule, donor type, donor heavy atom, donor atom, acceptor molecule, acceptor atom, score
      L1  H     8    29       P1  8028  0.66
      L1  H    15    34       P1 10171  1.00
      P1  H  7954  7966       L1    16  0.91
      P1  H  7989  7998       L1     7  0.74
      L1  C    11    31       P1 10175  0.48

> <Gold.PLP.Chemscore.Internal.Correction>
0.0072

> <Gold.Rescore>
     Score         DG    S(hbond)    S(metal)    S(lipo)     H(rot)  DE(clash)    DE(int)     intcor
     14.75     -19.81       3.22        0.00      74.91       2.03       3.55       1.52       ----

> <Gold.Chemscore.Fitness>
14.7451

> <Gold.Chemscore.DG>
-19.8087

> <Gold.Chemscore.ZeroCoef>
-5.4800

> <Gold.Chemscore.Hbond>
3.2196

> <Gold.Chemscore.Metal>
0.0000

> <Gold.Chemscore.Lipo>
74.9059

> <Gold.Chemscore.Internal_Hbond>
0.0000

> <Gold.Chemscore.DEClash>
3.5461

> <Gold.Chemscore.DEInternal>
1.5176

> <Gold.Chemscore.Rot>
2.0269

> <Gold.Chemscore.Internal.Correction>
   9.000000E+99

> <Gold.Chemscore.Hbonds>
donor molecule, donor type, donor heavy atom, donor atom, acceptor molecule, acceptor atom, score
      L1  H     8    29       P1  8028  0.63
      L1  H    15    34       P1 10171  0.98
      P1  H  7954  7966       L1    16  0.88
      P1  H  7989  7998       L1     7  0.60

> <Gold.Chemscore.Hbond.Weighted>
-10.7535

> <Gold.Chemscore.Metal.Weighted>
-0.0000

> <Gold.Chemscore.Lipo.Weighted>
-8.7640

> <Gold.Chemscore.Internal_Hbond.Weighted>
0.0000

> <Gold.Chemscore.DEClash.Weighted>
3.5461

> <Gold.Chemscore.DEInternal.Weighted>
1.5176

> <Gold.Chemscore.Rot.Weighted>
5.1888

> <Gold.Chemscore.Internal.Correction.Weighted>
   9.000000E+99

> <Gold.Protein.RotatedTorsions>
[ 6907 6896 6895 6894 ] final  -32.88 input  -60.11 | X-H torsion
[ 7974 7965 7964 7962 ] final  -43.21 input  175.53 | X-H torsion
[ 8008 7997 7996 7995 ] final  -80.83 input   59.86 | X-H torsion
[ 10167 10162 10161 10158 ] final  123.50 input  -65.29 | X-H torsion
[ 10718 10713 10712 10709 ] final   30.12 input   66.30 | X-H torsion
[ 10763 10752 10751 10750 ] final  -33.17 input  -60.55 | X-H torsion
[ 11005 11000 10999 10996 ] final -147.30 input  -57.11 | X-H torsion

> <Gold.Protein.ActiveResidues>
 VAL166  LYS551  ARG553  GLY616  TRP617  ASP618  TYR619  PRO620  LYS621  CYS622 
 ASP623  PHE694  ASN695  SER759  ASP760  ASP761  ALA762  ILE779  LEU786  VAL792 
 PHE793  MET794  SER795  GLU796  ALA797  LYS798  CYS799  TRP800  GLU811  SER814 

> <Gold.Protein.RotatedAtoms>
  151.0729  134.9810  159.8317 H   0  0  0  0  0  0  0  0  0  0  0  0  # atno 6907 bound_to 6896
  152.5410  134.2277  159.8822 H   0  0  0  0  0  0  0  0  0  0  0  0  # atno 6908 bound_to 6896
  151.2302  133.4411  159.2637 H   0  0  0  0  0  0  0  0  0  0  0  0  # atno 6909 bound_to 6896
  146.0041  140.7040  142.9256 H   0  0  0  0  0  0  0  0  0  0  0  0  # atno 7974 bound_to 7965
  154.5922  140.0657  156.9254 H   0  0  0  0  0  0  0  0  0  0  0  0  # atno 8008 bound_to 7997
  155.2275  140.3335  155.4289 H   0  0  0  0  0  0  0  0  0  0  0  0  # atno 8009 bound_to 7997
  156.2263  140.1821  156.7338 H   0  0  0  0  0  0  0  0  0  0  0  0  # atno 8010 bound_to 7997
  139.5796  144.6980  151.3564 H   0  0  0  0  0  0  0  0  0  0  0  0  # atno 10167 bound_to 10162
  157.2554  130.7135  149.6426 H   0  0  0  0  0  0  0  0  0  0  0  0  # atno 10718 bound_to 10713
  153.8258  135.6870  153.4821 H   0  0  0  0  0  0  0  0  0  0  0  0  # atno 10763 bound_to 10752
  153.1541  135.4606  154.9677 H   0  0  0  0  0  0  0  0  0  0  0  0  # atno 10764 bound_to 10752
  154.7908  135.3301  154.7726 H   0  0  0  0  0  0  0  0  0  0  0  0  # atno 10765 bound_to 10752
  140.7731  134.3166  157.5069 H   0  0  0  0  0  0  0  0  0  0  0  0  # atno 11005 bound_to 11000
  144.6929  140.3284  143.7220 LP  0  0  0  0  0  0  0  0  0  0  0  0  # atno 17320 bound_to 7965
  145.7443  139.1774  143.2358 LP  0  0  0  0  0  0  0  0  0  0  0  0  # atno 17321 bound_to 7965
  140.7075  143.7476  150.7508 LP  0  0  0  0  0  0  0  0  0  0  0  0  # atno 17342 bound_to 10162
  140.1004  143.4793  152.2428 LP  0  0  0  0  0  0  0  0  0  0  0  0  # atno 17343 bound_to 10162
  155.9665  130.4414  150.5340 LP  0  0  0  0  0  0  0  0  0  0  0  0  # atno 17370 bound_to 10713
  157.3233  131.0686  151.1916 LP  0  0  0  0  0  0  0  0  0  0  0  0  # atno 17371 bound_to 10713
  139.8753  134.9273  156.3421 LP  0  0  0  0  0  0  0  0  0  0  0  0  # atno 17394 bound_to 11000
  140.9555  133.7423  156.0330 LP  0  0  0  0  0  0  0  0  0  0  0  0  # atno 17395 bound_to 11000

$$$$
