AV-unprocessed.smi:2539|AV-procd|sdf|9986|dock2
  -GOLD-   2272014 33D 1   1.00000     0.00000
 Structure written by MMmdl.
 41 42  0  0  0  0  0  0  0  0  2 V2000
  150.3252  142.0739  154.1514 O   0  0  0  0  0  0  0  0  0  0  0  0
  149.6743  141.2081  154.7383 C   0  0  0  0  0  0  0  0  0  0  0  0
  150.1954  140.4754  155.7385 N   0  0  0  0  0  0  0  0  0  0  0  0
  151.5272  140.6404  156.3159 C   0  0  0  0  0  0  0  0  0  0  0  0
  151.4724  140.9834  157.8179 C   0  0  0  0  0  0  0  0  0  0  0  0
  151.5327  142.4740  158.1053 C   0  0  0  0  0  0  0  0  0  0  0  0
  152.6114  143.0268  158.8313 C   0  0  0  0  0  0  0  0  0  0  0  0
  152.6197  144.4087  159.1126 C   0  0  0  0  0  0  0  0  0  0  0  0
  151.5500  145.2077  158.6608 C   0  0  0  0  0  0  0  0  0  0  0  0
  150.5378  144.6449  157.9652 N   0  3  0  0  0  0  0  0  0  0  0  0
  150.4932  143.3266  157.6742 C   0  0  0  0  0  0  0  0  0  0  0  0
  148.3813  140.9236  154.4417 N   0  0  0  0  0  0  0  0  0  0  0  0
  147.3677  140.4149  155.3786 C   0  0  0  0  0  0  0  0  0  0  0  0
  146.4705  141.5896  155.8138 C   0  0  0  0  0  0  0  0  0  0  0  0
  145.8270  142.3189  154.6046 C   0  0  0  0  0  0  0  0  0  0  0  0
  144.8517  141.4528  154.0518 O   0  0  0  0  0  0  0  0  0  0  0  0
  145.0955  143.6101  155.0424 C   0  0  0  0  0  0  0  0  0  0  0  0
  144.6588  144.2737  153.9713 F   0  0  0  0  0  0  0  0  0  0  0  0
  144.0434  143.3205  155.8089 F   0  0  0  0  0  0  0  0  0  0  0  0
  145.9211  144.4107  155.7179 F   0  0  0  0  0  0  0  0  0  0  0  0
  146.8790  142.6045  153.5001 C   0  0  0  0  0  0  0  0  0  0  0  0
  147.7566  141.3747  153.1940 C   0  0  0  0  0  0  0  0  0  0  0  0
  149.6049  139.7718  156.1579 H   0  0  0  0  0  0  0  0  0  0  0  0
  152.0750  139.7084  156.1753 H   0  0  0  0  0  0  0  0  0  0  0  0
  152.0883  141.4041  155.7749 H   0  0  0  0  0  0  0  0  0  0  0  0
  150.5604  140.5724  158.2530 H   0  0  0  0  0  0  0  0  0  0  0  0
  152.2993  140.4950  158.3346 H   0  0  0  0  0  0  0  0  0  0  0  0
  153.4188  142.3997  159.1800 H   0  0  0  0  0  0  0  0  0  0  0  0
  153.4335  144.8491  159.6697 H   0  0  0  0  0  0  0  0  0  0  0  0
  151.4737  146.2714  158.8334 H   0  0  0  0  0  0  0  0  0  0  0  0
  149.6264  142.9936  157.1221 H   0  0  0  0  0  0  0  0  0  0  0  0
  146.7701  139.6491  154.8822 H   0  0  0  0  0  0  0  0  0  0  0  0
  147.7863  139.9209  156.2555 H   0  0  0  0  0  0  0  0  0  0  0  0
  145.7001  141.2336  156.4984 H   0  0  0  0  0  0  0  0  0  0  0  0
  147.0771  142.2944  156.3833 H   0  0  0  0  0  0  0  0  0  0  0  0
  145.0058  141.3810  153.1221 H   0  0  0  0  0  0  0  0  0  0  0  0
  146.3889  142.9460  152.5875 H   0  0  0  0  0  0  0  0  0  0  0  0
  147.5277  143.4216  153.8179 H   0  0  0  0  0  0  0  0  0  0  0  0
  148.4880  141.6186  152.4224 H   0  0  0  0  0  0  0  0  0  0  0  0
  147.1503  140.5700  152.7759 H   0  0  0  0  0  0  0  0  0  0  0  0
  149.7718  145.2404  157.6491 H   0  0  0  0  0  0  0  0  0  0  0  0
  1  2  2  0  0  0  0
  2  3  1  0  0  0  0
  2 12  1  0  0  0  0
  3  4  1  0  0  0  0
  3 23  1  0  0  0  0
  4  5  1  0  0  0  0
  4 24  1  0  0  0  0
  4 25  1  0  0  0  0
  5  6  1  0  0  0  0
  5 26  1  0  0  0  0
  5 27  1  0  0  0  0
  6 11  1  0  0  0  0
  6  7  2  0  0  0  0
  7  8  1  0  0  0  0
  7 28  1  0  0  0  0
  8  9  2  0  0  0  0
  8 29  1  0  0  0  0
  9 10  1  0  0  0  0
  9 30  1  0  0  0  0
 10 11  2  0  0  0  0
 10 41  1  0  0  0  0
 11 31  1  0  0  0  0
 12 22  1  0  0  0  0
 12 13  1  0  0  0  0
 13 14  1  0  0  0  0
 13 32  1  0  0  0  0
 13 33  1  0  0  0  0
 14 15  1  0  0  0  0
 14 34  1  0  0  0  0
 14 35  1  0  0  0  0
 15 16  1  0  0  0  0
 15 17  1  0  0  0  0
 15 21  1  0  0  0  0
 16 36  1  0  0  0  0
 17 18  1  0  0  0  0
 17 19  1  0  0  0  0
 17 20  1  0  0  0  0
 21 22  1  0  0  0  0
 21 37  1  0  0  0  0
 21 38  1  0  0  0  0
 22 39  1  0  0  0  0
 22 40  1  0  0  0  0
M  CHG  1  10   1
M  END
> <s_m_source_file>
AV-unprocessed.smi

> <i_m_source_file_index>
2539

> <i_lp_mmshare_version>
43012

> <i_f3d_flags>
0

> <s_epik_input>
RkMoRikoRilDMShbT0hdKVtDSDJdW0NIMl1OKFtDSDJdW0NIMl0xKUMoPU8pW05IXVtDSDJdW0NIMl1jMltjSF1bY0hdW2NIXW5bY0hdMg==

> <s_epik_cmdline>
J2VwaWtfcHl0aG9uJywgJy1waCcsICc3LjAnLCAnLXRuJywgJzgnLCAnLW1hJywgJzIwMCcsICctbWV0YWxfYmluZGluZycsICctaW1hZScsICc8aW5maWxlLm1hZT4nLCAnLW9tYWUnLCAnPG91dGZpbGUubWFlPic=

> <r_epik_Ionization_Penalty>
2.21039

> <r_epik_Ionization_Penalty_Charging>
2.21033

> <r_epik_Ionization_Penalty_Neutral>
5.75735e-05

> <r_epik_State_Penalty>
2.3545

> <r_epik_Charging_Adjusted_Penalty>
4.56483

> <i_epik_Tot_Q>
1

> <i_epik_Tot_abs_Q>
1

> <r_epik_Metal_State_Penalty>
2.36861

> <b_epik_Metal_Only>
0

> <s_lp_Force_Field>
OPLS_2005

> <r_lp_Energy>
41.3462

> <b_lp_Chiralities_Consistent>
1

> <s_lp_Variant>
AV-unprocessed.smi:2539-2

> <Gold.Version>
5.8.1

> <Gold.Id.Protein>
6NUR|6NUR_protein|mol2

> <Gold.PLP.Fitness>
44.8403

> <Gold.PLP.PLP>
-36.0735

> <Gold.PLP.part.hbond>
-5.0000

> <Gold.PLP.part.metal>
0.0000

> <Gold.PLP.part.buried>
-0.8356

> <Gold.PLP.part.nonpolar>
-30.7451

> <Gold.PLP.part.repulsive>
0.4913

> <Gold.PLP.ligand.clash>
0.0000

> <Gold.PLP.ligand.torsion>
0.6355

> <Gold.PLP.Chemscore.Hbond>
3.3020

> <Gold.PLP.Chemscore.CHOScore>
0.0000

> <Gold.PLP.Chemscore.Metal>
0.0000

> <Gold.Chemscore.Hbonds>
donor molecule, donor type, donor heavy atom, donor atom, acceptor molecule, acceptor atom, score
      L1  H    10    41       P1  8029  0.80
      L1  H    16    36       P1 10175  0.07
      P1  H  8011  8017       L1     1  0.21

> <Gold.PLP.Chemscore.Internal.Correction>
0.1318

> <Gold.Rescore>
     Score         DG    S(hbond)    S(metal)    S(lipo)     H(rot)  DE(clash)    DE(int)     intcor
     14.78     -15.69       1.88        0.00      78.62       2.06       0.29       0.62       ----

> <Gold.Chemscore.Fitness>
14.7835

> <Gold.Chemscore.DG>
-15.6886

> <Gold.Chemscore.ZeroCoef>
-5.4800

> <Gold.Chemscore.Hbond>
1.8791

> <Gold.Chemscore.Metal>
0.0000

> <Gold.Chemscore.Lipo>
78.6231

> <Gold.Chemscore.Internal_Hbond>
0.0000

> <Gold.Chemscore.DEClash>
0.2851

> <Gold.Chemscore.DEInternal>
0.6200

> <Gold.Chemscore.Rot>
2.0572

> <Gold.Chemscore.Internal.Correction>
   9.000000E+99

> <Gold.Chemscore.Hbonds>
donor molecule, donor type, donor heavy atom, donor atom, acceptor molecule, acceptor atom, score
      L1  H    10    41       P1  8029  0.01
      P1  H  8011  8017       L1     1  0.19

> <Gold.Chemscore.Hbond.Weighted>
-6.2761

> <Gold.Chemscore.Metal.Weighted>
-0.0000

> <Gold.Chemscore.Lipo.Weighted>
-9.1989

> <Gold.Chemscore.Internal_Hbond.Weighted>
0.0000

> <Gold.Chemscore.DEClash.Weighted>
0.2851

> <Gold.Chemscore.DEInternal.Weighted>
0.6200

> <Gold.Chemscore.Rot.Weighted>
5.2663

> <Gold.Chemscore.Internal.Correction.Weighted>
   9.000000E+99

> <Gold.Protein.RotatedTorsions>
[ 6907 6896 6895 6894 ] final -131.71 input  -60.11 | X-H torsion
[ 7974 7965 7964 7962 ] final   82.87 input  175.53 | X-H torsion
[ 8008 7997 7996 7995 ] final  134.49 input   59.86 | X-H torsion
[ 10167 10162 10161 10158 ] final    1.72 input  -65.29 | X-H torsion
[ 10718 10713 10712 10709 ] final   21.00 input   66.30 | X-H torsion
[ 10763 10752 10751 10750 ] final -124.23 input  -60.55 | X-H torsion
[ 11005 11000 10999 10996 ] final  -71.25 input  -57.11 | X-H torsion

> <Gold.Protein.ActiveResidues>
 VAL166  LYS551  ARG553  GLY616  TRP617  ASP618  TYR619  PRO620  LYS621  CYS622 
 ASP623  PHE694  ASN695  SER759  ASP760  ASP761  ALA762  ILE779  LEU786  VAL792 
 PHE793  MET794  SER795  GLU796  ALA797  LYS798  CYS799  TRP800  GLU811  SER814 

> <Gold.Protein.RotatedAtoms>
  150.9541  133.6517  159.2766 H   0  0  0  0  0  0  0  0  0  0  0  0  # atno 6907 bound_to 6896
  151.3862  135.0947  159.9521 H   0  0  0  0  0  0  0  0  0  0  0  0  # atno 6908 bound_to 6896
  152.5122  133.9065  159.7521 H   0  0  0  0  0  0  0  0  0  0  0  0  # atno 6909 bound_to 6896
  145.6194  139.2383  143.2147 H   0  0  0  0  0  0  0  0  0  0  0  0  # atno 7974 bound_to 7965
  156.2999  140.2495  156.3425 H   0  0  0  0  0  0  0  0  0  0  0  0  # atno 8008 bound_to 7997
  154.9041  140.0405  157.1929 H   0  0  0  0  0  0  0  0  0  0  0  0  # atno 8009 bound_to 7997
  154.8471  140.2900  155.5626 H   0  0  0  0  0  0  0  0  0  0  0  0  # atno 8010 bound_to 7997
  140.6669  143.7154  150.7846 H   0  0  0  0  0  0  0  0  0  0  0  0  # atno 10167 bound_to 10162
  157.1324  130.6597  149.5956 H   0  0  0  0  0  0  0  0  0  0  0  0  # atno 10718 bound_to 10713
  154.8720  135.4071  154.3072 H   0  0  0  0  0  0  0  0  0  0  0  0  # atno 10763 bound_to 10752
  153.3921  135.7015  153.6492 H   0  0  0  0  0  0  0  0  0  0  0  0  # atno 10764 bound_to 10752
  153.5270  135.3675  155.2630 H   0  0  0  0  0  0  0  0  0  0  0  0  # atno 10765 bound_to 10752
  141.1589  133.6812  156.6876 H   0  0  0  0  0  0  0  0  0  0  0  0  # atno 11005 bound_to 11000
  146.1443  140.7014  142.9352 LP  0  0  0  0  0  0  0  0  0  0  0  0  # atno 17320 bound_to 7965
  144.7237  140.4457  143.6989 LP  0  0  0  0  0  0  0  0  0  0  0  0  # atno 17321 bound_to 7965
  140.0833  143.4948  152.2518 LP  0  0  0  0  0  0  0  0  0  0  0  0  # atno 17342 bound_to 10162
  139.5922  144.7554  151.3373 LP  0  0  0  0  0  0  0  0  0  0  0  0  # atno 17343 bound_to 10162
  155.9805  130.4806  150.6776 LP  0  0  0  0  0  0  0  0  0  0  0  0  # atno 17370 bound_to 10713
  157.4380  131.0858  151.0972 LP  0  0  0  0  0  0  0  0  0  0  0  0  # atno 17371 bound_to 10713
  140.3055  134.8129  157.4133 LP  0  0  0  0  0  0  0  0  0  0  0  0  # atno 17394 bound_to 11000
  140.1225  134.5201  155.8172 LP  0  0  0  0  0  0  0  0  0  0  0  0  # atno 17395 bound_to 11000

$$$$
