AV-unprocessed.smi:1276|AV-procd|sdf|5344|dock1
  -GOLD-   22720 4473D 1   1.00000     0.00000
 Structure written by MMmdl.
 44 45  0  0  0  0  0  0  0  0  1 V2000
  146.5036  137.2715  155.9771 C   0  0  0  0  0  0  0  0  0  0  0  0
  147.9672  136.9300  155.8991 C   0  0  0  0  0  0  0  0  0  0  0  0
  148.7352  137.7960  155.3240 N   0  0  0  0  0  0  0  0  0  0  0  0
  150.0934  137.5789  155.1940 N   0  0  0  0  0  0  0  0  0  0  0  0
  150.8090  138.6554  154.4931 C   0  0  0  0  0  0  0  0  0  0  0  0
  151.6905  139.5031  155.4220 C   0  0  0  0  0  0  0  0  0  0  0  0
  152.9188  139.4288  155.3662 O   0  0  0  0  0  0  0  0  0  0  0  0
  151.0403  140.3264  156.2593 N   0  0  0  0  0  0  0  0  0  0  0  0
  151.6677  141.2221  157.2291 C   0  0  0  0  0  0  0  0  0  0  0  0
  152.1318  140.3737  158.4324 C   0  0  0  0  0  0  0  0  0  0  0  0
  152.5061  141.1264  159.7225 C   0  0  0  0  0  0  0  0  0  0  0  0
  153.1717  142.4982  159.5317 C   0  0  0  0  0  0  0  0  0  0  0  0
  152.1483  143.6327  159.3574 C   0  0  0  0  0  0  0  0  0  0  0  0
  151.4548  143.6690  157.9878 C   0  0  0  0  0  0  0  0  0  0  0  0
  150.7123  142.3802  157.5923 C   0  0  0  0  0  0  0  0  0  0  0  0
  150.7504  136.4740  155.6509 C   0  0  0  0  0  0  0  0  0  0  0  0
  151.9664  136.3248  155.5189 O   0  0  0  0  0  0  0  0  0  0  0  0
  149.8743  135.4980  156.3026 C   0  0  0  0  0  0  0  0  0  0  0  0
  150.5217  134.3236  156.7917 C   0  0  0  0  0  0  0  0  0  0  0  0
  151.0522  133.3814  157.2050 N   0  0  0  0  0  0  0  0  0  0  0  0
  148.5386  135.6970  156.4311 C   0  0  0  0  0  0  0  0  0  0  0  0
  147.5856  134.7142  157.0976 C   0  0  0  0  0  0  0  0  0  0  0  0
  146.1792  137.3467  157.0150 H   0  0  0  0  0  0  0  0  0  0  0  0
  145.9008  136.5063  155.4878 H   0  0  0  0  0  0  0  0  0  0  0  0
  146.2814  138.2236  155.4929 H   0  0  0  0  0  0  0  0  0  0  0  0
  151.4475  138.2377  153.7126 H   0  0  0  0  0  0  0  0  0  0  0  0
  150.0970  139.2996  153.9736 H   0  0  0  0  0  0  0  0  0  0  0  0
  150.0311  140.3255  156.2313 H   0  0  0  0  0  0  0  0  0  0  0  0
  152.5594  141.6446  156.7618 H   0  0  0  0  0  0  0  0  0  0  0  0
  151.3618  139.6445  158.6895 H   0  0  0  0  0  0  0  0  0  0  0  0
  152.9920  139.7840  158.1120 H   0  0  0  0  0  0  0  0  0  0  0  0
  151.6171  141.2427  160.3438 H   0  0  0  0  0  0  0  0  0  0  0  0
  153.1740  140.4869  160.3008 H   0  0  0  0  0  0  0  0  0  0  0  0
  153.7529  142.7150  160.4287 H   0  0  0  0  0  0  0  0  0  0  0  0
  153.8887  142.4797  158.7102 H   0  0  0  0  0  0  0  0  0  0  0  0
  151.3984  143.5792  160.1474 H   0  0  0  0  0  0  0  0  0  0  0  0
  152.6587  144.5852  159.5030 H   0  0  0  0  0  0  0  0  0  0  0  0
  150.7392  144.4919  157.9938 H   0  0  0  0  0  0  0  0  0  0  0  0
  152.1828  143.9219  157.2161 H   0  0  0  0  0  0  0  0  0  0  0  0
  150.0980  142.6253  156.7245 H   0  0  0  0  0  0  0  0  0  0  0  0
  150.0120  142.0775  158.3717 H   0  0  0  0  0  0  0  0  0  0  0  0
  148.1034  133.8414  157.4938 H   0  0  0  0  0  0  0  0  0  0  0  0
  146.8430  134.3582  156.3829 H   0  0  0  0  0  0  0  0  0  0  0  0
  147.0638  135.1886  157.9290 H   0  0  0  0  0  0  0  0  0  0  0  0
  1  2  1  0  0  0  0
  1 23  1  0  0  0  0
  1 24  1  0  0  0  0
  1 25  1  0  0  0  0
  2 21  1  0  0  0  0
  2  3  2  0  0  0  0
  3  4  1  0  0  0  0
  4  5  1  0  0  0  0
  4 16  1  0  0  0  0
  5  6  1  0  0  0  0
  5 26  1  0  0  0  0
  5 27  1  0  0  0  0
  6  7  2  0  0  0  0
  6  8  1  0  0  0  0
  8  9  1  0  0  0  0
  8 28  1  0  0  0  0
  9 15  1  0  0  0  0
  9 10  1  0  0  0  0
  9 29  1  0  0  0  0
 10 11  1  0  0  0  0
 10 30  1  0  0  0  0
 10 31  1  0  0  0  0
 11 12  1  0  0  0  0
 11 32  1  0  0  0  0
 11 33  1  0  0  0  0
 12 13  1  0  0  0  0
 12 34  1  0  0  0  0
 12 35  1  0  0  0  0
 13 14  1  0  0  0  0
 13 36  1  0  0  0  0
 13 37  1  0  0  0  0
 14 15  1  0  0  0  0
 14 38  1  0  0  0  0
 14 39  1  0  0  0  0
 15 40  1  0  0  0  0
 15 41  1  0  0  0  0
 16 17  2  0  0  0  0
 16 18  1  0  0  0  0
 18 19  1  0  0  0  0
 18 21  2  0  0  0  0
 19 20  3  0  0  0  0
 21 22  1  0  0  0  0
 22 42  1  0  0  0  0
 22 43  1  0  0  0  0
 22 44  1  0  0  0  0
M  END
> <s_m_source_file>
AV-unprocessed.smi

> <i_m_source_file_index>
1276

> <i_lp_mmshare_version>
43012

> <i_f3d_flags>
0

> <s_epik_input>
TiNDYyhjMVtDSDNdKWMoPU8pbihuYzFbQ0gzXSlbQ0gyXUMoPU8pW05IXVtDSF0yW0NIMl1bQ0gyXVtDSDJdW0NIMl1bQ0gyXVtDSDJdMg==

> <s_epik_cmdline>
J2VwaWtfcHl0aG9uJywgJy1waCcsICc3LjAnLCAnLXRuJywgJzgnLCAnLW1hJywgJzIwMCcsICctbWV0YWxfYmluZGluZycsICctaW1hZScsICc8aW5maWxlLm1hZT4nLCAnLW9tYWUnLCAnPG91dGZpbGUubWFlPic=

> <r_lp_tautomer_probability>
1

> <r_epik_Ionization_Penalty>
2.02378e-08

> <r_epik_Ionization_Penalty_Charging>
2.27609e-11

> <r_epik_Ionization_Penalty_Neutral>
2.0215e-08

> <r_epik_State_Penalty>
-0

> <r_epik_Charging_Adjusted_Penalty>
2.27609e-11

> <i_epik_Tot_Q>
0

> <i_epik_Tot_abs_Q>
0

> <r_epik_Metal_State_Penalty>
-0

> <b_epik_Metal_Only>
0

> <s_lp_Force_Field>
OPLS_2005

> <r_lp_Energy>
30.1422

> <b_lp_Chiralities_Consistent>
1

> <s_lp_Variant>
AV-unprocessed.smi:1276-1

> <Gold.Version>
5.8.1

> <Gold.Id.Protein>
6NUR|6NUR_protein|mol2

> <Gold.PLP.Fitness>
42.6382

> <Gold.PLP.PLP>
-35.0389

> <Gold.PLP.part.hbond>
-3.0000

> <Gold.PLP.part.metal>
0.0000

> <Gold.PLP.part.buried>
-6.2075

> <Gold.PLP.part.nonpolar>
-26.9852

> <Gold.PLP.part.repulsive>
0.2934

> <Gold.PLP.ligand.clash>
0.0000

> <Gold.PLP.ligand.torsion>
0.5215

> <Gold.PLP.Chemscore.Hbond>
2.8720

> <Gold.PLP.Chemscore.CHOScore>
0.0000

> <Gold.PLP.Chemscore.Metal>
0.0000

> <Gold.Chemscore.Hbonds>
donor molecule, donor type, donor heavy atom, donor atom, acceptor molecule, acceptor atom, score
      P1  H  6896  6909       L1    20  0.74
      P1  H  7997  8008       L1     7  1.00
      P1  H 10752 10763       L1    17  0.98

> <Gold.PLP.Chemscore.Internal.Correction>
0.0264

> <Gold.Rescore>
     Score         DG    S(hbond)    S(metal)    S(lipo)     H(rot)  DE(clash)    DE(int)     intcor
     20.16     -20.51       2.93        0.00      76.73       1.46       0.00       0.36       ----

> <Gold.Chemscore.Fitness>
20.1556

> <Gold.Chemscore.DG>
-20.5112

> <Gold.Chemscore.ZeroCoef>
-5.4800

> <Gold.Chemscore.Hbond>
2.9328

> <Gold.Chemscore.Metal>
0.0000

> <Gold.Chemscore.Lipo>
76.7279

> <Gold.Chemscore.Internal_Hbond>
0.0000

> <Gold.Chemscore.DEClash>
0.0000

> <Gold.Chemscore.DEInternal>
0.3556

> <Gold.Chemscore.Rot>
1.4615

> <Gold.Chemscore.Internal.Correction>
   9.000000E+99

> <Gold.Chemscore.Hbonds>
donor molecule, donor type, donor heavy atom, donor atom, acceptor molecule, acceptor atom, score
      P1  H  6896  6909       L1    20  0.39
      P1  H  7997  8008       L1     7  0.98
      P1  H 10752 10763       L1    17  0.89

> <Gold.Chemscore.Hbond.Weighted>
-9.7954

> <Gold.Chemscore.Metal.Weighted>
-0.0000

> <Gold.Chemscore.Lipo.Weighted>
-8.9772

> <Gold.Chemscore.Internal_Hbond.Weighted>
0.0000

> <Gold.Chemscore.DEClash.Weighted>
0.0000

> <Gold.Chemscore.DEInternal.Weighted>
0.3556

> <Gold.Chemscore.Rot.Weighted>
3.7414

> <Gold.Chemscore.Internal.Correction.Weighted>
   9.000000E+99

> <Gold.Protein.RotatedTorsions>
[ 6907 6896 6895 6894 ] final  -17.51 input  -60.11 | X-H torsion
[ 7974 7965 7964 7962 ] final  -68.73 input  175.53 | X-H torsion
[ 8008 7997 7996 7995 ] final  -41.40 input   59.86 | X-H torsion
[ 10167 10162 10161 10158 ] final -147.82 input  -65.29 | X-H torsion
[ 10718 10713 10712 10709 ] final  -72.55 input   66.30 | X-H torsion
[ 10763 10752 10751 10750 ] final   55.79 input  -60.55 | X-H torsion
[ 11005 11000 10999 10996 ] final -163.98 input  -57.11 | X-H torsion

> <Gold.Protein.ActiveResidues>
 VAL166  LYS551  ARG553  GLY616  TRP617  ASP618  TYR619  PRO620  LYS621  CYS622 
 ASP623  PHE694  ASN695  SER759  ASP760  ASP761  ALA762  ILE779  LEU786  VAL792 
 PHE793  MET794  SER795  GLU796  ALA797  LYS798  CYS799  TRP800  GLU811  SER814 

> <Gold.Protein.RotatedAtoms>
  151.2922  135.0745  159.9207 H   0  0  0  0  0  0  0  0  0  0  0  0  # atno 6907 bound_to 6896
  152.5314  133.9920  159.7865 H   0  0  0  0  0  0  0  0  0  0  0  0  # atno 6908 bound_to 6896
  151.0192  133.5841  159.2704 H   0  0  0  0  0  0  0  0  0  0  0  0  # atno 6909 bound_to 6896
  145.7127  140.9071  143.0672 H   0  0  0  0  0  0  0  0  0  0  0  0  # atno 7974 bound_to 7965
  154.4004  140.1500  156.3184 H   0  0  0  0  0  0  0  0  0  0  0  0  # atno 8008 bound_to 7997
  155.8552  140.3456  155.5698 H   0  0  0  0  0  0  0  0  0  0  0  0  # atno 8009 bound_to 7997
  155.7941  140.0861  157.1983 H   0  0  0  0  0  0  0  0  0  0  0  0  # atno 8010 bound_to 7997
  139.7587  143.8409  152.2602 H   0  0  0  0  0  0  0  0  0  0  0  0  # atno 10167 bound_to 10162
  156.0316  130.4375  150.2610 H   0  0  0  0  0  0  0  0  0  0  0  0  # atno 10718 bound_to 10713
  152.9822  135.5699  154.5123 H   0  0  0  0  0  0  0  0  0  0  0  0  # atno 10763 bound_to 10752
  154.4625  135.2782  155.1704 H   0  0  0  0  0  0  0  0  0  0  0  0  # atno 10764 bound_to 10752
  154.3286  135.6254  153.5594 H   0  0  0  0  0  0  0  0  0  0  0  0  # atno 10765 bound_to 10752
  140.5921  134.5034  157.5194 H   0  0  0  0  0  0  0  0  0  0  0  0  # atno 11005 bound_to 11000
  144.6937  139.9097  143.7463 LP  0  0  0  0  0  0  0  0  0  0  0  0  # atno 17320 bound_to 7965
  146.0697  139.3687  143.0530 LP  0  0  0  0  0  0  0  0  0  0  0  0  # atno 17321 bound_to 7965
  139.8409  144.7210  150.9332 LP  0  0  0  0  0  0  0  0  0  0  0  0  # atno 17342 bound_to 10162
  140.7805  143.3984  151.1190 LP  0  0  0  0  0  0  0  0  0  0  0  0  # atno 17343 bound_to 10162
  157.0711  131.0117  151.3189 LP  0  0  0  0  0  0  0  0  0  0  0  0  # atno 17370 bound_to 10713
  157.4998  130.7873  149.7593 LP  0  0  0  0  0  0  0  0  0  0  0  0  # atno 17371 bound_to 10713
  139.9269  134.8038  156.1041 LP  0  0  0  0  0  0  0  0  0  0  0  0  # atno 17394 bound_to 11000
  141.0928  133.6707  156.2578 LP  0  0  0  0  0  0  0  0  0  0  0  0  # atno 17395 bound_to 11000

$$$$
