AV-unprocessed.smi:2963|AV-procd|sdf|11319|dock8
  -GOLD-   2272016223D 1   1.00000     0.00000
 Structure written by MMmdl.
 41 43  0  0  0  0  0  0  0  0  1 V2000
  148.8658  141.1426  154.5753 C   0  0  0  0  0  0  0  0  0  0  0  0
  150.2108  140.8199  154.8913 O   0  0  0  0  0  0  0  0  0  0  0  0
  150.5336  141.0073  156.2625 C   0  0  0  0  0  0  0  0  0  0  0  0
  152.0253  140.7543  156.5457 C   0  0  0  0  0  0  0  0  0  0  0  0
  152.4282  141.2716  157.8460 N   0  0  0  0  0  0  0  0  0  0  0  0
  153.1089  140.6384  158.8331 C   0  0  0  0  0  0  0  0  0  0  0  0
  153.6425  138.9673  158.6843 S   0  0  0  0  0  0  0  0  0  0  0  0
  154.5571  138.8667  160.2526 C   0  0  0  0  0  0  0  0  0  0  0  0
  154.8150  137.4350  160.7487 C   0  0  0  0  0  0  0  0  0  0  0  0
  154.5221  136.4911  160.0102 O   0  0  0  0  0  0  0  0  0  0  0  0
  155.3653  137.2863  161.9833 N   0  0  0  0  0  0  0  0  0  0  0  0
  155.7015  138.4114  162.8577 C   0  0  0  0  0  0  0  0  0  0  0  0
  156.2681  137.7575  164.1131 C   0  0  0  0  0  0  0  0  0  0  0  0
  156.1929  136.3561  163.7824 N   0  0  0  0  0  0  0  0  0  0  0  0
  155.6792  136.1092  162.5751 C   0  0  0  0  0  0  0  0  0  0  0  0
  155.5355  134.9748  162.1175 O   0  0  0  0  0  0  0  0  0  0  0  0
  153.3565  141.3645  159.9236 N   0  0  0  0  0  0  0  0  0  0  0  0
  152.7804  142.5812  159.6173 C   0  0  0  0  0  0  0  0  0  0  0  0
  152.7027  143.7763  160.3677 C   0  0  0  0  0  0  0  0  0  0  0  0
  152.0546  144.9111  159.8375 C   0  0  0  0  0  0  0  0  0  0  0  0
  151.4773  144.8677  158.5519 C   0  0  0  0  0  0  0  0  0  0  0  0
  151.5430  143.6865  157.7878 C   0  0  0  0  0  0  0  0  0  0  0  0
  152.1900  142.5565  158.3226 C   0  0  0  0  0  0  0  0  0  0  0  0
  148.6860  140.9575  153.5163 H   0  0  0  0  0  0  0  0  0  0  0  0
  148.6591  142.1956  154.7698 H   0  0  0  0  0  0  0  0  0  0  0  0
  148.1588  140.5392  155.1446 H   0  0  0  0  0  0  0  0  0  0  0  0
  150.2953  142.0405  156.5164 H   0  0  0  0  0  0  0  0  0  0  0  0
  149.9046  140.3868  156.9027 H   0  0  0  0  0  0  0  0  0  0  0  0
  152.2236  139.6820  156.5314 H   0  0  0  0  0  0  0  0  0  0  0  0
  152.6517  141.1824  155.7642 H   0  0  0  0  0  0  0  0  0  0  0  0
  155.5164  139.3653  160.1105 H   0  0  0  0  0  0  0  0  0  0  0  0
  154.0045  139.4259  161.0081 H   0  0  0  0  0  0  0  0  0  0  0  0
  156.4449  139.0614  162.3935 H   0  0  0  0  0  0  0  0  0  0  0  0
  154.8177  139.0054  163.0955 H   0  0  0  0  0  0  0  0  0  0  0  0
  157.3006  138.0536  164.3021 H   0  0  0  0  0  0  0  0  0  0  0  0
  155.6667  137.9752  164.9966 H   0  0  0  0  0  0  0  0  0  0  0  0
  156.5039  135.6346  164.4167 H   0  0  0  0  0  0  0  0  0  0  0  0
  153.1422  143.8201  161.3530 H   0  0  0  0  0  0  0  0  0  0  0  0
  152.0011  145.8194  160.4196 H   0  0  0  0  0  0  0  0  0  0  0  0
  150.9840  145.7418  158.1526 H   0  0  0  0  0  0  0  0  0  0  0  0
  151.1032  143.6501  156.8023 H   0  0  0  0  0  0  0  0  0  0  0  0
  1  2  1  0  0  0  0
  1 24  1  0  0  0  0
  1 25  1  0  0  0  0
  1 26  1  0  0  0  0
  2  3  1  0  0  0  0
  3  4  1  0  0  0  0
  3 27  1  0  0  0  0
  3 28  1  0  0  0  0
  4  5  1  0  0  0  0
  4 29  1  0  0  0  0
  4 30  1  0  0  0  0
  5 23  1  0  0  0  0
  5  6  1  0  0  0  0
  6  7  1  0  0  0  0
  6 17  2  0  0  0  0
  7  8  1  0  0  0  0
  8  9  1  0  0  0  0
  8 31  1  0  0  0  0
  8 32  1  0  0  0  0
  9 10  2  0  0  0  0
  9 11  1  0  0  0  0
 11 15  1  0  0  0  0
 11 12  1  0  0  0  0
 12 13  1  0  0  0  0
 12 33  1  0  0  0  0
 12 34  1  0  0  0  0
 13 14  1  0  0  0  0
 13 35  1  0  0  0  0
 13 36  1  0  0  0  0
 14 15  1  0  0  0  0
 14 37  1  0  0  0  0
 15 16  2  0  0  0  0
 17 18  1  0  0  0  0
 18 23  2  0  0  0  0
 18 19  1  0  0  0  0
 19 20  2  0  0  0  0
 19 38  1  0  0  0  0
 20 21  1  0  0  0  0
 20 39  1  0  0  0  0
 21 22  2  0  0  0  0
 21 40  1  0  0  0  0
 22 23  1  0  0  0  0
 22 41  1  0  0  0  0
M  END
> <s_m_source_file>
AV-unprocessed.smi

> <i_m_source_file_index>
2963

> <i_lp_mmshare_version>
43012

> <i_f3d_flags>
0

> <s_epik_input>
W2NIXTFbY0hdW2NIXVtjSF1jKGMxMiluKFtDSDJdW0NIMl1PW0NIM10pYyhuMilTW0NIMl1DKD1PKU4zW0NIMl1bQ0gyXVtOSF1DMz1P

> <s_epik_cmdline>
J2VwaWtfcHl0aG9uJywgJy1waCcsICc3LjAnLCAnLXRuJywgJzgnLCAnLW1hJywgJzIwMCcsICctbWV0YWxfYmluZGluZycsICctaW1hZScsICc8aW5maWxlLm1hZT4nLCAnLW9tYWUnLCAnPG91dGZpbGUubWFlPic=

> <r_lp_tautomer_probability>
0.9999

> <r_epik_Ionization_Penalty>
0.0341365

> <r_epik_Ionization_Penalty_Charging>
0

> <r_epik_Ionization_Penalty_Neutral>
0.0341365

> <r_epik_State_Penalty>
0.0283589

> <r_epik_Charging_Adjusted_Penalty>
0.0283589

> <i_epik_Tot_Q>
0

> <i_epik_Tot_abs_Q>
0

> <r_epik_Metal_State_Penalty>
0.0267964

> <b_epik_Metal_Only>
0

> <s_lp_Force_Field>
OPLS_2005

> <r_lp_Energy>
40.6732

> <b_lp_Chiralities_Consistent>
1

> <s_lp_Variant>
AV-unprocessed.smi:2963-1

> <Gold.Version>
5.8.1

> <Gold.Id.Protein>
6NUR|6NUR_protein|mol2

> <Gold.PLP.Fitness>
54.0280

> <Gold.PLP.PLP>
-48.6645

> <Gold.PLP.part.hbond>
-2.4047

> <Gold.PLP.part.metal>
0.0000

> <Gold.PLP.part.buried>
-7.5562

> <Gold.PLP.part.nonpolar>
-39.1752

> <Gold.PLP.part.repulsive>
0.1480

> <Gold.PLP.ligand.clash>
0.0000

> <Gold.PLP.ligand.torsion>
0.2976

> <Gold.PLP.Chemscore.Hbond>
1.9673

> <Gold.PLP.Chemscore.CHOScore>
0.0000

> <Gold.PLP.Chemscore.Metal>
0.0000

> <Gold.Chemscore.Hbonds>
donor molecule, donor type, donor heavy atom, donor atom, acceptor molecule, acceptor atom, score
      P1  H  7989  7998       L1     2  0.80

> <Gold.PLP.Chemscore.Internal.Correction>
0.0570

> <Gold.Rescore>
     Score         DG    S(hbond)    S(metal)    S(lipo)     H(rot)  DE(clash)    DE(int)     intcor
     16.46     -18.46       1.83        0.00     109.62       2.33       0.06       1.95       ----

> <Gold.Chemscore.Fitness>
16.4602

> <Gold.Chemscore.DG>
-18.4650

> <Gold.Chemscore.ZeroCoef>
-5.4800

> <Gold.Chemscore.Hbond>
1.8321

> <Gold.Chemscore.Metal>
0.0000

> <Gold.Chemscore.Lipo>
109.6200

> <Gold.Chemscore.Internal_Hbond>
0.0000

> <Gold.Chemscore.DEClash>
0.0566

> <Gold.Chemscore.DEInternal>
1.9482

> <Gold.Chemscore.Rot>
2.3280

> <Gold.Chemscore.Internal.Correction>
   9.000000E+99

> <Gold.Chemscore.Hbonds>
donor molecule, donor type, donor heavy atom, donor atom, acceptor molecule, acceptor atom, score
      P1  H  7989  7998       L1     2  0.74

> <Gold.Chemscore.Hbond.Weighted>
-6.1192

> <Gold.Chemscore.Metal.Weighted>
-0.0000

> <Gold.Chemscore.Lipo.Weighted>
-12.8255

> <Gold.Chemscore.Internal_Hbond.Weighted>
0.0000

> <Gold.Chemscore.DEClash.Weighted>
0.0566

> <Gold.Chemscore.DEInternal.Weighted>
1.9482

> <Gold.Chemscore.Rot.Weighted>
5.9598

> <Gold.Chemscore.Internal.Correction.Weighted>
   9.000000E+99

> <Gold.Protein.RotatedTorsions>
[ 6907 6896 6895 6894 ] final   46.90 input  -60.11 | X-H torsion
[ 7974 7965 7964 7962 ] final   -2.87 input  175.53 | X-H torsion
[ 8008 7997 7996 7995 ] final -169.69 input   59.86 | X-H torsion
[ 10167 10162 10161 10158 ] final   97.65 input  -65.29 | X-H torsion
[ 10718 10713 10712 10709 ] final  -59.52 input   66.30 | X-H torsion
[ 10763 10752 10751 10750 ] final   80.57 input  -60.55 | X-H torsion
[ 11005 11000 10999 10996 ] final  151.37 input  -57.11 | X-H torsion

> <Gold.Protein.ActiveResidues>
 VAL166  LYS551  ARG553  GLY616  TRP617  ASP618  TYR619  PRO620  LYS621  CYS622 
 ASP623  PHE694  ASN695  SER759  ASP760  ASP761  ALA762  ILE779  LEU786  VAL792 
 PHE793  MET794  SER795  GLU796  ALA797  LYS798  CYS799  TRP800  GLU811  SER814 

> <Gold.Protein.RotatedAtoms>
  152.2618  134.8025  160.0428 H   0  0  0  0  0  0  0  0  0  0  0  0  # atno 6907 bound_to 6896
  151.8669  133.3463  159.3730 H   0  0  0  0  0  0  0  0  0  0  0  0  # atno 6908 bound_to 6896
  150.7119  134.5078  159.5637 H   0  0  0  0  0  0  0  0  0  0  0  0  # atno 6909 bound_to 6896
  146.2398  140.1635  142.8332 H   0  0  0  0  0  0  0  0  0  0  0  0  # atno 7974 bound_to 7965
  155.9084  140.1053  157.1298 H   0  0  0  0  0  0  0  0  0  0  0  0  # atno 8008 bound_to 7997
  154.4036  140.1279  156.4590 H   0  0  0  0  0  0  0  0  0  0  0  0  # atno 8009 bound_to 7997
  155.7339  140.3468  155.5075 H   0  0  0  0  0  0  0  0  0  0  0  0  # atno 8010 bound_to 7997
  139.7781  144.6898  151.0060 H   0  0  0  0  0  0  0  0  0  0  0  0  # atno 10167 bound_to 10162
  156.1056  130.4181  150.0726 H   0  0  0  0  0  0  0  0  0  0  0  0  # atno 10718 bound_to 10713
  153.1044  135.4798  154.8925 H   0  0  0  0  0  0  0  0  0  0  0  0  # atno 10763 bound_to 10752
  154.7414  135.3083  154.8724 H   0  0  0  0  0  0  0  0  0  0  0  0  # atno 10764 bound_to 10752
  153.9331  135.6842  153.4798 H   0  0  0  0  0  0  0  0  0  0  0  0  # atno 10765 bound_to 10752
  140.1213  134.8862  157.2076 H   0  0  0  0  0  0  0  0  0  0  0  0  # atno 11005 bound_to 11000
  145.0069  140.8681  143.5247 LP  0  0  0  0  0  0  0  0  0  0  0  0  # atno 17320 bound_to 7965
  145.1663  139.2429  143.5365 LP  0  0  0  0  0  0  0  0  0  0  0  0  # atno 17321 bound_to 7965
  140.7817  143.4513  151.0409 LP  0  0  0  0  0  0  0  0  0  0  0  0  # atno 17342 bound_to 10162
  139.8194  143.7840  152.3176 LP  0  0  0  0  0  0  0  0  0  0  0  0  # atno 17343 bound_to 10162
  156.8702  130.9522  151.3610 LP  0  0  0  0  0  0  0  0  0  0  0  0  # atno 17370 bound_to 10713
  157.6232  130.8671  149.9145 LP  0  0  0  0  0  0  0  0  0  0  0  0  # atno 17371 bound_to 10713
  140.2961  134.3184  155.7302 LP  0  0  0  0  0  0  0  0  0  0  0  0  # atno 17394 bound_to 11000
  141.2152  133.7564  156.9574 LP  0  0  0  0  0  0  0  0  0  0  0  0  # atno 17395 bound_to 11000

$$$$
