AV-unprocessed.smi:264|AV-procd|sdf|2007|dock6
  -GOLD-   2262021203D 1   1.00000     0.00000
 Structure written by MMmdl.
 52 56  0  0  0  0  0  0  0  0  1 V2000
  147.4500  133.8614  154.6632 C   0  0  0  0  0  0  0  0  0  0  0  0
  148.9595  134.0717  154.4666 C   0  0  2  0  0  0  0  0  0  0  0  0
  149.6182  132.8851  154.9030 O   0  0  0  0  0  0  0  0  0  0  0  0
  150.8903  133.2274  155.4233 C   0  0  0  0  0  0  0  0  0  0  0  0
  150.6002  134.5155  156.1779 C   0  0  0  0  0  0  0  0  0  0  0  0
  149.6148  135.2363  155.2623 C   0  0  1  0  0  0  0  0  0  0  0  0
  150.3646  136.0139  154.3434 O   0  0  0  0  0  0  0  0  0  0  0  0
  148.6482  136.1880  156.0152 C   0  0  0  0  0  0  0  0  0  0  0  0
  149.3227  137.2963  156.6749 N   0  0  0  0  0  0  0  0  0  0  0  0
  149.7545  137.3358  157.9813 C   0  0  0  0  0  0  0  0  0  0  0  0
  150.3352  138.4472  158.3428 N   0  0  0  0  0  0  0  0  0  0  0  0
  150.3149  139.2305  157.1946 C   0  0  0  0  0  0  0  0  0  0  0  0
  150.7725  140.5417  156.8812 C   0  0  0  0  0  0  0  0  0  0  0  0
  151.4079  141.3321  157.7837 N   0  0  0  0  0  0  0  0  0  0  0  0
  152.6081  140.7490  158.3707 C   0  0  0  0  0  0  0  0  0  0  0  0
  153.0335  141.5599  159.6023 C   0  0  0  0  0  0  0  0  0  0  0  0
  153.2042  142.9313  159.2480 O   0  0  0  0  0  0  0  0  0  0  0  0
  152.0352  143.5504  158.7018 C   0  0  1  0  0  0  0  0  0  0  0  0
  150.9506  143.7392  159.7698 C   0  0  0  0  0  0  0  0  0  0  0  0
  150.5187  145.1895  159.6022 C   0  0  0  0  0  0  0  0  0  0  0  0
  151.7353  145.8289  159.2662 O   0  0  0  0  0  0  0  0  0  0  0  0
  152.3903  144.9997  158.3174 C   0  0  0  0  0  0  0  0  0  0  0  0
  151.5597  142.7501  157.4670 C   0  0  0  0  0  0  0  0  0  0  0  0
  150.5509  140.9944  155.6176 N   0  0  0  0  0  0  0  0  0  0  0  0
  149.9390  140.2179  154.7188 C   0  0  0  0  0  0  0  0  0  0  0  0
  149.4708  138.9778  154.8688 N   0  0  0  0  0  0  0  0  0  0  0  0
  149.6778  138.5212  156.1370 C   0  0  0  0  0  0  0  0  0  0  0  0
  146.8797  134.7300  154.3340 H   0  0  0  0  0  0  0  0  0  0  0  0
  147.2052  133.6661  155.7076 H   0  0  0  0  0  0  0  0  0  0  0  0
  147.1038  133.0061  154.0826 H   0  0  0  0  0  0  0  0  0  0  0  0
  149.1538  134.1836  153.3983 H   0  0  0  0  0  0  0  0  0  0  0  0
  151.2876  132.4412  156.0657 H   0  0  0  0  0  0  0  0  0  0  0  0
  151.5919  133.3974  154.6054 H   0  0  0  0  0  0  0  0  0  0  0  0
  150.1174  134.2624  157.1225 H   0  0  0  0  0  0  0  0  0  0  0  0
  151.4969  135.0932  156.4069 H   0  0  0  0  0  0  0  0  0  0  0  0
  149.9178  136.0051  153.5106 H   0  0  0  0  0  0  0  0  0  0  0  0
  147.9110  136.6029  155.3267 H   0  0  0  0  0  0  0  0  0  0  0  0
  148.0881  135.6429  156.7752 H   0  0  0  0  0  0  0  0  0  0  0  0
  149.6184  136.5097  158.6640 H   0  0  0  0  0  0  0  0  0  0  0  0
  152.4526  139.7096  158.6578 H   0  0  0  0  0  0  0  0  0  0  0  0
  153.4054  140.7556  157.6262 H   0  0  0  0  0  0  0  0  0  0  0  0
  152.2998  141.4559  160.4025 H   0  0  0  0  0  0  0  0  0  0  0  0
  153.9772  141.1784  159.9919 H   0  0  0  0  0  0  0  0  0  0  0  0
  150.1184  143.0402  159.6792 H   0  0  0  0  0  0  0  0  0  0  0  0
  151.3771  143.6182  160.7666 H   0  0  0  0  0  0  0  0  0  0  0  0
  149.8037  145.2969  158.7847 H   0  0  0  0  0  0  0  0  0  0  0  0
  150.0786  145.6075  160.5076 H   0  0  0  0  0  0  0  0  0  0  0  0
  153.4644  145.1871  158.3103 H   0  0  0  0  0  0  0  0  0  0  0  0
  152.0068  145.2498  157.3267 H   0  0  0  0  0  0  0  0  0  0  0  0
  152.2882  142.8527  156.6612 H   0  0  0  0  0  0  0  0  0  0  0  0
  150.6157  143.1576  157.1013 H   0  0  0  0  0  0  0  0  0  0  0  0
  149.8068  140.6525  153.7390 H   0  0  0  0  0  0  0  0  0  0  0  0
  1  2  1  0  0  0  0
  1 28  1  0  0  0  0
  1 29  1  0  0  0  0
  1 30  1  0  0  0  0
  2  6  1  0  0  0  0
  2  3  1  0  0  0  0
  2 31  1  0  0  0  0
  3  4  1  0  0  0  0
  4  5  1  0  0  0  0
  4 32  1  0  0  0  0
  4 33  1  0  0  0  0
  5  6  1  0  0  0  0
  5 34  1  0  0  0  0
  5 35  1  0  0  0  0
  6  7  1  0  0  0  0
  6  8  1  0  0  0  0
  7 36  1  0  0  0  0
  8  9  1  0  0  0  0
  8 37  1  0  0  0  0
  8 38  1  0  0  0  0
  9 27  1  0  0  0  0
  9 10  1  0  0  0  0
 10 11  2  0  0  0  0
 10 39  1  0  0  0  0
 11 12  1  0  0  0  0
 12 27  2  0  0  0  0
 12 13  1  0  0  0  0
 13 14  1  0  0  0  0
 13 24  2  0  0  0  0
 14 23  1  0  0  0  0
 14 15  1  0  0  0  0
 15 16  1  0  0  0  0
 15 40  1  0  0  0  0
 15 41  1  0  0  0  0
 16 17  1  0  0  0  0
 16 42  1  0  0  0  0
 16 43  1  0  0  0  0
 17 18  1  0  0  0  0
 18 22  1  0  0  0  0
 18 19  1  0  0  0  0
 18 23  1  0  0  0  0
 19 20  1  0  0  0  0
 19 44  1  0  0  0  0
 19 45  1  0  0  0  0
 20 21  1  0  0  0  0
 20 46  1  0  0  0  0
 20 47  1  0  0  0  0
 21 22  1  0  0  0  0
 22 48  1  0  0  0  0
 22 49  1  0  0  0  0
 23 50  1  0  0  0  0
 23 51  1  0  0  0  0
 24 25  1  0  0  0  0
 25 26  2  0  0  0  0
 25 52  1  0  0  0  0
 26 27  1  0  0  0  0
M  END
> <s_m_source_file>
AV-unprocessed.smi

> <i_m_source_file_index>
264

> <i_lp_mmshare_version>
43012

> <i_f3d_flags>
0

> <s_epik_input>
W0NIMl0xW0NIMl1PW0NAQEhdKFtDSDNdKVtDQEBdMShbT0hdKVtDSDJdbihbY0hdbjIpYyhjMjMpbltjSF1uYzNOKFtDSDJdNClbQ0gyXVtDSDJdT1tDQF00NVtDSDJdW0NIMl1PW0NIMl01

> <s_epik_cmdline>
J2VwaWtfcHl0aG9uJywgJy1waCcsICc3LjAnLCAnLXRuJywgJzgnLCAnLW1hJywgJzIwMCcsICctbWV0YWxfYmluZGluZycsICctaW1hZScsICc8aW5maWxlLm1hZT4nLCAnLW9tYWUnLCAnPG91dGZpbGUubWFlPic=

> <r_lp_tautomer_probability>
1

> <r_epik_Ionization_Penalty>
0.00539389

> <r_epik_Ionization_Penalty_Charging>
0

> <r_epik_Ionization_Penalty_Neutral>
0.00539389

> <r_epik_State_Penalty>
0.00375441

> <r_epik_Charging_Adjusted_Penalty>
0.00375441

> <i_epik_Tot_Q>
0

> <i_epik_Tot_abs_Q>
0

> <r_epik_Metal_State_Penalty>
-0

> <b_epik_Metal_Only>
0

> <s_lp_Force_Field>
OPLS_2005

> <r_lp_Energy>
54.1721

> <b_lp_Chiralities_Consistent>
1

> <s_lp_Variant>
AV-unprocessed.smi:264-1

> <Gold.Version>
5.8.1

> <Gold.Id.Protein>
6NUR|6NUR_protein|mol2

> <Gold.PLP.Fitness>
42.8114

> <Gold.PLP.PLP>
-38.5323

> <Gold.PLP.part.hbond>
-3.4004

> <Gold.PLP.part.metal>
0.0000

> <Gold.PLP.part.buried>
-6.8776

> <Gold.PLP.part.nonpolar>
-27.6314

> <Gold.PLP.part.repulsive>
0.3468

> <Gold.PLP.ligand.clash>
0.0000

> <Gold.PLP.ligand.torsion>
0.5480

> <Gold.PLP.Chemscore.Hbond>
1.0000

> <Gold.PLP.Chemscore.CHOScore>
0.6961

> <Gold.PLP.Chemscore.Metal>
0.0000

> <Gold.Chemscore.Hbonds>
donor molecule, donor type, donor heavy atom, donor atom, acceptor molecule, acceptor atom, score
      L1  H     7    36       P1  7948  0.65
      L1  C    25    52       P1  7957  0.69

> <Gold.PLP.Chemscore.Internal.Correction>
0.2869

> <Gold.Rescore>
     Score         DG    S(hbond)    S(metal)    S(lipo)     H(rot)  DE(clash)    DE(int)     intcor
     13.79     -14.48       0.84        0.00      99.00       2.11       0.08       0.62       ----

> <Gold.Chemscore.Fitness>
13.7893

> <Gold.Chemscore.DG>
-14.4838

> <Gold.Chemscore.ZeroCoef>
-5.4800

> <Gold.Chemscore.Hbond>
0.8421

> <Gold.Chemscore.Metal>
0.0000

> <Gold.Chemscore.Lipo>
99.0042

> <Gold.Chemscore.Internal_Hbond>
0.0000

> <Gold.Chemscore.DEClash>
0.0763

> <Gold.Chemscore.DEInternal>
0.6182

> <Gold.Chemscore.Rot>
2.1063

> <Gold.Chemscore.Internal.Correction>
   9.000000E+99

> <Gold.Chemscore.Hbonds>
donor molecule, donor type, donor heavy atom, donor atom, acceptor molecule, acceptor atom, score
      L1  H     7    36       P1  7948  0.06

> <Gold.Chemscore.Hbond.Weighted>
-2.8124

> <Gold.Chemscore.Metal.Weighted>
-0.0000

> <Gold.Chemscore.Lipo.Weighted>
-11.5835

> <Gold.Chemscore.Internal_Hbond.Weighted>
0.0000

> <Gold.Chemscore.DEClash.Weighted>
0.0763

> <Gold.Chemscore.DEInternal.Weighted>
0.6182

> <Gold.Chemscore.Rot.Weighted>
5.3921

> <Gold.Chemscore.Internal.Correction.Weighted>
   9.000000E+99

> <Gold.Protein.RotatedTorsions>
[ 6907 6896 6895 6894 ] final  -16.71 input  -60.11 | X-H torsion
[ 7974 7965 7964 7962 ] final  -46.79 input  175.53 | X-H torsion
[ 8008 7997 7996 7995 ] final  114.74 input   59.86 | X-H torsion
[ 10167 10162 10161 10158 ] final   87.02 input  -65.29 | X-H torsion
[ 10718 10713 10712 10709 ] final -153.00 input   66.30 | X-H torsion
[ 10763 10752 10751 10750 ] final  -46.90 input  -60.55 | X-H torsion
[ 11005 11000 10999 10996 ] final -136.60 input  -57.11 | X-H torsion

> <Gold.Protein.ActiveResidues>
 VAL166  LYS551  ARG553  GLY616  TRP617  ASP618  TYR619  PRO620  LYS621  CYS622 
 ASP623  PHE694  ASN695  SER759  ASP760  ASP761  ALA762  ILE779  LEU786  VAL792 
 PHE793  MET794  SER795  GLU796  ALA797  LYS798  CYS799  TRP800  GLU811  SER814 

> <Gold.Protein.RotatedAtoms>
  151.3044  135.0777  159.9249 H   0  0  0  0  0  0  0  0  0  0  0  0  # atno 6907 bound_to 6896
  152.5291  133.9800  159.7812 H   0  0  0  0  0  0  0  0  0  0  0  0  # atno 6908 bound_to 6896
  151.0092  133.5930  159.2715 H   0  0  0  0  0  0  0  0  0  0  0  0  # atno 6909 bound_to 6896
  145.9683  140.7409  142.9423 H   0  0  0  0  0  0  0  0  0  0  0  0  # atno 7974 bound_to 7965
  156.2339  140.2953  156.0261 H   0  0  0  0  0  0  0  0  0  0  0  0  # atno 8008 bound_to 7997
  155.2146  140.0413  157.2956 H   0  0  0  0  0  0  0  0  0  0  0  0  # atno 8009 bound_to 7997
  154.6044  140.2435  155.7757 H   0  0  0  0  0  0  0  0  0  0  0  0  # atno 8010 bound_to 7997
  139.8816  144.6437  150.8837 H   0  0  0  0  0  0  0  0  0  0  0  0  # atno 10167 bound_to 10162
  156.4800  130.8298  151.2526 H   0  0  0  0  0  0  0  0  0  0  0  0  # atno 10718 bound_to 10713
  154.0526  135.6629  153.4802 H   0  0  0  0  0  0  0  0  0  0  0  0  # atno 10763 bound_to 10752
  153.0458  135.5116  154.7736 H   0  0  0  0  0  0  0  0  0  0  0  0  # atno 10764 bound_to 10752
  154.6747  135.3035  154.9660 H   0  0  0  0  0  0  0  0  0  0  0  0  # atno 10765 bound_to 10752
  140.8790  134.1956  157.4603 H   0  0  0  0  0  0  0  0  0  0  0  0  # atno 11005 bound_to 11000
  144.6831  140.2706  143.7306 LP  0  0  0  0  0  0  0  0  0  0  0  0  # atno 17320 bound_to 7965
  145.7942  139.1939  143.2085 LP  0  0  0  0  0  0  0  0  0  0  0  0  # atno 17321 bound_to 7965
  140.7743  143.3581  151.1881 LP  0  0  0  0  0  0  0  0  0  0  0  0  # atno 17342 bound_to 10162
  139.7191  143.9253  152.2978 LP  0  0  0  0  0  0  0  0  0  0  0  0  # atno 17343 bound_to 10162
  157.7484  131.0048  150.3089 LP  0  0  0  0  0  0  0  0  0  0  0  0  # atno 17370 bound_to 10713
  156.3531  130.3834  149.7312 LP  0  0  0  0  0  0  0  0  0  0  0  0  # atno 17371 bound_to 10713
  139.8718  134.9809  156.5093 LP  0  0  0  0  0  0  0  0  0  0  0  0  # atno 17394 bound_to 11000
  140.8484  133.8151  155.9144 LP  0  0  0  0  0  0  0  0  0  0  0  0  # atno 17395 bound_to 11000

$$$$
