AV-unprocessed.smi:1268|AV-procd|sdf|5324|dock4
  -GOLD-   22720 4453D 1   1.00000     0.00000
 Structure written by MMmdl.
 40 41  0  0  0  0  0  0  0  0  2 V2000
  147.8755  138.5047  154.9714 O   0  0  0  0  0  0  0  0  0  0  0  0
  148.3942  138.8723  153.9171 C   0  0  0  0  0  0  0  0  0  0  0  0
  147.6888  139.1844  152.8200 N   0  0  0  0  0  0  0  0  0  0  0  0
  146.2345  139.1174  152.7153 C   0  0  0  0  0  0  0  0  0  0  0  0
  145.7601  137.7952  152.0776 C   0  0  1  0  0  0  0  0  0  0  0  0
  146.4689  137.6121  150.8675 O   0  0  0  0  0  0  0  0  0  0  0  0
  146.0686  136.5886  152.9867 C   0  0  0  0  0  0  0  0  0  0  0  0
  146.2278  135.3248  152.2222 N   0  3  0  0  0  0  0  0  0  0  0  0
  146.5846  134.1772  153.0962 C   0  0  0  0  0  0  0  0  0  0  0  0
  146.8966  132.9222  152.2640 C   0  0  0  0  0  0  0  0  0  0  0  0
  145.7196  132.5623  151.3481 C   0  0  0  0  0  0  0  0  0  0  0  0
  145.3387  133.7713  150.4835 C   0  0  0  0  0  0  0  0  0  0  0  0
  145.0610  135.0081  151.3548 C   0  0  0  0  0  0  0  0  0  0  0  0
  149.7121  139.0206  153.7090 N   0  0  0  0  0  0  0  0  0  0  0  0
  150.7669  138.7801  154.6241 C   0  0  0  0  0  0  0  0  0  0  0  0
  151.5888  139.7830  154.9382 N   0  0  0  0  0  0  0  0  0  0  0  0
  152.5769  139.3877  155.8448 C   0  0  0  0  0  0  0  0  0  0  0  0
  152.4910  138.0684  156.2147 C   0  0  0  0  0  0  0  0  0  0  0  0
  151.1567  137.2612  155.4357 S   0  0  0  0  0  0  0  0  0  0  0  0
  148.1923  139.4752  151.9944 H   0  0  0  0  0  0  0  0  0  0  0  0
  145.7916  139.2579  153.7023 H   0  0  0  0  0  0  0  0  0  0  0  0
  145.8988  139.9646  152.1144 H   0  0  0  0  0  0  0  0  0  0  0  0
  144.6930  137.8438  151.8638 H   0  0  0  0  0  0  0  0  0  0  0  0
  145.8796  137.7775  150.1466 H   0  0  0  0  0  0  0  0  0  0  0  0
  146.9808  136.8029  153.5464 H   0  0  0  0  0  0  0  0  0  0  0  0
  145.2822  136.4569  153.7315 H   0  0  0  0  0  0  0  0  0  0  0  0
  147.4581  134.4291  153.6988 H   0  0  0  0  0  0  0  0  0  0  0  0
  145.7658  133.9777  153.7897 H   0  0  0  0  0  0  0  0  0  0  0  0
  147.7900  133.0952  151.6624 H   0  0  0  0  0  0  0  0  0  0  0  0
  147.1251  132.0847  152.9236 H   0  0  0  0  0  0  0  0  0  0  0  0
  145.9800  131.7124  150.7164 H   0  0  0  0  0  0  0  0  0  0  0  0
  144.8638  132.2544  151.9502 H   0  0  0  0  0  0  0  0  0  0  0  0
  146.1460  133.9907  149.7833 H   0  0  0  0  0  0  0  0  0  0  0  0
  144.4615  133.5352  149.8803 H   0  0  0  0  0  0  0  0  0  0  0  0
  144.1806  134.8371  151.9763 H   0  0  0  0  0  0  0  0  0  0  0  0
  144.8272  135.8509  150.7054 H   0  0  0  0  0  0  0  0  0  0  0  0
  149.9951  139.3367  152.7931 H   0  0  0  0  0  0  0  0  0  0  0  0
  153.3057  140.1128  156.1756 H   0  0  0  0  0  0  0  0  0  0  0  0
  153.1296  137.5249  156.8950 H   0  0  0  0  0  0  0  0  0  0  0  0
  147.0206  135.4680  151.6125 H   0  0  0  0  0  0  0  0  0  0  0  0
  1  2  2  0  0  0  0
  2  3  1  0  0  0  0
  2 14  1  0  0  0  0
  3  4  1  0  0  0  0
  3 20  1  0  0  0  0
  4  5  1  0  0  0  0
  4 21  1  0  0  0  0
  4 22  1  0  0  0  0
  5  6  1  0  0  0  0
  5  7  1  0  0  0  0
  5 23  1  0  0  0  0
  6 24  1  0  0  0  0
  7  8  1  0  0  0  0
  7 25  1  0  0  0  0
  7 26  1  0  0  0  0
  8 13  1  0  0  0  0
  8  9  1  0  0  0  0
  8 40  1  0  0  0  0
  9 10  1  0  0  0  0
  9 27  1  0  0  0  0
  9 28  1  0  0  0  0
 10 11  1  0  0  0  0
 10 29  1  0  0  0  0
 10 30  1  0  0  0  0
 11 12  1  0  0  0  0
 11 31  1  0  0  0  0
 11 32  1  0  0  0  0
 12 13  1  0  0  0  0
 12 33  1  0  0  0  0
 12 34  1  0  0  0  0
 13 35  1  0  0  0  0
 13 36  1  0  0  0  0
 14 15  1  0  0  0  0
 14 37  1  0  0  0  0
 15 19  1  0  0  0  0
 15 16  2  0  0  0  0
 16 17  1  0  0  0  0
 17 18  2  0  0  0  0
 17 38  1  0  0  0  0
 18 19  1  0  0  0  0
 18 39  1  0  0  0  0
M  CHG  1   8   1
M  END
> <s_m_source_file>
AV-unprocessed.smi

> <i_m_source_file_index>
1268

> <i_lp_mmshare_version>
43012

> <i_f3d_flags>
0

> <s_epik_input>
czFbY0hdW2NIXW5jMVtOSF1DKD1PKVtOSF1bQ0gyXVtDQEhdKFtPSF0pW0NIMl1OMltDSDJdW0NIMl1bQ0gyXVtDSDJdW0NIMl0y

> <s_epik_cmdline>
J2VwaWtfcHl0aG9uJywgJy1waCcsICc3LjAnLCAnLXRuJywgJzgnLCAnLW1hJywgJzIwMCcsICctbWV0YWxfYmluZGluZycsICctaW1hZScsICc8aW5maWxlLm1hZT4nLCAnLW9tYWUnLCAnPG91dGZpbGUubWFlPic=

> <r_lp_tautomer_probability>
0.999

> <r_epik_Ionization_Penalty>
0.00539631

> <r_epik_Ionization_Penalty_Charging>
0.00525788

> <r_epik_Ionization_Penalty_Neutral>
0.000138432

> <r_epik_State_Penalty>
0.0038355

> <r_epik_Charging_Adjusted_Penalty>
0.00909338

> <i_epik_Tot_Q>
1

> <i_epik_Tot_abs_Q>
1

> <r_epik_Metal_State_Penalty>
0.0500806

> <b_epik_Metal_Only>
0

> <s_lp_Force_Field>
OPLS_2005

> <r_lp_Energy>
15.7881

> <b_lp_Chiralities_Consistent>
1

> <s_lp_Variant>
AV-unprocessed.smi:1268-2

> <Gold.Version>
5.8.1

> <Gold.Id.Protein>
6NUR|6NUR_protein|mol2

> <Gold.PLP.Fitness>
46.7119

> <Gold.PLP.PLP>
-30.7871

> <Gold.PLP.part.hbond>
-7.1298

> <Gold.PLP.part.metal>
0.0000

> <Gold.PLP.part.buried>
3.0269

> <Gold.PLP.part.nonpolar>
-26.2146

> <Gold.PLP.part.repulsive>
0.3528

> <Gold.PLP.ligand.clash>
0.0000

> <Gold.PLP.ligand.torsion>
1.0485

> <Gold.PLP.Chemscore.Hbond>
5.9885

> <Gold.PLP.Chemscore.CHOScore>
0.0000

> <Gold.PLP.Chemscore.Metal>
0.0000

> <Gold.Chemscore.Hbonds>
donor molecule, donor type, donor heavy atom, donor atom, acceptor molecule, acceptor atom, score
      L1  H     3    20       P1  7957  1.00
      L1  H     6    24       P1 10171  0.52
      L1  H     8    40       P1  7948  1.39
      L1  H    14    37       P1  7957  1.00
      P1  H  7954  7966       L1     6  0.85
      P1  H  7989  7998       L1    16  1.00

> <Gold.PLP.Chemscore.Internal.Correction>
0.0563

> <Gold.Rescore>
     Score         DG    S(hbond)    S(metal)    S(lipo)     H(rot)  DE(clash)    DE(int)     intcor
     17.96     -22.09       4.63        0.00      65.22       2.54       1.83       2.31       ----

> <Gold.Chemscore.Fitness>
17.9559

> <Gold.Chemscore.DG>
-22.0922

> <Gold.Chemscore.ZeroCoef>
-5.4800

> <Gold.Chemscore.Hbond>
4.6347

> <Gold.Chemscore.Metal>
0.0000

> <Gold.Chemscore.Lipo>
65.2173

> <Gold.Chemscore.Internal_Hbond>
0.0000

> <Gold.Chemscore.DEClash>
1.8298

> <Gold.Chemscore.DEInternal>
2.3066

> <Gold.Chemscore.Rot>
2.5383

> <Gold.Chemscore.Internal.Correction>
   9.000000E+99

> <Gold.Chemscore.Hbonds>
donor molecule, donor type, donor heavy atom, donor atom, acceptor molecule, acceptor atom, score
      L1  H     3    20       P1  7957  0.98
      L1  H     6    24       P1 10171  0.51
      L1  H     8    40       P1  7948  0.64
      L1  H    14    37       P1  7957  0.91
      P1  H  7954  7966       L1     6  0.14
      P1  H  7989  7998       L1    16  0.59

> <Gold.Chemscore.Hbond.Weighted>
-15.4799

> <Gold.Chemscore.Metal.Weighted>
-0.0000

> <Gold.Chemscore.Lipo.Weighted>
-7.6304

> <Gold.Chemscore.Internal_Hbond.Weighted>
0.0000

> <Gold.Chemscore.DEClash.Weighted>
1.8298

> <Gold.Chemscore.DEInternal.Weighted>
2.3066

> <Gold.Chemscore.Rot.Weighted>
6.4981

> <Gold.Chemscore.Internal.Correction.Weighted>
   9.000000E+99

> <Gold.Protein.RotatedTorsions>
[ 6907 6896 6895 6894 ] final   -1.75 input  -60.11 | X-H torsion
[ 7974 7965 7964 7962 ] final   36.60 input  175.53 | X-H torsion
[ 8008 7997 7996 7995 ] final  -71.40 input   59.86 | X-H torsion
[ 10167 10162 10161 10158 ] final  -42.65 input  -65.29 | X-H torsion
[ 10718 10713 10712 10709 ] final   38.46 input   66.30 | X-H torsion
[ 10763 10752 10751 10750 ] final -143.44 input  -60.55 | X-H torsion
[ 11005 11000 10999 10996 ] final    6.96 input  -57.11 | X-H torsion

> <Gold.Protein.ActiveResidues>
 VAL166  LYS551  ARG553  GLY616  TRP617  ASP618  TYR619  PRO620  LYS621  CYS622 
 ASP623  PHE694  ASN695  SER759  ASP760  ASP761  ALA762  ILE779  LEU786  VAL792 
 PHE793  MET794  SER795  GLU796  ALA797  LYS798  CYS799  TRP800  GLU811  SER814 

> <Gold.Protein.RotatedAtoms>
  151.5410  135.1068  159.9925 H   0  0  0  0  0  0  0  0  0  0  0  0  # atno 6907 bound_to 6896
  152.4535  133.7673  159.6790 H   0  0  0  0  0  0  0  0  0  0  0  0  # atno 6908 bound_to 6896
  150.8471  133.7778  159.3063 H   0  0  0  0  0  0  0  0  0  0  0  0  # atno 6909 bound_to 6896
  146.1199  139.5997  142.9296 H   0  0  0  0  0  0  0  0  0  0  0  0  # atno 7974 bound_to 7965
  154.5085  140.0816  156.7942 H   0  0  0  0  0  0  0  0  0  0  0  0  # atno 8008 bound_to 7997
  155.3839  140.3429  155.4230 H   0  0  0  0  0  0  0  0  0  0  0  0  # atno 8009 bound_to 7997
  156.1544  140.1568  156.8703 H   0  0  0  0  0  0  0  0  0  0  0  0  # atno 8010 bound_to 7997
  140.6962  143.3026  151.3239 H   0  0  0  0  0  0  0  0  0  0  0  0  # atno 10167 bound_to 10162
  157.3591  130.7640  149.7034 H   0  0  0  0  0  0  0  0  0  0  0  0  # atno 10718 bound_to 10713
  154.8469  135.3468  154.6188 H   0  0  0  0  0  0  0  0  0  0  0  0  # atno 10763 bound_to 10752
  153.6797  135.6980  153.5126 H   0  0  0  0  0  0  0  0  0  0  0  0  # atno 10764 bound_to 10752
  153.2678  135.4302  155.0914 H   0  0  0  0  0  0  0  0  0  0  0  0  # atno 10765 bound_to 10752
  140.5536  134.0259  155.7946 H   0  0  0  0  0  0  0  0  0  0  0  0  # atno 11005 bound_to 11000
  145.5488  141.0415  143.2290 LP  0  0  0  0  0  0  0  0  0  0  0  0  # atno 17320 bound_to 7965
  144.7587  139.7009  143.7243 LP  0  0  0  0  0  0  0  0  0  0  0  0  # atno 17321 bound_to 7965
  139.6420  144.0522  152.2561 LP  0  0  0  0  0  0  0  0  0  0  0  0  # atno 17342 bound_to 10162
  140.0031  144.6279  150.7713 LP  0  0  0  0  0  0  0  0  0  0  0  0  # atno 17343 bound_to 10162
  155.9734  130.4119  150.4004 LP  0  0  0  0  0  0  0  0  0  0  0  0  # atno 17370 bound_to 10713
  157.2078  131.0453  151.2615 LP  0  0  0  0  0  0  0  0  0  0  0  0  # atno 17371 bound_to 10713
  141.1157  133.9544  157.2827 LP  0  0  0  0  0  0  0  0  0  0  0  0  # atno 17394 bound_to 11000
  139.9443  135.0186  156.8803 LP  0  0  0  0  0  0  0  0  0  0  0  0  # atno 17395 bound_to 11000

$$$$
