AV-unprocessed.smi:921|AV-procd|sdf|4169|dock8
  -GOLD-   22720 2 73D 1   1.00000     0.00000
 Structure written by MMmdl.
 39 41  0  0  0  0  0  0  0  0  1 V2000
  152.4747  137.5708  157.1598 N   0  0  0  0  0  0  0  0  0  0  0  0
  152.1064  137.6582  155.8787 C   0  0  0  0  0  0  0  0  0  0  0  0
  151.6637  136.6937  155.2583 O   0  0  0  0  0  0  0  0  0  0  0  0
  152.2647  139.0217  155.1949 C   0  0  0  0  0  0  0  0  0  0  0  0
  150.9094  139.5366  154.7744 C   0  0  0  0  0  0  0  0  0  0  0  0
  150.1598  138.8908  153.8748 N   0  0  0  0  0  0  0  0  0  0  0  0
  149.0316  139.6797  153.7835 C   0  0  0  0  0  0  0  0  0  0  0  0
  147.8721  139.5369  152.9883 C   0  0  0  0  0  0  0  0  0  0  0  0
  146.8308  140.4848  153.0684 C   0  0  0  0  0  0  0  0  0  0  0  0
  146.9339  141.5851  153.9439 C   0  0  0  0  0  0  0  0  0  0  0  0
  148.0801  141.7440  154.7462 C   0  0  0  0  0  0  0  0  0  0  0  0
  149.1171  140.7954  154.6611 C   0  0  0  0  0  0  0  0  0  0  0  0
  150.3455  140.6584  155.3006 N   0  0  0  0  0  0  0  0  0  0  0  0
  150.8578  141.5631  156.3234 C   0  0  0  0  0  0  0  0  0  0  0  0
  150.5752  141.0706  157.7563 C   0  0  2  0  0  0  0  0  0  0  0  0
  149.1991  141.2026  158.0521 O   0  0  0  0  0  0  0  0  0  0  0  0
  151.4547  141.7932  158.7671 C   0  0  0  0  0  0  0  0  0  0  0  0
  152.4105  141.0754  159.5207 C   0  0  0  0  0  0  0  0  0  0  0  0
  153.2188  141.7390  160.4638 C   0  0  0  0  0  0  0  0  0  0  0  0
  154.1332  141.0435  161.1805 F   0  0  0  0  0  0  0  0  0  0  0  0
  153.0750  143.1248  160.6631 C   0  0  0  0  0  0  0  0  0  0  0  0
  152.1200  143.8453  159.9211 C   0  0  0  0  0  0  0  0  0  0  0  0
  151.3097  143.1836  158.9777 C   0  0  0  0  0  0  0  0  0  0  0  0
  150.3895  143.8922  158.2798 F   0  0  0  0  0  0  0  0  0  0  0  0
  152.3739  136.6942  157.6503 H   0  0  0  0  0  0  0  0  0  0  0  0
  152.8395  138.3821  157.6374 H   0  0  0  0  0  0  0  0  0  0  0  0
  152.7262  139.7410  155.8724 H   0  0  0  0  0  0  0  0  0  0  0  0
  152.9374  138.9008  154.3490 H   0  0  0  0  0  0  0  0  0  0  0  0
  147.7838  138.6971  152.3151 H   0  0  0  0  0  0  0  0  0  0  0  0
  145.9491  140.3669  152.4557 H   0  0  0  0  0  0  0  0  0  0  0  0
  146.1320  142.3067  153.9998 H   0  0  0  0  0  0  0  0  0  0  0  0
  148.1617  142.5854  155.4180 H   0  0  0  0  0  0  0  0  0  0  0  0
  151.9358  141.6456  156.1790 H   0  0  0  0  0  0  0  0  0  0  0  0
  150.4720  142.5689  156.1637 H   0  0  0  0  0  0  0  0  0  0  0  0
  150.7922  140.0031  157.8071 H   0  0  0  0  0  0  0  0  0  0  0  0
  148.7182  141.2383  157.2395 H   0  0  0  0  0  0  0  0  0  0  0  0
  152.5248  140.0105  159.3804 H   0  0  0  0  0  0  0  0  0  0  0  0
  153.6940  143.6344  161.3866 H   0  0  0  0  0  0  0  0  0  0  0  0
  152.0074  144.9079  160.0773 H   0  0  0  0  0  0  0  0  0  0  0  0
  1  2  1  0  0  0  0
  1 25  1  0  0  0  0
  1 26  1  0  0  0  0
  2  3  2  0  0  0  0
  2  4  1  0  0  0  0
  4  5  1  0  0  0  0
  4 27  1  0  0  0  0
  4 28  1  0  0  0  0
  5 13  1  0  0  0  0
  5  6  2  0  0  0  0
  6  7  1  0  0  0  0
  7 12  2  0  0  0  0
  7  8  1  0  0  0  0
  8  9  2  0  0  0  0
  8 29  1  0  0  0  0
  9 10  1  0  0  0  0
  9 30  1  0  0  0  0
 10 11  2  0  0  0  0
 10 31  1  0  0  0  0
 11 12  1  0  0  0  0
 11 32  1  0  0  0  0
 12 13  1  0  0  0  0
 13 14  1  0  0  0  0
 14 15  1  0  0  0  0
 14 33  1  0  0  0  0
 14 34  1  0  0  0  0
 15 16  1  0  0  0  0
 15 17  1  0  0  0  0
 15 35  1  0  0  0  0
 16 36  1  0  0  0  0
 17 23  1  0  0  0  0
 17 18  2  0  0  0  0
 18 19  1  0  0  0  0
 18 37  1  0  0  0  0
 19 20  1  0  0  0  0
 19 21  2  0  0  0  0
 21 22  1  0  0  0  0
 21 38  1  0  0  0  0
 22 23  2  0  0  0  0
 22 39  1  0  0  0  0
 23 24  1  0  0  0  0
M  END
> <s_m_source_file>
AV-unprocessed.smi

> <i_m_source_file_index>
921

> <i_lp_mmshare_version>
43012

> <i_f3d_flags>
0

> <s_epik_input>
W2NIXTFbY0hdW2NIXVtjSF1jKGMxMiluKGMobjIpW0NIMl1DKD1PKVtOSDJdKVtDSDJdW0NASF0oW09IXSljM1tjSF1jKEYpW2NIXVtjSF1jM0Y=

> <s_epik_cmdline>
J2VwaWtfcHl0aG9uJywgJy1waCcsICc3LjAnLCAnLXRuJywgJzgnLCAnLW1hJywgJzIwMCcsICctbWV0YWxfYmluZGluZycsICctaW1hZScsICc8aW5maWxlLm1hZT4nLCAnLW9tYWUnLCAnPG91dGZpbGUubWFlPic=

> <r_epik_Ionization_Penalty>
0.0366909

> <r_epik_Ionization_Penalty_Charging>
0

> <r_epik_Ionization_Penalty_Neutral>
0.0366909

> <r_epik_State_Penalty>
0.0306642

> <r_epik_Charging_Adjusted_Penalty>
0.0306642

> <i_epik_Tot_Q>
0

> <i_epik_Tot_abs_Q>
0

> <r_epik_Metal_State_Penalty>
0.028853

> <b_epik_Metal_Only>
0

> <s_lp_Force_Field>
OPLS_2005

> <r_lp_Energy>
14.0365

> <b_lp_Chiralities_Consistent>
1

> <s_lp_Variant>
AV-unprocessed.smi:921-1

> <Gold.Version>
5.8.1

> <Gold.Id.Protein>
6NUR|6NUR_protein|mol2

> <Gold.PLP.Fitness>
49.9090

> <Gold.PLP.PLP>
-47.8498

> <Gold.PLP.part.hbond>
-1.0000

> <Gold.PLP.part.metal>
0.0000

> <Gold.PLP.part.buried>
3.0361

> <Gold.PLP.part.nonpolar>
-49.9684

> <Gold.PLP.part.repulsive>
0.8322

> <Gold.PLP.ligand.clash>
0.0000

> <Gold.PLP.ligand.torsion>
0.4904

> <Gold.PLP.Chemscore.Hbond>
1.0000

> <Gold.PLP.Chemscore.CHOScore>
0.0000

> <Gold.PLP.Chemscore.Metal>
0.0000

> <Gold.Chemscore.Hbonds>
donor molecule, donor type, donor heavy atom, donor atom, acceptor molecule, acceptor atom, score
      P1  H 10752 10763       L1     3  0.98

> <Gold.PLP.Chemscore.Internal.Correction>
0.0399

> <Gold.Rescore>
     Score         DG    S(hbond)    S(metal)    S(lipo)     H(rot)  DE(clash)    DE(int)     intcor
     11.60     -13.72       0.82        0.00     115.09       3.11       0.26       1.86       ----

> <Gold.Chemscore.Fitness>
11.6014

> <Gold.Chemscore.DG>
-13.7218

> <Gold.Chemscore.ZeroCoef>
-5.4800

> <Gold.Chemscore.Hbond>
0.8214

> <Gold.Chemscore.Metal>
0.0000

> <Gold.Chemscore.Lipo>
115.0892

> <Gold.Chemscore.Internal_Hbond>
0.0000

> <Gold.Chemscore.DEClash>
0.2590

> <Gold.Chemscore.DEInternal>
1.8614

> <Gold.Chemscore.Rot>
3.1121

> <Gold.Chemscore.Internal.Correction>
   9.000000E+99

> <Gold.Chemscore.Hbonds>
donor molecule, donor type, donor heavy atom, donor atom, acceptor molecule, acceptor atom, score
      P1  H 10752 10763       L1     3  0.86

> <Gold.Chemscore.Hbond.Weighted>
-2.7434

> <Gold.Chemscore.Metal.Weighted>
-0.0000

> <Gold.Chemscore.Lipo.Weighted>
-13.4654

> <Gold.Chemscore.Internal_Hbond.Weighted>
0.0000

> <Gold.Chemscore.DEClash.Weighted>
0.2590

> <Gold.Chemscore.DEInternal.Weighted>
1.8614

> <Gold.Chemscore.Rot.Weighted>
7.9670

> <Gold.Chemscore.Internal.Correction.Weighted>
   9.000000E+99

> <Gold.Protein.RotatedTorsions>
[ 6907 6896 6895 6894 ] final -148.30 input  -60.11 | X-H torsion
[ 7974 7965 7964 7962 ] final -150.10 input  175.53 | X-H torsion
[ 8008 7997 7996 7995 ] final  -71.51 input   59.86 | X-H torsion
[ 10167 10162 10161 10158 ] final  160.43 input  -65.29 | X-H torsion
[ 10718 10713 10712 10709 ] final    4.53 input   66.30 | X-H torsion
[ 10763 10752 10751 10750 ] final   45.16 input  -60.55 | X-H torsion
[ 11005 11000 10999 10996 ] final  112.70 input  -57.11 | X-H torsion

> <Gold.Protein.ActiveResidues>
 VAL166  LYS551  ARG553  GLY616  TRP617  ASP618  TYR619  PRO620  LYS621  CYS622 
 ASP623  PHE694  ASN695  SER759  ASP760  ASP761  ALA762  ILE779  LEU786  VAL792 
 PHE793  MET794  SER795  GLU796  ALA797  LYS798  CYS799  TRP800  GLU811  SER814 

> <Gold.Protein.RotatedAtoms>
  151.1679  133.4803  159.2593 H   0  0  0  0  0  0  0  0  0  0  0  0  # atno 6907 bound_to 6896
  151.1386  135.0167  159.8625 H   0  0  0  0  0  0  0  0  0  0  0  0  # atno 6908 bound_to 6896
  152.5462  134.1575  159.8597 H   0  0  0  0  0  0  0  0  0  0  0  0  # atno 6909 bound_to 6896
  144.7927  140.4976  143.5761 H   0  0  0  0  0  0  0  0  0  0  0  0  # atno 7974 bound_to 7965
  154.5093  140.0814  156.7958 H   0  0  0  0  0  0  0  0  0  0  0  0  # atno 8008 bound_to 7997
  155.3821  140.3428  155.4229 H   0  0  0  0  0  0  0  0  0  0  0  0  # atno 8009 bound_to 7997
  156.1554  140.1571  156.8688 H   0  0  0  0  0  0  0  0  0  0  0  0  # atno 8010 bound_to 7997
  139.4840  144.4635  151.8673 H   0  0  0  0  0  0  0  0  0  0  0  0  # atno 10167 bound_to 10162
  156.8939  130.5697  149.5649 H   0  0  0  0  0  0  0  0  0  0  0  0  # atno 10718 bound_to 10713
  152.9829  135.6048  154.3392 H   0  0  0  0  0  0  0  0  0  0  0  0  # atno 10763 bound_to 10752
  154.3090  135.2771  155.2577 H   0  0  0  0  0  0  0  0  0  0  0  0  # atno 10764 bound_to 10752
  154.4795  135.5921  153.6435 H   0  0  0  0  0  0  0  0  0  0  0  0  # atno 10765 bound_to 10752
  139.8934  134.9535  156.6626 H   0  0  0  0  0  0  0  0  0  0  0  0  # atno 11005 bound_to 11000
  145.5752  139.1485  143.3266 LP  0  0  0  0  0  0  0  0  0  0  0  0  # atno 17320 bound_to 7965
  146.2185  140.5883  142.9027 LP  0  0  0  0  0  0  0  0  0  0  0  0  # atno 17321 bound_to 7965
  140.4099  144.2383  150.5889 LP  0  0  0  0  0  0  0  0  0  0  0  0  # atno 17342 bound_to 10162
  140.4977  143.2327  151.8726 LP  0  0  0  0  0  0  0  0  0  0  0  0  # atno 17343 bound_to 10162
  156.0615  130.5667  150.9202 LP  0  0  0  0  0  0  0  0  0  0  0  0  # atno 17370 bound_to 10713
  157.6067  131.0938  150.8867 LP  0  0  0  0  0  0  0  0  0  0  0  0  # atno 17371 bound_to 10713
  140.7435  133.8957  155.8295 LP  0  0  0  0  0  0  0  0  0  0  0  0  # atno 17394 bound_to 11000
  141.0058  134.1088  157.4271 LP  0  0  0  0  0  0  0  0  0  0  0  0  # atno 17395 bound_to 11000

$$$$
