AV-unprocessed.smi:730|AV-procd|sdf|3525|dock3
  -GOLD-   22720 0513D 1   1.00000     0.00000
 Structure written by MMmdl.
 40 41  0  0  0  0  0  0  0  0  1 V2000
  147.4364  133.9256  162.1281 C   0  0  0  0  0  0  0  0  0  0  0  0
  147.0640  135.4214  162.0946 C   0  0  0  0  0  0  0  0  0  0  0  0
  145.5298  135.5414  162.1579 C   0  0  0  0  0  0  0  0  0  0  0  0
  147.6771  136.1017  163.3329 C   0  0  0  0  0  0  0  0  0  0  0  0
  147.5787  136.0731  160.8412 C   0  0  0  0  0  0  0  0  0  0  0  0
  147.3218  135.8889  159.5094 C   0  0  0  0  0  0  0  0  0  0  0  0
  148.1574  136.8489  158.8801 C   0  0  0  0  0  0  0  0  0  0  0  0
  148.1833  136.9772  157.4679 N   0  0  0  0  0  0  0  0  0  0  0  0
  148.2463  138.1114  156.7499 C   0  0  0  0  0  0  0  0  0  0  0  0
  148.2727  139.2489  157.2207 O   0  0  0  0  0  0  0  0  0  0  0  0
  148.2797  137.8541  155.4344 N   0  0  0  0  0  0  0  0  0  0  0  0
  148.3511  138.8656  154.3818 C   0  0  1  0  0  0  0  0  0  0  0  0
  146.9893  139.5661  154.2122 C   0  0  0  0  0  0  0  0  0  0  0  0
  147.1125  140.8873  154.9690 C   0  0  0  0  0  0  0  0  0  0  0  0
  148.5637  141.2974  154.7429 C   0  0  0  0  0  0  0  0  0  0  0  0
  149.3498  139.9793  154.7719 C   0  0  2  0  0  0  0  0  0  0  0  0
  150.4367  140.0428  153.8717 O   0  0  0  0  0  0  0  0  0  0  0  0
  148.8648  137.5580  159.7447 N   0  0  0  0  0  0  0  0  0  0  0  0
  148.4989  137.0657  161.0022 O   0  0  0  0  0  0  0  0  0  0  0  0
  147.0656  133.4428  163.0329 H   0  0  0  0  0  0  0  0  0  0  0  0
  148.5176  133.7833  162.1027 H   0  0  0  0  0  0  0  0  0  0  0  0
  147.0134  133.3904  161.2769 H   0  0  0  0  0  0  0  0  0  0  0  0
  145.0598  135.0636  161.2973 H   0  0  0  0  0  0  0  0  0  0  0  0
  145.2104  136.5842  162.1682 H   0  0  0  0  0  0  0  0  0  0  0  0
  145.1292  135.0698  163.0558 H   0  0  0  0  0  0  0  0  0  0  0  0
  147.3283  135.6376  164.2563 H   0  0  0  0  0  0  0  0  0  0  0  0
  147.4135  137.1590  163.3803 H   0  0  0  0  0  0  0  0  0  0  0  0
  148.7656  136.0353  163.3225 H   0  0  0  0  0  0  0  0  0  0  0  0
  146.6433  135.1801  159.0585 H   0  0  0  0  0  0  0  0  0  0  0  0
  148.1591  136.1120  156.9493 H   0  0  0  0  0  0  0  0  0  0  0  0
  148.2556  136.8901  155.1361 H   0  0  0  0  0  0  0  0  0  0  0  0
  148.6410  138.3914  153.4415 H   0  0  0  0  0  0  0  0  0  0  0  0
  146.8251  139.7759  153.1544 H   0  0  0  0  0  0  0  0  0  0  0  0
  146.1425  138.9694  154.5537 H   0  0  0  0  0  0  0  0  0  0  0  0
  146.4034  141.6391  154.6216 H   0  0  0  0  0  0  0  0  0  0  0  0
  146.9351  140.7232  156.0326 H   0  0  0  0  0  0  0  0  0  0  0  0
  148.6463  141.7691  153.7621 H   0  0  0  0  0  0  0  0  0  0  0  0
  148.9192  142.0145  155.4833 H   0  0  0  0  0  0  0  0  0  0  0  0
  149.7416  139.8157  155.7773 H   0  0  0  0  0  0  0  0  0  0  0  0
  150.1297  139.7931  153.0135 H   0  0  0  0  0  0  0  0  0  0  0  0
  1  2  1  0  0  0  0
  1 20  1  0  0  0  0
  1 21  1  0  0  0  0
  1 22  1  0  0  0  0
  2  3  1  0  0  0  0
  2  4  1  0  0  0  0
  2  5  1  0  0  0  0
  3 23  1  0  0  0  0
  3 24  1  0  0  0  0
  3 25  1  0  0  0  0
  4 26  1  0  0  0  0
  4 27  1  0  0  0  0
  4 28  1  0  0  0  0
  5 19  1  0  0  0  0
  5  6  2  0  0  0  0
  6  7  1  0  0  0  0
  6 29  1  0  0  0  0
  7  8  1  0  0  0  0
  7 18  2  0  0  0  0
  8  9  1  0  0  0  0
  8 30  1  0  0  0  0
  9 10  2  0  0  0  0
  9 11  1  0  0  0  0
 11 12  1  0  0  0  0
 11 31  1  0  0  0  0
 12 16  1  0  0  0  0
 12 13  1  0  0  0  0
 12 32  1  0  0  0  0
 13 14  1  0  0  0  0
 13 33  1  0  0  0  0
 13 34  1  0  0  0  0
 14 15  1  0  0  0  0
 14 35  1  0  0  0  0
 14 36  1  0  0  0  0
 15 16  1  0  0  0  0
 15 37  1  0  0  0  0
 15 38  1  0  0  0  0
 16 17  1  0  0  0  0
 16 39  1  0  0  0  0
 17 40  1  0  0  0  0
 18 19  1  0  0  0  0
M  END
> <s_m_source_file>
AV-unprocessed.smi

> <i_m_source_file_index>
730

> <i_lp_mmshare_version>
43012

> <i_f3d_flags>
0

> <s_epik_input>
W0NIM11DKFtDSDNdKShbQ0gzXSljMVtjSF1jKG5vMSlbTkhdQyg9TylbTkhdW0NAQEhdMltDSDJdW0NIMl1bQ0gyXVtDQEhdMltPSF0=

> <s_epik_cmdline>
J2VwaWtfcHl0aG9uJywgJy1waCcsICc3LjAnLCAnLXRuJywgJzgnLCAnLW1hJywgJzIwMCcsICctbWV0YWxfYmluZGluZycsICctaW1hZScsICc8aW5maWxlLm1hZT4nLCAnLW9tYWUnLCAnPG91dGZpbGUubWFlPic=

> <r_lp_tautomer_probability>
1

> <r_epik_Ionization_Penalty>
2.23071e-05

> <r_epik_Ionization_Penalty_Charging>
0

> <r_epik_Ionization_Penalty_Neutral>
2.23071e-05

> <r_epik_State_Penalty>
-0

> <r_epik_Charging_Adjusted_Penalty>
0

> <i_epik_Tot_Q>
0

> <i_epik_Tot_abs_Q>
0

> <r_epik_Metal_State_Penalty>
-0

> <b_epik_Metal_Only>
0

> <s_lp_Force_Field>
OPLS_2005

> <r_lp_Energy>
16.5613

> <b_lp_Chiralities_Consistent>
1

> <s_lp_Variant>
AV-unprocessed.smi:730-4

> <Gold.Version>
5.8.1

> <Gold.Id.Protein>
6NUR|6NUR_protein|mol2

> <Gold.PLP.Fitness>
37.3138

> <Gold.PLP.PLP>
-29.5044

> <Gold.PLP.part.hbond>
-5.4851

> <Gold.PLP.part.metal>
0.0000

> <Gold.PLP.part.buried>
-2.7957

> <Gold.PLP.part.nonpolar>
-21.4975

> <Gold.PLP.part.repulsive>
0.0122

> <Gold.PLP.ligand.clash>
0.0000

> <Gold.PLP.ligand.torsion>
0.5469

> <Gold.PLP.Chemscore.Hbond>
2.9649

> <Gold.PLP.Chemscore.CHOScore>
0.0000

> <Gold.PLP.Chemscore.Metal>
0.0000

> <Gold.Chemscore.Hbonds>
donor molecule, donor type, donor heavy atom, donor atom, acceptor molecule, acceptor atom, score
      L1  H    17    40       P1  7957  1.00
      P1  H  6931  6943       L1    19  0.95
      P1  H  7989  7998       L1    17  0.83

> <Gold.PLP.Chemscore.Internal.Correction>
0.0085

> <Gold.Rescore>
     Score         DG    S(hbond)    S(metal)    S(lipo)     H(rot)  DE(clash)    DE(int)     intcor
     13.92     -16.96       2.22        0.00      72.15       1.71       0.13       2.91       ----

> <Gold.Chemscore.Fitness>
13.9183

> <Gold.Chemscore.DG>
-16.9594

> <Gold.Chemscore.ZeroCoef>
-5.4800

> <Gold.Chemscore.Hbond>
2.2221

> <Gold.Chemscore.Metal>
0.0000

> <Gold.Chemscore.Lipo>
72.1511

> <Gold.Chemscore.Internal_Hbond>
0.0000

> <Gold.Chemscore.DEClash>
0.1276

> <Gold.Chemscore.DEInternal>
2.9135

> <Gold.Chemscore.Rot>
1.7125

> <Gold.Chemscore.Internal.Correction>
   9.000000E+99

> <Gold.Chemscore.Hbonds>
donor molecule, donor type, donor heavy atom, donor atom, acceptor molecule, acceptor atom, score
      L1  H    17    40       P1  7957  0.98
      P1  H  6931  6943       L1    19  0.20
      P1  H  7989  7998       L1    17  0.18

> <Gold.Chemscore.Hbond.Weighted>
-7.4218

> <Gold.Chemscore.Metal.Weighted>
-0.0000

> <Gold.Chemscore.Lipo.Weighted>
-8.4417

> <Gold.Chemscore.Internal_Hbond.Weighted>
0.0000

> <Gold.Chemscore.DEClash.Weighted>
0.1276

> <Gold.Chemscore.DEInternal.Weighted>
2.9135

> <Gold.Chemscore.Rot.Weighted>
4.3841

> <Gold.Chemscore.Internal.Correction.Weighted>
   9.000000E+99

> <Gold.Protein.RotatedTorsions>
[ 6907 6896 6895 6894 ] final  146.82 input  -60.11 | X-H torsion
[ 7974 7965 7964 7962 ] final -152.74 input  175.53 | X-H torsion
[ 8008 7997 7996 7995 ] final -156.70 input   59.86 | X-H torsion
[ 10167 10162 10161 10158 ] final  160.98 input  -65.29 | X-H torsion
[ 10718 10713 10712 10709 ] final  -12.15 input   66.30 | X-H torsion
[ 10763 10752 10751 10750 ] final   81.70 input  -60.55 | X-H torsion
[ 11005 11000 10999 10996 ] final -113.96 input  -57.11 | X-H torsion

> <Gold.Protein.ActiveResidues>
 VAL166  LYS551  ARG553  GLY616  TRP617  ASP618  TYR619  PRO620  LYS621  CYS622 
 ASP623  PHE694  ASN695  SER759  ASP760  ASP761  ALA762  ILE779  LEU786  VAL792 
 PHE793  MET794  SER795  GLU796  ALA797  LYS798  CYS799  TRP800  GLU811  SER814 

> <Gold.Protein.RotatedAtoms>
  152.1629  133.4593  159.4869 H   0  0  0  0  0  0  0  0  0  0  0  0  # atno 6907 bound_to 6896
  150.6909  134.2049  159.4345 H   0  0  0  0  0  0  0  0  0  0  0  0  # atno 6908 bound_to 6896
  151.9952  134.9958  160.0613 H   0  0  0  0  0  0  0  0  0  0  0  0  # atno 6909 bound_to 6896
  144.7778  140.4621  143.5861 H   0  0  0  0  0  0  0  0  0  0  0  0  # atno 7974 bound_to 7965
  155.7212  140.0790  157.2330 H   0  0  0  0  0  0  0  0  0  0  0  0  # atno 8008 bound_to 7997
  154.4045  140.1612  156.2459 H   0  0  0  0  0  0  0  0  0  0  0  0  # atno 8009 bound_to 7997
  155.9194  140.3398  155.6164 H   0  0  0  0  0  0  0  0  0  0  0  0  # atno 8010 bound_to 7997
  139.4845  144.4581  151.8741 H   0  0  0  0  0  0  0  0  0  0  0  0  # atno 10167 bound_to 10162
  156.6488  130.4949  149.6069 H   0  0  0  0  0  0  0  0  0  0  0  0  # atno 10718 bound_to 10713
  153.1139  135.4755  154.9083 H   0  0  0  0  0  0  0  0  0  0  0  0  # atno 10763 bound_to 10752
  154.7509  135.3106  154.8562 H   0  0  0  0  0  0  0  0  0  0  0  0  # atno 10764 bound_to 10752
  153.9143  135.6862  153.4803 H   0  0  0  0  0  0  0  0  0  0  0  0  # atno 10765 bound_to 10752
  141.0582  133.9578  157.2715 H   0  0  0  0  0  0  0  0  0  0  0  0  # atno 11005 bound_to 11000
  145.6137  139.1516  143.3061 LP  0  0  0  0  0  0  0  0  0  0  0  0  # atno 17320 bound_to 7965
  146.1968  140.6251  142.9120 LP  0  0  0  0  0  0  0  0  0  0  0  0  # atno 17321 bound_to 7965
  140.4042  144.2454  150.5891 LP  0  0  0  0  0  0  0  0  0  0  0  0  # atno 17342 bound_to 10162
  140.5028  143.2313  151.8652 LP  0  0  0  0  0  0  0  0  0  0  0  0  # atno 17343 bound_to 10162
  156.2101  130.6673  151.1260 LP  0  0  0  0  0  0  0  0  0  0  0  0  # atno 17370 bound_to 10713
  157.7147  131.0716  150.6369 LP  0  0  0  0  0  0  0  0  0  0  0  0  # atno 17371 bound_to 10713
  139.9409  135.0191  156.8704 LP  0  0  0  0  0  0  0  0  0  0  0  0  # atno 17394 bound_to 11000
  140.5922  134.0251  155.7504 LP  0  0  0  0  0  0  0  0  0  0  0  0  # atno 17395 bound_to 11000

$$$$
