AV-unprocessed.smi:1645|AV-procd|sdf|6623|dock7
  -GOLD-   22720 7323D 1   1.00000     0.00000
 Structure written by MMmdl.
 55 58  0  0  0  0  0  0  0  0  4 V2000
  148.9373  135.9804  158.0649 O   0  0  0  0  0  0  0  0  0  0  0  0
  148.4673  136.2821  156.9618 C   0  0  0  0  0  0  0  0  0  0  0  0
  148.7389  137.4795  156.4133 N   0  0  0  0  0  0  0  0  0  0  0  0
  149.4610  138.5704  156.9664 C   0  0  0  0  0  0  0  0  0  0  0  0
  149.9276  138.6095  158.3019 C   0  0  0  0  0  0  0  0  0  0  0  0
  150.6105  139.7516  158.7672 C   0  0  0  0  0  0  0  0  0  0  0  0
  150.8186  140.8555  157.9018 C   0  0  0  0  0  0  0  0  0  0  0  0
  151.4833  142.0432  158.2843 N   0  0  0  0  0  0  0  0  0  0  0  0
  151.7529  142.2047  159.7169 C   0  0  0  0  0  0  0  0  0  0  0  0
  152.8237  143.2794  159.9719 C   0  0  0  0  0  0  0  0  0  0  0  0
  152.4579  144.6005  159.2817 C   0  0  0  0  0  0  0  0  0  0  0  0
  152.2291  144.3581  157.7839 C   0  0  0  0  0  0  0  0  0  0  0  0
  151.1659  143.2710  157.5520 C   0  0  0  0  0  0  0  0  0  0  0  0
  150.3365  140.7718  156.6377 N   0  3  0  0  0  0  0  0  0  0  0  0
  149.6761  139.6988  156.1517 C   0  0  0  0  0  0  0  0  0  0  0  0
  147.6769  135.5180  156.1610 N   0  5  0  0  0  0  0  0  0  0  0  0
  147.9936  135.1559  154.7777 C   0  0  1  0  0  0  0  0  0  0  0  0
  148.5459  133.7209  154.6701 C   0  0  0  0  0  0  0  0  0  0  0  0
  147.9874  133.1606  153.3478 C   0  0  0  0  0  0  0  0  0  0  0  0
  147.1513  134.2376  152.7833 N   0  3  1  0  0  0  0  0  0  0  0  0
  146.0249  133.8348  151.9126 C   0  0  0  0  0  0  0  0  0  0  0  0
  145.3508  135.0965  151.3367 C   0  0  0  0  0  0  0  0  0  0  0  0
  144.9504  136.0916  152.4460 C   0  0  0  0  0  0  0  0  0  0  0  0
  146.1431  136.4071  153.3706 C   0  0  0  0  0  0  0  0  0  0  0  0
  146.7312  135.0866  153.9100 C   0  0  2  0  0  0  0  0  0  0  0  0
  148.4206  137.6033  155.4633 H   0  0  0  0  0  0  0  0  0  0  0  0
  149.7611  137.7890  158.9830 H   0  0  0  0  0  0  0  0  0  0  0  0
  150.9656  139.7521  159.7863 H   0  0  0  0  0  0  0  0  0  0  0  0
  150.8234  142.4815  160.2157 H   0  0  0  0  0  0  0  0  0  0  0  0
  152.0871  141.2729  160.1722 H   0  0  0  0  0  0  0  0  0  0  0  0
  152.9435  143.4379  161.0440 H   0  0  0  0  0  0  0  0  0  0  0  0
  153.7883  142.9291  159.6017 H   0  0  0  0  0  0  0  0  0  0  0  0
  151.5560  145.0172  159.7315 H   0  0  0  0  0  0  0  0  0  0  0  0
  153.2506  145.3348  159.4289 H   0  0  0  0  0  0  0  0  0  0  0  0
  151.9263  145.2851  157.2965 H   0  0  0  0  0  0  0  0  0  0  0  0
  153.1676  144.0552  157.3173 H   0  0  0  0  0  0  0  0  0  0  0  0
  151.1122  143.0704  156.4816 H   0  0  0  0  0  0  0  0  0  0  0  0
  150.1856  143.6308  157.8674 H   0  0  0  0  0  0  0  0  0  0  0  0
  149.3453  139.7750  155.1259 H   0  0  0  0  0  0  0  0  0  0  0  0
  148.6997  135.8444  154.3100 H   0  0  0  0  0  0  0  0  0  0  0  0
  149.6362  133.7138  154.6890 H   0  0  0  0  0  0  0  0  0  0  0  0
  148.2023  133.0980  155.4978 H   0  0  0  0  0  0  0  0  0  0  0  0
  148.7769  132.8871  152.6467 H   0  0  0  0  0  0  0  0  0  0  0  0
  147.3852  132.2708  153.5410 H   0  0  0  0  0  0  0  0  0  0  0  0
  146.3942  133.2028  151.1043 H   0  0  0  0  0  0  0  0  0  0  0  0
  145.3076  133.2438  152.4842 H   0  0  0  0  0  0  0  0  0  0  0  0
  146.0380  135.5877  150.6464 H   0  0  0  0  0  0  0  0  0  0  0  0
  144.4747  134.8174  150.7506 H   0  0  0  0  0  0  0  0  0  0  0  0
  144.5640  137.0107  152.0048 H   0  0  0  0  0  0  0  0  0  0  0  0
  144.1375  135.6671  153.0364 H   0  0  0  0  0  0  0  0  0  0  0  0
  146.8937  136.9711  152.8135 H   0  0  0  0  0  0  0  0  0  0  0  0
  145.8123  137.0482  154.1897 H   0  0  0  0  0  0  0  0  0  0  0  0
  145.9537  134.5522  154.4619 H   0  0  0  0  0  0  0  0  0  0  0  0
  147.7714  134.8087  152.2270 H   0  0  0  0  0  0  0  0  0  0  0  0
  150.4761  141.5681  156.0161 H   0  0  0  0  0  0  0  0  0  0  0  0
  1  2  2  0  0  0  0
  2  3  1  0  0  0  0
  2 16  1  0  0  0  0
  3  4  1  0  0  0  0
  3 26  1  0  0  0  0
  4 15  1  0  0  0  0
  4  5  2  0  0  0  0
  5  6  1  0  0  0  0
  5 27  1  0  0  0  0
  6  7  2  0  0  0  0
  6 28  1  0  0  0  0
  7  8  1  0  0  0  0
  7 14  1  0  0  0  0
  8 13  1  0  0  0  0
  8  9  1  0  0  0  0
  9 10  1  0  0  0  0
  9 29  1  0  0  0  0
  9 30  1  0  0  0  0
 10 11  1  0  0  0  0
 10 31  1  0  0  0  0
 10 32  1  0  0  0  0
 11 12  1  0  0  0  0
 11 33  1  0  0  0  0
 11 34  1  0  0  0  0
 12 13  1  0  0  0  0
 12 35  1  0  0  0  0
 12 36  1  0  0  0  0
 13 37  1  0  0  0  0
 13 38  1  0  0  0  0
 14 15  2  0  0  0  0
 14 55  1  0  0  0  0
 15 39  1  0  0  0  0
 16 17  1  0  0  0  0
 17 25  1  0  0  0  0
 17 18  1  0  0  0  0
 17 40  1  0  0  0  0
 18 19  1  0  0  0  0
 18 41  1  0  0  0  0
 18 42  1  0  0  0  0
 19 20  1  0  0  0  0
 19 43  1  0  0  0  0
 19 44  1  0  0  0  0
 20 25  1  0  0  0  0
 20 21  1  0  0  0  0
 20 54  1  0  0  0  0
 21 22  1  0  0  0  0
 21 45  1  0  0  0  0
 21 46  1  0  0  0  0
 22 23  1  0  0  0  0
 22 47  1  0  0  0  0
 22 48  1  0  0  0  0
 23 24  1  0  0  0  0
 23 49  1  0  0  0  0
 23 50  1  0  0  0  0
 24 25  1  0  0  0  0
 24 51  1  0  0  0  0
 24 52  1  0  0  0  0
 25 53  1  0  0  0  0
M  CHG  1  14   1
M  CHG  1  16  -1
M  CHG  1  20   1
M  END
> <s_m_source_file>
AV-unprocessed.smi

> <i_m_source_file_index>
1645

> <i_lp_mmshare_version>
43012

> <i_f3d_flags>
0

> <s_epik_input>
W0NIMl0xW0NIMl1bQ0gyXVtDSDJdW0NASF0oTjEyKVtDQEBIXShbQ0gyXVtDSDJdMilbTkhdQyg9TylbTkhdYzNbY0hdW2NIXWMobltjSF0zKU40W0NIMl1bQ0gyXVtDSDJdW0NIMl1bQ0gyXTQ=

> <s_epik_cmdline>
J2VwaWtfcHl0aG9uJywgJy1waCcsICc3LjAnLCAnLXRuJywgJzgnLCAnLW1hJywgJzIwMCcsICctbWV0YWxfYmluZGluZycsICctaW1hZScsICc8aW5maWxlLm1hZT4nLCAnLW9tYWUnLCAnPG91dGZpbGUubWFlPic=

> <r_lp_tautomer_probability>
0.999994

> <r_epik_Ionization_Penalty>
8.55589

> <r_epik_Ionization_Penalty_Charging>
8.55589

> <r_epik_Ionization_Penalty_Neutral>
3.8092e-06

> <r_epik_State_Penalty>
8.15703

> <r_epik_Charging_Adjusted_Penalty>
16.7129

> <i_epik_Tot_Q>
1

> <i_epik_Tot_abs_Q>
3

> <r_epik_Metal_State_Penalty>
4.13781

> <b_epik_Metal_Only>
1

> <s_lp_Force_Field>
OPLS_2005

> <r_lp_Energy>
51.9528

> <b_lp_Chiralities_Consistent>
1

> <s_lp_Variant>
AV-unprocessed.smi:1645-24

> <Gold.Version>
5.8.1

> <Gold.Id.Protein>
6NUR|6NUR_protein|mol2

> <Gold.PLP.Fitness>
47.4201

> <Gold.PLP.PLP>
-40.7531

> <Gold.PLP.part.hbond>
-2.0000

> <Gold.PLP.part.metal>
0.0000

> <Gold.PLP.part.buried>
-4.2856

> <Gold.PLP.part.nonpolar>
-34.4563

> <Gold.PLP.part.repulsive>
0.0664

> <Gold.PLP.ligand.clash>
0.0000

> <Gold.PLP.ligand.torsion>
0.9956

> <Gold.PLP.Chemscore.Hbond>
2.7840

> <Gold.PLP.Chemscore.CHOScore>
0.0000

> <Gold.PLP.Chemscore.Metal>
0.0000

> <Gold.Chemscore.Hbonds>
donor molecule, donor type, donor heavy atom, donor atom, acceptor molecule, acceptor atom, score
      L1  H    20    54       P1  7948  2.00

> <Gold.PLP.Chemscore.Internal.Correction>
0.3062

> <Gold.Rescore>
     Score         DG    S(hbond)    S(metal)    S(lipo)     H(rot)  DE(clash)    DE(int)     intcor
     18.59     -20.60       1.78        0.00     100.26       1.00       0.02       1.99       ----

> <Gold.Chemscore.Fitness>
18.5939

> <Gold.Chemscore.DG>
-20.5997

> <Gold.Chemscore.ZeroCoef>
-5.4800

> <Gold.Chemscore.Hbond>
1.7812

> <Gold.Chemscore.Metal>
0.0000

> <Gold.Chemscore.Lipo>
100.2599

> <Gold.Chemscore.Internal_Hbond>
0.0000

> <Gold.Chemscore.DEClash>
0.0165

> <Gold.Chemscore.DEInternal>
1.9893

> <Gold.Chemscore.Rot>
1.0000

> <Gold.Chemscore.Internal.Correction>
   9.000000E+99

> <Gold.Chemscore.Hbonds>
donor molecule, donor type, donor heavy atom, donor atom, acceptor molecule, acceptor atom, score
      L1  H    20    54       P1  7948  0.74

> <Gold.Chemscore.Hbond.Weighted>
-5.9493

> <Gold.Chemscore.Metal.Weighted>
-0.0000

> <Gold.Chemscore.Lipo.Weighted>
-11.7304

> <Gold.Chemscore.Internal_Hbond.Weighted>
0.0000

> <Gold.Chemscore.DEClash.Weighted>
0.0165

> <Gold.Chemscore.DEInternal.Weighted>
1.9893

> <Gold.Chemscore.Rot.Weighted>
2.5600

> <Gold.Chemscore.Internal.Correction.Weighted>
   9.000000E+99

> <Gold.Protein.RotatedTorsions>
[ 6907 6896 6895 6894 ] final   50.80 input  -60.11 | X-H torsion
[ 7974 7965 7964 7962 ] final  -79.55 input  175.53 | X-H torsion
[ 8008 7997 7996 7995 ] final   46.25 input   59.86 | X-H torsion
[ 10167 10162 10161 10158 ] final  -31.10 input  -65.29 | X-H torsion
[ 10718 10713 10712 10709 ] final -169.41 input   66.30 | X-H torsion
[ 10763 10752 10751 10750 ] final   89.09 input  -60.55 | X-H torsion
[ 11005 11000 10999 10996 ] final   13.98 input  -57.11 | X-H torsion

> <Gold.Protein.ActiveResidues>
 VAL166  LYS551  ARG553  GLY616  TRP617  ASP618  TYR619  PRO620  LYS621  CYS622 
 ASP623  PHE694  ASN695  SER759  ASP760  ASP761  ALA762  ILE779  LEU786  VAL792 
 PHE793  MET794  SER795  GLU796  ALA797  LYS798  CYS799  TRP800  GLU811  SER814 

> <Gold.Protein.RotatedAtoms>
  152.3058  134.7557  160.0347 H   0  0  0  0  0  0  0  0  0  0  0  0  # atno 6907 bound_to 6896
  151.8055  133.3370  159.3548 H   0  0  0  0  0  0  0  0  0  0  0  0  # atno 6908 bound_to 6896
  150.7295  134.5643  159.5902 H   0  0  0  0  0  0  0  0  0  0  0  0  # atno 6909 bound_to 6896
  145.5717  140.9465  143.1392 H   0  0  0  0  0  0  0  0  0  0  0  0  # atno 7974 bound_to 7965
  155.3494  140.3412  155.4239 H   0  0  0  0  0  0  0  0  0  0  0  0  # atno 8008 bound_to 7997
  156.1772  140.1651  156.8377 H   0  0  0  0  0  0  0  0  0  0  0  0  # atno 8009 bound_to 7997
  154.5294  140.0748  156.8300 H   0  0  0  0  0  0  0  0  0  0  0  0  # atno 8010 bound_to 7997
  140.7241  143.3797  151.1624 H   0  0  0  0  0  0  0  0  0  0  0  0  # atno 10167 bound_to 10162
  156.7111  130.9233  151.3089 H   0  0  0  0  0  0  0  0  0  0  0  0  # atno 10718 bound_to 10713
  153.1835  135.4483  155.0058 H   0  0  0  0  0  0  0  0  0  0  0  0  # atno 10763 bound_to 10752
  154.8045  135.3269  154.7468 H   0  0  0  0  0  0  0  0  0  0  0  0  # atno 10764 bound_to 10752
  153.7930  135.6968  153.4923 H   0  0  0  0  0  0  0  0  0  0  0  0  # atno 10765 bound_to 10752
  140.4747  134.0995  155.7739 H   0  0  0  0  0  0  0  0  0  0  0  0  # atno 11005 bound_to 11000
  144.7435  139.7385  143.7301 LP  0  0  0  0  0  0  0  0  0  0  0  0  # atno 17320 bound_to 7965
  146.1779  139.4958  142.9885 LP  0  0  0  0  0  0  0  0  0  0  0  0  # atno 17321 bound_to 7965
  139.7383  143.8964  152.3042 LP  0  0  0  0  0  0  0  0  0  0  0  0  # atno 17342 bound_to 10162
  139.8776  144.7035  150.8914 LP  0  0  0  0  0  0  0  0  0  0  0  0  # atno 17343 bound_to 10162
  157.6936  130.9258  150.0581 LP  0  0  0  0  0  0  0  0  0  0  0  0  # atno 17370 bound_to 10713
  156.1661  130.3645  149.9231 LP  0  0  0  0  0  0  0  0  0  0  0  0  # atno 17371 bound_to 10713
  141.1560  133.8882  157.1976 LP  0  0  0  0  0  0  0  0  0  0  0  0  # atno 17394 bound_to 11000
  139.9863  135.0081  156.9871 LP  0  0  0  0  0  0  0  0  0  0  0  0  # atno 17395 bound_to 11000

$$$$
