AV-unprocessed.smi:609|AV-procd|sdf|3047|dock2
  -GOLD-   2262023563D 1   1.00000     0.00000
 Structure written by MMmdl.
 42 44  0  0  0  0  0  0  0  0  1 V2000
  152.9702  143.0612  161.2631 C   0  0  0  0  0  0  0  0  0  0  0  0
  152.2585  142.6872  159.9749 C   0  0  0  0  0  0  0  0  0  0  0  0
  152.2589  141.3374  159.5565 C   0  0  0  0  0  0  0  0  0  0  0  0
  151.6058  140.9476  158.3667 C   0  0  0  0  0  0  0  0  0  0  0  0
  151.4802  139.7014  157.7772 N   0  0  0  0  0  0  0  0  0  0  0  0
  150.7628  139.9885  156.6946 C   0  0  0  0  0  0  0  0  0  0  0  0
  150.4097  141.2756  156.5125 N   0  0  0  0  0  0  0  0  0  0  0  0
  149.6347  141.8267  155.4155 C   0  0  0  0  0  0  0  0  0  0  0  0
  149.0216  140.7334  154.5201 C   0  0  2  0  0  0  0  0  0  0  0  0
  149.6206  140.7797  153.2387 O   0  0  0  0  0  0  0  0  0  0  0  0
  147.5007  140.8977  154.3734 C   0  0  0  0  0  0  0  0  0  0  0  0
  147.0585  142.4628  153.5575 S   0  0  0  0  0  0  0  0  0  0  0  0
  145.6445  142.9202  154.5160 C   0  0  0  0  0  0  0  0  0  0  0  0
  145.2889  142.3646  155.6721 N   0  0  0  0  0  0  0  0  0  0  0  0
  144.1321  143.0342  156.0554 C   0  0  0  0  0  0  0  0  0  0  0  0
  143.8224  143.9816  155.1107 C   0  0  0  0  0  0  0  0  0  0  0  0
  144.8017  143.8969  154.1297 N   0  0  0  0  0  0  0  0  0  0  0  0
  144.8812  144.7102  152.9320 C   0  0  0  0  0  0  0  0  0  0  0  0
  150.9487  141.9537  157.5999 C   0  0  0  0  0  0  0  0  0  0  0  0
  150.9424  143.3001  158.0046 C   0  0  0  0  0  0  0  0  0  0  0  0
  151.5979  143.6719  159.1970 C   0  0  0  0  0  0  0  0  0  0  0  0
  151.5814  145.1278  159.6284 C   0  0  0  0  0  0  0  0  0  0  0  0
  153.4521  142.1951  161.7179 H   0  0  0  0  0  0  0  0  0  0  0  0
  152.2621  143.4683  161.9852 H   0  0  0  0  0  0  0  0  0  0  0  0
  153.7403  143.8092  161.0729 H   0  0  0  0  0  0  0  0  0  0  0  0
  152.7611  140.5867  160.1489 H   0  0  0  0  0  0  0  0  0  0  0  0
  150.4744  139.2189  155.9936 H   0  0  0  0  0  0  0  0  0  0  0  0
  148.8481  142.4528  155.8385 H   0  0  0  0  0  0  0  0  0  0  0  0
  150.2766  142.4856  154.8288 H   0  0  0  0  0  0  0  0  0  0  0  0
  149.2329  139.7563  154.9565 H   0  0  0  0  0  0  0  0  0  0  0  0
  149.0670  140.3099  152.6337 H   0  0  0  0  0  0  0  0  0  0  0  0
  147.1010  140.0780  153.7753 H   0  0  0  0  0  0  0  0  0  0  0  0
  147.0196  140.8480  155.3512 H   0  0  0  0  0  0  0  0  0  0  0  0
  143.6181  142.7847  156.9719 H   0  0  0  0  0  0  0  0  0  0  0  0
  143.0087  144.6899  155.0568 H   0  0  0  0  0  0  0  0  0  0  0  0
  144.0508  145.4163  152.8998 H   0  0  0  0  0  0  0  0  0  0  0  0
  144.8361  144.0722  152.0490 H   0  0  0  0  0  0  0  0  0  0  0  0
  145.8185  145.2673  152.9256 H   0  0  0  0  0  0  0  0  0  0  0  0
  150.4345  144.0389  157.4025 H   0  0  0  0  0  0  0  0  0  0  0  0
  151.0389  145.7485  158.9144 H   0  0  0  0  0  0  0  0  0  0  0  0
  152.5974  145.5162  159.7038 H   0  0  0  0  0  0  0  0  0  0  0  0
  151.0964  145.2321  160.5992 H   0  0  0  0  0  0  0  0  0  0  0  0
  1  2  1  0  0  0  0
  1 23  1  0  0  0  0
  1 24  1  0  0  0  0
  1 25  1  0  0  0  0
  2 21  1  0  0  0  0
  2  3  2  0  0  0  0
  3  4  1  0  0  0  0
  3 26  1  0  0  0  0
  4 19  2  0  0  0  0
  4  5  1  0  0  0  0
  5  6  2  0  0  0  0
  6  7  1  0  0  0  0
  6 27  1  0  0  0  0
  7  8  1  0  0  0  0
  7 19  1  0  0  0  0
  8  9  1  0  0  0  0
  8 28  1  0  0  0  0
  8 29  1  0  0  0  0
  9 10  1  0  0  0  0
  9 11  1  0  0  0  0
  9 30  1  0  0  0  0
 10 31  1  0  0  0  0
 11 12  1  0  0  0  0
 11 32  1  0  0  0  0
 11 33  1  0  0  0  0
 12 13  1  0  0  0  0
 13 17  1  0  0  0  0
 13 14  2  0  0  0  0
 14 15  1  0  0  0  0
 15 16  2  0  0  0  0
 15 34  1  0  0  0  0
 16 17  1  0  0  0  0
 16 35  1  0  0  0  0
 17 18  1  0  0  0  0
 18 36  1  0  0  0  0
 18 37  1  0  0  0  0
 18 38  1  0  0  0  0
 19 20  1  0  0  0  0
 20 21  2  0  0  0  0
 20 39  1  0  0  0  0
 21 22  1  0  0  0  0
 22 40  1  0  0  0  0
 22 41  1  0  0  0  0
 22 42  1  0  0  0  0
M  END
> <s_m_source_file>
AV-unprocessed.smi

> <i_m_source_file_index>
609

> <i_lp_mmshare_version>
43012

> <i_f3d_flags>
0

> <s_epik_input>
W0NIM11jKFtjSF0xKWMoW0NIM10pW2NIXWMoYzEyKW4oW2NIXW4yKVtDSDJdW0NASF0oW09IXSlbQ0gyXVNjM25bY0hdW2NIXW4zW0NIM10=

> <s_epik_cmdline>
J2VwaWtfcHl0aG9uJywgJy1waCcsICc3LjAnLCAnLXRuJywgJzgnLCAnLW1hJywgJzIwMCcsICctbWV0YWxfYmluZGluZycsICctaW1hZScsICc8aW5maWxlLm1hZT4nLCAnLW9tYWUnLCAnPG91dGZpbGUubWFlPic=

> <r_lp_tautomer_probability>
1

> <r_epik_Ionization_Penalty>
1.15618

> <r_epik_Ionization_Penalty_Charging>
1.04908

> <r_epik_Ionization_Penalty_Neutral>
0.107097

> <r_epik_State_Penalty>
1.19446

> <r_epik_Charging_Adjusted_Penalty>
2.24354

> <i_epik_Tot_Q>
0

> <i_epik_Tot_abs_Q>
0

> <r_epik_Metal_State_Penalty>
0.487262

> <b_epik_Metal_Only>
0

> <s_lp_Force_Field>
OPLS_2005

> <r_lp_Energy>
8.2554

> <b_lp_Chiralities_Consistent>
1

> <s_lp_Variant>
AV-unprocessed.smi:609-3

> <Gold.Version>
5.8.1

> <Gold.Id.Protein>
6NUR|6NUR_protein|mol2

> <Gold.PLP.Fitness>
53.0065

> <Gold.PLP.PLP>
-50.7785

> <Gold.PLP.part.hbond>
-1.6113

> <Gold.PLP.part.metal>
0.0000

> <Gold.PLP.part.buried>
-6.1936

> <Gold.PLP.part.nonpolar>
-42.5033

> <Gold.PLP.part.repulsive>
0.1475

> <Gold.PLP.ligand.clash>
0.0000

> <Gold.PLP.ligand.torsion>
1.2417

> <Gold.PLP.Chemscore.Hbond>
1.5600

> <Gold.PLP.Chemscore.CHOScore>
0.0000

> <Gold.PLP.Chemscore.Metal>
0.0000

> <Gold.Chemscore.Hbonds>
donor molecule, donor type, donor heavy atom, donor atom, acceptor molecule, acceptor atom, score
      L1  H    10    31       P1  7957  0.37
      P1  H  7989  7998       L1    10  0.24
      P1  H  8011  8017       L1    10  1.00

> <Gold.PLP.Chemscore.Internal.Correction>
0.0313

> <Gold.Rescore>
     Score         DG    S(hbond)    S(metal)    S(lipo)     H(rot)  DE(clash)    DE(int)     intcor
     14.40     -16.00       0.80        0.00     119.88       2.41       0.30       1.31       ----

> <Gold.Chemscore.Fitness>
14.3986

> <Gold.Chemscore.DG>
-16.0024

> <Gold.Chemscore.ZeroCoef>
-5.4800

> <Gold.Chemscore.Hbond>
0.7963

> <Gold.Chemscore.Metal>
0.0000

> <Gold.Chemscore.Lipo>
119.8788

> <Gold.Chemscore.Internal_Hbond>
0.0000

> <Gold.Chemscore.DEClash>
0.2953

> <Gold.Chemscore.DEInternal>
1.3085

> <Gold.Chemscore.Rot>
2.4074

> <Gold.Chemscore.Internal.Correction>
   9.000000E+99

> <Gold.Chemscore.Hbonds>
donor molecule, donor type, donor heavy atom, donor atom, acceptor molecule, acceptor atom, score
      L1  H    10    31       P1  7957  0.37
      P1  H  7989  7998       L1    10  0.17
      P1  H  8011  8017       L1    10  0.25

> <Gold.Chemscore.Hbond.Weighted>
-2.6596

> <Gold.Chemscore.Metal.Weighted>
-0.0000

> <Gold.Chemscore.Lipo.Weighted>
-14.0258

> <Gold.Chemscore.Internal_Hbond.Weighted>
0.0000

> <Gold.Chemscore.DEClash.Weighted>
0.2953

> <Gold.Chemscore.DEInternal.Weighted>
1.3085

> <Gold.Chemscore.Rot.Weighted>
6.1630

> <Gold.Chemscore.Internal.Correction.Weighted>
   9.000000E+99

> <Gold.Protein.RotatedTorsions>
[ 6907 6896 6895 6894 ] final  -98.10 input  -60.11 | X-H torsion
[ 7974 7965 7964 7962 ] final  -46.03 input  175.53 | X-H torsion
[ 8008 7997 7996 7995 ] final -126.25 input   59.86 | X-H torsion
[ 10167 10162 10161 10158 ] final  -45.33 input  -65.29 | X-H torsion
[ 10718 10713 10712 10709 ] final   92.68 input   66.30 | X-H torsion
[ 10763 10752 10751 10750 ] final   30.95 input  -60.55 | X-H torsion
[ 11005 11000 10999 10996 ] final  -65.44 input  -57.11 | X-H torsion

> <Gold.Protein.ActiveResidues>
 VAL166  LYS551  ARG553  GLY616  TRP617  ASP618  TYR619  PRO620  LYS621  CYS622 
 ASP623  PHE694  ASN695  SER759  ASP760  ASP761  ALA762  ILE779  LEU786  VAL792 
 PHE793  MET794  SER795  GLU796  ALA797  LYS798  CYS799  TRP800  GLU811  SER814 

> <Gold.Protein.RotatedAtoms>
  150.7036  134.1246  159.4047 H   0  0  0  0  0  0  0  0  0  0  0  0  # atno 6907 bound_to 6896
  151.9232  135.0287  160.0533 H   0  0  0  0  0  0  0  0  0  0  0  0  # atno 6908 bound_to 6896
  152.2238  133.4969  159.5214 H   0  0  0  0  0  0  0  0  0  0  0  0  # atno 6909 bound_to 6896
  145.9761  140.7333  142.9387 H   0  0  0  0  0  0  0  0  0  0  0  0  # atno 7974 bound_to 7965
  155.2266  140.0424  157.2956 H   0  0  0  0  0  0  0  0  0  0  0  0  # atno 8008 bound_to 7997
  154.5915  140.2428  155.7884 H   0  0  0  0  0  0  0  0  0  0  0  0  # atno 8009 bound_to 7997
  156.2262  140.2953  156.0082 H   0  0  0  0  0  0  0  0  0  0  0  0  # atno 8010 bound_to 7997
  140.6862  143.2885  151.3623 H   0  0  0  0  0  0  0  0  0  0  0  0  # atno 10167 bound_to 10162
  157.6958  131.0451  150.3918 H   0  0  0  0  0  0  0  0  0  0  0  0  # atno 10718 bound_to 10713
  153.0343  135.6451  154.1124 H   0  0  0  0  0  0  0  0  0  0  0  0  # atno 10763 bound_to 10752
  154.0841  135.2871  155.3286 H   0  0  0  0  0  0  0  0  0  0  0  0  # atno 10764 bound_to 10752
  154.6510  135.5426  153.7965 H   0  0  0  0  0  0  0  0  0  0  0  0  # atno 10765 bound_to 10752
  141.1454  133.6681  156.5986 H   0  0  0  0  0  0  0  0  0  0  0  0  # atno 11005 bound_to 11000
  144.6849  140.2829  143.7289 LP  0  0  0  0  0  0  0  0  0  0  0  0  # atno 17320 bound_to 7965
  145.7837  139.1901  143.2143 LP  0  0  0  0  0  0  0  0  0  0  0  0  # atno 17321 bound_to 7965
  139.6223  144.0882  152.2402 LP  0  0  0  0  0  0  0  0  0  0  0  0  # atno 17342 bound_to 10162
  140.0331  144.6066  150.7472 LP  0  0  0  0  0  0  0  0  0  0  0  0  # atno 17343 bound_to 10162
  156.4321  130.3974  149.6753 LP  0  0  0  0  0  0  0  0  0  0  0  0  # atno 17370 bound_to 10713
  156.3967  130.7654  151.2659 LP  0  0  0  0  0  0  0  0  0  0  0  0  # atno 17371 bound_to 10713
  140.3706  134.7609  157.4596 LP  0  0  0  0  0  0  0  0  0  0  0  0  # atno 17394 bound_to 11000
  140.0713  134.5858  155.8639 LP  0  0  0  0  0  0  0  0  0  0  0  0  # atno 17395 bound_to 11000

$$$$
