AV-unprocessed.smi:1471|AV-procd|sdf|5962|dock9
  -GOLD-   22720 6 53D 1   1.00000     0.00000
 Structure written by MMmdl.
 42 43  0  0  0  0  0  0  0  0  1 V2000
  145.2704  144.8198  152.9720 C   0  0  0  0  0  0  0  0  0  0  0  0
  145.4893  143.7720  154.0293 C   0  0  0  0  0  0  0  0  0  0  0  0
  146.3989  142.8862  153.7893 N   0  0  0  0  0  0  0  0  0  0  0  0
  146.7072  141.8977  154.7058 N   0  0  0  0  0  0  0  0  0  0  0  0
  147.7993  141.0025  154.2832 C   0  0  0  0  0  0  0  0  0  0  0  0
  149.1336  141.2503  155.0269 C   0  0  2  0  0  0  0  0  0  0  0  0
  150.1909  140.6013  154.3520 O   0  0  0  0  0  0  0  0  0  0  0  0
  149.1507  140.8268  156.5068 C   0  0  0  0  0  0  0  0  0  0  0  0
  150.0897  141.6026  157.2385 O   0  0  0  0  0  0  0  0  0  0  0  0
  151.4213  141.1140  157.1554 C   0  0  0  0  0  0  0  0  0  0  0  0
  152.2106  141.3312  158.4369 C   0  0  0  0  0  0  0  0  0  0  0  0
  152.7448  140.2280  159.1367 C   0  0  0  0  0  0  0  0  0  0  0  0
  153.4832  140.4264  160.3193 C   0  0  0  0  0  0  0  0  0  0  0  0
  153.6794  141.7285  160.8166 C   0  0  0  0  0  0  0  0  0  0  0  0
  153.1387  142.8314  160.1289 C   0  0  0  0  0  0  0  0  0  0  0  0
  152.4120  142.6360  158.9381 C   0  0  0  0  0  0  0  0  0  0  0  0
  151.9141  143.7082  158.2767 F   0  0  0  0  0  0  0  0  0  0  0  0
  146.0633  141.7237  155.8970 C   0  0  0  0  0  0  0  0  0  0  0  0
  146.3402  140.8159  156.6818 O   0  0  0  0  0  0  0  0  0  0  0  0
  145.0193  142.7186  156.1527 C   0  0  0  0  0  0  0  0  0  0  0  0
  144.3236  142.5727  157.3907 C   0  0  0  0  0  0  0  0  0  0  0  0
  143.7618  142.4316  158.3931 N   0  0  0  0  0  0  0  0  0  0  0  0
  144.7374  143.7149  155.2772 C   0  0  0  0  0  0  0  0  0  0  0  0
  143.6770  144.7829  155.5061 C   0  0  0  0  0  0  0  0  0  0  0  0
  144.2660  144.7445  152.5551 H   0  0  0  0  0  0  0  0  0  0  0  0
  145.9785  144.7200  152.1477 H   0  0  0  0  0  0  0  0  0  0  0  0
  145.3915  145.8203  153.3874 H   0  0  0  0  0  0  0  0  0  0  0  0
  147.5316  139.9529  154.4121 H   0  0  0  0  0  0  0  0  0  0  0  0
  147.9509  141.1318  153.2106 H   0  0  0  0  0  0  0  0  0  0  0  0
  149.3665  142.3149  154.9844 H   0  0  0  0  0  0  0  0  0  0  0  0
  150.5391  139.9307  154.9198 H   0  0  0  0  0  0  0  0  0  0  0  0
  148.1560  140.9126  156.9475 H   0  0  0  0  0  0  0  0  0  0  0  0
  149.4243  139.7736  156.5614 H   0  0  0  0  0  0  0  0  0  0  0  0
  151.3718  140.0434  156.9562 H   0  0  0  0  0  0  0  0  0  0  0  0
  151.9456  141.5513  156.3039 H   0  0  0  0  0  0  0  0  0  0  0  0
  152.5955  139.2256  158.7634 H   0  0  0  0  0  0  0  0  0  0  0  0
  153.8966  139.5796  160.8469 H   0  0  0  0  0  0  0  0  0  0  0  0
  154.2443  141.8818  161.7244 H   0  0  0  0  0  0  0  0  0  0  0  0
  153.2906  143.8307  160.5093 H   0  0  0  0  0  0  0  0  0  0  0  0
  143.1427  144.6402  156.4448 H   0  0  0  0  0  0  0  0  0  0  0  0
  142.9386  144.7698  154.7037 H   0  0  0  0  0  0  0  0  0  0  0  0
  144.1348  145.7721  155.5378 H   0  0  0  0  0  0  0  0  0  0  0  0
  1  2  1  0  0  0  0
  1 25  1  0  0  0  0
  1 26  1  0  0  0  0
  1 27  1  0  0  0  0
  2 23  1  0  0  0  0
  2  3  2  0  0  0  0
  3  4  1  0  0  0  0
  4  5  1  0  0  0  0
  4 18  1  0  0  0  0
  5  6  1  0  0  0  0
  5 28  1  0  0  0  0
  5 29  1  0  0  0  0
  6  7  1  0  0  0  0
  6  8  1  0  0  0  0
  6 30  1  0  0  0  0
  7 31  1  0  0  0  0
  8  9  1  0  0  0  0
  8 32  1  0  0  0  0
  8 33  1  0  0  0  0
  9 10  1  0  0  0  0
 10 11  1  0  0  0  0
 10 34  1  0  0  0  0
 10 35  1  0  0  0  0
 11 16  1  0  0  0  0
 11 12  2  0  0  0  0
 12 13  1  0  0  0  0
 12 36  1  0  0  0  0
 13 14  2  0  0  0  0
 13 37  1  0  0  0  0
 14 15  1  0  0  0  0
 14 38  1  0  0  0  0
 15 16  2  0  0  0  0
 15 39  1  0  0  0  0
 16 17  1  0  0  0  0
 18 19  2  0  0  0  0
 18 20  1  0  0  0  0
 20 21  1  0  0  0  0
 20 23  2  0  0  0  0
 21 22  3  0  0  0  0
 23 24  1  0  0  0  0
 24 40  1  0  0  0  0
 24 41  1  0  0  0  0
 24 42  1  0  0  0  0
M  END
> <s_m_source_file>
AV-unprocessed.smi

> <i_m_source_file_index>
1471

> <i_lp_mmshare_version>
43012

> <i_f3d_flags>
0

> <s_epik_input>
TiNDYyhjMVtDSDNdKWMoPU8pbihuYzFbQ0gzXSlbQ0gyXVtDQEhdKFtPSF0pW0NIMl1PW0NIMl1jMltjSF1bY0hdW2NIXVtjSF1jMkY=

> <s_epik_cmdline>
J2VwaWtfcHl0aG9uJywgJy1waCcsICc3LjAnLCAnLXRuJywgJzgnLCAnLW1hJywgJzIwMCcsICctbWV0YWxfYmluZGluZycsICctaW1hZScsICc8aW5maWxlLm1hZT4nLCAnLW9tYWUnLCAnPG91dGZpbGUubWFlPic=

> <r_lp_tautomer_probability>
1

> <r_epik_Ionization_Penalty>
6.13319e-08

> <r_epik_Ionization_Penalty_Charging>
2.19172e-10

> <r_epik_Ionization_Penalty_Neutral>
6.11128e-08

> <r_epik_State_Penalty>
-0

> <r_epik_Charging_Adjusted_Penalty>
2.19172e-10

> <i_epik_Tot_Q>
0

> <i_epik_Tot_abs_Q>
0

> <r_epik_Metal_State_Penalty>
-0

> <b_epik_Metal_Only>
0

> <s_lp_Force_Field>
OPLS_2005

> <r_lp_Energy>
27.5477

> <b_lp_Chiralities_Consistent>
1

> <s_lp_Variant>
AV-unprocessed.smi:1471-1

> <Gold.Version>
5.8.1

> <Gold.Id.Protein>
6NUR|6NUR_protein|mol2

> <Gold.PLP.Fitness>
49.9171

> <Gold.PLP.PLP>
-49.0565

> <Gold.PLP.part.hbond>
-1.0000

> <Gold.PLP.part.metal>
0.0000

> <Gold.PLP.part.buried>
-6.2002

> <Gold.PLP.part.nonpolar>
-41.9543

> <Gold.PLP.part.repulsive>
0.3126

> <Gold.PLP.ligand.clash>
0.0000

> <Gold.PLP.ligand.torsion>
0.8848

> <Gold.PLP.Chemscore.Hbond>
0.8480

> <Gold.PLP.Chemscore.CHOScore>
0.0000

> <Gold.PLP.Chemscore.Metal>
0.0000

> <Gold.Chemscore.Hbonds>
donor molecule, donor type, donor heavy atom, donor atom, acceptor molecule, acceptor atom, score
      P1  H  7989  7998       L1     7  0.71

> <Gold.PLP.Chemscore.Internal.Correction>
0.0861

> <Gold.Rescore>
     Score         DG    S(hbond)    S(metal)    S(lipo)     H(rot)  DE(clash)    DE(int)     intcor
     11.45     -14.93       0.88        0.00     113.60       2.65       0.05       3.43       ----

> <Gold.Chemscore.Fitness>
11.4472

> <Gold.Chemscore.DG>
-14.9277

> <Gold.Chemscore.ZeroCoef>
-5.4800

> <Gold.Chemscore.Hbond>
0.8781

> <Gold.Chemscore.Metal>
0.0000

> <Gold.Chemscore.Lipo>
113.5977

> <Gold.Chemscore.Internal_Hbond>
0.0000

> <Gold.Chemscore.DEClash>
0.0526

> <Gold.Chemscore.DEInternal>
3.4279

> <Gold.Chemscore.Rot>
2.6470

> <Gold.Chemscore.Internal.Correction>
   9.000000E+99

> <Gold.Chemscore.Hbonds>
donor molecule, donor type, donor heavy atom, donor atom, acceptor molecule, acceptor atom, score
      P1  H  7989  7998       L1     7  0.12

> <Gold.Chemscore.Hbond.Weighted>
-2.9330

> <Gold.Chemscore.Metal.Weighted>
-0.0000

> <Gold.Chemscore.Lipo.Weighted>
-13.2909

> <Gold.Chemscore.Internal_Hbond.Weighted>
0.0000

> <Gold.Chemscore.DEClash.Weighted>
0.0526

> <Gold.Chemscore.DEInternal.Weighted>
3.4279

> <Gold.Chemscore.Rot.Weighted>
6.7762

> <Gold.Chemscore.Internal.Correction.Weighted>
   9.000000E+99

> <Gold.Protein.RotatedTorsions>
[ 6907 6896 6895 6894 ] final   89.70 input  -60.11 | X-H torsion
[ 7974 7965 7964 7962 ] final -113.57 input  175.53 | X-H torsion
[ 8008 7997 7996 7995 ] final   10.93 input   59.86 | X-H torsion
[ 10167 10162 10161 10158 ] final  147.34 input  -65.29 | X-H torsion
[ 10718 10713 10712 10709 ] final   57.41 input   66.30 | X-H torsion
[ 10763 10752 10751 10750 ] final -130.45 input  -60.55 | X-H torsion
[ 11005 11000 10999 10996 ] final -152.49 input  -57.11 | X-H torsion

> <Gold.Protein.ActiveResidues>
 VAL166  LYS551  ARG553  GLY616  TRP617  ASP618  TYR619  PRO620  LYS621  CYS622 
 ASP623  PHE694  ASN695  SER759  ASP760  ASP761  ALA762  ILE779  LEU786  VAL792 
 PHE793  MET794  SER795  GLU796  ALA797  LYS798  CYS799  TRP800  GLU811  SER814 

> <Gold.Protein.RotatedAtoms>
  152.5438  134.1925  159.8679 H   0  0  0  0  0  0  0  0  0  0  0  0  # atno 6907 bound_to 6896
  151.1920  133.4655  159.2602 H   0  0  0  0  0  0  0  0  0  0  0  0  # atno 6908 bound_to 6896
  151.1074  135.0019  159.8533 H   0  0  0  0  0  0  0  0  0  0  0  0  # atno 6909 bound_to 6896
  145.1304  140.8721  143.3761 H   0  0  0  0  0  0  0  0  0  0  0  0  # atno 7974 bound_to 7965
  154.8000  140.2850  155.5929 H   0  0  0  0  0  0  0  0  0  0  0  0  # atno 8008 bound_to 7997
  156.2976  140.2588  156.2795 H   0  0  0  0  0  0  0  0  0  0  0  0  # atno 8009 bound_to 7997
  154.9570  140.0378  157.2161 H   0  0  0  0  0  0  0  0  0  0  0  0  # atno 8010 bound_to 7997
  139.4892  144.5762  151.6960 H   0  0  0  0  0  0  0  0  0  0  0  0  # atno 10167 bound_to 10162
  157.5512  130.8767  149.8966 H   0  0  0  0  0  0  0  0  0  0  0  0  # atno 10718 bound_to 10713
  154.8755  135.3862  154.4085 H   0  0  0  0  0  0  0  0  0  0  0  0  # atno 10763 bound_to 10752
  153.4802  135.7030  153.5948 H   0  0  0  0  0  0  0  0  0  0  0  0  # atno 10764 bound_to 10752
  153.4367  135.3866  155.2170 H   0  0  0  0  0  0  0  0  0  0  0  0  # atno 10765 bound_to 10752
  140.7184  134.3755  157.5187 H   0  0  0  0  0  0  0  0  0  0  0  0  # atno 11005 bound_to 11000
  145.0641  139.3082  143.5865 LP  0  0  0  0  0  0  0  0  0  0  0  0  # atno 17320 bound_to 7965
  146.3514  140.0094  142.8668 LP  0  0  0  0  0  0  0  0  0  0  0  0  # atno 17321 bound_to 7965
  140.5359  144.0656  150.6070 LP  0  0  0  0  0  0  0  0  0  0  0  0  # atno 17342 bound_to 10162
  140.3662  143.2880  152.0329 LP  0  0  0  0  0  0  0  0  0  0  0  0  # atno 17343 bound_to 10162
  156.0578  130.3705  150.1051 LP  0  0  0  0  0  0  0  0  0  0  0  0  # atno 17370 bound_to 10713
  156.9223  130.9687  151.3546 LP  0  0  0  0  0  0  0  0  0  0  0  0  # atno 17371 bound_to 10713
  139.8854  134.8938  156.2644 LP  0  0  0  0  0  0  0  0  0  0  0  0  # atno 17394 bound_to 11000
  141.0025  133.7143  156.0983 LP  0  0  0  0  0  0  0  0  0  0  0  0  # atno 17395 bound_to 11000

$$$$
