AV-unprocessed.smi:3145|AV-procd|sdf|11983|dock10
  -GOLD-   2272017383D 1   1.00000     0.00000
 Structure written by MMmdl.
 34 34  0  0  0  0  0  0  0  0  3 V2000
  144.2109  136.2374  152.8990 C   0  0  0  0  0  0  0  0  0  0  0  0
  145.5565  136.5099  152.2055 C   0  0  2  0  0  0  0  0  0  0  0  0
  145.6486  135.8599  150.8055 C   0  0  0  0  0  0  0  0  0  0  0  0
  145.4653  134.4199  150.8316 N   0  0  0  0  0  0  0  0  0  0  0  0
  144.2980  133.7009  150.6809 C   0  0  0  0  0  0  0  0  0  0  0  0
  144.6191  132.3782  150.7883 C   0  0  0  0  0  0  0  0  0  0  0  0
  146.0241  132.3885  151.0138 C   0  0  0  0  0  0  0  0  0  0  0  0
  146.5272  133.6124  151.0426 N   0  0  0  0  0  0  0  0  0  0  0  0
  146.6557  136.0462  153.0790 N   0  3  0  0  0  0  0  0  0  0  0  0
  146.7135  136.6668  154.4194 C   0  0  0  0  0  0  0  0  0  0  0  0
  148.1455  137.1294  154.6956 C   0  0  0  0  0  0  0  0  0  0  0  0
  148.8766  136.4028  155.3756 O   0  0  0  0  0  0  0  0  0  0  0  0
  148.3852  138.3385  154.1174 N   0  5  0  0  0  0  0  0  0  0  0  0
  149.5863  139.1317  154.3649 C   0  0  0  0  0  0  0  0  0  0  0  0
  150.8381  138.2745  154.1235 C   0  0  0  0  0  0  0  0  0  0  0  0
  152.0754  138.8474  154.6829 C   0  0  0  0  0  0  0  0  0  0  0  0
  153.0466  139.3005  155.1233 N   0  0  0  0  0  0  0  0  0  0  0  0
  143.3770  136.6644  152.3414 H   0  0  0  0  0  0  0  0  0  0  0  0
  144.1887  136.6785  153.8963 H   0  0  0  0  0  0  0  0  0  0  0  0
  144.0286  135.1675  153.0048 H   0  0  0  0  0  0  0  0  0  0  0  0
  145.6517  137.5918  152.1000 H   0  0  0  0  0  0  0  0  0  0  0  0
  144.9002  136.2783  150.1320 H   0  0  0  0  0  0  0  0  0  0  0  0
  146.6213  136.0711  150.3586 H   0  0  0  0  0  0  0  0  0  0  0  0
  143.3477  134.1846  150.5092 H   0  0  0  0  0  0  0  0  0  0  0  0
  143.9516  131.5321  150.7186 H   0  0  0  0  0  0  0  0  0  0  0  0
  146.6881  131.5490  151.1582 H   0  0  0  0  0  0  0  0  0  0  0  0
  146.5326  135.0555  153.2362 H   0  0  0  0  0  0  0  0  0  0  0  0
  146.0363  137.5196  154.4726 H   0  0  0  0  0  0  0  0  0  0  0  0
  146.4018  135.9528  155.1837 H   0  0  0  0  0  0  0  0  0  0  0  0
  149.6356  140.0148  153.7263 H   0  0  0  0  0  0  0  0  0  0  0  0
  149.6098  139.5036  155.3896 H   0  0  0  0  0  0  0  0  0  0  0  0
  150.7041  137.2919  154.5766 H   0  0  0  0  0  0  0  0  0  0  0  0
  150.9925  138.1127  153.0561 H   0  0  0  0  0  0  0  0  0  0  0  0
  147.5409  136.1837  152.6135 H   0  0  0  0  0  0  0  0  0  0  0  0
  1  2  1  0  0  0  0
  1 18  1  0  0  0  0
  1 19  1  0  0  0  0
  1 20  1  0  0  0  0
  2  3  1  0  0  0  0
  2  9  1  0  0  0  0
  2 21  1  0  0  0  0
  3  4  1  0  0  0  0
  3 22  1  0  0  0  0
  3 23  1  0  0  0  0
  4  8  1  0  0  0  0
  4  5  1  0  0  0  0
  5  6  2  0  0  0  0
  5 24  1  0  0  0  0
  6  7  1  0  0  0  0
  6 25  1  0  0  0  0
  7  8  2  0  0  0  0
  7 26  1  0  0  0  0
  9 10  1  0  0  0  0
  9 27  1  0  0  0  0
  9 34  1  0  0  0  0
 10 11  1  0  0  0  0
 10 28  1  0  0  0  0
 10 29  1  0  0  0  0
 11 12  2  0  0  0  0
 11 13  1  0  0  0  0
 13 14  1  0  0  0  0
 14 15  1  0  0  0  0
 14 30  1  0  0  0  0
 14 31  1  0  0  0  0
 15 16  1  0  0  0  0
 15 32  1  0  0  0  0
 15 33  1  0  0  0  0
 16 17  3  0  0  0  0
M  CHG  1   9   1
M  CHG  1  13  -1
M  END
> <s_m_source_file>
AV-unprocessed.smi

> <i_m_source_file_index>
3145

> <i_lp_mmshare_version>
43012

> <i_f3d_flags>
0

> <s_epik_input>
bjFbY0hdW2NIXVtjSF1uMVtDSDJdW0NAQEhdKFtDSDNdKVtOSF1bQ0gyXUMoPU8pW05IXVtDSDJdW0NIMl1DI04=

> <s_epik_cmdline>
J2VwaWtfcHl0aG9uJywgJy1waCcsICc3LjAnLCAnLXRuJywgJzgnLCAnLW1hJywgJzIwMCcsICctbWV0YWxfYmluZGluZycsICctaW1hZScsICc8aW5maWxlLm1hZT4nLCAnLW9tYWUnLCAnPG91dGZpbGUubWFlPic=

> <r_lp_tautomer_probability>
1

> <r_epik_Ionization_Penalty>
6.20835

> <r_epik_Ionization_Penalty_Charging>
6.20835

> <r_epik_Ionization_Penalty_Neutral>
3.57231e-06

> <r_epik_State_Penalty>
6.38139

> <r_epik_Charging_Adjusted_Penalty>
12.5897

> <i_epik_Tot_Q>
0

> <i_epik_Tot_abs_Q>
2

> <r_epik_Metal_State_Penalty>
2.31725

> <b_epik_Metal_Only>
1

> <s_lp_Force_Field>
OPLS_2005

> <r_lp_Energy>
-0.295423

> <b_lp_Chiralities_Consistent>
1

> <s_lp_Variant>
AV-unprocessed.smi:3145-5

> <Gold.Version>
5.8.1

> <Gold.Id.Protein>
6NUR|6NUR_protein|mol2

> <Gold.PLP.Fitness>
41.8184

> <Gold.PLP.PLP>
-28.8627

> <Gold.PLP.part.hbond>
-2.0000

> <Gold.PLP.part.metal>
0.0000

> <Gold.PLP.part.buried>
-4.5285

> <Gold.PLP.part.nonpolar>
-22.5929

> <Gold.PLP.part.repulsive>
0.5570

> <Gold.PLP.ligand.clash>
0.0000

> <Gold.PLP.ligand.torsion>
1.1355

> <Gold.PLP.Chemscore.Hbond>
3.0000

> <Gold.PLP.Chemscore.CHOScore>
1.9934

> <Gold.PLP.Chemscore.Metal>
0.0000

> <Gold.Chemscore.Hbonds>
donor molecule, donor type, donor heavy atom, donor atom, acceptor molecule, acceptor atom, score
      L1  H     9    34       P1  7948  2.00
      P1  H  7997  8009       L1    17  1.00
      L1  C     5    24       P1 10186  0.99
      L1  C     7    26       P1 10747  0.96

> <Gold.PLP.Chemscore.Internal.Correction>
0.2465

> <Gold.Rescore>
     Score         DG    S(hbond)    S(metal)    S(lipo)     H(rot)  DE(clash)    DE(int)     intcor
     10.92     -11.75       2.00        0.00      57.78       2.79       0.02       0.81       ----

> <Gold.Chemscore.Fitness>
10.9216

> <Gold.Chemscore.DG>
-11.7534

> <Gold.Chemscore.ZeroCoef>
-5.4800

> <Gold.Chemscore.Hbond>
1.9963

> <Gold.Chemscore.Metal>
0.0000

> <Gold.Chemscore.Lipo>
57.7843

> <Gold.Chemscore.Internal_Hbond>
0.0000

> <Gold.Chemscore.DEClash>
0.0216

> <Gold.Chemscore.DEInternal>
0.8102

> <Gold.Chemscore.Rot>
2.7949

> <Gold.Chemscore.Internal.Correction>
   9.000000E+99

> <Gold.Chemscore.Hbonds>
donor molecule, donor type, donor heavy atom, donor atom, acceptor molecule, acceptor atom, score
      L1  H     9    34       P1  7948  0.98
      P1  H  7997  8009       L1    17  1.00

> <Gold.Chemscore.Hbond.Weighted>
-6.6677

> <Gold.Chemscore.Metal.Weighted>
-0.0000

> <Gold.Chemscore.Lipo.Weighted>
-6.7608

> <Gold.Chemscore.Internal_Hbond.Weighted>
0.0000

> <Gold.Chemscore.DEClash.Weighted>
0.0216

> <Gold.Chemscore.DEInternal.Weighted>
0.8102

> <Gold.Chemscore.Rot.Weighted>
7.1551

> <Gold.Chemscore.Internal.Correction.Weighted>
   9.000000E+99

> <Gold.Protein.RotatedTorsions>
[ 6907 6896 6895 6894 ] final -121.60 input  -60.11 | X-H torsion
[ 7974 7965 7964 7962 ] final -156.87 input  175.53 | X-H torsion
[ 8008 7997 7996 7995 ] final -146.95 input   59.86 | X-H torsion
[ 10167 10162 10161 10158 ] final -104.64 input  -65.29 | X-H torsion
[ 10718 10713 10712 10709 ] final   -3.22 input   66.30 | X-H torsion
[ 10763 10752 10751 10750 ] final   59.20 input  -60.55 | X-H torsion
[ 11005 11000 10999 10996 ] final    4.85 input  -57.11 | X-H torsion

> <Gold.Protein.ActiveResidues>
 VAL166  LYS551  ARG553  GLY616  TRP617  ASP618  TYR619  PRO620  LYS621  CYS622 
 ASP623  PHE694  ASN695  SER759  ASP760  ASP761  ALA762  ILE779  LEU786  VAL792 
 PHE793  MET794  SER795  GLU796  ALA797  LYS798  CYS799  TRP800  GLU811  SER814 

> <Gold.Protein.RotatedAtoms>
  150.8498  133.7804  159.3029 H   0  0  0  0  0  0  0  0  0  0  0  0  # atno 6907 bound_to 6896
  151.5480  135.1066  159.9952 H   0  0  0  0  0  0  0  0  0  0  0  0  # atno 6908 bound_to 6896
  152.4543  133.7649  159.6823 H   0  0  0  0  0  0  0  0  0  0  0  0  # atno 6909 bound_to 6896
  144.7574  140.4049  143.6002 H   0  0  0  0  0  0  0  0  0  0  0  0  # atno 7974 bound_to 7965
  155.5677  140.0631  157.2814 H   0  0  0  0  0  0  0  0  0  0  0  0  # atno 8008 bound_to 7997
  154.4370  140.1874  156.0893 H   0  0  0  0  0  0  0  0  0  0  0  0  # atno 8009 bound_to 7997
  156.0400  140.3297  155.7236 H   0  0  0  0  0  0  0  0  0  0  0  0  # atno 8010 bound_to 7997
  140.2071  143.3775  152.1082 H   0  0  0  0  0  0  0  0  0  0  0  0  # atno 10167 bound_to 10162
  156.7792  130.5325  149.5754 H   0  0  0  0  0  0  0  0  0  0  0  0  # atno 10718 bound_to 10713
  152.9888  135.5580  154.5675 H   0  0  0  0  0  0  0  0  0  0  0  0  # atno 10763 bound_to 10752
  154.5081  135.2801  155.1367 H   0  0  0  0  0  0  0  0  0  0  0  0  # atno 10764 bound_to 10752
  154.2770  135.6352  153.5385 H   0  0  0  0  0  0  0  0  0  0  0  0  # atno 10765 bound_to 10752
  140.5773  134.0046  155.8033 H   0  0  0  0  0  0  0  0  0  0  0  0  # atno 11005 bound_to 11000
  145.6734  139.1604  143.2741 LP  0  0  0  0  0  0  0  0  0  0  0  0  # atno 17320 bound_to 7965
  146.1599  140.6803  142.9282 LP  0  0  0  0  0  0  0  0  0  0  0  0  # atno 17321 bound_to 7965
  139.5194  144.7019  151.5467 LP  0  0  0  0  0  0  0  0  0  0  0  0  # atno 17342 bound_to 10162
  140.6350  143.9002  150.6639 LP  0  0  0  0  0  0  0  0  0  0  0  0  # atno 17343 bound_to 10162
  156.1229  130.6123  151.0220 LP  0  0  0  0  0  0  0  0  0  0  0  0  # atno 17370 bound_to 10713
  157.6654  131.0872  150.7740 LP  0  0  0  0  0  0  0  0  0  0  0  0  # atno 17371 bound_to 10713
  141.1018  133.9755  157.3065 LP  0  0  0  0  0  0  0  0  0  0  0  0  # atno 17394 bound_to 11000
  139.9333  135.0198  156.8474 LP  0  0  0  0  0  0  0  0  0  0  0  0  # atno 17395 bound_to 11000

$$$$
