AV-unprocessed.smi:2709|AV-procd|sdf|10460|dock2
  -GOLD-   2272014503D 1   1.00000     0.00000
 Structure written by MMmdl.
 40 42  0  0  0  0  0  0  0  0  1 V2000
  152.7330  144.6170  158.3344 C   0  0  0  0  0  0  0  0  0  0  0  0
  151.5249  144.1370  158.9012 O   0  0  0  0  0  0  0  0  0  0  0  0
  151.7078  143.0553  159.8045 C   0  0  2  0  0  0  0  0  0  0  0  0
  152.5480  143.4640  161.0223 C   0  0  0  0  0  0  0  0  0  0  0  0
  153.3100  142.1997  161.4023 C   0  0  0  0  0  0  0  0  0  0  0  0
  153.6600  141.5674  160.0565 C   0  0  0  0  0  0  0  0  0  0  0  0
  152.4946  141.9167  159.1138 C   0  0  1  0  0  0  0  0  0  0  0  0
  151.6586  140.7401  158.8893 N   0  0  0  0  0  0  0  0  0  0  0  0
  151.8506  139.8369  157.9180 C   0  0  0  0  0  0  0  0  0  0  0  0
  152.7623  139.9109  157.0957 O   0  0  0  0  0  0  0  0  0  0  0  0
  150.9175  138.8710  157.9666 N   0  0  0  0  0  0  0  0  0  0  0  0
  150.7670  137.7284  157.1341 C   0  0  0  0  0  0  0  0  0  0  0  0
  149.4747  137.1938  156.9488 C   0  0  0  0  0  0  0  0  0  0  0  0
  149.2507  136.1056  156.1820 N   0  0  0  0  0  0  0  0  0  0  0  0
  150.3178  135.5423  155.6098 C   0  0  0  0  0  0  0  0  0  0  0  0
  150.0627  134.3584  154.7295 C   0  0  0  0  0  0  0  0  0  0  0  0
  148.6488  133.8931  154.4468 C   0  0  0  0  0  0  0  0  0  0  0  0
  149.5505  133.0559  155.3102 C   0  0  0  0  0  0  0  0  0  0  0  0
  151.5830  135.9592  155.7030 N   0  0  0  0  0  0  0  0  0  0  0  0
  151.8167  137.0472  156.4689 C   0  0  0  0  0  0  0  0  0  0  0  0
  152.5143  145.4465  157.6622 H   0  0  0  0  0  0  0  0  0  0  0  0
  153.2418  143.8448  157.7566 H   0  0  0  0  0  0  0  0  0  0  0  0
  153.4117  144.9822  159.1060 H   0  0  0  0  0  0  0  0  0  0  0  0
  150.7406  142.6800  160.1463 H   0  0  0  0  0  0  0  0  0  0  0  0
  153.2602  144.2404  160.7390 H   0  0  0  0  0  0  0  0  0  0  0  0
  151.9417  143.8518  161.8413 H   0  0  0  0  0  0  0  0  0  0  0  0
  154.1905  142.4058  162.0116 H   0  0  0  0  0  0  0  0  0  0  0  0
  152.6586  141.5314  161.9670 H   0  0  0  0  0  0  0  0  0  0  0  0
  154.5755  142.0228  159.6769 H   0  0  0  0  0  0  0  0  0  0  0  0
  153.8472  140.4959  160.1398 H   0  0  0  0  0  0  0  0  0  0  0  0
  152.9049  142.2502  158.1584 H   0  0  0  0  0  0  0  0  0  0  0  0
  150.8816  140.6067  159.5196 H   0  0  0  0  0  0  0  0  0  0  0  0
  150.2127  138.9760  158.6816 H   0  0  0  0  0  0  0  0  0  0  0  0
  148.6110  137.6425  157.4174 H   0  0  0  0  0  0  0  0  0  0  0  0
  150.7878  134.3036  153.9197 H   0  0  0  0  0  0  0  0  0  0  0  0
  147.8323  134.4182  154.9389 H   0  0  0  0  0  0  0  0  0  0  0  0
  148.4321  133.5296  153.4445 H   0  0  0  0  0  0  0  0  0  0  0  0
  149.9373  132.1316  154.8859 H   0  0  0  0  0  0  0  0  0  0  0  0
  149.3344  133.0247  156.3764 H   0  0  0  0  0  0  0  0  0  0  0  0
  152.8507  137.3437  156.5388 H   0  0  0  0  0  0  0  0  0  0  0  0
  1  2  1  0  0  0  0
  1 21  1  0  0  0  0
  1 22  1  0  0  0  0
  1 23  1  0  0  0  0
  2  3  1  0  0  0  0
  3  7  1  0  0  0  0
  3  4  1  0  0  0  0
  3 24  1  0  0  0  0
  4  5  1  0  0  0  0
  4 25  1  0  0  0  0
  4 26  1  0  0  0  0
  5  6  1  0  0  0  0
  5 27  1  0  0  0  0
  5 28  1  0  0  0  0
  6  7  1  0  0  0  0
  6 29  1  0  0  0  0
  6 30  1  0  0  0  0
  7  8  1  0  0  0  0
  7 31  1  0  0  0  0
  8  9  1  0  0  0  0
  8 32  1  0  0  0  0
  9 10  2  0  0  0  0
  9 11  1  0  0  0  0
 11 12  1  0  0  0  0
 11 33  1  0  0  0  0
 12 20  1  0  0  0  0
 12 13  2  0  0  0  0
 13 14  1  0  0  0  0
 13 34  1  0  0  0  0
 14 15  2  0  0  0  0
 15 16  1  0  0  0  0
 15 19  1  0  0  0  0
 16 18  1  0  0  0  0
 16 17  1  0  0  0  0
 16 35  1  0  0  0  0
 17 18  1  0  0  0  0
 17 36  1  0  0  0  0
 17 37  1  0  0  0  0
 18 38  1  0  0  0  0
 18 39  1  0  0  0  0
 19 20  2  0  0  0  0
 20 40  1  0  0  0  0
M  END
> <s_m_source_file>
AV-unprocessed.smi

> <i_m_source_file_index>
2709

> <i_lp_mmshare_version>
43012

> <i_f3d_flags>
0

> <s_epik_input>
W0NIM11PW0NAQEhdMVtDSDJdW0NIMl1bQ0gyXVtDQEhdMVtOSF1DKD1PKVtOSF1jMltjSF1uYyhuW2NIXTIpW0NIXTNbQ0gyXVtDSDJdMw==

> <s_epik_cmdline>
J2VwaWtfcHl0aG9uJywgJy1waCcsICc3LjAnLCAnLXRuJywgJzgnLCAnLW1hJywgJzIwMCcsICctbWV0YWxfYmluZGluZycsICctaW1hZScsICc8aW5maWxlLm1hZT4nLCAnLW9tYWUnLCAnPG91dGZpbGUubWFlPic=

> <r_lp_tautomer_probability>
1

> <r_epik_Ionization_Penalty>
2.49969e-05

> <r_epik_Ionization_Penalty_Charging>
0

> <r_epik_Ionization_Penalty_Neutral>
2.49969e-05

> <r_epik_State_Penalty>
-0

> <r_epik_Charging_Adjusted_Penalty>
0

> <i_epik_Tot_Q>
0

> <i_epik_Tot_abs_Q>
0

> <r_epik_Metal_State_Penalty>
-0

> <b_epik_Metal_Only>
0

> <s_lp_Force_Field>
OPLS_2005

> <r_lp_Energy>
17.9033

> <b_lp_Chiralities_Consistent>
1

> <s_lp_Variant>
AV-unprocessed.smi:2709-1

> <Gold.Version>
5.8.1

> <Gold.Id.Protein>
6NUR|6NUR_protein|mol2

> <Gold.PLP.Fitness>
40.7901

> <Gold.PLP.PLP>
-35.8794

> <Gold.PLP.part.hbond>
-2.0000

> <Gold.PLP.part.metal>
0.0000

> <Gold.PLP.part.buried>
-4.7180

> <Gold.PLP.part.nonpolar>
-28.7944

> <Gold.PLP.part.repulsive>
0.3706

> <Gold.PLP.ligand.clash>
0.0000

> <Gold.PLP.ligand.torsion>
0.6062

> <Gold.PLP.Chemscore.Hbond>
2.0000

> <Gold.PLP.Chemscore.CHOScore>
0.0000

> <Gold.PLP.Chemscore.Metal>
0.0000

> <Gold.Chemscore.Hbonds>
donor molecule, donor type, donor heavy atom, donor atom, acceptor molecule, acceptor atom, score
      P1  H  7997  8009       L1    10  1.00
      P1  H 10752 10765       L1    19  1.00

> <Gold.PLP.Chemscore.Internal.Correction>
0.1231

> <Gold.Rescore>
     Score         DG    S(hbond)    S(metal)    S(lipo)     H(rot)  DE(clash)    DE(int)     intcor
     18.79     -19.50       1.92        0.00      95.82       1.41       0.07       0.64       ----

> <Gold.Chemscore.Fitness>
18.7878

> <Gold.Chemscore.DG>
-19.4996

> <Gold.Chemscore.ZeroCoef>
-5.4800

> <Gold.Chemscore.Hbond>
1.9229

> <Gold.Chemscore.Metal>
0.0000

> <Gold.Chemscore.Lipo>
95.8167

> <Gold.Chemscore.Internal_Hbond>
0.0000

> <Gold.Chemscore.DEClash>
0.0727

> <Gold.Chemscore.DEInternal>
0.6391

> <Gold.Chemscore.Rot>
1.4114

> <Gold.Chemscore.Internal.Correction>
   9.000000E+99

> <Gold.Chemscore.Hbonds>
donor molecule, donor type, donor heavy atom, donor atom, acceptor molecule, acceptor atom, score
      P1  H  7997  8009       L1    10  0.99
      P1  H 10752 10765       L1    19  0.70

> <Gold.Chemscore.Hbond.Weighted>
-6.4223

> <Gold.Chemscore.Metal.Weighted>
-0.0000

> <Gold.Chemscore.Lipo.Weighted>
-11.2106

> <Gold.Chemscore.Internal_Hbond.Weighted>
0.0000

> <Gold.Chemscore.DEClash.Weighted>
0.0727

> <Gold.Chemscore.DEInternal.Weighted>
0.6391

> <Gold.Chemscore.Rot.Weighted>
3.6133

> <Gold.Chemscore.Internal.Correction.Weighted>
   9.000000E+99

> <Gold.Protein.RotatedTorsions>
[ 6907 6896 6895 6894 ] final   71.68 input  -60.11 | X-H torsion
[ 7974 7965 7964 7962 ] final  -17.36 input  175.53 | X-H torsion
[ 8008 7997 7996 7995 ] final -173.65 input   59.86 | X-H torsion
[ 10167 10162 10161 10158 ] final   70.50 input  -65.29 | X-H torsion
[ 10718 10713 10712 10709 ] final  133.66 input   66.30 | X-H torsion
[ 10763 10752 10751 10750 ] final -160.83 input  -60.55 | X-H torsion
[ 11005 11000 10999 10996 ] final  109.63 input  -57.11 | X-H torsion

> <Gold.Protein.ActiveResidues>
 VAL166  LYS551  ARG553  GLY616  TRP617  ASP618  TYR619  PRO620  LYS621  CYS622 
 ASP623  PHE694  ASN695  SER759  ASP760  ASP761  ALA762  ILE779  LEU786  VAL792 
 PHE793  MET794  SER795  GLU796  ALA797  LYS798  CYS799  TRP800  GLU811  SER814 

> <Gold.Protein.RotatedAtoms>
  152.4824  134.4684  159.9627 H   0  0  0  0  0  0  0  0  0  0  0  0  # atno 6907 bound_to 6896
  151.4687  133.3568  159.2828 H   0  0  0  0  0  0  0  0  0  0  0  0  # atno 6908 bound_to 6896
  150.8907  134.8336  159.7352 H   0  0  0  0  0  0  0  0  0  0  0  0  # atno 6909 bound_to 6896
  146.1944  140.3768  142.8446 H   0  0  0  0  0  0  0  0  0  0  0  0  # atno 7974 bound_to 7965
  155.9601  140.1143  157.0903 H   0  0  0  0  0  0  0  0  0  0  0  0  # atno 8008 bound_to 7997
  154.4130  140.1183  156.5234 H   0  0  0  0  0  0  0  0  0  0  0  0  # atno 8009 bound_to 7997
  155.6732  140.3473  155.4828 H   0  0  0  0  0  0  0  0  0  0  0  0  # atno 8010 bound_to 7997
  140.0563  144.5270  150.7326 H   0  0  0  0  0  0  0  0  0  0  0  0  # atno 10167 bound_to 10162
  157.4751  131.1082  150.9754 H   0  0  0  0  0  0  0  0  0  0  0  0  # atno 10718 bound_to 10713
  154.7356  135.3056  154.8817 H   0  0  0  0  0  0  0  0  0  0  0  0  # atno 10763 bound_to 10752
  153.9646  135.6749  153.4750 H   0  0  0  0  0  0  0  0  0  0  0  0  # atno 10764 bound_to 10752
  153.0959  135.4936  154.8701 H   0  0  0  0  0  0  0  0  0  0  0  0  # atno 10765 bound_to 10752
  139.8866  134.9463  156.6155 H   0  0  0  0  0  0  0  0  0  0  0  0  # atno 11005 bound_to 11000
  144.8551  140.7059  143.6143 LP  0  0  0  0  0  0  0  0  0  0  0  0  # atno 17320 bound_to 7965
  145.3689  139.1663  143.4342 LP  0  0  0  0  0  0  0  0  0  0  0  0  # atno 17321 bound_to 7965
  140.7193  143.2573  151.4331 LP  0  0  0  0  0  0  0  0  0  0  0  0  # atno 17342 bound_to 10162
  139.5921  144.1476  152.2101 LP  0  0  0  0  0  0  0  0  0  0  0  0  # atno 17343 bound_to 10162
  157.0506  130.5785  149.5370 LP  0  0  0  0  0  0  0  0  0  0  0  0  # atno 17370 bound_to 10713
  156.0092  130.5182  150.7934 LP  0  0  0  0  0  0  0  0  0  0  0  0  # atno 17371 bound_to 10713
  140.7779  133.8684  155.8544 LP  0  0  0  0  0  0  0  0  0  0  0  0  # atno 17394 bound_to 11000
  140.9785  134.1436  157.4515 LP  0  0  0  0  0  0  0  0  0  0  0  0  # atno 17395 bound_to 11000

$$$$
