AV-unprocessed.smi:711|AV-procd|sdf|3464|dock4
  -GOLD-   22720 0453D 1   1.00000     0.00000
 Structure written by MMmdl.
 29 30  0  0  0  0  0  0  0  0  1 V2000
  146.6096  139.6244  153.0296 O   0  0  0  0  0  0  0  0  0  0  0  0
  147.4962  140.1525  153.6978 C   0  0  0  0  0  0  0  0  0  0  0  0
  148.7667  139.5719  153.7507 N   0  0  0  0  0  0  0  0  0  0  0  0
  149.8571  140.0650  154.4679 C   0  0  0  0  0  0  0  0  0  0  0  0
  150.9247  139.4527  154.4493 O   0  0  0  0  0  0  0  0  0  0  0  0
  149.6514  141.2609  155.1976 N   0  0  0  0  0  0  0  0  0  0  0  0
  150.7388  141.7983  155.9838 C   0  0  0  0  0  0  0  0  0  0  0  0
  150.3743  142.0266  157.4679 C   0  0  2  0  0  0  0  0  0  0  0  0
  149.9184  143.3567  157.6124 O   0  0  0  0  0  0  0  0  0  0  0  0
  151.5132  141.6931  158.4256 C   0  0  0  0  0  0  0  0  0  0  0  0
  151.7413  140.3558  158.8209 C   0  0  0  0  0  0  0  0  0  0  0  0
  152.7774  140.0465  159.7230 C   0  0  0  0  0  0  0  0  0  0  0  0
  153.5925  141.0722  160.2374 C   0  0  0  0  0  0  0  0  0  0  0  0
  154.5881  140.7755  161.1058 F   0  0  0  0  0  0  0  0  0  0  0  0
  153.3698  142.4071  159.8505 C   0  0  0  0  0  0  0  0  0  0  0  0
  152.3334  142.7192  158.9493 C   0  0  0  0  0  0  0  0  0  0  0  0
  152.1239  144.0116  158.6003 F   0  0  0  0  0  0  0  0  0  0  0  0
  148.4052  141.8672  155.1767 C   0  0  0  0  0  0  0  0  0  0  0  0
  147.3509  141.3795  154.4795 C   0  0  0  0  0  0  0  0  0  0  0  0
  145.8277  142.1933  154.5091 Cl  0  0  0  0  0  0  0  0  0  0  0  0
  148.9061  138.7194  153.2280 H   0  0  0  0  0  0  0  0  0  0  0  0
  151.6172  141.1614  155.8627 H   0  0  0  0  0  0  0  0  0  0  0  0
  150.9940  142.7443  155.5022 H   0  0  0  0  0  0  0  0  0  0  0  0
  149.5202  141.3950  157.7140 H   0  0  0  0  0  0  0  0  0  0  0  0
  149.7758  143.7198  156.7516 H   0  0  0  0  0  0  0  0  0  0  0  0
  151.1157  139.5619  158.4400 H   0  0  0  0  0  0  0  0  0  0  0  0
  152.9441  139.0221  160.0223 H   0  0  0  0  0  0  0  0  0  0  0  0
  153.9926  143.1945  160.2486 H   0  0  0  0  0  0  0  0  0  0  0  0
  148.2653  142.7732  155.7495 H   0  0  0  0  0  0  0  0  0  0  0  0
  1  2  2  0  0  0  0
  2 19  1  0  0  0  0
  2  3  1  0  0  0  0
  3 21  1  0  0  0  0
  3  4  1  0  0  0  0
  4  5  2  0  0  0  0
  4  6  1  0  0  0  0
  6  7  1  0  0  0  0
  6 18  1  0  0  0  0
  7  8  1  0  0  0  0
  7 22  1  0  0  0  0
  7 23  1  0  0  0  0
  8  9  1  0  0  0  0
  8 10  1  0  0  0  0
  8 24  1  0  0  0  0
  9 25  1  0  0  0  0
 10 16  1  0  0  0  0
 10 11  2  0  0  0  0
 11 12  1  0  0  0  0
 11 26  1  0  0  0  0
 12 13  2  0  0  0  0
 12 27  1  0  0  0  0
 13 14  1  0  0  0  0
 13 15  1  0  0  0  0
 15 16  2  0  0  0  0
 15 28  1  0  0  0  0
 16 17  1  0  0  0  0
 18 19  2  0  0  0  0
 18 29  1  0  0  0  0
 19 20  1  0  0  0  0
M  END
> <s_m_source_file>
AV-unprocessed.smi

> <i_m_source_file_index>
711

> <i_lp_mmshare_version>
43012

> <i_f3d_flags>
0

> <s_epik_input>
Tz1jMVtuSF1jKD1PKW4oW2NIXWMxQ2wpW0NIMl1bQ0BIXShbT0hdKWMyW2NIXVtjSF1jKEYpW2NIXWMyRg==

> <s_epik_cmdline>
J2VwaWtfcHl0aG9uJywgJy1waCcsICc3LjAnLCAnLXRuJywgJzgnLCAnLW1hJywgJzIwMCcsICctbWV0YWxfYmluZGluZycsICctaW1hZScsICc8aW5maWxlLm1hZT4nLCAnLW9tYWUnLCAnPG91dGZpbGUubWFlPic=

> <r_lp_tautomer_probability>
0.999537

> <r_epik_Ionization_Penalty>
0.0292058

> <r_epik_Ionization_Penalty_Charging>
0.0292057

> <r_epik_Ionization_Penalty_Neutral>
9.07348e-08

> <r_epik_State_Penalty>
0.0240115

> <r_epik_Charging_Adjusted_Penalty>
0.0532172

> <i_epik_Tot_Q>
0

> <i_epik_Tot_abs_Q>
0

> <r_epik_Metal_State_Penalty>
2.21956

> <b_epik_Metal_Only>
0

> <s_lp_Force_Field>
OPLS_2005

> <r_lp_Energy>
11.2971

> <b_lp_Chiralities_Consistent>
1

> <s_lp_Variant>
AV-unprocessed.smi:711-1

> <Gold.Version>
5.8.1

> <Gold.Id.Protein>
6NUR|6NUR_protein|mol2

> <Gold.PLP.Fitness>
48.8544

> <Gold.PLP.PLP>
-43.6729

> <Gold.PLP.part.hbond>
-3.2226

> <Gold.PLP.part.metal>
0.0000

> <Gold.PLP.part.buried>
-2.2345

> <Gold.PLP.part.nonpolar>
-39.8648

> <Gold.PLP.part.repulsive>
0.6828

> <Gold.PLP.ligand.clash>
0.0000

> <Gold.PLP.ligand.torsion>
1.1662

> <Gold.PLP.Chemscore.Hbond>
1.5000

> <Gold.PLP.Chemscore.CHOScore>
0.9968

> <Gold.PLP.Chemscore.Metal>
0.0000

> <Gold.Chemscore.Hbonds>
donor molecule, donor type, donor heavy atom, donor atom, acceptor molecule, acceptor atom, score
      L1  H     9    25       P1  8028  1.00
      P1  H  7989  7998       L1     5  0.40
      L1  C    18    29       P1  8028  1.00

> <Gold.PLP.Chemscore.Internal.Correction>
0.0236

> <Gold.Rescore>
     Score         DG    S(hbond)    S(metal)    S(lipo)     H(rot)  DE(clash)    DE(int)     intcor
      9.16     -12.11       0.89        0.00      83.00       2.37       0.04       2.91       ----

> <Gold.Chemscore.Fitness>
9.1609

> <Gold.Chemscore.DG>
-12.1111

> <Gold.Chemscore.ZeroCoef>
-5.4800

> <Gold.Chemscore.Hbond>
0.8908

> <Gold.Chemscore.Metal>
0.0000

> <Gold.Chemscore.Lipo>
82.9971

> <Gold.Chemscore.Internal_Hbond>
0.0000

> <Gold.Chemscore.DEClash>
0.0358

> <Gold.Chemscore.DEInternal>
2.9144

> <Gold.Chemscore.Rot>
2.3652

> <Gold.Chemscore.Internal.Correction>
   9.000000E+99

> <Gold.Chemscore.Hbonds>
donor molecule, donor type, donor heavy atom, donor atom, acceptor molecule, acceptor atom, score
      L1  H     9    25       P1  8028  0.95
      P1  H  7989  7998       L1     5  0.01

> <Gold.Chemscore.Hbond.Weighted>
-2.9753

> <Gold.Chemscore.Metal.Weighted>
-0.0000

> <Gold.Chemscore.Lipo.Weighted>
-9.7107

> <Gold.Chemscore.Internal_Hbond.Weighted>
0.0000

> <Gold.Chemscore.DEClash.Weighted>
0.0358

> <Gold.Chemscore.DEInternal.Weighted>
2.9144

> <Gold.Chemscore.Rot.Weighted>
6.0548

> <Gold.Chemscore.Internal.Correction.Weighted>
   9.000000E+99

> <Gold.Protein.RotatedTorsions>
[ 6907 6896 6895 6894 ] final -178.42 input  -60.11 | X-H torsion
[ 7974 7965 7964 7962 ] final   89.48 input  175.53 | X-H torsion
[ 8008 7997 7996 7995 ] final  172.25 input   59.86 | X-H torsion
[ 10167 10162 10161 10158 ] final   35.73 input  -65.29 | X-H torsion
[ 10718 10713 10712 10709 ] final -170.60 input   66.30 | X-H torsion
[ 10763 10752 10751 10750 ] final  -68.12 input  -60.55 | X-H torsion
[ 11005 11000 10999 10996 ] final -157.91 input  -57.11 | X-H torsion

> <Gold.Protein.ActiveResidues>
 VAL166  LYS551  ARG553  GLY616  TRP617  ASP618  TYR619  PRO620  LYS621  CYS622 
 ASP623  PHE694  ASN695  SER759  ASP760  ASP761  ALA762  ILE779  LEU786  VAL792 
 PHE793  MET794  SER795  GLU796  ALA797  LYS798  CYS799  TRP800  GLU811  SER814 

> <Gold.Protein.RotatedAtoms>
  151.6369  133.3328  159.3121 H   0  0  0  0  0  0  0  0  0  0  0  0  # atno 6907 bound_to 6896
  150.8027  134.7136  159.6627 H   0  0  0  0  0  0  0  0  0  0  0  0  # atno 6908 bound_to 6896
  152.4121  134.6111  160.0077 H   0  0  0  0  0  0  0  0  0  0  0  0  # atno 6909 bound_to 6896
  145.5318  139.2283  143.2614 H   0  0  0  0  0  0  0  0  0  0  0  0  # atno 7974 bound_to 7965
  156.1192  140.1491  156.9228 H   0  0  0  0  0  0  0  0  0  0  0  0  # atno 8008 bound_to 7997
  154.4823  140.0875  156.7449 H   0  0  0  0  0  0  0  0  0  0  0  0  # atno 8009 bound_to 7997
  155.4458  140.3433  155.4297 H   0  0  0  0  0  0  0  0  0  0  0  0  # atno 8010 bound_to 7997
  140.4194  144.1480  150.6146 H   0  0  0  0  0  0  0  0  0  0  0  0  # atno 10167 bound_to 10162
  156.7285  130.9297  151.3103 H   0  0  0  0  0  0  0  0  0  0  0  0  # atno 10718 bound_to 10713
  154.3845  135.6067  153.5809 H   0  0  0  0  0  0  0  0  0  0  0  0  # atno 10763 bound_to 10752
  152.9788  135.5869  154.4371 H   0  0  0  0  0  0  0  0  0  0  0  0  # atno 10764 bound_to 10752
  154.4146  135.2845  155.1993 H   0  0  0  0  0  0  0  0  0  0  0  0  # atno 10765 bound_to 10752
  140.6594  134.4365  157.5234 H   0  0  0  0  0  0  0  0  0  0  0  0  # atno 11005 bound_to 11000
  146.2039  140.6135  142.9090 LP  0  0  0  0  0  0  0  0  0  0  0  0  # atno 17320 bound_to 7965
  144.7622  140.5448  143.6728 LP  0  0  0  0  0  0  0  0  0  0  0  0  # atno 17321 bound_to 7965
  140.4550  143.2471  151.9297 LP  0  0  0  0  0  0  0  0  0  0  0  0  # atno 17342 bound_to 10162
  139.4782  144.5525  151.8364 LP  0  0  0  0  0  0  0  0  0  0  0  0  # atno 17343 bound_to 10162
  157.6868  130.9194  150.0408 LP  0  0  0  0  0  0  0  0  0  0  0  0  # atno 17370 bound_to 10713
  156.1545  130.3643  149.9389 LP  0  0  0  0  0  0  0  0  0  0  0  0  # atno 17371 bound_to 10713
  139.9018  134.8538  156.1865 LP  0  0  0  0  0  0  0  0  0  0  0  0  # atno 17394 bound_to 11000
  141.0477  133.6905  156.1713 LP  0  0  0  0  0  0  0  0  0  0  0  0  # atno 17395 bound_to 11000

$$$$
