AV-unprocessed.smi:1915|AV-procd|sdf|7763|dock2
  -GOLD-   22720 9503D 1   1.00000     0.00000
 Structure written by MMmdl.
 45 46  0  0  0  0  0  0  0  0  2 V2000
  153.2281  142.3938  161.5544 C   0  0  0  0  0  0  0  0  0  0  0  0
  152.8507  142.4567  160.0643 C   0  0  0  0  0  0  0  0  0  0  0  0
  152.2011  143.8090  159.7340 C   0  0  0  0  0  0  0  0  0  0  0  0
  151.9371  141.2948  159.6133 C   0  0  0  0  0  0  0  0  0  0  0  0
  151.6917  141.2829  158.1710 N   0  0  0  0  0  0  0  0  0  0  0  0
  150.8075  142.2662  157.5657 C   0  0  0  0  0  0  0  0  0  0  0  0
  150.5731  141.7847  156.1173 C   0  0  2  0  0  0  0  0  0  0  0  0
  149.1401  141.2808  155.8867 C   0  0  0  0  0  0  0  0  0  0  0  0
  148.7165  140.3090  156.5137 O   0  0  0  0  0  0  0  0  0  0  0  0
  148.4127  141.9385  154.9698 N   0  0  0  0  0  0  0  0  0  0  0  0
  147.0374  141.6209  154.5913 C   0  0  0  0  0  0  0  0  0  0  0  0
  145.9880  142.3248  155.4762 C   0  0  0  0  0  0  0  0  0  0  0  0
  145.3060  143.5055  154.8063 C   0  0  0  0  0  0  0  0  0  0  0  0
  145.6215  143.8995  153.4881 C   0  0  0  0  0  0  0  0  0  0  0  0
  144.9826  145.0283  152.9343 C   0  0  0  0  0  0  0  0  0  0  0  0
  144.0416  145.7383  153.7085 C   0  0  0  0  0  0  0  0  0  0  0  0
  143.7628  145.3005  155.0189 C   0  0  0  0  0  0  0  0  0  0  0  0
  144.3968  144.2152  155.5145 N   0  3  0  0  0  0  0  0  0  0  0  0
  151.6005  140.6572  155.8994 C   0  0  0  0  0  0  0  0  0  0  0  0
  152.1470  140.3844  157.2901 C   0  0  0  0  0  0  0  0  0  0  0  0
  152.8950  139.4393  157.5351 O   0  0  0  0  0  0  0  0  0  0  0  0
  152.3404  142.3837  162.1874 H   0  0  0  0  0  0  0  0  0  0  0  0
  153.8314  143.2548  161.8427 H   0  0  0  0  0  0  0  0  0  0  0  0
  153.8141  141.5042  161.7835 H   0  0  0  0  0  0  0  0  0  0  0  0
  153.7757  142.3966  159.4894 H   0  0  0  0  0  0  0  0  0  0  0  0
  151.2660  143.9435  160.2789 H   0  0  0  0  0  0  0  0  0  0  0  0
  151.9803  143.8906  158.6693 H   0  0  0  0  0  0  0  0  0  0  0  0
  152.8605  144.6372  159.9950 H   0  0  0  0  0  0  0  0  0  0  0  0
  152.3671  140.3409  159.9235 H   0  0  0  0  0  0  0  0  0  0  0  0
  150.9762  141.3649  160.1247 H   0  0  0  0  0  0  0  0  0  0  0  0
  149.8832  142.3616  158.1386 H   0  0  0  0  0  0  0  0  0  0  0  0
  151.2974  143.2408  157.5731 H   0  0  0  0  0  0  0  0  0  0  0  0
  150.7759  142.6056  155.4273 H   0  0  0  0  0  0  0  0  0  0  0  0
  148.8401  142.7277  154.5064 H   0  0  0  0  0  0  0  0  0  0  0  0
  146.8650  141.8626  153.5411 H   0  0  0  0  0  0  0  0  0  0  0  0
  146.9117  140.5412  154.6749 H   0  0  0  0  0  0  0  0  0  0  0  0
  145.2231  141.6060  155.7723 H   0  0  0  0  0  0  0  0  0  0  0  0
  146.4558  142.6629  156.4020 H   0  0  0  0  0  0  0  0  0  0  0  0
  146.3525  143.3514  152.9117 H   0  0  0  0  0  0  0  0  0  0  0  0
  145.2150  145.3479  151.9290 H   0  0  0  0  0  0  0  0  0  0  0  0
  143.5437  146.6073  153.3037 H   0  0  0  0  0  0  0  0  0  0  0  0
  143.0617  145.7851  155.6827 H   0  0  0  0  0  0  0  0  0  0  0  0
  151.1732  139.7483  155.4735 H   0  0  0  0  0  0  0  0  0  0  0  0
  152.4122  140.9849  155.2490 H   0  0  0  0  0  0  0  0  0  0  0  0
  144.1858  143.9217  156.4683 H   0  0  0  0  0  0  0  0  0  0  0  0
  1  2  1  0  0  0  0
  1 22  1  0  0  0  0
  1 23  1  0  0  0  0
  1 24  1  0  0  0  0
  2  3  1  0  0  0  0
  2  4  1  0  0  0  0
  2 25  1  0  0  0  0
  3 26  1  0  0  0  0
  3 27  1  0  0  0  0
  3 28  1  0  0  0  0
  4  5  1  0  0  0  0
  4 29  1  0  0  0  0
  4 30  1  0  0  0  0
  5 20  1  0  0  0  0
  5  6  1  0  0  0  0
  6  7  1  0  0  0  0
  6 31  1  0  0  0  0
  6 32  1  0  0  0  0
  7  8  1  0  0  0  0
  7 19  1  0  0  0  0
  7 33  1  0  0  0  0
  8  9  2  0  0  0  0
  8 10  1  0  0  0  0
 10 11  1  0  0  0  0
 10 34  1  0  0  0  0
 11 12  1  0  0  0  0
 11 35  1  0  0  0  0
 11 36  1  0  0  0  0
 12 13  1  0  0  0  0
 12 37  1  0  0  0  0
 12 38  1  0  0  0  0
 13 18  1  0  0  0  0
 13 14  2  0  0  0  0
 14 15  1  0  0  0  0
 14 39  1  0  0  0  0
 15 16  2  0  0  0  0
 15 40  1  0  0  0  0
 16 17  1  0  0  0  0
 16 41  1  0  0  0  0
 17 18  2  0  0  0  0
 17 42  1  0  0  0  0
 18 45  1  0  0  0  0
 19 20  1  0  0  0  0
 19 43  1  0  0  0  0
 19 44  1  0  0  0  0
 20 21  2  0  0  0  0
M  CHG  1  18   1
M  END
> <s_m_source_file>
AV-unprocessed.smi

> <i_m_source_file_index>
1915

> <i_lp_mmshare_version>
43012

> <i_f3d_flags>
0

> <s_epik_input>
W0NIM11bQ0hdKFtDSDNdKVtDSDJdTjFbQ0gyXVtDQEhdKFtDSDJdQzE9TylDKD1PKVtOSF1bQ0gyXVtDSDJdYzJbY0hdW2NIXVtjSF1bY0hdbjI=

> <s_epik_cmdline>
J2VwaWtfcHl0aG9uJywgJy1waCcsICc3LjAnLCAnLXRuJywgJzgnLCAnLW1hJywgJzIwMCcsICctbWV0YWxfYmluZGluZycsICctaW1hZScsICc8aW5maWxlLm1hZT4nLCAnLW9tYWUnLCAnPG91dGZpbGUubWFlPic=

> <r_epik_Ionization_Penalty>
1.88249

> <r_epik_Ionization_Penalty_Charging>
1.88249

> <r_epik_Ionization_Penalty_Neutral>
3.64574e-08

> <r_epik_State_Penalty>
2.00238

> <r_epik_Charging_Adjusted_Penalty>
3.88487

> <i_epik_Tot_Q>
1

> <i_epik_Tot_abs_Q>
1

> <r_epik_Metal_State_Penalty>
2.02676

> <b_epik_Metal_Only>
0

> <s_lp_Force_Field>
OPLS_2005

> <r_lp_Energy>
20.6112

> <b_lp_Chiralities_Consistent>
1

> <s_lp_Variant>
AV-unprocessed.smi:1915-4

> <Gold.Version>
5.8.1

> <Gold.Id.Protein>
6NUR|6NUR_protein|mol2

> <Gold.PLP.Fitness>
50.5826

> <Gold.PLP.PLP>
-48.4049

> <Gold.PLP.part.hbond>
-2.0000

> <Gold.PLP.part.metal>
0.0000

> <Gold.PLP.part.buried>
-5.2012

> <Gold.PLP.part.nonpolar>
-40.5998

> <Gold.PLP.part.repulsive>
0.1879

> <Gold.PLP.ligand.clash>
0.0000

> <Gold.PLP.ligand.torsion>
0.6495

> <Gold.PLP.Chemscore.Hbond>
1.1087

> <Gold.PLP.Chemscore.CHOScore>
0.0000

> <Gold.PLP.Chemscore.Metal>
0.0000

> <Gold.Chemscore.Hbonds>
donor molecule, donor type, donor heavy atom, donor atom, acceptor molecule, acceptor atom, score
      L1  H    10    34       P1  8028  0.13
      P1  H  7997  8010       L1    21  1.00

> <Gold.PLP.Chemscore.Internal.Correction>
0.1506

> <Gold.Rescore>
     Score         DG    S(hbond)    S(metal)    S(lipo)     H(rot)  DE(clash)    DE(int)     intcor
     17.43     -18.42       1.41        0.00     111.26       1.86       0.10       0.89       ----

> <Gold.Chemscore.Fitness>
17.4338

> <Gold.Chemscore.DG>
-18.4197

> <Gold.Chemscore.ZeroCoef>
-5.4800

> <Gold.Chemscore.Hbond>
1.4052

> <Gold.Chemscore.Metal>
0.0000

> <Gold.Chemscore.Lipo>
111.2610

> <Gold.Chemscore.Internal_Hbond>
0.0000

> <Gold.Chemscore.DEClash>
0.0973

> <Gold.Chemscore.DEInternal>
0.8886

> <Gold.Chemscore.Rot>
1.8638

> <Gold.Chemscore.Internal.Correction>
   9.000000E+99

> <Gold.Chemscore.Hbonds>
donor molecule, donor type, donor heavy atom, donor atom, acceptor molecule, acceptor atom, score
      L1  H    10    34       P1  8028  0.13
      P1  H  7997  8010       L1    21  0.30

> <Gold.Chemscore.Hbond.Weighted>
-4.6935

> <Gold.Chemscore.Metal.Weighted>
-0.0000

> <Gold.Chemscore.Lipo.Weighted>
-13.0175

> <Gold.Chemscore.Internal_Hbond.Weighted>
0.0000

> <Gold.Chemscore.DEClash.Weighted>
0.0973

> <Gold.Chemscore.DEInternal.Weighted>
0.8886

> <Gold.Chemscore.Rot.Weighted>
4.7713

> <Gold.Chemscore.Internal.Correction.Weighted>
   9.000000E+99

> <Gold.Protein.RotatedTorsions>
[ 6907 6896 6895 6894 ] final   26.31 input  -60.11 | X-H torsion
[ 7974 7965 7964 7962 ] final   89.34 input  175.53 | X-H torsion
[ 8008 7997 7996 7995 ] final   45.75 input   59.86 | X-H torsion
[ 10167 10162 10161 10158 ] final  -78.28 input  -65.29 | X-H torsion
[ 10718 10713 10712 10709 ] final  -39.22 input   66.30 | X-H torsion
[ 10763 10752 10751 10750 ] final -121.92 input  -60.55 | X-H torsion
[ 11005 11000 10999 10996 ] final  -54.76 input  -57.11 | X-H torsion

> <Gold.Protein.ActiveResidues>
 VAL166  LYS551  ARG553  GLY616  TRP617  ASP618  TYR619  PRO620  LYS621  CYS622 
 ASP623  PHE694  ASN695  SER759  ASP760  ASP761  ALA762  ILE779  LEU786  VAL792 
 PHE793  MET794  SER795  GLU796  ALA797  LYS798  CYS799  TRP800  GLU811  SER814 

> <Gold.Protein.RotatedAtoms>
  151.9855  135.0006  160.0559 H   0  0  0  0  0  0  0  0  0  0  0  0  # atno 6907 bound_to 6896
  152.1657  133.4606  159.4892 H   0  0  0  0  0  0  0  0  0  0  0  0  # atno 6908 bound_to 6896
  150.6894  134.1934  159.4337 H   0  0  0  0  0  0  0  0  0  0  0  0  # atno 6909 bound_to 6896
  145.5336  139.2284  143.2605 H   0  0  0  0  0  0  0  0  0  0  0  0  # atno 7974 bound_to 7965
  155.3411  140.3408  155.4239 H   0  0  0  0  0  0  0  0  0  0  0  0  # atno 8008 bound_to 7997
  156.1812  140.1665  156.8306 H   0  0  0  0  0  0  0  0  0  0  0  0  # atno 8009 bound_to 7997
  154.5336  140.0740  156.8371 H   0  0  0  0  0  0  0  0  0  0  0  0  # atno 8010 bound_to 7997
  140.4696  143.2430  151.8225 H   0  0  0  0  0  0  0  0  0  0  0  0  # atno 10167 bound_to 10162
  156.2949  130.4233  149.8201 H   0  0  0  0  0  0  0  0  0  0  0  0  # atno 10718 bound_to 10713
  154.8679  135.4151  154.2699 H   0  0  0  0  0  0  0  0  0  0  0  0  # atno 10763 bound_to 10752
  153.3611  135.7003  153.6717 H   0  0  0  0  0  0  0  0  0  0  0  0  # atno 10764 bound_to 10752
  153.5618  135.3608  155.2774 H   0  0  0  0  0  0  0  0  0  0  0  0  # atno 10765 bound_to 10752
  141.1041  133.6615  156.4369 H   0  0  0  0  0  0  0  0  0  0  0  0  # atno 11005 bound_to 11000
  146.2028  140.6153  142.9095 LP  0  0  0  0  0  0  0  0  0  0  0  0  # atno 17320 bound_to 7965
  144.7613  140.5428  143.6733 LP  0  0  0  0  0  0  0  0  0  0  0  0  # atno 17321 bound_to 7965
  139.4817  144.4908  151.9188 LP  0  0  0  0  0  0  0  0  0  0  0  0  # atno 17342 bound_to 10162
  140.3993  144.2514  150.5894 LP  0  0  0  0  0  0  0  0  0  0  0  0  # atno 17343 bound_to 10162
  156.5601  130.8379  151.3326 LP  0  0  0  0  0  0  0  0  0  0  0  0  # atno 17370 bound_to 10713
  157.7352  130.9759  150.2072 LP  0  0  0  0  0  0  0  0  0  0  0  0  # atno 17371 bound_to 10713
  140.4946  134.6543  157.5224 LP  0  0  0  0  0  0  0  0  0  0  0  0  # atno 17394 bound_to 11000
  139.9904  134.6994  155.9699 LP  0  0  0  0  0  0  0  0  0  0  0  0  # atno 17395 bound_to 11000

$$$$
