AV-unprocessed.smi:1211|AV-procd|sdf|5079|dock10
  -GOLD-   22720 4133D 1   1.00000     0.00000
 Structure written by MMmdl.
 47 49  0  0  0  0  0  0  0  0  1 V2000
  147.3864  132.9302  152.8003 C   0  0  0  0  0  0  0  0  0  0  0  0
  146.2668  133.1683  151.8001 C   0  0  0  0  0  0  0  0  0  0  0  0
  145.5917  132.0615  151.2430 C   0  0  0  0  0  0  0  0  0  0  0  0
  144.5581  132.2833  150.3171 C   0  0  0  0  0  0  0  0  0  0  0  0
  144.2408  133.6117  149.9864 C   0  0  0  0  0  0  0  0  0  0  0  0
  144.8802  134.6753  150.5144 N   0  0  0  0  0  0  0  0  0  0  0  0
  145.8814  134.4786  151.4086 C   0  0  0  0  0  0  0  0  0  0  0  0
  146.5985  135.5526  152.0070 N   0  0  0  0  0  0  0  0  0  0  0  0
  146.1448  136.4932  152.8540 C   0  0  0  0  0  0  0  0  0  0  0  0
  144.9875  136.5848  153.2647 O   0  0  0  0  0  0  0  0  0  0  0  0
  147.1251  137.3369  153.2066 N   0  0  0  0  0  0  0  0  0  0  0  0
  146.9883  138.4766  154.1131 C   0  0  0  0  0  0  0  0  0  0  0  0
  148.3580  139.1579  154.4450 C   0  0  2  0  0  0  0  0  0  0  0  0
  149.4264  138.1243  154.6118 N   0  0  0  0  0  0  0  0  0  0  0  0
  149.1585  137.0713  155.6022 C   0  0  0  0  0  0  0  0  0  0  0  0
  150.2726  136.0113  155.6485 C   0  0  0  0  0  0  0  0  0  0  0  0
  151.5218  136.6351  155.9117 O   0  0  0  0  0  0  0  0  0  0  0  0
  151.8534  137.6051  154.9278 C   0  0  0  0  0  0  0  0  0  0  0  0
  150.7590  138.6841  154.8764 C   0  0  0  0  0  0  0  0  0  0  0  0
  148.1600  140.0507  155.7047 C   0  0  0  0  0  0  0  0  0  0  0  0
  147.2952  141.2608  155.3357 C   0  0  0  0  0  0  0  0  0  0  0  0
  147.6701  141.6846  153.6181 S   0  0  0  0  0  0  0  0  0  0  0  0
  148.6634  140.1931  153.3321 C   0  0  0  0  0  0  0  0  0  0  0  0
  147.5482  131.8653  152.9692 H   0  0  0  0  0  0  0  0  0  0  0  0
  147.1452  133.3896  153.7595 H   0  0  0  0  0  0  0  0  0  0  0  0
  148.3210  133.3574  152.4360 H   0  0  0  0  0  0  0  0  0  0  0  0
  145.8605  131.0526  151.5195 H   0  0  0  0  0  0  0  0  0  0  0  0
  144.0230  131.4574  149.8724 H   0  0  0  0  0  0  0  0  0  0  0  0
  143.4533  133.8272  149.2796 H   0  0  0  0  0  0  0  0  0  0  0  0
  147.5736  135.6132  151.7543 H   0  0  0  0  0  0  0  0  0  0  0  0
  148.0465  137.1754  152.8274 H   0  0  0  0  0  0  0  0  0  0  0  0
  146.3047  139.1840  153.6460 H   0  0  0  0  0  0  0  0  0  0  0  0
  146.4557  138.1762  155.0150 H   0  0  0  0  0  0  0  0  0  0  0  0
  149.0426  137.4992  156.5973 H   0  0  0  0  0  0  0  0  0  0  0  0
  148.2384  136.5401  155.3706 H   0  0  0  0  0  0  0  0  0  0  0  0
  150.0679  135.2821  156.4325 H   0  0  0  0  0  0  0  0  0  0  0  0
  150.3222  135.4625  154.7069 H   0  0  0  0  0  0  0  0  0  0  0  0
  152.8145  138.0531  155.1806 H   0  0  0  0  0  0  0  0  0  0  0  0
  151.9694  137.1249  153.9549 H   0  0  0  0  0  0  0  0  0  0  0  0
  151.0461  139.3962  154.1060 H   0  0  0  0  0  0  0  0  0  0  0  0
  150.7533  139.2279  155.8216 H   0  0  0  0  0  0  0  0  0  0  0  0
  147.7501  139.5047  156.5541 H   0  0  0  0  0  0  0  0  0  0  0  0
  149.1045  140.4718  156.0411 H   0  0  0  0  0  0  0  0  0  0  0  0
  146.2351  141.0208  155.4170 H   0  0  0  0  0  0  0  0  0  0  0  0
  147.4853  142.1097  155.9926 H   0  0  0  0  0  0  0  0  0  0  0  0
  149.7040  140.5117  153.3571 H   0  0  0  0  0  0  0  0  0  0  0  0
  148.4769  139.8015  152.3317 H   0  0  0  0  0  0  0  0  0  0  0  0
  1  2  1  0  0  0  0
  1 24  1  0  0  0  0
  1 25  1  0  0  0  0
  1 26  1  0  0  0  0
  2  7  1  0  0  0  0
  2  3  2  0  0  0  0
  3  4  1  0  0  0  0
  3 27  1  0  0  0  0
  4  5  2  0  0  0  0
  4 28  1  0  0  0  0
  5  6  1  0  0  0  0
  5 29  1  0  0  0  0
  6  7  2  0  0  0  0
  7  8  1  0  0  0  0
  8  9  1  0  0  0  0
  8 30  1  0  0  0  0
  9 10  2  0  0  0  0
  9 11  1  0  0  0  0
 11 12  1  0  0  0  0
 11 31  1  0  0  0  0
 12 13  1  0  0  0  0
 12 32  1  0  0  0  0
 12 33  1  0  0  0  0
 13 23  1  0  0  0  0
 13 14  1  0  0  0  0
 13 20  1  0  0  0  0
 14 19  1  0  0  0  0
 14 15  1  0  0  0  0
 15 16  1  0  0  0  0
 15 34  1  0  0  0  0
 15 35  1  0  0  0  0
 16 17  1  0  0  0  0
 16 36  1  0  0  0  0
 16 37  1  0  0  0  0
 17 18  1  0  0  0  0
 18 19  1  0  0  0  0
 18 38  1  0  0  0  0
 18 39  1  0  0  0  0
 19 40  1  0  0  0  0
 19 41  1  0  0  0  0
 20 21  1  0  0  0  0
 20 42  1  0  0  0  0
 20 43  1  0  0  0  0
 21 22  1  0  0  0  0
 21 44  1  0  0  0  0
 21 45  1  0  0  0  0
 22 23  1  0  0  0  0
 23 46  1  0  0  0  0
 23 47  1  0  0  0  0
M  END
> <s_m_source_file>
AV-unprocessed.smi

> <i_m_source_file_index>
1211

> <i_lp_mmshare_version>
43012

> <i_f3d_flags>
0

> <s_epik_input>
W0NIM11jMVtjSF1bY0hdW2NIXW5jMVtOSF1DKD1PKVtOSF1bQ0gyXVtDQF0yKFtDSDJdW0NIMl1TW0NIMl0yKU4zW0NIMl1bQ0gyXU9bQ0gyXVtDSDJdMw==

> <s_epik_cmdline>
J2VwaWtfcHl0aG9uJywgJy1waCcsICc3LjAnLCAnLXRuJywgJzgnLCAnLW1hJywgJzIwMCcsICctbWV0YWxfYmluZGluZycsICctaW1hZScsICc8aW5maWxlLm1hZT4nLCAnLW9tYWUnLCAnPG91dGZpbGUubWFlPic=

> <r_epik_Ionization_Penalty>
0.0195636

> <r_epik_Ionization_Penalty_Charging>
0

> <r_epik_Ionization_Penalty_Neutral>
0.0195636

> <r_epik_State_Penalty>
0.0155843

> <r_epik_Charging_Adjusted_Penalty>
0.0155843

> <i_epik_Tot_Q>
0

> <i_epik_Tot_abs_Q>
0

> <r_epik_Metal_State_Penalty>
0.0155842

> <b_epik_Metal_Only>
0

> <s_lp_Force_Field>
OPLS_2005

> <r_lp_Energy>
55.6776

> <b_lp_Chiralities_Consistent>
1

> <s_lp_Variant>
AV-unprocessed.smi:1211-2

> <Gold.Version>
5.8.1

> <Gold.Id.Protein>
6NUR|6NUR_protein|mol2

> <Gold.PLP.Fitness>
43.9732

> <Gold.PLP.PLP>
-33.8640

> <Gold.PLP.part.hbond>
-3.0000

> <Gold.PLP.part.metal>
0.0000

> <Gold.PLP.part.buried>
-3.7525

> <Gold.PLP.part.nonpolar>
-28.8406

> <Gold.PLP.part.repulsive>
0.5884

> <Gold.PLP.ligand.clash>
0.0000

> <Gold.PLP.ligand.torsion>
0.9854

> <Gold.PLP.Chemscore.Hbond>
3.0000

> <Gold.PLP.Chemscore.CHOScore>
1.0000

> <Gold.PLP.Chemscore.Metal>
0.0000

> <Gold.Chemscore.Hbonds>
donor molecule, donor type, donor heavy atom, donor atom, acceptor molecule, acceptor atom, score
      L1  H     8    30       P1  7948  0.86
      L1  H    11    31       P1  7948  0.93
      P1  H 10752 10763       L1    17  0.04
      L1  C     5    29       P1 10186  1.00

> <Gold.PLP.Chemscore.Internal.Correction>
0.0800

> <Gold.Rescore>
     Score         DG    S(hbond)    S(metal)    S(lipo)     H(rot)  DE(clash)    DE(int)     intcor
     18.04     -19.28       2.23        0.00      85.96       1.44       0.30       0.94       ----

> <Gold.Chemscore.Fitness>
18.0419

> <Gold.Chemscore.DG>
-19.2833

> <Gold.Chemscore.ZeroCoef>
-5.4800

> <Gold.Chemscore.Hbond>
2.2256

> <Gold.Chemscore.Metal>
0.0000

> <Gold.Chemscore.Lipo>
85.9595

> <Gold.Chemscore.Internal_Hbond>
0.0000

> <Gold.Chemscore.DEClash>
0.3000

> <Gold.Chemscore.DEInternal>
0.9414

> <Gold.Chemscore.Rot>
1.4405

> <Gold.Chemscore.Internal.Correction>
   9.000000E+99

> <Gold.Chemscore.Hbonds>
donor molecule, donor type, donor heavy atom, donor atom, acceptor molecule, acceptor atom, score
      L1  H     8    30       P1  7948  0.82
      L1  H    11    31       P1  7948  0.89

> <Gold.Chemscore.Hbond.Weighted>
-7.4336

> <Gold.Chemscore.Metal.Weighted>
-0.0000

> <Gold.Chemscore.Lipo.Weighted>
-10.0573

> <Gold.Chemscore.Internal_Hbond.Weighted>
0.0000

> <Gold.Chemscore.DEClash.Weighted>
0.3000

> <Gold.Chemscore.DEInternal.Weighted>
0.9414

> <Gold.Chemscore.Rot.Weighted>
3.6876

> <Gold.Chemscore.Internal.Correction.Weighted>
   9.000000E+99

> <Gold.Protein.RotatedTorsions>
[ 6907 6896 6895 6894 ] final -107.97 input  -60.11 | X-H torsion
[ 7974 7965 7964 7962 ] final  105.55 input  175.53 | X-H torsion
[ 8008 7997 7996 7995 ] final -136.80 input   59.86 | X-H torsion
[ 10167 10162 10161 10158 ] final  -62.75 input  -65.29 | X-H torsion
[ 10718 10713 10712 10709 ] final -136.10 input   66.30 | X-H torsion
[ 10763 10752 10751 10750 ] final   75.19 input  -60.55 | X-H torsion
[ 11005 11000 10999 10996 ] final -153.33 input  -57.11 | X-H torsion

> <Gold.Protein.ActiveResidues>
 VAL166  LYS551  ARG553  GLY616  TRP617  ASP618  TYR619  PRO620  LYS621  CYS622 
 ASP623  PHE694  ASN695  SER759  ASP760  ASP761  ALA762  ILE779  LEU786  VAL792 
 PHE793  MET794  SER795  GLU796  ALA797  LYS798  CYS799  TRP800  GLU811  SER814 

> <Gold.Protein.RotatedAtoms>
  150.7474  133.9748  159.3556 H   0  0  0  0  0  0  0  0  0  0  0  0  # atno 6907 bound_to 6896
  151.7684  135.0790  160.0365 H   0  0  0  0  0  0  0  0  0  0  0  0  # atno 6908 bound_to 6896
  152.3355  133.5970  159.5876 H   0  0  0  0  0  0  0  0  0  0  0  0  # atno 6909 bound_to 6896
  145.3181  139.2520  143.3726 H   0  0  0  0  0  0  0  0  0  0  0  0  # atno 7974 bound_to 7965
  155.4013  140.0506  157.3036 H   0  0  0  0  0  0  0  0  0  0  0  0  # atno 8008 bound_to 7997
  154.4989  140.2149  155.9348 H   0  0  0  0  0  0  0  0  0  0  0  0  # atno 8009 bound_to 7997
  156.1442  140.3148  155.8549 H   0  0  0  0  0  0  0  0  0  0  0  0  # atno 8010 bound_to 7997
  140.5918  143.2343  151.6123 H   0  0  0  0  0  0  0  0  0  0  0  0  # atno 10167 bound_to 10162
  156.2733  130.7278  151.1252 H   0  0  0  0  0  0  0  0  0  0  0  0  # atno 10718 bound_to 10713
  153.0637  135.4998  154.8153 H   0  0  0  0  0  0  0  0  0  0  0  0  # atno 10763 bound_to 10752
  154.6922  135.2986  154.9465 H   0  0  0  0  0  0  0  0  0  0  0  0  # atno 10764 bound_to 10752
  154.0216  135.6741  153.4826 H   0  0  0  0  0  0  0  0  0  0  0  0  # atno 10765 bound_to 10752
  140.7093  134.3851  157.5200 H   0  0  0  0  0  0  0  0  0  0  0  0  # atno 11005 bound_to 11000
  146.3092  140.3733  142.8676 LP  0  0  0  0  0  0  0  0  0  0  0  0  # atno 17320 bound_to 7965
  144.8961  140.7584  143.5896 LP  0  0  0  0  0  0  0  0  0  0  0  0  # atno 17321 bound_to 7965
  139.5232  144.3140  152.0968 LP  0  0  0  0  0  0  0  0  0  0  0  0  # atno 17342 bound_to 10162
  140.2305  144.4373  150.6302 LP  0  0  0  0  0  0  0  0  0  0  0  0  # atno 17343 bound_to 10162
  157.7291  131.0627  150.5789 LP  0  0  0  0  0  0  0  0  0  0  0  0  # atno 17370 bound_to 10713
  156.5888  130.4324  149.5945 LP  0  0  0  0  0  0  0  0  0  0  0  0  # atno 17371 bound_to 10713
  139.8876  134.8879  156.2520 LP  0  0  0  0  0  0  0  0  0  0  0  0  # atno 17394 bound_to 11000
  141.0098  133.7102  156.1093 LP  0  0  0  0  0  0  0  0  0  0  0  0  # atno 17395 bound_to 11000

$$$$
