AV-unprocessed.smi:2229|AV-procd|sdf|9027|dock5
  -GOLD-   2272012233D 1   1.00000     0.00000
 Structure written by MMmdl.
 44 45  0  0  0  0  0  0  0  0  1 V2000
  152.6636  144.8108  158.0869 C   0  0  0  0  0  0  0  0  0  0  0  0
  151.4709  144.3709  158.9498 C   0  0  0  0  0  0  0  0  0  0  0  0
  151.6037  144.9400  160.3733 C   0  0  0  0  0  0  0  0  0  0  0  0
  151.3273  142.8352  158.9381 C   0  0  0  0  0  0  0  0  0  0  0  0
  150.6685  142.2772  157.6643 C   0  0  0  0  0  0  0  0  0  0  0  0
  150.9597  140.7834  157.4332 C   0  0  2  0  0  0  0  0  0  0  0  0
  152.3436  140.3100  157.8815 C   0  0  0  0  0  0  0  0  0  0  0  0
  152.5255  138.9757  157.1594 C   0  0  0  0  0  0  0  0  0  0  0  0
  151.8015  139.1351  155.8164 C   0  0  0  0  0  0  0  0  0  0  0  0
  150.8907  140.3714  155.9539 C   0  0  1  0  0  0  0  0  0  0  0  0
  149.5103  140.1006  155.5736 N   0  0  0  0  0  0  0  0  0  0  0  0
  148.9063  140.5325  154.4552 C   0  0  0  0  0  0  0  0  0  0  0  0
  149.5020  141.1438  153.5696 O   0  0  0  0  0  0  0  0  0  0  0  0
  147.4000  140.2630  154.2999 C   0  0  0  0  0  0  0  0  0  0  0  0
  147.0458  139.3530  153.2040 N   0  0  0  0  0  0  0  0  0  0  0  0
  147.2420  139.6564  151.8734 C   0  0  0  0  0  0  0  0  0  0  0  0
  146.8542  138.7008  151.0995 N   0  0  0  0  0  0  0  0  0  0  0  0
  146.3986  137.7761  151.9781 N   0  0  0  0  0  0  0  0  0  0  0  0
  146.4975  138.1408  153.2571 C   0  0  0  0  0  0  0  0  0  0  0  0
  146.1676  137.4965  154.2509 O   0  0  0  0  0  0  0  0  0  0  0  0
  146.0266  136.9044  151.6292 H   0  0  0  0  0  0  0  0  0  0  0  0
  153.6025  144.4188  158.4793 H   0  0  0  0  0  0  0  0  0  0  0  0
  152.7454  145.8976  158.0528 H   0  0  0  0  0  0  0  0  0  0  0  0
  152.5593  144.4595  157.0598 H   0  0  0  0  0  0  0  0  0  0  0  0
  150.5734  144.7981  158.5006 H   0  0  0  0  0  0  0  0  0  0  0  0
  152.4584  144.5084  160.8947 H   0  0  0  0  0  0  0  0  0  0  0  0
  150.7147  144.7468  160.9729 H   0  0  0  0  0  0  0  0  0  0  0  0
  151.7419  146.0214  160.3504 H   0  0  0  0  0  0  0  0  0  0  0  0
  152.3173  142.3890  159.0383 H   0  0  0  0  0  0  0  0  0  0  0  0
  150.7628  142.5152  159.8151 H   0  0  0  0  0  0  0  0  0  0  0  0
  149.5884  142.4033  157.7341 H   0  0  0  0  0  0  0  0  0  0  0  0
  150.9869  142.8554  156.7963 H   0  0  0  0  0  0  0  0  0  0  0  0
  150.2225  140.1975  157.9863 H   0  0  0  0  0  0  0  0  0  0  0  0
  153.1077  141.0154  157.5519 H   0  0  0  0  0  0  0  0  0  0  0  0
  152.4253  140.2088  158.9641 H   0  0  0  0  0  0  0  0  0  0  0  0
  153.5758  138.7094  157.0379 H   0  0  0  0  0  0  0  0  0  0  0  0
  152.0500  138.1825  157.7376 H   0  0  0  0  0  0  0  0  0  0  0  0
  152.5186  139.2925  155.0099 H   0  0  0  0  0  0  0  0  0  0  0  0
  151.2436  138.2291  155.5754 H   0  0  0  0  0  0  0  0  0  0  0  0
  151.2944  141.1779  155.3381 H   0  0  0  0  0  0  0  0  0  0  0  0
  148.9482  139.5994  156.2460 H   0  0  0  0  0  0  0  0  0  0  0  0
  147.0279  139.8395  155.2340 H   0  0  0  0  0  0  0  0  0  0  0  0
  146.8924  141.2211  154.1786 H   0  0  0  0  0  0  0  0  0  0  0  0
  147.6819  140.6161  151.5963 H   0  0  0  0  0  0  0  0  0  0  0  0
  1  2  1  0  0  0  0
  1 22  1  0  0  0  0
  1 23  1  0  0  0  0
  1 24  1  0  0  0  0
  2  3  1  0  0  0  0
  2  4  1  0  0  0  0
  2 25  1  0  0  0  0
  3 26  1  0  0  0  0
  3 27  1  0  0  0  0
  3 28  1  0  0  0  0
  4  5  1  0  0  0  0
  4 29  1  0  0  0  0
  4 30  1  0  0  0  0
  5  6  1  0  0  0  0
  5 31  1  0  0  0  0
  5 32  1  0  0  0  0
  6 10  1  0  0  0  0
  6  7  1  0  0  0  0
  6 33  1  0  0  0  0
  7  8  1  0  0  0  0
  7 34  1  0  0  0  0
  7 35  1  0  0  0  0
  8  9  1  0  0  0  0
  8 36  1  0  0  0  0
  8 37  1  0  0  0  0
  9 10  1  0  0  0  0
  9 38  1  0  0  0  0
  9 39  1  0  0  0  0
 10 11  1  0  0  0  0
 10 40  1  0  0  0  0
 11 12  1  0  0  0  0
 11 41  1  0  0  0  0
 12 13  2  0  0  0  0
 12 14  1  0  0  0  0
 14 15  1  0  0  0  0
 14 42  1  0  0  0  0
 14 43  1  0  0  0  0
 15 19  1  0  0  0  0
 15 16  1  0  0  0  0
 16 17  2  0  0  0  0
 16 44  1  0  0  0  0
 17 18  1  0  0  0  0
 18 21  1  0  0  0  0
 18 19  1  0  0  0  0
 19 20  2  0  0  0  0
M  END
> <s_m_source_file>
AV-unprocessed.smi

> <i_m_source_file_index>
2229

> <i_lp_mmshare_version>
43012

> <i_f3d_flags>
0

> <s_epik_input>
W0NIM11bQ0hdKFtDSDNdKVtDSDJdW0NIMl1bQ0BASF0xW0NIMl1bQ0gyXVtDSDJdW0NASF0xW05IXUMoPU8pW0NIMl1uMltjSF1uW25IXWMyPU8=

> <s_epik_cmdline>
J2VwaWtfcHl0aG9uJywgJy1waCcsICc3LjAnLCAnLXRuJywgJzgnLCAnLW1hJywgJzIwMCcsICctbWV0YWxfYmluZGluZycsICctaW1hZScsICc8aW5maWxlLm1hZT4nLCAnLW9tYWUnLCAnPG91dGZpbGUubWFlPic=

> <r_lp_tautomer_probability>
1

> <r_epik_Ionization_Penalty>
4.14174e-05

> <r_epik_Ionization_Penalty_Charging>
4.13165e-05

> <r_epik_Ionization_Penalty_Neutral>
1.00911e-07

> <r_epik_State_Penalty>
-0

> <r_epik_Charging_Adjusted_Penalty>
4.13165e-05

> <i_epik_Tot_Q>
0

> <i_epik_Tot_abs_Q>
0

> <r_epik_Metal_State_Penalty>
0.0399369

> <b_epik_Metal_Only>
0

> <s_lp_Force_Field>
OPLS_2005

> <r_lp_Energy>
36.5056

> <b_lp_Chiralities_Consistent>
1

> <s_lp_Variant>
AV-unprocessed.smi:2229-1

> <Gold.Version>
5.8.1

> <Gold.Id.Protein>
6NUR|6NUR_protein|mol2

> <Gold.PLP.Fitness>
43.8172

> <Gold.PLP.PLP>
-37.4776

> <Gold.PLP.part.hbond>
-3.9905

> <Gold.PLP.part.metal>
0.0000

> <Gold.PLP.part.buried>
-2.0535

> <Gold.PLP.part.nonpolar>
-35.3918

> <Gold.PLP.part.repulsive>
4.3821

> <Gold.PLP.ligand.clash>
0.0000

> <Gold.PLP.ligand.torsion>
0.8079

> <Gold.PLP.Chemscore.Hbond>
2.1909

> <Gold.PLP.Chemscore.CHOScore>
0.4529

> <Gold.PLP.Chemscore.Metal>
0.0000

> <Gold.Chemscore.Hbonds>
donor molecule, donor type, donor heavy atom, donor atom, acceptor molecule, acceptor atom, score
      P1  H  7954  7966       L1    17  0.98
      P1  H  7989  7998       L1    13  0.18
      P1  H  8011  8017       L1    13  0.99
      L1  C    16    44       P1  7957  0.41

> <Gold.PLP.Chemscore.Internal.Correction>
0.0238

> <Gold.Rescore>
     Score         DG    S(hbond)    S(metal)    S(lipo)     H(rot)  DE(clash)    DE(int)     intcor
     11.76     -15.75       1.99        0.00      88.70       2.64       3.26       0.73       ----

> <Gold.Chemscore.Fitness>
11.7628

> <Gold.Chemscore.DG>
-15.7489

> <Gold.Chemscore.ZeroCoef>
-5.4800

> <Gold.Chemscore.Hbond>
1.9882

> <Gold.Chemscore.Metal>
0.0000

> <Gold.Chemscore.Lipo>
88.7048

> <Gold.Chemscore.Internal_Hbond>
0.0000

> <Gold.Chemscore.DEClash>
3.2561

> <Gold.Chemscore.DEInternal>
0.7301

> <Gold.Chemscore.Rot>
2.6368

> <Gold.Chemscore.Internal.Correction>
   9.000000E+99

> <Gold.Chemscore.Hbonds>
donor molecule, donor type, donor heavy atom, donor atom, acceptor molecule, acceptor atom, score
      P1  H  7954  7966       L1    17  0.66
      P1  H  7989  7998       L1    13  0.18
      P1  H  8011  8017       L1    13  0.94

> <Gold.Chemscore.Hbond.Weighted>
-6.6406

> <Gold.Chemscore.Metal.Weighted>
-0.0000

> <Gold.Chemscore.Lipo.Weighted>
-10.3785

> <Gold.Chemscore.Internal_Hbond.Weighted>
0.0000

> <Gold.Chemscore.DEClash.Weighted>
3.2561

> <Gold.Chemscore.DEInternal.Weighted>
0.7301

> <Gold.Chemscore.Rot.Weighted>
6.7501

> <Gold.Chemscore.Internal.Correction.Weighted>
   9.000000E+99

> <Gold.Protein.RotatedTorsions>
[ 6907 6896 6895 6894 ] final  177.60 input  -60.11 | X-H torsion
[ 7974 7965 7964 7962 ] final    4.37 input  175.53 | X-H torsion
[ 8008 7997 7996 7995 ] final  121.50 input   59.86 | X-H torsion
[ 10167 10162 10161 10158 ] final  144.88 input  -65.29 | X-H torsion
[ 10718 10713 10712 10709 ] final  -89.67 input   66.30 | X-H torsion
[ 10763 10752 10751 10750 ] final  127.97 input  -60.55 | X-H torsion
[ 11005 11000 10999 10996 ] final   24.04 input  -57.11 | X-H torsion

> <Gold.Protein.ActiveResidues>
 VAL166  LYS551  ARG553  GLY616  TRP617  ASP618  TYR619  PRO620  LYS621  CYS622 
 ASP623  PHE694  ASN695  SER759  ASP760  ASP761  ALA762  ILE779  LEU786  VAL792 
 PHE793  MET794  SER795  GLU796  ALA797  LYS798  CYS799  TRP800  GLU811  SER814 

> <Gold.Protein.RotatedAtoms>
  151.7014  133.3311  159.3267 H   0  0  0  0  0  0  0  0  0  0  0  0  # atno 6907 bound_to 6896
  150.7734  134.6612  159.6350 H   0  0  0  0  0  0  0  0  0  0  0  0  # atno 6908 bound_to 6896
  152.3767  134.6655  160.0209 H   0  0  0  0  0  0  0  0  0  0  0  0  # atno 6909 bound_to 6896
  146.2444  140.0544  142.8373 H   0  0  0  0  0  0  0  0  0  0  0  0  # atno 7974 bound_to 7965
  156.2689  140.2807  156.1318 H   0  0  0  0  0  0  0  0  0  0  0  0  # atno 8008 bound_to 7997
  155.1046  140.0390  157.2724 H   0  0  0  0  0  0  0  0  0  0  0  0  # atno 8009 bound_to 7997
  154.6789  140.2604  155.6935 H   0  0  0  0  0  0  0  0  0  0  0  0  # atno 8010 bound_to 7997
  139.4937  144.5941  151.6619 H   0  0  0  0  0  0  0  0  0  0  0  0  # atno 10167 bound_to 10162
  155.9985  130.4881  150.5206 H   0  0  0  0  0  0  0  0  0  0  0  0  # atno 10718 bound_to 10713
  153.7180  135.3258  155.3260 H   0  0  0  0  0  0  0  0  0  0  0  0  # atno 10763 bound_to 10752
  154.8365  135.4492  154.1247 H   0  0  0  0  0  0  0  0  0  0  0  0  # atno 10764 bound_to 10752
  153.2359  135.6965  153.7917 H   0  0  0  0  0  0  0  0  0  0  0  0  # atno 10765 bound_to 10752
  140.3630  134.2105  155.7671 H   0  0  0  0  0  0  0  0  0  0  0  0  # atno 11005 bound_to 11000
  145.0955  140.9312  143.4743 LP  0  0  0  0  0  0  0  0  0  0  0  0  # atno 17320 bound_to 7965
  145.0726  139.3020  143.5824 LP  0  0  0  0  0  0  0  0  0  0  0  0  # atno 17321 bound_to 7965
  140.5575  144.0324  150.6154 LP  0  0  0  0  0  0  0  0  0  0  0  0  # atno 17342 bound_to 10162
  140.3398  143.3026  152.0600 LP  0  0  0  0  0  0  0  0  0  0  0  0  # atno 17343 bound_to 10162
  157.3168  131.0674  151.1961 LP  0  0  0  0  0  0  0  0  0  0  0  0  # atno 17370 bound_to 10713
  157.2888  130.6786  149.6103 LP  0  0  0  0  0  0  0  0  0  0  0  0  # atno 17371 bound_to 10713
  141.1978  133.8050  157.0610 LP  0  0  0  0  0  0  0  0  0  0  0  0  # atno 17394 bound_to 11000
  140.0612  134.9754  157.1307 LP  0  0  0  0  0  0  0  0  0  0  0  0  # atno 17395 bound_to 11000

$$$$
