AV-unprocessed.smi:674|AV-procd|sdf|3301|dock4
  -GOLD-   22720 0263D 1   1.00000     0.00000
 Structure written by MMmdl.
 47 48  0  0  0  0  0  0  0  0  1 V2000
  151.4030  141.9568  157.8142 C   0  0  0  0  0  0  0  0  0  0  0  0
  151.0054  141.9822  156.3338 C   0  0  0  0  0  0  0  0  0  0  0  0
  151.1445  140.6309  155.6915 C   0  0  0  0  0  0  0  0  0  0  0  0
  150.1070  139.7248  155.3269 C   0  0  0  0  0  0  0  0  0  0  0  0
  150.7991  138.6661  154.8053 C   0  0  0  0  0  0  0  0  0  0  0  0
  150.3171  137.4957  154.3087 N   0  0  0  0  0  0  0  0  0  0  0  0
  150.6408  136.2380  154.6568 C   0  0  0  0  0  0  0  0  0  0  0  0
  151.4313  135.9226  155.5465 O   0  0  0  0  0  0  0  0  0  0  0  0
  149.9804  135.3444  153.9084 N   0  0  0  0  0  0  0  0  0  0  0  0
  150.1137  133.8981  154.0460 C   0  0  2  0  0  0  0  0  0  0  0  0
  149.2432  133.1283  153.0557 C   0  0  0  0  0  0  0  0  0  0  0  0
  149.0277  132.1009  154.1822 C   0  0  2  0  0  0  0  0  0  0  0  0
  149.9559  130.8768  154.2269 C   0  0  0  0  0  0  0  0  0  0  0  0
  147.6649  131.6836  154.2765 O   0  0  0  0  0  0  0  0  0  0  0  0
  147.1420  130.9827  153.1549 C   0  0  0  0  0  0  0  0  0  0  0  0
  149.2727  133.2733  155.1879 C   0  0  0  0  0  0  0  0  0  0  0  0
  150.0377  132.9362  156.4717 C   0  0  0  0  0  0  0  0  0  0  0  0
  148.0227  134.0567  155.6374 C   0  0  0  0  0  0  0  0  0  0  0  0
  152.1482  138.9439  154.8660 N   0  0  0  0  0  0  0  0  0  0  0  0
  153.2886  138.1505  154.4499 C   0  0  0  0  0  0  0  0  0  0  0  0
  152.3555  140.1605  155.4131 N   0  0  0  0  0  0  0  0  0  0  0  0
  151.2946  142.9442  158.2628 H   0  0  0  0  0  0  0  0  0  0  0  0
  152.4413  141.6474  157.9387 H   0  0  0  0  0  0  0  0  0  0  0  0
  150.7772  141.2638  158.3776 H   0  0  0  0  0  0  0  0  0  0  0  0
  149.9763  142.3310  156.2430 H   0  0  0  0  0  0  0  0  0  0  0  0
  151.6192  142.7126  155.8053 H   0  0  0  0  0  0  0  0  0  0  0  0
  149.0411  139.8485  155.4446 H   0  0  0  0  0  0  0  0  0  0  0  0
  149.6278  137.5908  153.5777 H   0  0  0  0  0  0  0  0  0  0  0  0
  149.3437  135.6822  153.2017 H   0  0  0  0  0  0  0  0  0  0  0  0
  151.1476  133.5449  154.0335 H   0  0  0  0  0  0  0  0  0  0  0  0
  148.3343  133.6584  152.7645 H   0  0  0  0  0  0  0  0  0  0  0  0
  149.7785  132.7473  152.1857 H   0  0  0  0  0  0  0  0  0  0  0  0
  151.0047  131.1643  154.2988 H   0  0  0  0  0  0  0  0  0  0  0  0
  149.8681  130.2666  153.3285 H   0  0  0  0  0  0  0  0  0  0  0  0
  149.7326  130.2406  155.0835 H   0  0  0  0  0  0  0  0  0  0  0  0
  146.0769  130.8102  153.3079 H   0  0  0  0  0  0  0  0  0  0  0  0
  147.6121  130.0078  153.0284 H   0  0  0  0  0  0  0  0  0  0  0  0
  147.2537  131.5492  152.2302 H   0  0  0  0  0  0  0  0  0  0  0  0
  149.4778  132.2412  157.0981 H   0  0  0  0  0  0  0  0  0  0  0  0
  150.2365  133.8290  157.0655 H   0  0  0  0  0  0  0  0  0  0  0  0
  151.0052  132.4800  156.2636 H   0  0  0  0  0  0  0  0  0  0  0  0
  147.3971  133.4604  156.3024 H   0  0  0  0  0  0  0  0  0  0  0  0
  147.3969  134.3571  154.7969 H   0  0  0  0  0  0  0  0  0  0  0  0
  148.2897  134.9663  156.1764 H   0  0  0  0  0  0  0  0  0  0  0  0
  152.9633  137.2385  153.9495 H   0  0  0  0  0  0  0  0  0  0  0  0
  153.8850  137.8815  155.3221 H   0  0  0  0  0  0  0  0  0  0  0  0
  153.9057  138.7272  153.7605 H   0  0  0  0  0  0  0  0  0  0  0  0
  1  2  1  0  0  0  0
  1 22  1  0  0  0  0
  1 23  1  0  0  0  0
  1 24  1  0  0  0  0
  2  3  1  0  0  0  0
  2 25  1  0  0  0  0
  2 26  1  0  0  0  0
  3 21  2  0  0  0  0
  3  4  1  0  0  0  0
  4  5  2  0  0  0  0
  4 27  1  0  0  0  0
  5  6  1  0  0  0  0
  5 19  1  0  0  0  0
  6  7  1  0  0  0  0
  6 28  1  0  0  0  0
  7  8  2  0  0  0  0
  7  9  1  0  0  0  0
  9 10  1  0  0  0  0
  9 29  1  0  0  0  0
 10 16  1  0  0  0  0
 10 11  1  0  0  0  0
 10 30  1  0  0  0  0
 11 12  1  0  0  0  0
 11 31  1  0  0  0  0
 11 32  1  0  0  0  0
 12 13  1  0  0  0  0
 12 14  1  0  0  0  0
 12 16  1  0  0  0  0
 13 33  1  0  0  0  0
 13 34  1  0  0  0  0
 13 35  1  0  0  0  0
 14 15  1  0  0  0  0
 15 36  1  0  0  0  0
 15 37  1  0  0  0  0
 15 38  1  0  0  0  0
 16 17  1  0  0  0  0
 16 18  1  0  0  0  0
 17 39  1  0  0  0  0
 17 40  1  0  0  0  0
 17 41  1  0  0  0  0
 18 42  1  0  0  0  0
 18 43  1  0  0  0  0
 18 44  1  0  0  0  0
 19 20  1  0  0  0  0
 19 21  1  0  0  0  0
 20 45  1  0  0  0  0
 20 46  1  0  0  0  0
 20 47  1  0  0  0  0
M  END
> <s_m_source_file>
AV-unprocessed.smi

> <i_m_source_file_index>
674

> <i_lp_mmshare_version>
43012

> <i_f3d_flags>
0

> <s_epik_input>
W0NIM11bQ0gyXWMxW2NIXWMobihuMSlbQ0gzXSlbTkhdQyg9TylbTkhdW0NAQEhdKEMyKFtDSDNdKVtDSDNdKVtDSDJdW0NAQF0yKFtDSDNdKU9bQ0gzXQ==

> <s_epik_cmdline>
J2VwaWtfcHl0aG9uJywgJy1waCcsICc3LjAnLCAnLXRuJywgJzgnLCAnLW1hJywgJzIwMCcsICctbWV0YWxfYmluZGluZycsICctaW1hZScsICc8aW5maWxlLm1hZT4nLCAnLW9tYWUnLCAnPG91dGZpbGUubWFlPic=

> <r_lp_tautomer_probability>
1

> <r_epik_Ionization_Penalty>
0.000101626

> <r_epik_Ionization_Penalty_Charging>
0

> <r_epik_Ionization_Penalty_Neutral>
0.000101626

> <r_epik_State_Penalty>
-0

> <r_epik_Charging_Adjusted_Penalty>
0

> <i_epik_Tot_Q>
0

> <i_epik_Tot_abs_Q>
0

> <r_epik_Metal_State_Penalty>
-0

> <b_epik_Metal_Only>
0

> <s_lp_Force_Field>
OPLS_2005

> <r_lp_Energy>
22.7641

> <b_lp_Chiralities_Consistent>
1

> <s_lp_Variant>
AV-unprocessed.smi:674-3

> <Gold.Version>
5.8.1

> <Gold.Id.Protein>
6NUR|6NUR_protein|mol2

> <Gold.PLP.Fitness>
40.8083

> <Gold.PLP.PLP>
-33.4813

> <Gold.PLP.part.hbond>
-5.5784

> <Gold.PLP.part.metal>
0.0000

> <Gold.PLP.part.buried>
1.4357

> <Gold.PLP.part.nonpolar>
-28.5829

> <Gold.PLP.part.repulsive>
0.2063

> <Gold.PLP.ligand.clash>
0.0000

> <Gold.PLP.ligand.torsion>
0.9429

> <Gold.PLP.Chemscore.Hbond>
2.9456

> <Gold.PLP.Chemscore.CHOScore>
0.0000

> <Gold.PLP.Chemscore.Metal>
0.0000

> <Gold.Chemscore.Hbonds>
donor molecule, donor type, donor heavy atom, donor atom, acceptor molecule, acceptor atom, score
      L1  H     6    28       P1  7948  0.29
      L1  H     9    29       P1  7948  0.83
      P1  H  7997  8009       L1    21  0.71
      P1  H 10752 10765       L1     8  1.00

> <Gold.PLP.Chemscore.Internal.Correction>
0.3760

> <Gold.Rescore>
     Score         DG    S(hbond)    S(metal)    S(lipo)     H(rot)  DE(clash)    DE(int)     intcor
     14.79     -16.49       1.73        0.00      74.71       1.37       0.79       0.91       ----

> <Gold.Chemscore.Fitness>
14.7895

> <Gold.Chemscore.DG>
-16.4908

> <Gold.Chemscore.ZeroCoef>
-5.4800

> <Gold.Chemscore.Hbond>
1.7263

> <Gold.Chemscore.Metal>
0.0000

> <Gold.Chemscore.Lipo>
74.7124

> <Gold.Chemscore.Internal_Hbond>
0.0000

> <Gold.Chemscore.DEClash>
0.7902

> <Gold.Chemscore.DEInternal>
0.9111

> <Gold.Chemscore.Rot>
1.3658

> <Gold.Chemscore.Internal.Correction>
   9.000000E+99

> <Gold.Chemscore.Hbonds>
donor molecule, donor type, donor heavy atom, donor atom, acceptor molecule, acceptor atom, score
      L1  H     6    28       P1  7948  0.25
      L1  H     9    29       P1  7948  0.21
      P1  H  7997  8009       L1    21  0.42
      P1  H 10752 10765       L1     8  0.60

> <Gold.Chemscore.Hbond.Weighted>
-5.7658

> <Gold.Chemscore.Metal.Weighted>
-0.0000

> <Gold.Chemscore.Lipo.Weighted>
-8.7414

> <Gold.Chemscore.Internal_Hbond.Weighted>
0.0000

> <Gold.Chemscore.DEClash.Weighted>
0.7902

> <Gold.Chemscore.DEInternal.Weighted>
0.9111

> <Gold.Chemscore.Rot.Weighted>
3.4963

> <Gold.Chemscore.Internal.Correction.Weighted>
   9.000000E+99

> <Gold.Protein.RotatedTorsions>
[ 6907 6896 6895 6894 ] final   52.60 input  -60.11 | X-H torsion
[ 7974 7965 7964 7962 ] final   67.61 input  175.53 | X-H torsion
[ 8008 7997 7996 7995 ] final -156.94 input   59.86 | X-H torsion
[ 10167 10162 10161 10158 ] final   17.80 input  -65.29 | X-H torsion
[ 10718 10713 10712 10709 ] final   97.00 input   66.30 | X-H torsion
[ 10763 10752 10751 10750 ] final -170.25 input  -60.55 | X-H torsion
[ 11005 11000 10999 10996 ] final   67.57 input  -57.11 | X-H torsion

> <Gold.Protein.ActiveResidues>
 VAL166  LYS551  ARG553  GLY616  TRP617  ASP618  TYR619  PRO620  LYS621  CYS622 
 ASP623  PHE694  ASN695  SER759  ASP760  ASP761  ALA762  ILE779  LEU786  VAL792 
 PHE793  MET794  SER795  GLU796  ALA797  LYS798  CYS799  TRP800  GLU811  SER814 

> <Gold.Protein.RotatedAtoms>
  152.3250  134.7332  160.0303 H   0  0  0  0  0  0  0  0  0  0  0  0  # atno 6907 bound_to 6896
  151.7768  133.3341  159.3468 H   0  0  0  0  0  0  0  0  0  0  0  0  # atno 6908 bound_to 6896
  150.7390  134.5899  159.6026 H   0  0  0  0  0  0  0  0  0  0  0  0  # atno 6909 bound_to 6896
  145.8125  139.3040  143.1090 H   0  0  0  0  0  0  0  0  0  0  0  0  # atno 7974 bound_to 7965
  155.7249  140.0794  157.2314 H   0  0  0  0  0  0  0  0  0  0  0  0  # atno 8008 bound_to 7997
  154.4040  140.1606  156.2498 H   0  0  0  0  0  0  0  0  0  0  0  0  # atno 8009 bound_to 7997
  155.9163  140.3400  155.6140 H   0  0  0  0  0  0  0  0  0  0  0  0  # atno 8010 bound_to 7997
  140.5700  143.9179  150.6705 H   0  0  0  0  0  0  0  0  0  0  0  0  # atno 10167 bound_to 10162
  157.6919  131.0596  150.4577 H   0  0  0  0  0  0  0  0  0  0  0  0  # atno 10718 bound_to 10713
  154.6436  135.2902  155.0074 H   0  0  0  0  0  0  0  0  0  0  0  0  # atno 10763 bound_to 10752
  154.1191  135.6551  153.4903 H   0  0  0  0  0  0  0  0  0  0  0  0  # atno 10764 bound_to 10752
  153.0339  135.5283  154.7313 H   0  0  0  0  0  0  0  0  0  0  0  0  # atno 10765 bound_to 10752
  139.9763  134.6817  156.0348 H   0  0  0  0  0  0  0  0  0  0  0  0  # atno 11005 bound_to 11000
  145.9761  140.8720  143.0138 LP  0  0  0  0  0  0  0  0  0  0  0  0  # atno 17320 bound_to 7965
  144.6756  140.2015  143.7386 LP  0  0  0  0  0  0  0  0  0  0  0  0  # atno 17321 bound_to 7965
  140.2652  143.3495  152.1287 LP  0  0  0  0  0  0  0  0  0  0  0  0  # atno 17342 bound_to 10162
  139.5112  144.6897  151.5792 LP  0  0  0  0  0  0  0  0  0  0  0  0  # atno 17343 bound_to 10162
  156.4923  130.4098  149.6399 LP  0  0  0  0  0  0  0  0  0  0  0  0  # atno 17370 bound_to 10713
  156.3405  130.7379  151.2324 LP  0  0  0  0  0  0  0  0  0  0  0  0  # atno 17371 bound_to 10713
  141.1440  133.6559  156.3811 LP  0  0  0  0  0  0  0  0  0  0  0  0  # atno 17394 bound_to 11000
  140.5188  134.6324  157.5311 LP  0  0  0  0  0  0  0  0  0  0  0  0  # atno 17395 bound_to 11000

$$$$
