AV-unprocessed.smi:2742|AV-procd|sdf|10565|dock1
  -GOLD-   2272015 13D 1   1.00000     0.00000
 Structure written by MMmdl.
 37 38  0  0  0  0  0  0  0  0  1 V2000
  149.0371  141.5720  154.6031 C   0  0  0  0  0  0  0  0  0  0  0  0
  149.9410  140.0271  154.3146 S   0  0  0  0  0  0  0  0  0  0  0  0
  148.5733  138.8320  154.2759 C   0  0  1  0  0  0  0  0  0  0  0  0
  148.1082  138.5069  155.7064 C   0  0  0  0  0  0  0  0  0  0  0  0
  146.9371  137.5123  155.7059 C   0  0  0  0  0  0  0  0  0  0  0  0
  145.7625  138.0372  154.8638 C   0  0  0  0  0  0  0  0  0  0  0  0
  146.1928  138.3883  153.4240 C   0  0  2  0  0  0  0  0  0  0  0  0
  146.5094  137.1854  152.6551 N   0  0  0  0  0  0  0  0  0  0  0  0
  145.6209  136.2731  152.2355 C   0  0  0  0  0  0  0  0  0  0  0  0
  144.4117  136.3589  152.4472 O   0  0  0  0  0  0  0  0  0  0  0  0
  146.2299  135.2832  151.5600 N   0  0  0  0  0  0  0  0  0  0  0  0
  145.6669  134.1271  150.9513 C   0  0  0  0  0  0  0  0  0  0  0  0
  144.3718  134.0697  150.3803 C   0  0  0  0  0  0  0  0  0  0  0  0
  143.9341  132.8530  149.8196 C   0  0  0  0  0  0  0  0  0  0  0  0
  144.6819  131.7295  149.8019 N   0  0  0  0  0  0  0  0  0  0  0  0
  145.9109  131.7841  150.3567 C   0  0  0  0  0  0  0  0  0  0  0  0
  146.4445  132.9494  150.9429 C   0  0  0  0  0  0  0  0  0  0  0  0
  147.6860  132.9338  151.4861 F   0  0  0  0  0  0  0  0  0  0  0  0
  147.3953  139.3533  153.4257 C   0  0  0  0  0  0  0  0  0  0  0  0
  149.7297  142.4136  154.5985 H   0  0  0  0  0  0  0  0  0  0  0  0
  148.5304  141.5526  155.5673 H   0  0  0  0  0  0  0  0  0  0  0  0
  148.2955  141.7322  153.8208 H   0  0  0  0  0  0  0  0  0  0  0  0
  148.9604  137.9152  153.8294 H   0  0  0  0  0  0  0  0  0  0  0  0
  148.9373  138.0956  156.2832 H   0  0  0  0  0  0  0  0  0  0  0  0
  147.8048  139.4243  156.2129 H   0  0  0  0  0  0  0  0  0  0  0  0
  147.2722  136.5510  155.3148 H   0  0  0  0  0  0  0  0  0  0  0  0
  146.6057  137.3292  156.7284 H   0  0  0  0  0  0  0  0  0  0  0  0
  144.9521  137.3073  154.8548 H   0  0  0  0  0  0  0  0  0  0  0  0
  145.3564  138.9300  155.3410 H   0  0  0  0  0  0  0  0  0  0  0  0
  145.3636  138.8974  152.9295 H   0  0  0  0  0  0  0  0  0  0  0  0
  147.4826  137.0355  152.4324 H   0  0  0  0  0  0  0  0  0  0  0  0
  147.2249  135.3899  151.4271 H   0  0  0  0  0  0  0  0  0  0  0  0
  143.7046  134.9169  150.3665 H   0  0  0  0  0  0  0  0  0  0  0  0
  142.9518  132.7795  149.3768 H   0  0  0  0  0  0  0  0  0  0  0  0
  146.4867  130.8708  150.3348 H   0  0  0  0  0  0  0  0  0  0  0  0
  147.0722  140.3180  153.8195 H   0  0  0  0  0  0  0  0  0  0  0  0
  147.7156  139.5392  152.4005 H   0  0  0  0  0  0  0  0  0  0  0  0
  1  2  1  0  0  0  0
  1 20  1  0  0  0  0
  1 21  1  0  0  0  0
  1 22  1  0  0  0  0
  2  3  1  0  0  0  0
  3 19  1  0  0  0  0
  3  4  1  0  0  0  0
  3 23  1  0  0  0  0
  4  5  1  0  0  0  0
  4 24  1  0  0  0  0
  4 25  1  0  0  0  0
  5  6  1  0  0  0  0
  5 26  1  0  0  0  0
  5 27  1  0  0  0  0
  6  7  1  0  0  0  0
  6 28  1  0  0  0  0
  6 29  1  0  0  0  0
  7  8  1  0  0  0  0
  7 19  1  0  0  0  0
  7 30  1  0  0  0  0
  8  9  1  0  0  0  0
  8 31  1  0  0  0  0
  9 10  2  0  0  0  0
  9 11  1  0  0  0  0
 11 12  1  0  0  0  0
 11 32  1  0  0  0  0
 12 17  1  0  0  0  0
 12 13  2  0  0  0  0
 13 14  1  0  0  0  0
 13 33  1  0  0  0  0
 14 15  2  0  0  0  0
 14 34  1  0  0  0  0
 15 16  1  0  0  0  0
 16 17  2  0  0  0  0
 16 35  1  0  0  0  0
 17 18  1  0  0  0  0
 19 36  1  0  0  0  0
 19 37  1  0  0  0  0
M  END
> <s_m_source_file>
AV-unprocessed.smi

> <i_m_source_file_index>
2742

> <i_lp_mmshare_version>
43012

> <i_f3d_flags>
0

> <s_epik_input>
W0NIM11TW0NAQEhdMVtDSDJdW0NIMl1bQ0gyXVtDQEhdKFtDSDJdMSlbTkhdQyg9TylbTkhdYzJbY0hdW2NIXW5bY0hdYzJG

> <s_epik_cmdline>
J2VwaWtfcHl0aG9uJywgJy1waCcsICc3LjAnLCAnLXRuJywgJzgnLCAnLW1hJywgJzIwMCcsICctbWV0YWxfYmluZGluZycsICctaW1hZScsICc8aW5maWxlLm1hZT4nLCAnLW9tYWUnLCAnPG91dGZpbGUubWFlPic=

> <r_epik_Ionization_Penalty>
0.00344009

> <r_epik_Ionization_Penalty_Charging>
0

> <r_epik_Ionization_Penalty_Neutral>
0.00344009

> <r_epik_State_Penalty>
0.0024078

> <r_epik_Charging_Adjusted_Penalty>
0.0024078

> <i_epik_Tot_Q>
0

> <i_epik_Tot_abs_Q>
0

> <r_epik_Metal_State_Penalty>
-0

> <b_epik_Metal_Only>
0

> <s_lp_Force_Field>
OPLS_2005

> <r_lp_Energy>
13.9364

> <b_lp_Chiralities_Consistent>
1

> <s_lp_Variant>
AV-unprocessed.smi:2742-4

> <Gold.Version>
5.8.1

> <Gold.Id.Protein>
6NUR|6NUR_protein|mol2

> <Gold.PLP.Fitness>
39.0542

> <Gold.PLP.PLP>
-28.7441

> <Gold.PLP.part.hbond>
-2.9159

> <Gold.PLP.part.metal>
0.0000

> <Gold.PLP.part.buried>
-0.0206

> <Gold.PLP.part.nonpolar>
-26.1919

> <Gold.PLP.part.repulsive>
0.4321

> <Gold.PLP.ligand.clash>
0.0000

> <Gold.PLP.ligand.torsion>
0.4796

> <Gold.PLP.Chemscore.Hbond>
2.0528

> <Gold.PLP.Chemscore.CHOScore>
1.6992

> <Gold.PLP.Chemscore.Metal>
0.0000

> <Gold.Chemscore.Hbonds>
donor molecule, donor type, donor heavy atom, donor atom, acceptor molecule, acceptor atom, score
      L1  H     8    31       P1  7948  1.00
      L1  H    11    32       P1  7948  1.00
      P1  H 10785 10796       L1    15  0.03
      L1  C    14    34       P1 10186  0.94
      L1  C    16    35       P1 10747  0.86

> <Gold.PLP.Chemscore.Internal.Correction>
0.0131

> <Gold.Rescore>
     Score         DG    S(hbond)    S(metal)    S(lipo)     H(rot)  DE(clash)    DE(int)     intcor
     16.33     -17.34       1.96        0.00      71.30       1.19       0.46       0.56       ----

> <Gold.Chemscore.Fitness>
16.3273

> <Gold.Chemscore.DG>
-17.3447

> <Gold.Chemscore.ZeroCoef>
-5.4800

> <Gold.Chemscore.Hbond>
1.9647

> <Gold.Chemscore.Metal>
0.0000

> <Gold.Chemscore.Lipo>
71.3038

> <Gold.Chemscore.Internal_Hbond>
0.0000

> <Gold.Chemscore.DEClash>
0.4582

> <Gold.Chemscore.DEInternal>
0.5592

> <Gold.Chemscore.Rot>
1.1875

> <Gold.Chemscore.Internal.Correction>
   9.000000E+99

> <Gold.Chemscore.Hbonds>
donor molecule, donor type, donor heavy atom, donor atom, acceptor molecule, acceptor atom, score
      L1  H     8    31       P1  7948  1.00
      L1  H    11    32       P1  7948  0.90
      P1  H 10785 10796       L1    15  0.02

> <Gold.Chemscore.Hbond.Weighted>
-6.5622

> <Gold.Chemscore.Metal.Weighted>
-0.0000

> <Gold.Chemscore.Lipo.Weighted>
-8.3425

> <Gold.Chemscore.Internal_Hbond.Weighted>
0.0000

> <Gold.Chemscore.DEClash.Weighted>
0.4582

> <Gold.Chemscore.DEInternal.Weighted>
0.5592

> <Gold.Chemscore.Rot.Weighted>
3.0400

> <Gold.Chemscore.Internal.Correction.Weighted>
   9.000000E+99

> <Gold.Protein.RotatedTorsions>
[ 6907 6896 6895 6894 ] final -135.54 input  -60.11 | X-H torsion
[ 7974 7965 7964 7962 ] final   98.73 input  175.53 | X-H torsion
[ 8008 7997 7996 7995 ] final -165.78 input   59.86 | X-H torsion
[ 10167 10162 10161 10158 ] final  -61.32 input  -65.29 | X-H torsion
[ 10718 10713 10712 10709 ] final   56.11 input   66.30 | X-H torsion
[ 10763 10752 10751 10750 ] final  174.25 input  -60.55 | X-H torsion
[ 11005 11000 10999 10996 ] final  -61.93 input  -57.11 | X-H torsion

> <Gold.Protein.ActiveResidues>
 VAL166  LYS551  ARG553  GLY616  TRP617  ASP618  TYR619  PRO620  LYS621  CYS622 
 ASP623  PHE694  ASN695  SER759  ASP760  ASP761  ALA762  ILE779  LEU786  VAL792 
 PHE793  MET794  SER795  GLU796  ALA797  LYS798  CYS799  TRP800  GLU811  SER814 

> <Gold.Protein.RotatedAtoms>
  150.9991  133.6074  159.2697 H   0  0  0  0  0  0  0  0  0  0  0  0  # atno 6907 bound_to 6896
  151.3266  135.0831  159.9334 H   0  0  0  0  0  0  0  0  0  0  0  0  # atno 6908 bound_to 6896
  152.5268  133.9628  159.7779 H   0  0  0  0  0  0  0  0  0  0  0  0  # atno 6909 bound_to 6896
  145.4082  139.2337  143.3262 H   0  0  0  0  0  0  0  0  0  0  0  0  # atno 7974 bound_to 7965
  155.8546  140.0968  157.1652 H   0  0  0  0  0  0  0  0  0  0  0  0  # atno 8008 bound_to 7997
  154.3987  140.1376  156.3948 H   0  0  0  0  0  0  0  0  0  0  0  0  # atno 8009 bound_to 7997
  155.7923  140.3455  155.5359 H   0  0  0  0  0  0  0  0  0  0  0  0  # atno 8010 bound_to 7997
  140.6014  143.2362  151.5920 H   0  0  0  0  0  0  0  0  0  0  0  0  # atno 10167 bound_to 10162
  157.5403  130.8692  149.8812 H   0  0  0  0  0  0  0  0  0  0  0  0  # atno 10718 bound_to 10713
  154.4513  135.2765  155.1779 H   0  0  0  0  0  0  0  0  0  0  0  0  # atno 10763 bound_to 10752
  154.3604  135.6130  153.5691 H   0  0  0  0  0  0  0  0  0  0  0  0  # atno 10764 bound_to 10752
  152.9847  135.5833  154.4858 H   0  0  0  0  0  0  0  0  0  0  0  0  # atno 10765 bound_to 10752
  141.1342  133.6635  156.5450 H   0  0  0  0  0  0  0  0  0  0  0  0  # atno 11005 bound_to 11000
  146.2718  140.4790  142.8811 LP  0  0  0  0  0  0  0  0  0  0  0  0  # atno 17320 bound_to 7965
  144.8327  140.6732  143.6281 LP  0  0  0  0  0  0  0  0  0  0  0  0  # atno 17321 bound_to 7965
  139.5294  144.2962  152.1111 LP  0  0  0  0  0  0  0  0  0  0  0  0  # atno 17342 bound_to 10162
  140.2144  144.4530  150.6371 LP  0  0  0  0  0  0  0  0  0  0  0  0  # atno 17343 bound_to 10162
  156.0491  130.3721  150.1244 LP  0  0  0  0  0  0  0  0  0  0  0  0  # atno 17370 bound_to 10713
  156.9424  130.9749  151.3513 LP  0  0  0  0  0  0  0  0  0  0  0  0  # atno 17371 bound_to 10713
  140.4109  134.7273  157.4835 LP  0  0  0  0  0  0  0  0  0  0  0  0  # atno 17394 bound_to 11000
  140.0428  134.6243  155.8959 LP  0  0  0  0  0  0  0  0  0  0  0  0  # atno 17395 bound_to 11000

$$$$
