AV-unprocessed.smi:1870|AV-procd|sdf|7593|dock5
  -GOLD-   22720 9303D 1   1.00000     0.00000
 Structure written by MMmdl.
 48 50  0  0  0  0  0  0  0  0  2 V2000
  146.1941  137.1961  162.6692 C   0  0  0  0  0  0  0  0  0  0  0  0
  146.9798  136.5015  161.5897 C   0  0  0  0  0  0  0  0  0  0  0  0
  147.7316  137.2478  160.8488 N   0  0  0  0  0  0  0  0  0  0  0  0
  148.4994  136.7127  159.8328 N   0  0  0  0  0  0  0  0  0  0  0  0
  149.2790  137.7066  159.0845 C   0  0  0  0  0  0  0  0  0  0  0  0
  148.3993  138.4954  158.0892 C   0  0  2  0  0  0  0  0  0  0  0  0
  148.2855  137.7455  156.8950 O   0  0  0  0  0  0  0  0  0  0  0  0
  149.0407  139.8474  157.7138 C   0  0  0  0  0  0  0  0  0  0  0  0
  150.3249  139.7017  156.9732 N   0  3  1  0  0  0  0  0  0  0  0  0
  150.6624  140.8176  156.0521 C   0  0  0  0  0  0  0  0  0  0  0  0
  150.9377  142.1242  156.8161 C   0  0  0  0  0  0  0  0  0  0  0  0
  151.8454  141.9183  158.0180 C   0  0  0  0  0  0  0  0  0  0  0  0
  152.4320  143.0354  158.6476 C   0  0  0  0  0  0  0  0  0  0  0  0
  153.2409  142.8630  159.7869 C   0  0  0  0  0  0  0  0  0  0  0  0
  153.4622  141.5728  160.3043 C   0  0  0  0  0  0  0  0  0  0  0  0
  152.8779  140.4539  159.6804 C   0  0  0  0  0  0  0  0  0  0  0  0
  152.0692  140.6186  158.5366 C   0  0  0  0  0  0  0  0  0  0  0  0
  151.4764  139.3885  157.8574 C   0  0  0  0  0  0  0  0  0  0  0  0
  148.5427  135.3894  159.5074 C   0  0  0  0  0  0  0  0  0  0  0  0
  149.2323  134.9571  158.5829 O   0  0  0  0  0  0  0  0  0  0  0  0
  147.6896  134.5492  160.3505 C   0  0  0  0  0  0  0  0  0  0  0  0
  147.7111  133.1543  160.0484 C   0  0  0  0  0  0  0  0  0  0  0  0
  147.7433  132.0262  159.7914 N   0  0  0  0  0  0  0  0  0  0  0  0
  146.9291  135.0628  161.3496 C   0  0  0  0  0  0  0  0  0  0  0  0
  146.0253  134.2313  162.2497 C   0  0  0  0  0  0  0  0  0  0  0  0
  145.1304  137.1969  162.4312 H   0  0  0  0  0  0  0  0  0  0  0  0
  146.5064  138.2337  162.7950 H   0  0  0  0  0  0  0  0  0  0  0  0
  146.3256  136.6981  163.6297 H   0  0  0  0  0  0  0  0  0  0  0  0
  149.7124  138.3999  159.8081 H   0  0  0  0  0  0  0  0  0  0  0  0
  150.1405  137.2587  158.5849 H   0  0  0  0  0  0  0  0  0  0  0  0
  147.4109  138.6493  158.5211 H   0  0  0  0  0  0  0  0  0  0  0  0
  148.9377  138.0524  156.2823 H   0  0  0  0  0  0  0  0  0  0  0  0
  148.3433  140.4521  157.1341 H   0  0  0  0  0  0  0  0  0  0  0  0
  149.2212  140.4062  158.6336 H   0  0  0  0  0  0  0  0  0  0  0  0
  151.5577  140.5320  155.4978 H   0  0  0  0  0  0  0  0  0  0  0  0
  149.8880  140.9659  155.3006 H   0  0  0  0  0  0  0  0  0  0  0  0
  151.3890  142.8538  156.1430 H   0  0  0  0  0  0  0  0  0  0  0  0
  150.0029  142.5654  157.1628 H   0  0  0  0  0  0  0  0  0  0  0  0
  152.2581  144.0296  158.2617 H   0  0  0  0  0  0  0  0  0  0  0  0
  153.6887  143.7211  160.2663 H   0  0  0  0  0  0  0  0  0  0  0  0
  154.0827  141.4409  161.1785 H   0  0  0  0  0  0  0  0  0  0  0  0
  153.0591  139.4664  160.0794 H   0  0  0  0  0  0  0  0  0  0  0  0
  151.1975  138.6417  158.6022 H   0  0  0  0  0  0  0  0  0  0  0  0
  152.2612  138.9348  157.2510 H   0  0  0  0  0  0  0  0  0  0  0  0
  145.9253  133.2055  161.8963 H   0  0  0  0  0  0  0  0  0  0  0  0
  145.0220  134.6557  162.2931 H   0  0  0  0  0  0  0  0  0  0  0  0
  146.4285  134.1958  163.2620 H   0  0  0  0  0  0  0  0  0  0  0  0
  150.1971  138.8829  156.3953 H   0  0  0  0  0  0  0  0  0  0  0  0
  1  2  1  0  0  0  0
  1 26  1  0  0  0  0
  1 27  1  0  0  0  0
  1 28  1  0  0  0  0
  2 24  1  0  0  0  0
  2  3  2  0  0  0  0
  3  4  1  0  0  0  0
  4  5  1  0  0  0  0
  4 19  1  0  0  0  0
  5  6  1  0  0  0  0
  5 29  1  0  0  0  0
  5 30  1  0  0  0  0
  6  7  1  0  0  0  0
  6  8  1  0  0  0  0
  6 31  1  0  0  0  0
  7 32  1  0  0  0  0
  8  9  1  0  0  0  0
  8 33  1  0  0  0  0
  8 34  1  0  0  0  0
  9 18  1  0  0  0  0
  9 10  1  0  0  0  0
  9 48  1  0  0  0  0
 10 11  1  0  0  0  0
 10 35  1  0  0  0  0
 10 36  1  0  0  0  0
 11 12  1  0  0  0  0
 11 37  1  0  0  0  0
 11 38  1  0  0  0  0
 12 17  2  0  0  0  0
 12 13  1  0  0  0  0
 13 14  2  0  0  0  0
 13 39  1  0  0  0  0
 14 15  1  0  0  0  0
 14 40  1  0  0  0  0
 15 16  2  0  0  0  0
 15 41  1  0  0  0  0
 16 17  1  0  0  0  0
 16 42  1  0  0  0  0
 17 18  1  0  0  0  0
 18 43  1  0  0  0  0
 18 44  1  0  0  0  0
 19 20  2  0  0  0  0
 19 21  1  0  0  0  0
 21 22  1  0  0  0  0
 21 24  2  0  0  0  0
 22 23  3  0  0  0  0
 24 25  1  0  0  0  0
 25 45  1  0  0  0  0
 25 46  1  0  0  0  0
 25 47  1  0  0  0  0
M  CHG  1   9   1
M  END
> <s_m_source_file>
AV-unprocessed.smi

> <i_m_source_file_index>
1870

> <i_lp_mmshare_version>
43012

> <i_f3d_flags>
0

> <s_epik_input>
TiNDYyhjMVtDSDNdKWMoPU8pbihuYzFbQ0gzXSlbQ0gyXVtDQEhdKFtPSF0pW0NIMl1OKFtDSDJdW0NIMl0yKVtDSDJdYyhjMjMpW2NIXVtjSF1bY0hdW2NIXTM=

> <s_epik_cmdline>
J2VwaWtfcHl0aG9uJywgJy1waCcsICc3LjAnLCAnLXRuJywgJzgnLCAnLW1hJywgJzIwMCcsICctbWV0YWxfYmluZGluZycsICctaW1hZScsICc8aW5maWxlLm1hZT4nLCAnLW9tYWUnLCAnPG91dGZpbGUubWFlPic=

> <r_epik_Ionization_Penalty>
0.0122865

> <r_epik_Ionization_Penalty_Charging>
0.0122864

> <r_epik_Ionization_Penalty_Neutral>
1.48087e-07

> <r_epik_State_Penalty>
0.00950248

> <r_epik_Charging_Adjusted_Penalty>
0.0217889

> <i_epik_Tot_Q>
1

> <i_epik_Tot_abs_Q>
1

> <r_epik_Metal_State_Penalty>
0.00950248

> <b_epik_Metal_Only>
0

> <s_lp_Force_Field>
OPLS_2005

> <r_lp_Energy>
39.8007

> <b_lp_Chiralities_Consistent>
1

> <s_lp_Variant>
AV-unprocessed.smi:1870-1

> <Gold.Version>
5.8.1

> <Gold.Id.Protein>
6NUR|6NUR_protein|mol2

> <Gold.PLP.Fitness>
51.0802

> <Gold.PLP.PLP>
-44.3694

> <Gold.PLP.part.hbond>
-3.0000

> <Gold.PLP.part.metal>
0.0000

> <Gold.PLP.part.buried>
-4.7482

> <Gold.PLP.part.nonpolar>
-37.3251

> <Gold.PLP.part.repulsive>
0.0099

> <Gold.PLP.ligand.clash>
0.0000

> <Gold.PLP.ligand.torsion>
0.7373

> <Gold.PLP.Chemscore.Hbond>
2.7120

> <Gold.PLP.Chemscore.CHOScore>
0.0000

> <Gold.PLP.Chemscore.Metal>
0.0000

> <Gold.Chemscore.Hbonds>
donor molecule, donor type, donor heavy atom, donor atom, acceptor molecule, acceptor atom, score
      P1  H  6896  6907       L1    20  1.00
      P1  H  6931  6943       L1     3  0.83
      P1  H  6934  6947       L1     3  0.88

> <Gold.PLP.Chemscore.Internal.Correction>
0.0494

> <Gold.Rescore>
     Score         DG    S(hbond)    S(metal)    S(lipo)     H(rot)  DE(clash)    DE(int)     intcor
     18.88     -19.87       1.81        0.00     118.55       2.16       0.14       0.84       ----

> <Gold.Chemscore.Fitness>
18.8780

> <Gold.Chemscore.DG>
-19.8650

> <Gold.Chemscore.ZeroCoef>
-5.4800

> <Gold.Chemscore.Hbond>
1.8117

> <Gold.Chemscore.Metal>
0.0000

> <Gold.Chemscore.Lipo>
118.5524

> <Gold.Chemscore.Internal_Hbond>
0.0000

> <Gold.Chemscore.DEClash>
0.1423

> <Gold.Chemscore.DEInternal>
0.8447

> <Gold.Chemscore.Rot>
2.1628

> <Gold.Chemscore.Internal.Correction>
   9.000000E+99

> <Gold.Chemscore.Hbonds>
donor molecule, donor type, donor heavy atom, donor atom, acceptor molecule, acceptor atom, score
      P1  H  6896  6907       L1    20  0.40
      P1  H  6931  6943       L1     3  0.26
      P1  H  6934  6947       L1     3  0.68

> <Gold.Chemscore.Hbond.Weighted>
-6.0511

> <Gold.Chemscore.Metal.Weighted>
-0.0000

> <Gold.Chemscore.Lipo.Weighted>
-13.8706

> <Gold.Chemscore.Internal_Hbond.Weighted>
0.0000

> <Gold.Chemscore.DEClash.Weighted>
0.1423

> <Gold.Chemscore.DEInternal.Weighted>
0.8447

> <Gold.Chemscore.Rot.Weighted>
5.5367

> <Gold.Chemscore.Internal.Correction.Weighted>
   9.000000E+99

> <Gold.Protein.RotatedTorsions>
[ 6907 6896 6895 6894 ] final  -91.35 input  -60.11 | X-H torsion
[ 7974 7965 7964 7962 ] final   13.84 input  175.53 | X-H torsion
[ 8008 7997 7996 7995 ] final -165.21 input   59.86 | X-H torsion
[ 10167 10162 10161 10158 ] final  164.14 input  -65.29 | X-H torsion
[ 10718 10713 10712 10709 ] final -179.53 input   66.30 | X-H torsion
[ 10763 10752 10751 10750 ] final  107.72 input  -60.55 | X-H torsion
[ 11005 11000 10999 10996 ] final -177.71 input  -57.11 | X-H torsion

> <Gold.Protein.ActiveResidues>
 VAL166  LYS551  ARG553  GLY616  TRP617  ASP618  TYR619  PRO620  LYS621  CYS622 
 ASP623  PHE694  ASN695  SER759  ASP760  ASP761  ALA762  ILE779  LEU786  VAL792 
 PHE793  MET794  SER795  GLU796  ALA797  LYS798  CYS799  TRP800  GLU811  SER814 

> <Gold.Protein.RotatedAtoms>
  150.6891  134.2291  159.4426 H   0  0  0  0  0  0  0  0  0  0  0  0  # atno 6907 bound_to 6896
  152.0242  134.9802  160.0580 H   0  0  0  0  0  0  0  0  0  0  0  0  # atno 6908 bound_to 6896
  152.1367  133.4405  159.4784 H   0  0  0  0  0  0  0  0  0  0  0  0  # atno 6909 bound_to 6896
  146.2320  139.9129  142.8521 H   0  0  0  0  0  0  0  0  0  0  0  0  # atno 7974 bound_to 7965
  155.8466  140.0956  157.1701 H   0  0  0  0  0  0  0  0  0  0  0  0  # atno 8008 bound_to 7997
  154.3984  140.1391  156.3854 H   0  0  0  0  0  0  0  0  0  0  0  0  # atno 8009 bound_to 7997
  155.8007  140.3453  155.5403 H   0  0  0  0  0  0  0  0  0  0  0  0  # atno 8010 bound_to 7997
  139.4884  144.4265  151.9123 H   0  0  0  0  0  0  0  0  0  0  0  0  # atno 10167 bound_to 10162
  156.8605  130.9750  151.3084 H   0  0  0  0  0  0  0  0  0  0  0  0  # atno 10718 bound_to 10713
  153.4106  135.3835  155.2048 H   0  0  0  0  0  0  0  0  0  0  0  0  # atno 10763 bound_to 10752
  154.8737  135.3793  154.4506 H   0  0  0  0  0  0  0  0  0  0  0  0  # atno 10764 bound_to 10752
  153.5013  135.7088  153.5892 H   0  0  0  0  0  0  0  0  0  0  0  0  # atno 10765 bound_to 10752
  140.4379  134.6459  157.4743 H   0  0  0  0  0  0  0  0  0  0  0  0  # atno 11005 bound_to 11000
  145.2212  140.9936  143.4044 LP  0  0  0  0  0  0  0  0  0  0  0  0  # atno 17320 bound_to 7965
  144.9609  139.3981  143.6356 LP  0  0  0  0  0  0  0  0  0  0  0  0  # atno 17321 bound_to 7965
  140.3711  144.2854  150.5920 LP  0  0  0  0  0  0  0  0  0  0  0  0  # atno 17342 bound_to 10162
  140.5318  143.2242  151.8227 LP  0  0  0  0  0  0  0  0  0  0  0  0  # atno 17343 bound_to 10162
  157.6253  130.8686  149.9178 LP  0  0  0  0  0  0  0  0  0  0  0  0  # atno 17370 bound_to 10713
  156.0779  130.3676  150.0639 LP  0  0  0  0  0  0  0  0  0  0  0  0  # atno 17371 bound_to 10713
  140.0090  134.6720  155.9410 LP  0  0  0  0  0  0  0  0  0  0  0  0  # atno 17394 bound_to 11000
  141.1718  133.6538  156.4680 LP  0  0  0  0  0  0  0  0  0  0  0  0  # atno 17395 bound_to 11000

$$$$
