AV-unprocessed.smi:2711|AV-procd|sdf|10473|dock10
  -GOLD-   2272014513D 1   1.00000     0.00000
 Structure written by MMmdl.
 33 34  0  0  0  0  0  0  0  0  2 V2000
  147.9531  134.7123  155.1374 C   0  0  0  0  0  0  0  0  0  0  0  0
  149.2817  135.3887  155.1691 C   0  0  0  0  0  0  0  0  0  0  0  0
  150.5198  134.8005  155.1872 C   0  0  0  0  0  0  0  0  0  0  0  0
  151.5751  135.7136  155.2158 N   0  0  0  0  0  0  0  0  0  0  0  0
  151.1738  136.9892  155.2120 C   0  0  0  0  0  0  0  0  0  0  0  0
  152.0280  138.0250  155.2455 N   0  5  0  0  0  0  0  0  0  0  0  0
  151.5615  139.2822  155.4223 C   0  0  0  0  0  0  0  0  0  0  0  0
  150.8971  139.9362  154.6148 O   0  0  0  0  0  0  0  0  0  0  0  0
  151.8860  139.8160  156.6094 N   0  0  0  0  0  0  0  0  0  0  0  0
  151.5229  141.1525  157.0777 C   0  0  0  0  0  0  0  0  0  0  0  0
  151.9899  141.4484  158.5151 C   0  0  0  0  0  0  0  0  0  0  0  0
  152.4129  140.5356  159.2268 O   0  0  0  0  0  0  0  0  0  0  0  0
  151.9360  142.7246  158.9498 N   0  0  0  0  0  0  0  0  0  0  0  0
  151.4781  143.8744  158.1707 C   0  0  0  0  0  0  0  0  0  0  0  0
  151.8469  145.1068  158.9972 C   0  0  0  0  0  0  0  0  0  0  0  0
  151.8959  144.5938  160.4296 C   0  0  0  0  0  0  0  0  0  0  0  0
  152.3456  143.1392  160.2902 C   0  0  0  0  0  0  0  0  0  0  0  0
  149.4139  137.1268  155.1870 S   0  0  0  0  0  0  0  0  0  0  0  0
  147.7166  134.3759  154.1281 H   0  0  0  0  0  0  0  0  0  0  0  0
  147.1606  135.3863  155.4631 H   0  0  0  0  0  0  0  0  0  0  0  0
  147.9447  133.8429  155.7948 H   0  0  0  0  0  0  0  0  0  0  0  0
  150.7428  133.7438  155.1828 H   0  0  0  0  0  0  0  0  0  0  0  0
  152.4241  139.2424  157.2418 H   0  0  0  0  0  0  0  0  0  0  0  0
  151.9817  141.8786  156.4065 H   0  0  0  0  0  0  0  0  0  0  0  0
  150.4431  141.2856  156.9949 H   0  0  0  0  0  0  0  0  0  0  0  0
  151.9358  143.9150  157.1814 H   0  0  0  0  0  0  0  0  0  0  0  0
  150.3963  143.8106  158.0452 H   0  0  0  0  0  0  0  0  0  0  0  0
  152.8359  145.4614  158.7035 H   0  0  0  0  0  0  0  0  0  0  0  0
  151.1441  145.9302  158.8656 H   0  0  0  0  0  0  0  0  0  0  0  0
  152.5558  145.1813  161.0684 H   0  0  0  0  0  0  0  0  0  0  0  0
  150.8951  144.6270  160.8623 H   0  0  0  0  0  0  0  0  0  0  0  0
  151.9051  142.5116  161.0664 H   0  0  0  0  0  0  0  0  0  0  0  0
  153.4313  143.0637  160.3682 H   0  0  0  0  0  0  0  0  0  0  0  0
  1  2  1  0  0  0  0
  1 19  1  0  0  0  0
  1 20  1  0  0  0  0
  1 21  1  0  0  0  0
  2 18  1  0  0  0  0
  2  3  2  0  0  0  0
  3  4  1  0  0  0  0
  3 22  1  0  0  0  0
  4  5  2  0  0  0  0
  5  6  1  0  0  0  0
  5 18  1  0  0  0  0
  6  7  1  0  0  0  0
  7  8  2  0  0  0  0
  7  9  1  0  0  0  0
  9 10  1  0  0  0  0
  9 23  1  0  0  0  0
 10 11  1  0  0  0  0
 10 24  1  0  0  0  0
 10 25  1  0  0  0  0
 11 12  2  0  0  0  0
 11 13  1  0  0  0  0
 13 17  1  0  0  0  0
 13 14  1  0  0  0  0
 14 15  1  0  0  0  0
 14 26  1  0  0  0  0
 14 27  1  0  0  0  0
 15 16  1  0  0  0  0
 15 28  1  0  0  0  0
 15 29  1  0  0  0  0
 16 17  1  0  0  0  0
 16 30  1  0  0  0  0
 16 31  1  0  0  0  0
 17 32  1  0  0  0  0
 17 33  1  0  0  0  0
M  CHG  1   6  -1
M  END
> <s_m_source_file>
AV-unprocessed.smi

> <i_m_source_file_index>
2711

> <i_lp_mmshare_version>
43012

> <i_f3d_flags>
0

> <s_epik_input>
W0NIM11jMVtjSF1uYyhzMSlbTkhdQyg9TylbTkhdW0NIMl1DKD1PKU4yW0NIMl1bQ0gyXVtDSDJdW0NIMl0y

> <s_epik_cmdline>
J2VwaWtfcHl0aG9uJywgJy1waCcsICc3LjAnLCAnLXRuJywgJzgnLCAnLW1hJywgJzIwMCcsICctbWV0YWxfYmluZGluZycsICctaW1hZScsICc8aW5maWxlLm1hZT4nLCAnLW9tYWUnLCAnPG91dGZpbGUubWFlPic=

> <r_lp_tautomer_probability>
1

> <r_epik_Ionization_Penalty>
6.8506

> <r_epik_Ionization_Penalty_Charging>
5.74941

> <r_epik_Ionization_Penalty_Neutral>
1.10119

> <r_epik_State_Penalty>
5.74937

> <r_epik_Charging_Adjusted_Penalty>
11.4988

> <i_epik_Tot_Q>
-1

> <i_epik_Tot_abs_Q>
1

> <r_epik_Metal_State_Penalty>
1.72493

> <b_epik_Metal_Only>
1

> <s_lp_Force_Field>
OPLS_2005

> <r_lp_Energy>
20.4432

> <b_lp_Chiralities_Consistent>
1

> <s_lp_Variant>
AV-unprocessed.smi:2711-2

> <Gold.Version>
5.8.1

> <Gold.Id.Protein>
6NUR|6NUR_protein|mol2

> <Gold.PLP.Fitness>
39.9357

> <Gold.PLP.PLP>
-35.5266

> <Gold.PLP.part.hbond>
-2.0000

> <Gold.PLP.part.metal>
0.0000

> <Gold.PLP.part.buried>
-6.4717

> <Gold.PLP.part.nonpolar>
-27.5847

> <Gold.PLP.part.repulsive>
0.3617

> <Gold.PLP.ligand.clash>
0.0000

> <Gold.PLP.ligand.torsion>
0.8055

> <Gold.PLP.Chemscore.Hbond>
2.0000

> <Gold.PLP.Chemscore.CHOScore>
0.0000

> <Gold.PLP.Chemscore.Metal>
0.0000

> <Gold.Chemscore.Hbonds>
donor molecule, donor type, donor heavy atom, donor atom, acceptor molecule, acceptor atom, score
      P1  H  7989  7998       L1     8  1.00
      P1  H 10752 10764       L1     4  0.89

> <Gold.PLP.Chemscore.Internal.Correction>
0.0200

> <Gold.Rescore>
     Score         DG    S(hbond)    S(metal)    S(lipo)     H(rot)  DE(clash)    DE(int)     intcor
     16.04     -16.75       1.95        0.00      69.15       1.31       0.02       0.69       ----

> <Gold.Chemscore.Fitness>
16.0412

> <Gold.Chemscore.DG>
-16.7499

> <Gold.Chemscore.ZeroCoef>
-5.4800

> <Gold.Chemscore.Hbond>
1.9525

> <Gold.Chemscore.Metal>
0.0000

> <Gold.Chemscore.Lipo>
69.1528

> <Gold.Chemscore.Internal_Hbond>
0.0000

> <Gold.Chemscore.DEClash>
0.0174

> <Gold.Chemscore.DEInternal>
0.6912

> <Gold.Chemscore.Rot>
1.3056

> <Gold.Chemscore.Internal.Correction>
   9.000000E+99

> <Gold.Chemscore.Hbonds>
donor molecule, donor type, donor heavy atom, donor atom, acceptor molecule, acceptor atom, score
      P1  H  7989  7998       L1     8  0.98
      P1  H 10752 10764       L1     4  0.77

> <Gold.Chemscore.Hbond.Weighted>
-6.5212

> <Gold.Chemscore.Metal.Weighted>
-0.0000

> <Gold.Chemscore.Lipo.Weighted>
-8.0909

> <Gold.Chemscore.Internal_Hbond.Weighted>
0.0000

> <Gold.Chemscore.DEClash.Weighted>
0.0174

> <Gold.Chemscore.DEInternal.Weighted>
0.6912

> <Gold.Chemscore.Rot.Weighted>
3.3422

> <Gold.Chemscore.Internal.Correction.Weighted>
   9.000000E+99

> <Gold.Protein.RotatedTorsions>
[ 6907 6896 6895 6894 ] final   44.89 input  -60.11 | X-H torsion
[ 7974 7965 7964 7962 ] final  138.38 input  175.53 | X-H torsion
[ 8008 7997 7996 7995 ] final  -19.97 input   59.86 | X-H torsion
[ 10167 10162 10161 10158 ] final  118.74 input  -65.29 | X-H torsion
[ 10718 10713 10712 10709 ] final  113.37 input   66.30 | X-H torsion
[ 10763 10752 10751 10750 ] final  -44.60 input  -60.55 | X-H torsion
[ 11005 11000 10999 10996 ] final  164.86 input  -57.11 | X-H torsion

> <Gold.Protein.ActiveResidues>
 VAL166  LYS551  ARG553  GLY616  TRP617  ASP618  TYR619  PRO620  LYS621  CYS622 
 ASP623  PHE694  ASN695  SER759  ASP760  ASP761  ALA762  ILE779  LEU786  VAL792 
 PHE793  MET794  SER795  GLU796  ALA797  LYS798  CYS799  TRP800  GLU811  SER814 

> <Gold.Protein.RotatedAtoms>
  152.2380  134.8257  160.0464 H   0  0  0  0  0  0  0  0  0  0  0  0  # atno 6907 bound_to 6896
  151.8981  133.3526  159.3829 H   0  0  0  0  0  0  0  0  0  0  0  0  # atno 6908 bound_to 6896
  150.7045  134.4781  159.5501 H   0  0  0  0  0  0  0  0  0  0  0  0  # atno 6909 bound_to 6896
  144.9378  139.4968  143.5586 H   0  0  0  0  0  0  0  0  0  0  0  0  # atno 7974 bound_to 7965
  154.4801  140.2074  155.9785 H   0  0  0  0  0  0  0  0  0  0  0  0  # atno 8008 bound_to 7997
  156.1151  140.3222  155.8097 H   0  0  0  0  0  0  0  0  0  0  0  0  # atno 8009 bound_to 7997
  155.4567  140.0521  157.2986 H   0  0  0  0  0  0  0  0  0  0  0  0  # atno 8010 bound_to 7997
  139.6092  144.7077  151.2883 H   0  0  0  0  0  0  0  0  0  0  0  0  # atno 10167 bound_to 10162
  157.6341  131.0982  150.7031 H   0  0  0  0  0  0  0  0  0  0  0  0  # atno 10718 bound_to 10713
  154.0147  135.6677  153.4768 H   0  0  0  0  0  0  0  0  0  0  0  0  # atno 10763 bound_to 10752
  153.0606  135.5030  154.8079 H   0  0  0  0  0  0  0  0  0  0  0  0  # atno 10764 bound_to 10752
  154.6974  135.3072  154.9355 H   0  0  0  0  0  0  0  0  0  0  0  0  # atno 10765 bound_to 10752
  140.2502  134.7983  157.3494 H   0  0  0  0  0  0  0  0  0  0  0  0  # atno 11005 bound_to 11000
  146.3273  139.8375  142.8896 LP  0  0  0  0  0  0  0  0  0  0  0  0  # atno 17320 bound_to 7965
  145.3039  141.0202  143.3593 LP  0  0  0  0  0  0  0  0  0  0  0  0  # atno 17321 bound_to 7965
  140.7307  143.6873  150.7951 LP  0  0  0  0  0  0  0  0  0  0  0  0  # atno 17342 bound_to 10162
  140.0464  143.5293  152.2694 LP  0  0  0  0  0  0  0  0  0  0  0  0  # atno 17343 bound_to 10162
  156.7366  130.4726  149.5487 LP  0  0  0  0  0  0  0  0  0  0  0  0  # atno 17370 bound_to 10713
  156.1567  130.6347  151.0666 LP  0  0  0  0  0  0  0  0  0  0  0  0  # atno 17371 bound_to 10713
  140.1566  134.4782  155.7924 LP  0  0  0  0  0  0  0  0  0  0  0  0  # atno 17394 bound_to 11000
  141.2202  133.6884  156.7471 LP  0  0  0  0  0  0  0  0  0  0  0  0  # atno 17395 bound_to 11000

$$$$
