AV-unprocessed.smi:2226|AV-procd|sdf|9001|dock6
  -GOLD-   2272012213D 1   1.00000     0.00000
 Structure written by MMmdl.
 40 42  0  0  0  0  0  0  0  0  2 V2000
  142.7376  137.2164  153.9813 C   0  0  0  0  0  0  0  0  0  0  0  0
  144.0215  137.8253  153.5591 N   0  3  2  0  0  0  0  0  0  0  0  0
  144.8054  137.0177  152.5942 C   0  0  2  0  0  0  0  0  0  0  0  0
  145.3950  135.7506  153.2630 C   0  0  0  0  0  0  0  0  0  0  0  0
  146.1702  136.0265  154.5642 C   0  0  0  0  0  0  0  0  0  0  0  0
  145.4811  137.0769  155.4531 C   0  0  0  0  0  0  0  0  0  0  0  0
  144.8923  138.2769  154.6706 C   0  0  1  0  0  0  0  0  0  0  0  0
  145.9357  139.2775  154.1217 C   0  0  0  0  0  0  0  0  0  0  0  0
  146.6735  138.8438  152.8238 C   0  0  1  0  0  0  0  0  0  0  0  0
  147.9992  138.2815  153.0723 N   0  0  0  0  0  0  0  0  0  0  0  0
  148.9528  138.8315  153.8388 C   0  0  0  0  0  0  0  0  0  0  0  0
  148.8089  139.8940  154.4440 O   0  0  0  0  0  0  0  0  0  0  0  0
  150.0629  138.0752  153.8527 N   0  0  0  0  0  0  0  0  0  0  0  0
  151.2635  138.3196  154.5653 C   0  0  0  0  0  0  0  0  0  0  0  0
  152.1629  137.4095  154.9423 N   0  0  0  0  0  0  0  0  0  0  0  0
  153.1447  138.1394  155.5964 C   0  0  0  0  0  0  0  0  0  0  0  0
  152.7799  139.4610  155.5766 C   0  0  0  0  0  0  0  0  0  0  0  0
  151.5845  139.5911  154.9223 O   0  0  0  0  0  0  0  0  0  0  0  0
  145.8352  137.9325  151.8911 C   0  0  0  0  0  0  0  0  0  0  0  0
  142.8805  136.2872  154.5322 H   0  0  0  0  0  0  0  0  0  0  0  0
  142.1162  137.0009  153.1118 H   0  0  0  0  0  0  0  0  0  0  0  0
  142.1822  137.9048  154.6190 H   0  0  0  0  0  0  0  0  0  0  0  0
  144.1218  136.6760  151.8156 H   0  0  0  0  0  0  0  0  0  0  0  0
  144.5790  135.0643  153.4905 H   0  0  0  0  0  0  0  0  0  0  0  0
  146.0332  135.2159  152.5588 H   0  0  0  0  0  0  0  0  0  0  0  0
  146.2843  135.0970  155.1229 H   0  0  0  0  0  0  0  0  0  0  0  0
  147.1865  136.3324  154.3419 H   0  0  0  0  0  0  0  0  0  0  0  0
  144.6764  136.5878  156.0026 H   0  0  0  0  0  0  0  0  0  0  0  0
  146.1772  137.4303  156.2145 H   0  0  0  0  0  0  0  0  0  0  0  0
  144.2716  138.8381  155.3708 H   0  0  0  0  0  0  0  0  0  0  0  0
  145.3977  140.1971  153.8875 H   0  0  0  0  0  0  0  0  0  0  0  0
  146.6386  139.5595  154.9062 H   0  0  0  0  0  0  0  0  0  0  0  0
  146.8667  139.7549  152.2536 H   0  0  0  0  0  0  0  0  0  0  0  0
  148.2114  137.4071  152.6146 H   0  0  0  0  0  0  0  0  0  0  0  0
  150.0492  137.2323  153.2979 H   0  0  0  0  0  0  0  0  0  0  0  0
  154.0180  137.6662  156.0206 H   0  0  0  0  0  0  0  0  0  0  0  0
  153.2275  140.3678  155.9553 H   0  0  0  0  0  0  0  0  0  0  0  0
  146.4800  137.3488  151.2325 H   0  0  0  0  0  0  0  0  0  0  0  0
  145.2723  138.5880  151.2247 H   0  0  0  0  0  0  0  0  0  0  0  0
  143.7553  138.6636  153.0626 H   0  0  0  0  0  0  0  0  0  0  0  0
  1  2  1  0  0  0  0
  1 20  1  0  0  0  0
  1 21  1  0  0  0  0
  1 22  1  0  0  0  0
  2  7  1  0  0  0  0
  2  3  1  0  0  0  0
  2 40  1  0  0  0  0
  3 19  1  0  0  0  0
  3  4  1  0  0  0  0
  3 23  1  0  0  0  0
  4  5  1  0  0  0  0
  4 24  1  0  0  0  0
  4 25  1  0  0  0  0
  5  6  1  0  0  0  0
  5 26  1  0  0  0  0
  5 27  1  0  0  0  0
  6  7  1  0  0  0  0
  6 28  1  0  0  0  0
  6 29  1  0  0  0  0
  7  8  1  0  0  0  0
  7 30  1  0  0  0  0
  8  9  1  0  0  0  0
  8 31  1  0  0  0  0
  8 32  1  0  0  0  0
  9 10  1  0  0  0  0
  9 19  1  0  0  0  0
  9 33  1  0  0  0  0
 10 11  1  0  0  0  0
 10 34  1  0  0  0  0
 11 12  2  0  0  0  0
 11 13  1  0  0  0  0
 13 14  1  0  0  0  0
 13 35  1  0  0  0  0
 14 18  1  0  0  0  0
 14 15  2  0  0  0  0
 15 16  1  0  0  0  0
 16 17  2  0  0  0  0
 16 36  1  0  0  0  0
 17 18  1  0  0  0  0
 17 37  1  0  0  0  0
 19 38  1  0  0  0  0
 19 39  1  0  0  0  0
M  CHG  1   2   1
M  END
> <s_m_source_file>
AV-unprocessed.smi

> <i_m_source_file_index>
2226

> <i_lp_mmshare_version>
43012

> <i_f3d_flags>
0

> <s_epik_input>
W0NIMl0xW0NIMl1bQ0gyXVtDQEhdKE4oW0NIM10pW0NIXTEyKVtDSDJdW0NASF0oW0NIMl0yKVtOSF1DKD1PKVtOSF1jM25bY0hdW2NIXW8z

> <s_epik_cmdline>
J2VwaWtfcHl0aG9uJywgJy1waCcsICc3LjAnLCAnLXRuJywgJzgnLCAnLW1hJywgJzIwMCcsICctbWV0YWxfYmluZGluZycsICctaW1hZScsICc8aW5maWxlLm1hZT4nLCAnLW9tYWUnLCAnPG91dGZpbGUubWFlPic=

> <r_lp_tautomer_probability>
0.785861

> <r_epik_Ionization_Penalty>
0.000929358

> <r_epik_Ionization_Penalty_Charging>
0.000890041

> <r_epik_Ionization_Penalty_Neutral>
3.93161e-05

> <r_epik_State_Penalty>
0.0312137

> <r_epik_Charging_Adjusted_Penalty>
0.0321037

> <i_epik_Tot_Q>
1

> <i_epik_Tot_abs_Q>
1

> <r_epik_Metal_State_Penalty>
0.0605703

> <b_epik_Metal_Only>
0

> <s_lp_Force_Field>
OPLS_2005

> <r_lp_Energy>
36.0435

> <b_lp_Chiralities_Consistent>
1

> <s_lp_Variant>
AV-unprocessed.smi:2226-1

> <Gold.Version>
5.8.1

> <Gold.Id.Protein>
6NUR|6NUR_protein|mol2

> <Gold.PLP.Fitness>
36.8729

> <Gold.PLP.PLP>
-20.1349

> <Gold.PLP.part.hbond>
-5.8920

> <Gold.PLP.part.metal>
0.0000

> <Gold.PLP.part.buried>
2.9289

> <Gold.PLP.part.nonpolar>
-19.6231

> <Gold.PLP.part.repulsive>
0.3229

> <Gold.PLP.ligand.clash>
0.0000

> <Gold.PLP.ligand.torsion>
0.1786

> <Gold.PLP.Chemscore.Hbond>
5.6800

> <Gold.PLP.Chemscore.CHOScore>
0.0000

> <Gold.PLP.Chemscore.Metal>
0.0000

> <Gold.Chemscore.Hbonds>
donor molecule, donor type, donor heavy atom, donor atom, acceptor molecule, acceptor atom, score
      L1  H     2    40       P1 10175  2.00
      L1  H    10    34       P1  7948  1.00
      L1  H    13    35       P1  7948  0.84
      P1  H  7989  7998       L1    18  1.00
      P1  H 10752 10764       L1    15  0.78

> <Gold.PLP.Chemscore.Internal.Correction>
0.0553

> <Gold.Rescore>
     Score         DG    S(hbond)    S(metal)    S(lipo)     H(rot)  DE(clash)    DE(int)     intcor
     15.56     -19.59       3.50        0.00      42.56       1.00       1.42       2.61       ----

> <Gold.Chemscore.Fitness>
15.5551

> <Gold.Chemscore.DG>
-19.5903

> <Gold.Chemscore.ZeroCoef>
-5.4800

> <Gold.Chemscore.Hbond>
3.5001

> <Gold.Chemscore.Metal>
0.0000

> <Gold.Chemscore.Lipo>
42.5648

> <Gold.Chemscore.Internal_Hbond>
0.0000

> <Gold.Chemscore.DEClash>
1.4248

> <Gold.Chemscore.DEInternal>
2.6103

> <Gold.Chemscore.Rot>
1.0000

> <Gold.Chemscore.Internal.Correction>
   9.000000E+99

> <Gold.Chemscore.Hbonds>
donor molecule, donor type, donor heavy atom, donor atom, acceptor molecule, acceptor atom, score
      L1  H     2    40       P1 10175  1.00
      L1  H    10    34       P1  7948  0.97
      L1  H    13    35       P1  7948  0.18
      P1  H  7989  7998       L1    18  0.78
      P1  H 10752 10764       L1    15  0.46

> <Gold.Chemscore.Hbond.Weighted>
-11.6902

> <Gold.Chemscore.Metal.Weighted>
-0.0000

> <Gold.Chemscore.Lipo.Weighted>
-4.9801

> <Gold.Chemscore.Internal_Hbond.Weighted>
0.0000

> <Gold.Chemscore.DEClash.Weighted>
1.4248

> <Gold.Chemscore.DEInternal.Weighted>
2.6103

> <Gold.Chemscore.Rot.Weighted>
2.5600

> <Gold.Chemscore.Internal.Correction.Weighted>
   9.000000E+99

> <Gold.Protein.RotatedTorsions>
[ 6907 6896 6895 6894 ] final -143.84 input  -60.11 | X-H torsion
[ 7974 7965 7964 7962 ] final  155.09 input  175.53 | X-H torsion
[ 8008 7997 7996 7995 ] final -148.48 input   59.86 | X-H torsion
[ 10167 10162 10161 10158 ] final -164.32 input  -65.29 | X-H torsion
[ 10718 10713 10712 10709 ] final -132.49 input   66.30 | X-H torsion
[ 10763 10752 10751 10750 ] final  -63.57 input  -60.55 | X-H torsion
[ 11005 11000 10999 10996 ] final  138.61 input  -57.11 | X-H torsion

> <Gold.Protein.ActiveResidues>
 VAL166  LYS551  ARG553  GLY616  TRP617  ASP618  TYR619  PRO620  LYS621  CYS622 
 ASP623  PHE694  ASN695  SER759  ASP760  ASP761  ALA762  ILE779  LEU786  VAL792 
 PHE793  MET794  SER795  GLU796  ALA797  LYS798  CYS799  TRP800  GLU811  SER814 

> <Gold.Protein.RotatedAtoms>
  151.1060  133.5208  159.2607 H   0  0  0  0  0  0  0  0  0  0  0  0  # atno 6907 bound_to 6896
  151.2021  135.0446  159.8886 H   0  0  0  0  0  0  0  0  0  0  0  0  # atno 6908 bound_to 6896
  152.5446  134.0886  159.8320 H   0  0  0  0  0  0  0  0  0  0  0  0  # atno 6909 bound_to 6896
  144.8047  139.7022  143.6167 H   0  0  0  0  0  0  0  0  0  0  0  0  # atno 7974 bound_to 7965
  155.5923  140.0654  157.2755 H   0  0  0  0  0  0  0  0  0  0  0  0  # atno 8008 bound_to 7997
  154.4302  140.1833  156.1134 H   0  0  0  0  0  0  0  0  0  0  0  0  # atno 8009 bound_to 7997
  156.0223  140.3315  155.7055 H   0  0  0  0  0  0  0  0  0  0  0  0  # atno 8010 bound_to 7997
  139.6259  144.0534  152.1974 H   0  0  0  0  0  0  0  0  0  0  0  0  # atno 10167 bound_to 10162
  156.2351  130.7061  151.0899 H   0  0  0  0  0  0  0  0  0  0  0  0  # atno 10718 bound_to 10713
  154.3171  135.6204  153.5491 H   0  0  0  0  0  0  0  0  0  0  0  0  # atno 10763 bound_to 10752
  152.9823  135.5715  154.5112 H   0  0  0  0  0  0  0  0  0  0  0  0  # atno 10764 bound_to 10752
  154.4773  135.2861  155.1574 H   0  0  0  0  0  0  0  0  0  0  0  0  # atno 10765 bound_to 10752
  140.0195  134.9403  157.0446 H   0  0  0  0  0  0  0  0  0  0  0  0  # atno 11005 bound_to 11000
  146.2335  139.5860  142.9539 LP  0  0  0  0  0  0  0  0  0  0  0  0  # atno 17320 bound_to 7965
  145.5468  141.0416  143.2300 LP  0  0  0  0  0  0  0  0  0  0  0  0  # atno 17321 bound_to 7965
  140.0187  144.6169  150.7585 LP  0  0  0  0  0  0  0  0  0  0  0  0  # atno 17342 bound_to 10162
  140.7410  143.2812  151.3592 LP  0  0  0  0  0  0  0  0  0  0  0  0  # atno 17343 bound_to 10162
  157.7151  131.0714  150.6358 LP  0  0  0  0  0  0  0  0  0  0  0  0  # atno 17370 bound_to 10713
  156.6428  130.4463  149.5746 LP  0  0  0  0  0  0  0  0  0  0  0  0  # atno 17371 bound_to 10713
  140.4411  134.1680  155.7174 LP  0  0  0  0  0  0  0  0  0  0  0  0  # atno 17394 bound_to 11000
  141.1765  133.8503  157.1404 LP  0  0  0  0  0  0  0  0  0  0  0  0  # atno 17395 bound_to 11000

$$$$
