AV-unprocessed.smi:3|AV-procd|sdf|31|dock8
  -GOLD-   2262015143D 1   1.00000     0.00000
 Structure written by MMmdl.
 33 35  0  0  0  0  0  0  0  0  1 V2000
  150.9391  142.6554  157.6878 C   0  0  0  0  0  0  0  0  0  0  0  0
  151.7239  141.4391  157.5344 N   0  0  0  0  0  0  0  0  0  0  0  0
  151.9471  140.9079  156.1918 C   0  0  0  0  0  0  0  0  0  0  0  0
  150.9912  139.7633  155.8632 C   0  0  1  0  0  0  0  0  0  0  0  0
  149.6016  140.0687  155.2831 C   0  0  0  0  0  0  0  0  0  0  0  0
  149.7208  138.8060  154.4242 C   0  0  1  0  0  0  0  0  0  0  0  0
  149.2232  138.8727  153.1067 O   0  0  0  0  0  0  0  0  0  0  0  0
  151.2384  138.9175  154.6065 C   0  0  0  0  0  0  0  0  0  0  0  0
  152.5701  140.9967  158.5746 C   0  0  0  0  0  0  0  0  0  0  0  0
  153.2798  139.8613  158.3520 N   0  0  0  0  0  0  0  0  0  0  0  0
  154.0985  139.4189  159.3390 C   0  0  0  0  0  0  0  0  0  0  0  0
  154.3148  139.9774  160.5542 N   0  0  0  0  0  0  0  0  0  0  0  0
  153.6209  141.1276  160.7990 C   0  0  0  0  0  0  0  0  0  0  0  0
  153.6631  141.8818  161.8922 N   0  0  0  0  0  0  0  0  0  0  0  0
  152.8378  142.9167  161.6671 C   0  0  0  0  0  0  0  0  0  0  0  0
  152.2043  142.8711  160.3672 C   0  0  0  0  0  0  0  0  0  0  0  0
  152.7391  141.6597  159.8249 C   0  0  0  0  0  0  0  0  0  0  0  0
  150.8804  139.0866  156.7132 H   0  0  0  0  0  0  0  0  0  0  0  0
  149.3164  137.9288  154.9321 H   0  0  0  0  0  0  0  0  0  0  0  0
  150.6379  142.8062  158.7247 H   0  0  0  0  0  0  0  0  0  0  0  0
  150.0300  142.5923  157.0893 H   0  0  0  0  0  0  0  0  0  0  0  0
  151.5025  143.5245  157.3484 H   0  0  0  0  0  0  0  0  0  0  0  0
  151.8736  141.6967  155.4430 H   0  0  0  0  0  0  0  0  0  0  0  0
  152.9768  140.5541  156.1345 H   0  0  0  0  0  0  0  0  0  0  0  0
  148.7953  140.0482  156.0170 H   0  0  0  0  0  0  0  0  0  0  0  0
  149.5785  140.9858  154.6915 H   0  0  0  0  0  0  0  0  0  0  0  0
  149.2198  137.9906  152.7672 H   0  0  0  0  0  0  0  0  0  0  0  0
  151.7228  139.4773  153.8043 H   0  0  0  0  0  0  0  0  0  0  0  0
  151.7455  137.9706  154.7940 H   0  0  0  0  0  0  0  0  0  0  0  0
  154.6456  138.5116  159.1296 H   0  0  0  0  0  0  0  0  0  0  0  0
  152.6943  143.6917  162.4097 H   0  0  0  0  0  0  0  0  0  0  0  0
  151.5123  143.5822  159.9365 H   0  0  0  0  0  0  0  0  0  0  0  0
  154.9606  139.5393  161.1953 H   0  0  0  0  0  0  0  0  0  0  0  0
  1  2  1  0  0  0  0
  1 20  1  0  0  0  0
  1 21  1  0  0  0  0
  1 22  1  0  0  0  0
  2  3  1  0  0  0  0
  2  9  1  0  0  0  0
  3  4  1  0  0  0  0
  3 23  1  0  0  0  0
  3 24  1  0  0  0  0
  4 18  1  0  0  0  0
  4  8  1  0  0  0  0
  4  5  1  0  0  0  0
  5  6  1  0  0  0  0
  5 25  1  0  0  0  0
  5 26  1  0  0  0  0
  6 19  1  0  0  0  0
  6  7  1  0  0  0  0
  6  8  1  0  0  0  0
  7 27  1  0  0  0  0
  8 28  1  0  0  0  0
  8 29  1  0  0  0  0
  9 17  2  0  0  0  0
  9 10  1  0  0  0  0
 10 11  2  0  0  0  0
 11 12  1  0  0  0  0
 11 30  1  0  0  0  0
 12 13  1  0  0  0  0
 12 33  1  0  0  0  0
 13 17  1  0  0  0  0
 13 14  2  0  0  0  0
 14 15  1  0  0  0  0
 15 16  2  0  0  0  0
 15 31  1  0  0  0  0
 16 17  1  0  0  0  0
 16 32  1  0  0  0  0
M  END
> <s_m_source_file>
AV-unprocessed.smi

> <i_m_source_file_index>
3

> <i_lp_mmshare_version>
43012

> <i_f3d_flags>
0

> <s_epik_input>
W25IXTFbY0hdW2NIXWMoYzEyKWMobltjSF1uMilOKFtDSDNdKVtDSDJdW0NASF0zW0NIMl1bQ0BASF0oW09IXSlbQ0gyXTM=

> <s_epik_cmdline>
J2VwaWtfcHl0aG9uJywgJy1waCcsICc3LjAnLCAnLXRuJywgJzgnLCAnLW1hJywgJzIwMCcsICctbWV0YWxfYmluZGluZycsICctaW1hZScsICc8aW5maWxlLm1hZT4nLCAnLW9tYWUnLCAnPG91dGZpbGUubWFlPic=

> <r_lp_tautomer_probability>
1.75997e-05

> <r_epik_Ionization_Penalty>
5.52529

> <r_epik_Ionization_Penalty_Charging>
0

> <r_epik_Ionization_Penalty_Neutral>
5.52529

> <r_epik_State_Penalty>
8.99615

> <r_epik_Charging_Adjusted_Penalty>
8.99615

> <i_epik_Tot_Q>
0

> <i_epik_Tot_abs_Q>
0

> <r_epik_Metal_State_Penalty>
6.01519

> <b_epik_Metal_Only>
1

> <s_lp_Force_Field>
OPLS_2005

> <r_lp_Energy>
25.1021

> <b_lp_Chiralities_Consistent>
1

> <s_lp_Variant>
AV-unprocessed.smi:3-5

> <Gold.Version>
5.8.1

> <Gold.Id.Protein>
6NUR|6NUR_protein|mol2

> <Gold.PLP.Fitness>
40.7726

> <Gold.PLP.PLP>
-35.5631

> <Gold.PLP.part.hbond>
-2.7237

> <Gold.PLP.part.metal>
0.0000

> <Gold.PLP.part.buried>
-6.0433

> <Gold.PLP.part.nonpolar>
-26.6532

> <Gold.PLP.part.repulsive>
0.0564

> <Gold.PLP.ligand.clash>
0.9650

> <Gold.PLP.ligand.torsion>
0.5513

> <Gold.PLP.Chemscore.Hbond>
2.0000

> <Gold.PLP.Chemscore.CHOScore>
0.0000

> <Gold.PLP.Chemscore.Metal>
0.0000

> <Gold.Chemscore.Hbonds>
donor molecule, donor type, donor heavy atom, donor atom, acceptor molecule, acceptor atom, score
      L1  H     7    27       P1  7948  1.00
      P1  H  7997  8009       L1    10  1.00

> <Gold.PLP.Chemscore.Internal.Correction>
1.2770

> <Gold.Rescore>
     Score         DG    S(hbond)    S(metal)    S(lipo)     H(rot)  DE(clash)    DE(int)     intcor
     11.22     -13.41       1.31        0.00      70.66       1.84       0.57       1.63       ----

> <Gold.Chemscore.Fitness>
11.2158

> <Gold.Chemscore.DG>
-13.4141

> <Gold.Chemscore.ZeroCoef>
-5.4800

> <Gold.Chemscore.Hbond>
1.3105

> <Gold.Chemscore.Metal>
0.0000

> <Gold.Chemscore.Lipo>
70.6552

> <Gold.Chemscore.Internal_Hbond>
0.0000

> <Gold.Chemscore.DEClash>
0.5704

> <Gold.Chemscore.DEInternal>
1.6279

> <Gold.Chemscore.Rot>
1.8396

> <Gold.Chemscore.Internal.Correction>
   9.000000E+99

> <Gold.Chemscore.Hbonds>
donor molecule, donor type, donor heavy atom, donor atom, acceptor molecule, acceptor atom, score
      L1  H     7    27       P1  7948  0.96
      P1  H  7997  8009       L1    10  0.26

> <Gold.Chemscore.Hbond.Weighted>
-4.3769

> <Gold.Chemscore.Metal.Weighted>
-0.0000

> <Gold.Chemscore.Lipo.Weighted>
-8.2667

> <Gold.Chemscore.Internal_Hbond.Weighted>
0.0000

> <Gold.Chemscore.DEClash.Weighted>
0.5704

> <Gold.Chemscore.DEInternal.Weighted>
1.6279

> <Gold.Chemscore.Rot.Weighted>
4.7095

> <Gold.Chemscore.Internal.Correction.Weighted>
   9.000000E+99

> <Gold.Protein.RotatedTorsions>
[ 6907 6896 6895 6894 ] final -142.12 input  -60.11 | X-H torsion
[ 7974 7965 7964 7962 ] final   15.18 input  175.53 | X-H torsion
[ 8008 7997 7996 7995 ] final  165.85 input   59.86 | X-H torsion
[ 10167 10162 10161 10158 ] final  103.09 input  -65.29 | X-H torsion
[ 10718 10713 10712 10709 ] final -150.06 input   66.30 | X-H torsion
[ 10763 10752 10751 10750 ] final  105.65 input  -60.55 | X-H torsion
[ 11005 11000 10999 10996 ] final  114.80 input  -57.11 | X-H torsion

> <Gold.Protein.ActiveResidues>
 VAL166  LYS551  ARG553  GLY616  TRP617  ASP618  TYR619  PRO620  LYS621  CYS622 
 ASP623  PHE694  ASN695  SER759  ASP760  ASP761  ALA762  ILE779  LEU786  VAL792 
 PHE793  MET794  SER795  GLU796  ALA797  LYS798  CYS799  TRP800  GLU811  SER814 

> <Gold.Protein.RotatedAtoms>
  151.0828  133.5376  159.2619 H   0  0  0  0  0  0  0  0  0  0  0  0  # atno 6907 bound_to 6896
  151.2273  135.0541  159.8983 H   0  0  0  0  0  0  0  0  0  0  0  0  # atno 6908 bound_to 6896
  152.5425  134.0622  159.8211 H   0  0  0  0  0  0  0  0  0  0  0  0  # atno 6909 bound_to 6896
  146.2285  139.8932  142.8551 H   0  0  0  0  0  0  0  0  0  0  0  0  # atno 7974 bound_to 7965
  156.1766  140.1659  156.8350 H   0  0  0  0  0  0  0  0  0  0  0  0  # atno 8008 bound_to 7997
  154.5314  140.0756  156.8385 H   0  0  0  0  0  0  0  0  0  0  0  0  # atno 8009 bound_to 7997
  155.3399  140.3384  155.4241 H   0  0  0  0  0  0  0  0  0  0  0  0  # atno 8010 bound_to 7997
  139.7293  144.7040  151.0748 H   0  0  0  0  0  0  0  0  0  0  0  0  # atno 10167 bound_to 10162
  156.4413  130.8123  151.2352 H   0  0  0  0  0  0  0  0  0  0  0  0  # atno 10718 bound_to 10713
  153.3822  135.3903  155.1865 H   0  0  0  0  0  0  0  0  0  0  0  0  # atno 10763 bound_to 10752
  154.8709  135.3728  154.4842 H   0  0  0  0  0  0  0  0  0  0  0  0  # atno 10764 bound_to 10752
  153.5320  135.7085  153.5739 H   0  0  0  0  0  0  0  0  0  0  0  0  # atno 10765 bound_to 10752
  139.8991  134.9574  156.6948 H   0  0  0  0  0  0  0  0  0  0  0  0  # atno 11005 bound_to 11000
  145.2397  141.0004  143.3943 LP  0  0  0  0  0  0  0  0  0  0  0  0  # atno 17320 bound_to 7965
  144.9462  139.4133  143.6424 LP  0  0  0  0  0  0  0  0  0  0  0  0  # atno 17321 bound_to 7965
  140.7768  143.5064  150.9707 LP  0  0  0  0  0  0  0  0  0  0  0  0  # atno 17342 bound_to 10162
  139.8752  143.7141  152.3162 LP  0  0  0  0  0  0  0  0  0  0  0  0  # atno 17343 bound_to 10162
  157.7506  131.0167  150.3557 LP  0  0  0  0  0  0  0  0  0  0  0  0  # atno 17370 bound_to 10713
  156.3915  130.3899  149.7026 LP  0  0  0  0  0  0  0  0  0  0  0  0  # atno 17371 bound_to 10713
  140.7197  133.9151  155.8138 LP  0  0  0  0  0  0  0  0  0  0  0  0  # atno 17394 bound_to 11000
  141.0237  134.0853  157.4092 LP  0  0  0  0  0  0  0  0  0  0  0  0  # atno 17395 bound_to 11000

$$$$
