AV-unprocessed.smi:846|AV-procd|sdf|3936|dock3
  -GOLD-   22720 1403D 1   1.00000     0.00000
 Structure written by MMmdl.
 37 38  0  0  0  0  0  0  0  0  1 V2000
  145.5232  134.4538  150.8582 C   0  0  0  0  0  0  0  0  0  0  0  0
  146.0412  133.1944  151.5576 C   0  0  0  0  0  0  0  0  0  0  0  0
  147.0992  133.5725  152.4304 O   0  0  0  0  0  0  0  0  0  0  0  0
  147.7594  132.5924  153.1464 C   0  0  0  0  0  0  0  0  0  0  0  0
  147.3416  131.3074  153.0289 N   0  0  0  0  0  0  0  0  0  0  0  0
  147.9924  130.3568  153.7316 C   0  0  0  0  0  0  0  0  0  0  0  0
  149.0782  130.6343  154.5835 C   0  0  0  0  0  0  0  0  0  0  0  0
  149.5122  131.9674  154.7067 C   0  0  0  0  0  0  0  0  0  0  0  0
  148.8468  132.9720  153.9651 C   0  0  0  0  0  0  0  0  0  0  0  0
  149.1800  134.3507  154.0202 N   0  0  0  0  0  0  0  0  0  0  0  0
  150.1448  134.9629  154.7315 C   0  0  0  0  0  0  0  0  0  0  0  0
  150.8478  134.4154  155.5777 O   0  0  0  0  0  0  0  0  0  0  0  0
  150.2968  136.2659  154.4301 N   0  0  0  0  0  0  0  0  0  0  0  0
  151.2466  137.2189  155.0104 C   0  0  1  0  0  0  0  0  0  0  0  0
  152.1828  137.7970  153.9331 C   0  0  0  0  0  0  0  0  0  0  0  0
  152.9101  139.0180  154.5130 C   0  0  0  0  0  0  0  0  0  0  0  0
  151.7803  139.7434  155.7624 S   0  0  0  0  0  0  0  0  0  0  0  0
  152.4446  139.7197  157.0746 O   0  0  0  0  0  0  0  0  0  0  0  0
  151.1858  140.9813  155.2362 O   0  0  0  0  0  0  0  0  0  0  0  0
  150.5375  138.4021  155.6910 C   0  0  0  0  0  0  0  0  0  0  0  0
  144.7079  134.2136  150.1756 H   0  0  0  0  0  0  0  0  0  0  0  0
  146.3135  134.9346  150.2807 H   0  0  0  0  0  0  0  0  0  0  0  0
  145.1512  135.1790  151.5826 H   0  0  0  0  0  0  0  0  0  0  0  0
  145.2322  132.7257  152.1201 H   0  0  0  0  0  0  0  0  0  0  0  0
  146.3961  132.4804  150.8130 H   0  0  0  0  0  0  0  0  0  0  0  0
  147.6332  129.3449  153.6158 H   0  0  0  0  0  0  0  0  0  0  0  0
  149.5639  129.8424  155.1345 H   0  0  0  0  0  0  0  0  0  0  0  0
  150.3302  132.1938  155.3728 H   0  0  0  0  0  0  0  0  0  0  0  0
  148.7180  134.9262  153.3313 H   0  0  0  0  0  0  0  0  0  0  0  0
  149.6848  136.6355  153.7168 H   0  0  0  0  0  0  0  0  0  0  0  0
  151.8727  136.7123  155.7470 H   0  0  0  0  0  0  0  0  0  0  0  0
  152.8873  137.0506  153.5648 H   0  0  0  0  0  0  0  0  0  0  0  0
  151.5881  138.1211  153.0777 H   0  0  0  0  0  0  0  0  0  0  0  0
  153.8259  138.7180  155.0229 H   0  0  0  0  0  0  0  0  0  0  0  0
  153.1609  139.7607  153.7556 H   0  0  0  0  0  0  0  0  0  0  0  0
  149.6986  138.7563  155.0910 H   0  0  0  0  0  0  0  0  0  0  0  0
  150.1772  138.1759  156.6947 H   0  0  0  0  0  0  0  0  0  0  0  0
  1  2  1  0  0  0  0
  1 21  1  0  0  0  0
  1 22  1  0  0  0  0
  1 23  1  0  0  0  0
  2  3  1  0  0  0  0
  2 24  1  0  0  0  0
  2 25  1  0  0  0  0
  3  4  1  0  0  0  0
  4  9  1  0  0  0  0
  4  5  2  0  0  0  0
  5  6  1  0  0  0  0
  6  7  2  0  0  0  0
  6 26  1  0  0  0  0
  7  8  1  0  0  0  0
  7 27  1  0  0  0  0
  8  9  2  0  0  0  0
  8 28  1  0  0  0  0
  9 10  1  0  0  0  0
 10 11  1  0  0  0  0
 10 29  1  0  0  0  0
 11 12  2  0  0  0  0
 11 13  1  0  0  0  0
 13 14  1  0  0  0  0
 13 30  1  0  0  0  0
 14 20  1  0  0  0  0
 14 15  1  0  0  0  0
 14 31  1  0  0  0  0
 15 16  1  0  0  0  0
 15 32  1  0  0  0  0
 15 33  1  0  0  0  0
 16 17  1  0  0  0  0
 16 34  1  0  0  0  0
 16 35  1  0  0  0  0
 17 18  2  0  0  0  0
 17 19  2  0  0  0  0
 17 20  1  0  0  0  0
 20 36  1  0  0  0  0
 20 37  1  0  0  0  0
M  END
> <s_m_source_file>
AV-unprocessed.smi

> <i_m_source_file_index>
846

> <i_lp_mmshare_version>
43012

> <i_f3d_flags>
0

> <s_epik_input>
W0NIM11bQ0gyXU9jMW5bY0hdW2NIXVtjSF1jMVtOSF1DKD1PKVtOSF1bQ0BASF0oW0NIMl0yKVtDSDJdW0NIMl1TMig9Tyk9Tw==

> <s_epik_cmdline>
J2VwaWtfcHl0aG9uJywgJy1waCcsICc3LjAnLCAnLXRuJywgJzgnLCAnLW1hJywgJzIwMCcsICctbWV0YWxfYmluZGluZycsICctaW1hZScsICc8aW5maWxlLm1hZT4nLCAnLW9tYWUnLCAnPG91dGZpbGUubWFlPic=

> <r_lp_tautomer_probability>
1

> <r_epik_Ionization_Penalty>
9.45557e-05

> <r_epik_Ionization_Penalty_Charging>
0

> <r_epik_Ionization_Penalty_Neutral>
9.45557e-05

> <r_epik_State_Penalty>
-0

> <r_epik_Charging_Adjusted_Penalty>
0

> <i_epik_Tot_Q>
0

> <i_epik_Tot_abs_Q>
0

> <r_epik_Metal_State_Penalty>
-0

> <b_epik_Metal_Only>
0

> <s_lp_Force_Field>
OPLS_2005

> <r_lp_Energy>
17.3952

> <b_lp_Chiralities_Consistent>
1

> <s_lp_Variant>
AV-unprocessed.smi:846-2

> <Gold.Version>
5.8.1

> <Gold.Id.Protein>
6NUR|6NUR_protein|mol2

> <Gold.PLP.Fitness>
41.6719

> <Gold.PLP.PLP>
-32.1577

> <Gold.PLP.part.hbond>
-4.8560

> <Gold.PLP.part.metal>
0.0000

> <Gold.PLP.part.buried>
-0.4504

> <Gold.PLP.part.nonpolar>
-26.9168

> <Gold.PLP.part.repulsive>
0.7824

> <Gold.PLP.ligand.clash>
0.0000

> <Gold.PLP.ligand.torsion>
0.0078

> <Gold.PLP.Chemscore.Hbond>
3.1757

> <Gold.PLP.Chemscore.CHOScore>
0.0000

> <Gold.PLP.Chemscore.Metal>
0.0000

> <Gold.Chemscore.Hbonds>
donor molecule, donor type, donor heavy atom, donor atom, acceptor molecule, acceptor atom, score
      L1  H    10    29       P1  7948  0.90
      L1  H    13    30       P1  7948  0.82
      P1  H  7989  7998       L1    19  0.67
      P1  H  7997  8008       L1    18  1.00

> <Gold.PLP.Chemscore.Internal.Correction>
0.0025

> <Gold.Rescore>
     Score         DG    S(hbond)    S(metal)    S(lipo)     H(rot)  DE(clash)    DE(int)     intcor
     14.09     -15.78       2.10        0.00      60.92       1.50       0.42       1.26       ----

> <Gold.Chemscore.Fitness>
14.0944

> <Gold.Chemscore.DG>
-15.7753

> <Gold.Chemscore.ZeroCoef>
-5.4800

> <Gold.Chemscore.Hbond>
2.1006

> <Gold.Chemscore.Metal>
0.0000

> <Gold.Chemscore.Lipo>
60.9202

> <Gold.Chemscore.Internal_Hbond>
0.0000

> <Gold.Chemscore.DEClash>
0.4184

> <Gold.Chemscore.DEInternal>
1.2625

> <Gold.Chemscore.Rot>
1.5033

> <Gold.Chemscore.Internal.Correction>
   9.000000E+99

> <Gold.Chemscore.Hbonds>
donor molecule, donor type, donor heavy atom, donor atom, acceptor molecule, acceptor atom, score
      L1  H    10    29       P1  7948  0.44
      L1  H    13    30       P1  7948  0.47
      P1  H  7989  7998       L1    19  0.24
      P1  H  7997  8008       L1    18  0.51

> <Gold.Chemscore.Hbond.Weighted>
-7.0161

> <Gold.Chemscore.Metal.Weighted>
-0.0000

> <Gold.Chemscore.Lipo.Weighted>
-7.1277

> <Gold.Chemscore.Internal_Hbond.Weighted>
0.0000

> <Gold.Chemscore.DEClash.Weighted>
0.4184

> <Gold.Chemscore.DEInternal.Weighted>
1.2625

> <Gold.Chemscore.Rot.Weighted>
3.8484

> <Gold.Chemscore.Internal.Correction.Weighted>
   9.000000E+99

> <Gold.Protein.RotatedTorsions>
[ 6907 6896 6895 6894 ] final -167.21 input  -60.11 | X-H torsion
[ 7974 7965 7964 7962 ] final -116.73 input  175.53 | X-H torsion
[ 8008 7997 7996 7995 ] final  -66.39 input   59.86 | X-H torsion
[ 10167 10162 10161 10158 ] final  -61.40 input  -65.29 | X-H torsion
[ 10718 10713 10712 10709 ] final  177.59 input   66.30 | X-H torsion
[ 10763 10752 10751 10750 ] final  -14.56 input  -60.55 | X-H torsion
[ 11005 11000 10999 10996 ] final -172.17 input  -57.11 | X-H torsion

> <Gold.Protein.ActiveResidues>
 VAL166  LYS551  ARG553  GLY616  TRP617  ASP618  TYR619  PRO620  LYS621  CYS622 
 ASP623  PHE694  ASN695  SER759  ASP760  ASP761  ALA762  ILE779  LEU786  VAL792 
 PHE793  MET794  SER795  GLU796  ALA797  LYS798  CYS799  TRP800  GLU811  SER814 

> <Gold.Protein.RotatedAtoms>
  151.4558  133.3605  159.2801 H   0  0  0  0  0  0  0  0  0  0  0  0  # atno 6907 bound_to 6896
  150.9059  134.8476  159.7403 H   0  0  0  0  0  0  0  0  0  0  0  0  # atno 6908 bound_to 6896
  152.4905  134.4483  159.9618 H   0  0  0  0  0  0  0  0  0  0  0  0  # atno 6909 bound_to 6896
  145.0934  140.8505  143.3969 H   0  0  0  0  0  0  0  0  0  0  0  0  # atno 7974 bound_to 7965
  154.4731  140.0914  156.7195 H   0  0  0  0  0  0  0  0  0  0  0  0  # atno 8008 bound_to 7997
  155.4669  140.3463  155.4302 H   0  0  0  0  0  0  0  0  0  0  0  0  # atno 8009 bound_to 7997
  156.1072  140.1438  156.9376 H   0  0  0  0  0  0  0  0  0  0  0  0  # atno 8010 bound_to 7997
  140.6008  143.2361  151.5932 H   0  0  0  0  0  0  0  0  0  0  0  0  # atno 10167 bound_to 10162
  156.9032  130.9885  151.3032 H   0  0  0  0  0  0  0  0  0  0  0  0  # atno 10718 bound_to 10713
  153.5301  135.7014  153.5687 H   0  0  0  0  0  0  0  0  0  0  0  0  # atno 10763 bound_to 10752
  153.3698  135.3947  155.1780 H   0  0  0  0  0  0  0  0  0  0  0  0  # atno 10764 bound_to 10752
  154.8685  135.3809  154.4798 H   0  0  0  0  0  0  0  0  0  0  0  0  # atno 10765 bound_to 10752
  140.4999  134.5903  157.4984 H   0  0  0  0  0  0  0  0  0  0  0  0  # atno 11005 bound_to 11000
  145.1039  139.2803  143.5672 LP  0  0  0  0  0  0  0  0  0  0  0  0  # atno 17320 bound_to 7965
  146.3531  140.0615  142.8629 LP  0  0  0  0  0  0  0  0  0  0  0  0  # atno 17321 bound_to 7965
  139.5290  144.2972  152.1103 LP  0  0  0  0  0  0  0  0  0  0  0  0  # atno 17342 bound_to 10162
  140.2153  144.4521  150.6367 LP  0  0  0  0  0  0  0  0  0  0  0  0  # atno 17343 bound_to 10162
  157.6013  130.8515  149.8807 LP  0  0  0  0  0  0  0  0  0  0  0  0  # atno 17370 bound_to 10713
  156.0572  130.3706  150.1064 LP  0  0  0  0  0  0  0  0  0  0  0  0  # atno 17371 bound_to 10713
  139.9719  134.7278  156.0024 LP  0  0  0  0  0  0  0  0  0  0  0  0  # atno 17394 bound_to 11000
  141.1441  133.6559  156.3814 LP  0  0  0  0  0  0  0  0  0  0  0  0  # atno 17395 bound_to 11000

$$$$
