AV-unprocessed.smi:889|AV-procd|sdf|4056|dock2
  -GOLD-   22720 1543D 1   1.00000     0.00000
 Structure written by MMmdl.
 43 44  0  0  0  0  0  0  0  0  1 V2000
  154.3457  141.2275  161.1443 C   0  0  0  0  0  0  0  0  0  0  0  0
  153.2201  141.9013  160.4363 C   0  0  0  0  0  0  0  0  0  0  0  0
  152.8712  141.9888  159.1189 C   0  0  0  0  0  0  0  0  0  0  0  0
  151.6875  142.7779  159.1351 C   0  0  0  0  0  0  0  0  0  0  0  0
  150.8353  143.2090  157.9716 C   0  0  0  0  0  0  0  0  0  0  0  0
  150.5660  142.0261  157.0408 C   0  0  0  0  0  0  0  0  0  0  0  0
  150.9212  140.8928  157.3642 O   0  0  0  0  0  0  0  0  0  0  0  0
  149.9280  142.3014  155.8940 N   0  0  0  0  0  0  0  0  0  0  0  0
  149.5520  141.3129  154.8901 C   0  0  0  0  0  0  0  0  0  0  0  0
  148.0212  141.2111  154.7267 C   0  0  0  0  0  0  0  0  0  0  0  0
  147.4340  142.5882  154.3354 C   0  0  0  0  0  0  0  0  0  0  0  0
  145.9058  142.6720  154.0922 C   0  0  0  0  0  0  0  0  0  0  0  0
  145.4699  143.9459  153.3497 C   0  0  0  0  0  0  0  0  0  0  0  0
  145.1478  142.5444  155.4225 C   0  0  0  0  0  0  0  0  0  0  0  0
  147.5538  140.0461  153.8231 C   0  0  0  0  0  0  0  0  0  0  0  0
  147.3962  139.1630  155.0576 C   0  0  0  0  0  0  0  0  0  0  0  0
  147.2922  140.4555  155.8627 C   0  0  0  0  0  0  0  0  0  0  0  0
  151.3536  143.1341  160.3659 N   0  0  0  0  0  0  0  0  0  0  0  0
  152.3286  142.5811  161.2033 O   0  0  0  0  0  0  0  0  0  0  0  0
  154.4496  140.1955  160.8088 H   0  0  0  0  0  0  0  0  0  0  0  0
  154.1823  141.2156  162.2223 H   0  0  0  0  0  0  0  0  0  0  0  0
  155.2867  141.7426  160.9507 H   0  0  0  0  0  0  0  0  0  0  0  0
  153.3828  141.5552  158.2727 H   0  0  0  0  0  0  0  0  0  0  0  0
  149.8866  143.6118  158.3281 H   0  0  0  0  0  0  0  0  0  0  0  0
  151.3169  144.0091  157.4071 H   0  0  0  0  0  0  0  0  0  0  0  0
  149.6790  143.2619  155.7058 H   0  0  0  0  0  0  0  0  0  0  0  0
  150.0224  141.6013  153.9492 H   0  0  0  0  0  0  0  0  0  0  0  0
  149.9783  140.3410  155.1416 H   0  0  0  0  0  0  0  0  0  0  0  0
  147.7026  143.3222  155.0962 H   0  0  0  0  0  0  0  0  0  0  0  0
  147.9346  142.9421  153.4330 H   0  0  0  0  0  0  0  0  0  0  0  0
  145.6020  141.8182  153.4866 H   0  0  0  0  0  0  0  0  0  0  0  0
  145.8119  144.8433  153.8659 H   0  0  0  0  0  0  0  0  0  0  0  0
  144.3839  144.0015  153.2717 H   0  0  0  0  0  0  0  0  0  0  0  0
  145.8599  143.9709  152.3333 H   0  0  0  0  0  0  0  0  0  0  0  0
  145.3840  143.3694  156.0952 H   0  0  0  0  0  0  0  0  0  0  0  0
  145.4020  141.6148  155.9328 H   0  0  0  0  0  0  0  0  0  0  0  0
  144.0691  142.5438  155.2629 H   0  0  0  0  0  0  0  0  0  0  0  0
  146.5992  140.2415  153.3313 H   0  0  0  0  0  0  0  0  0  0  0  0
  148.2960  139.6905  153.1073 H   0  0  0  0  0  0  0  0  0  0  0  0
  146.4981  138.5447  155.0664 H   0  0  0  0  0  0  0  0  0  0  0  0
  148.2922  138.5855  155.2888 H   0  0  0  0  0  0  0  0  0  0  0  0
  147.8233  140.4299  156.8145 H   0  0  0  0  0  0  0  0  0  0  0  0
  146.2579  140.7768  155.9978 H   0  0  0  0  0  0  0  0  0  0  0  0
  1  2  1  0  0  0  0
  1 20  1  0  0  0  0
  1 21  1  0  0  0  0
  1 22  1  0  0  0  0
  2 19  1  0  0  0  0
  2  3  2  0  0  0  0
  3  4  1  0  0  0  0
  3 23  1  0  0  0  0
  4  5  1  0  0  0  0
  4 18  2  0  0  0  0
  5  6  1  0  0  0  0
  5 24  1  0  0  0  0
  5 25  1  0  0  0  0
  6  7  2  0  0  0  0
  6  8  1  0  0  0  0
  8  9  1  0  0  0  0
  8 26  1  0  0  0  0
  9 10  1  0  0  0  0
  9 27  1  0  0  0  0
  9 28  1  0  0  0  0
 10 17  1  0  0  0  0
 10 11  1  0  0  0  0
 10 15  1  0  0  0  0
 11 12  1  0  0  0  0
 11 29  1  0  0  0  0
 11 30  1  0  0  0  0
 12 13  1  0  0  0  0
 12 14  1  0  0  0  0
 12 31  1  0  0  0  0
 13 32  1  0  0  0  0
 13 33  1  0  0  0  0
 13 34  1  0  0  0  0
 14 35  1  0  0  0  0
 14 36  1  0  0  0  0
 14 37  1  0  0  0  0
 15 16  1  0  0  0  0
 15 38  1  0  0  0  0
 15 39  1  0  0  0  0
 16 17  1  0  0  0  0
 16 40  1  0  0  0  0
 16 41  1  0  0  0  0
 17 42  1  0  0  0  0
 17 43  1  0  0  0  0
 18 19  1  0  0  0  0
M  END
> <s_m_source_file>
AV-unprocessed.smi

> <i_m_source_file_index>
889

> <i_lp_mmshare_version>
43012

> <i_f3d_flags>
0

> <s_epik_input>
W0NIM11jMVtjSF1jKG5vMSlbQ0gyXUMoPU8pW05IXVtDSDJdQzIoW0NIMl1bQ0hdKFtDSDNdKVtDSDNdKVtDSDJdW0NIMl1bQ0gyXTI=

> <s_epik_cmdline>
J2VwaWtfcHl0aG9uJywgJy1waCcsICc3LjAnLCAnLXRuJywgJzgnLCAnLW1hJywgJzIwMCcsICctbWV0YWxfYmluZGluZycsICctaW1hZScsICc8aW5maWxlLm1hZT4nLCAnLW9tYWUnLCAnPG91dGZpbGUubWFlPic=

> <r_lp_tautomer_probability>
1

> <r_epik_Ionization_Penalty>
7.05168e-08

> <r_epik_Ionization_Penalty_Charging>
0

> <r_epik_Ionization_Penalty_Neutral>
7.05168e-08

> <r_epik_State_Penalty>
-0

> <r_epik_Charging_Adjusted_Penalty>
0

> <i_epik_Tot_Q>
0

> <i_epik_Tot_abs_Q>
0

> <r_epik_Metal_State_Penalty>
-0

> <b_epik_Metal_Only>
0

> <s_lp_Force_Field>
OPLS_2005

> <r_lp_Energy>
19.2899

> <b_lp_Chiralities_Consistent>
1

> <s_lp_Variant>
AV-unprocessed.smi:889-1

> <Gold.Version>
5.8.1

> <Gold.Id.Protein>
6NUR|6NUR_protein|mol2

> <Gold.PLP.Fitness>
40.7248

> <Gold.PLP.PLP>
-38.1710

> <Gold.PLP.part.hbond>
-2.2970

> <Gold.PLP.part.metal>
0.0000

> <Gold.PLP.part.buried>
-3.0390

> <Gold.PLP.part.nonpolar>
-33.1446

> <Gold.PLP.part.repulsive>
0.2961

> <Gold.PLP.ligand.clash>
0.0000

> <Gold.PLP.ligand.torsion>
0.4421

> <Gold.PLP.Chemscore.Hbond>
1.0000

> <Gold.PLP.Chemscore.CHOScore>
0.0000

> <Gold.PLP.Chemscore.Metal>
0.0000

> <Gold.Chemscore.Hbonds>
donor molecule, donor type, donor heavy atom, donor atom, acceptor molecule, acceptor atom, score
      L1  H     8    26       P1  8028  1.00

> <Gold.PLP.Chemscore.Internal.Correction>
0.4381

> <Gold.Rescore>
     Score         DG    S(hbond)    S(metal)    S(lipo)     H(rot)  DE(clash)    DE(int)     intcor
     13.82     -16.10       1.00        0.00      99.05       1.68       0.36       1.92       ----

> <Gold.Chemscore.Fitness>
13.8183

> <Gold.Chemscore.DG>
-16.0960

> <Gold.Chemscore.ZeroCoef>
-5.4800

> <Gold.Chemscore.Hbond>
1.0000

> <Gold.Chemscore.Metal>
0.0000

> <Gold.Chemscore.Lipo>
99.0496

> <Gold.Chemscore.Internal_Hbond>
0.0000

> <Gold.Chemscore.DEClash>
0.3569

> <Gold.Chemscore.DEInternal>
1.9208

> <Gold.Chemscore.Rot>
1.6846

> <Gold.Chemscore.Internal.Correction>
   9.000000E+99

> <Gold.Chemscore.Hbonds>
donor molecule, donor type, donor heavy atom, donor atom, acceptor molecule, acceptor atom, score
      L1  H     8    26       P1  8028  1.00

> <Gold.Chemscore.Hbond.Weighted>
-3.3399

> <Gold.Chemscore.Metal.Weighted>
-0.0000

> <Gold.Chemscore.Lipo.Weighted>
-11.5888

> <Gold.Chemscore.Internal_Hbond.Weighted>
0.0000

> <Gold.Chemscore.DEClash.Weighted>
0.3569

> <Gold.Chemscore.DEInternal.Weighted>
1.9208

> <Gold.Chemscore.Rot.Weighted>
4.3127

> <Gold.Chemscore.Internal.Correction.Weighted>
   9.000000E+99

> <Gold.Protein.RotatedTorsions>
[ 6907 6896 6895 6894 ] final   71.03 input  -60.11 | X-H torsion
[ 7974 7965 7964 7962 ] final  162.78 input  175.53 | X-H torsion
[ 8008 7997 7996 7995 ] final  152.02 input   59.86 | X-H torsion
[ 10167 10162 10161 10158 ] final  142.02 input  -65.29 | X-H torsion
[ 10718 10713 10712 10709 ] final  -73.33 input   66.30 | X-H torsion
[ 10763 10752 10751 10750 ] final    0.95 input  -60.55 | X-H torsion
[ 11005 11000 10999 10996 ] final -143.14 input  -57.11 | X-H torsion

> <Gold.Protein.ActiveResidues>
 VAL166  LYS551  ARG553  GLY616  TRP617  ASP618  TYR619  PRO620  LYS621  CYS622 
 ASP623  PHE694  ASN695  SER759  ASP760  ASP761  ALA762  ILE779  LEU786  VAL792 
 PHE793  MET794  SER795  GLU796  ALA797  LYS798  CYS799  TRP800  GLU811  SER814 

> <Gold.Protein.RotatedAtoms>
  152.4786  134.4780  159.9656 H   0  0  0  0  0  0  0  0  0  0  0  0  # atno 6907 bound_to 6896
  151.4791  133.3545  159.2843 H   0  0  0  0  0  0  0  0  0  0  0  0  # atno 6908 bound_to 6896
  150.8841  134.8263  159.7307 H   0  0  0  0  0  0  0  0  0  0  0  0  # atno 6909 bound_to 6896
  144.7621  139.8088  143.6329 H   0  0  0  0  0  0  0  0  0  0  0  0  # atno 7974 bound_to 7965
  156.2648  140.2032  156.6268 H   0  0  0  0  0  0  0  0  0  0  0  0  # atno 8008 bound_to 7997
  154.6714  140.0550  157.0194 H   0  0  0  0  0  0  0  0  0  0  0  0  # atno 8009 bound_to 7997
  155.1132  140.3217  155.4519 H   0  0  0  0  0  0  0  0  0  0  0  0  # atno 8010 bound_to 7997
  139.5005  144.6134  151.6220 H   0  0  0  0  0  0  0  0  0  0  0  0  # atno 10167 bound_to 10162
  156.0285  130.4391  150.2726 H   0  0  0  0  0  0  0  0  0  0  0  0  # atno 10718 bound_to 10713
  153.3141  135.6965  153.7089 H   0  0  0  0  0  0  0  0  0  0  0  0  # atno 10763 bound_to 10752
  153.5954  135.3472  155.2927 H   0  0  0  0  0  0  0  0  0  0  0  0  # atno 10764 bound_to 10752
  154.8582  135.4328  154.2288 H   0  0  0  0  0  0  0  0  0  0  0  0  # atno 10765 bound_to 10752
  140.8155  134.2693  157.4923 H   0  0  0  0  0  0  0  0  0  0  0  0  # atno 11005 bound_to 11000
  146.1693  139.4837  142.9938 LP  0  0  0  0  0  0  0  0  0  0  0  0  # atno 17320 bound_to 7965
  145.6587  141.0246  143.1720 LP  0  0  0  0  0  0  0  0  0  0  0  0  # atno 17321 bound_to 7965
  140.5815  143.9938  150.6271 LP  0  0  0  0  0  0  0  0  0  0  0  0  # atno 17342 bound_to 10162
  140.3089  143.3211  152.0899 LP  0  0  0  0  0  0  0  0  0  0  0  0  # atno 17343 bound_to 10162
  157.0829  131.0148  151.3150 LP  0  0  0  0  0  0  0  0  0  0  0  0  # atno 17370 bound_to 10713
  157.4914  130.7824  149.7511 LP  0  0  0  0  0  0  0  0  0  0  0  0  # atno 17371 bound_to 10713
  139.8711  134.9507  156.4062 LP  0  0  0  0  0  0  0  0  0  0  0  0  # atno 17394 bound_to 11000
  140.9153  133.7683  155.9841 LP  0  0  0  0  0  0  0  0  0  0  0  0  # atno 17395 bound_to 11000

$$$$
