AV-unprocessed.smi:249|AV-procd|sdf|1901|dock1
  -GOLD-   2262020573D 1   1.00000     0.00000
 Structure written by MMmdl.
 64 67  0  0  0  0  0  0  0  0  2 V2000
  145.9798  132.4271  151.0263 C   0  0  0  0  0  0  0  0  0  0  0  0
  144.8005  132.0844  151.9487 C   0  0  0  0  0  0  0  0  0  0  0  0
  144.3499  133.2321  152.7820 N   0  3  1  0  0  0  0  0  0  0  0  0
  145.4674  133.8256  153.5650 C   0  0  0  0  0  0  0  0  0  0  0  0
  144.9562  134.8479  154.5919 C   0  0  0  0  0  0  0  0  0  0  0  0
  144.1193  135.9426  153.9025 C   0  0  2  0  0  0  0  0  0  0  0  0
  143.6749  137.0107  154.8089 N   0  0  0  0  0  0  0  0  0  0  0  0
  142.2407  137.2556  154.9211 C   0  0  0  0  0  0  0  0  0  0  0  0
  144.4458  138.0899  155.1089 C   0  0  0  0  0  0  0  0  0  0  0  0
  144.1151  138.9042  156.1453 N   0  0  0  0  0  0  0  0  0  0  0  0
  144.8837  139.9518  156.4569 C   0  0  0  0  0  0  0  0  0  0  0  0
  146.0119  140.3606  155.8747 N   0  0  0  0  0  0  0  0  0  0  0  0
  146.3536  139.5479  154.8350 C   0  0  0  0  0  0  0  0  0  0  0  0
  145.6352  138.4019  154.3899 C   0  0  0  0  0  0  0  0  0  0  0  0
  146.2842  137.8318  153.3008 N   0  0  0  0  0  0  0  0  0  0  0  0
  147.3287  138.5922  153.1167 C   0  0  0  0  0  0  0  0  0  0  0  0
  147.4518  139.6416  153.9978 N   0  0  0  0  0  0  0  0  0  0  0  0
  148.5141  140.6323  154.0169 C   0  0  0  0  0  0  0  0  0  0  0  0
  149.4880  140.4562  155.2082 C   0  0  2  0  0  0  0  0  0  0  0  0
  149.5560  141.7110  156.1128 C   0  0  0  0  0  0  0  0  0  0  0  0
  148.2673  142.2215  156.3862 O   0  0  0  0  0  0  0  0  0  0  0  0
  150.8905  139.9946  154.7376 C   0  0  2  0  0  0  0  0  0  0  0  0
  150.9811  138.5313  154.3419 C   0  0  0  0  0  0  0  0  0  0  0  0
  152.4831  138.2768  154.3938 C   0  0  0  0  0  0  0  0  0  0  0  0
  152.9779  139.1151  155.4314 O   0  0  0  0  0  0  0  0  0  0  0  0
  151.9812  140.0585  155.8124 C   0  0  0  0  0  0  0  0  0  0  0  0
  142.9841  135.3008  153.0756 C   0  0  0  0  0  0  0  0  0  0  0  0
  143.5210  134.2577  152.0733 C   0  0  1  0  0  0  0  0  0  0  0  0
  144.2355  134.9127  150.8711 C   0  0  0  0  0  0  0  0  0  0  0  0
  146.1805  131.6023  150.3421 H   0  0  0  0  0  0  0  0  0  0  0  0
  146.8974  132.6066  151.5862 H   0  0  0  0  0  0  0  0  0  0  0  0
  145.7687  133.3109  150.4239 H   0  0  0  0  0  0  0  0  0  0  0  0
  143.9682  131.7728  151.3162 H   0  0  0  0  0  0  0  0  0  0  0  0
  145.0391  131.2235  152.5733 H   0  0  0  0  0  0  0  0  0  0  0  0
  146.0015  133.0363  154.0954 H   0  0  0  0  0  0  0  0  0  0  0  0
  146.1907  134.2893  152.8937 H   0  0  0  0  0  0  0  0  0  0  0  0
  144.3697  134.3251  155.3464 H   0  0  0  0  0  0  0  0  0  0  0  0
  145.8040  135.2910  155.1150 H   0  0  0  0  0  0  0  0  0  0  0  0
  144.7771  136.4421  153.1906 H   0  0  0  0  0  0  0  0  0  0  0  0
  141.9033  137.0615  155.9390 H   0  0  0  0  0  0  0  0  0  0  0  0
  141.6743  136.6038  154.2558 H   0  0  0  0  0  0  0  0  0  0  0  0
  141.9907  138.2863  154.6658 H   0  0  0  0  0  0  0  0  0  0  0  0
  144.5486  140.5464  157.2940 H   0  0  0  0  0  0  0  0  0  0  0  0
  148.0456  138.4057  152.3301 H   0  0  0  0  0  0  0  0  0  0  0  0
  149.0478  140.5552  153.0697 H   0  0  0  0  0  0  0  0  0  0  0  0
  148.0673  141.6269  154.0370 H   0  0  0  0  0  0  0  0  0  0  0  0
  149.0819  139.6562  155.8291 H   0  0  0  0  0  0  0  0  0  0  0  0
  150.0517  141.4875  157.0574 H   0  0  0  0  0  0  0  0  0  0  0  0
  150.1488  142.4963  155.6440 H   0  0  0  0  0  0  0  0  0  0  0  0
  148.2766  143.1556  156.2435 H   0  0  0  0  0  0  0  0  0  0  0  0
  151.2078  140.5981  153.8854 H   0  0  0  0  0  0  0  0  0  0  0  0
  150.4702  137.9043  155.0742 H   0  0  0  0  0  0  0  0  0  0  0  0
  150.5591  138.3228  153.3585 H   0  0  0  0  0  0  0  0  0  0  0  0
  152.7230  137.2293  154.5767 H   0  0  0  0  0  0  0  0  0  0  0  0
  152.9514  138.5734  153.4544 H   0  0  0  0  0  0  0  0  0  0  0  0
  152.4072  141.0570  155.9146 H   0  0  0  0  0  0  0  0  0  0  0  0
  151.5854  139.7602  156.7843 H   0  0  0  0  0  0  0  0  0  0  0  0
  142.2667  134.8019  153.7260 H   0  0  0  0  0  0  0  0  0  0  0  0
  142.4237  136.0732  152.5473 H   0  0  0  0  0  0  0  0  0  0  0  0
  142.6402  133.7533  151.6771 H   0  0  0  0  0  0  0  0  0  0  0  0
  143.5974  135.6667  150.4096 H   0  0  0  0  0  0  0  0  0  0  0  0
  144.4698  134.1852  150.0945 H   0  0  0  0  0  0  0  0  0  0  0  0
  145.1640  135.4065  151.1554 H   0  0  0  0  0  0  0  0  0  0  0  0
  143.7347  132.8282  153.4741 H   0  0  0  0  0  0  0  0  0  0  0  0
  1  2  1  0  0  0  0
  1 30  1  0  0  0  0
  1 31  1  0  0  0  0
  1 32  1  0  0  0  0
  2  3  1  0  0  0  0
  2 33  1  0  0  0  0
  2 34  1  0  0  0  0
  3 28  1  0  0  0  0
  3  4  1  0  0  0  0
  3 64  1  0  0  0  0
  4  5  1  0  0  0  0
  4 35  1  0  0  0  0
  4 36  1  0  0  0  0
  5  6  1  0  0  0  0
  5 37  1  0  0  0  0
  5 38  1  0  0  0  0
  6  7  1  0  0  0  0
  6 27  1  0  0  0  0
  6 39  1  0  0  0  0
  7  8  1  0  0  0  0
  7  9  1  0  0  0  0
  8 40  1  0  0  0  0
  8 41  1  0  0  0  0
  8 42  1  0  0  0  0
  9 14  1  0  0  0  0
  9 10  2  0  0  0  0
 10 11  1  0  0  0  0
 11 12  2  0  0  0  0
 11 43  1  0  0  0  0
 12 13  1  0  0  0  0
 13 17  1  0  0  0  0
 13 14  2  0  0  0  0
 14 15  1  0  0  0  0
 15 16  2  0  0  0  0
 16 17  1  0  0  0  0
 16 44  1  0  0  0  0
 17 18  1  0  0  0  0
 18 19  1  0  0  0  0
 18 45  1  0  0  0  0
 18 46  1  0  0  0  0
 19 20  1  0  0  0  0
 19 22  1  0  0  0  0
 19 47  1  0  0  0  0
 20 21  1  0  0  0  0
 20 48  1  0  0  0  0
 20 49  1  0  0  0  0
 21 50  1  0  0  0  0
 22 26  1  0  0  0  0
 22 23  1  0  0  0  0
 22 51  1  0  0  0  0
 23 24  1  0  0  0  0
 23 52  1  0  0  0  0
 23 53  1  0  0  0  0
 24 25  1  0  0  0  0
 24 54  1  0  0  0  0
 24 55  1  0  0  0  0
 25 26  1  0  0  0  0
 26 56  1  0  0  0  0
 26 57  1  0  0  0  0
 27 28  1  0  0  0  0
 27 58  1  0  0  0  0
 27 59  1  0  0  0  0
 28 29  1  0  0  0  0
 28 60  1  0  0  0  0
 29 61  1  0  0  0  0
 29 62  1  0  0  0  0
 29 63  1  0  0  0  0
M  CHG  1   3   1
M  END
> <s_m_source_file>
AV-unprocessed.smi

> <i_m_source_file_index>
249

> <i_lp_mmshare_version>
43012

> <i_f3d_flags>
0

> <s_epik_input>
W0NIM11bQ0gyXU4xW0NIMl1bQ0gyXVtDQEhdKFtDSDJdW0NASF0xW0NIM10pTihbQ0gzXSljKG5bY0hdbjIpYyhjMjMpbltjSF1uM1tDSDJdW0NASF0oW0NIMl1bT0hdKVtDQEBIXTRbQ0gyXVtDSDJdT1tDSDJdNA==

> <s_epik_cmdline>
J2VwaWtfcHl0aG9uJywgJy1waCcsICc3LjAnLCAnLXRuJywgJzgnLCAnLW1hJywgJzIwMCcsICctbWV0YWxfYmluZGluZycsICctaW1hZScsICc8aW5maWxlLm1hZT4nLCAnLW9tYWUnLCAnPG91dGZpbGUubWFlPic=

> <r_lp_tautomer_probability>
1

> <r_epik_Ionization_Penalty>
0.00294688

> <r_epik_Ionization_Penalty_Charging>
0.00169971

> <r_epik_Ionization_Penalty_Neutral>
0.00124717

> <r_epik_State_Penalty>
-0

> <r_epik_Charging_Adjusted_Penalty>
0.00169971

> <i_epik_Tot_Q>
1

> <i_epik_Tot_abs_Q>
1

> <r_epik_Metal_State_Penalty>
-0

> <b_epik_Metal_Only>
0

> <s_lp_Force_Field>
OPLS_2005

> <r_lp_Energy>
54.0004

> <b_lp_Chiralities_Consistent>
1

> <s_lp_Variant>
AV-unprocessed.smi:249-4

> <Gold.Version>
5.8.1

> <Gold.Id.Protein>
6NUR|6NUR_protein|mol2

> <Gold.PLP.Fitness>
51.3993

> <Gold.PLP.PLP>
-36.7853

> <Gold.PLP.part.hbond>
-2.9823

> <Gold.PLP.part.metal>
0.0000

> <Gold.PLP.part.buried>
-2.8276

> <Gold.PLP.part.nonpolar>
-31.6583

> <Gold.PLP.part.repulsive>
0.3101

> <Gold.PLP.ligand.clash>
0.0000

> <Gold.PLP.ligand.torsion>
2.0274

> <Gold.PLP.Chemscore.Hbond>
3.9825

> <Gold.PLP.Chemscore.CHOScore>
1.8636

> <Gold.PLP.Chemscore.Metal>
0.0000

> <Gold.Chemscore.Hbonds>
donor molecule, donor type, donor heavy atom, donor atom, acceptor molecule, acceptor atom, score
      L1  H     3    64       P1 10957  2.00
      L1  H    21    50       P1  8028  1.00
      P1  H  7997  8010       L1    25  0.75
      L1  C    16    44       P1  7948  0.89
      L1  C    16    44       P1  7957  1.00

> <Gold.PLP.Chemscore.Internal.Correction>
1.1306

> <Gold.Rescore>
     Score         DG    S(hbond)    S(metal)    S(lipo)     H(rot)  DE(clash)    DE(int)     intcor
     10.29     -15.49       1.94        0.00      88.14       2.65       0.95       4.25       ----

> <Gold.Chemscore.Fitness>
10.2885

> <Gold.Chemscore.DG>
-15.4930

> <Gold.Chemscore.ZeroCoef>
-5.4800

> <Gold.Chemscore.Hbond>
1.9428

> <Gold.Chemscore.Metal>
0.0000

> <Gold.Chemscore.Lipo>
88.1360

> <Gold.Chemscore.Internal_Hbond>
0.0000

> <Gold.Chemscore.DEClash>
0.9496

> <Gold.Chemscore.DEInternal>
4.2549

> <Gold.Chemscore.Rot>
2.6515

> <Gold.Chemscore.Internal.Correction>
   9.000000E+99

> <Gold.Chemscore.Hbonds>
donor molecule, donor type, donor heavy atom, donor atom, acceptor molecule, acceptor atom, score
      L1  H     3    64       P1 10957  0.68
      L1  H    21    50       P1  8028  0.65
      P1  H  7997  8010       L1    25  0.09

> <Gold.Chemscore.Hbond.Weighted>
-6.4890

> <Gold.Chemscore.Metal.Weighted>
-0.0000

> <Gold.Chemscore.Lipo.Weighted>
-10.3119

> <Gold.Chemscore.Internal_Hbond.Weighted>
0.0000

> <Gold.Chemscore.DEClash.Weighted>
0.9496

> <Gold.Chemscore.DEInternal.Weighted>
4.2549

> <Gold.Chemscore.Rot.Weighted>
6.7880

> <Gold.Chemscore.Internal.Correction.Weighted>
   9.000000E+99

> <Gold.Protein.RotatedTorsions>
[ 6907 6896 6895 6894 ] final  158.76 input  -60.11 | X-H torsion
[ 7974 7965 7964 7962 ] final  104.08 input  175.53 | X-H torsion
[ 8008 7997 7996 7995 ] final   99.98 input   59.86 | X-H torsion
[ 10167 10162 10161 10158 ] final  -41.62 input  -65.29 | X-H torsion
[ 10718 10713 10712 10709 ] final -113.15 input   66.30 | X-H torsion
[ 10763 10752 10751 10750 ] final  119.80 input  -60.55 | X-H torsion
[ 11005 11000 10999 10996 ] final  -98.41 input  -57.11 | X-H torsion

> <Gold.Protein.ActiveResidues>
 VAL166  LYS551  ARG553  GLY616  TRP617  ASP618  TYR619  PRO620  LYS621  CYS622 
 ASP623  PHE694  ASN695  SER759  ASP760  ASP761  ALA762  ILE779  LEU786  VAL792 
 PHE793  MET794  SER795  GLU796  ALA797  LYS798  CYS799  TRP800  GLU811  SER814 

> <Gold.Protein.RotatedAtoms>
  151.9956  133.3807  159.4161 H   0  0  0  0  0  0  0  0  0  0  0  0  # atno 6907 bound_to 6896
  150.6916  134.3889  159.5076 H   0  0  0  0  0  0  0  0  0  0  0  0  # atno 6908 bound_to 6896
  152.1629  134.8897  160.0591 H   0  0  0  0  0  0  0  0  0  0  0  0  # atno 6909 bound_to 6896
  145.3375  139.2471  143.3627 H   0  0  0  0  0  0  0  0  0  0  0  0  # atno 7974 bound_to 7965
  156.1159  140.3220  155.8138 H   0  0  0  0  0  0  0  0  0  0  0  0  # atno 8008 bound_to 7997
  155.4591  140.0538  157.3010 H   0  0  0  0  0  0  0  0  0  0  0  0  # atno 8009 bound_to 7997
  154.4792  140.2046  155.9817 H   0  0  0  0  0  0  0  0  0  0  0  0  # atno 8010 bound_to 7997
  140.6996  143.3084  151.3092 H   0  0  0  0  0  0  0  0  0  0  0  0  # atno 10167 bound_to 10162
  156.0749  130.5958  150.8604 H   0  0  0  0  0  0  0  0  0  0  0  0  # atno 10718 bound_to 10713
  153.5886  135.3470  155.2902 H   0  0  0  0  0  0  0  0  0  0  0  0  # atno 10763 bound_to 10752
  154.8656  135.4199  154.2541 H   0  0  0  0  0  0  0  0  0  0  0  0  # atno 10764 bound_to 10752
  153.3343  135.7046  153.6991 H   0  0  0  0  0  0  0  0  0  0  0  0  # atno 10765 bound_to 10752
  141.1346  133.8243  157.0836 H   0  0  0  0  0  0  0  0  0  0  0  0  # atno 11005 bound_to 11000
  146.3021  140.3965  142.8700 LP  0  0  0  0  0  0  0  0  0  0  0  0  # atno 17320 bound_to 7965
  144.8816  140.7408  143.5983 LP  0  0  0  0  0  0  0  0  0  0  0  0  # atno 17321 bound_to 7965
  139.6498  144.0383  152.2618 LP  0  0  0  0  0  0  0  0  0  0  0  0  # atno 17342 bound_to 10162
  139.9916  144.6357  150.7809 LP  0  0  0  0  0  0  0  0  0  0  0  0  # atno 17343 bound_to 10162
  157.5839  131.0946  150.9227 LP  0  0  0  0  0  0  0  0  0  0  0  0  # atno 17370 bound_to 10713
  156.9417  130.5387  149.5280 LP  0  0  0  0  0  0  0  0  0  0  0  0  # atno 17371 bound_to 10713
  140.0436  134.9841  157.1008 LP  0  0  0  0  0  0  0  0  0  0  0  0  # atno 17394 bound_to 11000
  140.4097  134.1995  155.7163 LP  0  0  0  0  0  0  0  0  0  0  0  0  # atno 17395 bound_to 11000

$$$$
