AV-unprocessed.smi:1536|AV-procd|sdf|6189|dock4
  -GOLD-   22720 6353D 1   1.00000     0.00000
 Structure written by MMmdl.
 48 49  0  0  0  0  0  0  0  0  2 V2000
  144.3397  132.1739  151.4461 C   0  0  0  0  0  0  0  0  0  0  0  0
  145.1631  133.3784  150.9567 C   0  0  2  0  0  0  0  0  0  0  0  0
  146.6189  133.0061  150.6179 C   0  0  0  0  0  0  0  0  0  0  0  0
  147.4614  132.7496  151.8794 C   0  0  0  0  0  0  0  0  0  0  0  0
  147.4094  133.9218  152.7935 N   0  3  2  0  0  0  0  0  0  0  0  0
  148.4118  133.9305  153.9063 C   0  0  1  0  0  0  0  0  0  0  0  0
  148.2547  135.1265  154.8939 C   0  0  0  0  0  0  0  0  0  0  0  0
  148.8803  136.3683  154.4478 N   0  0  0  0  0  0  0  0  0  0  0  0
  148.9573  137.4955  155.1715 C   0  0  0  0  0  0  0  0  0  0  0  0
  148.5305  137.5824  156.3235 O   0  0  0  0  0  0  0  0  0  0  0  0
  149.6394  138.6840  154.4838 C   0  0  0  0  0  0  0  0  0  0  0  0
  151.0880  138.6252  154.5678 N   0  0  0  0  0  0  0  0  0  0  0  0
  151.9438  137.6375  154.2968 C   0  0  0  0  0  0  0  0  0  0  0  0
  153.1973  138.0021  154.5181 N   0  0  0  0  0  0  0  0  0  0  0  0
  153.0717  139.3105  154.9544 N   0  0  0  0  0  0  0  0  0  0  0  0
  151.8223  139.6858  154.9861 N   0  0  0  0  0  0  0  0  0  0  0  0
  148.4057  132.5533  154.6321 C   0  0  0  0  0  0  0  0  0  0  0  0
  147.0750  132.2593  155.3511 C   0  0  0  0  0  0  0  0  0  0  0  0
  149.5571  132.4328  155.6509 C   0  0  0  0  0  0  0  0  0  0  0  0
  146.0206  134.2724  153.1929 C   0  0  0  0  0  0  0  0  0  0  0  0
  145.1505  134.5519  151.9548 C   0  0  0  0  0  0  0  0  0  0  0  0
  144.7291  131.7566  152.3744 H   0  0  0  0  0  0  0  0  0  0  0  0
  144.3359  131.3762  150.7027 H   0  0  0  0  0  0  0  0  0  0  0  0
  143.3021  132.4580  151.6232 H   0  0  0  0  0  0  0  0  0  0  0  0
  144.6892  133.7231  150.0367 H   0  0  0  0  0  0  0  0  0  0  0  0
  146.6443  132.1321  149.9660 H   0  0  0  0  0  0  0  0  0  0  0  0
  147.0726  133.8194  150.0497 H   0  0  0  0  0  0  0  0  0  0  0  0
  147.1037  131.8542  152.3871 H   0  0  0  0  0  0  0  0  0  0  0  0
  148.4924  132.5539  151.5849 H   0  0  0  0  0  0  0  0  0  0  0  0
  149.3991  134.0180  153.4507 H   0  0  0  0  0  0  0  0  0  0  0  0
  147.1996  135.3288  155.0790 H   0  0  0  0  0  0  0  0  0  0  0  0
  148.6810  134.8801  155.8664 H   0  0  0  0  0  0  0  0  0  0  0  0
  149.2533  136.3814  153.5094 H   0  0  0  0  0  0  0  0  0  0  0  0
  149.3528  138.7036  153.4316 H   0  0  0  0  0  0  0  0  0  0  0  0
  149.2964  139.6185  154.9309 H   0  0  0  0  0  0  0  0  0  0  0  0
  151.6507  136.6597  153.9439 H   0  0  0  0  0  0  0  0  0  0  0  0
  148.5465  131.7681  153.8888 H   0  0  0  0  0  0  0  0  0  0  0  0
  146.8092  133.0620  156.0397 H   0  0  0  0  0  0  0  0  0  0  0  0
  147.1363  131.3369  155.9296 H   0  0  0  0  0  0  0  0  0  0  0  0
  146.2516  132.1277  154.6500 H   0  0  0  0  0  0  0  0  0  0  0  0
  149.5029  133.2185  156.4052 H   0  0  0  0  0  0  0  0  0  0  0  0
  150.5353  132.4931  155.1737 H   0  0  0  0  0  0  0  0  0  0  0  0
  149.5223  131.4752  156.1713 H   0  0  0  0  0  0  0  0  0  0  0  0
  145.5755  133.4720  153.7804 H   0  0  0  0  0  0  0  0  0  0  0  0
  146.0288  135.1607  153.8254 H   0  0  0  0  0  0  0  0  0  0  0  0
  145.5224  135.4484  151.4567 H   0  0  0  0  0  0  0  0  0  0  0  0
  144.1281  134.7785  152.2589 H   0  0  0  0  0  0  0  0  0  0  0  0
  147.6928  134.7045  152.2212 H   0  0  0  0  0  0  0  0  0  0  0  0
  1  2  1  0  0  0  0
  1 22  1  0  0  0  0
  1 23  1  0  0  0  0
  1 24  1  0  0  0  0
  2 21  1  0  0  0  0
  2  3  1  0  0  0  0
  2 25  1  0  0  0  0
  3  4  1  0  0  0  0
  3 26  1  0  0  0  0
  3 27  1  0  0  0  0
  4  5  1  0  0  0  0
  4 28  1  0  0  0  0
  4 29  1  0  0  0  0
  5  6  1  0  0  0  0
  5 20  1  0  0  0  0
  5 48  1  0  0  0  0
  6  7  1  0  0  0  0
  6 17  1  0  0  0  0
  6 30  1  0  0  0  0
  7  8  1  0  0  0  0
  7 31  1  0  0  0  0
  7 32  1  0  0  0  0
  8  9  1  0  0  0  0
  8 33  1  0  0  0  0
  9 10  2  0  0  0  0
  9 11  1  0  0  0  0
 11 12  1  0  0  0  0
 11 34  1  0  0  0  0
 11 35  1  0  0  0  0
 12 16  1  0  0  0  0
 12 13  1  0  0  0  0
 13 14  2  0  0  0  0
 13 36  1  0  0  0  0
 14 15  1  0  0  0  0
 15 16  2  0  0  0  0
 17 18  1  0  0  0  0
 17 19  1  0  0  0  0
 17 37  1  0  0  0  0
 18 38  1  0  0  0  0
 18 39  1  0  0  0  0
 18 40  1  0  0  0  0
 19 41  1  0  0  0  0
 19 42  1  0  0  0  0
 19 43  1  0  0  0  0
 20 21  1  0  0  0  0
 20 44  1  0  0  0  0
 20 45  1  0  0  0  0
 21 46  1  0  0  0  0
 21 47  1  0  0  0  0
M  CHG  1   5   1
M  END
> <s_m_source_file>
AV-unprocessed.smi

> <i_m_source_file_index>
1536

> <i_lp_mmshare_version>
43012

> <i_f3d_flags>
0

> <s_epik_input>
W0NIM11bQ0hdMVtDSDJdW0NIMl1OKFtDSDJdW0NIMl0xKVtDQEBIXShbQ0hdKFtDSDNdKVtDSDNdKVtDSDJdW05IXUMoPU8pW0NIMl1uMltjSF1ubm4y

> <s_epik_cmdline>
J2VwaWtfcHl0aG9uJywgJy1waCcsICc3LjAnLCAnLXRuJywgJzgnLCAnLW1hJywgJzIwMCcsICctbWV0YWxfYmluZGluZycsICctaW1hZScsICc8aW5maWxlLm1hZT4nLCAnLW9tYWUnLCAnPG91dGZpbGUubWFlPic=

> <r_lp_tautomer_probability>
1

> <r_epik_Ionization_Penalty>
0.00109671

> <r_epik_Ionization_Penalty_Charging>
0.00109273

> <r_epik_Ionization_Penalty_Neutral>
3.97951e-06

> <r_epik_State_Penalty>
0.000716588

> <r_epik_Charging_Adjusted_Penalty>
0.00180932

> <i_epik_Tot_Q>
1

> <i_epik_Tot_abs_Q>
1

> <r_epik_Metal_State_Penalty>
-0

> <b_epik_Metal_Only>
0

> <s_lp_Force_Field>
OPLS_2005

> <r_lp_Energy>
37.5817

> <b_lp_Chiralities_Consistent>
1

> <s_lp_Variant>
AV-unprocessed.smi:1536-4

> <Gold.Version>
5.8.1

> <Gold.Id.Protein>
6NUR|6NUR_protein|mol2

> <Gold.PLP.Fitness>
48.0215

> <Gold.PLP.PLP>
-31.8788

> <Gold.PLP.part.hbond>
-5.8403

> <Gold.PLP.part.metal>
0.0000

> <Gold.PLP.part.buried>
-0.6532

> <Gold.PLP.part.nonpolar>
-26.0371

> <Gold.PLP.part.repulsive>
0.1113

> <Gold.PLP.ligand.clash>
0.0000

> <Gold.PLP.ligand.torsion>
1.0193

> <Gold.PLP.Chemscore.Hbond>
4.8700

> <Gold.PLP.Chemscore.CHOScore>
1.0000

> <Gold.PLP.Chemscore.Metal>
0.0000

> <Gold.Chemscore.Hbonds>
donor molecule, donor type, donor heavy atom, donor atom, acceptor molecule, acceptor atom, score
      L1  H     5    48       P1  7948  2.00
      L1  H     8    33       P1  7948  0.98
      P1  H  7989  7998       L1    16  1.00
      P1  H  7997  8008       L1    15  1.00
      L1  C    13    36       P1  7949  0.81

> <Gold.PLP.Chemscore.Internal.Correction>
0.5714

> <Gold.Rescore>
     Score         DG    S(hbond)    S(metal)    S(lipo)     H(rot)  DE(clash)    DE(int)     intcor
     13.23     -14.71       2.78        0.00      60.16       2.77       0.47       1.01       ----

> <Gold.Chemscore.Fitness>
13.2295

> <Gold.Chemscore.DG>
-14.7052

> <Gold.Chemscore.ZeroCoef>
-5.4800

> <Gold.Chemscore.Hbond>
2.7785

> <Gold.Chemscore.Metal>
0.0000

> <Gold.Chemscore.Lipo>
60.1596

> <Gold.Chemscore.Internal_Hbond>
0.0000

> <Gold.Chemscore.DEClash>
0.4658

> <Gold.Chemscore.DEInternal>
1.0099

> <Gold.Chemscore.Rot>
2.7709

> <Gold.Chemscore.Internal.Correction>
   9.000000E+99

> <Gold.Chemscore.Hbonds>
donor molecule, donor type, donor heavy atom, donor atom, acceptor molecule, acceptor atom, score
      L1  H     5    48       P1  7948  0.65
      L1  H     8    33       P1  7948  0.84
      P1  H  7989  7998       L1    16  0.13
      P1  H  7997  8008       L1    15  0.97

> <Gold.Chemscore.Hbond.Weighted>
-9.2801

> <Gold.Chemscore.Metal.Weighted>
-0.0000

> <Gold.Chemscore.Lipo.Weighted>
-7.0387

> <Gold.Chemscore.Internal_Hbond.Weighted>
0.0000

> <Gold.Chemscore.DEClash.Weighted>
0.4658

> <Gold.Chemscore.DEInternal.Weighted>
1.0099

> <Gold.Chemscore.Rot.Weighted>
7.0935

> <Gold.Chemscore.Internal.Correction.Weighted>
   9.000000E+99

> <Gold.Protein.RotatedTorsions>
[ 6907 6896 6895 6894 ] final  -51.71 input  -60.11 | X-H torsion
[ 7974 7965 7964 7962 ] final -167.45 input  175.53 | X-H torsion
[ 8008 7997 7996 7995 ] final  -27.25 input   59.86 | X-H torsion
[ 10167 10162 10161 10158 ] final   26.37 input  -65.29 | X-H torsion
[ 10718 10713 10712 10709 ] final -176.28 input   66.30 | X-H torsion
[ 10763 10752 10751 10750 ] final  119.83 input  -60.55 | X-H torsion
[ 11005 11000 10999 10996 ] final  -27.77 input  -57.11 | X-H torsion

> <Gold.Protein.ActiveResidues>
 VAL166  LYS551  ARG553  GLY616  TRP617  ASP618  TYR619  PRO620  LYS621  CYS622 
 ASP623  PHE694  ASN695  SER759  ASP760  ASP761  ALA762  ILE779  LEU786  VAL792 
 PHE793  MET794  SER795  GLU796  ALA797  LYS798  CYS799  TRP800  GLU811  SER814 

> <Gold.Protein.RotatedAtoms>
  150.8585  134.7931  159.7064 H   0  0  0  0  0  0  0  0  0  0  0  0  # atno 6907 bound_to 6896
  152.4629  134.5138  159.9772 H   0  0  0  0  0  0  0  0  0  0  0  0  # atno 6908 bound_to 6896
  151.5246  133.3422  159.2943 H   0  0  0  0  0  0  0  0  0  0  0  0  # atno 6909 bound_to 6896
  144.7223  140.2516  143.6277 H   0  0  0  0  0  0  0  0  0  0  0  0  # atno 7974 bound_to 7965
  154.4386  140.1877  156.0903 H   0  0  0  0  0  0  0  0  0  0  0  0  # atno 8008 bound_to 7997
  156.0371  140.3324  155.7176 H   0  0  0  0  0  0  0  0  0  0  0  0  # atno 8009 bound_to 7997
  155.5755  140.0616  157.2787 H   0  0  0  0  0  0  0  0  0  0  0  0  # atno 8010 bound_to 7997
  140.5028  144.0287  150.6340 H   0  0  0  0  0  0  0  0  0  0  0  0  # atno 10167 bound_to 10162
  156.8123  130.9590  151.3115 H   0  0  0  0  0  0  0  0  0  0  0  0  # atno 10718 bound_to 10713
  153.5891  135.3469  155.2904 H   0  0  0  0  0  0  0  0  0  0  0  0  # atno 10763 bound_to 10752
  154.8655  135.4200  154.2536 H   0  0  0  0  0  0  0  0  0  0  0  0  # atno 10764 bound_to 10752
  153.3339  135.7046  153.6994 H   0  0  0  0  0  0  0  0  0  0  0  0  # atno 10765 bound_to 10752
  140.9149  133.7437  156.0721 H   0  0  0  0  0  0  0  0  0  0  0  0  # atno 11005 bound_to 11000
  145.8222  139.2049  143.1931 LP  0  0  0  0  0  0  0  0  0  0  0  0  # atno 17320 bound_to 7965
  146.0504  140.8075  142.9784 LP  0  0  0  0  0  0  0  0  0  0  0  0  # atno 17321 bound_to 7965
  140.3588  143.2920  152.0407 LP  0  0  0  0  0  0  0  0  0  0  0  0  # atno 17342 bound_to 10162
  139.4876  144.6319  151.7053 LP  0  0  0  0  0  0  0  0  0  0  0  0  # atno 17343 bound_to 10162
  157.6499  130.8876  149.9613 LP  0  0  0  0  0  0  0  0  0  0  0  0  # atno 17370 bound_to 10713
  156.1037  130.3654  150.0172 LP  0  0  0  0  0  0  0  0  0  0  0  0  # atno 17371 bound_to 10713
  140.8063  134.3451  157.5425 LP  0  0  0  0  0  0  0  0  0  0  0  0  # atno 17394 bound_to 11000
  139.8764  134.9227  156.3308 LP  0  0  0  0  0  0  0  0  0  0  0  0  # atno 17395 bound_to 11000

$$$$
