AV-unprocessed.smi:2021|AV-procd|sdf|8186|dock8
  -GOLD-   2272010443D 1   1.00000     0.00000
 Structure written by MMmdl.
 40 41  0  0  0  0  0  0  0  0  2 V2000
  151.8030  144.7018  159.1650 C   0  0  0  0  0  0  0  0  0  0  0  0
  151.4428  143.2259  158.9236 C   0  0  0  0  0  0  0  0  0  0  0  0
  152.5086  142.3175  159.5562 C   0  0  0  0  0  0  0  0  0  0  0  0
  151.2722  142.9145  157.4182 C   0  0  0  0  0  0  0  0  0  0  0  0
  150.4520  141.7437  157.1047 N   0  0  0  0  0  0  0  0  0  0  0  0
  149.0683  141.9534  157.5159 C   0  0  0  0  0  0  0  0  0  0  0  0
  148.1832  140.7377  157.1975 C   0  0  0  0  0  0  0  0  0  0  0  0
  148.7284  139.5817  157.8231 O   0  0  0  0  0  0  0  0  0  0  0  0
  150.0621  139.2995  157.4049 C   0  0  2  0  0  0  0  0  0  0  0  0
  150.5470  138.0348  158.1275 C   0  0  0  0  0  0  0  0  0  0  0  0
  149.7713  137.8005  159.3386 N   0  0  0  0  0  0  0  0  0  0  0  0
  149.1278  136.6634  159.6329 C   0  0  0  0  0  0  0  0  0  0  0  0
  149.1709  135.7136  158.8474 O   0  0  0  0  0  0  0  0  0  0  0  0
  148.4756  136.6957  160.8175 N   0  5  0  0  0  0  0  0  0  0  0  0
  147.8375  135.6008  161.2631 C   0  0  0  0  0  0  0  0  0  0  0  0
  147.4791  134.5959  160.4476 N   0  0  0  0  0  0  0  0  0  0  0  0
  146.8270  133.5629  161.1074 N   0  0  0  0  0  0  0  0  0  0  0  0
  146.7021  133.8208  162.4089 C   0  0  0  0  0  0  0  0  0  0  0  0
  147.3660  135.3494  162.9462 S   0  0  0  0  0  0  0  0  0  0  0  0
  150.9509  140.5184  157.7247 C   0  0  0  0  0  0  0  0  0  0  0  0
  152.7615  144.9537  158.7102 H   0  0  0  0  0  0  0  0  0  0  0  0
  151.8769  144.9171  160.2313 H   0  0  0  0  0  0  0  0  0  0  0  0
  151.0560  145.3764  158.7489 H   0  0  0  0  0  0  0  0  0  0  0  0
  150.5043  143.0133  159.4375 H   0  0  0  0  0  0  0  0  0  0  0  0
  153.4830  142.4640  159.0895 H   0  0  0  0  0  0  0  0  0  0  0  0
  152.2413  141.2659  159.4495 H   0  0  0  0  0  0  0  0  0  0  0  0
  152.6161  142.5197  160.6221 H   0  0  0  0  0  0  0  0  0  0  0  0
  150.8887  143.7915  156.8945 H   0  0  0  0  0  0  0  0  0  0  0  0
  152.2640  142.7450  156.9965 H   0  0  0  0  0  0  0  0  0  0  0  0
  149.0275  142.1562  158.5872 H   0  0  0  0  0  0  0  0  0  0  0  0
  148.6621  142.8337  157.0166 H   0  0  0  0  0  0  0  0  0  0  0  0
  147.1702  140.8985  157.5664 H   0  0  0  0  0  0  0  0  0  0  0  0
  148.1125  140.5801  156.1202 H   0  0  0  0  0  0  0  0  0  0  0  0
  150.0700  139.1215  156.3277 H   0  0  0  0  0  0  0  0  0  0  0  0
  150.4426  137.1698  157.4707 H   0  0  0  0  0  0  0  0  0  0  0  0
  151.6052  138.1239  158.3784 H   0  0  0  0  0  0  0  0  0  0  0  0
  149.7192  138.5569  160.0052 H   0  0  0  0  0  0  0  0  0  0  0  0
  146.2126  133.1084  163.0559 H   0  0  0  0  0  0  0  0  0  0  0  0
  151.9604  140.3080  157.3733 H   0  0  0  0  0  0  0  0  0  0  0  0
  151.0143  140.6508  158.8059 H   0  0  0  0  0  0  0  0  0  0  0  0
  1  2  1  0  0  0  0
  1 21  1  0  0  0  0
  1 22  1  0  0  0  0
  1 23  1  0  0  0  0
  2  3  1  0  0  0  0
  2  4  1  0  0  0  0
  2 24  1  0  0  0  0
  3 25  1  0  0  0  0
  3 26  1  0  0  0  0
  3 27  1  0  0  0  0
  4  5  1  0  0  0  0
  4 28  1  0  0  0  0
  4 29  1  0  0  0  0
  5 20  1  0  0  0  0
  5  6  1  0  0  0  0
  6  7  1  0  0  0  0
  6 30  1  0  0  0  0
  6 31  1  0  0  0  0
  7  8  1  0  0  0  0
  7 32  1  0  0  0  0
  7 33  1  0  0  0  0
  8  9  1  0  0  0  0
  9 10  1  0  0  0  0
  9 20  1  0  0  0  0
  9 34  1  0  0  0  0
 10 11  1  0  0  0  0
 10 35  1  0  0  0  0
 10 36  1  0  0  0  0
 11 12  1  0  0  0  0
 11 37  1  0  0  0  0
 12 13  2  0  0  0  0
 12 14  1  0  0  0  0
 14 15  1  0  0  0  0
 15 19  1  0  0  0  0
 15 16  2  0  0  0  0
 16 17  1  0  0  0  0
 17 18  2  0  0  0  0
 18 19  1  0  0  0  0
 18 38  1  0  0  0  0
 20 39  1  0  0  0  0
 20 40  1  0  0  0  0
M  CHG  1  14  -1
M  END
> <s_m_source_file>
AV-unprocessed.smi

> <i_m_source_file_index>
2021

> <i_lp_mmshare_version>
43012

> <i_f3d_flags>
0

> <s_epik_input>
W0NIM11bQ0hdKFtDSDNdKVtDSDJdTjFbQ0gyXVtDSDJdT1tDQEhdKFtDSDJdMSlbQ0gyXVtOSF1DKD1PKVtOSF1jMm5uW2NIXXMy

> <s_epik_cmdline>
J2VwaWtfcHl0aG9uJywgJy1waCcsICc3LjAnLCAnLXRuJywgJzgnLCAnLW1hJywgJzIwMCcsICctbWV0YWxfYmluZGluZycsICctaW1hZScsICc8aW5maWxlLm1hZT4nLCAnLW9tYWUnLCAnPG91dGZpbGUubWFlPic=

> <r_lp_tautomer_probability>
1

> <r_epik_Ionization_Penalty>
4.44864

> <r_epik_Ionization_Penalty_Charging>
3.27383

> <r_epik_Ionization_Penalty_Neutral>
1.17482

> <r_epik_State_Penalty>
4.44168

> <r_epik_Charging_Adjusted_Penalty>
7.7155

> <i_epik_Tot_Q>
-1

> <i_epik_Tot_abs_Q>
1

> <r_epik_Metal_State_Penalty>
1.66628

> <b_epik_Metal_Only>
1

> <s_lp_Force_Field>
OPLS_2005

> <r_lp_Energy>
22.4741

> <b_lp_Chiralities_Consistent>
1

> <s_lp_Variant>
AV-unprocessed.smi:2021-12

> <Gold.Version>
5.8.1

> <Gold.Id.Protein>
6NUR|6NUR_protein|mol2

> <Gold.PLP.Fitness>
42.1895

> <Gold.PLP.PLP>
-34.8416

> <Gold.PLP.part.hbond>
-2.0000

> <Gold.PLP.part.metal>
0.0000

> <Gold.PLP.part.buried>
-7.0796

> <Gold.PLP.part.nonpolar>
-28.7528

> <Gold.PLP.part.repulsive>
1.5069

> <Gold.PLP.ligand.clash>
0.0000

> <Gold.PLP.ligand.torsion>
0.8555

> <Gold.PLP.Chemscore.Hbond>
3.0000

> <Gold.PLP.Chemscore.CHOScore>
0.0000

> <Gold.PLP.Chemscore.Metal>
0.0000

> <Gold.Chemscore.Hbonds>
donor molecule, donor type, donor heavy atom, donor atom, acceptor molecule, acceptor atom, score
      P1  H  6896  6909       L1    13  1.00
      P1  H  6931  6943       L1    14  2.00

> <Gold.PLP.Chemscore.Internal.Correction>
0.0589

> <Gold.Rescore>
     Score         DG    S(hbond)    S(metal)    S(lipo)     H(rot)  DE(clash)    DE(int)     intcor
     13.71     -16.34       1.84        0.00      79.85       1.81       0.07       2.56       ----

> <Gold.Chemscore.Fitness>
13.7101

> <Gold.Chemscore.DG>
-16.3389

> <Gold.Chemscore.ZeroCoef>
-5.4800

> <Gold.Chemscore.Hbond>
1.8381

> <Gold.Chemscore.Metal>
0.0000

> <Gold.Chemscore.Lipo>
79.8464

> <Gold.Chemscore.Internal_Hbond>
0.0000

> <Gold.Chemscore.DEClash>
0.0668

> <Gold.Chemscore.DEInternal>
2.5620

> <Gold.Chemscore.Rot>
1.8056

> <Gold.Chemscore.Internal.Correction>
   9.000000E+99

> <Gold.Chemscore.Hbonds>
donor molecule, donor type, donor heavy atom, donor atom, acceptor molecule, acceptor atom, score
      P1  H  6896  6909       L1    13  0.38
      P1  H  6931  6943       L1    14  0.74

> <Gold.Chemscore.Hbond.Weighted>
-6.1393

> <Gold.Chemscore.Metal.Weighted>
-0.0000

> <Gold.Chemscore.Lipo.Weighted>
-9.3420

> <Gold.Chemscore.Internal_Hbond.Weighted>
0.0000

> <Gold.Chemscore.DEClash.Weighted>
0.0668

> <Gold.Chemscore.DEInternal.Weighted>
2.5620

> <Gold.Chemscore.Rot.Weighted>
4.6224

> <Gold.Chemscore.Internal.Correction.Weighted>
   9.000000E+99

> <Gold.Protein.RotatedTorsions>
[ 6907 6896 6895 6894 ] final   49.94 input  -60.11 | X-H torsion
[ 7974 7965 7964 7962 ] final  -50.07 input  175.53 | X-H torsion
[ 8008 7997 7996 7995 ] final -127.07 input   59.86 | X-H torsion
[ 10167 10162 10161 10158 ] final   -2.03 input  -65.29 | X-H torsion
[ 10718 10713 10712 10709 ] final  -26.52 input   66.30 | X-H torsion
[ 10763 10752 10751 10750 ] final   99.08 input  -60.55 | X-H torsion
[ 11005 11000 10999 10996 ] final  162.12 input  -57.11 | X-H torsion

> <Gold.Protein.ActiveResidues>
 VAL166  LYS551  ARG553  GLY616  TRP617  ASP618  TYR619  PRO620  LYS621  CYS622 
 ASP623  PHE694  ASN695  SER759  ASP760  ASP761  ALA762  ILE779  LEU786  VAL792 
 PHE793  MET794  SER795  GLU796  ALA797  LYS798  CYS799  TRP800  GLU811  SER814 

> <Gold.Protein.RotatedAtoms>
  152.2964  134.7663  160.0366 H   0  0  0  0  0  0  0  0  0  0  0  0  # atno 6907 bound_to 6896
  151.8191  133.3387  159.3587 H   0  0  0  0  0  0  0  0  0  0  0  0  # atno 6908 bound_to 6896
  150.7253  134.5520  159.5844 H   0  0  0  0  0  0  0  0  0  0  0  0  # atno 6909 bound_to 6896
  145.9338  140.7725  142.9586 H   0  0  0  0  0  0  0  0  0  0  0  0  # atno 7974 bound_to 7965
  155.2402  140.0428  157.2974 H   0  0  0  0  0  0  0  0  0  0  0  0  # atno 8008 bound_to 7997
  154.5833  140.2406  155.7993 H   0  0  0  0  0  0  0  0  0  0  0  0  # atno 8009 bound_to 7997
  156.2208  140.2970  155.9957 H   0  0  0  0  0  0  0  0  0  0  0  0  # atno 8010 bound_to 7997
  140.6834  143.6705  150.8189 H   0  0  0  0  0  0  0  0  0  0  0  0  # atno 10167 bound_to 10162
  156.4502  130.4482  149.6995 H   0  0  0  0  0  0  0  0  0  0  0  0  # atno 10718 bound_to 10713
  153.2970  135.4126  155.1219 H   0  0  0  0  0  0  0  0  0  0  0  0  # atno 10763 bound_to 10752
  154.8538  135.3532  154.5903 H   0  0  0  0  0  0  0  0  0  0  0  0  # atno 10764 bound_to 10752
  153.6327  135.7060  153.5328 H   0  0  0  0  0  0  0  0  0  0  0  0  # atno 10765 bound_to 10752
  140.2226  134.8185  157.3236 H   0  0  0  0  0  0  0  0  0  0  0  0  # atno 11005 bound_to 11000
  144.6768  140.2170  143.7370 LP  0  0  0  0  0  0  0  0  0  0  0  0  # atno 17320 bound_to 7965
  145.8391  139.2121  143.1838 LP  0  0  0  0  0  0  0  0  0  0  0  0  # atno 17321 bound_to 7965
  140.0409  143.5347  152.2718 LP  0  0  0  0  0  0  0  0  0  0  0  0  # atno 17342 bound_to 10162
  139.6174  144.7622  151.2816 LP  0  0  0  0  0  0  0  0  0  0  0  0  # atno 17343 bound_to 10162
  156.3824  130.7586  151.2580 LP  0  0  0  0  0  0  0  0  0  0  0  0  # atno 17370 bound_to 10713
  157.7503  131.0291  150.4080 LP  0  0  0  0  0  0  0  0  0  0  0  0  # atno 17371 bound_to 10713
  140.1834  134.4461  155.7758 LP  0  0  0  0  0  0  0  0  0  0  0  0  # atno 17394 bound_to 11000
  141.2222  133.6994  156.7906 LP  0  0  0  0  0  0  0  0  0  0  0  0  # atno 17395 bound_to 11000

$$$$
