AV-unprocessed.smi:672|AV-procd|sdf|3296|dock3
  -GOLD-   22720 0253D 1   1.00000     0.00000
 Structure written by MMmdl.
 35 36  0  0  0  0  0  0  0  0  2 V2000
  144.1399  144.6430  155.5159 C   0  0  0  0  0  0  0  0  0  0  0  0
  144.2909  143.2381  154.9226 C   0  0  0  0  0  0  0  0  0  0  0  0
  145.6617  142.6804  155.1128 C   0  0  0  0  0  0  0  0  0  0  0  0
  146.2004  142.4759  156.3178 N   0  0  0  0  0  0  0  0  0  0  0  0
  147.4930  141.9792  156.2354 N   0  0  0  0  0  0  0  0  0  0  0  0
  147.9222  141.8389  154.9730 C   0  0  0  0  0  0  0  0  0  0  0  0
  149.1469  141.3753  154.6746 N   0  5  0  0  0  0  0  0  0  0  0  0
  150.0918  141.2980  155.6390 C   0  0  0  0  0  0  0  0  0  0  0  0
  150.6327  140.2694  156.0517 O   0  0  0  0  0  0  0  0  0  0  0  0
  150.4252  142.4855  156.1646 N   0  0  0  0  0  0  0  0  0  0  0  0
  151.4040  142.7095  157.2267 C   0  0  1  0  0  0  0  0  0  0  0  0
  152.0929  144.0775  157.0542 C   0  0  0  0  0  0  0  0  0  0  0  0
  151.9724  144.7903  158.4035 C   0  0  0  0  0  0  0  0  0  0  0  0
  150.7011  144.2169  159.0241 C   0  0  2  0  0  0  0  0  0  0  0  0
  150.6287  144.4622  160.8219 S   0  0  0  0  0  0  0  0  0  0  0  0
  152.1412  143.5980  161.3233 C   0  0  0  0  0  0  0  0  0  0  0  0
  150.7357  142.7426  158.6156 C   0  0  0  0  0  0  0  0  0  0  0  0
  146.7225  142.3010  153.7664 S   0  0  0  0  0  0  0  0  0  0  0  0
  143.1311  145.0249  155.3589 H   0  0  0  0  0  0  0  0  0  0  0  0
  144.8370  145.3414  155.0520 H   0  0  0  0  0  0  0  0  0  0  0  0
  144.3331  144.6402  156.5890 H   0  0  0  0  0  0  0  0  0  0  0  0
  143.5679  142.5612  155.3790 H   0  0  0  0  0  0  0  0  0  0  0  0
  144.0678  143.2601  153.8556 H   0  0  0  0  0  0  0  0  0  0  0  0
  149.9578  143.3008  155.7960 H   0  0  0  0  0  0  0  0  0  0  0  0
  152.1532  141.9160  157.1984 H   0  0  0  0  0  0  0  0  0  0  0  0
  153.1329  143.9760  156.7427 H   0  0  0  0  0  0  0  0  0  0  0  0
  151.5874  144.6714  156.2908 H   0  0  0  0  0  0  0  0  0  0  0  0
  152.8349  144.5415  159.0238 H   0  0  0  0  0  0  0  0  0  0  0  0
  151.9377  145.8754  158.3017 H   0  0  0  0  0  0  0  0  0  0  0  0
  149.8363  144.6988  158.5653 H   0  0  0  0  0  0  0  0  0  0  0  0
  152.2401  143.6154  162.4087 H   0  0  0  0  0  0  0  0  0  0  0  0
  153.0196  144.0771  160.8912 H   0  0  0  0  0  0  0  0  0  0  0  0
  152.1135  142.5588  160.9953 H   0  0  0  0  0  0  0  0  0  0  0  0
  149.7440  142.2887  158.6308 H   0  0  0  0  0  0  0  0  0  0  0  0
  151.3538  142.1816  159.3179 H   0  0  0  0  0  0  0  0  0  0  0  0
  1  2  1  0  0  0  0
  1 19  1  0  0  0  0
  1 20  1  0  0  0  0
  1 21  1  0  0  0  0
  2  3  1  0  0  0  0
  2 22  1  0  0  0  0
  2 23  1  0  0  0  0
  3 18  1  0  0  0  0
  3  4  2  0  0  0  0
  4  5  1  0  0  0  0
  5  6  2  0  0  0  0
  6  7  1  0  0  0  0
  6 18  1  0  0  0  0
  7  8  1  0  0  0  0
  8  9  2  0  0  0  0
  8 10  1  0  0  0  0
 10 11  1  0  0  0  0
 10 24  1  0  0  0  0
 11 17  1  0  0  0  0
 11 12  1  0  0  0  0
 11 25  1  0  0  0  0
 12 13  1  0  0  0  0
 12 26  1  0  0  0  0
 12 27  1  0  0  0  0
 13 14  1  0  0  0  0
 13 28  1  0  0  0  0
 13 29  1  0  0  0  0
 14 15  1  0  0  0  0
 14 17  1  0  0  0  0
 14 30  1  0  0  0  0
 15 16  1  0  0  0  0
 16 31  1  0  0  0  0
 16 32  1  0  0  0  0
 16 33  1  0  0  0  0
 17 34  1  0  0  0  0
 17 35  1  0  0  0  0
M  CHG  1   7  -1
M  END
> <s_m_source_file>
AV-unprocessed.smi

> <i_m_source_file_index>
672

> <i_lp_mmshare_version>
43012

> <i_f3d_flags>
0

> <s_epik_input>
W0NIM11bQ0gyXWMxbm5jKHMxKVtOSF1DKD1PKVtOSF1bQ0BASF0yW0NIMl1bQ0gyXVtDQEhdKFtDSDJdMilTW0NIM10=

> <s_epik_cmdline>
J2VwaWtfcHl0aG9uJywgJy1waCcsICc3LjAnLCAnLXRuJywgJzgnLCAnLW1hJywgJzIwMCcsICctbWV0YWxfYmluZGluZycsICctaW1hZScsICc8aW5maWxlLm1hZT4nLCAnLW9tYWUnLCAnPG91dGZpbGUubWFlPic=

> <r_lp_tautomer_probability>
1

> <r_epik_Ionization_Penalty>
4.49964

> <r_epik_Ionization_Penalty_Charging>
4.32991

> <r_epik_Ionization_Penalty_Neutral>
0.169727

> <r_epik_State_Penalty>
4.32952

> <r_epik_Charging_Adjusted_Penalty>
8.65943

> <i_epik_Tot_Q>
-1

> <i_epik_Tot_abs_Q>
1

> <r_epik_Metal_State_Penalty>
0.740482

> <b_epik_Metal_Only>
1

> <s_lp_Force_Field>
OPLS_2005

> <r_lp_Energy>
9.75318

> <b_lp_Chiralities_Consistent>
1

> <s_lp_Variant>
AV-unprocessed.smi:672-8

> <Gold.Version>
5.8.1

> <Gold.Id.Protein>
6NUR|6NUR_protein|mol2

> <Gold.PLP.Fitness>
34.7773

> <Gold.PLP.PLP>
-33.7105

> <Gold.PLP.part.hbond>
-1.0000

> <Gold.PLP.part.metal>
0.0000

> <Gold.PLP.part.buried>
-6.1601

> <Gold.PLP.part.nonpolar>
-27.2569

> <Gold.PLP.part.repulsive>
0.6280

> <Gold.PLP.ligand.clash>
0.0000

> <Gold.PLP.ligand.torsion>
1.0072

> <Gold.PLP.Chemscore.Hbond>
1.0000

> <Gold.PLP.Chemscore.CHOScore>
0.0000

> <Gold.PLP.Chemscore.Metal>
0.0000

> <Gold.Chemscore.Hbonds>
donor molecule, donor type, donor heavy atom, donor atom, acceptor molecule, acceptor atom, score
      L1  H    10    24       P1  8028  1.00

> <Gold.PLP.Chemscore.Internal.Correction>
0.0812

> <Gold.Rescore>
     Score         DG    S(hbond)    S(metal)    S(lipo)     H(rot)  DE(clash)    DE(int)     intcor
     15.01     -16.51       1.00        0.00      95.11       1.34       0.40       1.11       ----

> <Gold.Chemscore.Fitness>
15.0084

> <Gold.Chemscore.DG>
-16.5119

> <Gold.Chemscore.ZeroCoef>
-5.4800

> <Gold.Chemscore.Hbond>
0.9991

> <Gold.Chemscore.Metal>
0.0000

> <Gold.Chemscore.Lipo>
95.1101

> <Gold.Chemscore.Internal_Hbond>
0.0000

> <Gold.Chemscore.DEClash>
0.3975

> <Gold.Chemscore.DEInternal>
1.1061

> <Gold.Chemscore.Rot>
1.3410

> <Gold.Chemscore.Internal.Correction>
   9.000000E+99

> <Gold.Chemscore.Hbonds>
donor molecule, donor type, donor heavy atom, donor atom, acceptor molecule, acceptor atom, score
      L1  H    10    24       P1  8028  1.00

> <Gold.Chemscore.Hbond.Weighted>
-3.3369

> <Gold.Chemscore.Metal.Weighted>
-0.0000

> <Gold.Chemscore.Lipo.Weighted>
-11.1279

> <Gold.Chemscore.Internal_Hbond.Weighted>
0.0000

> <Gold.Chemscore.DEClash.Weighted>
0.3975

> <Gold.Chemscore.DEInternal.Weighted>
1.1061

> <Gold.Chemscore.Rot.Weighted>
3.4329

> <Gold.Chemscore.Internal.Correction.Weighted>
   9.000000E+99

> <Gold.Protein.RotatedTorsions>
[ 6907 6896 6895 6894 ] final   30.50 input  -60.11 | X-H torsion
[ 7974 7965 7964 7962 ] final   -6.50 input  175.53 | X-H torsion
[ 8008 7997 7996 7995 ] final   69.62 input   59.86 | X-H torsion
[ 10167 10162 10161 10158 ] final  -19.90 input  -65.29 | X-H torsion
[ 10718 10713 10712 10709 ] final   -9.77 input   66.30 | X-H torsion
[ 10763 10752 10751 10750 ] final -143.64 input  -60.55 | X-H torsion
[ 11005 11000 10999 10996 ] final -175.90 input  -57.11 | X-H torsion

> <Gold.Protein.ActiveResidues>
 VAL166  LYS551  ARG553  GLY616  TRP617  ASP618  TYR619  PRO620  LYS621  CYS622 
 ASP623  PHE694  ASN695  SER759  ASP760  ASP761  ALA762  ILE779  LEU786  VAL792 
 PHE793  MET794  SER795  GLU796  ALA797  LYS798  CYS799  TRP800  GLU811  SER814 

> <Gold.Protein.RotatedAtoms>
  152.0468  134.9678  160.0574 H   0  0  0  0  0  0  0  0  0  0  0  0  # atno 6907 bound_to 6896
  152.1094  133.4288  159.4632 H   0  0  0  0  0  0  0  0  0  0  0  0  # atno 6908 bound_to 6896
  150.6843  134.2585  159.4583 H   0  0  0  0  0  0  0  0  0  0  0  0  # atno 6909 bound_to 6896
  146.2329  140.2179  142.8337 H   0  0  0  0  0  0  0  0  0  0  0  0  # atno 7974 bound_to 7965
  155.7263  140.3492  155.5039 H   0  0  0  0  0  0  0  0  0  0  0  0  # atno 8008 bound_to 7997
  155.9223  140.1069  157.1219 H   0  0  0  0  0  0  0  0  0  0  0  0  # atno 8009 bound_to 7997
  154.4072  140.1247  156.4682 H   0  0  0  0  0  0  0  0  0  0  0  0  # atno 8010 bound_to 7997
  140.7272  143.4774  151.0164 H   0  0  0  0  0  0  0  0  0  0  0  0  # atno 10167 bound_to 10162
  156.6833  130.5043  149.5965 H   0  0  0  0  0  0  0  0  0  0  0  0  # atno 10718 bound_to 10713
  154.8461  135.3462  154.6220 H   0  0  0  0  0  0  0  0  0  0  0  0  # atno 10763 bound_to 10752
  153.6829  135.6979  153.5117 H   0  0  0  0  0  0  0  0  0  0  0  0  # atno 10764 bound_to 10752
  153.2654  135.4309  155.0892 H   0  0  0  0  0  0  0  0  0  0  0  0  # atno 10765 bound_to 10752
  140.4581  134.6280  157.4830 H   0  0  0  0  0  0  0  0  0  0  0  0  # atno 11005 bound_to 11000
  144.9655  140.8317  143.5487 LP  0  0  0  0  0  0  0  0  0  0  0  0  # atno 17320 bound_to 7965
  145.2154  139.2184  143.5121 LP  0  0  0  0  0  0  0  0  0  0  0  0  # atno 17321 bound_to 7965
  139.8470  143.7488  152.3179 LP  0  0  0  0  0  0  0  0  0  0  0  0  # atno 17342 bound_to 10162
  139.7657  144.7492  151.0298 LP  0  0  0  0  0  0  0  0  0  0  0  0  # atno 17343 bound_to 10162
  156.1852  130.6524  151.0997 LP  0  0  0  0  0  0  0  0  0  0  0  0  # atno 17370 bound_to 10713
  157.7036  131.0766  150.6741 LP  0  0  0  0  0  0  0  0  0  0  0  0  # atno 17371 bound_to 10713
  139.9963  134.6906  155.9604 LP  0  0  0  0  0  0  0  0  0  0  0  0  # atno 17394 bound_to 11000
  141.1634  133.6538  156.4395 LP  0  0  0  0  0  0  0  0  0  0  0  0  # atno 17395 bound_to 11000

$$$$
