AV-unprocessed.smi:2267|AV-procd|sdf|9148|dock5
  -GOLD-   2272012353D 1   1.00000     0.00000
 Structure written by MMmdl.
 41 42  0  0  0  0  0  0  0  0  1 V2000
  151.6146  145.4673  159.6607 C   0  0  0  0  0  0  0  0  0  0  0  0
  151.9589  144.0026  159.4854 C   0  0  0  0  0  0  0  0  0  0  0  0
  152.7336  143.3332  160.4537 C   0  0  0  0  0  0  0  0  0  0  0  0
  153.0474  141.9724  160.2837 C   0  0  0  0  0  0  0  0  0  0  0  0
  152.5879  141.2802  159.1473 C   0  0  0  0  0  0  0  0  0  0  0  0
  151.8114  141.9340  158.1687 C   0  0  0  0  0  0  0  0  0  0  0  0
  151.4046  141.1805  157.0883 O   0  0  0  0  0  0  0  0  0  0  0  0
  150.5204  141.7735  156.1463 C   0  0  0  0  0  0  0  0  0  0  0  0
  149.7932  140.6581  155.3758 C   0  0  2  0  0  0  0  0  0  0  0  0
  150.7774  139.9324  154.6651 O   0  0  0  0  0  0  0  0  0  0  0  0
  148.7893  141.2276  154.3476 C   0  0  0  0  0  0  0  0  0  0  0  0
  147.3939  141.0937  154.8001 N   0  0  0  0  0  0  0  0  0  0  0  0
  146.6284  142.2713  154.8144 C   0  0  0  0  0  0  0  0  0  0  0  0
  145.3927  142.2740  155.1942 N   0  0  0  0  0  0  0  0  0  0  0  0
  144.7855  141.0822  155.6002 C   0  0  0  0  0  0  0  0  0  0  0  0
  143.3323  141.1980  156.0252 C   0  0  0  0  0  0  0  0  0  0  0  0
  145.4696  139.9055  155.6030 C   0  0  0  0  0  0  0  0  0  0  0  0
  144.8597  138.5766  156.0315 C   0  0  0  0  0  0  0  0  0  0  0  0
  146.8768  139.8868  155.1715 C   0  0  0  0  0  0  0  0  0  0  0  0
  147.5534  138.8570  155.1417 O   0  0  0  0  0  0  0  0  0  0  0  0
  151.4989  143.3056  158.3489 C   0  0  0  0  0  0  0  0  0  0  0  0
  152.2069  145.9218  160.4555 H   0  0  0  0  0  0  0  0  0  0  0  0
  150.5600  145.5780  159.9131 H   0  0  0  0  0  0  0  0  0  0  0  0
  151.8074  146.0168  158.7389 H   0  0  0  0  0  0  0  0  0  0  0  0
  153.0890  143.8589  161.3279 H   0  0  0  0  0  0  0  0  0  0  0  0
  153.6410  141.4584  161.0251 H   0  0  0  0  0  0  0  0  0  0  0  0
  152.8340  140.2354  159.0249 H   0  0  0  0  0  0  0  0  0  0  0  0
  149.7918  142.3703  156.6976 H   0  0  0  0  0  0  0  0  0  0  0  0
  151.0466  142.4397  155.4602 H   0  0  0  0  0  0  0  0  0  0  0  0
  149.2844  140.0013  156.0827 H   0  0  0  0  0  0  0  0  0  0  0  0
  150.3441  139.3141  154.0970 H   0  0  0  0  0  0  0  0  0  0  0  0
  148.9917  142.2883  154.1878 H   0  0  0  0  0  0  0  0  0  0  0  0
  148.9490  140.7776  153.3654 H   0  0  0  0  0  0  0  0  0  0  0  0
  147.1465  143.1726  154.4821 H   0  0  0  0  0  0  0  0  0  0  0  0
  143.2081  140.8731  157.0587 H   0  0  0  0  0  0  0  0  0  0  0  0
  142.6978  140.5830  155.3863 H   0  0  0  0  0  0  0  0  0  0  0  0
  142.9790  142.2276  155.9545 H   0  0  0  0  0  0  0  0  0  0  0  0
  144.8941  137.8646  155.2064 H   0  0  0  0  0  0  0  0  0  0  0  0
  143.8213  138.6621  156.3473 H   0  0  0  0  0  0  0  0  0  0  0  0
  145.4222  138.1563  156.8657 H   0  0  0  0  0  0  0  0  0  0  0  0
  150.9056  143.8458  157.6269 H   0  0  0  0  0  0  0  0  0  0  0  0
  1  2  1  0  0  0  0
  1 22  1  0  0  0  0
  1 23  1  0  0  0  0
  1 24  1  0  0  0  0
  2 21  1  0  0  0  0
  2  3  2  0  0  0  0
  3  4  1  0  0  0  0
  3 25  1  0  0  0  0
  4  5  2  0  0  0  0
  4 26  1  0  0  0  0
  5  6  1  0  0  0  0
  5 27  1  0  0  0  0
  6  7  1  0  0  0  0
  6 21  2  0  0  0  0
  7  8  1  0  0  0  0
  8  9  1  0  0  0  0
  8 28  1  0  0  0  0
  8 29  1  0  0  0  0
  9 10  1  0  0  0  0
  9 11  1  0  0  0  0
  9 30  1  0  0  0  0
 10 31  1  0  0  0  0
 11 12  1  0  0  0  0
 11 32  1  0  0  0  0
 11 33  1  0  0  0  0
 12 19  1  0  0  0  0
 12 13  1  0  0  0  0
 13 14  2  0  0  0  0
 13 34  1  0  0  0  0
 14 15  1  0  0  0  0
 15 16  1  0  0  0  0
 15 17  2  0  0  0  0
 16 35  1  0  0  0  0
 16 36  1  0  0  0  0
 16 37  1  0  0  0  0
 17 18  1  0  0  0  0
 17 19  1  0  0  0  0
 18 38  1  0  0  0  0
 18 39  1  0  0  0  0
 18 40  1  0  0  0  0
 19 20  2  0  0  0  0
 21 41  1  0  0  0  0
M  END
> <s_m_source_file>
AV-unprocessed.smi

> <i_m_source_file_index>
2267

> <i_lp_mmshare_version>
43012

> <i_f3d_flags>
0

> <s_epik_input>
W0NIM11jMVtjSF1bY0hdW2NIXWMoW2NIXTEpT1tDSDJdW0NASF0oW09IXSlbQ0gyXW4yW2NIXW5jKFtDSDNdKWMoW0NIM10pYzI9Tw==

> <s_epik_cmdline>
J2VwaWtfcHl0aG9uJywgJy1waCcsICc3LjAnLCAnLXRuJywgJzgnLCAnLW1hJywgJzIwMCcsICctbWV0YWxfYmluZGluZycsICctaW1hZScsICc8aW5maWxlLm1hZT4nLCAnLW9tYWUnLCAnPG91dGZpbGUubWFlPic=

> <r_lp_tautomer_probability>
1

> <r_epik_Ionization_Penalty>
3.72236e-05

> <r_epik_Ionization_Penalty_Charging>
8.38864e-08

> <r_epik_Ionization_Penalty_Neutral>
3.71397e-05

> <r_epik_State_Penalty>
-0

> <r_epik_Charging_Adjusted_Penalty>
8.38864e-08

> <i_epik_Tot_Q>
0

> <i_epik_Tot_abs_Q>
0

> <r_epik_Metal_State_Penalty>
-0

> <b_epik_Metal_Only>
0

> <s_lp_Force_Field>
OPLS_2005

> <r_lp_Energy>
23.9214

> <b_lp_Chiralities_Consistent>
1

> <s_lp_Variant>
AV-unprocessed.smi:2267-1

> <Gold.Version>
5.8.1

> <Gold.Id.Protein>
6NUR|6NUR_protein|mol2

> <Gold.PLP.Fitness>
44.8581

> <Gold.PLP.PLP>
-40.7384

> <Gold.PLP.part.hbond>
-1.0000

> <Gold.PLP.part.metal>
0.0000

> <Gold.PLP.part.buried>
-3.3569

> <Gold.PLP.part.nonpolar>
-36.4896

> <Gold.PLP.part.repulsive>
0.2641

> <Gold.PLP.ligand.clash>
0.0000

> <Gold.PLP.ligand.torsion>
0.7935

> <Gold.PLP.Chemscore.Hbond>
1.0000

> <Gold.PLP.Chemscore.CHOScore>
0.8883

> <Gold.PLP.Chemscore.Metal>
0.0000

> <Gold.Chemscore.Hbonds>
donor molecule, donor type, donor heavy atom, donor atom, acceptor molecule, acceptor atom, score
      P1  H  7989  7998       L1    10  1.00
      L1  C    13    34       P1  8028  0.87

> <Gold.PLP.Chemscore.Internal.Correction>
0.0419

> <Gold.Rescore>
     Score         DG    S(hbond)    S(metal)    S(lipo)     H(rot)  DE(clash)    DE(int)     intcor
     12.20     -14.27       0.79        0.00     103.97       2.35       0.01       2.06       ----

> <Gold.Chemscore.Fitness>
12.1968

> <Gold.Chemscore.DG>
-14.2718

> <Gold.Chemscore.ZeroCoef>
-5.4800

> <Gold.Chemscore.Hbond>
0.7906

> <Gold.Chemscore.Metal>
0.0000

> <Gold.Chemscore.Lipo>
103.9719

> <Gold.Chemscore.Internal_Hbond>
0.0000

> <Gold.Chemscore.DEClash>
0.0135

> <Gold.Chemscore.DEInternal>
2.0615

> <Gold.Chemscore.Rot>
2.3490

> <Gold.Chemscore.Internal.Correction>
   9.000000E+99

> <Gold.Chemscore.Hbonds>
donor molecule, donor type, donor heavy atom, donor atom, acceptor molecule, acceptor atom, score
      P1  H  7989  7998       L1    10  0.23

> <Gold.Chemscore.Hbond.Weighted>
-2.6406

> <Gold.Chemscore.Metal.Weighted>
-0.0000

> <Gold.Chemscore.Lipo.Weighted>
-12.1647

> <Gold.Chemscore.Internal_Hbond.Weighted>
0.0000

> <Gold.Chemscore.DEClash.Weighted>
0.0135

> <Gold.Chemscore.DEInternal.Weighted>
2.0615

> <Gold.Chemscore.Rot.Weighted>
6.0136

> <Gold.Chemscore.Internal.Correction.Weighted>
   9.000000E+99

> <Gold.Protein.RotatedTorsions>
[ 6907 6896 6895 6894 ] final -111.90 input  -60.11 | X-H torsion
[ 7974 7965 7964 7962 ] final  -64.93 input  175.53 | X-H torsion
[ 8008 7997 7996 7995 ] final -175.25 input   59.86 | X-H torsion
[ 10167 10162 10161 10158 ] final  -18.10 input  -65.29 | X-H torsion
[ 10718 10713 10712 10709 ] final   63.50 input   66.30 | X-H torsion
[ 10763 10752 10751 10750 ] final -171.48 input  -60.55 | X-H torsion
[ 11005 11000 10999 10996 ] final   87.08 input  -57.11 | X-H torsion

> <Gold.Protein.ActiveResidues>
 VAL166  LYS551  ARG553  GLY616  TRP617  ASP618  TYR619  PRO620  LYS621  CYS622 
 ASP623  PHE694  ASN695  SER759  ASP760  ASP761  ALA762  ILE779  LEU786  VAL792 
 PHE793  MET794  SER795  GLU796  ALA797  LYS798  CYS799  TRP800  GLU811  SER814 

> <Gold.Protein.RotatedAtoms>
  150.7722  133.9167  159.3385 H   0  0  0  0  0  0  0  0  0  0  0  0  # atno 6907 bound_to 6896
  151.7051  135.0921  160.0267 H   0  0  0  0  0  0  0  0  0  0  0  0  # atno 6908 bound_to 6896
  152.3744  133.6423  159.6147 H   0  0  0  0  0  0  0  0  0  0  0  0  # atno 6909 bound_to 6896
  145.7606  140.8863  143.0432 H   0  0  0  0  0  0  0  0  0  0  0  0  # atno 7974 bound_to 7965
  155.9802  140.1180  157.0733 H   0  0  0  0  0  0  0  0  0  0  0  0  # atno 8008 bound_to 7997
  154.4181  140.1146  156.5493 H   0  0  0  0  0  0  0  0  0  0  0  0  # atno 8009 bound_to 7997
  155.6480  140.3473  155.4740 H   0  0  0  0  0  0  0  0  0  0  0  0  # atno 8010 bound_to 7997
  140.7255  143.4950  150.9943 H   0  0  0  0  0  0  0  0  0  0  0  0  # atno 10167 bound_to 10162
  157.5975  130.9108  149.9724 H   0  0  0  0  0  0  0  0  0  0  0  0  # atno 10718 bound_to 10713
  154.6300  135.2885  155.0228 H   0  0  0  0  0  0  0  0  0  0  0  0  # atno 10763 bound_to 10752
  154.1392  135.6521  153.4942 H   0  0  0  0  0  0  0  0  0  0  0  0  # atno 10764 bound_to 10752
  153.0275  135.5329  154.7123 H   0  0  0  0  0  0  0  0  0  0  0  0  # atno 10765 bound_to 10752
  139.8928  134.8398  156.2810 H   0  0  0  0  0  0  0  0  0  0  0  0  # atno 11005 bound_to 11000
  144.6831  139.9717  143.7482 LP  0  0  0  0  0  0  0  0  0  0  0  0  # atno 17320 bound_to 7965
  146.0268  139.3299  143.0779 LP  0  0  0  0  0  0  0  0  0  0  0  0  # atno 17321 bound_to 7965
  139.8656  143.7258  152.3170 LP  0  0  0  0  0  0  0  0  0  0  0  0  # atno 17342 bound_to 10162
  139.7489  144.7540  151.0537 LP  0  0  0  0  0  0  0  0  0  0  0  0  # atno 17343 bound_to 10162
  156.1041  130.3654  150.0165 LP  0  0  0  0  0  0  0  0  0  0  0  0  # atno 17370 bound_to 10713
  156.8275  130.9380  151.3638 LP  0  0  0  0  0  0  0  0  0  0  0  0  # atno 17371 bound_to 10713
  141.0039  133.7135  156.1003 LP  0  0  0  0  0  0  0  0  0  0  0  0  # atno 17394 bound_to 11000
  140.7461  134.4097  157.5548 LP  0  0  0  0  0  0  0  0  0  0  0  0  # atno 17395 bound_to 11000

$$$$
