AV-unprocessed.smi:2679|AV-procd|sdf|10370|dock6
  -GOLD-   2272014393D 1   1.00000     0.00000
 Structure written by MMmdl.
 39 40  0  0  0  0  0  0  0  0  1 V2000
  150.1857  135.0741  155.6454 C   0  0  0  0  0  0  0  0  0  0  0  0
  151.1503  136.1700  155.9661 C   0  0  0  0  0  0  0  0  0  0  0  0
  152.4115  135.9533  156.3461 N   0  0  0  0  0  0  0  0  0  0  0  0
  152.9528  137.2040  156.5461 N   0  0  0  0  0  0  0  0  0  0  0  0
  151.9718  138.0660  156.2693 C   0  0  0  0  0  0  0  0  0  0  0  0
  152.1536  139.8137  156.3770 S   0  0  0  0  0  0  0  0  0  0  0  0
  152.2516  139.9409  158.1873 C   0  0  2  0  0  0  0  0  0  0  0  0
  151.0093  139.3909  158.7557 C   0  0  0  0  0  0  0  0  0  0  0  0
  150.0329  138.9590  159.2021 N   0  0  0  0  0  0  0  0  0  0  0  0
  152.5375  141.3901  158.6425 C   0  0  0  0  0  0  0  0  0  0  0  0
  152.5900  141.5032  160.1840 C   0  0  0  0  0  0  0  0  0  0  0  0
  152.8708  142.9416  160.6472 C   0  0  0  0  0  0  0  0  0  0  0  0
  151.8366  143.9224  160.0776 C   0  0  0  0  0  0  0  0  0  0  0  0
  151.7796  143.8297  158.5466 C   0  0  0  0  0  0  0  0  0  0  0  0
  151.5004  142.3907  158.0830 C   0  0  0  0  0  0  0  0  0  0  0  0
  150.8182  137.4758  155.8951 N   0  0  0  0  0  0  0  0  0  0  0  0
  149.5505  138.0884  155.5194 C   0  0  0  0  0  0  0  0  0  0  0  0
  149.7162  139.0009  154.3025 C   0  0  0  0  0  0  0  0  0  0  0  0
  149.3090  138.5249  153.1231 N   0  0  0  0  0  0  0  0  0  0  0  0
  150.2094  140.1200  154.4247 O   0  0  0  0  0  0  0  0  0  0  0  0
  150.6451  134.0999  155.8162 H   0  0  0  0  0  0  0  0  0  0  0  0
  149.8812  135.1336  154.6004 H   0  0  0  0  0  0  0  0  0  0  0  0
  149.3007  135.1524  156.2768 H   0  0  0  0  0  0  0  0  0  0  0  0
  153.0616  139.2987  158.5349 H   0  0  0  0  0  0  0  0  0  0  0  0
  153.5133  141.6763  158.2470 H   0  0  0  0  0  0  0  0  0  0  0  0
  151.6440  141.1633  160.6079 H   0  0  0  0  0  0  0  0  0  0  0  0
  153.3592  140.8481  160.5923 H   0  0  0  0  0  0  0  0  0  0  0  0
  152.8659  142.9885  161.7366 H   0  0  0  0  0  0  0  0  0  0  0  0
  153.8711  143.2387  160.3295 H   0  0  0  0  0  0  0  0  0  0  0  0
  150.8529  143.7021  160.4947 H   0  0  0  0  0  0  0  0  0  0  0  0
  152.0814  144.9409  160.3807 H   0  0  0  0  0  0  0  0  0  0  0  0
  151.0094  144.4993  158.1628 H   0  0  0  0  0  0  0  0  0  0  0  0
  152.7250  144.1723  158.1240 H   0  0  0  0  0  0  0  0  0  0  0  0
  151.4988  142.3710  156.9932 H   0  0  0  0  0  0  0  0  0  0  0  0
  150.4990  142.0937  158.3974 H   0  0  0  0  0  0  0  0  0  0  0  0
  148.8177  137.3046  155.3225 H   0  0  0  0  0  0  0  0  0  0  0  0
  149.1635  138.6688  156.3570 H   0  0  0  0  0  0  0  0  0  0  0  0
  149.3936  139.0911  152.2915 H   0  0  0  0  0  0  0  0  0  0  0  0
  148.9124  137.5978  153.0679 H   0  0  0  0  0  0  0  0  0  0  0  0
  1  2  1  0  0  0  0
  1 21  1  0  0  0  0
  1 22  1  0  0  0  0
  1 23  1  0  0  0  0
  2 16  1  0  0  0  0
  2  3  2  0  0  0  0
  3  4  1  0  0  0  0
  4  5  2  0  0  0  0
  5  6  1  0  0  0  0
  5 16  1  0  0  0  0
  6  7  1  0  0  0  0
  7  8  1  0  0  0  0
  7 10  1  0  0  0  0
  7 24  1  0  0  0  0
  8  9  3  0  0  0  0
 10 15  1  0  0  0  0
 10 11  1  0  0  0  0
 10 25  1  0  0  0  0
 11 12  1  0  0  0  0
 11 26  1  0  0  0  0
 11 27  1  0  0  0  0
 12 13  1  0  0  0  0
 12 28  1  0  0  0  0
 12 29  1  0  0  0  0
 13 14  1  0  0  0  0
 13 30  1  0  0  0  0
 13 31  1  0  0  0  0
 14 15  1  0  0  0  0
 14 32  1  0  0  0  0
 14 33  1  0  0  0  0
 15 34  1  0  0  0  0
 15 35  1  0  0  0  0
 16 17  1  0  0  0  0
 17 18  1  0  0  0  0
 17 36  1  0  0  0  0
 17 37  1  0  0  0  0
 18 19  1  0  0  0  0
 18 20  2  0  0  0  0
 19 38  1  0  0  0  0
 19 39  1  0  0  0  0
M  END
> <s_m_source_file>
AV-unprocessed.smi

> <i_m_source_file_index>
2679

> <i_lp_mmshare_version>
43012

> <i_f3d_flags>
0

> <s_epik_input>
W0NIM11jMW5uYyhuMVtDSDJdQyg9TylbTkgyXSlTW0NASF0oQyNOKVtDSF0yW0NIMl1bQ0gyXVtDSDJdW0NIMl1bQ0gyXTI=

> <s_epik_cmdline>
J2VwaWtfcHl0aG9uJywgJy1waCcsICc3LjAnLCAnLXRuJywgJzgnLCAnLW1hJywgJzIwMCcsICctbWV0YWxfYmluZGluZycsICctaW1hZScsICc8aW5maWxlLm1hZT4nLCAnLW9tYWUnLCAnPG91dGZpbGUubWFlPic=

> <r_lp_tautomer_probability>
1

> <r_epik_Ionization_Penalty>
1.94949e-07

> <r_epik_Ionization_Penalty_Charging>
0

> <r_epik_Ionization_Penalty_Neutral>
1.94949e-07

> <r_epik_State_Penalty>
-0

> <r_epik_Charging_Adjusted_Penalty>
0

> <i_epik_Tot_Q>
0

> <i_epik_Tot_abs_Q>
0

> <r_epik_Metal_State_Penalty>
-0

> <b_epik_Metal_Only>
0

> <s_lp_Force_Field>
OPLS_2005

> <r_lp_Energy>
7.74931

> <b_lp_Chiralities_Consistent>
1

> <s_lp_Variant>
AV-unprocessed.smi:2679-1

> <Gold.Version>
5.8.1

> <Gold.Id.Protein>
6NUR|6NUR_protein|mol2

> <Gold.PLP.Fitness>
44.5870

> <Gold.PLP.PLP>
-34.3963

> <Gold.PLP.part.hbond>
-6.0066

> <Gold.PLP.part.metal>
0.0000

> <Gold.PLP.part.buried>
-2.7092

> <Gold.PLP.part.nonpolar>
-26.5953

> <Gold.PLP.part.repulsive>
0.1901

> <Gold.PLP.ligand.clash>
0.0000

> <Gold.PLP.ligand.torsion>
0.3657

> <Gold.PLP.Chemscore.Hbond>
3.6150

> <Gold.PLP.Chemscore.CHOScore>
0.0000

> <Gold.PLP.Chemscore.Metal>
0.0000

> <Gold.Chemscore.Hbonds>
donor molecule, donor type, donor heavy atom, donor atom, acceptor molecule, acceptor atom, score
      L1  H    19    38       P1  7957  0.86
      L1  H    19    39       P1  7948  0.69
      P1  H  7989  7998       L1    20  1.00
      P1  H 10752 10763       L1     3  1.00

> <Gold.PLP.Chemscore.Internal.Correction>
0.0770

> <Gold.Rescore>
     Score         DG    S(hbond)    S(metal)    S(lipo)     H(rot)  DE(clash)    DE(int)     intcor
     16.63     -18.60       3.07        0.00      80.76       2.57       0.10       1.87       ----

> <Gold.Chemscore.Fitness>
16.6344

> <Gold.Chemscore.DG>
-18.5999

> <Gold.Chemscore.ZeroCoef>
-5.4800

> <Gold.Chemscore.Hbond>
3.0711

> <Gold.Chemscore.Metal>
0.0000

> <Gold.Chemscore.Lipo>
80.7610

> <Gold.Chemscore.Internal_Hbond>
0.0000

> <Gold.Chemscore.DEClash>
0.0971

> <Gold.Chemscore.DEInternal>
1.8684

> <Gold.Chemscore.Rot>
2.5728

> <Gold.Chemscore.Internal.Correction>
   9.000000E+99

> <Gold.Chemscore.Hbonds>
donor molecule, donor type, donor heavy atom, donor atom, acceptor molecule, acceptor atom, score
      L1  H    19    38       P1  7957  0.78
      L1  H    19    39       P1  7948  0.68
      P1  H  7989  7998       L1    20  0.98
      P1  H 10752 10763       L1     3  0.25

> <Gold.Chemscore.Hbond.Weighted>
-10.2574

> <Gold.Chemscore.Metal.Weighted>
-0.0000

> <Gold.Chemscore.Lipo.Weighted>
-9.4490

> <Gold.Chemscore.Internal_Hbond.Weighted>
0.0000

> <Gold.Chemscore.DEClash.Weighted>
0.0971

> <Gold.Chemscore.DEInternal.Weighted>
1.8684

> <Gold.Chemscore.Rot.Weighted>
6.5865

> <Gold.Chemscore.Internal.Correction.Weighted>
   9.000000E+99

> <Gold.Protein.RotatedTorsions>
[ 6907 6896 6895 6894 ] final   37.32 input  -60.11 | X-H torsion
[ 7974 7965 7964 7962 ] final   48.07 input  175.53 | X-H torsion
[ 8008 7997 7996 7995 ] final -146.37 input   59.86 | X-H torsion
[ 10167 10162 10161 10158 ] final  -48.24 input  -65.29 | X-H torsion
[ 10718 10713 10712 10709 ] final -151.58 input   66.30 | X-H torsion
[ 10763 10752 10751 10750 ] final  104.30 input  -60.55 | X-H torsion
[ 11005 11000 10999 10996 ] final -138.43 input  -57.11 | X-H torsion

> <Gold.Protein.ActiveResidues>
 VAL166  LYS551  ARG553  GLY616  TRP617  ASP618  TYR619  PRO620  LYS621  CYS622 
 ASP623  PHE694  ASN695  SER759  ASP760  ASP761  ALA762  ILE779  LEU786  VAL792 
 PHE793  MET794  SER795  GLU796  ALA797  LYS798  CYS799  TRP800  GLU811  SER814 

> <Gold.Protein.RotatedAtoms>
  152.1416  134.9058  160.0553 H   0  0  0  0  0  0  0  0  0  0  0  0  # atno 6907 bound_to 6896
  152.0123  133.3861  159.4233 H   0  0  0  0  0  0  0  0  0  0  0  0  # atno 6908 bound_to 6896
  150.6866  134.3638  159.5006 H   0  0  0  0  0  0  0  0  0  0  0  0  # atno 6909 bound_to 6896
  146.0238  139.4683  142.9880 H   0  0  0  0  0  0  0  0  0  0  0  0  # atno 7974 bound_to 7965
  155.5583  140.0623  157.2834 H   0  0  0  0  0  0  0  0  0  0  0  0  # atno 8008 bound_to 7997
  154.4398  140.1890  156.0802 H   0  0  0  0  0  0  0  0  0  0  0  0  # atno 8009 bound_to 7997
  156.0465  140.3289  155.7306 H   0  0  0  0  0  0  0  0  0  0  0  0  # atno 8010 bound_to 7997
  140.6740  143.2749  151.4042 H   0  0  0  0  0  0  0  0  0  0  0  0  # atno 10167 bound_to 10162
  156.4611  130.8213  151.2444 H   0  0  0  0  0  0  0  0  0  0  0  0  # atno 10718 bound_to 10713
  153.3641  135.3948  155.1740 H   0  0  0  0  0  0  0  0  0  0  0  0  # atno 10763 bound_to 10752
  154.8684  135.3686  154.5061 H   0  0  0  0  0  0  0  0  0  0  0  0  # atno 10764 bound_to 10752
  153.5523  135.7082  153.5646 H   0  0  0  0  0  0  0  0  0  0  0  0  # atno 10765 bound_to 10752
  140.8617  134.2161  157.4703 H   0  0  0  0  0  0  0  0  0  0  0  0  # atno 11005 bound_to 11000
  145.7150  141.0094  143.1433 LP  0  0  0  0  0  0  0  0  0  0  0  0  # atno 17320 bound_to 7965
  144.7001  139.8802  143.7446 LP  0  0  0  0  0  0  0  0  0  0  0  0  # atno 17321 bound_to 7965
  139.6022  144.1271  152.2210 LP  0  0  0  0  0  0  0  0  0  0  0  0  # atno 17342 bound_to 10162
  140.0659  144.5819  150.7228 LP  0  0  0  0  0  0  0  0  0  0  0  0  # atno 17343 bound_to 10162
  157.7498  131.0107  150.3316 LP  0  0  0  0  0  0  0  0  0  0  0  0  # atno 17370 bound_to 10713
  156.3716  130.3864  149.7171 LP  0  0  0  0  0  0  0  0  0  0  0  0  # atno 17371 bound_to 10713
  139.8707  134.9732  156.4802 LP  0  0  0  0  0  0  0  0  0  0  0  0  # atno 17394 bound_to 11000
  140.8675  133.8013  155.9330 LP  0  0  0  0  0  0  0  0  0  0  0  0  # atno 17395 bound_to 11000

$$$$
