AV-unprocessed.smi:1610|AV-procd|sdf|6473|dock3
  -GOLD-   22720 7133D 1   1.00000     0.00000
 Structure written by MMmdl.
 44 45  0  0  0  0  0  0  0  0  3 V2000
  150.8740  141.8859  157.2489 C   0  0  0  0  0  0  0  0  0  0  0  0
  151.0246  140.1407  156.6983 S   0  0  0  0  0  0  0  0  0  0  0  0
  152.4578  139.8170  156.7863 O   0  0  0  0  0  0  0  0  0  0  0  0
  150.1035  139.3709  157.5492 O   0  0  0  0  0  0  0  0  0  0  0  0
  150.5182  140.2704  155.1622 N   0  5  0  0  0  0  0  0  0  0  0  0
  149.1798  140.7591  154.8413 C   0  0  0  0  0  0  0  0  0  0  0  0
  148.1174  140.2707  155.8739 C   0  0  0  0  0  0  0  0  0  0  0  0
  146.6475  140.4304  155.3984 C   0  0  0  0  0  0  0  0  0  0  0  0
  146.4612  139.7378  154.1087 N   0  0  0  0  0  0  0  0  0  0  0  0
  146.0015  138.4739  153.9328 C   0  0  0  0  0  0  0  0  0  0  0  0
  145.7330  137.7207  154.8698 O   0  0  0  0  0  0  0  0  0  0  0  0
  145.7989  138.1264  152.6493 N   0  0  0  0  0  0  0  0  0  0  0  0
  145.0850  136.9345  152.1942 C   0  0  0  0  0  0  0  0  0  0  0  0
  146.0443  135.7546  151.9289 C   0  0  0  0  0  0  0  0  0  0  0  0
  145.3883  134.5544  151.2616 C   0  0  0  0  0  0  0  0  0  0  0  0
  146.0747  133.3246  151.1488 C   0  0  0  0  0  0  0  0  0  0  0  0
  145.4194  132.2153  150.5746 C   0  0  0  0  0  0  0  0  0  0  0  0
  144.0929  132.3608  150.1200 C   0  0  0  0  0  0  0  0  0  0  0  0
  143.4746  133.5562  150.2280 N   0  3  0  0  0  0  0  0  0  0  0  0
  144.0681  134.6423  150.7683 C   0  0  0  0  0  0  0  0  0  0  0  0
  147.2737  140.4173  153.0869 C   0  0  0  0  0  0  0  0  0  0  0  0
  148.7824  140.2482  153.4250 C   0  0  0  0  0  0  0  0  0  0  0  0
  151.2020  141.9665  158.2848 H   0  0  0  0  0  0  0  0  0  0  0  0
  149.8338  142.2017  157.1733 H   0  0  0  0  0  0  0  0  0  0  0  0
  151.4955  142.5227  156.6205 H   0  0  0  0  0  0  0  0  0  0  0  0
  149.1481  141.8488  154.8233 H   0  0  0  0  0  0  0  0  0  0  0  0
  148.2821  139.2197  156.0987 H   0  0  0  0  0  0  0  0  0  0  0  0
  148.2457  140.8039  156.8164 H   0  0  0  0  0  0  0  0  0  0  0  0
  145.9657  140.0734  156.1704 H   0  0  0  0  0  0  0  0  0  0  0  0
  146.3964  141.4867  155.2805 H   0  0  0  0  0  0  0  0  0  0  0  0
  146.0591  138.7958  151.9396 H   0  0  0  0  0  0  0  0  0  0  0  0
  144.3550  136.6530  152.9534 H   0  0  0  0  0  0  0  0  0  0  0  0
  144.5102  137.1489  151.2921 H   0  0  0  0  0  0  0  0  0  0  0  0
  146.8657  136.0991  151.2994 H   0  0  0  0  0  0  0  0  0  0  0  0
  146.4979  135.4305  152.8661 H   0  0  0  0  0  0  0  0  0  0  0  0
  147.0848  133.2253  151.5187 H   0  0  0  0  0  0  0  0  0  0  0  0
  145.9235  131.2634  150.4950 H   0  0  0  0  0  0  0  0  0  0  0  0
  143.5093  131.5641  149.6825 H   0  0  0  0  0  0  0  0  0  0  0  0
  143.4575  135.5322  150.8165 H   0  0  0  0  0  0  0  0  0  0  0  0
  147.0756  140.0298  152.0866 H   0  0  0  0  0  0  0  0  0  0  0  0
  147.0007  141.4737  153.0398 H   0  0  0  0  0  0  0  0  0  0  0  0
  149.3839  140.7567  152.6708 H   0  0  0  0  0  0  0  0  0  0  0  0
  149.0282  139.1882  153.3391 H   0  0  0  0  0  0  0  0  0  0  0  0
  142.5091  133.6393  149.9058 H   0  0  0  0  0  0  0  0  0  0  0  0
  1  2  1  0  0  0  0
  1 23  1  0  0  0  0
  1 24  1  0  0  0  0
  1 25  1  0  0  0  0
  2  3  2  0  0  0  0
  2  4  2  0  0  0  0
  2  5  1  0  0  0  0
  5  6  1  0  0  0  0
  6 22  1  0  0  0  0
  6  7  1  0  0  0  0
  6 26  1  0  0  0  0
  7  8  1  0  0  0  0
  7 27  1  0  0  0  0
  7 28  1  0  0  0  0
  8  9  1  0  0  0  0
  8 29  1  0  0  0  0
  8 30  1  0  0  0  0
  9 10  1  0  0  0  0
  9 21  1  0  0  0  0
 10 11  2  0  0  0  0
 10 12  1  0  0  0  0
 12 13  1  0  0  0  0
 12 31  1  0  0  0  0
 13 14  1  0  0  0  0
 13 32  1  0  0  0  0
 13 33  1  0  0  0  0
 14 15  1  0  0  0  0
 14 34  1  0  0  0  0
 14 35  1  0  0  0  0
 15 20  1  0  0  0  0
 15 16  2  0  0  0  0
 16 17  1  0  0  0  0
 16 36  1  0  0  0  0
 17 18  2  0  0  0  0
 17 37  1  0  0  0  0
 18 19  1  0  0  0  0
 18 38  1  0  0  0  0
 19 20  2  0  0  0  0
 19 44  1  0  0  0  0
 20 39  1  0  0  0  0
 21 22  1  0  0  0  0
 21 40  1  0  0  0  0
 21 41  1  0  0  0  0
 22 42  1  0  0  0  0
 22 43  1  0  0  0  0
M  CHG  1   5  -1
M  CHG  1  19   1
M  END
> <s_m_source_file>
AV-unprocessed.smi

> <i_m_source_file_index>
1610

> <i_lp_mmshare_version>
43012

> <i_f3d_flags>
0

> <s_epik_input>
W0NIM11TKD1PKSg9TylbTkhdW0NIXTFbQ0gyXVtDSDJdTihbQ0gyXVtDSDJdMSlDKD1PKVtOSF1bQ0gyXVtDSDJdYzJbY0hdW2NIXVtjSF1uW2NIXTI=

> <s_epik_cmdline>
J2VwaWtfcHl0aG9uJywgJy1waCcsICc3LjAnLCAnLXRuJywgJzgnLCAnLW1hJywgJzIwMCcsICctbWV0YWxfYmluZGluZycsICctaW1hZScsICc8aW5maWxlLm1hZT4nLCAnLW9tYWUnLCAnPG91dGZpbGUubWFlPic=

> <r_epik_Ionization_Penalty>
8.91489

> <r_epik_Ionization_Penalty_Charging>
8.91482

> <r_epik_Ionization_Penalty_Neutral>
6.17235e-05

> <r_epik_State_Penalty>
9.05939

> <r_epik_Charging_Adjusted_Penalty>
17.9742

> <i_epik_Tot_Q>
0

> <i_epik_Tot_abs_Q>
2

> <r_epik_Metal_State_Penalty>
4.99481

> <b_epik_Metal_Only>
1

> <s_lp_Force_Field>
OPLS_2005

> <r_lp_Energy>
23.4301

> <b_lp_Chiralities_Consistent>
1

> <s_lp_Variant>
AV-unprocessed.smi:1610-4

> <Gold.Version>
5.8.1

> <Gold.Id.Protein>
6NUR|6NUR_protein|mol2

> <Gold.PLP.Fitness>
41.5831

> <Gold.PLP.PLP>
-30.9979

> <Gold.PLP.part.hbond>
-3.6112

> <Gold.PLP.part.metal>
0.0000

> <Gold.PLP.part.buried>
2.7222

> <Gold.PLP.part.nonpolar>
-29.9635

> <Gold.PLP.part.repulsive>
0.1729

> <Gold.PLP.ligand.clash>
0.0091

> <Gold.PLP.ligand.torsion>
1.2946

> <Gold.PLP.Chemscore.Hbond>
4.0000

> <Gold.PLP.Chemscore.CHOScore>
0.0000

> <Gold.PLP.Chemscore.Metal>
0.0000

> <Gold.Chemscore.Hbonds>
donor molecule, donor type, donor heavy atom, donor atom, acceptor molecule, acceptor atom, score
      L1  H    19    44       P1 10186  2.00
      P1  H  7989  7998       L1     5  0.86
      P1  H  7997  8008       L1     3  1.00

> <Gold.PLP.Chemscore.Internal.Correction>
1.1836

> <Gold.Rescore>
     Score         DG    S(hbond)    S(metal)    S(lipo)     H(rot)  DE(clash)    DE(int)     intcor
     14.75     -19.57       2.78        0.00      79.61       1.77       1.82       3.00       ----

> <Gold.Chemscore.Fitness>
14.7497

> <Gold.Chemscore.DG>
-19.5672

> <Gold.Chemscore.ZeroCoef>
-5.4800

> <Gold.Chemscore.Hbond>
2.7825

> <Gold.Chemscore.Metal>
0.0000

> <Gold.Chemscore.Lipo>
79.6138

> <Gold.Chemscore.Internal_Hbond>
0.0000

> <Gold.Chemscore.DEClash>
1.8192

> <Gold.Chemscore.DEInternal>
2.9982

> <Gold.Chemscore.Rot>
1.7661

> <Gold.Chemscore.Internal.Correction>
   9.000000E+99

> <Gold.Chemscore.Hbonds>
donor molecule, donor type, donor heavy atom, donor atom, acceptor molecule, acceptor atom, score
      L1  H    19    44       P1 10186  0.99
      P1  H  7989  7998       L1     5  0.29
      P1  H  7997  8008       L1     3  0.98

> <Gold.Chemscore.Hbond.Weighted>
-9.2935

> <Gold.Chemscore.Metal.Weighted>
-0.0000

> <Gold.Chemscore.Lipo.Weighted>
-9.3148

> <Gold.Chemscore.Internal_Hbond.Weighted>
0.0000

> <Gold.Chemscore.DEClash.Weighted>
1.8192

> <Gold.Chemscore.DEInternal.Weighted>
2.9982

> <Gold.Chemscore.Rot.Weighted>
4.5211

> <Gold.Chemscore.Internal.Correction.Weighted>
   9.000000E+99

> <Gold.Protein.RotatedTorsions>
[ 6907 6896 6895 6894 ] final  163.97 input  -60.11 | X-H torsion
[ 7974 7965 7964 7962 ] final  -41.12 input  175.53 | X-H torsion
[ 8008 7997 7996 7995 ] final  -40.56 input   59.86 | X-H torsion
[ 10167 10162 10161 10158 ] final  -99.05 input  -65.29 | X-H torsion
[ 10718 10713 10712 10709 ] final   -8.69 input   66.30 | X-H torsion
[ 10763 10752 10751 10750 ] final  170.03 input  -60.55 | X-H torsion
[ 11005 11000 10999 10996 ] final  102.08 input  -57.11 | X-H torsion

> <Gold.Protein.ActiveResidues>
 VAL166  LYS551  ARG553  GLY616  TRP617  ASP618  TYR619  PRO620  LYS621  CYS622 
 ASP623  PHE694  ASN695  SER759  ASP760  ASP761  ALA762  ILE779  LEU786  VAL792 
 PHE793  MET794  SER795  GLU796  ALA797  LYS798  CYS799  TRP800  GLU811  SER814 

> <Gold.Protein.RotatedAtoms>
  151.9170  133.3576  159.3883 H   0  0  0  0  0  0  0  0  0  0  0  0  # atno 6907 bound_to 6896
  150.7045  134.4673  159.5418 H   0  0  0  0  0  0  0  0  0  0  0  0  # atno 6908 bound_to 6896
  152.2290  134.8340  160.0527 H   0  0  0  0  0  0  0  0  0  0  0  0  # atno 6909 bound_to 6896
  146.0240  140.6814  142.9164 H   0  0  0  0  0  0  0  0  0  0  0  0  # atno 7974 bound_to 7965
  154.4011  140.1522  156.3047 H   0  0  0  0  0  0  0  0  0  0  0  0  # atno 8008 bound_to 7997
  155.8669  140.3450  155.5773 H   0  0  0  0  0  0  0  0  0  0  0  0  # atno 8009 bound_to 7997
  155.7818  140.0844  157.2046 H   0  0  0  0  0  0  0  0  0  0  0  0  # atno 8010 bound_to 7997
  140.2665  143.3372  152.0575 H   0  0  0  0  0  0  0  0  0  0  0  0  # atno 10167 bound_to 10162
  156.6990  130.5087  149.5922 H   0  0  0  0  0  0  0  0  0  0  0  0  # atno 10718 bound_to 10713
  154.3918  135.2754  155.2150 H   0  0  0  0  0  0  0  0  0  0  0  0  # atno 10763 bound_to 10752
  154.4213  135.5999  153.6015 H   0  0  0  0  0  0  0  0  0  0  0  0  # atno 10764 bound_to 10752
  152.9832  135.5973  154.4173 H   0  0  0  0  0  0  0  0  0  0  0  0  # atno 10765 bound_to 10752
  139.8776  134.9209  156.5004 H   0  0  0  0  0  0  0  0  0  0  0  0  # atno 11005 bound_to 11000
  144.7002  140.3617  143.7162 LP  0  0  0  0  0  0  0  0  0  0  0  0  # atno 17320 bound_to 7965
  145.7147  139.1694  143.2518 LP  0  0  0  0  0  0  0  0  0  0  0  0  # atno 17321 bound_to 7965
  139.5001  144.6684  151.6301 LP  0  0  0  0  0  0  0  0  0  0  0  0  # atno 17342 bound_to 10162
  140.5924  143.9756  150.6333 LP  0  0  0  0  0  0  0  0  0  0  0  0  # atno 17343 bound_to 10162
  156.1742  130.6457  151.0875 LP  0  0  0  0  0  0  0  0  0  0  0  0  # atno 17370 bound_to 10713
  157.6980  131.0787  150.6908 LP  0  0  0  0  0  0  0  0  0  0  0  0  # atno 17371 bound_to 10713
  140.8594  133.8071  155.9249 LP  0  0  0  0  0  0  0  0  0  0  0  0  # atno 17394 bound_to 11000
  140.9065  134.2314  157.5011 LP  0  0  0  0  0  0  0  0  0  0  0  0  # atno 17395 bound_to 11000

$$$$
