AV-unprocessed.smi:2893|AV-procd|sdf|11123|dock2
  -GOLD-   2272015593D 1   1.00000     0.00000
 Structure written by MMmdl.
 37 39  0  0  0  0  0  0  0  0  1 V2000
  150.1400  133.9895  155.2396 C   0  0  0  0  0  0  0  0  0  0  0  0
  149.1427  135.1126  155.5534 C   0  0  0  0  0  0  0  0  0  0  0  0
  149.7925  136.2365  156.2167 N   0  0  0  0  0  0  0  0  0  0  0  0
  150.8475  136.9173  155.7366 C   0  0  0  0  0  0  0  0  0  0  0  0
  151.3970  136.6451  154.6684 O   0  0  0  0  0  0  0  0  0  0  0  0
  151.3650  138.0280  156.6110 C   0  0  0  0  0  0  0  0  0  0  0  0
  150.6062  138.4732  157.7150 C   0  0  0  0  0  0  0  0  0  0  0  0
  151.1416  139.5032  158.5071 C   0  0  0  0  0  0  0  0  0  0  0  0
  152.4024  140.0167  158.1493 C   0  0  0  0  0  0  0  0  0  0  0  0
  152.9594  141.0448  158.9227 N   0  0  0  0  0  0  0  0  0  0  0  0
  152.1061  141.9603  159.6743 C   0  0  1  0  0  0  0  0  0  0  0  0
  152.8971  142.9876  160.4877 C   0  0  0  0  0  0  0  0  0  0  0  0
  152.2756  144.3102  160.0163 C   0  0  1  0  0  0  0  0  0  0  0  0
  152.7537  144.6864  158.6080 C   0  0  0  0  0  0  0  0  0  0  0  0
  152.0044  143.6728  157.7455 C   0  0  0  0  0  0  0  0  0  0  0  0
  151.2212  142.8725  158.8008 C   0  0  2  0  0  0  0  0  0  0  0  0
  150.9469  143.9017  159.7364 O   0  0  0  0  0  0  0  0  0  0  0  0
  153.0863  139.5464  157.0778 N   0  0  0  0  0  0  0  0  0  0  0  0
  152.5777  138.5660  156.3242 N   0  0  0  0  0  0  0  0  0  0  0  0
  149.6478  133.1712  154.7137 H   0  0  0  0  0  0  0  0  0  0  0  0
  150.5778  133.5805  156.1506 H   0  0  0  0  0  0  0  0  0  0  0  0
  150.9529  134.3492  154.6083 H   0  0  0  0  0  0  0  0  0  0  0  0
  148.6961  135.4761  154.6278 H   0  0  0  0  0  0  0  0  0  0  0  0
  148.3230  134.7331  156.1657 H   0  0  0  0  0  0  0  0  0  0  0  0
  149.4146  136.5243  157.1083 H   0  0  0  0  0  0  0  0  0  0  0  0
  149.6431  138.0452  157.9526 H   0  0  0  0  0  0  0  0  0  0  0  0
  150.6011  139.8818  159.3623 H   0  0  0  0  0  0  0  0  0  0  0  0
  153.9135  141.3235  158.7452 H   0  0  0  0  0  0  0  0  0  0  0  0
  151.4771  141.3890  160.3586 H   0  0  0  0  0  0  0  0  0  0  0  0
  152.7274  142.8355  161.5541 H   0  0  0  0  0  0  0  0  0  0  0  0
  153.9733  142.9569  160.3102 H   0  0  0  0  0  0  0  0  0  0  0  0
  152.3549  145.1205  160.7414 H   0  0  0  0  0  0  0  0  0  0  0  0
  152.4520  145.7029  158.3525 H   0  0  0  0  0  0  0  0  0  0  0  0
  153.8367  144.6142  158.5033 H   0  0  0  0  0  0  0  0  0  0  0  0
  151.3200  144.1857  157.0689 H   0  0  0  0  0  0  0  0  0  0  0  0
  152.6683  143.0529  157.1427 H   0  0  0  0  0  0  0  0  0  0  0  0
  150.3302  142.3818  158.4082 H   0  0  0  0  0  0  0  0  0  0  0  0
  1  2  1  0  0  0  0
  1 20  1  0  0  0  0
  1 21  1  0  0  0  0
  1 22  1  0  0  0  0
  2  3  1  0  0  0  0
  2 23  1  0  0  0  0
  2 24  1  0  0  0  0
  3  4  1  0  0  0  0
  3 25  1  0  0  0  0
  4  5  2  0  0  0  0
  4  6  1  0  0  0  0
  6 19  1  0  0  0  0
  6  7  2  0  0  0  0
  7  8  1  0  0  0  0
  7 26  1  0  0  0  0
  8  9  2  0  0  0  0
  8 27  1  0  0  0  0
  9 10  1  0  0  0  0
  9 18  1  0  0  0  0
 10 11  1  0  0  0  0
 10 28  1  0  0  0  0
 11 16  1  0  0  0  0
 11 12  1  0  0  0  0
 11 29  1  0  0  0  0
 12 13  1  0  0  0  0
 12 30  1  0  0  0  0
 12 31  1  0  0  0  0
 13 17  1  0  0  0  0
 13 14  1  0  0  0  0
 13 32  1  0  0  0  0
 14 15  1  0  0  0  0
 14 33  1  0  0  0  0
 14 34  1  0  0  0  0
 15 16  1  0  0  0  0
 15 35  1  0  0  0  0
 15 36  1  0  0  0  0
 16 17  1  0  0  0  0
 16 37  1  0  0  0  0
 18 19  2  0  0  0  0
M  END
> <s_m_source_file>
AV-unprocessed.smi

> <i_m_source_file_index>
2893

> <i_lp_mmshare_version>
43012

> <i_f3d_flags>
0

> <s_epik_input>
W0NIM11bQ0gyXVtOSF1DKD1PKWMxW2NIXVtjSF1jKG5uMSlbTkhdW0NASF0oW0NIMl1bQ0BASF0yMylbQ0BASF0oTzMpW0NIMl1bQ0gyXTI=

> <s_epik_cmdline>
J2VwaWtfcHl0aG9uJywgJy1waCcsICc3LjAnLCAnLXRuJywgJzgnLCAnLW1hJywgJzIwMCcsICctbWV0YWxfYmluZGluZycsICctaW1hZScsICc8aW5maWxlLm1hZT4nLCAnLW9tYWUnLCAnPG91dGZpbGUubWFlPic=

> <r_lp_tautomer_probability>
1

> <r_epik_Ionization_Penalty>
0.00432031

> <r_epik_Ionization_Penalty_Charging>
0

> <r_epik_Ionization_Penalty_Neutral>
0.00432031

> <r_epik_State_Penalty>
-0

> <r_epik_Charging_Adjusted_Penalty>
0

> <i_epik_Tot_Q>
0

> <i_epik_Tot_abs_Q>
0

> <r_epik_Metal_State_Penalty>
-0

> <b_epik_Metal_Only>
0

> <s_lp_Force_Field>
OPLS_2005

> <r_lp_Energy>
51.8171

> <b_lp_Chiralities_Consistent>
1

> <s_lp_Variant>
AV-unprocessed.smi:2893-2

> <Gold.Version>
5.8.1

> <Gold.Id.Protein>
6NUR|6NUR_protein|mol2

> <Gold.PLP.Fitness>
38.2111

> <Gold.PLP.PLP>
-32.6791

> <Gold.PLP.part.hbond>
-1.8916

> <Gold.PLP.part.metal>
0.0000

> <Gold.PLP.part.buried>
-4.8731

> <Gold.PLP.part.nonpolar>
-25.5473

> <Gold.PLP.part.repulsive>
0.4032

> <Gold.PLP.ligand.clash>
0.0000

> <Gold.PLP.ligand.torsion>
0.2427

> <Gold.PLP.Chemscore.Hbond>
2.0000

> <Gold.PLP.Chemscore.CHOScore>
0.0000

> <Gold.PLP.Chemscore.Metal>
0.0000

> <Gold.Chemscore.Hbonds>
donor molecule, donor type, donor heavy atom, donor atom, acceptor molecule, acceptor atom, score
      P1  H  7997  8010       L1    18  0.96
      P1  H 10752 10763       L1     5  1.00

> <Gold.PLP.Chemscore.Internal.Correction>
0.0174

> <Gold.Rescore>
     Score         DG    S(hbond)    S(metal)    S(lipo)     H(rot)  DE(clash)    DE(int)     intcor
     17.86     -19.27       1.92        0.00      89.30       1.21       0.01       1.40       ----

> <Gold.Chemscore.Fitness>
17.8607

> <Gold.Chemscore.DG>
-19.2686

> <Gold.Chemscore.ZeroCoef>
-5.4800

> <Gold.Chemscore.Hbond>
1.9247

> <Gold.Chemscore.Metal>
0.0000

> <Gold.Chemscore.Lipo>
89.2964

> <Gold.Chemscore.Internal_Hbond>
0.0000

> <Gold.Chemscore.DEClash>
0.0064

> <Gold.Chemscore.DEInternal>
1.4015

> <Gold.Chemscore.Rot>
1.2061

> <Gold.Chemscore.Internal.Correction>
   9.000000E+99

> <Gold.Chemscore.Hbonds>
donor molecule, donor type, donor heavy atom, donor atom, acceptor molecule, acceptor atom, score
      P1  H  7997  8010       L1    18  0.62
      P1  H 10752 10763       L1     5  0.99

> <Gold.Chemscore.Hbond.Weighted>
-6.4286

> <Gold.Chemscore.Metal.Weighted>
-0.0000

> <Gold.Chemscore.Lipo.Weighted>
-10.4477

> <Gold.Chemscore.Internal_Hbond.Weighted>
0.0000

> <Gold.Chemscore.DEClash.Weighted>
0.0064

> <Gold.Chemscore.DEInternal.Weighted>
1.4015

> <Gold.Chemscore.Rot.Weighted>
3.0876

> <Gold.Chemscore.Internal.Correction.Weighted>
   9.000000E+99

> <Gold.Protein.RotatedTorsions>
[ 6907 6896 6895 6894 ] final -148.68 input  -60.11 | X-H torsion
[ 7974 7965 7964 7962 ] final  -45.52 input  175.53 | X-H torsion
[ 8008 7997 7996 7995 ] final   78.05 input   59.86 | X-H torsion
[ 10167 10162 10161 10158 ] final  178.76 input  -65.29 | X-H torsion
[ 10718 10713 10712 10709 ] final   -8.73 input   66.30 | X-H torsion
[ 10763 10752 10751 10750 ] final   58.96 input  -60.55 | X-H torsion
[ 11005 11000 10999 10996 ] final   81.26 input  -57.11 | X-H torsion

> <Gold.Protein.ActiveResidues>
 VAL166  LYS551  ARG553  GLY616  TRP617  ASP618  TYR619  PRO620  LYS621  CYS622 
 ASP623  PHE694  ASN695  SER759  ASP760  ASP761  ALA762  ILE779  LEU786  VAL792 
 PHE793  MET794  SER795  GLU796  ALA797  LYS798  CYS799  TRP800  GLU811  SER814 

> <Gold.Protein.RotatedAtoms>
  151.1733  133.4770  159.2593 H   0  0  0  0  0  0  0  0  0  0  0  0  # atno 6907 bound_to 6896
  151.1333  135.0142  159.8602 H   0  0  0  0  0  0  0  0  0  0  0  0  # atno 6908 bound_to 6896
  152.5460  134.1634  159.8620 H   0  0  0  0  0  0  0  0  0  0  0  0  # atno 6909 bound_to 6896
  145.9812  140.7281  142.9362 H   0  0  0  0  0  0  0  0  0  0  0  0  # atno 7974 bound_to 7965
  155.8502  140.3458  155.5688 H   0  0  0  0  0  0  0  0  0  0  0  0  # atno 8008 bound_to 7997
  155.8046  140.0890  157.1958 H   0  0  0  0  0  0  0  0  0  0  0  0  # atno 8009 bound_to 7997
  154.4007  140.1459  156.3302 H   0  0  0  0  0  0  0  0  0  0  0  0  # atno 8010 bound_to 7997
  139.5308  144.2641  152.0682 H   0  0  0  0  0  0  0  0  0  0  0  0  # atno 10167 bound_to 10162
  156.6983  130.5086  149.5924 H   0  0  0  0  0  0  0  0  0  0  0  0  # atno 10718 bound_to 10713
  152.9883  135.5588  154.5637 H   0  0  0  0  0  0  0  0  0  0  0  0  # atno 10763 bound_to 10752
  154.5051  135.2799  155.1391 H   0  0  0  0  0  0  0  0  0  0  0  0  # atno 10764 bound_to 10752
  154.2806  135.6345  153.5398 H   0  0  0  0  0  0  0  0  0  0  0  0  # atno 10765 bound_to 10752
  139.9104  134.7983  156.2017 H   0  0  0  0  0  0  0  0  0  0  0  0  # atno 11005 bound_to 11000
  144.6862  140.2911  143.7278 LP  0  0  0  0  0  0  0  0  0  0  0  0  # atno 17320 bound_to 7965
  145.7767  139.1876  143.2181 LP  0  0  0  0  0  0  0  0  0  0  0  0  # atno 17321 bound_to 7965
  140.2104  144.4568  150.6388 LP  0  0  0  0  0  0  0  0  0  0  0  0  # atno 17342 bound_to 10162
  140.6484  143.2219  151.6134 LP  0  0  0  0  0  0  0  0  0  0  0  0  # atno 17343 bound_to 10162
  156.1747  130.6460  151.0880 LP  0  0  0  0  0  0  0  0  0  0  0  0  # atno 17370 bound_to 10713
  157.6983  131.0786  150.6902 LP  0  0  0  0  0  0  0  0  0  0  0  0  # atno 17371 bound_to 10713
  141.0520  133.6884  156.1790 LP  0  0  0  0  0  0  0  0  0  0  0  0  # atno 17394 bound_to 11000
  140.6795  134.4782  157.5589 LP  0  0  0  0  0  0  0  0  0  0  0  0  # atno 17395 bound_to 11000

$$$$
