AV-unprocessed.smi:100|AV-procd|sdf|910|dock7
  -GOLD-   2262017403D 1   1.00000     0.00000
 Structure written by MMmdl.
 31 33  0  0  0  0  0  0  0  0  1 V2000
  152.6576  138.8651  158.6691 N   0  0  0  0  0  0  0  0  0  0  0  0
  152.2090  139.2272  157.4594 C   0  0  0  0  0  0  0  0  0  0  0  0
  152.9874  138.9722  156.3815 N   0  0  0  0  0  0  0  0  0  0  0  0
  152.5632  139.3249  155.1632 C   0  0  0  0  0  0  0  0  0  0  0  0
  151.4215  139.9269  154.8168 N   0  0  0  0  0  0  0  0  0  0  0  0
  150.6382  140.1779  155.9064 C   0  0  0  0  0  0  0  0  0  0  0  0
  150.9589  139.8638  157.2556 C   0  0  0  0  0  0  0  0  0  0  0  0
  149.9295  140.2724  158.0938 N   0  0  0  0  0  0  0  0  0  0  0  0
  149.0515  140.7961  157.2801 C   0  0  0  0  0  0  0  0  0  0  0  0
  149.3981  140.7755  155.9458 N   0  0  0  0  0  0  0  0  0  0  0  0
  148.6310  141.2931  154.7752 C   0  0  1  0  0  0  0  0  0  0  0  0
  148.5528  140.2595  153.8410 O   0  0  0  0  0  0  0  0  0  0  0  0
  147.2384  140.2091  153.3041 C   0  0  1  0  0  0  0  0  0  0  0  0
  146.9409  138.8257  152.7057 C   0  0  0  0  0  0  0  0  0  0  0  0
  147.8223  138.5634  151.6353 O   0  0  0  0  0  0  0  0  0  0  0  0
  146.3705  140.5755  154.5088 C   0  0  1  0  0  0  0  0  0  0  0  0
  146.2279  139.5269  155.3224 F   0  0  0  0  0  0  0  0  0  0  0  0
  147.1963  141.6443  155.2066 C   0  0  2  0  0  0  0  0  0  0  0  0
  146.8106  142.9327  154.7711 O   0  0  0  0  0  0  0  0  0  0  0  0
  152.0950  139.0444  159.4884 H   0  0  0  0  0  0  0  0  0  0  0  0
  153.5544  138.4100  158.7582 H   0  0  0  0  0  0  0  0  0  0  0  0
  153.2336  139.0901  154.3497 H   0  0  0  0  0  0  0  0  0  0  0  0
  148.1203  141.2149  157.6334 H   0  0  0  0  0  0  0  0  0  0  0  0
  149.2093  142.1336  154.3880 H   0  0  0  0  0  0  0  0  0  0  0  0
  147.1324  140.9881  152.5463 H   0  0  0  0  0  0  0  0  0  0  0  0
  147.0162  138.0419  153.4603 H   0  0  0  0  0  0  0  0  0  0  0  0
  145.9259  138.7991  152.3081 H   0  0  0  0  0  0  0  0  0  0  0  0
  148.6041  139.0800  151.7563 H   0  0  0  0  0  0  0  0  0  0  0  0
  145.3680  140.9049  154.2327 H   0  0  0  0  0  0  0  0  0  0  0  0
  147.0853  141.6019  156.2916 H   0  0  0  0  0  0  0  0  0  0  0  0
  147.5007  143.5410  154.9881 H   0  0  0  0  0  0  0  0  0  0  0  0
  1  2  1  0  0  0  0
  1 20  1  0  0  0  0
  1 21  1  0  0  0  0
  2  7  1  0  0  0  0
  2  3  2  0  0  0  0
  3  4  1  0  0  0  0
  4  5  2  0  0  0  0
  4 22  1  0  0  0  0
  5  6  1  0  0  0  0
  6 10  1  0  0  0  0
  6  7  2  0  0  0  0
  7  8  1  0  0  0  0
  8  9  2  0  0  0  0
  9 10  1  0  0  0  0
  9 23  1  0  0  0  0
 10 11  1  0  0  0  0
 11 18  1  0  0  0  0
 11 12  1  0  0  0  0
 11 24  1  0  0  0  0
 12 13  1  0  0  0  0
 13 14  1  0  0  0  0
 13 16  1  0  0  0  0
 13 25  1  0  0  0  0
 14 15  1  0  0  0  0
 14 26  1  0  0  0  0
 14 27  1  0  0  0  0
 15 28  1  0  0  0  0
 16 17  1  0  0  0  0
 16 18  1  0  0  0  0
 16 29  1  0  0  0  0
 18 19  1  0  0  0  0
 18 30  1  0  0  0  0
 19 31  1  0  0  0  0
M  END
> <s_m_source_file>
AV-unprocessed.smi

> <i_m_source_file_index>
100

> <i_lp_mmshare_version>
43012

> <i_f3d_flags>
0

> <s_epik_input>
bjFbY0hdbmMoW05IMl0pYyhjMTIpbltjSF1uMltDQEBIXTNPW0NAQEhdKFtDSDJdW09IXSlbQ0BIXShGKVtDQEhdM1tPSF0=

> <s_epik_cmdline>
J2VwaWtfcHl0aG9uJywgJy1waCcsICc3LjAnLCAnLXRuJywgJzgnLCAnLW1hJywgJzIwMCcsICctbWV0YWxfYmluZGluZycsICctaW1hZScsICc8aW5maWxlLm1hZT4nLCAnLW9tYWUnLCAnPG91dGZpbGUubWFlPic=

> <r_lp_tautomer_probability>
1

> <r_epik_Ionization_Penalty>
0.000750324

> <r_epik_Ionization_Penalty_Charging>
0

> <r_epik_Ionization_Penalty_Neutral>
0.000750324

> <r_epik_State_Penalty>
-0

> <r_epik_Charging_Adjusted_Penalty>
0

> <i_epik_Tot_Q>
0

> <i_epik_Tot_abs_Q>
0

> <r_epik_Metal_State_Penalty>
-0

> <b_epik_Metal_Only>
0

> <s_epik_Chemistry_Notes>
This compound contains an acetal/aminal-like group ( X-CH(R)-Y where X, Y are N, S, or O) that may be acid/base labile, releasing an aldehyde.

> <s_lp_Force_Field>
OPLS_2005

> <r_lp_Energy>
27.3407

> <b_lp_Chiralities_Consistent>
1

> <s_lp_Variant>
AV-unprocessed.smi:100-14

> <Gold.Version>
5.8.1

> <Gold.Id.Protein>
6NUR|6NUR_protein|mol2

> <Gold.PLP.Fitness>
41.1673

> <Gold.PLP.PLP>
-27.9818

> <Gold.PLP.part.hbond>
-5.8117

> <Gold.PLP.part.metal>
0.0000

> <Gold.PLP.part.buried>
-3.9568

> <Gold.PLP.part.nonpolar>
-20.2305

> <Gold.PLP.part.repulsive>
2.1632

> <Gold.PLP.ligand.clash>
0.0000

> <Gold.PLP.ligand.torsion>
0.1654

> <Gold.PLP.Chemscore.Hbond>
4.5000

> <Gold.PLP.Chemscore.CHOScore>
0.0000

> <Gold.PLP.Chemscore.Metal>
0.0000

> <Gold.Chemscore.Hbonds>
donor molecule, donor type, donor heavy atom, donor atom, acceptor molecule, acceptor atom, score
      L1  H    15    28       P1  7957  0.80
      L1  H    19    31       P1  8028  0.80
      P1  H  7954  7966       L1    15  0.81
      P1  H  7989  7998       L1     5  1.00
      P1  H  7997  8010       L1     3  0.75

> <Gold.PLP.Chemscore.Internal.Correction>
0.0163

> <Gold.Rescore>
     Score         DG    S(hbond)    S(metal)    S(lipo)     H(rot)  DE(clash)    DE(int)     intcor
      7.19      -7.91       2.25        0.00      26.46       3.19       0.68       0.04       ----

> <Gold.Chemscore.Fitness>
7.1880

> <Gold.Chemscore.DG>
-7.9093

> <Gold.Chemscore.ZeroCoef>
-5.4800

> <Gold.Chemscore.Hbond>
2.2455

> <Gold.Chemscore.Metal>
0.0000

> <Gold.Chemscore.Lipo>
26.4621

> <Gold.Chemscore.Internal_Hbond>
0.0000

> <Gold.Chemscore.DEClash>
0.6783

> <Gold.Chemscore.DEInternal>
0.0430

> <Gold.Chemscore.Rot>
3.1901

> <Gold.Chemscore.Internal.Correction>
   9.000000E+99

> <Gold.Chemscore.Hbonds>
donor molecule, donor type, donor heavy atom, donor atom, acceptor molecule, acceptor atom, score
      L1  H    15    28       P1  7957  0.69
      L1  H    19    31       P1  8028  0.12
      P1  H  7954  7966       L1    15  0.16
      P1  H  7989  7998       L1     5  0.74
      P1  H  7997  8010       L1     3  0.06

> <Gold.Chemscore.Hbond.Weighted>
-7.4999

> <Gold.Chemscore.Metal.Weighted>
-0.0000

> <Gold.Chemscore.Lipo.Weighted>
-3.0961

> <Gold.Chemscore.Internal_Hbond.Weighted>
0.0000

> <Gold.Chemscore.DEClash.Weighted>
0.6783

> <Gold.Chemscore.DEInternal.Weighted>
0.0430

> <Gold.Chemscore.Rot.Weighted>
8.1667

> <Gold.Chemscore.Internal.Correction.Weighted>
   9.000000E+99

> <Gold.Protein.RotatedTorsions>
[ 6907 6896 6895 6894 ] final    4.24 input  -60.11 | X-H torsion
[ 7974 7965 7964 7962 ] final  -65.82 input  175.53 | X-H torsion
[ 8008 7997 7996 7995 ] final   73.81 input   59.86 | X-H torsion
[ 10167 10162 10161 10158 ] final  116.94 input  -65.29 | X-H torsion
[ 10718 10713 10712 10709 ] final   27.68 input   66.30 | X-H torsion
[ 10763 10752 10751 10750 ] final -144.00 input  -60.55 | X-H torsion
[ 11005 11000 10999 10996 ] final  -68.78 input  -57.11 | X-H torsion

> <Gold.Protein.ActiveResidues>
 VAL166  LYS551  ARG553  GLY616  TRP617  ASP618  TYR619  PRO620  LYS621  CYS622 
 ASP623  PHE694  ASN695  SER759  ASP760  ASP761  ALA762  ILE779  LEU786  VAL792 
 PHE793  MET794  SER795  GLU796  ALA797  LYS798  CYS799  TRP800  GLU811  SER814 

> <Gold.Protein.RotatedAtoms>
  151.6381  135.1016  160.0135 H   0  0  0  0  0  0  0  0  0  0  0  0  # atno 6907 bound_to 6896
  152.4069  133.6899  159.6373 H   0  0  0  0  0  0  0  0  0  0  0  0  # atno 6908 bound_to 6896
  150.7963  133.8609  159.3272 H   0  0  0  0  0  0  0  0  0  0  0  0  # atno 6909 bound_to 6896
  145.7495  140.8915  143.0487 H   0  0  0  0  0  0  0  0  0  0  0  0  # atno 7974 bound_to 7965
  155.7891  140.3480  155.5339 H   0  0  0  0  0  0  0  0  0  0  0  0  # atno 8008 bound_to 7997
  155.8652  140.0977  157.1607 H   0  0  0  0  0  0  0  0  0  0  0  0  # atno 8009 bound_to 7997
  154.4014  140.1351  156.3997 H   0  0  0  0  0  0  0  0  0  0  0  0  # atno 8010 bound_to 7997
  139.6213  144.7101  151.2629 H   0  0  0  0  0  0  0  0  0  0  0  0  # atno 10167 bound_to 10162
  157.2235  130.6990  149.6280 H   0  0  0  0  0  0  0  0  0  0  0  0  # atno 10718 bound_to 10713
  154.8446  135.3452  154.6277 H   0  0  0  0  0  0  0  0  0  0  0  0  # atno 10763 bound_to 10752
  153.6886  135.6976  153.5101 H   0  0  0  0  0  0  0  0  0  0  0  0  # atno 10764 bound_to 10752
  153.2612  135.4322  155.0851 H   0  0  0  0  0  0  0  0  0  0  0  0  # atno 10765 bound_to 10752
  141.1539  133.6749  156.6498 H   0  0  0  0  0  0  0  0  0  0  0  0  # atno 11005 bound_to 11000
  144.6853  139.9572  143.7479 LP  0  0  0  0  0  0  0  0  0  0  0  0  # atno 17320 bound_to 7965
  146.0370  139.3387  143.0720 LP  0  0  0  0  0  0  0  0  0  0  0  0  # atno 17321 bound_to 7965
  140.7383  143.6651  150.8130 LP  0  0  0  0  0  0  0  0  0  0  0  0  # atno 17342 bound_to 10162
  140.0262  143.5491  152.2779 LP  0  0  0  0  0  0  0  0  0  0  0  0  # atno 17343 bound_to 10162
  155.9680  130.4512  150.5727 LP  0  0  0  0  0  0  0  0  0  0  0  0  # atno 17370 bound_to 10713
  157.3552  131.0740  151.1681 LP  0  0  0  0  0  0  0  0  0  0  0  0  # atno 17371 bound_to 10713
  140.3329  134.7914  157.4340 LP  0  0  0  0  0  0  0  0  0  0  0  0  # atno 17394 bound_to 11000
  140.1002  134.5483  155.8360 LP  0  0  0  0  0  0  0  0  0  0  0  0  # atno 17395 bound_to 11000

$$$$
