AV-unprocessed.smi:2986|AV-procd|sdf|11383|dock7
  -GOLD-   2272016303D 1   1.00000     0.00000
 Structure written by MMmdl.
 41 43  0  0  0  0  0  0  0  0  2 V2000
  157.0663  140.3021  159.7235 C   0  0  0  0  0  0  0  0  0  0  0  0
  155.6782  140.1123  159.5161 O   0  0  0  0  0  0  0  0  0  0  0  0
  154.8978  140.5581  160.6139 C   0  0  0  0  0  0  0  0  0  0  0  0
  153.4659  140.0215  160.4846 C   0  0  0  0  0  0  0  0  0  0  0  0
  152.7724  140.5891  159.3379 N   0  0  0  0  0  0  0  0  0  0  0  0
  152.2716  139.9420  158.2562 C   0  0  0  0  0  0  0  0  0  0  0  0
  152.4287  138.1981  158.0287 S   0  0  0  0  0  0  0  0  0  0  0  0
  151.4535  137.6180  159.4570 C   0  0  0  0  0  0  0  0  0  0  0  0
  149.9509  137.5046  159.1782 C   0  0  0  0  0  0  0  0  0  0  0  0
  149.3374  138.4965  158.7822 O   0  0  0  0  0  0  0  0  0  0  0  0
  149.4906  136.2490  159.4007 N   0  5  0  0  0  0  0  0  0  0  0  0
  148.4742  136.0527  160.2522 C   0  0  0  0  0  0  0  0  0  0  0  0
  147.9387  134.7957  160.6443 C   0  0  0  0  0  0  0  0  0  0  0  0
  146.9300  135.1398  161.4987 C   0  0  0  0  0  0  0  0  0  0  0  0
  145.9511  134.3379  162.2853 C   0  0  0  0  0  0  0  0  0  0  0  0
  146.8470  136.4928  161.6109 O   0  0  0  0  0  0  0  0  0  0  0  0
  147.8357  137.0701  160.8054 N   0  0  0  0  0  0  0  0  0  0  0  0
  151.6393  140.7072  157.3663 N   0  0  0  0  0  0  0  0  0  0  0  0
  151.7771  141.9726  157.8993 C   0  0  0  0  0  0  0  0  0  0  0  0
  151.3372  143.2251  157.4148 C   0  0  0  0  0  0  0  0  0  0  0  0
  151.5917  144.4030  158.1473 C   0  0  0  0  0  0  0  0  0  0  0  0
  152.2848  144.3448  159.3739 C   0  0  0  0  0  0  0  0  0  0  0  0
  152.7305  143.1066  159.8749 C   0  0  0  0  0  0  0  0  0  0  0  0
  152.4789  141.9342  159.1368 C   0  0  0  0  0  0  0  0  0  0  0  0
  157.6186  139.9423  158.8555 H   0  0  0  0  0  0  0  0  0  0  0  0
  157.4140  139.7488  160.5966 H   0  0  0  0  0  0  0  0  0  0  0  0
  157.3042  141.3576  159.8601 H   0  0  0  0  0  0  0  0  0  0  0  0
  155.3386  140.2107  161.5494 H   0  0  0  0  0  0  0  0  0  0  0  0
  154.8857  141.6489  160.6454 H   0  0  0  0  0  0  0  0  0  0  0  0
  153.4816  138.9364  160.3817 H   0  0  0  0  0  0  0  0  0  0  0  0
  152.9021  140.2300  161.3918 H   0  0  0  0  0  0  0  0  0  0  0  0
  151.8619  136.6719  159.8136 H   0  0  0  0  0  0  0  0  0  0  0  0
  151.5973  138.3287  160.2708 H   0  0  0  0  0  0  0  0  0  0  0  0
  148.2487  133.8042  160.3503 H   0  0  0  0  0  0  0  0  0  0  0  0
  145.0308  134.1915  161.7201 H   0  0  0  0  0  0  0  0  0  0  0  0
  145.6995  134.8382  163.2207 H   0  0  0  0  0  0  0  0  0  0  0  0
  146.3598  133.3567  162.5275 H   0  0  0  0  0  0  0  0  0  0  0  0
  150.8065  143.2781  156.4759 H   0  0  0  0  0  0  0  0  0  0  0  0
  151.2532  145.3550  157.7659 H   0  0  0  0  0  0  0  0  0  0  0  0
  152.4748  145.2511  159.9296 H   0  0  0  0  0  0  0  0  0  0  0  0
  153.2606  143.0580  160.8142 H   0  0  0  0  0  0  0  0  0  0  0  0
  1  2  1  0  0  0  0
  1 25  1  0  0  0  0
  1 26  1  0  0  0  0
  1 27  1  0  0  0  0
  2  3  1  0  0  0  0
  3  4  1  0  0  0  0
  3 28  1  0  0  0  0
  3 29  1  0  0  0  0
  4  5  1  0  0  0  0
  4 30  1  0  0  0  0
  4 31  1  0  0  0  0
  5 24  1  0  0  0  0
  5  6  1  0  0  0  0
  6  7  1  0  0  0  0
  6 18  2  0  0  0  0
  7  8  1  0  0  0  0
  8  9  1  0  0  0  0
  8 32  1  0  0  0  0
  8 33  1  0  0  0  0
  9 10  2  0  0  0  0
  9 11  1  0  0  0  0
 11 12  1  0  0  0  0
 12 17  2  0  0  0  0
 12 13  1  0  0  0  0
 13 14  2  0  0  0  0
 13 34  1  0  0  0  0
 14 15  1  0  0  0  0
 14 16  1  0  0  0  0
 15 35  1  0  0  0  0
 15 36  1  0  0  0  0
 15 37  1  0  0  0  0
 16 17  1  0  0  0  0
 18 19  1  0  0  0  0
 19 24  2  0  0  0  0
 19 20  1  0  0  0  0
 20 21  2  0  0  0  0
 20 38  1  0  0  0  0
 21 22  1  0  0  0  0
 21 39  1  0  0  0  0
 22 23  2  0  0  0  0
 22 40  1  0  0  0  0
 23 24  1  0  0  0  0
 23 41  1  0  0  0  0
M  CHG  1  11  -1
M  END
> <s_m_source_file>
AV-unprocessed.smi

> <i_m_source_file_index>
2986

> <i_lp_mmshare_version>
43012

> <i_f3d_flags>
0

> <s_epik_input>
W2NIXTFbY0hdW2NIXVtjSF1jKGMxMiluKFtDSDJdW0NIMl1PW0NIM10pYyhuMilTW0NIMl1DKD1PKVtOSF1jM1tjSF1jKFtDSDNdKW9uMw==

> <s_epik_cmdline>
J2VwaWtfcHl0aG9uJywgJy1waCcsICc3LjAnLCAnLXRuJywgJzgnLCAnLW1hJywgJzIwMCcsICctbWV0YWxfYmluZGluZycsICctaW1hZScsICc8aW5maWxlLm1hZT4nLCAnLW9tYWUnLCAnPG91dGZpbGUubWFlPic=

> <r_epik_Ionization_Penalty>
4.21562

> <r_epik_Ionization_Penalty_Charging>
4.18608

> <r_epik_Ionization_Penalty_Neutral>
0.0295463

> <r_epik_State_Penalty>
4.20602

> <r_epik_Charging_Adjusted_Penalty>
8.3921

> <i_epik_Tot_Q>
-1

> <i_epik_Tot_abs_Q>
1

> <r_epik_Metal_State_Penalty>
0.721027

> <b_epik_Metal_Only>
1

> <s_lp_Force_Field>
OPLS_2005

> <r_lp_Energy>
2.9865

> <b_lp_Chiralities_Consistent>
1

> <s_lp_Variant>
AV-unprocessed.smi:2986-3

> <Gold.Version>
5.8.1

> <Gold.Id.Protein>
6NUR|6NUR_protein|mol2

> <Gold.PLP.Fitness>
61.5451

> <Gold.PLP.PLP>
-48.4987

> <Gold.PLP.part.hbond>
-5.1686

> <Gold.PLP.part.metal>
0.0000

> <Gold.PLP.part.buried>
-5.2157

> <Gold.PLP.part.nonpolar>
-39.6566

> <Gold.PLP.part.repulsive>
0.0000

> <Gold.PLP.ligand.clash>
0.0000

> <Gold.PLP.ligand.torsion>
0.7601

> <Gold.PLP.Chemscore.Hbond>
4.7529

> <Gold.PLP.Chemscore.CHOScore>
0.0000

> <Gold.PLP.Chemscore.Metal>
0.0000

> <Gold.Chemscore.Hbonds>
donor molecule, donor type, donor heavy atom, donor atom, acceptor molecule, acceptor atom, score
      P1  H  6896  6907       L1    11  2.00
      P1  H  6931  6943       L1    17  0.91
      P1  H  6934  6947       L1    17  0.72
      P1  H  7997  8008       L1     2  0.66

> <Gold.PLP.Chemscore.Internal.Correction>
0.3079

> <Gold.Rescore>
     Score         DG    S(hbond)    S(metal)    S(lipo)     H(rot)  DE(clash)    DE(int)     intcor
     20.18     -21.76       2.35        0.00     120.49       2.21       0.06       1.53       ----

> <Gold.Chemscore.Fitness>
20.1789

> <Gold.Chemscore.DG>
-21.7635

> <Gold.Chemscore.ZeroCoef>
-5.4800

> <Gold.Chemscore.Hbond>
2.3464

> <Gold.Chemscore.Metal>
0.0000

> <Gold.Chemscore.Lipo>
120.4893

> <Gold.Chemscore.Internal_Hbond>
0.0000

> <Gold.Chemscore.DEClash>
0.0571

> <Gold.Chemscore.DEInternal>
1.5275

> <Gold.Chemscore.Rot>
2.2073

> <Gold.Chemscore.Internal.Correction>
   9.000000E+99

> <Gold.Chemscore.Hbonds>
donor molecule, donor type, donor heavy atom, donor atom, acceptor molecule, acceptor atom, score
      P1  H  6896  6907       L1    11  0.56
      P1  H  6931  6943       L1    17  0.56
      P1  H  6934  6947       L1    17  0.13
      P1  H  7997  8008       L1     2  0.35

> <Gold.Chemscore.Hbond.Weighted>
-7.8371

> <Gold.Chemscore.Metal.Weighted>
-0.0000

> <Gold.Chemscore.Lipo.Weighted>
-14.0972

> <Gold.Chemscore.Internal_Hbond.Weighted>
0.0000

> <Gold.Chemscore.DEClash.Weighted>
0.0571

> <Gold.Chemscore.DEInternal.Weighted>
1.5275

> <Gold.Chemscore.Rot.Weighted>
5.6508

> <Gold.Chemscore.Internal.Correction.Weighted>
   9.000000E+99

> <Gold.Protein.RotatedTorsions>
[ 6907 6896 6895 6894 ] final  -34.04 input  -60.11 | X-H torsion
[ 7974 7965 7964 7962 ] final -123.39 input  175.53 | X-H torsion
[ 8008 7997 7996 7995 ] final -135.89 input   59.86 | X-H torsion
[ 10167 10162 10161 10158 ] final -124.37 input  -65.29 | X-H torsion
[ 10718 10713 10712 10709 ] final -111.99 input   66.30 | X-H torsion
[ 10763 10752 10751 10750 ] final  169.86 input  -60.55 | X-H torsion
[ 11005 11000 10999 10996 ] final  -87.45 input  -57.11 | X-H torsion

> <Gold.Protein.ActiveResidues>
 VAL166  LYS551  ARG553  GLY616  TRP617  ASP618  TYR619  PRO620  LYS621  CYS622 
 ASP623  PHE694  ASN695  SER759  ASP760  ASP761  ALA762  ILE779  LEU786  VAL792 
 PHE793  MET794  SER795  GLU796  ALA797  LYS798  CYS799  TRP800  GLU811  SER814 

> <Gold.Protein.RotatedAtoms>
  151.0577  134.9716  159.8244 H   0  0  0  0  0  0  0  0  0  0  0  0  # atno 6907 bound_to 6896
  152.5391  134.2457  159.8889 H   0  0  0  0  0  0  0  0  0  0  0  0  # atno 6908 bound_to 6896
  151.2475  133.4324  159.2644 H   0  0  0  0  0  0  0  0  0  0  0  0  # atno 6909 bound_to 6896
  145.0192  140.7973  143.4391 H   0  0  0  0  0  0  0  0  0  0  0  0  # atno 7974 bound_to 7965
  155.3862  140.0497  157.3042 H   0  0  0  0  0  0  0  0  0  0  0  0  # atno 8008 bound_to 7997
  154.5058  140.2174  155.9215 H   0  0  0  0  0  0  0  0  0  0  0  0  # atno 8009 bound_to 7997
  156.1524  140.3133  155.8675 H   0  0  0  0  0  0  0  0  0  0  0  0  # atno 8010 bound_to 7997
  139.9936  143.5615  152.2332 H   0  0  0  0  0  0  0  0  0  0  0  0  # atno 10167 bound_to 10162
  156.0679  130.5896  150.8448 H   0  0  0  0  0  0  0  0  0  0  0  0  # atno 10718 bound_to 10713
  154.3892  135.2754  155.2165 H   0  0  0  0  0  0  0  0  0  0  0  0  # atno 10763 bound_to 10752
  154.4238  135.5993  153.6030 H   0  0  0  0  0  0  0  0  0  0  0  0  # atno 10764 bound_to 10752
  152.9832  135.5979  154.4145 H   0  0  0  0  0  0  0  0  0  0  0  0  # atno 10765 bound_to 10752
  141.1616  133.7512  156.9308 H   0  0  0  0  0  0  0  0  0  0  0  0  # atno 11005 bound_to 11000
  145.1919  139.2297  143.5238 LP  0  0  0  0  0  0  0  0  0  0  0  0  # atno 17320 bound_to 7965
  146.3483  140.1716  142.8589 LP  0  0  0  0  0  0  0  0  0  0  0  0  # atno 17321 bound_to 7965
  139.6322  144.7645  151.2511 LP  0  0  0  0  0  0  0  0  0  0  0  0  # atno 17342 bound_to 10162
  140.7446  143.6459  150.8292 LP  0  0  0  0  0  0  0  0  0  0  0  0  # atno 17343 bound_to 10162
  157.5732  131.0946  150.9385 LP  0  0  0  0  0  0  0  0  0  0  0  0  # atno 17370 bound_to 10713
  156.9597  130.5450  149.5285 LP  0  0  0  0  0  0  0  0  0  0  0  0  # atno 17371 bound_to 10713
  140.1387  134.9308  157.2437 LP  0  0  0  0  0  0  0  0  0  0  0  0  # atno 17394 bound_to 11000
  140.2863  134.3292  155.7328 LP  0  0  0  0  0  0  0  0  0  0  0  0  # atno 17395 bound_to 11000

$$$$
