AV-unprocessed.smi:2986|AV-procd|sdf|11382|dock7
  -GOLD-   2272016303D 1   1.00000     0.00000
 Structure written by MMmdl.
 43 45  0  0  0  0  0  0  0  0  2 V2000
  150.4266  138.3684  154.2467 C   0  0  0  0  0  0  0  0  0  0  0  0
  151.5290  139.2409  154.4216 O   0  0  0  0  0  0  0  0  0  0  0  0
  152.2155  139.0109  155.6392 C   0  0  0  0  0  0  0  0  0  0  0  0
  151.3107  139.4402  156.7996 C   0  0  0  0  0  0  0  0  0  0  0  0
  151.1027  140.8936  156.8277 N   0  0  0  0  0  0  0  0  0  0  0  0
  150.3969  141.7034  155.9913 C   0  0  0  0  0  0  0  0  0  0  0  0
  149.4846  141.1997  154.5698 S   0  0  0  0  0  0  0  0  0  0  0  0
  147.8351  140.7975  155.2137 C   0  0  0  0  0  0  0  0  0  0  0  0
  146.9162  142.0169  155.2847 C   0  0  0  0  0  0  0  0  0  0  0  0
  146.5815  142.4554  156.3841 O   0  0  0  0  0  0  0  0  0  0  0  0
  146.5229  142.5217  154.1015 N   0  0  0  0  0  0  0  0  0  0  0  0
  145.6282  143.5926  153.8516 C   0  0  0  0  0  0  0  0  0  0  0  0
  144.6933  144.1445  154.7748 C   0  0  0  0  0  0  0  0  0  0  0  0
  144.0953  145.1351  154.0482 C   0  0  0  0  0  0  0  0  0  0  0  0
  143.0288  146.1253  154.3685 C   0  0  0  0  0  0  0  0  0  0  0  0
  144.6168  145.1831  152.7929 O   0  0  0  0  0  0  0  0  0  0  0  0
  145.5992  144.1930  152.6765 N   0  0  0  0  0  0  0  0  0  0  0  0
  150.4888  142.9752  156.4670 N   0  3  0  0  0  0  0  0  0  0  0  0
  151.2777  142.9832  157.6187 C   0  0  0  0  0  0  0  0  0  0  0  0
  151.6611  144.0287  158.4532 C   0  0  0  0  0  0  0  0  0  0  0  0
  152.4784  143.6934  159.5528 C   0  0  0  0  0  0  0  0  0  0  0  0
  152.8825  142.3632  159.7895 C   0  0  0  0  0  0  0  0  0  0  0  0
  152.4857  141.3107  158.9384 C   0  0  0  0  0  0  0  0  0  0  0  0
  151.6778  141.6504  157.8539 C   0  0  0  0  0  0  0  0  0  0  0  0
  149.9285  138.5919  153.3034 H   0  0  0  0  0  0  0  0  0  0  0  0
  149.6970  138.4880  155.0487 H   0  0  0  0  0  0  0  0  0  0  0  0
  150.7491  137.3266  154.2190 H   0  0  0  0  0  0  0  0  0  0  0  0
  152.4717  137.9539  155.7279 H   0  0  0  0  0  0  0  0  0  0  0  0
  153.1462  139.5803  155.6587 H   0  0  0  0  0  0  0  0  0  0  0  0
  150.3349  138.9620  156.7122 H   0  0  0  0  0  0  0  0  0  0  0  0
  151.7227  139.1248  157.7587 H   0  0  0  0  0  0  0  0  0  0  0  0
  147.3859  140.0374  154.5731 H   0  0  0  0  0  0  0  0  0  0  0  0
  147.9360  140.3588  156.2066 H   0  0  0  0  0  0  0  0  0  0  0  0
  146.8721  142.0515  153.2789 H   0  0  0  0  0  0  0  0  0  0  0  0
  144.4851  143.8763  155.7994 H   0  0  0  0  0  0  0  0  0  0  0  0
  142.7028  146.0260  155.4039 H   0  0  0  0  0  0  0  0  0  0  0  0
  142.1613  145.9801  153.7246 H   0  0  0  0  0  0  0  0  0  0  0  0
  143.3913  147.1432  154.2247 H   0  0  0  0  0  0  0  0  0  0  0  0
  151.3529  145.0485  158.2744 H   0  0  0  0  0  0  0  0  0  0  0  0
  152.8022  144.4721  160.2281 H   0  0  0  0  0  0  0  0  0  0  0  0
  153.5098  142.1451  160.6417 H   0  0  0  0  0  0  0  0  0  0  0  0
  152.8010  140.2951  159.1276 H   0  0  0  0  0  0  0  0  0  0  0  0
  150.0441  143.7748  156.0351 H   0  0  0  0  0  0  0  0  0  0  0  0
  1  2  1  0  0  0  0
  1 25  1  0  0  0  0
  1 26  1  0  0  0  0
  1 27  1  0  0  0  0
  2  3  1  0  0  0  0
  3  4  1  0  0  0  0
  3 28  1  0  0  0  0
  3 29  1  0  0  0  0
  4  5  1  0  0  0  0
  4 30  1  0  0  0  0
  4 31  1  0  0  0  0
  5 24  1  0  0  0  0
  5  6  1  0  0  0  0
  6  7  1  0  0  0  0
  6 18  2  0  0  0  0
  7  8  1  0  0  0  0
  8  9  1  0  0  0  0
  8 32  1  0  0  0  0
  8 33  1  0  0  0  0
  9 10  2  0  0  0  0
  9 11  1  0  0  0  0
 11 12  1  0  0  0  0
 11 34  1  0  0  0  0
 12 17  2  0  0  0  0
 12 13  1  0  0  0  0
 13 14  2  0  0  0  0
 13 35  1  0  0  0  0
 14 15  1  0  0  0  0
 14 16  1  0  0  0  0
 15 36  1  0  0  0  0
 15 37  1  0  0  0  0
 15 38  1  0  0  0  0
 16 17  1  0  0  0  0
 18 19  1  0  0  0  0
 18 43  1  0  0  0  0
 19 24  2  0  0  0  0
 19 20  1  0  0  0  0
 20 21  2  0  0  0  0
 20 39  1  0  0  0  0
 21 22  1  0  0  0  0
 21 40  1  0  0  0  0
 22 23  2  0  0  0  0
 22 41  1  0  0  0  0
 23 24  1  0  0  0  0
 23 42  1  0  0  0  0
M  CHG  1  18   1
M  END
> <s_m_source_file>
AV-unprocessed.smi

> <i_m_source_file_index>
2986

> <i_lp_mmshare_version>
43012

> <i_f3d_flags>
0

> <s_epik_input>
W2NIXTFbY0hdW2NIXVtjSF1jKGMxMiluKFtDSDJdW0NIMl1PW0NIM10pYyhuMilTW0NIMl1DKD1PKVtOSF1jM1tjSF1jKFtDSDNdKW9uMw==

> <s_epik_cmdline>
J2VwaWtfcHl0aG9uJywgJy1waCcsICc3LjAnLCAnLXRuJywgJzgnLCAnLW1hJywgJzIwMCcsICctbWV0YWxfYmluZGluZycsICctaW1hZScsICc8aW5maWxlLm1hZT4nLCAnLW9tYWUnLCAnPG91dGZpbGUubWFlPic=

> <r_epik_Ionization_Penalty>
1.88527

> <r_epik_Ionization_Penalty_Charging>
1.88465

> <r_epik_Ionization_Penalty_Neutral>
0.000624705

> <r_epik_State_Penalty>
2.00469

> <r_epik_Charging_Adjusted_Penalty>
3.88934

> <i_epik_Tot_Q>
1

> <i_epik_Tot_abs_Q>
1

> <r_epik_Metal_State_Penalty>
2.24687

> <b_epik_Metal_Only>
0

> <s_lp_Force_Field>
OPLS_2005

> <r_lp_Energy>
12.3116

> <b_lp_Chiralities_Consistent>
1

> <s_lp_Variant>
AV-unprocessed.smi:2986-2

> <Gold.Version>
5.8.1

> <Gold.Id.Protein>
6NUR|6NUR_protein|mol2

> <Gold.PLP.Fitness>
58.5227

> <Gold.PLP.PLP>
-51.0113

> <Gold.PLP.part.hbond>
-3.6995

> <Gold.PLP.part.metal>
0.0000

> <Gold.PLP.part.buried>
-6.4720

> <Gold.PLP.part.nonpolar>
-42.9245

> <Gold.PLP.part.repulsive>
0.8406

> <Gold.PLP.ligand.clash>
0.0000

> <Gold.PLP.ligand.torsion>
0.7964

> <Gold.PLP.Chemscore.Hbond>
3.0000

> <Gold.PLP.Chemscore.CHOScore>
0.0000

> <Gold.PLP.Chemscore.Metal>
0.0000

> <Gold.Chemscore.Hbonds>
donor molecule, donor type, donor heavy atom, donor atom, acceptor molecule, acceptor atom, score
      L1  H    18    43       P1  8028  2.00
      P1  H  7989  7998       L1     2  1.00

> <Gold.PLP.Chemscore.Internal.Correction>
0.1042

> <Gold.Rescore>
     Score         DG    S(hbond)    S(metal)    S(lipo)     H(rot)  DE(clash)    DE(int)     intcor
     16.92     -19.12       1.80        0.00     116.38       2.35       0.13       2.07       ----

> <Gold.Chemscore.Fitness>
16.9172

> <Gold.Chemscore.DG>
-19.1188

> <Gold.Chemscore.ZeroCoef>
-5.4800

> <Gold.Chemscore.Hbond>
1.8044

> <Gold.Chemscore.Metal>
0.0000

> <Gold.Chemscore.Lipo>
116.3789

> <Gold.Chemscore.Internal_Hbond>
0.0000

> <Gold.Chemscore.DEClash>
0.1320

> <Gold.Chemscore.DEInternal>
2.0696

> <Gold.Chemscore.Rot>
2.3453

> <Gold.Chemscore.Internal.Correction>
   9.000000E+99

> <Gold.Chemscore.Hbonds>
donor molecule, donor type, donor heavy atom, donor atom, acceptor molecule, acceptor atom, score
      L1  H    18    43       P1  8028  0.93
      P1  H  7989  7998       L1     2  0.96

> <Gold.Chemscore.Hbond.Weighted>
-6.0265

> <Gold.Chemscore.Metal.Weighted>
-0.0000

> <Gold.Chemscore.Lipo.Weighted>
-13.6163

> <Gold.Chemscore.Internal_Hbond.Weighted>
0.0000

> <Gold.Chemscore.DEClash.Weighted>
0.1320

> <Gold.Chemscore.DEInternal.Weighted>
2.0696

> <Gold.Chemscore.Rot.Weighted>
6.0040

> <Gold.Chemscore.Internal.Correction.Weighted>
   9.000000E+99

> <Gold.Protein.RotatedTorsions>
[ 6907 6896 6895 6894 ] final  -98.83 input  -60.11 | X-H torsion
[ 7974 7965 7964 7962 ] final  -32.68 input  175.53 | X-H torsion
[ 8008 7997 7996 7995 ] final -164.38 input   59.86 | X-H torsion
[ 10167 10162 10161 10158 ] final -102.66 input  -65.29 | X-H torsion
[ 10718 10713 10712 10709 ] final   42.39 input   66.30 | X-H torsion
[ 10763 10752 10751 10750 ] final  -44.25 input  -60.55 | X-H torsion
[ 11005 11000 10999 10996 ] final   33.39 input  -57.11 | X-H torsion

> <Gold.Protein.ActiveResidues>
 VAL166  LYS551  ARG553  GLY616  TRP617  ASP618  TYR619  PRO620  LYS621  CYS622 
 ASP623  PHE694  ASN695  SER759  ASP760  ASP761  ALA762  ILE779  LEU786  VAL792 
 PHE793  MET794  SER795  GLU796  ALA797  LYS798  CYS799  TRP800  GLU811  SER814 

> <Gold.Protein.RotatedAtoms>
  150.7059  134.1135  159.4008 H   0  0  0  0  0  0  0  0  0  0  0  0  # atno 6907 bound_to 6896
  151.9121  135.0332  160.0524 H   0  0  0  0  0  0  0  0  0  0  0  0  # atno 6908 bound_to 6896
  152.2327  133.5035  159.5261 H   0  0  0  0  0  0  0  0  0  0  0  0  # atno 6909 bound_to 6896
  146.0971  140.5822  142.8838 H   0  0  0  0  0  0  0  0  0  0  0  0  # atno 7974 bound_to 7965
  155.8348  140.0939  157.1770 H   0  0  0  0  0  0  0  0  0  0  0  0  # atno 8008 bound_to 7997
  154.3980  140.1412  156.3719 H   0  0  0  0  0  0  0  0  0  0  0  0  # atno 8009 bound_to 7997
  155.8127  140.3449  155.5470 H   0  0  0  0  0  0  0  0  0  0  0  0  # atno 8010 bound_to 7997
  140.2283  143.3625  152.0909 H   0  0  0  0  0  0  0  0  0  0  0  0  # atno 10167 bound_to 10162
  157.4043  130.7878  149.7375 H   0  0  0  0  0  0  0  0  0  0  0  0  # atno 10718 bound_to 10713
  154.0089  135.6684  153.4764 H   0  0  0  0  0  0  0  0  0  0  0  0  # atno 10763 bound_to 10752
  153.0629  135.5017  154.8131 H   0  0  0  0  0  0  0  0  0  0  0  0  # atno 10764 bound_to 10752
  154.7007  135.3078  154.9308 H   0  0  0  0  0  0  0  0  0  0  0  0  # atno 10765 bound_to 10752
  140.2636  134.3164  155.7850 H   0  0  0  0  0  0  0  0  0  0  0  0  # atno 11005 bound_to 11000
  144.7403  140.4925  143.6874 LP  0  0  0  0  0  0  0  0  0  0  0  0  # atno 17320 bound_to 7965
  145.5928  139.1497  143.3173 LP  0  0  0  0  0  0  0  0  0  0  0  0  # atno 17321 bound_to 7965
  139.5119  144.6908  151.5764 LP  0  0  0  0  0  0  0  0  0  0  0  0  # atno 17342 bound_to 10162
  140.6204  143.9268  150.6522 LP  0  0  0  0  0  0  0  0  0  0  0  0  # atno 17343 bound_to 10162
  155.9832  130.4002  150.3376 LP  0  0  0  0  0  0  0  0  0  0  0  0  # atno 17370 bound_to 10713
  157.1507  131.0320  151.2886 LP  0  0  0  0  0  0  0  0  0  0  0  0  # atno 17371 bound_to 10713
  141.2187  133.7424  156.9225 LP  0  0  0  0  0  0  0  0  0  0  0  0  # atno 17394 bound_to 11000
  140.1441  134.9274  157.2506 LP  0  0  0  0  0  0  0  0  0  0  0  0  # atno 17395 bound_to 11000

$$$$
