AV-unprocessed.smi:1644|AV-procd|sdf|6586|dock10
  -GOLD-   22720 7283D 1   1.00000     0.00000
 Structure written by MMmdl.
 49 51  0  0  0  0  0  0  0  0  1 V2000
  151.6119  130.9345  164.5231 C   0  0  0  0  0  0  0  0  0  0  0  0
  152.6315  131.9981  164.9437 C   0  0  0  0  0  0  0  0  0  0  0  0
  153.3947  132.5878  163.7403 C   0  0  0  0  0  0  0  0  0  0  0  0
  154.3735  133.7394  164.0637 C   0  0  2  0  0  0  0  0  0  0  0  0
  153.7738  134.7989  164.8478 N   0  0  0  0  0  0  0  0  0  0  0  0
  153.8667  135.9942  164.2512 C   0  0  0  0  0  0  0  0  0  0  0  0
  153.4344  137.0481  164.7149 O   0  0  0  0  0  0  0  0  0  0  0  0
  154.5119  135.8387  163.0791 N   0  0  0  0  0  0  0  0  0  0  0  0
  154.8091  136.9332  162.1435 C   0  0  0  0  0  0  0  0  0  0  0  0
  155.6533  138.0833  162.7520 C   0  0  1  0  0  0  0  0  0  0  0  0
  156.8621  138.1576  162.0259 O   0  0  0  0  0  0  0  0  0  0  0  0
  155.0148  139.4918  162.7302 C   0  0  0  0  0  0  0  0  0  0  0  0
  154.5558  139.9221  161.4208 N   0  0  0  0  0  0  0  0  0  0  0  0
  154.7124  139.2607  160.2574 C   0  0  0  0  0  0  0  0  0  0  0  0
  154.2030  139.8203  159.1642 N   0  0  0  0  0  0  0  0  0  0  0  0
  153.6728  140.9926  159.6729 C   0  0  0  0  0  0  0  0  0  0  0  0
  152.9711  142.0338  159.0276 C   0  0  0  0  0  0  0  0  0  0  0  0
  152.5102  143.1550  159.7529 C   0  0  0  0  0  0  0  0  0  0  0  0
  151.7480  144.2457  159.0214 C   0  0  0  0  0  0  0  0  0  0  0  0
  152.7606  143.2518  161.1448 C   0  0  0  0  0  0  0  0  0  0  0  0
  152.2747  144.4464  161.9462 C   0  0  0  0  0  0  0  0  0  0  0  0
  153.4639  142.2227  161.8040 C   0  0  0  0  0  0  0  0  0  0  0  0
  153.8992  141.1007  161.0766 C   0  0  0  0  0  0  0  0  0  0  0  0
  154.8103  134.5502  162.8581 C   0  0  0  0  0  0  0  0  0  0  0  0
  155.3479  134.0665  161.8622 O   0  0  0  0  0  0  0  0  0  0  0  0
  151.0878  130.5338  165.3911 H   0  0  0  0  0  0  0  0  0  0  0  0
  152.0982  130.1018  164.0140 H   0  0  0  0  0  0  0  0  0  0  0  0
  150.8650  131.3514  163.8470 H   0  0  0  0  0  0  0  0  0  0  0  0
  152.1112  132.7890  165.4846 H   0  0  0  0  0  0  0  0  0  0  0  0
  153.3346  131.5530  165.6483 H   0  0  0  0  0  0  0  0  0  0  0  0
  153.9554  131.7874  163.2561 H   0  0  0  0  0  0  0  0  0  0  0  0
  152.6771  132.9346  162.9953 H   0  0  0  0  0  0  0  0  0  0  0  0
  155.2558  133.3606  164.5812 H   0  0  0  0  0  0  0  0  0  0  0  0
  153.3388  134.6402  165.7452 H   0  0  0  0  0  0  0  0  0  0  0  0
  155.3538  136.4888  161.3084 H   0  0  0  0  0  0  0  0  0  0  0  0
  153.8971  137.3425  161.7061 H   0  0  0  0  0  0  0  0  0  0  0  0
  155.9417  137.8328  163.7711 H   0  0  0  0  0  0  0  0  0  0  0  0
  157.5583  138.3816  162.6246 H   0  0  0  0  0  0  0  0  0  0  0  0
  154.1596  139.5227  163.4065 H   0  0  0  0  0  0  0  0  0  0  0  0
  155.7297  140.2273  163.1027 H   0  0  0  0  0  0  0  0  0  0  0  0
  155.2085  138.3021  160.2137 H   0  0  0  0  0  0  0  0  0  0  0  0
  152.7853  141.9614  157.9661 H   0  0  0  0  0  0  0  0  0  0  0  0
  152.2752  145.1969  159.0977 H   0  0  0  0  0  0  0  0  0  0  0  0
  150.7516  144.3661  159.4470 H   0  0  0  0  0  0  0  0  0  0  0  0
  151.6333  144.0111  157.9628 H   0  0  0  0  0  0  0  0  0  0  0  0
  152.5709  144.3699  162.9927 H   0  0  0  0  0  0  0  0  0  0  0  0
  151.1871  144.5121  161.9103 H   0  0  0  0  0  0  0  0  0  0  0  0
  152.6924  145.3709  161.5473 H   0  0  0  0  0  0  0  0  0  0  0  0
  153.6548  142.2864  162.8647 H   0  0  0  0  0  0  0  0  0  0  0  0
  1  2  1  0  0  0  0
  1 26  1  0  0  0  0
  1 27  1  0  0  0  0
  1 28  1  0  0  0  0
  2  3  1  0  0  0  0
  2 29  1  0  0  0  0
  2 30  1  0  0  0  0
  3  4  1  0  0  0  0
  3 31  1  0  0  0  0
  3 32  1  0  0  0  0
  4 24  1  0  0  0  0
  4  5  1  0  0  0  0
  4 33  1  0  0  0  0
  5  6  1  0  0  0  0
  5 34  1  0  0  0  0
  6  7  2  0  0  0  0
  6  8  1  0  0  0  0
  8  9  1  0  0  0  0
  8 24  1  0  0  0  0
  9 10  1  0  0  0  0
  9 35  1  0  0  0  0
  9 36  1  0  0  0  0
 10 11  1  0  0  0  0
 10 12  1  0  0  0  0
 10 37  1  0  0  0  0
 11 38  1  0  0  0  0
 12 13  1  0  0  0  0
 12 39  1  0  0  0  0
 12 40  1  0  0  0  0
 13 23  1  0  0  0  0
 13 14  1  0  0  0  0
 14 15  2  0  0  0  0
 14 41  1  0  0  0  0
 15 16  1  0  0  0  0
 16 23  2  0  0  0  0
 16 17  1  0  0  0  0
 17 18  2  0  0  0  0
 17 42  1  0  0  0  0
 18 19  1  0  0  0  0
 18 20  1  0  0  0  0
 19 43  1  0  0  0  0
 19 44  1  0  0  0  0
 19 45  1  0  0  0  0
 20 21  1  0  0  0  0
 20 22  2  0  0  0  0
 21 46  1  0  0  0  0
 21 47  1  0  0  0  0
 21 48  1  0  0  0  0
 22 23  1  0  0  0  0
 22 49  1  0  0  0  0
 24 25  2  0  0  0  0
M  END
> <s_m_source_file>
AV-unprocessed.smi

> <i_m_source_file_index>
1644

> <i_lp_mmshare_version>
43012

> <i_f3d_flags>
0

> <s_epik_input>
W0NIM11bQ0gyXVtDSDJdW0NAQEhdMVtOSF1DKD1PKU4oQzE9TylbQ0gyXVtDQEhdKFtPSF0pW0NIMl1uKFtjSF1uMiljKGMyMylbY0hdYyhbQ0gzXSljKFtjSF0zKVtDSDNd

> <s_epik_cmdline>
J2VwaWtfcHl0aG9uJywgJy1waCcsICc3LjAnLCAnLXRuJywgJzgnLCAnLW1hJywgJzIwMCcsICctbWV0YWxfYmluZGluZycsICctaW1hZScsICc8aW5maWxlLm1hZT4nLCAnLW9tYWUnLCAnPG91dGZpbGUubWFlPic=

> <r_lp_tautomer_probability>
1

> <r_epik_Ionization_Penalty>
0.10693

> <r_epik_Ionization_Penalty_Charging>
0

> <r_epik_Ionization_Penalty_Neutral>
0.10693

> <r_epik_State_Penalty>
0.096713

> <r_epik_Charging_Adjusted_Penalty>
0.096713

> <i_epik_Tot_Q>
0

> <i_epik_Tot_abs_Q>
0

> <r_epik_Metal_State_Penalty>
0.102757

> <b_epik_Metal_Only>
0

> <s_lp_Force_Field>
OPLS_2005

> <r_lp_Energy>
20.4665

> <b_lp_Chiralities_Consistent>
1

> <s_lp_Variant>
AV-unprocessed.smi:1644-3

> <Gold.Version>
5.8.1

> <Gold.Id.Protein>
6NUR|6NUR_protein|mol2

> <Gold.PLP.Fitness>
54.4262

> <Gold.PLP.PLP>
-53.3662

> <Gold.PLP.part.hbond>
-2.5347

> <Gold.PLP.part.metal>
0.0000

> <Gold.PLP.part.buried>
-2.8764

> <Gold.PLP.part.nonpolar>
-47.2411

> <Gold.PLP.part.repulsive>
0.1480

> <Gold.PLP.ligand.clash>
0.2803

> <Gold.PLP.ligand.torsion>
0.8899

> <Gold.PLP.Chemscore.Hbond>
1.0000

> <Gold.PLP.Chemscore.CHOScore>
0.0000

> <Gold.PLP.Chemscore.Metal>
0.0000

> <Gold.Chemscore.Hbonds>
donor molecule, donor type, donor heavy atom, donor atom, acceptor molecule, acceptor atom, score
      P1  H  7997  8009       L1    15  0.89

> <Gold.PLP.Chemscore.Internal.Correction>
0.1201

> <Gold.Rescore>
     Score         DG    S(hbond)    S(metal)    S(lipo)     H(rot)  DE(clash)    DE(int)     intcor
     14.15     -16.46       0.86        0.00     128.92       2.72       0.20       2.11       ----

> <Gold.Chemscore.Fitness>
14.1525

> <Gold.Chemscore.DG>
-16.4594

> <Gold.Chemscore.ZeroCoef>
-5.4800

> <Gold.Chemscore.Hbond>
0.8571

> <Gold.Chemscore.Metal>
0.0000

> <Gold.Chemscore.Lipo>
128.9155

> <Gold.Chemscore.Internal_Hbond>
0.0000

> <Gold.Chemscore.DEClash>
0.1956

> <Gold.Chemscore.DEInternal>
2.1113

> <Gold.Chemscore.Rot>
2.7212

> <Gold.Chemscore.Internal.Correction>
   9.000000E+99

> <Gold.Chemscore.Hbonds>
donor molecule, donor type, donor heavy atom, donor atom, acceptor molecule, acceptor atom, score
      P1  H  7997  8009       L1    15  0.74

> <Gold.Chemscore.Hbond.Weighted>
-2.8626

> <Gold.Chemscore.Metal.Weighted>
-0.0000

> <Gold.Chemscore.Lipo.Weighted>
-15.0831

> <Gold.Chemscore.Internal_Hbond.Weighted>
0.0000

> <Gold.Chemscore.DEClash.Weighted>
0.1956

> <Gold.Chemscore.DEInternal.Weighted>
2.1113

> <Gold.Chemscore.Rot.Weighted>
6.9663

> <Gold.Chemscore.Internal.Correction.Weighted>
   9.000000E+99

> <Gold.Protein.RotatedTorsions>
[ 6907 6896 6895 6894 ] final   37.69 input  -60.11 | X-H torsion
[ 7974 7965 7964 7962 ] final -155.42 input  175.53 | X-H torsion
[ 8008 7997 7996 7995 ] final  114.06 input   59.86 | X-H torsion
[ 10167 10162 10161 10158 ] final -154.27 input  -65.29 | X-H torsion
[ 10718 10713 10712 10709 ] final  -12.28 input   66.30 | X-H torsion
[ 10763 10752 10751 10750 ] final   60.34 input  -60.55 | X-H torsion
[ 11005 11000 10999 10996 ] final  129.96 input  -57.11 | X-H torsion

> <Gold.Protein.ActiveResidues>
 VAL166  LYS551  ARG553  GLY616  TRP617  ASP618  TYR619  PRO620  LYS621  CYS622 
 ASP623  PHE694  ASN695  SER759  ASP760  ASP761  ALA762  ILE779  LEU786  VAL792 
 PHE793  MET794  SER795  GLU796  ALA797  LYS798  CYS799  TRP800  GLU811  SER814 

> <Gold.Protein.RotatedAtoms>
  152.1465  134.9022  160.0550 H   0  0  0  0  0  0  0  0  0  0  0  0  # atno 6907 bound_to 6896
  152.0070  133.3842  159.4212 H   0  0  0  0  0  0  0  0  0  0  0  0  # atno 6908 bound_to 6896
  150.6871  134.3694  159.5029 H   0  0  0  0  0  0  0  0  0  0  0  0  # atno 6909 bound_to 6896
  144.7641  140.4251  143.5955 H   0  0  0  0  0  0  0  0  0  0  0  0  # atno 7974 bound_to 7965
  156.2298  140.2967  156.0158 H   0  0  0  0  0  0  0  0  0  0  0  0  # atno 8008 bound_to 7997
  155.2257  140.0417  157.2972 H   0  0  0  0  0  0  0  0  0  0  0  0  # atno 8009 bound_to 7997
  154.5976  140.2418  155.7844 H   0  0  0  0  0  0  0  0  0  0  0  0  # atno 8010 bound_to 7997
  139.7027  143.9236  152.2435 H   0  0  0  0  0  0  0  0  0  0  0  0  # atno 10167 bound_to 10162
  156.6469  130.4944  149.6075 H   0  0  0  0  0  0  0  0  0  0  0  0  # atno 10718 bound_to 10713
  152.9918  135.5540  154.5858 H   0  0  0  0  0  0  0  0  0  0  0  0  # atno 10763 bound_to 10752
  154.5230  135.2809  155.1248 H   0  0  0  0  0  0  0  0  0  0  0  0  # atno 10764 bound_to 10752
  154.2594  135.6384  153.5322 H   0  0  0  0  0  0  0  0  0  0  0  0  # atno 10765 bound_to 10752
  139.9645  134.9594  156.9224 H   0  0  0  0  0  0  0  0  0  0  0  0  # atno 11005 bound_to 11000
  145.6526  139.1567  143.2853 LP  0  0  0  0  0  0  0  0  0  0  0  0  # atno 17320 bound_to 7965
  146.1732  140.6614  142.9223 LP  0  0  0  0  0  0  0  0  0  0  0  0  # atno 17321 bound_to 7965
  139.9083  144.6871  150.8589 LP  0  0  0  0  0  0  0  0  0  0  0  0  # atno 17342 bound_to 10162
  140.7714  143.3462  151.2107 LP  0  0  0  0  0  0  0  0  0  0  0  0  # atno 17343 bound_to 10162
  156.2115  130.6682  151.1274 LP  0  0  0  0  0  0  0  0  0  0  0  0  # atno 17370 bound_to 10713
  157.7153  131.0713  150.6349 LP  0  0  0  0  0  0  0  0  0  0  0  0  # atno 17371 bound_to 10713
  140.5427  134.0704  155.7346 LP  0  0  0  0  0  0  0  0  0  0  0  0  # atno 17394 bound_to 11000
  141.1324  133.9280  157.2507 LP  0  0  0  0  0  0  0  0  0  0  0  0  # atno 17395 bound_to 11000

$$$$
