AV-unprocessed.smi:2143|AV-procd|sdf|8726|dock1
  -GOLD-   2272011493D 1   1.00000     0.00000
 Structure written by MMmdl.
 44 45  0  0  0  0  0  0  0  0  1 V2000
  152.6709  144.3609  158.9568 C   0  0  0  0  0  0  0  0  0  0  0  0
  151.8506  143.3250  159.7531 C   0  0  2  0  0  0  0  0  0  0  0  0
  152.6181  142.8263  160.9944 C   0  0  0  0  0  0  0  0  0  0  0  0
  153.7760  141.8871  160.6219 C   0  0  0  0  0  0  0  0  0  0  0  0
  153.2784  140.7003  159.7855 C   0  0  0  0  0  0  0  0  0  0  0  0
  152.5066  141.1597  158.5331 C   0  0  1  0  0  0  0  0  0  0  0  0
  151.9923  139.9777  157.8423 N   0  0  0  0  0  0  0  0  0  0  0  0
  152.7173  138.9279  157.4260 C   0  0  0  0  0  0  0  0  0  0  0  0
  153.9390  138.8481  157.5624 O   0  0  0  0  0  0  0  0  0  0  0  0
  151.9317  137.8093  156.7279 C   0  0  0  0  0  0  0  0  0  0  0  0
  150.5612  138.2004  156.3729 N   0  0  0  0  0  0  0  0  0  0  0  0
  149.4901  137.5461  156.9536 C   0  0  0  0  0  0  0  0  0  0  0  0
  148.2004  137.8564  156.6983 C   0  0  0  0  0  0  0  0  0  0  0  0
  147.8576  138.9254  155.7683 C   0  0  0  0  0  0  0  0  0  0  0  0
  146.6968  139.2573  155.5242 O   0  0  0  0  0  0  0  0  0  0  0  0
  148.9711  139.5662  155.1744 N   0  0  0  0  0  0  0  0  0  0  0  0
  148.7208  140.6548  154.2522 C   0  0  0  0  0  0  0  0  0  0  0  0
  150.3185  139.2495  155.4600 C   0  0  0  0  0  0  0  0  0  0  0  0
  151.2577  139.8621  154.9458 O   0  0  0  0  0  0  0  0  0  0  0  0
  151.3497  142.1238  158.9065 C   0  0  2  0  0  0  0  0  0  0  0  0
  150.5205  142.5717  157.6864 C   0  0  0  0  0  0  0  0  0  0  0  0
  153.5518  143.9205  158.4910 H   0  0  0  0  0  0  0  0  0  0  0  0
  153.0134  145.1665  159.6065 H   0  0  0  0  0  0  0  0  0  0  0  0
  152.0765  144.8226  158.1690 H   0  0  0  0  0  0  0  0  0  0  0  0
  150.9696  143.8532  160.1205 H   0  0  0  0  0  0  0  0  0  0  0  0
  152.9942  143.6714  161.5719 H   0  0  0  0  0  0  0  0  0  0  0  0
  151.9289  142.2957  161.6529 H   0  0  0  0  0  0  0  0  0  0  0  0
  154.5395  142.4339  160.0677 H   0  0  0  0  0  0  0  0  0  0  0  0
  154.2608  141.5217  161.5277 H   0  0  0  0  0  0  0  0  0  0  0  0
  154.1255  140.0783  159.4937 H   0  0  0  0  0  0  0  0  0  0  0  0
  152.6358  140.0727  160.4048 H   0  0  0  0  0  0  0  0  0  0  0  0
  153.2043  141.6936  157.8866 H   0  0  0  0  0  0  0  0  0  0  0  0
  150.9969  139.9536  157.6748 H   0  0  0  0  0  0  0  0  0  0  0  0
  152.4687  137.4827  155.8353 H   0  0  0  0  0  0  0  0  0  0  0  0
  151.9113  136.9442  157.3922 H   0  0  0  0  0  0  0  0  0  0  0  0
  149.6919  136.7491  157.6546 H   0  0  0  0  0  0  0  0  0  0  0  0
  147.4110  137.3090  157.1922 H   0  0  0  0  0  0  0  0  0  0  0  0
  149.4814  140.6433  153.4701 H   0  0  0  0  0  0  0  0  0  0  0  0
  148.7588  141.5770  154.8339 H   0  0  0  0  0  0  0  0  0  0  0  0
  147.7483  140.5244  153.7762 H   0  0  0  0  0  0  0  0  0  0  0  0
  150.6653  141.5645  159.5470 H   0  0  0  0  0  0  0  0  0  0  0  0
  151.1474  143.0317  156.9222 H   0  0  0  0  0  0  0  0  0  0  0  0
  149.7568  143.2943  157.9746 H   0  0  0  0  0  0  0  0  0  0  0  0
  150.0065  141.7298  157.2223 H   0  0  0  0  0  0  0  0  0  0  0  0
  1  2  1  0  0  0  0
  1 22  1  0  0  0  0
  1 23  1  0  0  0  0
  1 24  1  0  0  0  0
  2 20  1  0  0  0  0
  2  3  1  0  0  0  0
  2 25  1  0  0  0  0
  3  4  1  0  0  0  0
  3 26  1  0  0  0  0
  3 27  1  0  0  0  0
  4  5  1  0  0  0  0
  4 28  1  0  0  0  0
  4 29  1  0  0  0  0
  5  6  1  0  0  0  0
  5 30  1  0  0  0  0
  5 31  1  0  0  0  0
  6  7  1  0  0  0  0
  6 20  1  0  0  0  0
  6 32  1  0  0  0  0
  7  8  1  0  0  0  0
  7 33  1  0  0  0  0
  8  9  2  0  0  0  0
  8 10  1  0  0  0  0
 10 11  1  0  0  0  0
 10 34  1  0  0  0  0
 10 35  1  0  0  0  0
 11 18  1  0  0  0  0
 11 12  1  0  0  0  0
 12 13  2  0  0  0  0
 12 36  1  0  0  0  0
 13 14  1  0  0  0  0
 13 37  1  0  0  0  0
 14 15  2  0  0  0  0
 14 16  1  0  0  0  0
 16 17  1  0  0  0  0
 16 18  1  0  0  0  0
 17 38  1  0  0  0  0
 17 39  1  0  0  0  0
 17 40  1  0  0  0  0
 18 19  2  0  0  0  0
 20 21  1  0  0  0  0
 20 41  1  0  0  0  0
 21 42  1  0  0  0  0
 21 43  1  0  0  0  0
 21 44  1  0  0  0  0
M  END
> <s_m_source_file>
AV-unprocessed.smi

> <i_m_source_file_index>
2143

> <i_lp_mmshare_version>
43012

> <i_f3d_flags>
0

> <s_epik_input>
W0NIM11bQ0BASF0xW0NIMl1bQ0gyXVtDSDJdW0NASF0oW0NASF0xW0NIM10pW05IXUMoPU8pW0NIMl1uMltjSF1bY0hdYyg9TyluKFtDSDNdKWMyPU8=

> <s_epik_cmdline>
J2VwaWtfcHl0aG9uJywgJy1waCcsICc3LjAnLCAnLXRuJywgJzgnLCAnLW1hJywgJzIwMCcsICctbWV0YWxfYmluZGluZycsICctaW1hZScsICc8aW5maWxlLm1hZT4nLCAnLW9tYWUnLCAnPG91dGZpbGUubWFlPic=

> <r_lp_tautomer_probability>
1

> <r_epik_Ionization_Penalty>
3.18445e-08

> <r_epik_Ionization_Penalty_Charging>
1.27977e-08

> <r_epik_Ionization_Penalty_Neutral>
1.90469e-08

> <r_epik_State_Penalty>
-0

> <r_epik_Charging_Adjusted_Penalty>
1.27977e-08

> <i_epik_Tot_Q>
0

> <i_epik_Tot_abs_Q>
0

> <r_epik_Metal_State_Penalty>
-0

> <b_epik_Metal_Only>
0

> <s_lp_Force_Field>
OPLS_2005

> <r_lp_Energy>
21.4841

> <b_lp_Chiralities_Consistent>
1

> <s_lp_Variant>
AV-unprocessed.smi:2143-5

> <Gold.Version>
5.8.1

> <Gold.Id.Protein>
6NUR|6NUR_protein|mol2

> <Gold.PLP.Fitness>
39.3134

> <Gold.PLP.PLP>
-33.6479

> <Gold.PLP.part.hbond>
-2.0000

> <Gold.PLP.part.metal>
0.0000

> <Gold.PLP.part.buried>
-3.9168

> <Gold.PLP.part.nonpolar>
-27.6930

> <Gold.PLP.part.repulsive>
0.1662

> <Gold.PLP.ligand.clash>
0.0000

> <Gold.PLP.ligand.torsion>
0.1736

> <Gold.PLP.Chemscore.Hbond>
2.0000

> <Gold.PLP.Chemscore.CHOScore>
0.0000

> <Gold.PLP.Chemscore.Metal>
0.0000

> <Gold.Chemscore.Hbonds>
donor molecule, donor type, donor heavy atom, donor atom, acceptor molecule, acceptor atom, score
      P1  H  7989  7998       L1    19  1.00
      P1  H  7997  8008       L1     9  0.83

> <Gold.PLP.Chemscore.Internal.Correction>
0.0126

> <Gold.Rescore>
     Score         DG    S(hbond)    S(metal)    S(lipo)     H(rot)  DE(clash)    DE(int)     intcor
     18.72     -19.31       1.93        0.00      96.17       1.51       0.26       0.33       ----

> <Gold.Chemscore.Fitness>
18.7215

> <Gold.Chemscore.DG>
-19.3088

> <Gold.Chemscore.ZeroCoef>
-5.4800

> <Gold.Chemscore.Hbond>
1.9313

> <Gold.Chemscore.Metal>
0.0000

> <Gold.Chemscore.Lipo>
96.1668

> <Gold.Chemscore.Internal_Hbond>
0.0000

> <Gold.Chemscore.DEClash>
0.2596

> <Gold.Chemscore.DEInternal>
0.3276

> <Gold.Chemscore.Rot>
1.5131

> <Gold.Chemscore.Internal.Correction>
   9.000000E+99

> <Gold.Chemscore.Hbonds>
donor molecule, donor type, donor heavy atom, donor atom, acceptor molecule, acceptor atom, score
      P1  H  7989  7998       L1    19  1.00
      P1  H  7997  8008       L1     9  0.74

> <Gold.Chemscore.Hbond.Weighted>
-6.4507

> <Gold.Chemscore.Metal.Weighted>
-0.0000

> <Gold.Chemscore.Lipo.Weighted>
-11.2515

> <Gold.Chemscore.Internal_Hbond.Weighted>
0.0000

> <Gold.Chemscore.DEClash.Weighted>
0.2596

> <Gold.Chemscore.DEInternal.Weighted>
0.3276

> <Gold.Chemscore.Rot.Weighted>
3.8734

> <Gold.Chemscore.Internal.Correction.Weighted>
   9.000000E+99

> <Gold.Protein.RotatedTorsions>
[ 6907 6896 6895 6894 ] final   53.75 input  -60.11 | X-H torsion
[ 7974 7965 7964 7962 ] final   29.56 input  175.53 | X-H torsion
[ 8008 7997 7996 7995 ] final  -96.83 input   59.86 | X-H torsion
[ 10167 10162 10161 10158 ] final -161.45 input  -65.29 | X-H torsion
[ 10718 10713 10712 10709 ] final   98.88 input   66.30 | X-H torsion
[ 10763 10752 10751 10750 ] final  131.60 input  -60.55 | X-H torsion
[ 11005 11000 10999 10996 ] final -174.78 input  -57.11 | X-H torsion

> <Gold.Protein.ActiveResidues>
 VAL166  LYS551  ARG553  GLY616  TRP617  ASP618  TYR619  PRO620  LYS621  CYS622 
 ASP623  PHE694  ASN695  SER759  ASP760  ASP761  ALA762  ILE779  LEU786  VAL792 
 PHE793  MET794  SER795  GLU796  ALA797  LYS798  CYS799  TRP800  GLU811  SER814 

> <Gold.Protein.RotatedAtoms>
  152.3369  134.7186  160.0274 H   0  0  0  0  0  0  0  0  0  0  0  0  # atno 6907 bound_to 6896
  151.7584  133.3326  159.3419 H   0  0  0  0  0  0  0  0  0  0  0  0  # atno 6908 bound_to 6896
  150.7456  134.6060  159.6106 H   0  0  0  0  0  0  0  0  0  0  0  0  # atno 6909 bound_to 6896
  146.1664  139.6905  142.8998 H   0  0  0  0  0  0  0  0  0  0  0  0  # atno 7974 bound_to 7965
  154.7796  140.0468  157.1117 H   0  0  0  0  0  0  0  0  0  0  0  0  # atno 8008 bound_to 7997
  154.9721  140.3091  155.4964 H   0  0  0  0  0  0  0  0  0  0  0  0  # atno 8009 bound_to 7997
  156.2934  140.2251  156.4814 H   0  0  0  0  0  0  0  0  0  0  0  0  # atno 8010 bound_to 7997
  139.6464  144.0164  152.2130 H   0  0  0  0  0  0  0  0  0  0  0  0  # atno 10167 bound_to 10162
  157.6887  131.0653  150.4863 H   0  0  0  0  0  0  0  0  0  0  0  0  # atno 10718 bound_to 10713
  153.7770  135.3174  155.3360 H   0  0  0  0  0  0  0  0  0  0  0  0  # atno 10763 bound_to 10752
  154.8175  135.4626  154.0688 H   0  0  0  0  0  0  0  0  0  0  0  0  # atno 10764 bound_to 10752
  153.1965  135.6916  153.8370 H   0  0  0  0  0  0  0  0  0  0  0  0  # atno 10765 bound_to 10752
  140.4707  134.6168  157.4881 H   0  0  0  0  0  0  0  0  0  0  0  0  # atno 11005 bound_to 11000
  145.4456  141.0425  143.2833 LP  0  0  0  0  0  0  0  0  0  0  0  0  # atno 17320 bound_to 7965
  144.8099  139.5982  143.7034 LP  0  0  0  0  0  0  0  0  0  0  0  0  # atno 17321 bound_to 7965
  139.9867  144.6390  150.7851 LP  0  0  0  0  0  0  0  0  0  0  0  0  # atno 17342 bound_to 10162
  140.7517  143.2977  151.3163 LP  0  0  0  0  0  0  0  0  0  0  0  0  # atno 17343 bound_to 10162
  156.5192  130.4158  149.6259 LP  0  0  0  0  0  0  0  0  0  0  0  0  # atno 17370 bound_to 10713
  156.3169  130.7259  151.2164 LP  0  0  0  0  0  0  0  0  0  0  0  0  # atno 17371 bound_to 10713
  139.9887  134.7020  155.9728 LP  0  0  0  0  0  0  0  0  0  0  0  0  # atno 17394 bound_to 11000
  141.1578  133.6541  156.4219 LP  0  0  0  0  0  0  0  0  0  0  0  0  # atno 17395 bound_to 11000

$$$$
