AV-unprocessed.smi:438|AV-procd|sdf|2567|dock2
  -GOLD-   2262022543D 1   1.00000     0.00000
 Structure written by MMmdl.
 48 49  0  0  0  0  0  0  0  0  1 V2000
  153.8413  137.0075  164.7075 C   0  0  0  0  0  0  0  0  0  0  0  0
  153.9957  136.3838  163.3319 C   0  0  0  0  0  0  0  0  0  0  0  0
  153.6718  137.2230  162.2812 N   0  0  0  0  0  0  0  0  0  0  0  0
  153.7917  136.7509  160.9830 C   0  0  0  0  0  0  0  0  0  0  0  0
  153.3410  138.0562  159.8029 S   0  0  0  0  0  0  0  0  0  0  0  0
  154.7218  139.2198  159.9982 C   0  0  0  0  0  0  0  0  0  0  0  0
  154.2695  140.6737  159.9010 C   0  0  0  0  0  0  0  0  0  0  0  0
  155.1016  141.5784  159.9569 O   0  0  0  0  0  0  0  0  0  0  0  0
  152.9476  140.8770  159.7637 N   0  0  0  0  0  0  0  0  0  0  0  0
  152.2445  142.1613  159.6973 C   0  0  2  0  0  0  0  0  0  0  0  0
  152.2969  142.7749  158.2806 C   0  0  0  0  0  0  0  0  0  0  0  0
  151.4749  144.0699  158.2076 C   0  0  0  0  0  0  0  0  0  0  0  0
  151.9463  145.0793  159.2644 C   0  0  0  0  0  0  0  0  0  0  0  0
  151.8864  144.4749  160.6765 C   0  0  0  0  0  0  0  0  0  0  0  0
  152.7070  143.1729  160.7811 C   0  0  1  0  0  0  0  0  0  0  0  0
  152.6252  142.5964  162.2062 C   0  0  0  0  0  0  0  0  0  0  0  0
  154.1769  135.5442  160.6887 N   0  0  0  0  0  0  0  0  0  0  0  0
  154.5053  134.6418  161.7117 C   0  0  0  0  0  0  0  0  0  0  0  0
  154.8618  133.4956  161.4419 O   0  0  0  0  0  0  0  0  0  0  0  0
  154.4061  135.1119  163.1098 C   0  0  0  0  0  0  0  0  0  0  0  0
  154.7899  134.1506  164.2312 C   0  0  0  0  0  0  0  0  0  0  0  0
  153.8967  132.9021  164.2572 C   0  0  0  0  0  0  0  0  0  0  0  0
  154.2499  132.0851  165.3518 O   0  0  0  0  0  0  0  0  0  0  0  0
  153.1787  136.4026  165.3272 H   0  0  0  0  0  0  0  0  0  0  0  0
  153.4204  138.0122  164.6490 H   0  0  0  0  0  0  0  0  0  0  0  0
  154.8097  137.0785  165.2032 H   0  0  0  0  0  0  0  0  0  0  0  0
  155.4746  139.0208  159.2344 H   0  0  0  0  0  0  0  0  0  0  0  0
  155.1945  139.0553  160.9674 H   0  0  0  0  0  0  0  0  0  0  0  0
  152.3624  140.0548  159.7281 H   0  0  0  0  0  0  0  0  0  0  0  0
  151.2009  141.9192  159.9030 H   0  0  0  0  0  0  0  0  0  0  0  0
  153.3263  142.9938  157.9957 H   0  0  0  0  0  0  0  0  0  0  0  0
  151.9190  142.0605  157.5487 H   0  0  0  0  0  0  0  0  0  0  0  0
  151.5564  144.5068  157.2120 H   0  0  0  0  0  0  0  0  0  0  0  0
  150.4189  143.8440  158.3617 H   0  0  0  0  0  0  0  0  0  0  0  0
  152.9675  145.3920  159.0432 H   0  0  0  0  0  0  0  0  0  0  0  0
  151.3310  145.9784  159.2194 H   0  0  0  0  0  0  0  0  0  0  0  0
  152.2536  145.2050  161.3985 H   0  0  0  0  0  0  0  0  0  0  0  0
  150.8466  144.2780  160.9409 H   0  0  0  0  0  0  0  0  0  0  0  0
  153.7493  143.4338  160.5936 H   0  0  0  0  0  0  0  0  0  0  0  0
  151.6085  142.2872  162.4502 H   0  0  0  0  0  0  0  0  0  0  0  0
  152.9336  143.3364  162.9449 H   0  0  0  0  0  0  0  0  0  0  0  0
  153.2759  141.7308  162.3290 H   0  0  0  0  0  0  0  0  0  0  0  0
  153.3718  138.1627  162.4977 H   0  0  0  0  0  0  0  0  0  0  0  0
  154.7323  134.6587  165.1937 H   0  0  0  0  0  0  0  0  0  0  0  0
  155.8368  133.8625  164.1228 H   0  0  0  0  0  0  0  0  0  0  0  0
  152.8463  133.1814  164.3468 H   0  0  0  0  0  0  0  0  0  0  0  0
  154.0046  132.3268  163.3373 H   0  0  0  0  0  0  0  0  0  0  0  0
  155.1027  131.7132  165.1866 H   0  0  0  0  0  0  0  0  0  0  0  0
  1 24  1  0  0  0  0
  1 25  1  0  0  0  0
  1 26  1  0  0  0  0
  1  2  1  0  0  0  0
  2 20  2  0  0  0  0
  2  3  1  0  0  0  0
  3  4  1  0  0  0  0
  3 43  1  0  0  0  0
  4  5  1  0  0  0  0
  4 17  2  0  0  0  0
  5  6  1  0  0  0  0
  6  7  1  0  0  0  0
  6 27  1  0  0  0  0
  6 28  1  0  0  0  0
  7  8  2  0  0  0  0
  7  9  1  0  0  0  0
  9 10  1  0  0  0  0
  9 29  1  0  0  0  0
 10 15  1  0  0  0  0
 10 11  1  0  0  0  0
 10 30  1  0  0  0  0
 11 12  1  0  0  0  0
 11 31  1  0  0  0  0
 11 32  1  0  0  0  0
 12 13  1  0  0  0  0
 12 33  1  0  0  0  0
 12 34  1  0  0  0  0
 13 14  1  0  0  0  0
 13 35  1  0  0  0  0
 13 36  1  0  0  0  0
 14 15  1  0  0  0  0
 14 37  1  0  0  0  0
 14 38  1  0  0  0  0
 15 16  1  0  0  0  0
 15 39  1  0  0  0  0
 16 40  1  0  0  0  0
 16 41  1  0  0  0  0
 16 42  1  0  0  0  0
 17 18  1  0  0  0  0
 18 19  2  0  0  0  0
 18 20  1  0  0  0  0
 20 21  1  0  0  0  0
 21 22  1  0  0  0  0
 21 44  1  0  0  0  0
 21 45  1  0  0  0  0
 22 23  1  0  0  0  0
 22 46  1  0  0  0  0
 22 47  1  0  0  0  0
 23 48  1  0  0  0  0
M  END
> <s_m_source_file>
AV-unprocessed.smi

> <i_m_source_file_index>
438

> <i_lp_mmshare_version>
43012

> <i_f3d_flags>
0

> <s_epik_input>
W09IXVtDSDJdW0NIMl1jMWMoW09IXSluYyhuYzFbQ0gzXSlTW0NIMl1DKD1PKVtOSF1bQ0BASF0yW0NIMl1bQ0gyXVtDSDJdW0NIMl1bQ0BIXTJbQ0gzXQ==

> <s_epik_cmdline>
J2VwaWtfcHl0aG9uJywgJy1waCcsICc3LjAnLCAnLXRuJywgJzgnLCAnLW1hJywgJzIwMCcsICctbWV0YWxfYmluZGluZycsICctaW1hZScsICc8aW5maWxlLm1hZT4nLCAnLW9tYWUnLCAnPG91dGZpbGUubWFlPic=

> <r_lp_tautomer_probability>
0.273662

> <r_epik_Ionization_Penalty>
0.0875285

> <r_epik_Ionization_Penalty_Charging>
0.0875254

> <r_epik_Ionization_Penalty_Neutral>
3.01536e-06

> <r_epik_State_Penalty>
0.985796

> <r_epik_Charging_Adjusted_Penalty>
1.07332

> <i_epik_Tot_Q>
0

> <i_epik_Tot_abs_Q>
0

> <r_epik_Metal_State_Penalty>
1.58101

> <b_epik_Metal_Only>
0

> <s_lp_Force_Field>
OPLS_2005

> <r_lp_Energy>
18.1285

> <b_lp_Chiralities_Consistent>
1

> <s_lp_Variant>
AV-unprocessed.smi:438-5

> <Gold.Version>
5.8.1

> <Gold.Id.Protein>
6NUR|6NUR_protein|mol2

> <Gold.PLP.Fitness>
49.6807

> <Gold.PLP.PLP>
-47.8755

> <Gold.PLP.part.hbond>
-1.3522

> <Gold.PLP.part.metal>
0.0000

> <Gold.PLP.part.buried>
-3.5280

> <Gold.PLP.part.nonpolar>
-42.7397

> <Gold.PLP.part.repulsive>
0.1498

> <Gold.PLP.ligand.clash>
0.0000

> <Gold.PLP.ligand.torsion>
0.5966

> <Gold.PLP.Chemscore.Hbond>
0.9750

> <Gold.PLP.Chemscore.CHOScore>
0.0000

> <Gold.PLP.Chemscore.Metal>
0.0000

> <Gold.Chemscore.Hbonds>
donor molecule, donor type, donor heavy atom, donor atom, acceptor molecule, acceptor atom, score
      P1  H  6896  6908       L1    17  0.86

> <Gold.PLP.Chemscore.Internal.Correction>
0.0735

> <Gold.Rescore>
     Score         DG    S(hbond)    S(metal)    S(lipo)     H(rot)  DE(clash)    DE(int)     intcor
     13.14     -14.97       0.54        0.00     128.54       2.86       0.05       1.79       ----

> <Gold.Chemscore.Fitness>
13.1395

> <Gold.Chemscore.DG>
-14.9737

> <Gold.Chemscore.ZeroCoef>
-5.4800

> <Gold.Chemscore.Hbond>
0.5353

> <Gold.Chemscore.Metal>
0.0000

> <Gold.Chemscore.Lipo>
128.5381

> <Gold.Chemscore.Internal_Hbond>
0.0000

> <Gold.Chemscore.DEClash>
0.0480

> <Gold.Chemscore.DEInternal>
1.7863

> <Gold.Chemscore.Rot>
2.8645

> <Gold.Chemscore.Internal.Correction>
   9.000000E+99

> <Gold.Chemscore.Hbonds>
donor molecule, donor type, donor heavy atom, donor atom, acceptor molecule, acceptor atom, score
      P1  H  6896  6908       L1    17  0.08

> <Gold.Chemscore.Hbond.Weighted>
-1.7879

> <Gold.Chemscore.Metal.Weighted>
-0.0000

> <Gold.Chemscore.Lipo.Weighted>
-15.0390

> <Gold.Chemscore.Internal_Hbond.Weighted>
0.0000

> <Gold.Chemscore.DEClash.Weighted>
0.0480

> <Gold.Chemscore.DEInternal.Weighted>
1.7863

> <Gold.Chemscore.Rot.Weighted>
7.3331

> <Gold.Chemscore.Internal.Correction.Weighted>
   9.000000E+99

> <Gold.Protein.RotatedTorsions>
[ 6907 6896 6895 6894 ] final  -55.26 input  -60.11 | X-H torsion
[ 7974 7965 7964 7962 ] final  135.80 input  175.53 | X-H torsion
[ 8008 7997 7996 7995 ] final  -74.50 input   59.86 | X-H torsion
[ 10167 10162 10161 10158 ] final  100.48 input  -65.29 | X-H torsion
[ 10718 10713 10712 10709 ] final  -31.04 input   66.30 | X-H torsion
[ 10763 10752 10751 10750 ] final  -12.03 input  -60.55 | X-H torsion
[ 11005 11000 10999 10996 ] final   25.68 input  -57.11 | X-H torsion

> <Gold.Protein.ActiveResidues>
 VAL166  LYS551  ARG553  GLY616  TRP617  ASP618  TYR619  PRO620  LYS621  CYS622 
 ASP623  PHE694  ASN695  SER759  ASP760  ASP761  ALA762  ILE779  LEU786  VAL792 
 PHE793  MET794  SER795  GLU796  ALA797  LYS798  CYS799  TRP800  GLU811  SER814 

> <Gold.Protein.RotatedAtoms>
  150.8267  134.7501  159.6818 H   0  0  0  0  0  0  0  0  0  0  0  0  # atno 6907 bound_to 6896
  152.4377  134.5651  159.9915 H   0  0  0  0  0  0  0  0  0  0  0  0  # atno 6908 bound_to 6896
  151.5822  133.3339  159.3046 H   0  0  0  0  0  0  0  0  0  0  0  0  # atno 6909 bound_to 6896
  144.9628  139.4691  143.5471 H   0  0  0  0  0  0  0  0  0  0  0  0  # atno 7974 bound_to 7965
  154.5336  140.0760  156.8389 H   0  0  0  0  0  0  0  0  0  0  0  0  # atno 8008 bound_to 7997
  155.3323  140.3402  155.4221 H   0  0  0  0  0  0  0  0  0  0  0  0  # atno 8009 bound_to 7997
  156.1806  140.1651  156.8267 H   0  0  0  0  0  0  0  0  0  0  0  0  # atno 8010 bound_to 7997
  139.7524  144.6980  151.0413 H   0  0  0  0  0  0  0  0  0  0  0  0  # atno 10167 bound_to 10162
  156.3922  130.4375  149.7386 H   0  0  0  0  0  0  0  0  0  0  0  0  # atno 10718 bound_to 10713
  153.4924  135.7017  153.5877 H   0  0  0  0  0  0  0  0  0  0  0  0  # atno 10763 bound_to 10752
  153.4043  135.3864  155.2008 H   0  0  0  0  0  0  0  0  0  0  0  0  # atno 10764 bound_to 10752
  154.8716  135.3889  154.4386 H   0  0  0  0  0  0  0  0  0  0  0  0  # atno 10765 bound_to 10752
  140.3452  134.2289  155.7685 H   0  0  0  0  0  0  0  0  0  0  0  0  # atno 11005 bound_to 11000
  146.3358  139.8789  142.8827 LP  0  0  0  0  0  0  0  0  0  0  0  0  # atno 17320 bound_to 7965
  145.2674  141.0097  143.3791 LP  0  0  0  0  0  0  0  0  0  0  0  0  # atno 17321 bound_to 7965
  140.7799  143.4794  151.0039 LP  0  0  0  0  0  0  0  0  0  0  0  0  # atno 17342 bound_to 10162
  139.8481  143.7474  152.3179 LP  0  0  0  0  0  0  0  0  0  0  0  0  # atno 17343 bound_to 10162
  156.4435  130.7872  151.2894 LP  0  0  0  0  0  0  0  0  0  0  0  0  # atno 17370 bound_to 10713
  157.7499  131.0117  150.3357 LP  0  0  0  0  0  0  0  0  0  0  0  0  # atno 17371 bound_to 10713
  141.2027  133.7930  157.0375 LP  0  0  0  0  0  0  0  0  0  0  0  0  # atno 17394 bound_to 11000
  140.0748  134.9682  157.1527 LP  0  0  0  0  0  0  0  0  0  0  0  0  # atno 17395 bound_to 11000

$$$$
