AV-unprocessed.smi:1442|AV-procd|sdf|5876|dock2
  -GOLD-   22720 5553D 1   1.00000     0.00000
 Structure written by MMmdl.
 44 45  0  0  0  0  0  0  0  0  1 V2000
  143.1293  137.5356  154.5293 C   0  0  0  0  0  0  0  0  0  0  0  0
  144.0927  138.5726  154.1924 N   0  0  0  0  0  0  0  0  0  0  0  0
  145.3070  138.6855  154.7497 C   0  0  0  0  0  0  0  0  0  0  0  0
  145.7272  137.9105  155.6096 O   0  0  0  0  0  0  0  0  0  0  0  0
  146.1800  139.8493  154.2615 C   0  0  0  0  0  0  0  0  0  0  0  0
  147.4838  139.3318  153.6082 C   0  0  0  0  0  0  0  0  0  0  0  0
  148.4201  140.4977  153.2428 C   0  0  0  0  0  0  0  0  0  0  0  0
  148.6996  141.2766  154.4614 N   0  0  0  0  0  0  0  0  0  0  0  0
  149.8487  141.2522  155.1836 C   0  0  0  0  0  0  0  0  0  0  0  0
  150.6962  140.3651  155.0736 O   0  0  0  0  0  0  0  0  0  0  0  0
  149.9895  142.2691  156.0509 N   0  0  0  0  0  0  0  0  0  0  0  0
  151.1396  142.4818  156.9210 C   0  0  0  0  0  0  0  0  0  0  0  0
  150.7153  142.6141  158.3928 C   0  0  0  0  0  0  0  0  0  0  0  0
  151.8668  142.3605  159.3244 C   0  0  0  0  0  0  0  0  0  0  0  0
  152.3513  143.2043  160.3644 C   0  0  0  0  0  0  0  0  0  0  0  0
  153.3889  142.6894  161.0038 N   0  0  0  0  0  0  0  0  0  0  0  0
  153.5997  141.5020  160.3997 N   0  0  0  0  0  0  0  0  0  0  0  0
  154.6803  140.6525  160.8530 C   0  0  0  0  0  0  0  0  0  0  0  0
  152.6970  141.2768  159.3827 C   0  0  0  0  0  0  0  0  0  0  0  0
  147.4812  141.9226  154.9644 C   0  0  0  0  0  0  0  0  0  0  0  0
  146.4927  140.8316  155.4155 C   0  0  0  0  0  0  0  0  0  0  0  0
  142.2121  137.6807  153.9585 H   0  0  0  0  0  0  0  0  0  0  0  0
  142.8790  137.5666  155.5904 H   0  0  0  0  0  0  0  0  0  0  0  0
  143.5251  136.5469  154.2929 H   0  0  0  0  0  0  0  0  0  0  0  0
  143.8201  139.2479  153.4928 H   0  0  0  0  0  0  0  0  0  0  0  0
  145.6259  140.4011  153.4998 H   0  0  0  0  0  0  0  0  0  0  0  0
  148.0073  138.6538  154.2844 H   0  0  0  0  0  0  0  0  0  0  0  0
  147.2495  138.7549  152.7127 H   0  0  0  0  0  0  0  0  0  0  0  0
  149.3119  140.1150  152.7467 H   0  0  0  0  0  0  0  0  0  0  0  0
  147.9386  141.1437  152.5071 H   0  0  0  0  0  0  0  0  0  0  0  0
  149.2499  142.9545  156.0980 H   0  0  0  0  0  0  0  0  0  0  0  0
  151.8121  141.6315  156.8035 H   0  0  0  0  0  0  0  0  0  0  0  0
  151.6947  143.3646  156.5983 H   0  0  0  0  0  0  0  0  0  0  0  0
  150.3044  143.6092  158.5669 H   0  0  0  0  0  0  0  0  0  0  0  0
  149.8997  141.9186  158.5950 H   0  0  0  0  0  0  0  0  0  0  0  0
  151.9821  144.1727  160.6689 H   0  0  0  0  0  0  0  0  0  0  0  0
  154.6081  139.6724  160.3808 H   0  0  0  0  0  0  0  0  0  0  0  0
  154.6267  140.5284  161.9351 H   0  0  0  0  0  0  0  0  0  0  0  0
  155.6374  141.1040  160.5906 H   0  0  0  0  0  0  0  0  0  0  0  0
  152.7192  140.3740  158.7901 H   0  0  0  0  0  0  0  0  0  0  0  0
  147.6784  142.6109  155.7875 H   0  0  0  0  0  0  0  0  0  0  0  0
  147.0376  142.5293  154.1737 H   0  0  0  0  0  0  0  0  0  0  0  0
  145.5722  141.2956  155.7718 H   0  0  0  0  0  0  0  0  0  0  0  0
  146.9173  140.2960  156.2666 H   0  0  0  0  0  0  0  0  0  0  0  0
  1  2  1  0  0  0  0
  1 22  1  0  0  0  0
  1 23  1  0  0  0  0
  1 24  1  0  0  0  0
  2  3  1  0  0  0  0
  2 25  1  0  0  0  0
  3  4  2  0  0  0  0
  3  5  1  0  0  0  0
  5 21  1  0  0  0  0
  5  6  1  0  0  0  0
  5 26  1  0  0  0  0
  6  7  1  0  0  0  0
  6 27  1  0  0  0  0
  6 28  1  0  0  0  0
  7  8  1  0  0  0  0
  7 29  1  0  0  0  0
  7 30  1  0  0  0  0
  8  9  1  0  0  0  0
  8 20  1  0  0  0  0
  9 10  2  0  0  0  0
  9 11  1  0  0  0  0
 11 12  1  0  0  0  0
 11 31  1  0  0  0  0
 12 13  1  0  0  0  0
 12 32  1  0  0  0  0
 12 33  1  0  0  0  0
 13 14  1  0  0  0  0
 13 34  1  0  0  0  0
 13 35  1  0  0  0  0
 14 19  2  0  0  0  0
 14 15  1  0  0  0  0
 15 16  2  0  0  0  0
 15 36  1  0  0  0  0
 16 17  1  0  0  0  0
 17 18  1  0  0  0  0
 17 19  1  0  0  0  0
 18 37  1  0  0  0  0
 18 38  1  0  0  0  0
 18 39  1  0  0  0  0
 19 40  1  0  0  0  0
 20 21  1  0  0  0  0
 20 41  1  0  0  0  0
 20 42  1  0  0  0  0
 21 43  1  0  0  0  0
 21 44  1  0  0  0  0
M  END
> <s_m_source_file>
AV-unprocessed.smi

> <i_m_source_file_index>
1442

> <i_lp_mmshare_version>
43012

> <i_f3d_flags>
0

> <s_epik_input>
W0NIM11bTkhdQyg9TylbQ0hdMVtDSDJdW0NIMl1OKFtDSDJdW0NIMl0xKUMoPU8pW05IXVtDSDJdW0NIMl1jMltjSF1ubihbQ0gzXSlbY0hdMg==

> <s_epik_cmdline>
J2VwaWtfcHl0aG9uJywgJy1waCcsICc3LjAnLCAnLXRuJywgJzgnLCAnLW1hJywgJzIwMCcsICctbWV0YWxfYmluZGluZycsICctaW1hZScsICc8aW5maWxlLm1hZT4nLCAnLW9tYWUnLCAnPG91dGZpbGUubWFlPic=

> <r_lp_tautomer_probability>
1

> <r_epik_Ionization_Penalty>
0.000562975

> <r_epik_Ionization_Penalty_Charging>
0

> <r_epik_Ionization_Penalty_Neutral>
0.000562975

> <r_epik_State_Penalty>
-0

> <r_epik_Charging_Adjusted_Penalty>
0

> <i_epik_Tot_Q>
0

> <i_epik_Tot_abs_Q>
0

> <r_epik_Metal_State_Penalty>
-0

> <b_epik_Metal_Only>
0

> <s_lp_Force_Field>
OPLS_2005

> <r_lp_Energy>
25.7174

> <b_lp_Chiralities_Consistent>
1

> <s_lp_Variant>
AV-unprocessed.smi:1442-1

> <Gold.Version>
5.8.1

> <Gold.Id.Protein>
6NUR|6NUR_protein|mol2

> <Gold.PLP.Fitness>
42.1390

> <Gold.PLP.PLP>
-34.3411

> <Gold.PLP.part.hbond>
-3.0000

> <Gold.PLP.part.metal>
0.0000

> <Gold.PLP.part.buried>
1.5864

> <Gold.PLP.part.nonpolar>
-32.8039

> <Gold.PLP.part.repulsive>
0.2049

> <Gold.PLP.ligand.clash>
0.0000

> <Gold.PLP.ligand.torsion>
0.3629

> <Gold.PLP.Chemscore.Hbond>
2.8160

> <Gold.PLP.Chemscore.CHOScore>
0.0000

> <Gold.PLP.Chemscore.Metal>
0.0000

> <Gold.Chemscore.Hbonds>
donor molecule, donor type, donor heavy atom, donor atom, acceptor molecule, acceptor atom, score
      L1  H     2    25       P1 10175  1.00
      L1  H    11    31       P1  8028  0.83
      P1  H  7989  7998       L1    10  1.00

> <Gold.PLP.Chemscore.Internal.Correction>
0.0756

> <Gold.Rescore>
     Score         DG    S(hbond)    S(metal)    S(lipo)     H(rot)  DE(clash)    DE(int)     intcor
     17.06     -19.24       2.48        0.00      85.49       1.77       1.78       0.40       ----

> <Gold.Chemscore.Fitness>
17.0628

> <Gold.Chemscore.DG>
-19.2444

> <Gold.Chemscore.ZeroCoef>
-5.4800

> <Gold.Chemscore.Hbond>
2.4801

> <Gold.Chemscore.Metal>
0.0000

> <Gold.Chemscore.Lipo>
85.4875

> <Gold.Chemscore.Internal_Hbond>
0.0000

> <Gold.Chemscore.DEClash>
1.7848

> <Gold.Chemscore.DEInternal>
0.3967

> <Gold.Chemscore.Rot>
1.7661

> <Gold.Chemscore.Internal.Correction>
   9.000000E+99

> <Gold.Chemscore.Hbonds>
donor molecule, donor type, donor heavy atom, donor atom, acceptor molecule, acceptor atom, score
      L1  H     2    25       P1 10175  0.97
      L1  H    11    31       P1  8028  0.81
      P1  H  7989  7998       L1    10  0.34

> <Gold.Chemscore.Hbond.Weighted>
-8.2834

> <Gold.Chemscore.Metal.Weighted>
-0.0000

> <Gold.Chemscore.Lipo.Weighted>
-10.0020

> <Gold.Chemscore.Internal_Hbond.Weighted>
0.0000

> <Gold.Chemscore.DEClash.Weighted>
1.7848

> <Gold.Chemscore.DEInternal.Weighted>
0.3967

> <Gold.Chemscore.Rot.Weighted>
4.5211

> <Gold.Chemscore.Internal.Correction.Weighted>
   9.000000E+99

> <Gold.Protein.RotatedTorsions>
[ 6907 6896 6895 6894 ] final -139.48 input  -60.11 | X-H torsion
[ 7974 7965 7964 7962 ] final   69.85 input  175.53 | X-H torsion
[ 8008 7997 7996 7995 ] final -176.56 input   59.86 | X-H torsion
[ 10167 10162 10161 10158 ] final -131.02 input  -65.29 | X-H torsion
[ 10718 10713 10712 10709 ] final  109.97 input   66.30 | X-H torsion
[ 10763 10752 10751 10750 ] final -133.25 input  -60.55 | X-H torsion
[ 11005 11000 10999 10996 ] final  161.48 input  -57.11 | X-H torsion

> <Gold.Protein.ActiveResidues>
 VAL166  LYS551  ARG553  GLY616  TRP617  ASP618  TYR619  PRO620  LYS621  CYS622 
 ASP623  PHE694  ASN695  SER759  ASP760  ASP761  ALA762  ILE779  LEU786  VAL792 
 PHE793  MET794  SER795  GLU796  ALA797  LYS798  CYS799  TRP800  GLU811  SER814 

> <Gold.Protein.RotatedAtoms>
  151.0483  133.5646  159.2644 H   0  0  0  0  0  0  0  0  0  0  0  0  # atno 6907 bound_to 6896
  151.2666  135.0670  159.9128 H   0  0  0  0  0  0  0  0  0  0  0  0  # atno 6908 bound_to 6896
  152.5377  134.0220  159.8040 H   0  0  0  0  0  0  0  0  0  0  0  0  # atno 6909 bound_to 6896
  145.7854  139.2908  143.1241 H   0  0  0  0  0  0  0  0  0  0  0  0  # atno 7974 bound_to 7965
  155.9963  140.1211  157.0590 H   0  0  0  0  0  0  0  0  0  0  0  0  # atno 8008 bound_to 7997
  154.4227  140.1115  156.5703 H   0  0  0  0  0  0  0  0  0  0  0  0  # atno 8009 bound_to 7997
  155.6274  140.3472  155.4674 H   0  0  0  0  0  0  0  0  0  0  0  0  # atno 8010 bound_to 7997
  139.9233  143.6357  152.2548 H   0  0  0  0  0  0  0  0  0  0  0  0  # atno 10167 bound_to 10162
  157.6517  131.0924  150.6532 H   0  0  0  0  0  0  0  0  0  0  0  0  # atno 10718 bound_to 10713
  154.8735  135.3772  154.4542 H   0  0  0  0  0  0  0  0  0  0  0  0  # atno 10763 bound_to 10752
  153.5216  135.7029  153.5734 H   0  0  0  0  0  0  0  0  0  0  0  0  # atno 10764 bound_to 10752
  153.3978  135.3956  155.1933 H   0  0  0  0  0  0  0  0  0  0  0  0  # atno 10765 bound_to 10752
  140.2162  134.8230  157.3173 H   0  0  0  0  0  0  0  0  0  0  0  0  # atno 11005 bound_to 11000
  146.0031  140.8502  143.0008 LP  0  0  0  0  0  0  0  0  0  0  0  0  # atno 17320 bound_to 7965
  144.6790  140.2382  143.7347 LP  0  0  0  0  0  0  0  0  0  0  0  0  # atno 17321 bound_to 7965
  139.6843  144.7653  151.1551 LP  0  0  0  0  0  0  0  0  0  0  0  0  # atno 17342 bound_to 10162
  140.7657  143.5679  150.9027 LP  0  0  0  0  0  0  0  0  0  0  0  0  # atno 17343 bound_to 10162
  156.6843  130.4576  149.5618 LP  0  0  0  0  0  0  0  0  0  0  0  0  # atno 17370 bound_to 10713
  156.1907  130.6558  151.1058 LP  0  0  0  0  0  0  0  0  0  0  0  0  # atno 17371 bound_to 10713
  140.1898  134.4386  155.7723 LP  0  0  0  0  0  0  0  0  0  0  0  0  # atno 17394 bound_to 11000
  141.2225  133.7021  156.8007 LP  0  0  0  0  0  0  0  0  0  0  0  0  # atno 17395 bound_to 11000

$$$$
