AV-unprocessed.smi:3285|AV-procd|sdf|12581|dock10
  -GOLD-   2272018503D 1   1.00000     0.00000
 Structure written by MMmdl.
 45 46  0  0  0  0  0  0  0  0  2 V2000
  151.4218  129.9562  154.9686 C   0  0  0  0  0  0  0  0  0  0  0  0
  151.0916  131.2123  155.7228 C   0  0  0  0  0  0  0  0  0  0  0  0
  151.8893  131.6143  156.6974 N   0  0  0  0  0  0  0  0  0  0  0  0
  151.3192  132.7875  157.2006 O   0  0  0  0  0  0  0  0  0  0  0  0
  150.1849  133.0474  156.5024 C   0  0  0  0  0  0  0  0  0  0  0  0
  149.4200  134.2666  156.8936 C   0  0  0  0  0  0  0  0  0  0  0  0
  149.9800  132.0868  155.5505 C   0  0  0  0  0  0  0  0  0  0  0  0
  148.8523  131.9721  154.5609 C   0  0  0  0  0  0  0  0  0  0  0  0
  149.0252  132.9563  153.3970 C   0  0  0  0  0  0  0  0  0  0  0  0
  147.9553  133.9754  153.4035 N   0  3  0  0  0  0  0  0  0  0  0  0
  146.6358  133.5115  152.9201 C   0  0  1  0  0  0  0  0  0  0  0  0
  145.5858  134.6152  153.1400 C   0  0  0  0  0  0  0  0  0  0  0  0
  144.2022  134.1927  152.6179 C   0  0  0  0  0  0  0  0  0  0  0  0
  144.2366  133.7864  151.1305 C   0  0  1  0  0  0  0  0  0  0  0  0
  144.4001  135.0125  150.2093 C   0  0  0  0  0  0  0  0  0  0  0  0
  145.2976  132.6783  150.9085 C   0  0  1  0  0  0  0  0  0  0  0  0
  145.3636  132.1817  149.4547 C   0  0  0  0  0  0  0  0  0  0  0  0
  146.6857  133.1012  151.4325 C   0  0  0  0  0  0  0  0  0  0  0  0
  150.9105  129.0968  155.4025 H   0  0  0  0  0  0  0  0  0  0  0  0
  152.4925  129.7489  154.9841 H   0  0  0  0  0  0  0  0  0  0  0  0
  151.1184  130.0313  153.9245 H   0  0  0  0  0  0  0  0  0  0  0  0
  148.4217  134.0003  157.2402 H   0  0  0  0  0  0  0  0  0  0  0  0
  149.3147  134.9440  156.0462 H   0  0  0  0  0  0  0  0  0  0  0  0
  149.9229  134.8068  157.6961 H   0  0  0  0  0  0  0  0  0  0  0  0
  148.7911  130.9567  154.1671 H   0  0  0  0  0  0  0  0  0  0  0  0
  147.8952  132.1549  155.0506 H   0  0  0  0  0  0  0  0  0  0  0  0
  149.9983  133.4420  153.4695 H   0  0  0  0  0  0  0  0  0  0  0  0
  149.0022  132.4158  152.4497 H   0  0  0  0  0  0  0  0  0  0  0  0
  147.8388  134.2800  154.3594 H   0  0  0  0  0  0  0  0  0  0  0  0
  146.3406  132.6468  153.5169 H   0  0  0  0  0  0  0  0  0  0  0  0
  145.5134  134.8517  154.2024 H   0  0  0  0  0  0  0  0  0  0  0  0
  145.9010  135.5349  152.6457 H   0  0  0  0  0  0  0  0  0  0  0  0
  143.8410  133.3513  153.2108 H   0  0  0  0  0  0  0  0  0  0  0  0
  143.4833  134.9981  152.7728 H   0  0  0  0  0  0  0  0  0  0  0  0
  143.2614  133.3568  150.8967 H   0  0  0  0  0  0  0  0  0  0  0  0
  145.3753  135.4855  150.3201 H   0  0  0  0  0  0  0  0  0  0  0  0
  143.6439  135.7664  150.4293 H   0  0  0  0  0  0  0  0  0  0  0  0
  144.2804  134.7431  149.1600 H   0  0  0  0  0  0  0  0  0  0  0  0
  144.9830  131.8210  151.5060 H   0  0  0  0  0  0  0  0  0  0  0  0
  145.7555  132.9457  148.7829 H   0  0  0  0  0  0  0  0  0  0  0  0
  144.3771  131.8901  149.0931 H   0  0  0  0  0  0  0  0  0  0  0  0
  146.0137  131.3105  149.3702 H   0  0  0  0  0  0  0  0  0  0  0  0
  147.0765  133.9235  150.8321 H   0  0  0  0  0  0  0  0  0  0  0  0
  147.3789  132.2711  151.2968 H   0  0  0  0  0  0  0  0  0  0  0  0
  148.2463  134.7680  152.8492 H   0  0  0  0  0  0  0  0  0  0  0  0
  1  2  1  0  0  0  0
  1 19  1  0  0  0  0
  1 20  1  0  0  0  0
  1 21  1  0  0  0  0
  2  7  1  0  0  0  0
  2  3  2  0  0  0  0
  3  4  1  0  0  0  0
  4  5  1  0  0  0  0
  5  6  1  0  0  0  0
  5  7  2  0  0  0  0
  6 22  1  0  0  0  0
  6 23  1  0  0  0  0
  6 24  1  0  0  0  0
  7  8  1  0  0  0  0
  8  9  1  0  0  0  0
  8 25  1  0  0  0  0
  8 26  1  0  0  0  0
  9 10  1  0  0  0  0
  9 27  1  0  0  0  0
  9 28  1  0  0  0  0
 10 11  1  0  0  0  0
 10 29  1  0  0  0  0
 10 45  1  0  0  0  0
 11 18  1  0  0  0  0
 11 12  1  0  0  0  0
 11 30  1  0  0  0  0
 12 13  1  0  0  0  0
 12 31  1  0  0  0  0
 12 32  1  0  0  0  0
 13 14  1  0  0  0  0
 13 33  1  0  0  0  0
 13 34  1  0  0  0  0
 14 15  1  0  0  0  0
 14 16  1  0  0  0  0
 14 35  1  0  0  0  0
 15 36  1  0  0  0  0
 15 37  1  0  0  0  0
 15 38  1  0  0  0  0
 16 17  1  0  0  0  0
 16 18  1  0  0  0  0
 16 39  1  0  0  0  0
 17 40  1  0  0  0  0
 17 41  1  0  0  0  0
 17 42  1  0  0  0  0
 18 43  1  0  0  0  0
 18 44  1  0  0  0  0
M  CHG  1  10   1
M  END
> <s_m_source_file>
AV-unprocessed.smi

> <i_m_source_file_index>
3285

> <i_lp_mmshare_version>
43012

> <i_f3d_flags>
0

> <s_epik_input>
W0NIM11jMW5vYyhbQ0gzXSljMVtDSDJdW0NIMl1bTkhdW0NAQEhdMltDSDJdW0NIMl1bQ0BASF0oW0NIM10pW0NAQEhdKFtDSDNdKVtDSDJdMg==

> <s_epik_cmdline>
J2VwaWtfcHl0aG9uJywgJy1waCcsICc3LjAnLCAnLXRuJywgJzgnLCAnLW1hJywgJzIwMCcsICctbWV0YWxfYmluZGluZycsICctaW1hZScsICc8aW5maWxlLm1hZT4nLCAnLW9tYWUnLCAnPG91dGZpbGUubWFlPic=

> <r_lp_tautomer_probability>
1

> <r_epik_Ionization_Penalty>
0.000204615

> <r_epik_Ionization_Penalty_Charging>
0.000204615

> <r_epik_Ionization_Penalty_Neutral>
9.28663e-11

> <r_epik_State_Penalty>
-0

> <r_epik_Charging_Adjusted_Penalty>
0.000204615

> <i_epik_Tot_Q>
1

> <i_epik_Tot_abs_Q>
1

> <r_epik_Metal_State_Penalty>
-0

> <b_epik_Metal_Only>
0

> <s_lp_Force_Field>
OPLS_2005

> <r_lp_Energy>
12.3416

> <b_lp_Chiralities_Consistent>
1

> <s_lp_Variant>
AV-unprocessed.smi:3285-2

> <Gold.Version>
5.8.1

> <Gold.Id.Protein>
6NUR|6NUR_protein|mol2

> <Gold.PLP.Fitness>
40.0909

> <Gold.PLP.PLP>
-32.4729

> <Gold.PLP.part.hbond>
-2.0000

> <Gold.PLP.part.metal>
0.0000

> <Gold.PLP.part.buried>
-3.8311

> <Gold.PLP.part.nonpolar>
-27.5201

> <Gold.PLP.part.repulsive>
0.0000

> <Gold.PLP.ligand.clash>
0.0000

> <Gold.PLP.ligand.torsion>
0.6605

> <Gold.PLP.Chemscore.Hbond>
2.9760

> <Gold.PLP.Chemscore.CHOScore>
0.0000

> <Gold.PLP.Chemscore.Metal>
0.0000

> <Gold.Chemscore.Hbonds>
donor molecule, donor type, donor heavy atom, donor atom, acceptor molecule, acceptor atom, score
      L1  H    10    45       P1  7948  2.00
      P1  H  6896  6909       L1     4  0.84

> <Gold.PLP.Chemscore.Internal.Correction>
0.0111

> <Gold.Rescore>
     Score         DG    S(hbond)    S(metal)    S(lipo)     H(rot)  DE(clash)    DE(int)     intcor
     17.83     -18.30       1.84        0.00      86.44       1.35       0.00       0.46       ----

> <Gold.Chemscore.Fitness>
17.8341

> <Gold.Chemscore.DG>
-18.2956

> <Gold.Chemscore.ZeroCoef>
-5.4800

> <Gold.Chemscore.Hbond>
1.8410

> <Gold.Chemscore.Metal>
0.0000

> <Gold.Chemscore.Lipo>
86.4410

> <Gold.Chemscore.Internal_Hbond>
0.0000

> <Gold.Chemscore.DEClash>
0.0029

> <Gold.Chemscore.DEInternal>
0.4586

> <Gold.Chemscore.Rot>
1.3465

> <Gold.Chemscore.Internal.Correction>
   9.000000E+99

> <Gold.Chemscore.Hbonds>
donor molecule, donor type, donor heavy atom, donor atom, acceptor molecule, acceptor atom, score
      L1  H    10    45       P1  7948  0.65
      P1  H  6896  6909       L1     4  0.73

> <Gold.Chemscore.Hbond.Weighted>
-6.1490

> <Gold.Chemscore.Metal.Weighted>
-0.0000

> <Gold.Chemscore.Lipo.Weighted>
-10.1136

> <Gold.Chemscore.Internal_Hbond.Weighted>
0.0000

> <Gold.Chemscore.DEClash.Weighted>
0.0029

> <Gold.Chemscore.DEInternal.Weighted>
0.4586

> <Gold.Chemscore.Rot.Weighted>
3.4470

> <Gold.Chemscore.Internal.Correction.Weighted>
   9.000000E+99

> <Gold.Protein.RotatedTorsions>
[ 6907 6896 6895 6894 ] final  -37.81 input  -60.11 | X-H torsion
[ 7974 7965 7964 7962 ] final  -78.45 input  175.53 | X-H torsion
[ 8008 7997 7996 7995 ] final -115.96 input   59.86 | X-H torsion
[ 10167 10162 10161 10158 ] final -114.20 input  -65.29 | X-H torsion
[ 10718 10713 10712 10709 ] final  124.80 input   66.30 | X-H torsion
[ 10763 10752 10751 10750 ] final  -99.80 input  -60.55 | X-H torsion
[ 11005 11000 10999 10996 ] final   74.18 input  -57.11 | X-H torsion

> <Gold.Protein.ActiveResidues>
 VAL166  LYS551  ARG553  GLY616  TRP617  ASP618  TYR619  PRO620  LYS621  CYS622 
 ASP623  PHE694  ASN695  SER759  ASP760  ASP761  ALA762  ILE779  LEU786  VAL792 
 PHE793  MET794  SER795  GLU796  ALA797  LYS798  CYS799  TRP800  GLU811  SER814 

> <Gold.Protein.RotatedAtoms>
  151.0101  134.9390  159.8002 H   0  0  0  0  0  0  0  0  0  0  0  0  # atno 6907 bound_to 6896
  152.5300  134.3039  159.9099 H   0  0  0  0  0  0  0  0  0  0  0  0  # atno 6908 bound_to 6896
  151.3045  133.4066  159.2676 H   0  0  0  0  0  0  0  0  0  0  0  0  # atno 6909 bound_to 6896
  145.5863  140.9438  143.1317 H   0  0  0  0  0  0  0  0  0  0  0  0  # atno 7974 bound_to 7965
  155.0603  140.0393  157.2574 H   0  0  0  0  0  0  0  0  0  0  0  0  # atno 8008 bound_to 7997
  154.7065  140.2684  155.6645 H   0  0  0  0  0  0  0  0  0  0  0  0  # atno 8009 bound_to 7997
  156.2776  140.2730  156.1693 H   0  0  0  0  0  0  0  0  0  0  0  0  # atno 8010 bound_to 7997
  140.1035  143.4591  152.1797 H   0  0  0  0  0  0  0  0  0  0  0  0  # atno 10167 bound_to 10162
  157.5556  131.1092  150.8628 H   0  0  0  0  0  0  0  0  0  0  0  0  # atno 10718 bound_to 10713
  154.7528  135.4958  153.9320 H   0  0  0  0  0  0  0  0  0  0  0  0  # atno 10763 bound_to 10752
  153.1162  135.6721  153.9422 H   0  0  0  0  0  0  0  0  0  0  0  0  # atno 10764 bound_to 10752
  153.9167  135.3093  155.3427 H   0  0  0  0  0  0  0  0  0  0  0  0  # atno 10765 bound_to 10752
  139.9403  134.7411  156.1117 H   0  0  0  0  0  0  0  0  0  0  0  0  # atno 11005 bound_to 11000
  144.7371  139.7554  143.7325 LP  0  0  0  0  0  0  0  0  0  0  0  0  # atno 17320 bound_to 7965
  146.1680  139.4819  142.9946 LP  0  0  0  0  0  0  0  0  0  0  0  0  # atno 17321 bound_to 7965
  139.5658  144.7434  151.4027 LP  0  0  0  0  0  0  0  0  0  0  0  0  # atno 17342 bound_to 10162
  140.6965  143.7737  150.7334 LP  0  0  0  0  0  0  0  0  0  0  0  0  # atno 17343 bound_to 10162
  156.9140  130.5291  149.5280 LP  0  0  0  0  0  0  0  0  0  0  0  0  # atno 17370 bound_to 10713
  156.0615  130.5667  150.9202 LP  0  0  0  0  0  0  0  0  0  0  0  0  # atno 17371 bound_to 10713
  141.1035  133.6668  156.2809 LP  0  0  0  0  0  0  0  0  0  0  0  0  # atno 17394 bound_to 11000
  140.5968  134.5595  157.5510 LP  0  0  0  0  0  0  0  0  0  0  0  0  # atno 17395 bound_to 11000

$$$$
