AV-unprocessed.smi:1871|AV-procd|sdf|7602|dock8
  -GOLD-   22720 9323D 1   1.00000     0.00000
 Structure written by MMmdl.
 41 43  0  0  0  0  0  0  0  0  2 V2000
  147.1716  138.5351  151.1821 O   0  0  0  0  0  0  0  0  0  0  0  0
  146.2645  138.1046  152.1751 C   0  0  0  0  0  0  0  0  0  0  0  0
  145.7534  136.7171  151.9456 C   0  0  0  0  0  0  0  0  0  0  0  0
  146.4961  135.6391  151.5628 N   0  3  0  0  0  0  0  0  0  0  0  0
  145.6767  134.5172  151.4386 C   0  0  0  0  0  0  0  0  0  0  0  0
  145.9729  133.2071  151.0759 C   0  0  0  0  0  0  0  0  0  0  0  0
  144.8938  132.2993  151.0470 C   0  0  0  0  0  0  0  0  0  0  0  0
  143.5833  132.7061  151.3719 C   0  0  0  0  0  0  0  0  0  0  0  0
  143.2953  134.0377  151.7372 C   0  0  0  0  0  0  0  0  0  0  0  0
  144.3681  134.9285  151.7620 C   0  0  0  0  0  0  0  0  0  0  0  0
  144.4612  136.2919  152.0621 N   0  0  0  0  0  0  0  0  0  0  0  0
  143.2406  137.0286  152.4266 C   0  0  0  0  0  0  0  0  0  0  0  0
  142.5567  136.4613  153.6874 C   0  0  1  0  0  0  0  0  0  0  0  0
  143.4441  136.6147  154.7755 O   0  0  0  0  0  0  0  0  0  0  0  0
  141.2031  137.1071  153.9476 C   0  0  0  0  0  0  0  0  0  0  0  0
  141.1047  138.4820  154.2506 C   0  0  0  0  0  0  0  0  0  0  0  0
  139.8445  139.0732  154.4620 C   0  0  0  0  0  0  0  0  0  0  0  0
  138.6670  138.3029  154.3812 C   0  0  0  0  0  0  0  0  0  0  0  0
  137.4650  138.9435  154.5797 O   0  0  0  0  0  0  0  0  0  0  0  0
  137.0820  139.9243  153.7194 C   0  0  0  0  0  0  0  0  0  0  0  0
  135.7406  140.1005  153.7937 F   0  0  0  0  0  0  0  0  0  0  0  0
  137.6678  141.1010  154.0514 F   0  0  0  0  0  0  0  0  0  0  0  0
  138.7672  136.9264  154.0664 C   0  0  0  0  0  0  0  0  0  0  0  0
  140.0269  136.3342  153.8553 C   0  0  0  0  0  0  0  0  0  0  0  0
  147.7884  139.1326  151.5777 H   0  0  0  0  0  0  0  0  0  0  0  0
  146.7592  138.1535  153.1454 H   0  0  0  0  0  0  0  0  0  0  0  0
  145.4221  138.7952  152.2022 H   0  0  0  0  0  0  0  0  0  0  0  0
  146.9764  132.8942  150.8266 H   0  0  0  0  0  0  0  0  0  0  0  0
  145.0748  131.2706  150.7708 H   0  0  0  0  0  0  0  0  0  0  0  0
  142.7818  131.9821  151.3401 H   0  0  0  0  0  0  0  0  0  0  0  0
  142.2880  134.3399  151.9832 H   0  0  0  0  0  0  0  0  0  0  0  0
  143.5099  138.0764  152.5678 H   0  0  0  0  0  0  0  0  0  0  0  0
  142.5592  137.0012  151.5759 H   0  0  0  0  0  0  0  0  0  0  0  0
  142.4077  135.3880  153.5651 H   0  0  0  0  0  0  0  0  0  0  0  0
  142.9793  137.0303  155.4860 H   0  0  0  0  0  0  0  0  0  0  0  0
  141.9944  139.0916  154.3127 H   0  0  0  0  0  0  0  0  0  0  0  0
  139.7812  140.1277  154.6881 H   0  0  0  0  0  0  0  0  0  0  0  0
  137.3281  139.6740  152.6872 H   0  0  0  0  0  0  0  0  0  0  0  0
  137.8833  136.3130  153.9748 H   0  0  0  0  0  0  0  0  0  0  0  0
  140.0857  135.2840  153.6087 H   0  0  0  0  0  0  0  0  0  0  0  0
  147.4944  135.6771  151.4005 H   0  0  0  0  0  0  0  0  0  0  0  0
  1  2  1  0  0  0  0
  1 25  1  0  0  0  0
  2  3  1  0  0  0  0
  2 26  1  0  0  0  0
  2 27  1  0  0  0  0
  3 11  1  0  0  0  0
  3  4  2  0  0  0  0
  4  5  1  0  0  0  0
  4 41  1  0  0  0  0
  5 10  2  0  0  0  0
  5  6  1  0  0  0  0
  6  7  2  0  0  0  0
  6 28  1  0  0  0  0
  7  8  1  0  0  0  0
  7 29  1  0  0  0  0
  8  9  2  0  0  0  0
  8 30  1  0  0  0  0
  9 10  1  0  0  0  0
  9 31  1  0  0  0  0
 10 11  1  0  0  0  0
 11 12  1  0  0  0  0
 12 13  1  0  0  0  0
 12 32  1  0  0  0  0
 12 33  1  0  0  0  0
 13 14  1  0  0  0  0
 13 15  1  0  0  0  0
 13 34  1  0  0  0  0
 14 35  1  0  0  0  0
 15 24  1  0  0  0  0
 15 16  2  0  0  0  0
 16 17  1  0  0  0  0
 16 36  1  0  0  0  0
 17 18  2  0  0  0  0
 17 37  1  0  0  0  0
 18 19  1  0  0  0  0
 18 23  1  0  0  0  0
 19 20  1  0  0  0  0
 20 21  1  0  0  0  0
 20 22  1  0  0  0  0
 20 38  1  0  0  0  0
 23 24  2  0  0  0  0
 23 39  1  0  0  0  0
 24 40  1  0  0  0  0
M  CHG  1   4   1
M  END
> <s_m_source_file>
AV-unprocessed.smi

> <i_m_source_file_index>
1871

> <i_lp_mmshare_version>
43012

> <i_f3d_flags>
0

> <s_epik_input>
W2NIXTFbY0hdW2NIXVtjSF1jKGMxMiluKGMobjIpW0NIMl1bT0hdKVtDSDJdW0NASF0oW09IXSljM1tjSF1bY0hdYyhPW0NIXShGKUYpW2NIXVtjSF0z

> <s_epik_cmdline>
J2VwaWtfcHl0aG9uJywgJy1waCcsICc3LjAnLCAnLXRuJywgJzgnLCAnLW1hJywgJzIwMCcsICctbWV0YWxfYmluZGluZycsICctaW1hZScsICc8aW5maWxlLm1hZT4nLCAnLW9tYWUnLCAnPG91dGZpbGUubWFlPic=

> <r_lp_tautomer_probability>
1

> <r_epik_Ionization_Penalty>
1.35642

> <r_epik_Ionization_Penalty_Charging>
1.35557

> <r_epik_Ionization_Penalty_Neutral>
0.000856035

> <r_epik_State_Penalty>
1.43401

> <r_epik_Charging_Adjusted_Penalty>
2.78958

> <i_epik_Tot_Q>
1

> <i_epik_Tot_abs_Q>
1

> <r_epik_Metal_State_Penalty>
5.47166

> <b_epik_Metal_Only>
0

> <s_lp_Force_Field>
OPLS_2005

> <r_lp_Energy>
14.8195

> <b_lp_Chiralities_Consistent>
1

> <s_lp_Variant>
AV-unprocessed.smi:1871-4

> <Gold.Version>
5.8.1

> <Gold.Id.Protein>
6NUR|6NUR_protein|mol2

> <Gold.PLP.Fitness>
54.3670

> <Gold.PLP.PLP>
-44.0026

> <Gold.PLP.part.hbond>
-3.9247

> <Gold.PLP.part.metal>
0.0000

> <Gold.PLP.part.buried>
-4.9926

> <Gold.PLP.part.nonpolar>
-35.9303

> <Gold.PLP.part.repulsive>
0.0875

> <Gold.PLP.ligand.clash>
0.0000

> <Gold.PLP.ligand.torsion>
0.4904

> <Gold.PLP.Chemscore.Hbond>
3.7613

> <Gold.PLP.Chemscore.CHOScore>
0.0000

> <Gold.PLP.Chemscore.Metal>
0.0000

> <Gold.Chemscore.Hbonds>
donor molecule, donor type, donor heavy atom, donor atom, acceptor molecule, acceptor atom, score
      L1  H     1    25       P1  7957  0.76
      L1  H     4    41       P1  7948  2.00
      P1  H  7954  7966       L1     1  1.00

> <Gold.PLP.Chemscore.Internal.Correction>
0.0614

> <Gold.Rescore>
     Score         DG    S(hbond)    S(metal)    S(lipo)     H(rot)  DE(clash)    DE(int)     intcor
     13.20     -14.88       2.09        0.00      94.32       3.37       0.08       1.60       ----

> <Gold.Chemscore.Fitness>
13.2017

> <Gold.Chemscore.DG>
-14.8755

> <Gold.Chemscore.ZeroCoef>
-5.4800

> <Gold.Chemscore.Hbond>
2.0887

> <Gold.Chemscore.Metal>
0.0000

> <Gold.Chemscore.Lipo>
94.3237

> <Gold.Chemscore.Internal_Hbond>
0.0000

> <Gold.Chemscore.DEClash>
0.0766

> <Gold.Chemscore.DEInternal>
1.5972

> <Gold.Chemscore.Rot>
3.3659

> <Gold.Chemscore.Internal.Correction>
   9.000000E+99

> <Gold.Chemscore.Hbonds>
donor molecule, donor type, donor heavy atom, donor atom, acceptor molecule, acceptor atom, score
      L1  H     1    25       P1  7957  0.65
      L1  H     4    41       P1  7948  0.88
      P1  H  7954  7966       L1     1  0.25

> <Gold.Chemscore.Hbond.Weighted>
-6.9763

> <Gold.Chemscore.Metal.Weighted>
-0.0000

> <Gold.Chemscore.Lipo.Weighted>
-11.0359

> <Gold.Chemscore.Internal_Hbond.Weighted>
0.0000

> <Gold.Chemscore.DEClash.Weighted>
0.0766

> <Gold.Chemscore.DEInternal.Weighted>
1.5972

> <Gold.Chemscore.Rot.Weighted>
8.6167

> <Gold.Chemscore.Internal.Correction.Weighted>
   9.000000E+99

> <Gold.Protein.RotatedTorsions>
[ 6907 6896 6895 6894 ] final   48.64 input  -60.11 | X-H torsion
[ 7974 7965 7964 7962 ] final   31.41 input  175.53 | X-H torsion
[ 8008 7997 7996 7995 ] final    7.06 input   59.86 | X-H torsion
[ 10167 10162 10161 10158 ] final   81.98 input  -65.29 | X-H torsion
[ 10718 10713 10712 10709 ] final  -47.63 input   66.30 | X-H torsion
[ 10763 10752 10751 10750 ] final  131.96 input  -60.55 | X-H torsion
[ 11005 11000 10999 10996 ] final   54.03 input  -57.11 | X-H torsion

> <Gold.Protein.ActiveResidues>
 VAL166  LYS551  ARG553  GLY616  TRP617  ASP618  TYR619  PRO620  LYS621  CYS622 
 ASP623  PHE694  ASN695  SER759  ASP760  ASP761  ALA762  ILE779  LEU786  VAL792 
 PHE793  MET794  SER795  GLU796  ALA797  LYS798  CYS799  TRP800  GLU811  SER814 

> <Gold.Protein.RotatedAtoms>
  152.2818  134.7820  160.0394 H   0  0  0  0  0  0  0  0  0  0  0  0  # atno 6907 bound_to 6896
  151.8397  133.3416  159.3647 H   0  0  0  0  0  0  0  0  0  0  0  0  # atno 6908 bound_to 6896
  150.7193  134.5331  159.5754 H   0  0  0  0  0  0  0  0  0  0  0  0  # atno 6909 bound_to 6896
  146.1552  139.6661  142.9071 H   0  0  0  0  0  0  0  0  0  0  0  0  # atno 7974 bound_to 7965
  154.7490  140.2763  155.6308 H   0  0  0  0  0  0  0  0  0  0  0  0  # atno 8008 bound_to 7997
  156.2891  140.2682  156.2165 H   0  0  0  0  0  0  0  0  0  0  0  0  # atno 8009 bound_to 7997
  155.0161  140.0372  157.2408 H   0  0  0  0  0  0  0  0  0  0  0  0  # atno 8010 bound_to 7997
  139.9335  144.6136  150.8321 H   0  0  0  0  0  0  0  0  0  0  0  0  # atno 10167 bound_to 10162
  156.2066  130.4158  149.9170 H   0  0  0  0  0  0  0  0  0  0  0  0  # atno 10718 bound_to 10713
  153.7829  135.3166  155.3368 H   0  0  0  0  0  0  0  0  0  0  0  0  # atno 10763 bound_to 10752
  154.8155  135.4639  154.0634 H   0  0  0  0  0  0  0  0  0  0  0  0  # atno 10764 bound_to 10752
  153.1928  135.6911  153.8416 H   0  0  0  0  0  0  0  0  0  0  0  0  # atno 10765 bound_to 10752
  140.0719  134.5457  155.9037 H   0  0  0  0  0  0  0  0  0  0  0  0  # atno 11005 bound_to 11000
  145.4726  141.0436  143.2690 LP  0  0  0  0  0  0  0  0  0  0  0  0  # atno 17320 bound_to 7965
  144.7954  139.6244  143.7095 LP  0  0  0  0  0  0  0  0  0  0  0  0  # atno 17321 bound_to 7965
  140.7631  143.3214  151.2614 LP  0  0  0  0  0  0  0  0  0  0  0  0  # atno 17342 bound_to 10162
  139.6762  143.9933  152.2782 LP  0  0  0  0  0  0  0  0  0  0  0  0  # atno 17343 bound_to 10162
  156.6862  130.8878  151.3582 LP  0  0  0  0  0  0  0  0  0  0  0  0  # atno 17370 bound_to 10713
  157.7015  130.9339  150.0801 LP  0  0  0  0  0  0  0  0  0  0  0  0  # atno 17371 bound_to 10713
  141.2015  133.6619  156.5955 LP  0  0  0  0  0  0  0  0  0  0  0  0  # atno 17394 bound_to 11000
  140.3614  134.7684  157.4536 LP  0  0  0  0  0  0  0  0  0  0  0  0  # atno 17395 bound_to 11000

$$$$
