AV-unprocessed.smi:2448|AV-procd|sdf|9657|dock1
  -GOLD-   2272013293D 1   1.00000     0.00000
 Structure written by MMmdl.
 38 39  0  0  0  0  0  0  0  0  2 V2000
  147.6388  138.5725  152.1212 O   0  0  0  0  0  0  0  0  0  0  0  0
  147.2236  138.5807  153.4765 C   0  0  1  0  0  0  0  0  0  0  0  0
  146.2669  137.3907  153.6924 C   0  0  0  0  0  0  0  0  0  0  0  0
  146.9909  136.0997  153.6696 N   0  3  0  0  0  0  0  0  0  0  0  0
  146.2349  134.9417  153.1379 C   0  0  1  0  0  0  0  0  0  0  0  0
  146.2258  134.9648  151.5893 C   0  0  0  0  0  0  0  0  0  0  0  0
  145.4116  133.8528  150.9531 C   0  0  0  0  0  0  0  0  0  0  0  0
  144.0070  133.8256  151.0783 C   0  0  0  0  0  0  0  0  0  0  0  0
  143.2978  132.7745  150.4632 C   0  0  0  0  0  0  0  0  0  0  0  0
  143.8957  131.7889  149.7600 N   0  0  0  0  0  0  0  0  0  0  0  0
  145.2409  131.8186  149.6480 C   0  0  0  0  0  0  0  0  0  0  0  0
  146.0435  132.8242  150.2236 C   0  0  0  0  0  0  0  0  0  0  0  0
  146.8205  133.6420  153.7369 C   0  0  0  0  0  0  0  0  0  0  0  0
  147.9131  133.2945  153.0558 F   0  0  0  0  0  0  0  0  0  0  0  0
  147.1738  133.8037  155.0112 F   0  0  0  0  0  0  0  0  0  0  0  0
  145.9328  132.6509  153.6517 F   0  0  0  0  0  0  0  0  0  0  0  0
  148.4814  138.4817  154.3555 C   0  0  0  0  0  0  0  0  0  0  0  0
  149.1949  139.8367  154.3080 C   0  0  0  0  0  0  0  0  0  0  0  0
  147.9227  141.1177  154.1800 S   0  0  0  0  0  0  0  0  0  0  0  0
  146.5912  139.9437  153.8134 C   0  0  0  0  0  0  0  0  0  0  0  0
  148.2000  137.8250  151.9792 H   0  0  0  0  0  0  0  0  0  0  0  0
  145.7498  137.4998  154.6468 H   0  0  0  0  0  0  0  0  0  0  0  0
  145.5019  137.3923  152.9160 H   0  0  0  0  0  0  0  0  0  0  0  0
  147.8471  136.2033  153.1440 H   0  0  0  0  0  0  0  0  0  0  0  0
  145.2080  135.0274  153.4967 H   0  0  0  0  0  0  0  0  0  0  0  0
  145.8163  135.9067  151.2245 H   0  0  0  0  0  0  0  0  0  0  0  0
  147.2488  134.9179  151.2134 H   0  0  0  0  0  0  0  0  0  0  0  0
  143.4796  134.5917  151.6277 H   0  0  0  0  0  0  0  0  0  0  0  0
  142.2214  132.7253  150.5376 H   0  0  0  0  0  0  0  0  0  0  0  0
  145.6915  131.0172  149.0815 H   0  0  0  0  0  0  0  0  0  0  0  0
  147.1166  132.8029  150.1031 H   0  0  0  0  0  0  0  0  0  0  0  0
  148.1872  138.2794  155.3864 H   0  0  0  0  0  0  0  0  0  0  0  0
  149.1408  137.6678  154.0509 H   0  0  0  0  0  0  0  0  0  0  0  0
  149.8285  139.9992  155.1802 H   0  0  0  0  0  0  0  0  0  0  0  0
  149.8286  139.8969  153.4225 H   0  0  0  0  0  0  0  0  0  0  0  0
  145.9481  140.3201  153.0167 H   0  0  0  0  0  0  0  0  0  0  0  0
  145.9797  139.8605  154.7126 H   0  0  0  0  0  0  0  0  0  0  0  0
  147.2335  135.8846  154.6268 H   0  0  0  0  0  0  0  0  0  0  0  0
  1  2  1  0  0  0  0
  1 21  1  0  0  0  0
  2 20  1  0  0  0  0
  2  3  1  0  0  0  0
  2 17  1  0  0  0  0
  3  4  1  0  0  0  0
  3 22  1  0  0  0  0
  3 23  1  0  0  0  0
  4  5  1  0  0  0  0
  4 24  1  0  0  0  0
  4 38  1  0  0  0  0
  5  6  1  0  0  0  0
  5 13  1  0  0  0  0
  5 25  1  0  0  0  0
  6  7  1  0  0  0  0
  6 26  1  0  0  0  0
  6 27  1  0  0  0  0
  7 12  1  0  0  0  0
  7  8  2  0  0  0  0
  8  9  1  0  0  0  0
  8 28  1  0  0  0  0
  9 10  2  0  0  0  0
  9 29  1  0  0  0  0
 10 11  1  0  0  0  0
 11 12  2  0  0  0  0
 11 30  1  0  0  0  0
 12 31  1  0  0  0  0
 13 14  1  0  0  0  0
 13 15  1  0  0  0  0
 13 16  1  0  0  0  0
 17 18  1  0  0  0  0
 17 32  1  0  0  0  0
 17 33  1  0  0  0  0
 18 19  1  0  0  0  0
 18 34  1  0  0  0  0
 18 35  1  0  0  0  0
 19 20  1  0  0  0  0
 20 36  1  0  0  0  0
 20 37  1  0  0  0  0
M  CHG  1   4   1
M  END
> <s_m_source_file>
AV-unprocessed.smi

> <i_m_source_file_index>
2448

> <i_lp_mmshare_version>
43012

> <i_f3d_flags>
0

> <s_epik_input>
W0NIMl0xU1tDSDJdW0NIMl1bQ0BAXTEoW09IXSlbQ0gyXVtOSF1bQ0BASF0oQyhGKShGKUYpW0NIMl1jMltjSF1bY0hdbltjSF1bY0hdMg==

> <s_epik_cmdline>
J2VwaWtfcHl0aG9uJywgJy1waCcsICc3LjAnLCAnLXRuJywgJzgnLCAnLW1hJywgJzIwMCcsICctbWV0YWxfYmluZGluZycsICctaW1hZScsICc8aW5maWxlLm1hZT4nLCAnLW9tYWUnLCAnPG91dGZpbGUubWFlPic=

> <r_epik_Ionization_Penalty>
1.19945

> <r_epik_Ionization_Penalty_Charging>
1.19892

> <r_epik_Ionization_Penalty_Neutral>
0.000532129

> <r_epik_State_Penalty>
0.752927

> <r_epik_Charging_Adjusted_Penalty>
1.95185

> <i_epik_Tot_Q>
1

> <i_epik_Tot_abs_Q>
1

> <r_epik_Metal_State_Penalty>
0.804507

> <b_epik_Metal_Only>
0

> <s_lp_Force_Field>
OPLS_2005

> <r_lp_Energy>
21.3844

> <b_lp_Chiralities_Consistent>
1

> <s_lp_Variant>
AV-unprocessed.smi:2448-7

> <Gold.Version>
5.8.1

> <Gold.Id.Protein>
6NUR|6NUR_protein|mol2

> <Gold.PLP.Fitness>
44.1074

> <Gold.PLP.PLP>
-31.9234

> <Gold.PLP.part.hbond>
-4.0000

> <Gold.PLP.part.metal>
0.0000

> <Gold.PLP.part.buried>
-1.8106

> <Gold.PLP.part.nonpolar>
-27.2657

> <Gold.PLP.part.repulsive>
0.1604

> <Gold.PLP.ligand.clash>
0.0072

> <Gold.PLP.ligand.torsion>
1.1547

> <Gold.PLP.Chemscore.Hbond>
3.6864

> <Gold.PLP.Chemscore.CHOScore>
0.8726

> <Gold.PLP.Chemscore.Metal>
0.0000

> <Gold.Chemscore.Hbonds>
donor molecule, donor type, donor heavy atom, donor atom, acceptor molecule, acceptor atom, score
      L1  H     1    21       P1  7948  1.00
      L1  H     4    24       P1  7948  2.00
      P1  H 10785 10796       L1    10  0.75
      L1  C     9    29       P1 10186  0.77
      L1  C     9    29       P1 10952  0.05

> <Gold.PLP.Chemscore.Internal.Correction>
0.8237

> <Gold.Rescore>
     Score         DG    S(hbond)    S(metal)    S(lipo)     H(rot)  DE(clash)    DE(int)     intcor
     15.34     -18.21       2.61        0.00      86.48       2.39       0.76       2.11       ----

> <Gold.Chemscore.Fitness>
15.3419

> <Gold.Chemscore.DG>
-18.2130

> <Gold.Chemscore.ZeroCoef>
-5.4800

> <Gold.Chemscore.Hbond>
2.6120

> <Gold.Chemscore.Metal>
0.0000

> <Gold.Chemscore.Lipo>
86.4821

> <Gold.Chemscore.Internal_Hbond>
0.0000

> <Gold.Chemscore.DEClash>
0.7564

> <Gold.Chemscore.DEInternal>
2.1147

> <Gold.Chemscore.Rot>
2.3866

> <Gold.Chemscore.Internal.Correction>
   9.000000E+99

> <Gold.Chemscore.Hbonds>
donor molecule, donor type, donor heavy atom, donor atom, acceptor molecule, acceptor atom, score
      L1  H     1    21       P1  7948  1.00
      L1  H     4    24       P1  7948  1.00
      P1  H 10785 10796       L1    10  0.47

> <Gold.Chemscore.Hbond.Weighted>
-8.7242

> <Gold.Chemscore.Metal.Weighted>
-0.0000

> <Gold.Chemscore.Lipo.Weighted>
-10.1184

> <Gold.Chemscore.Internal_Hbond.Weighted>
0.0000

> <Gold.Chemscore.DEClash.Weighted>
0.7564

> <Gold.Chemscore.DEInternal.Weighted>
2.1147

> <Gold.Chemscore.Rot.Weighted>
6.1096

> <Gold.Chemscore.Internal.Correction.Weighted>
   9.000000E+99

> <Gold.Protein.RotatedTorsions>
[ 6907 6896 6895 6894 ] final  -57.98 input  -60.11 | X-H torsion
[ 7974 7965 7964 7962 ] final  -19.64 input  175.53 | X-H torsion
[ 8008 7997 7996 7995 ] final  -24.98 input   59.86 | X-H torsion
[ 10167 10162 10161 10158 ] final   37.70 input  -65.29 | X-H torsion
[ 10718 10713 10712 10709 ] final -124.22 input   66.30 | X-H torsion
[ 10763 10752 10751 10750 ] final -101.03 input  -60.55 | X-H torsion
[ 11005 11000 10999 10996 ] final   32.63 input  -57.11 | X-H torsion

> <Gold.Protein.ActiveResidues>
 VAL166  LYS551  ARG553  GLY616  TRP617  ASP618  TYR619  PRO620  LYS621  CYS622 
 ASP623  PHE694  ASN695  SER759  ASP760  ASP761  ALA762  ILE779  LEU786  VAL792 
 PHE793  MET794  SER795  GLU796  ALA797  LYS798  CYS799  TRP800  GLU811  SER814 

> <Gold.Protein.RotatedAtoms>
  150.8042  134.7157  159.6628 H   0  0  0  0  0  0  0  0  0  0  0  0  # atno 6907 bound_to 6896
  152.4161  134.6035  160.0016 H   0  0  0  0  0  0  0  0  0  0  0  0  # atno 6908 bound_to 6896
  151.6264  133.3298  159.3135 H   0  0  0  0  0  0  0  0  0  0  0  0  # atno 6909 bound_to 6896
  146.1830  140.4091  142.8487 H   0  0  0  0  0  0  0  0  0  0  0  0  # atno 7974 bound_to 7965
  154.4500  140.1939  156.0548 H   0  0  0  0  0  0  0  0  0  0  0  0  # atno 8008 bound_to 7997
  156.0627  140.3294  155.7453 H   0  0  0  0  0  0  0  0  0  0  0  0  # atno 8009 bound_to 7997
  155.5386  140.0584  157.2865 H   0  0  0  0  0  0  0  0  0  0  0  0  # atno 8010 bound_to 7997
  140.4008  144.1726  150.6133 H   0  0  0  0  0  0  0  0  0  0  0  0  # atno 10167 bound_to 10162
  156.1569  130.6574  150.9995 H   0  0  0  0  0  0  0  0  0  0  0  0  # atno 10718 bound_to 10713
  154.7626  135.4913  153.9493 H   0  0  0  0  0  0  0  0  0  0  0  0  # atno 10763 bound_to 10752
  153.1269  135.6744  153.9249 H   0  0  0  0  0  0  0  0  0  0  0  0  # atno 10764 bound_to 10752
  153.8965  135.3115  155.3427 H   0  0  0  0  0  0  0  0  0  0  0  0  # atno 10765 bound_to 10752
  140.2715  134.3077  155.7826 H   0  0  0  0  0  0  0  0  0  0  0  0  # atno 11005 bound_to 11000
  144.8348  140.6765  143.6267 LP  0  0  0  0  0  0  0  0  0  0  0  0  # atno 17320 bound_to 7965
  145.4020  139.1596  143.4172 LP  0  0  0  0  0  0  0  0  0  0  0  0  # atno 17321 bound_to 7965
  140.4742  143.2402  151.9046 LP  0  0  0  0  0  0  0  0  0  0  0  0  # atno 17342 bound_to 10162
  139.4785  144.5338  151.8628 LP  0  0  0  0  0  0  0  0  0  0  0  0  # atno 17343 bound_to 10162
  157.6702  131.0863  150.7630 LP  0  0  0  0  0  0  0  0  0  0  0  0  # atno 17370 bound_to 10713
  156.7695  130.4824  149.5421 LP  0  0  0  0  0  0  0  0  0  0  0  0  # atno 17371 bound_to 10713
  141.2177  133.7469  156.9341 LP  0  0  0  0  0  0  0  0  0  0  0  0  # atno 17394 bound_to 11000
  140.1369  134.9319  157.2413 LP  0  0  0  0  0  0  0  0  0  0  0  0  # atno 17395 bound_to 11000

$$$$
