AV-unprocessed.smi:3348|AV-procd|sdf|12916|dock2
  -GOLD-   2272019333D 1   1.00000     0.00000
 Structure written by MMmdl.
 47 48  0  0  0  0  0  0  0  0  2 V2000
  145.3926  136.2140  150.5673 C   0  0  0  0  0  0  0  0  0  0  0  0
  145.4569  135.8941  152.0696 C   0  0  1  0  0  0  0  0  0  0  0  0
  145.8876  134.4307  152.2988 C   0  0  0  0  0  0  0  0  0  0  0  0
  145.0360  133.4741  151.6111 N   0  0  0  0  0  0  0  0  0  0  0  0
  145.3948  132.2837  151.0139 C   0  0  0  0  0  0  0  0  0  0  0  0
  144.2614  131.7357  150.4853 C   0  0  0  0  0  0  0  0  0  0  0  0
  143.2479  132.6824  150.8026 C   0  0  0  0  0  0  0  0  0  0  0  0
  143.7156  133.7234  151.4723 N   0  0  0  0  0  0  0  0  0  0  0  0
  146.3830  136.8137  152.7689 N   0  3  0  0  0  0  0  0  0  0  0  0
  146.2881  138.2323  152.3668 C   0  0  0  0  0  0  0  0  0  0  0  0
  146.9236  139.1406  153.4235 C   0  0  0  0  0  0  0  0  0  0  0  0
  148.3136  138.8564  153.4856 O   0  0  0  0  0  0  0  0  0  0  0  0
  148.9708  139.3533  154.6459 C   0  0  2  0  0  0  0  0  0  0  0  0
  148.7681  140.8803  154.7552 C   0  0  0  0  0  0  0  0  0  0  0  0
  149.5735  141.4752  155.9195 C   0  0  0  0  0  0  0  0  0  0  0  0
  151.0635  141.1305  155.7925 C   0  0  0  0  0  0  0  0  0  0  0  0
  151.2703  139.6117  155.6935 C   0  0  0  0  0  0  0  0  0  0  0  0
  150.4711  139.0005  154.5249 C   0  0  1  0  0  0  0  0  0  0  0  0
  150.6969  137.4814  154.4503 C   0  0  0  0  0  0  0  0  0  0  0  0
  144.7324  135.5183  150.0491 H   0  0  0  0  0  0  0  0  0  0  0  0
  146.3772  136.1432  150.1037 H   0  0  0  0  0  0  0  0  0  0  0  0
  145.0086  137.2174  150.3836 H   0  0  0  0  0  0  0  0  0  0  0  0
  144.4582  136.0244  152.4890 H   0  0  0  0  0  0  0  0  0  0  0  0
  146.9103  134.2800  151.9500 H   0  0  0  0  0  0  0  0  0  0  0  0
  145.8842  134.1955  153.3642 H   0  0  0  0  0  0  0  0  0  0  0  0
  146.4147  131.9276  151.0162 H   0  0  0  0  0  0  0  0  0  0  0  0
  144.1706  130.8029  149.9487 H   0  0  0  0  0  0  0  0  0  0  0  0
  142.1945  132.6451  150.5668 H   0  0  0  0  0  0  0  0  0  0  0  0
  146.1655  136.7693  153.7544 H   0  0  0  0  0  0  0  0  0  0  0  0
  146.7675  138.3908  151.4006 H   0  0  0  0  0  0  0  0  0  0  0  0
  145.2358  138.4953  152.2523 H   0  0  0  0  0  0  0  0  0  0  0  0
  146.7638  140.1829  153.1481 H   0  0  0  0  0  0  0  0  0  0  0  0
  146.4486  138.9808  154.3929 H   0  0  0  0  0  0  0  0  0  0  0  0
  148.5739  138.8663  155.5389 H   0  0  0  0  0  0  0  0  0  0  0  0
  149.0728  141.3574  153.8228 H   0  0  0  0  0  0  0  0  0  0  0  0
  147.7149  141.1215  154.8950 H   0  0  0  0  0  0  0  0  0  0  0  0
  149.4430  142.5574  155.9484 H   0  0  0  0  0  0  0  0  0  0  0  0
  149.1882  141.0910  156.8649 H   0  0  0  0  0  0  0  0  0  0  0  0
  151.4784  141.6155  154.9079 H   0  0  0  0  0  0  0  0  0  0  0  0
  151.6113  141.5263  156.6483 H   0  0  0  0  0  0  0  0  0  0  0  0
  152.3328  139.3980  155.5719 H   0  0  0  0  0  0  0  0  0  0  0  0
  150.9681  139.1439  156.6316 H   0  0  0  0  0  0  0  0  0  0  0  0
  150.8484  139.4374  153.5989 H   0  0  0  0  0  0  0  0  0  0  0  0
  150.3228  136.9804  155.3435 H   0  0  0  0  0  0  0  0  0  0  0  0
  151.7581  137.2479  154.3583 H   0  0  0  0  0  0  0  0  0  0  0  0
  150.1930  137.0454  153.5874 H   0  0  0  0  0  0  0  0  0  0  0  0
  147.3314  136.4925  152.6357 H   0  0  0  0  0  0  0  0  0  0  0  0
  1  2  1  0  0  0  0
  1 20  1  0  0  0  0
  1 21  1  0  0  0  0
  1 22  1  0  0  0  0
  2  3  1  0  0  0  0
  2  9  1  0  0  0  0
  2 23  1  0  0  0  0
  3  4  1  0  0  0  0
  3 24  1  0  0  0  0
  3 25  1  0  0  0  0
  4  8  1  0  0  0  0
  4  5  1  0  0  0  0
  5  6  2  0  0  0  0
  5 26  1  0  0  0  0
  6  7  1  0  0  0  0
  6 27  1  0  0  0  0
  7  8  2  0  0  0  0
  7 28  1  0  0  0  0
  9 10  1  0  0  0  0
  9 29  1  0  0  0  0
  9 47  1  0  0  0  0
 10 11  1  0  0  0  0
 10 30  1  0  0  0  0
 10 31  1  0  0  0  0
 11 12  1  0  0  0  0
 11 32  1  0  0  0  0
 11 33  1  0  0  0  0
 12 13  1  0  0  0  0
 13 18  1  0  0  0  0
 13 14  1  0  0  0  0
 13 34  1  0  0  0  0
 14 15  1  0  0  0  0
 14 35  1  0  0  0  0
 14 36  1  0  0  0  0
 15 16  1  0  0  0  0
 15 37  1  0  0  0  0
 15 38  1  0  0  0  0
 16 17  1  0  0  0  0
 16 39  1  0  0  0  0
 16 40  1  0  0  0  0
 17 18  1  0  0  0  0
 17 41  1  0  0  0  0
 17 42  1  0  0  0  0
 18 19  1  0  0  0  0
 18 43  1  0  0  0  0
 19 44  1  0  0  0  0
 19 45  1  0  0  0  0
 19 46  1  0  0  0  0
M  CHG  1   9   1
M  END
> <s_m_source_file>
AV-unprocessed.smi

> <i_m_source_file_index>
3348

> <i_lp_mmshare_version>
43012

> <i_f3d_flags>
0

> <s_epik_input>
bjFbY0hdW2NIXVtjSF1uMVtDSDJdW0NAQEhdKFtDSDNdKVtOSF1bQ0gyXVtDSDJdT1tDQEBIXTJbQ0gyXVtDSDJdW0NIMl1bQ0gyXVtDQEhdMltDSDNd

> <s_epik_cmdline>
J2VwaWtfcHl0aG9uJywgJy1waCcsICc3LjAnLCAnLXRuJywgJzgnLCAnLW1hJywgJzIwMCcsICctbWV0YWxfYmluZGluZycsICctaW1hZScsICc8aW5maWxlLm1hZT4nLCAnLW9tYWUnLCAnPG91dGZpbGUubWFlPic=

> <r_lp_tautomer_probability>
1

> <r_epik_Ionization_Penalty>
0.00925088

> <r_epik_Ionization_Penalty_Charging>
0.00924645

> <r_epik_Ionization_Penalty_Neutral>
4.42413e-06

> <r_epik_State_Penalty>
0.0070118

> <r_epik_Charging_Adjusted_Penalty>
0.0162583

> <i_epik_Tot_Q>
1

> <i_epik_Tot_abs_Q>
1

> <r_epik_Metal_State_Penalty>
0.00701222

> <b_epik_Metal_Only>
0

> <s_lp_Force_Field>
OPLS_2005

> <r_lp_Energy>
16.0091

> <b_lp_Chiralities_Consistent>
1

> <s_lp_Variant>
AV-unprocessed.smi:3348-2

> <Gold.Version>
5.8.1

> <Gold.Id.Protein>
6NUR|6NUR_protein|mol2

> <Gold.PLP.Fitness>
48.2931

> <Gold.PLP.PLP>
-36.7623

> <Gold.PLP.part.hbond>
-1.0000

> <Gold.PLP.part.metal>
0.0000

> <Gold.PLP.part.buried>
-3.4998

> <Gold.PLP.part.nonpolar>
-36.0427

> <Gold.PLP.part.repulsive>
1.8171

> <Gold.PLP.ligand.clash>
0.0000

> <Gold.PLP.ligand.torsion>
0.6267

> <Gold.PLP.Chemscore.Hbond>
2.0000

> <Gold.PLP.Chemscore.CHOScore>
2.1589

> <Gold.PLP.Chemscore.Metal>
0.0000

> <Gold.Chemscore.Hbonds>
donor molecule, donor type, donor heavy atom, donor atom, acceptor molecule, acceptor atom, score
      L1  H     9    47       P1  7948  2.00
      L1  C     5    26       P1 10747  0.15
      L1  C     7    28       P1 10186  0.89
      L1  C     7    28       P1 10952  0.21

> <Gold.PLP.Chemscore.Internal.Correction>
0.3077

> <Gold.Rescore>
     Score         DG    S(hbond)    S(metal)    S(lipo)     H(rot)  DE(clash)    DE(int)     intcor
     15.48     -16.44       1.00        0.00     104.95       1.82       0.25       0.71       ----

> <Gold.Chemscore.Fitness>
15.4784

> <Gold.Chemscore.DG>
-16.4446

> <Gold.Chemscore.ZeroCoef>
-5.4800

> <Gold.Chemscore.Hbond>
0.9986

> <Gold.Chemscore.Metal>
0.0000

> <Gold.Chemscore.Lipo>
104.9504

> <Gold.Chemscore.Internal_Hbond>
0.0000

> <Gold.Chemscore.DEClash>
0.2526

> <Gold.Chemscore.DEInternal>
0.7137

> <Gold.Chemscore.Rot>
1.8163

> <Gold.Chemscore.Internal.Correction>
   9.000000E+99

> <Gold.Chemscore.Hbonds>
donor molecule, donor type, donor heavy atom, donor atom, acceptor molecule, acceptor atom, score
      L1  H     9    47       P1  7948  0.99

> <Gold.Chemscore.Hbond.Weighted>
-3.3352

> <Gold.Chemscore.Metal.Weighted>
-0.0000

> <Gold.Chemscore.Lipo.Weighted>
-12.2792

> <Gold.Chemscore.Internal_Hbond.Weighted>
0.0000

> <Gold.Chemscore.DEClash.Weighted>
0.2526

> <Gold.Chemscore.DEInternal.Weighted>
0.7137

> <Gold.Chemscore.Rot.Weighted>
4.6497

> <Gold.Chemscore.Internal.Correction.Weighted>
   9.000000E+99

> <Gold.Protein.RotatedTorsions>
[ 6907 6896 6895 6894 ] final  -39.97 input  -60.11 | X-H torsion
[ 7974 7965 7964 7962 ] final -147.98 input  175.53 | X-H torsion
[ 8008 7997 7996 7995 ] final  -84.60 input   59.86 | X-H torsion
[ 10167 10162 10161 10158 ] final -157.15 input  -65.29 | X-H torsion
[ 10718 10713 10712 10709 ] final -116.08 input   66.30 | X-H torsion
[ 10763 10752 10751 10750 ] final -105.10 input  -60.55 | X-H torsion
[ 11005 11000 10999 10996 ] final -144.19 input  -57.11 | X-H torsion

> <Gold.Protein.ActiveResidues>
 VAL166  LYS551  ARG553  GLY616  TRP617  ASP618  TYR619  PRO620  LYS621  CYS622 
 ASP623  PHE694  ASN695  SER759  ASP760  ASP761  ALA762  ILE779  LEU786  VAL792 
 PHE793  MET794  SER795  GLU796  ALA797  LYS798  CYS799  TRP800  GLU811  SER814 

> <Gold.Protein.RotatedAtoms>
  150.9840  134.9189  159.7860 H   0  0  0  0  0  0  0  0  0  0  0  0  # atno 6907 bound_to 6896
  152.5230  134.3372  159.9214 H   0  0  0  0  0  0  0  0  0  0  0  0  # atno 6908 bound_to 6896
  151.3378  133.3933  159.2703 H   0  0  0  0  0  0  0  0  0  0  0  0  # atno 6909 bound_to 6896
  144.8058  140.5255  143.5676 H   0  0  0  0  0  0  0  0  0  0  0  0  # atno 7974 bound_to 7965
  154.6316  140.0603  156.9739 H   0  0  0  0  0  0  0  0  0  0  0  0  # atno 8008 bound_to 7997
  155.1657  140.3286  155.4384 H   0  0  0  0  0  0  0  0  0  0  0  0  # atno 8009 bound_to 7997
  156.2486  140.1923  156.6761 H   0  0  0  0  0  0  0  0  0  0  0  0  # atno 8010 bound_to 7997
  139.6793  143.9608  152.2328 H   0  0  0  0  0  0  0  0  0  0  0  0  # atno 10167 bound_to 10162
  156.0939  130.6116  150.8990 H   0  0  0  0  0  0  0  0  0  0  0  0  # atno 10718 bound_to 10713
  154.7923  135.4761  154.0082 H   0  0  0  0  0  0  0  0  0  0  0  0  # atno 10763 bound_to 10752
  153.1650  135.6815  153.8695 H   0  0  0  0  0  0  0  0  0  0  0  0  # atno 10764 bound_to 10752
  153.8296  135.3193  155.3395 H   0  0  0  0  0  0  0  0  0  0  0  0  # atno 10765 bound_to 10752
  140.8049  134.2813  157.4964 H   0  0  0  0  0  0  0  0  0  0  0  0  # atno 11005 bound_to 11000
  145.5442  139.1475  143.3430 LP  0  0  0  0  0  0  0  0  0  0  0  0  # atno 17320 bound_to 7965
  146.2349  140.5581  142.8959 LP  0  0  0  0  0  0  0  0  0  0  0  0  # atno 17321 bound_to 7965
  139.9394  144.6691  150.8282 LP  0  0  0  0  0  0  0  0  0  0  0  0  # atno 17342 bound_to 10162
  140.7647  143.3255  151.2526 LP  0  0  0  0  0  0  0  0  0  0  0  0  # atno 17343 bound_to 10162
  157.6095  131.0937  150.8819 LP  0  0  0  0  0  0  0  0  0  0  0  0  # atno 17370 bound_to 10713
  156.8961  130.5230  149.5284 LP  0  0  0  0  0  0  0  0  0  0  0  0  # atno 17371 bound_to 10713
  139.8718  134.9450  156.3898 LP  0  0  0  0  0  0  0  0  0  0  0  0  # atno 17394 bound_to 11000
  140.9257  133.7614  155.9961 LP  0  0  0  0  0  0  0  0  0  0  0  0  # atno 17395 bound_to 11000

$$$$
