AV-unprocessed.smi:3006|AV-procd|sdf|11444|dock1
  -GOLD-   2272016373D 1   1.00000     0.00000
 Structure written by MMmdl.
 45 46  0  0  0  0  0  0  0  0  2 V2000
  152.5523  143.8171  161.9614 C   0  0  0  0  0  0  0  0  0  0  0  0
  151.9519  143.8577  160.5980 C   0  0  0  0  0  0  0  0  0  0  0  0
  151.5667  142.7691  159.9268 N   0  0  0  0  0  0  0  0  0  0  0  0
  151.0272  143.0727  158.6728 C   0  0  0  0  0  0  0  0  0  0  0  0
  150.5323  141.9719  157.7848 C   0  0  0  0  0  0  0  0  0  0  0  0
  150.7567  142.2841  156.2964 C   0  0  0  0  0  0  0  0  0  0  0  0
  149.5533  142.0393  155.5097 N   0  0  0  0  0  0  0  0  0  0  0  0
  149.3849  141.0217  154.6485 C   0  0  0  0  0  0  0  0  0  0  0  0
  150.2562  140.1723  154.4590 O   0  0  0  0  0  0  0  0  0  0  0  0
  148.1741  140.9888  154.0373 N   0  0  0  0  0  0  0  0  0  0  0  0
  147.5405  139.8223  153.4138 C   0  0  0  0  0  0  0  0  0  0  0  0
  146.4166  139.3122  154.3345 C   0  0  0  0  0  0  0  0  0  0  0  0
  145.4227  140.3773  154.6725 N   0  3  0  0  0  0  0  0  0  0  0  0
  144.3513  139.9095  155.6109 C   0  0  0  0  0  0  0  0  0  0  0  0
  143.5860  138.6858  155.0660 C   0  0  0  0  0  0  0  0  0  0  0  0
  143.3310  141.0183  155.9447 C   0  0  0  0  0  0  0  0  0  0  0  0
  146.0801  141.6465  155.1103 C   0  0  0  0  0  0  0  0  0  0  0  0
  147.2095  142.0807  154.1592 C   0  0  0  0  0  0  0  0  0  0  0  0
  151.0146  144.4181  158.4004 C   0  0  0  0  0  0  0  0  0  0  0  0
  151.6772  145.3531  159.7127 S   0  0  0  0  0  0  0  0  0  0  0  0
  152.6781  142.7868  162.2960 H   0  0  0  0  0  0  0  0  0  0  0  0
  151.9060  144.3374  162.6680 H   0  0  0  0  0  0  0  0  0  0  0  0
  153.5278  144.3034  161.9535 H   0  0  0  0  0  0  0  0  0  0  0  0
  151.0334  141.0381  158.0432 H   0  0  0  0  0  0  0  0  0  0  0  0
  149.4704  141.7997  157.9655 H   0  0  0  0  0  0  0  0  0  0  0  0
  151.0320  143.3319  156.1732 H   0  0  0  0  0  0  0  0  0  0  0  0
  151.5898  141.6979  155.9042 H   0  0  0  0  0  0  0  0  0  0  0  0
  148.7912  142.6903  155.6314 H   0  0  0  0  0  0  0  0  0  0  0  0
  147.1247  140.1152  152.4484 H   0  0  0  0  0  0  0  0  0  0  0  0
  148.2325  139.0099  153.1922 H   0  0  0  0  0  0  0  0  0  0  0  0
  145.9288  138.4823  153.8255 H   0  0  0  0  0  0  0  0  0  0  0  0
  146.8480  138.9156  155.2552 H   0  0  0  0  0  0  0  0  0  0  0  0
  144.8319  139.6113  156.5441 H   0  0  0  0  0  0  0  0  0  0  0  0
  142.7437  138.4311  155.7101 H   0  0  0  0  0  0  0  0  0  0  0  0
  144.2098  137.7935  155.0211 H   0  0  0  0  0  0  0  0  0  0  0  0
  143.1895  138.8765  154.0682 H   0  0  0  0  0  0  0  0  0  0  0  0
  142.5043  140.6248  156.5368 H   0  0  0  0  0  0  0  0  0  0  0  0
  142.9071  141.4557  155.0401 H   0  0  0  0  0  0  0  0  0  0  0  0
  143.7704  141.8195  156.5386 H   0  0  0  0  0  0  0  0  0  0  0  0
  145.3564  142.4593  155.1508 H   0  0  0  0  0  0  0  0  0  0  0  0
  146.4767  141.5176  156.1190 H   0  0  0  0  0  0  0  0  0  0  0  0
  147.6639  143.0060  154.5168 H   0  0  0  0  0  0  0  0  0  0  0  0
  146.8018  142.3168  153.1750 H   0  0  0  0  0  0  0  0  0  0  0  0
  150.6545  144.9143  157.5112 H   0  0  0  0  0  0  0  0  0  0  0  0
  144.9580  140.6004  153.8039 H   0  0  0  0  0  0  0  0  0  0  0  0
  1  2  1  0  0  0  0
  1 21  1  0  0  0  0
  1 22  1  0  0  0  0
  1 23  1  0  0  0  0
  2 20  1  0  0  0  0
  2  3  2  0  0  0  0
  3  4  1  0  0  0  0
  4  5  1  0  0  0  0
  4 19  2  0  0  0  0
  5  6  1  0  0  0  0
  5 24  1  0  0  0  0
  5 25  1  0  0  0  0
  6  7  1  0  0  0  0
  6 26  1  0  0  0  0
  6 27  1  0  0  0  0
  7  8  1  0  0  0  0
  7 28  1  0  0  0  0
  8  9  2  0  0  0  0
  8 10  1  0  0  0  0
 10 18  1  0  0  0  0
 10 11  1  0  0  0  0
 11 12  1  0  0  0  0
 11 29  1  0  0  0  0
 11 30  1  0  0  0  0
 12 13  1  0  0  0  0
 12 31  1  0  0  0  0
 12 32  1  0  0  0  0
 13 14  1  0  0  0  0
 13 17  1  0  0  0  0
 13 45  1  0  0  0  0
 14 15  1  0  0  0  0
 14 16  1  0  0  0  0
 14 33  1  0  0  0  0
 15 34  1  0  0  0  0
 15 35  1  0  0  0  0
 15 36  1  0  0  0  0
 16 37  1  0  0  0  0
 16 38  1  0  0  0  0
 16 39  1  0  0  0  0
 17 18  1  0  0  0  0
 17 40  1  0  0  0  0
 17 41  1  0  0  0  0
 18 42  1  0  0  0  0
 18 43  1  0  0  0  0
 19 20  1  0  0  0  0
 19 44  1  0  0  0  0
M  CHG  1  13   1
M  END
> <s_m_source_file>
AV-unprocessed.smi

> <i_m_source_file_index>
3006

> <i_lp_mmshare_version>
43012

> <i_f3d_flags>
0

> <s_epik_input>
W0NIM11jMW5jKFtjSF1zMSlbQ0gyXVtDSDJdW05IXUMoPU8pTjJbQ0gyXVtDSDJdTihbQ0hdKFtDSDNdKVtDSDNdKVtDSDJdW0NIMl0y

> <s_epik_cmdline>
J2VwaWtfcHl0aG9uJywgJy1waCcsICc3LjAnLCAnLXRuJywgJzgnLCAnLW1hJywgJzIwMCcsICctbWV0YWxfYmluZGluZycsICctaW1hZScsICc8aW5maWxlLm1hZT4nLCAnLW9tYWUnLCAnPG91dGZpbGUubWFlPic=

> <r_epik_Ionization_Penalty>
0.155723

> <r_epik_Ionization_Penalty_Charging>
0.153999

> <r_epik_Ionization_Penalty_Neutral>
0.00172372

> <r_epik_State_Penalty>
0.139716

> <r_epik_Charging_Adjusted_Penalty>
0.293715

> <i_epik_Tot_Q>
1

> <i_epik_Tot_abs_Q>
1

> <r_epik_Metal_State_Penalty>
0.138566

> <b_epik_Metal_Only>
0

> <s_lp_Force_Field>
OPLS_2005

> <r_lp_Energy>
45.5874

> <b_lp_Chiralities_Consistent>
1

> <s_lp_Variant>
AV-unprocessed.smi:3006-1

> <Gold.Version>
5.8.1

> <Gold.Id.Protein>
6NUR|6NUR_protein|mol2

> <Gold.PLP.Fitness>
50.7909

> <Gold.PLP.PLP>
-40.3969

> <Gold.PLP.part.hbond>
-3.3183

> <Gold.PLP.part.metal>
0.0000

> <Gold.PLP.part.buried>
-3.2775

> <Gold.PLP.part.nonpolar>
-32.9773

> <Gold.PLP.part.repulsive>
0.2769

> <Gold.PLP.ligand.clash>
1.6089

> <Gold.PLP.ligand.torsion>
0.9031

> <Gold.PLP.Chemscore.Hbond>
3.5600

> <Gold.PLP.Chemscore.CHOScore>
1.0022

> <Gold.PLP.Chemscore.Metal>
0.0000

> <Gold.Chemscore.Hbonds>
donor molecule, donor type, donor heavy atom, donor atom, acceptor molecule, acceptor atom, score
      L1  H     7    28       P1  8028  0.56
      L1  H    13    45       P1 10175  2.00
      P1  H  7989  7998       L1     9  1.00
      L1  C    19    44       P1  8028  1.00

> <Gold.PLP.Chemscore.Internal.Correction>
0.1224

> <Gold.Rescore>
     Score         DG    S(hbond)    S(metal)    S(lipo)     H(rot)  DE(clash)    DE(int)     intcor
     20.21     -21.12       2.38        0.00      96.93       1.42       0.10       0.81       ----

> <Gold.Chemscore.Fitness>
20.2085

> <Gold.Chemscore.DG>
-21.1183

> <Gold.Chemscore.ZeroCoef>
-5.4800

> <Gold.Chemscore.Hbond>
2.3772

> <Gold.Chemscore.Metal>
0.0000

> <Gold.Chemscore.Lipo>
96.9342

> <Gold.Chemscore.Internal_Hbond>
0.0000

> <Gold.Chemscore.DEClash>
0.0977

> <Gold.Chemscore.DEInternal>
0.8121

> <Gold.Chemscore.Rot>
1.4230

> <Gold.Chemscore.Internal.Correction>
   9.000000E+99

> <Gold.Chemscore.Hbonds>
donor molecule, donor type, donor heavy atom, donor atom, acceptor molecule, acceptor atom, score
      L1  H     7    28       P1  8028  0.52
      L1  H    13    45       P1 10175  0.98
      P1  H  7989  7998       L1     9  0.73

> <Gold.Chemscore.Hbond.Weighted>
-7.9400

> <Gold.Chemscore.Metal.Weighted>
-0.0000

> <Gold.Chemscore.Lipo.Weighted>
-11.3413

> <Gold.Chemscore.Internal_Hbond.Weighted>
0.0000

> <Gold.Chemscore.DEClash.Weighted>
0.0977

> <Gold.Chemscore.DEInternal.Weighted>
0.8121

> <Gold.Chemscore.Rot.Weighted>
3.6430

> <Gold.Chemscore.Internal.Correction.Weighted>
   9.000000E+99

> <Gold.Protein.RotatedTorsions>
[ 6907 6896 6895 6894 ] final   75.83 input  -60.11 | X-H torsion
[ 7974 7965 7964 7962 ] final  -63.94 input  175.53 | X-H torsion
[ 8008 7997 7996 7995 ] final   14.34 input   59.86 | X-H torsion
[ 10167 10162 10161 10158 ] final -157.78 input  -65.29 | X-H torsion
[ 10718 10713 10712 10709 ] final  -53.33 input   66.30 | X-H torsion
[ 10763 10752 10751 10750 ] final  -39.36 input  -60.55 | X-H torsion
[ 11005 11000 10999 10996 ] final   45.41 input  -57.11 | X-H torsion

> <Gold.Protein.ActiveResidues>
 VAL166  LYS551  ARG553  GLY616  TRP617  ASP618  TYR619  PRO620  LYS621  CYS622 
 ASP623  PHE694  ASN695  SER759  ASP760  ASP761  ALA762  ILE779  LEU786  VAL792 
 PHE793  MET794  SER795  GLU796  ALA797  LYS798  CYS799  TRP800  GLU811  SER814 

> <Gold.Protein.RotatedAtoms>
  152.5044  134.4061  159.9432 H   0  0  0  0  0  0  0  0  0  0  0  0  # atno 6907 bound_to 6896
  151.4027  133.3746  159.2742 H   0  0  0  0  0  0  0  0  0  0  0  0  # atno 6908 bound_to 6896
  150.9350  134.8784  159.7635 H   0  0  0  0  0  0  0  0  0  0  0  0  # atno 6909 bound_to 6896
  145.7728  140.8803  143.0371 H   0  0  0  0  0  0  0  0  0  0  0  0  # atno 7974 bound_to 7965
  154.8470  140.2923  155.5622 H   0  0  0  0  0  0  0  0  0  0  0  0  # atno 8008 bound_to 7997
  156.3015  140.2503  156.3355 H   0  0  0  0  0  0  0  0  0  0  0  0  # atno 8009 bound_to 7997
  154.9062  140.0390  157.1910 H   0  0  0  0  0  0  0  0  0  0  0  0  # atno 8010 bound_to 7997
  139.6744  143.9690  152.2302 H   0  0  0  0  0  0  0  0  0  0  0  0  # atno 10167 bound_to 10162
  156.1545  130.4150  149.9892 H   0  0  0  0  0  0  0  0  0  0  0  0  # atno 10718 bound_to 10713
  153.9281  135.6775  153.4746 H   0  0  0  0  0  0  0  0  0  0  0  0  # atno 10763 bound_to 10752
  153.0994  135.4835  154.8835 H   0  0  0  0  0  0  0  0  0  0  0  0  # atno 10764 bound_to 10752
  154.7442  135.3168  154.8630 H   0  0  0  0  0  0  0  0  0  0  0  0  # atno 10765 bound_to 10752
  140.1463  134.4519  155.8413 H   0  0  0  0  0  0  0  0  0  0  0  0  # atno 11005 bound_to 11000
  144.6809  139.9880  143.7484 LP  0  0  0  0  0  0  0  0  0  0  0  0  # atno 17320 bound_to 7965
  146.0152  139.3204  143.0846 LP  0  0  0  0  0  0  0  0  0  0  0  0  # atno 17321 bound_to 7965
  139.9463  144.6649  150.8216 LP  0  0  0  0  0  0  0  0  0  0  0  0  # atno 17342 bound_to 10162
  140.7630  143.3211  151.2619 LP  0  0  0  0  0  0  0  0  0  0  0  0  # atno 17343 bound_to 10162
  156.7740  130.9196  151.3645 LP  0  0  0  0  0  0  0  0  0  0  0  0  # atno 17370 bound_to 10713
  157.6683  130.9028  149.9983 LP  0  0  0  0  0  0  0  0  0  0  0  0  # atno 17371 bound_to 10713
  141.2193  133.6853  156.7339 LP  0  0  0  0  0  0  0  0  0  0  0  0  # atno 17394 bound_to 11000
  140.2660  134.8429  157.3803 LP  0  0  0  0  0  0  0  0  0  0  0  0  # atno 17395 bound_to 11000

$$$$
