AV-unprocessed.smi:3012|AV-procd|sdf|11461|dock1
  -GOLD-   2272016393D 1   1.00000     0.00000
 Structure written by MMmdl.
 17 17  0  0  0  0  0  0  0  0  2 V2000
  151.1283  140.2003  154.6048 O   0  0  0  0  0  0  0  0  0  0  0  0
  151.4260  140.5155  155.7776 C   0  0  0  0  0  0  0  0  0  0  0  0
  152.4802  140.2015  156.3725 O   0  5  0  0  0  0  0  0  0  0  0  0
  150.4109  141.3571  156.5516 C   0  0  0  0  0  0  0  0  0  0  0  0
  151.0424  142.1499  157.6842 C   0  0  0  0  0  0  0  0  0  0  0  0
  151.8016  141.5878  158.6595 C   0  0  0  0  0  0  0  0  0  0  0  0
  152.3966  142.4124  159.7111 C   0  0  0  0  0  0  0  0  0  0  0  0
  153.0922  141.9910  160.6329 O   0  0  0  0  0  0  0  0  0  0  0  0
  152.1212  143.7816  159.6075 N   0  0  0  0  0  0  0  0  0  0  0  0
  151.3495  144.3707  158.6049 C   0  0  0  0  0  0  0  0  0  0  0  0
  151.1489  145.5824  158.5730 O   0  0  0  0  0  0  0  0  0  0  0  0
  150.8175  143.5131  157.6396 N   0  0  0  0  0  0  0  0  0  0  0  0
  152.5118  144.3893  160.3128 H   0  0  0  0  0  0  0  0  0  0  0  0
  150.2516  143.9152  156.9061 H   0  0  0  0  0  0  0  0  0  0  0  0
  149.9202  142.0488  155.8659 H   0  0  0  0  0  0  0  0  0  0  0  0
  149.6272  140.7033  156.9383 H   0  0  0  0  0  0  0  0  0  0  0  0
  151.9707  140.5204  158.6653 H   0  0  0  0  0  0  0  0  0  0  0  0
  1  2  2  0  0  0  0
  2  3  1  0  0  0  0
  2  4  1  0  0  0  0
  4  5  1  0  0  0  0
  4 15  1  0  0  0  0
  4 16  1  0  0  0  0
  5 12  1  0  0  0  0
  5  6  2  0  0  0  0
  6  7  1  0  0  0  0
  6 17  1  0  0  0  0
  7  8  2  0  0  0  0
  7  9  1  0  0  0  0
  9 13  1  0  0  0  0
  9 10  1  0  0  0  0
 10 11  2  0  0  0  0
 10 12  1  0  0  0  0
 12 14  1  0  0  0  0
M  CHG  1   3  -1
M  END
> <s_m_source_file>
AV-unprocessed.smi

> <i_m_source_file_index>
3012

> <i_lp_mmshare_version>
43012

> <i_f3d_flags>
0

> <s_epik_input>
Tz1DKFtPSF0pW0NIMl1jMVtjSF1jKD1PKVtuSF1jKD1PKVtuSF0x

> <s_epik_cmdline>
J2VwaWtfcHl0aG9uJywgJy1waCcsICc3LjAnLCAnLXRuJywgJzgnLCAnLW1hJywgJzIwMCcsICctbWV0YWxfYmluZGluZycsICctaW1hZScsICc8aW5maWxlLm1hZT4nLCAnLW9tYWUnLCAnPG91dGZpbGUubWFlPic=

> <r_lp_tautomer_probability>
1

> <r_epik_Ionization_Penalty>
0.00187741

> <r_epik_Ionization_Penalty_Charging>
0.00187741

> <r_epik_Ionization_Penalty_Neutral>
1.02484e-13

> <r_epik_State_Penalty>
-0

> <r_epik_Charging_Adjusted_Penalty>
0.00187741

> <i_epik_Tot_Q>
-1

> <i_epik_Tot_abs_Q>
1

> <r_epik_Metal_State_Penalty>
0.67268

> <b_epik_Metal_Only>
0

> <s_lp_Force_Field>
OPLS_2005

> <r_lp_Energy>
0.757272

> <b_lp_Chiralities_Consistent>
1

> <s_lp_Variant>
AV-unprocessed.smi:3012-1

> <Gold.Version>
5.8.1

> <Gold.Id.Protein>
6NUR|6NUR_protein|mol2

> <Gold.PLP.Fitness>
33.1910

> <Gold.PLP.PLP>
-21.9101

> <Gold.PLP.part.hbond>
-4.0000

> <Gold.PLP.part.metal>
0.0000

> <Gold.PLP.part.buried>
-2.4224

> <Gold.PLP.part.nonpolar>
-15.6529

> <Gold.PLP.part.repulsive>
0.2465

> <Gold.PLP.ligand.clash>
0.0000

> <Gold.PLP.ligand.torsion>
0.3603

> <Gold.PLP.Chemscore.Hbond>
4.0000

> <Gold.PLP.Chemscore.CHOScore>
0.0000

> <Gold.PLP.Chemscore.Metal>
0.0000

> <Gold.Chemscore.Hbonds>
donor molecule, donor type, donor heavy atom, donor atom, acceptor molecule, acceptor atom, score
      L1  H    12    14       P1  8028  1.00
      P1  H  7989  7998       L1     1  0.65
      P1  H  7997  8009       L1     3  2.00

> <Gold.PLP.Chemscore.Internal.Correction>
0.0014

> <Gold.Rescore>
     Score         DG    S(hbond)    S(metal)    S(lipo)     H(rot)  DE(clash)    DE(int)     intcor
     11.26     -13.07       2.90        0.00      19.30       1.70       0.09       1.71       ----

> <Gold.Chemscore.Fitness>
11.2636

> <Gold.Chemscore.DG>
-13.0682

> <Gold.Chemscore.ZeroCoef>
-5.4800

> <Gold.Chemscore.Hbond>
2.8987

> <Gold.Chemscore.Metal>
0.0000

> <Gold.Chemscore.Lipo>
19.2972

> <Gold.Chemscore.Internal_Hbond>
0.0000

> <Gold.Chemscore.DEClash>
0.0899

> <Gold.Chemscore.DEInternal>
1.7148

> <Gold.Chemscore.Rot>
1.6997

> <Gold.Chemscore.Internal.Correction>
   9.000000E+99

> <Gold.Chemscore.Hbonds>
donor molecule, donor type, donor heavy atom, donor atom, acceptor molecule, acceptor atom, score
      L1  H    12    14       P1  8028  0.95
      P1  H  7989  7998       L1     1  0.64
      P1  H  7997  8009       L1     3  0.97

> <Gold.Chemscore.Hbond.Weighted>
-9.6816

> <Gold.Chemscore.Metal.Weighted>
-0.0000

> <Gold.Chemscore.Lipo.Weighted>
-2.2578

> <Gold.Chemscore.Internal_Hbond.Weighted>
0.0000

> <Gold.Chemscore.DEClash.Weighted>
0.0899

> <Gold.Chemscore.DEInternal.Weighted>
1.7148

> <Gold.Chemscore.Rot.Weighted>
4.3512

> <Gold.Chemscore.Internal.Correction.Weighted>
   9.000000E+99

> <Gold.Protein.RotatedTorsions>
[ 6907 6896 6895 6894 ] final -174.65 input  -60.11 | X-H torsion
[ 7974 7965 7964 7962 ] final  -20.78 input  175.53 | X-H torsion
[ 8008 7997 7996 7995 ] final -154.99 input   59.86 | X-H torsion
[ 10167 10162 10161 10158 ] final  111.40 input  -65.29 | X-H torsion
[ 10718 10713 10712 10709 ] final  -96.38 input   66.30 | X-H torsion
[ 10763 10752 10751 10750 ] final    8.92 input  -60.55 | X-H torsion
[ 11005 11000 10999 10996 ] final  124.07 input  -57.11 | X-H torsion

> <Gold.Protein.ActiveResidues>
 VAL166  LYS551  ARG553  GLY616  TRP617  ASP618  TYR619  PRO620  LYS621  CYS622 
 ASP623  PHE694  ASN695  SER759  ASP760  ASP761  ALA762  ILE779  LEU786  VAL792 
 PHE793  MET794  SER795  GLU796  ALA797  LYS798  CYS799  TRP800  GLU811  SER814 

> <Gold.Protein.RotatedAtoms>
  151.5758  133.3384  159.2998 H   0  0  0  0  0  0  0  0  0  0  0  0  # atno 6907 bound_to 6896
  150.8341  134.7610  159.6890 H   0  0  0  0  0  0  0  0  0  0  0  0  # atno 6908 bound_to 6896
  152.4420  134.5577  159.9937 H   0  0  0  0  0  0  0  0  0  0  0  0  # atno 6909 bound_to 6896
  146.1769  140.4249  142.8510 H   0  0  0  0  0  0  0  0  0  0  0  0  # atno 7974 bound_to 7965
  155.6948  140.0760  157.2434 H   0  0  0  0  0  0  0  0  0  0  0  0  # atno 8008 bound_to 7997
  154.4082  140.1658  156.2179 H   0  0  0  0  0  0  0  0  0  0  0  0  # atno 8009 bound_to 7997
  155.9420  140.3384  155.6338 H   0  0  0  0  0  0  0  0  0  0  0  0  # atno 8010 bound_to 7997
  139.6614  144.7128  151.1858 H   0  0  0  0  0  0  0  0  0  0  0  0  # atno 10167 bound_to 10162
  156.0061  130.5149  150.6217 H   0  0  0  0  0  0  0  0  0  0  0  0  # atno 10718 bound_to 10713
  153.2197  135.6879  153.8015 H   0  0  0  0  0  0  0  0  0  0  0  0  # atno 10763 bound_to 10752
  153.7219  135.3266  155.3269 H   0  0  0  0  0  0  0  0  0  0  0  0  # atno 10764 bound_to 10752
  154.8263  135.4615  154.1039 H   0  0  0  0  0  0  0  0  0  0  0  0  # atno 10765 bound_to 10752
  139.9341  134.9640  156.8354 H   0  0  0  0  0  0  0  0  0  0  0  0  # atno 11005 bound_to 11000
  144.8251  140.6615  143.6327 LP  0  0  0  0  0  0  0  0  0  0  0  0  # atno 17320 bound_to 7965
  145.4185  139.1568  143.4087 LP  0  0  0  0  0  0  0  0  0  0  0  0  # atno 17321 bound_to 7965
  140.7581  143.5988  150.8720 LP  0  0  0  0  0  0  0  0  0  0  0  0  # atno 17342 bound_to 10162
  139.9646  143.6125  152.2992 LP  0  0  0  0  0  0  0  0  0  0  0  0  # atno 17343 bound_to 10162
  157.4031  131.0813  151.1290 LP  0  0  0  0  0  0  0  0  0  0  0  0  # atno 17370 bound_to 10713
  157.1945  130.6367  149.5716 LP  0  0  0  0  0  0  0  0  0  0  0  0  # atno 17371 bound_to 10713
  140.6121  134.0072  155.7581 LP  0  0  0  0  0  0  0  0  0  0  0  0  # atno 17394 bound_to 11000
  141.0946  133.9863  157.3181 LP  0  0  0  0  0  0  0  0  0  0  0  0  # atno 17395 bound_to 11000

$$$$
