AV-unprocessed.smi:2061|AV-procd|sdf|8386|dock3
  -GOLD-   2272011 63D 1   1.00000     0.00000
 Structure written by MMmdl.
 45 46  0  0  0  0  0  0  0  0  3 V2000
  148.3738  141.7415  154.4762 C   0  0  0  0  0  0  0  0  0  0  0  0
  148.9700  140.3888  154.6677 C   0  0  0  0  0  0  0  0  0  0  0  0
  148.4214  139.1556  154.8782 C   0  0  0  0  0  0  0  0  0  0  0  0
  149.5574  138.3057  154.9669 C   0  0  0  0  0  0  0  0  0  0  0  0
  149.5346  136.9814  155.1833 N   0  5  0  0  0  0  0  0  0  0  0  0
  148.3551  136.3259  155.2680 C   0  0  0  0  0  0  0  0  0  0  0  0
  147.3469  136.7061  155.8684 O   0  0  0  0  0  0  0  0  0  0  0  0
  148.3425  135.1519  154.6208 N   0  0  0  0  0  0  0  0  0  0  0  0
  147.2078  134.2367  154.5500 C   0  0  0  0  0  0  0  0  0  0  0  0
  147.2373  133.3348  153.2881 C   0  0  2  0  0  0  0  0  0  0  0  0
  148.5717  132.5527  153.2310 C   0  0  0  0  0  0  0  0  0  0  0  0
  146.9717  134.1596  152.0624 N   0  3  1  0  0  0  0  0  0  0  0  0
  146.7858  133.4297  150.7789 C   0  0  0  0  0  0  0  0  0  0  0  0
  145.3992  132.7583  150.7154 C   0  0  2  0  0  0  0  0  0  0  0  0
  145.1698  132.0377  149.3826 C   0  0  0  0  0  0  0  0  0  0  0  0
  144.4034  133.7666  150.8487 O   0  0  0  0  0  0  0  0  0  0  0  0
  144.4771  134.4570  152.0916 C   0  0  2  0  0  0  0  0  0  0  0  0
  143.3315  135.4741  152.1362 C   0  0  0  0  0  0  0  0  0  0  0  0
  145.8593  135.1369  152.2198 C   0  0  0  0  0  0  0  0  0  0  0  0
  150.6956  138.9670  154.8375 N   0  0  0  0  0  0  0  0  0  0  0  0
  150.3273  140.3030  154.6386 O   0  0  0  0  0  0  0  0  0  0  0  0
  147.7417  142.0073  155.3236 H   0  0  0  0  0  0  0  0  0  0  0  0
  147.7607  141.7673  153.5754 H   0  0  0  0  0  0  0  0  0  0  0  0
  149.1479  142.5032  154.3802 H   0  0  0  0  0  0  0  0  0  0  0  0
  147.3748  138.9008  154.9532 H   0  0  0  0  0  0  0  0  0  0  0  0
  149.1864  134.8779  154.1387 H   0  0  0  0  0  0  0  0  0  0  0  0
  147.1863  133.6582  155.4725 H   0  0  0  0  0  0  0  0  0  0  0  0
  146.2964  134.8349  154.5528 H   0  0  0  0  0  0  0  0  0  0  0  0
  146.4479  132.5892  153.3726 H   0  0  0  0  0  0  0  0  0  0  0  0
  148.7526  131.9991  154.1524 H   0  0  0  0  0  0  0  0  0  0  0  0
  149.4203  133.2204  153.0811 H   0  0  0  0  0  0  0  0  0  0  0  0
  148.5766  131.8072  152.4363 H   0  0  0  0  0  0  0  0  0  0  0  0
  146.8613  134.1577  149.9700 H   0  0  0  0  0  0  0  0  0  0  0  0
  147.5885  132.7196  150.5858 H   0  0  0  0  0  0  0  0  0  0  0  0
  145.2900  132.0333  151.5234 H   0  0  0  0  0  0  0  0  0  0  0  0
  145.9029  131.2443  149.2350 H   0  0  0  0  0  0  0  0  0  0  0  0
  145.2478  132.7271  148.5415 H   0  0  0  0  0  0  0  0  0  0  0  0
  144.1790  131.5840  149.3502 H   0  0  0  0  0  0  0  0  0  0  0  0
  144.3248  133.7447  152.9032 H   0  0  0  0  0  0  0  0  0  0  0  0
  143.3338  136.0253  153.0768 H   0  0  0  0  0  0  0  0  0  0  0  0
  142.3654  134.9771  152.0458 H   0  0  0  0  0  0  0  0  0  0  0  0
  143.4120  136.1966  151.3236 H   0  0  0  0  0  0  0  0  0  0  0  0
  145.9247  135.6788  153.1614 H   0  0  0  0  0  0  0  0  0  0  0  0
  145.9624  135.8910  151.4382 H   0  0  0  0  0  0  0  0  0  0  0  0
  147.8136  134.7035  151.9386 H   0  0  0  0  0  0  0  0  0  0  0  0
  1  2  1  0  0  0  0
  1 22  1  0  0  0  0
  1 23  1  0  0  0  0
  1 24  1  0  0  0  0
  2 21  1  0  0  0  0
  2  3  2  0  0  0  0
  3  4  1  0  0  0  0
  3 25  1  0  0  0  0
  4  5  1  0  0  0  0
  4 20  2  0  0  0  0
  5  6  1  0  0  0  0
  6  7  2  0  0  0  0
  6  8  1  0  0  0  0
  8  9  1  0  0  0  0
  8 26  1  0  0  0  0
  9 10  1  0  0  0  0
  9 27  1  0  0  0  0
  9 28  1  0  0  0  0
 10 11  1  0  0  0  0
 10 12  1  0  0  0  0
 10 29  1  0  0  0  0
 11 30  1  0  0  0  0
 11 31  1  0  0  0  0
 11 32  1  0  0  0  0
 12 19  1  0  0  0  0
 12 13  1  0  0  0  0
 12 45  1  0  0  0  0
 13 14  1  0  0  0  0
 13 33  1  0  0  0  0
 13 34  1  0  0  0  0
 14 15  1  0  0  0  0
 14 16  1  0  0  0  0
 14 35  1  0  0  0  0
 15 36  1  0  0  0  0
 15 37  1  0  0  0  0
 15 38  1  0  0  0  0
 16 17  1  0  0  0  0
 17 18  1  0  0  0  0
 17 19  1  0  0  0  0
 17 39  1  0  0  0  0
 18 40  1  0  0  0  0
 18 41  1  0  0  0  0
 18 42  1  0  0  0  0
 19 43  1  0  0  0  0
 19 44  1  0  0  0  0
 20 21  1  0  0  0  0
M  CHG  1   5  -1
M  CHG  1  12   1
M  END
> <s_m_source_file>
AV-unprocessed.smi

> <i_m_source_file_index>
2061

> <i_lp_mmshare_version>
43012

> <i_f3d_flags>
0

> <s_epik_input>
W0NIM11jMVtjSF1jKG5vMSlbTkhdQyg9TylbTkhdW0NIMl1bQ0BIXShbQ0gzXSlOMltDSDJdW0NAQEhdKFtDSDNdKU9bQ0BASF0oW0NIM10pW0NIMl0y

> <s_epik_cmdline>
J2VwaWtfcHl0aG9uJywgJy1waCcsICc3LjAnLCAnLXRuJywgJzgnLCAnLW1hJywgJzIwMCcsICctbWV0YWxfYmluZGluZycsICctaW1hZScsICc8aW5maWxlLm1hZT4nLCAnLW9tYWUnLCAnPG91dGZpbGUubWFlPic=

> <r_epik_Ionization_Penalty>
6.73511

> <r_epik_Ionization_Penalty_Charging>
6.73502

> <r_epik_Ionization_Penalty_Neutral>
9.50841e-05

> <r_epik_State_Penalty>
6.93549

> <r_epik_Charging_Adjusted_Penalty>
13.6705

> <i_epik_Tot_Q>
0

> <i_epik_Tot_abs_Q>
2

> <r_epik_Metal_State_Penalty>
2.87211

> <b_epik_Metal_Only>
1

> <s_lp_Force_Field>
OPLS_2005

> <r_lp_Energy>
9.64983

> <b_lp_Chiralities_Consistent>
1

> <s_lp_Variant>
AV-unprocessed.smi:2061-27

> <Gold.Version>
5.8.1

> <Gold.Id.Protein>
6NUR|6NUR_protein|mol2

> <Gold.PLP.Fitness>
38.7406

> <Gold.PLP.PLP>
-31.0180

> <Gold.PLP.part.hbond>
-2.9720

> <Gold.PLP.part.metal>
0.0000

> <Gold.PLP.part.buried>
-5.1063

> <Gold.PLP.part.nonpolar>
-23.5658

> <Gold.PLP.part.repulsive>
0.5825

> <Gold.PLP.ligand.clash>
0.0000

> <Gold.PLP.ligand.torsion>
0.6714

> <Gold.PLP.Chemscore.Hbond>
3.0000

> <Gold.PLP.Chemscore.CHOScore>
0.0000

> <Gold.PLP.Chemscore.Metal>
0.0000

> <Gold.Chemscore.Hbonds>
donor molecule, donor type, donor heavy atom, donor atom, acceptor molecule, acceptor atom, score
      L1  H    12    45       P1  7948  2.00
      P1  H  7989  7998       L1    21  1.00

> <Gold.PLP.Chemscore.Internal.Correction>
0.0654

> <Gold.Rescore>
     Score         DG    S(hbond)    S(metal)    S(lipo)     H(rot)  DE(clash)    DE(int)     intcor
     13.31     -15.20       1.64        0.00      70.28       1.56       0.00       1.89       ----

> <Gold.Chemscore.Fitness>
13.3063

> <Gold.Chemscore.DG>
-15.1984

> <Gold.Chemscore.ZeroCoef>
-5.4800

> <Gold.Chemscore.Hbond>
1.6397

> <Gold.Chemscore.Metal>
0.0000

> <Gold.Chemscore.Lipo>
70.2789

> <Gold.Chemscore.Internal_Hbond>
0.0000

> <Gold.Chemscore.DEClash>
0.0000

> <Gold.Chemscore.DEInternal>
1.8921

> <Gold.Chemscore.Rot>
1.5550

> <Gold.Chemscore.Internal.Correction>
   9.000000E+99

> <Gold.Chemscore.Hbonds>
donor molecule, donor type, donor heavy atom, donor atom, acceptor molecule, acceptor atom, score
      L1  H    12    45       P1  7948  0.40
      P1  H  7989  7998       L1    21  0.34

> <Gold.Chemscore.Hbond.Weighted>
-5.4767

> <Gold.Chemscore.Metal.Weighted>
-0.0000

> <Gold.Chemscore.Lipo.Weighted>
-8.2226

> <Gold.Chemscore.Internal_Hbond.Weighted>
0.0000

> <Gold.Chemscore.DEClash.Weighted>
0.0000

> <Gold.Chemscore.DEInternal.Weighted>
1.8921

> <Gold.Chemscore.Rot.Weighted>
3.9809

> <Gold.Chemscore.Internal.Correction.Weighted>
   9.000000E+99

> <Gold.Protein.RotatedTorsions>
[ 6907 6896 6895 6894 ] final   68.25 input  -60.11 | X-H torsion
[ 7974 7965 7964 7962 ] final -143.00 input  175.53 | X-H torsion
[ 8008 7997 7996 7995 ] final  146.69 input   59.86 | X-H torsion
[ 10167 10162 10161 10158 ] final    0.77 input  -65.29 | X-H torsion
[ 10718 10713 10712 10709 ] final  134.52 input   66.30 | X-H torsion
[ 10763 10752 10751 10750 ] final    4.19 input  -60.55 | X-H torsion
[ 11005 11000 10999 10996 ] final  114.64 input  -57.11 | X-H torsion

> <Gold.Protein.ActiveResidues>
 VAL166  LYS551  ARG553  GLY616  TRP617  ASP618  TYR619  PRO620  LYS621  CYS622 
 ASP623  PHE694  ASN695  SER759  ASP760  ASP761  ALA762  ILE779  LEU786  VAL792 
 PHE793  MET794  SER795  GLU796  ALA797  LYS798  CYS799  TRP800  GLU811  SER814 

> <Gold.Protein.RotatedAtoms>
  152.4608  134.5189  159.9776 H   0  0  0  0  0  0  0  0  0  0  0  0  # atno 6907 bound_to 6896
  151.5239  133.3455  159.2914 H   0  0  0  0  0  0  0  0  0  0  0  0  # atno 6908 bound_to 6896
  150.8570  134.7941  159.7115 H   0  0  0  0  0  0  0  0  0  0  0  0  # atno 6909 bound_to 6896
  144.8402  140.5889  143.5457 H   0  0  0  0  0  0  0  0  0  0  0  0  # atno 7974 bound_to 7965
  156.2848  140.2176  156.5417 H   0  0  0  0  0  0  0  0  0  0  0  0  # atno 8008 bound_to 7997
  154.7364  140.0491  157.0795 H   0  0  0  0  0  0  0  0  0  0  0  0  # atno 8009 bound_to 7997
  155.0286  140.3132  155.4769 H   0  0  0  0  0  0  0  0  0  0  0  0  # atno 8010 bound_to 7997
  140.6713  143.7040  150.7930 H   0  0  0  0  0  0  0  0  0  0  0  0  # atno 10167 bound_to 10162
  157.4664  131.1077  150.9857 H   0  0  0  0  0  0  0  0  0  0  0  0  # atno 10718 bound_to 10713
  153.2743  135.6935  153.7449 H   0  0  0  0  0  0  0  0  0  0  0  0  # atno 10763 bound_to 10752
  153.6461  135.3385  155.3087 H   0  0  0  0  0  0  0  0  0  0  0  0  # atno 10764 bound_to 10752
  154.8474  135.4443  154.1775 H   0  0  0  0  0  0  0  0  0  0  0  0  # atno 10765 bound_to 10752
  139.8986  134.9571  156.6923 H   0  0  0  0  0  0  0  0  0  0  0  0  # atno 11005 bound_to 11000
  145.4710  139.1503  143.3814 LP  0  0  0  0  0  0  0  0  0  0  0  0  # atno 17320 bound_to 7965
  146.2695  140.4844  142.8820 LP  0  0  0  0  0  0  0  0  0  0  0  0  # atno 17321 bound_to 7965
  140.0725  143.5047  152.2572 LP  0  0  0  0  0  0  0  0  0  0  0  0  # atno 17342 bound_to 10162
  139.5983  144.7574  151.3232 LP  0  0  0  0  0  0  0  0  0  0  0  0  # atno 17343 bound_to 10162
  157.0637  130.5836  149.5390 LP  0  0  0  0  0  0  0  0  0  0  0  0  # atno 17370 bound_to 10713
  156.0052  130.5138  150.7805 LP  0  0  0  0  0  0  0  0  0  0  0  0  # atno 17371 bound_to 10713
  140.7215  133.9137  155.8150 LP  0  0  0  0  0  0  0  0  0  0  0  0  # atno 17394 bound_to 11000
  141.0224  134.0871  157.4106 LP  0  0  0  0  0  0  0  0  0  0  0  0  # atno 17395 bound_to 11000

$$$$
