AV-unprocessed.smi:1475|AV-procd|sdf|5976|dock5
  -GOLD-   22720 6 63D 1   1.00000     0.00000
 Structure written by MMmdl.
 50 51  0  0  0  0  0  0  0  0  2 V2000
  152.1400  138.0822  154.5703 C   0  0  0  0  0  0  0  0  0  0  0  0
  151.2649  139.1973  155.0611 C   0  0  0  0  0  0  0  0  0  0  0  0
  151.1493  139.7082  156.3839 C   0  0  0  0  0  0  0  0  0  0  0  0
  150.2234  140.7076  156.2804 C   0  0  0  0  0  0  0  0  0  0  0  0
  149.6741  141.6211  157.3261 C   0  0  0  0  0  0  0  0  0  0  0  0
  149.8338  140.7578  154.9536 N   0  0  0  0  0  0  0  0  0  0  0  0
  148.8816  141.6485  154.3094 C   0  0  0  0  0  0  0  0  0  0  0  0
  147.5553  140.9344  154.0459 C   0  0  0  0  0  0  0  0  0  0  0  0
  146.6447  140.9996  154.8714 O   0  0  0  0  0  0  0  0  0  0  0  0
  147.4565  140.2601  152.8894 N   0  0  0  0  0  0  0  0  0  0  0  0
  146.2665  139.5540  152.4300 C   0  0  0  0  0  0  0  0  0  0  0  0
  146.5713  138.0831  152.0815 C   0  0  0  0  0  0  0  0  0  0  0  0
  145.3450  137.2928  151.8035 N   0  3  1  0  0  0  0  0  0  0  0  0
  145.6636  135.9466  151.2603 C   0  0  0  0  0  0  0  0  0  0  0  0
  144.3886  135.1895  150.8407 C   0  0  1  0  0  0  0  0  0  0  0  0
  144.7203  133.8021  150.2727 C   0  0  0  0  0  0  0  0  0  0  0  0
  143.4138  135.0917  152.0258 C   0  0  0  0  0  0  0  0  0  0  0  0
  143.1130  136.4869  152.5971 C   0  0  1  0  0  0  0  0  0  0  0  0
  142.1563  136.4081  153.7952 C   0  0  0  0  0  0  0  0  0  0  0  0
  144.4249  137.2045  152.9692 C   0  0  0  0  0  0  0  0  0  0  0  0
  150.4754  139.8304  154.2089 N   0  0  0  0  0  0  0  0  0  0  0  0
  152.7014  137.6334  155.3899 H   0  0  0  0  0  0  0  0  0  0  0  0
  152.8591  138.4422  153.8343 H   0  0  0  0  0  0  0  0  0  0  0  0
  151.5483  137.2942  154.1036 H   0  0  0  0  0  0  0  0  0  0  0  0
  151.6683  139.3889  157.2756 H   0  0  0  0  0  0  0  0  0  0  0  0
  150.1398  141.4293  158.2929 H   0  0  0  0  0  0  0  0  0  0  0  0
  148.5991  141.4811  157.4387 H   0  0  0  0  0  0  0  0  0  0  0  0
  149.8570  142.6642  157.0685 H   0  0  0  0  0  0  0  0  0  0  0  0
  148.7221  142.5253  154.9392 H   0  0  0  0  0  0  0  0  0  0  0  0
  149.3037  142.0082  153.3704 H   0  0  0  0  0  0  0  0  0  0  0  0
  148.2539  140.2688  152.2689 H   0  0  0  0  0  0  0  0  0  0  0  0
  145.4971  139.6354  153.1980 H   0  0  0  0  0  0  0  0  0  0  0  0
  145.8845  140.0729  151.5504 H   0  0  0  0  0  0  0  0  0  0  0  0
  147.2119  138.0746  151.1984 H   0  0  0  0  0  0  0  0  0  0  0  0
  147.1390  137.5979  152.8767 H   0  0  0  0  0  0  0  0  0  0  0  0
  146.3179  136.0506  150.3936 H   0  0  0  0  0  0  0  0  0  0  0  0
  146.2171  135.3754  152.0076 H   0  0  0  0  0  0  0  0  0  0  0  0
  143.9022  135.7605  150.0482 H   0  0  0  0  0  0  0  0  0  0  0  0
  145.2050  133.1724  151.0194 H   0  0  0  0  0  0  0  0  0  0  0  0
  145.3902  133.8777  149.4157 H   0  0  0  0  0  0  0  0  0  0  0  0
  143.8181  133.2882  149.9398 H   0  0  0  0  0  0  0  0  0  0  0  0
  142.4873  134.6126  151.7068 H   0  0  0  0  0  0  0  0  0  0  0  0
  143.8398  134.4569  152.8044 H   0  0  0  0  0  0  0  0  0  0  0  0
  142.6175  137.0717  151.8204 H   0  0  0  0  0  0  0  0  0  0  0  0
  142.5900  135.8322  154.6133 H   0  0  0  0  0  0  0  0  0  0  0  0
  141.2159  135.9322  153.5157 H   0  0  0  0  0  0  0  0  0  0  0  0
  141.9207  137.4022  154.1764 H   0  0  0  0  0  0  0  0  0  0  0  0
  144.9240  136.6821  153.7872 H   0  0  0  0  0  0  0  0  0  0  0  0
  144.1840  138.2015  153.3353 H   0  0  0  0  0  0  0  0  0  0  0  0
  144.8490  137.7814  151.0717 H   0  0  0  0  0  0  0  0  0  0  0  0
  1  2  1  0  0  0  0
  1 22  1  0  0  0  0
  1 23  1  0  0  0  0
  1 24  1  0  0  0  0
  2 21  2  0  0  0  0
  2  3  1  0  0  0  0
  3  4  2  0  0  0  0
  3 25  1  0  0  0  0
  4  5  1  0  0  0  0
  4  6  1  0  0  0  0
  5 26  1  0  0  0  0
  5 27  1  0  0  0  0
  5 28  1  0  0  0  0
  6  7  1  0  0  0  0
  6 21  1  0  0  0  0
  7  8  1  0  0  0  0
  7 29  1  0  0  0  0
  7 30  1  0  0  0  0
  8  9  2  0  0  0  0
  8 10  1  0  0  0  0
 10 11  1  0  0  0  0
 10 31  1  0  0  0  0
 11 12  1  0  0  0  0
 11 32  1  0  0  0  0
 11 33  1  0  0  0  0
 12 13  1  0  0  0  0
 12 34  1  0  0  0  0
 12 35  1  0  0  0  0
 13 20  1  0  0  0  0
 13 14  1  0  0  0  0
 13 50  1  0  0  0  0
 14 15  1  0  0  0  0
 14 36  1  0  0  0  0
 14 37  1  0  0  0  0
 15 16  1  0  0  0  0
 15 17  1  0  0  0  0
 15 38  1  0  0  0  0
 16 39  1  0  0  0  0
 16 40  1  0  0  0  0
 16 41  1  0  0  0  0
 17 18  1  0  0  0  0
 17 42  1  0  0  0  0
 17 43  1  0  0  0  0
 18 19  1  0  0  0  0
 18 20  1  0  0  0  0
 18 44  1  0  0  0  0
 19 45  1  0  0  0  0
 19 46  1  0  0  0  0
 19 47  1  0  0  0  0
 20 48  1  0  0  0  0
 20 49  1  0  0  0  0
M  CHG  1  13   1
M  END
> <s_m_source_file>
AV-unprocessed.smi

> <i_m_source_file_index>
1475

> <i_lp_mmshare_version>
43012

> <i_f3d_flags>
0

> <s_epik_input>
W0NIM11jMVtjSF1jKFtDSDNdKW4objEpW0NIMl1DKD1PKVtOSF1bQ0gyXVtDSDJdTjJbQ0gyXVtDQEBIXShbQ0gzXSlbQ0gyXVtDQEBIXShbQ0gzXSlbQ0gyXTI=

> <s_epik_cmdline>
J2VwaWtfcHl0aG9uJywgJy1waCcsICc3LjAnLCAnLXRuJywgJzgnLCAnLW1hJywgJzIwMCcsICctbWV0YWxfYmluZGluZycsICctaW1hZScsICc8aW5maWxlLm1hZT4nLCAnLW9tYWUnLCAnPG91dGZpbGUubWFlPic=

> <r_lp_tautomer_probability>
1

> <r_epik_Ionization_Penalty>
0.00206431

> <r_epik_Ionization_Penalty_Charging>
0.00187095

> <r_epik_Ionization_Penalty_Neutral>
0.000193364

> <r_epik_State_Penalty>
-0

> <r_epik_Charging_Adjusted_Penalty>
0.00187095

> <i_epik_Tot_Q>
1

> <i_epik_Tot_abs_Q>
1

> <r_epik_Metal_State_Penalty>
-0

> <b_epik_Metal_Only>
0

> <s_lp_Force_Field>
OPLS_2005

> <r_lp_Energy>
13.7816

> <b_lp_Chiralities_Consistent>
1

> <s_lp_Variant>
AV-unprocessed.smi:1475-1

> <Gold.Version>
5.8.1

> <Gold.Id.Protein>
6NUR|6NUR_protein|mol2

> <Gold.PLP.Fitness>
47.1253

> <Gold.PLP.PLP>
-39.6932

> <Gold.PLP.part.hbond>
-3.0000

> <Gold.PLP.part.metal>
0.0000

> <Gold.PLP.part.buried>
1.0438

> <Gold.PLP.part.nonpolar>
-39.1330

> <Gold.PLP.part.repulsive>
0.3584

> <Gold.PLP.ligand.clash>
0.0000

> <Gold.PLP.ligand.torsion>
0.6534

> <Gold.PLP.Chemscore.Hbond>
2.9000

> <Gold.PLP.Chemscore.CHOScore>
0.0000

> <Gold.PLP.Chemscore.Metal>
0.0000

> <Gold.Chemscore.Hbonds>
donor molecule, donor type, donor heavy atom, donor atom, acceptor molecule, acceptor atom, score
      L1  H    10    31       P1  7957  1.00
      L1  H    13    50       P1 10171  1.00
      P1  H  7989  7998       L1    21  0.90

> <Gold.PLP.Chemscore.Internal.Correction>
0.0388

> <Gold.Rescore>
     Score         DG    S(hbond)    S(metal)    S(lipo)     H(rot)  DE(clash)    DE(int)     intcor
     16.68     -18.81       2.09        0.00      90.20       1.64       1.55       0.58       ----

> <Gold.Chemscore.Fitness>
16.6769

> <Gold.Chemscore.DG>
-18.8092

> <Gold.Chemscore.ZeroCoef>
-5.4800

> <Gold.Chemscore.Hbond>
2.0879

> <Gold.Chemscore.Metal>
0.0000

> <Gold.Chemscore.Lipo>
90.2025

> <Gold.Chemscore.Internal_Hbond>
0.0000

> <Gold.Chemscore.DEClash>
1.5520

> <Gold.Chemscore.DEInternal>
0.5803

> <Gold.Chemscore.Rot>
1.6399

> <Gold.Chemscore.Internal.Correction>
   9.000000E+99

> <Gold.Chemscore.Hbonds>
donor molecule, donor type, donor heavy atom, donor atom, acceptor molecule, acceptor atom, score
      L1  H    10    31       P1  7957  1.00
      L1  H    13    50       P1 10171  1.00
      P1  H  7989  7998       L1    21  0.05

> <Gold.Chemscore.Hbond.Weighted>
-6.9737

> <Gold.Chemscore.Metal.Weighted>
-0.0000

> <Gold.Chemscore.Lipo.Weighted>
-10.5537

> <Gold.Chemscore.Internal_Hbond.Weighted>
0.0000

> <Gold.Chemscore.DEClash.Weighted>
1.5520

> <Gold.Chemscore.DEInternal.Weighted>
0.5803

> <Gold.Chemscore.Rot.Weighted>
4.1982

> <Gold.Chemscore.Internal.Correction.Weighted>
   9.000000E+99

> <Gold.Protein.RotatedTorsions>
[ 6907 6896 6895 6894 ] final   27.11 input  -60.11 | X-H torsion
[ 7974 7965 7964 7962 ] final   83.76 input  175.53 | X-H torsion
[ 8008 7997 7996 7995 ] final    9.75 input   59.86 | X-H torsion
[ 10167 10162 10161 10158 ] final   75.74 input  -65.29 | X-H torsion
[ 10718 10713 10712 10709 ] final  -76.61 input   66.30 | X-H torsion
[ 10763 10752 10751 10750 ] final   15.88 input  -60.55 | X-H torsion
[ 11005 11000 10999 10996 ] final -153.87 input  -57.11 | X-H torsion

> <Gold.Protein.ActiveResidues>
 VAL166  LYS551  ARG553  GLY616  TRP617  ASP618  TYR619  PRO620  LYS621  CYS622 
 ASP623  PHE694  ASN695  SER759  ASP760  ASP761  ALA762  ILE779  LEU786  VAL792 
 PHE793  MET794  SER795  GLU796  ALA797  LYS798  CYS799  TRP800  GLU811  SER814 

> <Gold.Protein.RotatedAtoms>
  151.9974  134.9947  160.0563 H   0  0  0  0  0  0  0  0  0  0  0  0  # atno 6907 bound_to 6896
  152.1552  133.4542  159.4841 H   0  0  0  0  0  0  0  0  0  0  0  0  # atno 6908 bound_to 6896
  150.6880  134.2058  159.4383 H   0  0  0  0  0  0  0  0  0  0  0  0  # atno 6909 bound_to 6896
  145.6077  139.2363  143.2210 H   0  0  0  0  0  0  0  0  0  0  0  0  # atno 7974 bound_to 7965
  154.7841  140.2824  155.6041 H   0  0  0  0  0  0  0  0  0  0  0  0  # atno 8008 bound_to 7997
  156.2954  140.2617  156.2602 H   0  0  0  0  0  0  0  0  0  0  0  0  # atno 8009 bound_to 7997
  154.9748  140.0375  157.2240 H   0  0  0  0  0  0  0  0  0  0  0  0  # atno 8010 bound_to 7997
  139.9997  144.5695  150.7747 H   0  0  0  0  0  0  0  0  0  0  0  0  # atno 10167 bound_to 10162
  156.0170  130.4470  150.3220 H   0  0  0  0  0  0  0  0  0  0  0  0  # atno 10718 bound_to 10713
  153.1483  135.6773  153.8921 H   0  0  0  0  0  0  0  0  0  0  0  0  # atno 10763 bound_to 10752
  153.8355  135.3112  155.3423 H   0  0  0  0  0  0  0  0  0  0  0  0  # atno 10764 bound_to 10752
  154.7842  135.4871  153.9996 H   0  0  0  0  0  0  0  0  0  0  0  0  # atno 10765 bound_to 10752
  140.7035  134.3911  157.5207 H   0  0  0  0  0  0  0  0  0  0  0  0  # atno 11005 bound_to 11000
  146.1528  140.6900  142.9314 LP  0  0  0  0  0  0  0  0  0  0  0  0  # atno 17320 bound_to 7965
  144.7283  140.4593  143.6957 LP  0  0  0  0  0  0  0  0  0  0  0  0  # atno 17321 bound_to 7965
  140.7423  143.2830  151.3543 LP  0  0  0  0  0  0  0  0  0  0  0  0  # atno 17342 bound_to 10162
  139.6280  144.0776  152.2451 LP  0  0  0  0  0  0  0  0  0  0  0  0  # atno 17343 bound_to 10162
  157.1320  131.0274  151.2965 LP  0  0  0  0  0  0  0  0  0  0  0  0  # atno 17370 bound_to 10713
  157.4543  130.7616  149.7178 LP  0  0  0  0  0  0  0  0  0  0  0  0  # atno 17371 bound_to 10713
  139.8890  134.8840  156.2442 LP  0  0  0  0  0  0  0  0  0  0  0  0  # atno 17394 bound_to 11000
  141.0144  133.7077  156.1165 LP  0  0  0  0  0  0  0  0  0  0  0  0  # atno 17395 bound_to 11000

$$$$
