AV-unprocessed.smi:3091|AV-procd|sdf|11778|dock1
  -GOLD-   2272017163D 1   1.00000     0.00000
 Structure written by MMmdl.
 29 30  0  0  0  0  0  0  0  0  2 V2000
  150.2990  144.4656  158.0811 N   0  3  0  0  0  0  0  0  0  0  0  0
  151.1137  144.5620  159.3028 C   0  0  0  0  0  0  0  0  0  0  0  0
  151.9402  143.3073  159.4953 C   0  0  0  0  0  0  0  0  0  0  0  0
  152.7223  143.1330  160.6547 C   0  0  0  0  0  0  0  0  0  0  0  0
  153.4765  141.9502  160.7818 C   0  0  0  0  0  0  0  0  0  0  0  0
  153.4890  140.9768  159.8470 N   0  0  0  0  0  0  0  0  0  0  0  0
  152.7373  141.1448  158.7307 C   0  0  0  0  0  0  0  0  0  0  0  0
  152.7365  140.1572  157.7653 O   0  0  0  0  0  0  0  0  0  0  0  0
  151.4934  139.6693  157.2558 C   0  0  2  0  0  0  0  0  0  0  0  0
  151.6888  138.3623  156.4978 C   0  0  0  0  0  0  0  0  0  0  0  0
  152.0061  138.8430  155.0896 C   0  0  0  0  0  0  0  0  0  0  0  0
  151.1211  139.9372  154.9224 O   0  0  0  0  0  0  0  0  0  0  0  0
  151.0161  140.6344  156.1599 C   0  0  0  0  0  0  0  0  0  0  0  0
  151.9493  142.2941  158.5148 C   0  0  0  0  0  0  0  0  0  0  0  0
  150.8755  144.6537  157.2735 H   0  0  0  0  0  0  0  0  0  0  0  0
  149.5483  145.1399  158.1252 H   0  0  0  0  0  0  0  0  0  0  0  0
  151.7671  145.4324  159.2337 H   0  0  0  0  0  0  0  0  0  0  0  0
  150.4602  144.7152  160.1622 H   0  0  0  0  0  0  0  0  0  0  0  0
  152.7461  143.8835  161.4314 H   0  0  0  0  0  0  0  0  0  0  0  0
  154.0864  141.7821  161.6571 H   0  0  0  0  0  0  0  0  0  0  0  0
  150.7399  139.5873  158.0408 H   0  0  0  0  0  0  0  0  0  0  0  0
  152.4664  137.7205  156.9123 H   0  0  0  0  0  0  0  0  0  0  0  0
  150.7558  137.7975  156.4897 H   0  0  0  0  0  0  0  0  0  0  0  0
  153.0379  139.1908  155.0191 H   0  0  0  0  0  0  0  0  0  0  0  0
  151.8458  138.0752  154.3324 H   0  0  0  0  0  0  0  0  0  0  0  0
  149.9796  140.9355  156.3144 H   0  0  0  0  0  0  0  0  0  0  0  0
  151.6235  141.5399  156.1302 H   0  0  0  0  0  0  0  0  0  0  0  0
  151.3635  142.3907  157.6121 H   0  0  0  0  0  0  0  0  0  0  0  0
  149.9109  143.5359  158.0106 H   0  0  0  0  0  0  0  0  0  0  0  0
  1  2  1  0  0  0  0
  1 15  1  0  0  0  0
  1 16  1  0  0  0  0
  1 29  1  0  0  0  0
  2  3  1  0  0  0  0
  2 17  1  0  0  0  0
  2 18  1  0  0  0  0
  3 14  1  0  0  0  0
  3  4  2  0  0  0  0
  4  5  1  0  0  0  0
  4 19  1  0  0  0  0
  5  6  2  0  0  0  0
  5 20  1  0  0  0  0
  6  7  1  0  0  0  0
  7  8  1  0  0  0  0
  7 14  2  0  0  0  0
  8  9  1  0  0  0  0
  9 13  1  0  0  0  0
  9 10  1  0  0  0  0
  9 21  1  0  0  0  0
 10 11  1  0  0  0  0
 10 22  1  0  0  0  0
 10 23  1  0  0  0  0
 11 12  1  0  0  0  0
 11 24  1  0  0  0  0
 11 25  1  0  0  0  0
 12 13  1  0  0  0  0
 13 26  1  0  0  0  0
 13 27  1  0  0  0  0
 14 28  1  0  0  0  0
M  CHG  1   1   1
M  END
> <s_m_source_file>
AV-unprocessed.smi

> <i_m_source_file_index>
3091

> <i_lp_mmshare_version>
43012

> <i_f3d_flags>
0

> <s_epik_input>
W05IMl1bQ0gyXWMxW2NIXVtjSF1uYyhbY0hdMSlPW0NAQEhdMltDSDJdW0NIMl1PW0NIMl0y

> <s_epik_cmdline>
J2VwaWtfcHl0aG9uJywgJy1waCcsICc3LjAnLCAnLXRuJywgJzgnLCAnLW1hJywgJzIwMCcsICctbWV0YWxfYmluZGluZycsICctaW1hZScsICc8aW5maWxlLm1hZT4nLCAnLW9tYWUnLCAnPG91dGZpbGUubWFlPic=

> <r_lp_tautomer_probability>
1

> <r_epik_Ionization_Penalty>
0.0773124

> <r_epik_Ionization_Penalty_Charging>
0.0773118

> <r_epik_Ionization_Penalty_Neutral>
5.92883e-07

> <r_epik_State_Penalty>
0.0682686

> <r_epik_Charging_Adjusted_Penalty>
0.14558

> <i_epik_Tot_Q>
1

> <i_epik_Tot_abs_Q>
1

> <r_epik_Metal_State_Penalty>
0.0682821

> <b_epik_Metal_Only>
0

> <s_lp_Force_Field>
OPLS_2005

> <r_lp_Energy>
12.9222

> <b_lp_Chiralities_Consistent>
1

> <s_lp_Variant>
AV-unprocessed.smi:3091-1

> <Gold.Version>
5.8.1

> <Gold.Id.Protein>
6NUR|6NUR_protein|mol2

> <Gold.PLP.Fitness>
43.2407

> <Gold.PLP.PLP>
-31.8707

> <Gold.PLP.part.hbond>
-4.0000

> <Gold.PLP.part.metal>
0.0000

> <Gold.PLP.part.buried>
-3.6972

> <Gold.PLP.part.nonpolar>
-24.2259

> <Gold.PLP.part.repulsive>
0.1660

> <Gold.PLP.ligand.clash>
0.0000

> <Gold.PLP.ligand.torsion>
0.3003

> <Gold.PLP.Chemscore.Hbond>
3.9840

> <Gold.PLP.Chemscore.CHOScore>
0.0000

> <Gold.PLP.Chemscore.Metal>
0.0000

> <Gold.Chemscore.Hbonds>
donor molecule, donor type, donor heavy atom, donor atom, acceptor molecule, acceptor atom, score
      L1  H     1    16       P1  8029  1.92
      P1  H  7989  7998       L1    12  1.00
      P1  H  7997  8010       L1     8  1.00

> <Gold.PLP.Chemscore.Internal.Correction>
0.0186

> <Gold.Rescore>
     Score         DG    S(hbond)    S(metal)    S(lipo)     H(rot)  DE(clash)    DE(int)     intcor
     17.49     -17.89       2.21        0.00      77.83       1.59       0.02       0.38       ----

> <Gold.Chemscore.Fitness>
17.4893

> <Gold.Chemscore.DG>
-17.8884

> <Gold.Chemscore.ZeroCoef>
-5.4800

> <Gold.Chemscore.Hbond>
2.2091

> <Gold.Chemscore.Metal>
0.0000

> <Gold.Chemscore.Lipo>
77.8328

> <Gold.Chemscore.Internal_Hbond>
0.0000

> <Gold.Chemscore.DEClash>
0.0174

> <Gold.Chemscore.DEInternal>
0.3817

> <Gold.Chemscore.Rot>
1.5924

> <Gold.Chemscore.Internal.Correction>
   9.000000E+99

> <Gold.Chemscore.Hbonds>
donor molecule, donor type, donor heavy atom, donor atom, acceptor molecule, acceptor atom, score
      L1  H     1    16       P1  8029  0.26
      P1  H  7989  7998       L1    12  0.62
      P1  H  7997  8010       L1     8  0.74

> <Gold.Chemscore.Hbond.Weighted>
-7.3785

> <Gold.Chemscore.Metal.Weighted>
-0.0000

> <Gold.Chemscore.Lipo.Weighted>
-9.1064

> <Gold.Chemscore.Internal_Hbond.Weighted>
0.0000

> <Gold.Chemscore.DEClash.Weighted>
0.0174

> <Gold.Chemscore.DEInternal.Weighted>
0.3817

> <Gold.Chemscore.Rot.Weighted>
4.0765

> <Gold.Chemscore.Internal.Correction.Weighted>
   9.000000E+99

> <Gold.Protein.RotatedTorsions>
[ 6907 6896 6895 6894 ] final  -11.39 input  -60.11 | X-H torsion
[ 7974 7965 7964 7962 ] final  103.46 input  175.53 | X-H torsion
[ 8008 7997 7996 7995 ] final   48.19 input   59.86 | X-H torsion
[ 10167 10162 10161 10158 ] final  -28.51 input  -65.29 | X-H torsion
[ 10718 10713 10712 10709 ] final -115.04 input   66.30 | X-H torsion
[ 10763 10752 10751 10750 ] final  -34.45 input  -60.55 | X-H torsion
[ 11005 11000 10999 10996 ] final  112.84 input  -57.11 | X-H torsion

> <Gold.Protein.ActiveResidues>
 VAL166  LYS551  ARG553  GLY616  TRP617  ASP618  TYR619  PRO620  LYS621  CYS622 
 ASP623  PHE694  ASN695  SER759  ASP760  ASP761  ALA762  ILE779  LEU786  VAL792 
 PHE793  MET794  SER795  GLU796  ALA797  LYS798  CYS799  TRP800  GLU811  SER814 

> <Gold.Protein.RotatedAtoms>
  151.3869  135.0949  159.9513 H   0  0  0  0  0  0  0  0  0  0  0  0  # atno 6907 bound_to 6896
  152.5091  133.9017  159.7455 H   0  0  0  0  0  0  0  0  0  0  0  0  # atno 6908 bound_to 6896
  150.9462  133.6544  159.2809 H   0  0  0  0  0  0  0  0  0  0  0  0  # atno 6909 bound_to 6896
  145.3457  139.2451  143.3585 H   0  0  0  0  0  0  0  0  0  0  0  0  # atno 7974 bound_to 7965
  155.3815  140.3429  155.4247 H   0  0  0  0  0  0  0  0  0  0  0  0  # atno 8008 bound_to 7997
  156.1608  140.1600  156.8649 H   0  0  0  0  0  0  0  0  0  0  0  0  # atno 8009 bound_to 7997
  154.5137  140.0783  156.8022 H   0  0  0  0  0  0  0  0  0  0  0  0  # atno 8010 bound_to 7997
  140.7269  143.4004  151.1275 H   0  0  0  0  0  0  0  0  0  0  0  0  # atno 10167 bound_to 10162
  156.0869  130.6059  150.8854 H   0  0  0  0  0  0  0  0  0  0  0  0  # atno 10718 bound_to 10713
  153.8469  135.6852  153.4796 H   0  0  0  0  0  0  0  0  0  0  0  0  # atno 10763 bound_to 10752
  153.1420  135.4653  154.9508 H   0  0  0  0  0  0  0  0  0  0  0  0  # atno 10764 bound_to 10752
  154.7820  135.3272  154.7917 H   0  0  0  0  0  0  0  0  0  0  0  0  # atno 10765 bound_to 10752
  139.8937  134.9538  156.6647 H   0  0  0  0  0  0  0  0  0  0  0  0  # atno 11005 bound_to 11000
  146.2989  140.4063  142.8711 LP  0  0  0  0  0  0  0  0  0  0  0  0  # atno 17320 bound_to 7965
  144.8756  140.7332  143.6019 LP  0  0  0  0  0  0  0  0  0  0  0  0  # atno 17321 bound_to 7965
  139.7623  143.8617  152.3103 LP  0  0  0  0  0  0  0  0  0  0  0  0  # atno 17342 bound_to 10162
  139.8507  144.7166  150.9217 LP  0  0  0  0  0  0  0  0  0  0  0  0  # atno 17343 bound_to 10162
  157.6007  131.0941  150.8965 LP  0  0  0  0  0  0  0  0  0  0  0  0  # atno 17370 bound_to 10713
  156.9123  130.5285  149.5280 LP  0  0  0  0  0  0  0  0  0  0  0  0  # atno 17371 bound_to 10713
  140.7420  133.8970  155.8285 LP  0  0  0  0  0  0  0  0  0  0  0  0  # atno 17394 bound_to 11000
  141.0070  134.1072  157.4260 LP  0  0  0  0  0  0  0  0  0  0  0  0  # atno 17395 bound_to 11000

$$$$
