AV-unprocessed.smi:1778|AV-procd|sdf|7179|dock1
  -GOLD-   22720 8413D 1   1.00000     0.00000
 Structure written by MMmdl.
 34 35  0  0  0  0  0  0  0  0  1 V2000
  153.5902  141.0711  159.8351 C   0  0  0  0  0  0  0  0  0  0  0  0
  152.7821  142.2762  160.2237 C   0  0  0  0  0  0  0  0  0  0  0  0
  152.6187  142.5568  161.5055 N   0  0  0  0  0  0  0  0  0  0  0  0
  151.8472  143.7218  161.5486 O   0  0  0  0  0  0  0  0  0  0  0  0
  151.5747  144.1029  160.2748 C   0  0  0  0  0  0  0  0  0  0  0  0
  150.7619  145.3415  160.1024 C   0  0  0  0  0  0  0  0  0  0  0  0
  152.1367  143.2306  159.3840 C   0  0  0  0  0  0  0  0  0  0  0  0
  152.0904  143.2752  157.8780 C   0  0  0  0  0  0  0  0  0  0  0  0
  151.2783  142.0919  157.3526 C   0  0  0  0  0  0  0  0  0  0  0  0
  151.6274  140.9406  157.6119 O   0  0  0  0  0  0  0  0  0  0  0  0
  150.1958  142.3902  156.6183 N   0  0  0  0  0  0  0  0  0  0  0  0
  149.2748  141.4158  156.0447 C   0  0  2  0  0  0  0  0  0  0  0  0
  149.2631  141.4653  154.5033 C   0  0  0  0  0  0  0  0  0  0  0  0
  148.0281  140.7103  153.9971 C   0  0  0  0  0  0  0  0  0  0  0  0
  146.7410  140.9160  155.2864 S   0  0  0  0  0  0  0  0  0  0  0  0
  145.7583  141.9184  154.8479 O   0  0  0  0  0  0  0  0  0  0  0  0
  146.3128  139.5870  155.7483 O   0  0  0  0  0  0  0  0  0  0  0  0
  147.8444  141.6706  156.5393 C   0  0  0  0  0  0  0  0  0  0  0  0
  154.6578  141.2834  159.8960 H   0  0  0  0  0  0  0  0  0  0  0  0
  153.3732  140.7569  158.8146 H   0  0  0  0  0  0  0  0  0  0  0  0
  153.3803  140.2249  160.4898 H   0  0  0  0  0  0  0  0  0  0  0  0
  151.3337  146.1053  159.5751 H   0  0  0  0  0  0  0  0  0  0  0  0
  150.4578  145.7512  161.0657 H   0  0  0  0  0  0  0  0  0  0  0  0
  149.8614  145.1348  159.5242 H   0  0  0  0  0  0  0  0  0  0  0  0
  151.6486  144.2036  157.5150 H   0  0  0  0  0  0  0  0  0  0  0  0
  153.0930  143.2342  157.4502 H   0  0  0  0  0  0  0  0  0  0  0  0
  149.9879  143.3650  156.4580 H   0  0  0  0  0  0  0  0  0  0  0  0
  149.5637  140.4101  156.3566 H   0  0  0  0  0  0  0  0  0  0  0  0
  149.1932  142.5045  154.1782 H   0  0  0  0  0  0  0  0  0  0  0  0
  150.1808  141.0598  154.0759 H   0  0  0  0  0  0  0  0  0  0  0  0
  147.6657  141.0809  153.0380 H   0  0  0  0  0  0  0  0  0  0  0  0
  148.2396  139.6450  153.9015 H   0  0  0  0  0  0  0  0  0  0  0  0
  147.6492  141.2392  157.5214 H   0  0  0  0  0  0  0  0  0  0  0  0
  147.6206  142.7374  156.5768 H   0  0  0  0  0  0  0  0  0  0  0  0
  1  2  1  0  0  0  0
  1 19  1  0  0  0  0
  1 20  1  0  0  0  0
  1 21  1  0  0  0  0
  2  7  1  0  0  0  0
  2  3  2  0  0  0  0
  3  4  1  0  0  0  0
  4  5  1  0  0  0  0
  5  6  1  0  0  0  0
  5  7  2  0  0  0  0
  6 22  1  0  0  0  0
  6 23  1  0  0  0  0
  6 24  1  0  0  0  0
  7  8  1  0  0  0  0
  8  9  1  0  0  0  0
  8 25  1  0  0  0  0
  8 26  1  0  0  0  0
  9 10  2  0  0  0  0
  9 11  1  0  0  0  0
 11 12  1  0  0  0  0
 11 27  1  0  0  0  0
 12 18  1  0  0  0  0
 12 13  1  0  0  0  0
 12 28  1  0  0  0  0
 13 14  1  0  0  0  0
 13 29  1  0  0  0  0
 13 30  1  0  0  0  0
 14 15  1  0  0  0  0
 14 31  1  0  0  0  0
 14 32  1  0  0  0  0
 15 16  2  0  0  0  0
 15 17  2  0  0  0  0
 15 18  1  0  0  0  0
 18 33  1  0  0  0  0
 18 34  1  0  0  0  0
M  END
> <s_m_source_file>
AV-unprocessed.smi

> <i_m_source_file_index>
1778

> <i_lp_mmshare_version>
43012

> <i_f3d_flags>
0

> <s_epik_input>
W0NIM11jMW5vYyhbQ0gzXSljMVtDSDJdQyg9TylbTkhdW0NAQEhdKFtDSDJdMilbQ0gyXVtDSDJdUzIoPU8pPU8=

> <s_epik_cmdline>
J2VwaWtfcHl0aG9uJywgJy1waCcsICc3LjAnLCAnLXRuJywgJzgnLCAnLW1hJywgJzIwMCcsICctbWV0YWxfYmluZGluZycsICctaW1hZScsICc8aW5maWxlLm1hZT4nLCAnLW9tYWUnLCAnPG91dGZpbGUubWFlPic=

> <r_lp_tautomer_probability>
1

> <r_epik_Ionization_Penalty>
1.26334e-07

> <r_epik_Ionization_Penalty_Charging>
0

> <r_epik_Ionization_Penalty_Neutral>
1.26334e-07

> <r_epik_State_Penalty>
-0

> <r_epik_Charging_Adjusted_Penalty>
0

> <i_epik_Tot_Q>
0

> <i_epik_Tot_abs_Q>
0

> <r_epik_Metal_State_Penalty>
-0

> <b_epik_Metal_Only>
0

> <s_lp_Force_Field>
OPLS_2005

> <r_lp_Energy>
-2.84912

> <b_lp_Chiralities_Consistent>
1

> <s_lp_Variant>
AV-unprocessed.smi:1778-1

> <Gold.Version>
5.8.1

> <Gold.Id.Protein>
6NUR|6NUR_protein|mol2

> <Gold.PLP.Fitness>
36.2706

> <Gold.PLP.PLP>
-33.3830

> <Gold.PLP.part.hbond>
-1.0000

> <Gold.PLP.part.metal>
0.0000

> <Gold.PLP.part.buried>
-6.5516

> <Gold.PLP.part.nonpolar>
-26.6485

> <Gold.PLP.part.repulsive>
0.4756

> <Gold.PLP.ligand.clash>
0.0000

> <Gold.PLP.ligand.torsion>
0.0577

> <Gold.PLP.Chemscore.Hbond>
1.0000

> <Gold.PLP.Chemscore.CHOScore>
0.0000

> <Gold.PLP.Chemscore.Metal>
0.0000

> <Gold.Chemscore.Hbonds>
donor molecule, donor type, donor heavy atom, donor atom, acceptor molecule, acceptor atom, score
      L1  H    11    27       P1  8028  1.00

> <Gold.PLP.Chemscore.Internal.Correction>
0.0030

> <Gold.Rescore>
     Score         DG    S(hbond)    S(metal)    S(lipo)     H(rot)  DE(clash)    DE(int)     intcor
     14.18     -14.42       0.99        0.00      81.17       1.51       0.02       0.22       ----

> <Gold.Chemscore.Fitness>
14.1804

> <Gold.Chemscore.DG>
-14.4209

> <Gold.Chemscore.ZeroCoef>
-5.4800

> <Gold.Chemscore.Hbond>
0.9872

> <Gold.Chemscore.Metal>
0.0000

> <Gold.Chemscore.Lipo>
81.1691

> <Gold.Chemscore.Internal_Hbond>
0.0000

> <Gold.Chemscore.DEClash>
0.0234

> <Gold.Chemscore.DEInternal>
0.2171

> <Gold.Chemscore.Rot>
1.5051

> <Gold.Chemscore.Internal.Correction>
   9.000000E+99

> <Gold.Chemscore.Hbonds>
donor molecule, donor type, donor heavy atom, donor atom, acceptor molecule, acceptor atom, score
      L1  H    11    27       P1  8028  0.95

> <Gold.Chemscore.Hbond.Weighted>
-3.2972

> <Gold.Chemscore.Metal.Weighted>
-0.0000

> <Gold.Chemscore.Lipo.Weighted>
-9.4968

> <Gold.Chemscore.Internal_Hbond.Weighted>
0.0000

> <Gold.Chemscore.DEClash.Weighted>
0.0234

> <Gold.Chemscore.DEInternal.Weighted>
0.2171

> <Gold.Chemscore.Rot.Weighted>
3.8531

> <Gold.Chemscore.Internal.Correction.Weighted>
   9.000000E+99

> <Gold.Protein.RotatedTorsions>
[ 6907 6896 6895 6894 ] final  -17.52 input  -60.11 | X-H torsion
[ 7974 7965 7964 7962 ] final  102.79 input  175.53 | X-H torsion
[ 8008 7997 7996 7995 ] final  138.75 input   59.86 | X-H torsion
[ 10167 10162 10161 10158 ] final   71.21 input  -65.29 | X-H torsion
[ 10718 10713 10712 10709 ] final    3.12 input   66.30 | X-H torsion
[ 10763 10752 10751 10750 ] final -119.17 input  -60.55 | X-H torsion
[ 11005 11000 10999 10996 ] final -171.63 input  -57.11 | X-H torsion

> <Gold.Protein.ActiveResidues>
 VAL166  LYS551  ARG553  GLY616  TRP617  ASP618  TYR619  PRO620  LYS621  CYS622 
 ASP623  PHE694  ASN695  SER759  ASP760  ASP761  ALA762  ILE779  LEU786  VAL792 
 PHE793  MET794  SER795  GLU796  ALA797  LYS798  CYS799  TRP800  GLU811  SER814 

> <Gold.Protein.RotatedAtoms>
  151.2921  135.0744  159.9207 H   0  0  0  0  0  0  0  0  0  0  0  0  # atno 6907 bound_to 6896
  152.5314  133.9921  159.7866 H   0  0  0  0  0  0  0  0  0  0  0  0  # atno 6908 bound_to 6896
  151.0193  133.5840  159.2704 H   0  0  0  0  0  0  0  0  0  0  0  0  # atno 6909 bound_to 6896
  145.3545  139.2432  143.3540 H   0  0  0  0  0  0  0  0  0  0  0  0  # atno 7974 bound_to 7965
  156.2995  140.2385  156.4124 H   0  0  0  0  0  0  0  0  0  0  0  0  # atno 8008 bound_to 7997
  154.8429  140.0427  157.1573 H   0  0  0  0  0  0  0  0  0  0  0  0  # atno 8009 bound_to 7997
  154.9083  140.2987  155.5284 H   0  0  0  0  0  0  0  0  0  0  0  0  # atno 8010 bound_to 7997
  140.0486  144.5331  150.7380 H   0  0  0  0  0  0  0  0  0  0  0  0  # atno 10167 bound_to 10162
  156.8730  130.5627  149.5656 H   0  0  0  0  0  0  0  0  0  0  0  0  # atno 10718 bound_to 10713
  154.8609  135.4248  154.2256 H   0  0  0  0  0  0  0  0  0  0  0  0  # atno 10763 bound_to 10752
  153.3252  135.6984  153.7001 H   0  0  0  0  0  0  0  0  0  0  0  0  # atno 10764 bound_to 10752
  153.6040  135.3531  155.2929 H   0  0  0  0  0  0  0  0  0  0  0  0  # atno 10765 bound_to 10752
  140.5060  134.5847  157.5003 H   0  0  0  0  0  0  0  0  0  0  0  0  # atno 11005 bound_to 11000
  146.2954  140.4167  142.8724 LP  0  0  0  0  0  0  0  0  0  0  0  0  # atno 17320 bound_to 7965
  144.8692  140.7249  143.6057 LP  0  0  0  0  0  0  0  0  0  0  0  0  # atno 17321 bound_to 7965
  140.7227  143.2605  151.4224 LP  0  0  0  0  0  0  0  0  0  0  0  0  # atno 17342 bound_to 10162
  139.5968  144.1381  152.2152 LP  0  0  0  0  0  0  0  0  0  0  0  0  # atno 17343 bound_to 10162
  156.0716  130.5748  150.9395 LP  0  0  0  0  0  0  0  0  0  0  0  0  # atno 17370 bound_to 10713
  157.6184  131.0931  150.8667 LP  0  0  0  0  0  0  0  0  0  0  0  0  # atno 17371 bound_to 10713
  139.9686  134.7331  156.0088 LP  0  0  0  0  0  0  0  0  0  0  0  0  # atno 17394 bound_to 11000
  141.1410  133.6565  156.3731 LP  0  0  0  0  0  0  0  0  0  0  0  0  # atno 17395 bound_to 11000

$$$$
