AV-unprocessed.smi:752|AV-procd|sdf|3598|dock5
  -GOLD-   22720 0593D 1   1.00000     0.00000
 Structure written by MMmdl.
 41 42  0  0  0  0  0  0  0  0  1 V2000
  153.2541  141.8744  162.1288 C   0  0  0  0  0  0  0  0  0  0  0  0
  152.8132  143.3417  162.1048 C   0  0  0  0  0  0  0  0  0  0  0  0
  152.2242  143.7421  160.7940 C   0  0  0  0  0  0  0  0  0  0  0  0
  151.8433  142.8672  159.8598 N   0  0  0  0  0  0  0  0  0  0  0  0
  151.3283  143.4883  158.7166 C   0  0  0  0  0  0  0  0  0  0  0  0
  150.7865  142.6566  157.5890 C   0  0  0  0  0  0  0  0  0  0  0  0
  149.4684  142.0204  158.0293 C   0  0  0  0  0  0  0  0  0  0  0  0
  149.4515  140.8679  158.4609 O   0  0  0  0  0  0  0  0  0  0  0  0
  148.3660  142.7676  157.8636 N   0  0  0  0  0  0  0  0  0  0  0  0
  146.9987  142.2696  157.9506 C   0  0  0  0  0  0  0  0  0  0  0  0
  146.2931  142.3209  156.5780 C   0  0  1  0  0  0  0  0  0  0  0  0
  145.4456  143.5986  156.4304 C   0  0  0  0  0  0  0  0  0  0  0  0
  144.7092  143.6307  155.0818 C   0  0  0  0  0  0  0  0  0  0  0  0
  145.6890  143.5060  153.9027 C   0  0  0  0  0  0  0  0  0  0  0  0
  146.5921  142.2646  154.0251 C   0  0  2  0  0  0  0  0  0  0  0  0
  145.8383  141.0872  153.8106 O   0  0  0  0  0  0  0  0  0  0  0  0
  147.2874  142.2006  155.3977 C   0  0  0  0  0  0  0  0  0  0  0  0
  151.3595  144.8595  158.7879 C   0  0  0  0  0  0  0  0  0  0  0  0
  152.0141  145.4181  160.3019 S   0  0  0  0  0  0  0  0  0  0  0  0
  153.6790  141.6117  163.0976 H   0  0  0  0  0  0  0  0  0  0  0  0
  154.0114  141.6794  161.3690 H   0  0  0  0  0  0  0  0  0  0  0  0
  152.4122  141.2074  161.9420 H   0  0  0  0  0  0  0  0  0  0  0  0
  152.0794  143.5233  162.8908 H   0  0  0  0  0  0  0  0  0  0  0  0
  153.6642  143.9896  162.3165 H   0  0  0  0  0  0  0  0  0  0  0  0
  150.6179  143.2701  156.7032 H   0  0  0  0  0  0  0  0  0  0  0  0
  151.4905  141.8751  157.2995 H   0  0  0  0  0  0  0  0  0  0  0  0
  148.4844  143.7088  157.5170 H   0  0  0  0  0  0  0  0  0  0  0  0
  146.9969  141.2524  158.3460 H   0  0  0  0  0  0  0  0  0  0  0  0
  146.4583  142.8825  158.6724 H   0  0  0  0  0  0  0  0  0  0  0  0
  145.6089  141.4720  156.5286 H   0  0  0  0  0  0  0  0  0  0  0  0
  144.7191  143.6594  157.2415 H   0  0  0  0  0  0  0  0  0  0  0  0
  146.0833  144.4792  156.5201 H   0  0  0  0  0  0  0  0  0  0  0  0
  143.9823  142.8183  155.0434 H   0  0  0  0  0  0  0  0  0  0  0  0
  144.1398  144.5561  154.9929 H   0  0  0  0  0  0  0  0  0  0  0  0
  145.1417  143.4855  152.9596 H   0  0  0  0  0  0  0  0  0  0  0  0
  146.3160  144.3980  153.8704 H   0  0  0  0  0  0  0  0  0  0  0  0
  147.3522  142.2988  153.2437 H   0  0  0  0  0  0  0  0  0  0  0  0
  145.0267  141.3227  153.3874 H   0  0  0  0  0  0  0  0  0  0  0  0
  148.0158  143.0096  155.4636 H   0  0  0  0  0  0  0  0  0  0  0  0
  147.8595  141.2752  155.4645 H   0  0  0  0  0  0  0  0  0  0  0  0
  151.0228  145.5718  158.0490 H   0  0  0  0  0  0  0  0  0  0  0  0
  1  2  1  0  0  0  0
  1 20  1  0  0  0  0
  1 21  1  0  0  0  0
  1 22  1  0  0  0  0
  2  3  1  0  0  0  0
  2 23  1  0  0  0  0
  2 24  1  0  0  0  0
  3 19  1  0  0  0  0
  3  4  2  0  0  0  0
  4  5  1  0  0  0  0
  5  6  1  0  0  0  0
  5 18  2  0  0  0  0
  6  7  1  0  0  0  0
  6 25  1  0  0  0  0
  6 26  1  0  0  0  0
  7  8  2  0  0  0  0
  7  9  1  0  0  0  0
  9 10  1  0  0  0  0
  9 27  1  0  0  0  0
 10 11  1  0  0  0  0
 10 28  1  0  0  0  0
 10 29  1  0  0  0  0
 11 17  1  0  0  0  0
 11 12  1  0  0  0  0
 11 30  1  0  0  0  0
 12 13  1  0  0  0  0
 12 31  1  0  0  0  0
 12 32  1  0  0  0  0
 13 14  1  0  0  0  0
 13 33  1  0  0  0  0
 13 34  1  0  0  0  0
 14 15  1  0  0  0  0
 14 35  1  0  0  0  0
 14 36  1  0  0  0  0
 15 16  1  0  0  0  0
 15 17  1  0  0  0  0
 15 37  1  0  0  0  0
 16 38  1  0  0  0  0
 17 39  1  0  0  0  0
 17 40  1  0  0  0  0
 18 19  1  0  0  0  0
 18 41  1  0  0  0  0
M  END
> <s_m_source_file>
AV-unprocessed.smi

> <i_m_source_file_index>
752

> <i_lp_mmshare_version>
43012

> <i_f3d_flags>
0

> <s_epik_input>
W0NIM11bQ0gyXWMxbmMoW2NIXXMxKVtDSDJdQyg9TylbTkhdW0NIMl1bQ0BASF0yW0NIMl1bQ0gyXVtDSDJdW0NAQEhdKFtPSF0pW0NIMl0y

> <s_epik_cmdline>
J2VwaWtfcHl0aG9uJywgJy1waCcsICc3LjAnLCAnLXRuJywgJzgnLCAnLW1hJywgJzIwMCcsICctbWV0YWxfYmluZGluZycsICctaW1hZScsICc8aW5maWxlLm1hZT4nLCAnLW9tYWUnLCAnPG91dGZpbGUubWFlPic=

> <r_lp_tautomer_probability>
1

> <r_epik_Ionization_Penalty>
5.44903e-05

> <r_epik_Ionization_Penalty_Charging>
0

> <r_epik_Ionization_Penalty_Neutral>
5.44903e-05

> <r_epik_State_Penalty>
-0

> <r_epik_Charging_Adjusted_Penalty>
0

> <i_epik_Tot_Q>
0

> <i_epik_Tot_abs_Q>
0

> <r_epik_Metal_State_Penalty>
-0

> <b_epik_Metal_Only>
0

> <s_lp_Force_Field>
OPLS_2005

> <r_lp_Energy>
4.32924

> <b_lp_Chiralities_Consistent>
1

> <s_lp_Variant>
AV-unprocessed.smi:752-4

> <Gold.Version>
5.8.1

> <Gold.Id.Protein>
6NUR|6NUR_protein|mol2

> <Gold.PLP.Fitness>
45.7082

> <Gold.PLP.PLP>
-43.3304

> <Gold.PLP.part.hbond>
-3.2463

> <Gold.PLP.part.metal>
0.0000

> <Gold.PLP.part.buried>
-5.1300

> <Gold.PLP.part.nonpolar>
-34.6034

> <Gold.PLP.part.repulsive>
0.0863

> <Gold.PLP.ligand.clash>
0.0000

> <Gold.PLP.ligand.torsion>
1.1496

> <Gold.PLP.Chemscore.Hbond>
1.5456

> <Gold.PLP.Chemscore.CHOScore>
0.0000

> <Gold.PLP.Chemscore.Metal>
0.0000

> <Gold.Chemscore.Hbonds>
donor molecule, donor type, donor heavy atom, donor atom, acceptor molecule, acceptor atom, score
      L1  H     9    27       P1  8028  0.24
      L1  H    16    38       P1 10175  0.67

> <Gold.PLP.Chemscore.Internal.Correction>
0.0403

> <Gold.Rescore>
     Score         DG    S(hbond)    S(metal)    S(lipo)     H(rot)  DE(clash)    DE(int)     intcor
     15.20     -16.34       1.00        0.00     109.86       2.08       0.16       0.98       ----

> <Gold.Chemscore.Fitness>
15.1993

> <Gold.Chemscore.DG>
-16.3397

> <Gold.Chemscore.ZeroCoef>
-5.4800

> <Gold.Chemscore.Hbond>
1.0002

> <Gold.Chemscore.Metal>
0.0000

> <Gold.Chemscore.Lipo>
109.8640

> <Gold.Chemscore.Internal_Hbond>
0.0000

> <Gold.Chemscore.DEClash>
0.1648

> <Gold.Chemscore.DEInternal>
0.9756

> <Gold.Chemscore.Rot>
2.0840

> <Gold.Chemscore.Internal.Correction>
   9.000000E+99

> <Gold.Chemscore.Hbonds>
donor molecule, donor type, donor heavy atom, donor atom, acceptor molecule, acceptor atom, score
      L1  H     9    27       P1  8028  0.01
      L1  H    16    38       P1 10175  0.11

> <Gold.Chemscore.Hbond.Weighted>
-3.3406

> <Gold.Chemscore.Metal.Weighted>
-0.0000

> <Gold.Chemscore.Lipo.Weighted>
-12.8541

> <Gold.Chemscore.Internal_Hbond.Weighted>
0.0000

> <Gold.Chemscore.DEClash.Weighted>
0.1648

> <Gold.Chemscore.DEInternal.Weighted>
0.9756

> <Gold.Chemscore.Rot.Weighted>
5.3350

> <Gold.Chemscore.Internal.Correction.Weighted>
   9.000000E+99

> <Gold.Protein.RotatedTorsions>
[ 6907 6896 6895 6894 ] final  141.04 input  -60.11 | X-H torsion
[ 7974 7965 7964 7962 ] final   43.97 input  175.53 | X-H torsion
[ 8008 7997 7996 7995 ] final   35.24 input   59.86 | X-H torsion
[ 10167 10162 10161 10158 ] final -119.87 input  -65.29 | X-H torsion
[ 10718 10713 10712 10709 ] final   66.65 input   66.30 | X-H torsion
[ 10763 10752 10751 10750 ] final   61.36 input  -60.55 | X-H torsion
[ 11005 11000 10999 10996 ] final   32.23 input  -57.11 | X-H torsion

> <Gold.Protein.ActiveResidues>
 VAL166  LYS551  ARG553  GLY616  TRP617  ASP618  TYR619  PRO620  LYS621  CYS622 
 ASP623  PHE694  ASN695  SER759  ASP760  ASP761  ALA762  ILE779  LEU786  VAL792 
 PHE793  MET794  SER795  GLU796  ALA797  LYS798  CYS799  TRP800  GLU811  SER814 

> <Gold.Protein.RotatedAtoms>
  152.2358  133.5095  159.5241 H   0  0  0  0  0  0  0  0  0  0  0  0  # atno 6907 bound_to 6896
  150.7050  134.1156  159.4025 H   0  0  0  0  0  0  0  0  0  0  0  0  # atno 6908 bound_to 6896
  151.9077  135.0352  160.0562 H   0  0  0  0  0  0  0  0  0  0  0  0  # atno 6909 bound_to 6896
  146.0609  139.5127  142.9658 H   0  0  0  0  0  0  0  0  0  0  0  0  # atno 7974 bound_to 7965
  155.1679  140.3289  155.4398 H   0  0  0  0  0  0  0  0  0  0  0  0  # atno 8008 bound_to 7997
  156.2520  140.1948  156.6734 H   0  0  0  0  0  0  0  0  0  0  0  0  # atno 8009 bound_to 7997
  154.6358  140.0576  156.9773 H   0  0  0  0  0  0  0  0  0  0  0  0  # atno 8010 bound_to 7997
  140.0419  143.5145  152.2126 H   0  0  0  0  0  0  0  0  0  0  0  0  # atno 10167 bound_to 10162
  157.6182  130.9279  150.0137 H   0  0  0  0  0  0  0  0  0  0  0  0  # atno 10718 bound_to 10713
  152.9948  135.5503  154.6022 H   0  0  0  0  0  0  0  0  0  0  0  0  # atno 10763 bound_to 10752
  154.5361  135.2816  155.1140 H   0  0  0  0  0  0  0  0  0  0  0  0  # atno 10764 bound_to 10752
  154.2436  135.6412  153.5268 H   0  0  0  0  0  0  0  0  0  0  0  0  # atno 10765 bound_to 10752
  140.2757  134.3031  155.7815 H   0  0  0  0  0  0  0  0  0  0  0  0  # atno 11005 bound_to 11000
  145.6561  141.0252  143.1734 LP  0  0  0  0  0  0  0  0  0  0  0  0  # atno 17320 bound_to 7965
  144.7174  139.8147  143.7394 LP  0  0  0  0  0  0  0  0  0  0  0  0  # atno 17321 bound_to 7965
  139.6008  144.7582  151.3176 LP  0  0  0  0  0  0  0  0  0  0  0  0  # atno 17342 bound_to 10162
  140.7256  143.7013  150.7843 LP  0  0  0  0  0  0  0  0  0  0  0  0  # atno 17343 bound_to 10162
  156.1314  130.3643  149.9725 LP  0  0  0  0  0  0  0  0  0  0  0  0  # atno 17370 bound_to 10713
  156.7785  130.9212  151.3645 LP  0  0  0  0  0  0  0  0  0  0  0  0  # atno 17371 bound_to 10713
  141.2171  133.7494  156.9403 LP  0  0  0  0  0  0  0  0  0  0  0  0  # atno 17394 bound_to 11000
  140.1331  134.9343  157.2364 LP  0  0  0  0  0  0  0  0  0  0  0  0  # atno 17395 bound_to 11000

$$$$
