AV-unprocessed.smi:1809|AV-procd|sdf|7318|dock10
  -GOLD-   22720 8573D 1   1.00000     0.00000
 Structure written by MMmdl.
 39 41  0  0  0  0  0  0  0  0  1 V2000
  143.6570  132.7599  150.5909 C   0  0  0  0  0  0  0  0  0  0  0  0
  144.2557  133.9338  151.2876 C   0  0  0  0  0  0  0  0  0  0  0  0
  143.5406  134.7632  152.0577 N   0  0  0  0  0  0  0  0  0  0  0  0
  144.3173  135.7760  152.6028 N   0  0  0  0  0  0  0  0  0  0  0  0
  145.6001  135.6794  152.2273 C   0  0  0  0  0  0  0  0  0  0  0  0
  146.6137  136.5844  152.6397 N   0  0  0  0  0  0  0  0  0  0  0  0
  146.5087  137.6249  153.4849 C   0  0  0  0  0  0  0  0  0  0  0  0
  145.4765  137.9740  154.0580 O   0  0  0  0  0  0  0  0  0  0  0  0
  147.6872  138.2460  153.6346 N   0  0  0  0  0  0  0  0  0  0  0  0
  147.9378  139.3857  154.5109 C   0  0  0  0  0  0  0  0  0  0  0  0
  149.1708  140.1897  154.0474 C   0  0  1  0  0  0  0  0  0  0  0  0
  149.4721  141.4071  154.9543 C   0  0  0  0  0  0  0  0  0  0  0  0
  150.0855  140.9843  156.1990 N   0  0  0  0  0  0  0  0  0  0  0  0
  150.5079  142.0289  157.1033 C   0  0  0  0  0  0  0  0  0  0  0  0
  151.4557  141.3200  158.0857 C   0  0  0  0  0  0  0  0  0  0  0  0
  151.9003  140.0436  157.3379 C   0  0  0  0  0  0  0  0  0  0  0  0
  151.2827  140.2287  155.9503 C   0  0  1  0  0  0  0  0  0  0  0  0
  150.9648  138.9632  155.1440 C   0  0  0  0  0  0  0  0  0  0  0  0
  150.3335  139.3548  153.9203 O   0  0  0  0  0  0  0  0  0  0  0  0
  145.9649  134.3321  151.1628 S   0  0  0  0  0  0  0  0  0  0  0  0
  142.5681  132.7993  150.6358 H   0  0  0  0  0  0  0  0  0  0  0  0
  143.9936  131.8368  151.0630 H   0  0  0  0  0  0  0  0  0  0  0  0
  143.9624  132.7505  149.5446 H   0  0  0  0  0  0  0  0  0  0  0  0
  147.5295  136.4138  152.2518 H   0  0  0  0  0  0  0  0  0  0  0  0
  148.4796  137.8892  153.1211 H   0  0  0  0  0  0  0  0  0  0  0  0
  147.0547  140.0236  154.4709 H   0  0  0  0  0  0  0  0  0  0  0  0
  148.0324  139.0736  155.5519 H   0  0  0  0  0  0  0  0  0  0  0  0
  148.9516  140.5721  153.0498 H   0  0  0  0  0  0  0  0  0  0  0  0
  150.1460  142.0847  154.4281 H   0  0  0  0  0  0  0  0  0  0  0  0
  148.5602  141.9700  155.1557 H   0  0  0  0  0  0  0  0  0  0  0  0
  151.0509  142.8027  156.5579 H   0  0  0  0  0  0  0  0  0  0  0  0
  149.6593  142.4979  157.6018 H   0  0  0  0  0  0  0  0  0  0  0  0
  152.3003  141.9578  158.3478 H   0  0  0  0  0  0  0  0  0  0  0  0
  150.9356  141.0564  159.0073 H   0  0  0  0  0  0  0  0  0  0  0  0
  152.9847  139.9380  157.2940 H   0  0  0  0  0  0  0  0  0  0  0  0
  151.4920  139.1593  157.8291 H   0  0  0  0  0  0  0  0  0  0  0  0
  151.9696  140.8405  155.3613 H   0  0  0  0  0  0  0  0  0  0  0  0
  151.8774  138.4130  154.9150 H   0  0  0  0  0  0  0  0  0  0  0  0
  150.3197  138.2915  155.7102 H   0  0  0  0  0  0  0  0  0  0  0  0
  1  2  1  0  0  0  0
  1 21  1  0  0  0  0
  1 22  1  0  0  0  0
  1 23  1  0  0  0  0
  2 20  1  0  0  0  0
  2  3  2  0  0  0  0
  3  4  1  0  0  0  0
  4  5  2  0  0  0  0
  5  6  1  0  0  0  0
  5 20  1  0  0  0  0
  6  7  1  0  0  0  0
  6 24  1  0  0  0  0
  7  8  2  0  0  0  0
  7  9  1  0  0  0  0
  9 10  1  0  0  0  0
  9 25  1  0  0  0  0
 10 11  1  0  0  0  0
 10 26  1  0  0  0  0
 10 27  1  0  0  0  0
 11 19  1  0  0  0  0
 11 12  1  0  0  0  0
 11 28  1  0  0  0  0
 12 13  1  0  0  0  0
 12 29  1  0  0  0  0
 12 30  1  0  0  0  0
 13 17  1  0  0  0  0
 13 14  1  0  0  0  0
 14 15  1  0  0  0  0
 14 31  1  0  0  0  0
 14 32  1  0  0  0  0
 15 16  1  0  0  0  0
 15 33  1  0  0  0  0
 15 34  1  0  0  0  0
 16 17  1  0  0  0  0
 16 35  1  0  0  0  0
 16 36  1  0  0  0  0
 17 18  1  0  0  0  0
 17 37  1  0  0  0  0
 18 19  1  0  0  0  0
 18 38  1  0  0  0  0
 18 39  1  0  0  0  0
M  END
> <s_m_source_file>
AV-unprocessed.smi

> <i_m_source_file_index>
1809

> <i_lp_mmshare_version>
43012

> <i_f3d_flags>
0

> <s_epik_input>
W0NIM11jMW5uYyhzMSlbTkhdQyg9TylbTkhdW0NIMl1bQ0BIXShbQ0gyXTIpT1tDSDJdW0NAQEhdKE4yMylbQ0gyXVtDSDJdW0NIMl0z

> <s_epik_cmdline>
J2VwaWtfcHl0aG9uJywgJy1waCcsICc3LjAnLCAnLXRuJywgJzgnLCAnLW1hJywgJzIwMCcsICctbWV0YWxfYmluZGluZycsICctaW1hZScsICc8aW5maWxlLm1hZT4nLCAnLW9tYWUnLCAnPG91dGZpbGUubWFlPic=

> <r_lp_tautomer_probability>
1

> <r_epik_Ionization_Penalty>
1.05954

> <r_epik_Ionization_Penalty_Charging>
0

> <r_epik_Ionization_Penalty_Neutral>
1.05954

> <r_epik_State_Penalty>
1.4238

> <r_epik_Charging_Adjusted_Penalty>
1.4238

> <i_epik_Tot_Q>
0

> <i_epik_Tot_abs_Q>
0

> <r_epik_Metal_State_Penalty>
1.7901

> <b_epik_Metal_Only>
0

> <s_lp_Force_Field>
OPLS_2005

> <r_lp_Energy>
48.8115

> <b_lp_Chiralities_Consistent>
1

> <s_lp_Variant>
AV-unprocessed.smi:1809-10

> <Gold.Version>
5.8.1

> <Gold.Id.Protein>
6NUR|6NUR_protein|mol2

> <Gold.PLP.Fitness>
35.1054

> <Gold.PLP.PLP>
-28.7511

> <Gold.PLP.part.hbond>
-2.9082

> <Gold.PLP.part.metal>
0.0000

> <Gold.PLP.part.buried>
-3.8480

> <Gold.PLP.part.nonpolar>
-25.0227

> <Gold.PLP.part.repulsive>
2.0396

> <Gold.PLP.ligand.clash>
0.0000

> <Gold.PLP.ligand.torsion>
0.1726

> <Gold.PLP.Chemscore.Hbond>
2.2305

> <Gold.PLP.Chemscore.CHOScore>
0.0000

> <Gold.PLP.Chemscore.Metal>
0.0000

> <Gold.Chemscore.Hbonds>
donor molecule, donor type, donor heavy atom, donor atom, acceptor molecule, acceptor atom, score
      L1  H     6    24       P1  7948  0.86
      L1  H     9    25       P1  7948  0.61
      P1  H  7989  7998       L1    19  0.68

> <Gold.PLP.Chemscore.Internal.Correction>
0.0079

> <Gold.Rescore>
     Score         DG    S(hbond)    S(metal)    S(lipo)     H(rot)  DE(clash)    DE(int)     intcor
     14.18     -15.75       1.77        0.00      66.22       1.32       0.16       1.41       ----

> <Gold.Chemscore.Fitness>
14.1795

> <Gold.Chemscore.DG>
-15.7527

> <Gold.Chemscore.ZeroCoef>
-5.4800

> <Gold.Chemscore.Hbond>
1.7675

> <Gold.Chemscore.Metal>
0.0000

> <Gold.Chemscore.Lipo>
66.2183

> <Gold.Chemscore.Internal_Hbond>
0.0000

> <Gold.Chemscore.DEClash>
0.1635

> <Gold.Chemscore.DEInternal>
1.4097

> <Gold.Chemscore.Rot>
1.3196

> <Gold.Chemscore.Internal.Correction>
   9.000000E+99

> <Gold.Chemscore.Hbonds>
donor molecule, donor type, donor heavy atom, donor atom, acceptor molecule, acceptor atom, score
      L1  H     6    24       P1  7948  0.84
      L1  H     9    25       P1  7948  0.61
      P1  H  7989  7998       L1    19  0.02

> <Gold.Chemscore.Hbond.Weighted>
-5.9035

> <Gold.Chemscore.Metal.Weighted>
-0.0000

> <Gold.Chemscore.Lipo.Weighted>
-7.7475

> <Gold.Chemscore.Internal_Hbond.Weighted>
0.0000

> <Gold.Chemscore.DEClash.Weighted>
0.1635

> <Gold.Chemscore.DEInternal.Weighted>
1.4097

> <Gold.Chemscore.Rot.Weighted>
3.3783

> <Gold.Chemscore.Internal.Correction.Weighted>
   9.000000E+99

> <Gold.Protein.RotatedTorsions>
[ 6907 6896 6895 6894 ] final    0.28 input  -60.11 | X-H torsion
[ 7974 7965 7964 7962 ] final   73.31 input  175.53 | X-H torsion
[ 8008 7997 7996 7995 ] final  -38.89 input   59.86 | X-H torsion
[ 10167 10162 10161 10158 ] final -139.62 input  -65.29 | X-H torsion
[ 10718 10713 10712 10709 ] final -130.39 input   66.30 | X-H torsion
[ 10763 10752 10751 10750 ] final   66.71 input  -60.55 | X-H torsion
[ 11005 11000 10999 10996 ] final  -97.01 input  -57.11 | X-H torsion

> <Gold.Protein.ActiveResidues>
 VAL166  LYS551  ARG553  GLY616  TRP617  ASP618  TYR619  PRO620  LYS621  CYS622 
 ASP623  PHE694  ASN695  SER759  ASP760  ASP761  ALA762  ILE779  LEU786  VAL792 
 PHE793  MET794  SER795  GLU796  ALA797  LYS798  CYS799  TRP800  GLU811  SER814 

> <Gold.Protein.RotatedAtoms>
  151.5739  135.1061  160.0001 H   0  0  0  0  0  0  0  0  0  0  0  0  # atno 6907 bound_to 6896
  152.4387  133.7404  159.6648 H   0  0  0  0  0  0  0  0  0  0  0  0  # atno 6908 bound_to 6896
  150.8289  133.8055  159.3130 H   0  0  0  0  0  0  0  0  0  0  0  0  # atno 6909 bound_to 6896
  145.7424  139.2726  143.1478 H   0  0  0  0  0  0  0  0  0  0  0  0  # atno 7974 bound_to 7965
  154.4030  140.1566  156.2774 H   0  0  0  0  0  0  0  0  0  0  0  0  # atno 8008 bound_to 7997
  155.8900  140.3439  155.5927 H   0  0  0  0  0  0  0  0  0  0  0  0  # atno 8009 bound_to 7997
  155.7570  140.0812  157.2164 H   0  0  0  0  0  0  0  0  0  0  0  0  # atno 8010 bound_to 7997
  139.8362  143.7382  152.2665 H   0  0  0  0  0  0  0  0  0  0  0  0  # atno 10167 bound_to 10162
  156.2140  130.6936  151.0682 H   0  0  0  0  0  0  0  0  0  0  0  0  # atno 10718 bound_to 10713
  153.0152  135.5310  154.6866 H   0  0  0  0  0  0  0  0  0  0  0  0  # atno 10763 bound_to 10752
  154.6012  135.2868  155.0535 H   0  0  0  0  0  0  0  0  0  0  0  0  # atno 10764 bound_to 10752
  154.1592  135.6550  153.5034 H   0  0  0  0  0  0  0  0  0  0  0  0  # atno 10765 bound_to 10752
  141.1393  133.8139  157.0648 H   0  0  0  0  0  0  0  0  0  0  0  0  # atno 11005 bound_to 11000
  146.0435  140.8142  142.9817 LP  0  0  0  0  0  0  0  0  0  0  0  0  # atno 17320 bound_to 7965
  144.6867  140.2945  143.7273 LP  0  0  0  0  0  0  0  0  0  0  0  0  # atno 17321 bound_to 7965
  139.7605  144.7508  151.0371 LP  0  0  0  0  0  0  0  0  0  0  0  0  # atno 17342 bound_to 10162
  140.7802  143.4756  151.0086 LP  0  0  0  0  0  0  0  0  0  0  0  0  # atno 17343 bound_to 10162
  157.7053  131.0759  150.6686 LP  0  0  0  0  0  0  0  0  0  0  0  0  # atno 17370 bound_to 10713
  156.6747  130.4549  149.5646 LP  0  0  0  0  0  0  0  0  0  0  0  0  # atno 17371 bound_to 10713
  140.0548  134.9786  157.1201 LP  0  0  0  0  0  0  0  0  0  0  0  0  # atno 17394 bound_to 11000
  140.3935  134.2159  155.7165 LP  0  0  0  0  0  0  0  0  0  0  0  0  # atno 17395 bound_to 11000

$$$$
