AV-unprocessed.smi:2212|AV-procd|sdf|8954|dock6
  -GOLD-   2272012173D 1   1.00000     0.00000
 Structure written by MMmdl.
 31 32  0  0  0  0  0  0  0  0  1 V2000
  148.9883  139.3228  157.0791 C   0  0  0  0  0  0  0  0  0  0  0  0
  148.1977  140.4066  156.6089 O   0  0  0  0  0  0  0  0  0  0  0  0
  148.5890  140.9702  155.3564 C   0  0  0  0  0  0  0  0  0  0  0  0
  150.0568  141.4195  155.3613 C   0  0  0  0  0  0  0  0  0  0  0  0
  150.2895  142.4118  156.4025 N   0  0  0  0  0  0  0  0  0  0  0  0
  151.0182  142.2085  157.5083 C   0  0  0  0  0  0  0  0  0  0  0  0
  151.5470  141.1173  157.7434 O   0  0  0  0  0  0  0  0  0  0  0  0
  151.0364  143.3554  158.2878 N   0  0  0  0  0  0  0  0  0  0  0  0
  151.5588  143.3149  159.4752 C   0  0  0  0  0  0  0  0  0  0  0  0
  152.1325  142.2905  160.2238 N   0  0  0  0  0  0  0  0  0  0  0  0
  152.5161  142.8076  161.4295 C   0  0  0  0  0  0  0  0  0  0  0  0
  152.1985  144.0987  161.4435 C   0  0  0  0  0  0  0  0  0  0  0  0
  151.6106  144.4377  160.2620 O   0  0  0  0  0  0  0  0  0  0  0  0
  148.1408  140.0065  154.2414 C   0  0  0  0  0  0  0  0  0  0  0  0
  147.5875  141.2101  153.4762 C   0  0  0  0  0  0  0  0  0  0  0  0
  147.5185  141.9407  154.8183 C   0  0  0  0  0  0  0  0  0  0  0  0
  148.6570  139.0474  158.0802 H   0  0  0  0  0  0  0  0  0  0  0  0
  150.0447  139.5850  157.1403 H   0  0  0  0  0  0  0  0  0  0  0  0
  148.8810  138.4402  156.4490 H   0  0  0  0  0  0  0  0  0  0  0  0
  150.7089  140.5619  155.5342 H   0  0  0  0  0  0  0  0  0  0  0  0
  150.3508  141.8303  154.3952 H   0  0  0  0  0  0  0  0  0  0  0  0
  149.8735  143.3221  156.2661 H   0  0  0  0  0  0  0  0  0  0  0  0
  152.2623  141.3234  159.9630 H   0  0  0  0  0  0  0  0  0  0  0  0
  152.9886  142.1785  162.1694 H   0  0  0  0  0  0  0  0  0  0  0  0
  152.3195  144.8758  162.1838 H   0  0  0  0  0  0  0  0  0  0  0  0
  148.9503  139.4823  153.7326 H   0  0  0  0  0  0  0  0  0  0  0  0
  147.3562  139.3165  154.5576 H   0  0  0  0  0  0  0  0  0  0  0  0
  148.3143  141.6482  152.7903 H   0  0  0  0  0  0  0  0  0  0  0  0
  146.6233  141.0431  152.9956 H   0  0  0  0  0  0  0  0  0  0  0  0
  146.5470  141.8266  155.3027 H   0  0  0  0  0  0  0  0  0  0  0  0
  147.8260  142.9861  154.7798 H   0  0  0  0  0  0  0  0  0  0  0  0
  1  2  1  0  0  0  0
  1 17  1  0  0  0  0
  1 18  1  0  0  0  0
  1 19  1  0  0  0  0
  2  3  1  0  0  0  0
  3 16  1  0  0  0  0
  3  4  1  0  0  0  0
  3 14  1  0  0  0  0
  4  5  1  0  0  0  0
  4 20  1  0  0  0  0
  4 21  1  0  0  0  0
  5 22  1  0  0  0  0
  5  6  1  0  0  0  0
  6  8  1  0  0  0  0
  6  7  2  0  0  0  0
  8  9  2  0  0  0  0
  9 13  1  0  0  0  0
  9 10  1  0  0  0  0
 10 23  1  0  0  0  0
 10 11  1  0  0  0  0
 11 24  1  0  0  0  0
 11 12  2  0  0  0  0
 12 25  1  0  0  0  0
 12 13  1  0  0  0  0
 14 15  1  0  0  0  0
 14 26  1  0  0  0  0
 14 27  1  0  0  0  0
 15 16  1  0  0  0  0
 15 28  1  0  0  0  0
 15 29  1  0  0  0  0
 16 30  1  0  0  0  0
 16 31  1  0  0  0  0
M  END
> <s_m_source_file>
AV-unprocessed.smi

> <i_m_source_file_index>
2212

> <i_lp_mmshare_version>
43012

> <i_f3d_flags>
0

> <s_epik_input>
W0NIMl0xW0NIMl1bQ0gyXUMxKE9bQ0gzXSlbQ0gyXVtOSF1DKD1PKVtOSF1jMm5bY0hdW2NIXW8y

> <s_epik_cmdline>
J2VwaWtfcHl0aG9uJywgJy1waCcsICc3LjAnLCAnLXRuJywgJzgnLCAnLW1hJywgJzIwMCcsICctbWV0YWxfYmluZGluZycsICctaW1hZScsICc8aW5maWxlLm1hZT4nLCAnLW9tYWUnLCAnPG91dGZpbGUubWFlPic=

> <r_lp_tautomer_probability>
0.107061

> <r_epik_Ionization_Penalty>
1.29244

> <r_epik_Ionization_Penalty_Charging>
1.29208

> <r_epik_Ionization_Penalty_Neutral>
0.000357989

> <r_epik_State_Penalty>
2.59896

> <r_epik_Charging_Adjusted_Penalty>
3.89105

> <i_epik_Tot_Q>
0

> <i_epik_Tot_abs_Q>
0

> <r_epik_Metal_State_Penalty>
3.62496

> <b_epik_Metal_Only>
0

> <s_lp_Force_Field>
OPLS_2005

> <r_lp_Energy>
41.2438

> <b_lp_Chiralities_Consistent>
1

> <s_lp_Variant>
AV-unprocessed.smi:2212-4

> <Gold.Version>
5.8.1

> <Gold.Id.Protein>
6NUR|6NUR_protein|mol2

> <Gold.PLP.Fitness>
30.7257

> <Gold.PLP.PLP>
-27.8404

> <Gold.PLP.part.hbond>
-1.0000

> <Gold.PLP.part.metal>
0.0000

> <Gold.PLP.part.buried>
-5.5101

> <Gold.PLP.part.nonpolar>
-21.6637

> <Gold.PLP.part.repulsive>
0.4158

> <Gold.PLP.ligand.clash>
0.0000

> <Gold.PLP.ligand.torsion>
0.1960

> <Gold.PLP.Chemscore.Hbond>
1.0000

> <Gold.PLP.Chemscore.CHOScore>
0.0000

> <Gold.PLP.Chemscore.Metal>
0.0000

> <Gold.Chemscore.Hbonds>
donor molecule, donor type, donor heavy atom, donor atom, acceptor molecule, acceptor atom, score
      L1  H     5    22       P1  8028  1.00

> <Gold.PLP.Chemscore.Internal.Correction>
0.2774

> <Gold.Rescore>
     Score         DG    S(hbond)    S(metal)    S(lipo)     H(rot)  DE(clash)    DE(int)     intcor
     11.36     -11.60       1.00        0.00      59.75       1.64       0.09       0.15       ----

> <Gold.Chemscore.Fitness>
11.3601

> <Gold.Chemscore.DG>
-11.6044

> <Gold.Chemscore.ZeroCoef>
-5.4800

> <Gold.Chemscore.Hbond>
0.9985

> <Gold.Chemscore.Metal>
0.0000

> <Gold.Chemscore.Lipo>
59.7473

> <Gold.Chemscore.Internal_Hbond>
0.0000

> <Gold.Chemscore.DEClash>
0.0931

> <Gold.Chemscore.DEInternal>
0.1513

> <Gold.Chemscore.Rot>
1.6411

> <Gold.Chemscore.Internal.Correction>
   9.000000E+99

> <Gold.Chemscore.Hbonds>
donor molecule, donor type, donor heavy atom, donor atom, acceptor molecule, acceptor atom, score
      L1  H     5    22       P1  8028  1.00

> <Gold.Chemscore.Hbond.Weighted>
-3.3351

> <Gold.Chemscore.Metal.Weighted>
-0.0000

> <Gold.Chemscore.Lipo.Weighted>
-6.9904

> <Gold.Chemscore.Internal_Hbond.Weighted>
0.0000

> <Gold.Chemscore.DEClash.Weighted>
0.0931

> <Gold.Chemscore.DEInternal.Weighted>
0.1513

> <Gold.Chemscore.Rot.Weighted>
4.2011

> <Gold.Chemscore.Internal.Correction.Weighted>
   9.000000E+99

> <Gold.Protein.RotatedTorsions>
[ 6907 6896 6895 6894 ] final -129.60 input  -60.11 | X-H torsion
[ 7974 7965 7964 7962 ] final   61.53 input  175.53 | X-H torsion
[ 8008 7997 7996 7995 ] final  118.05 input   59.86 | X-H torsion
[ 10167 10162 10161 10158 ] final   71.80 input  -65.29 | X-H torsion
[ 10718 10713 10712 10709 ] final -124.79 input   66.30 | X-H torsion
[ 10763 10752 10751 10750 ] final  -91.74 input  -60.55 | X-H torsion
[ 11005 11000 10999 10996 ] final   17.59 input  -57.11 | X-H torsion

> <Gold.Protein.ActiveResidues>
 VAL166  LYS551  ARG553  GLY616  TRP617  ASP618  TYR619  PRO620  LYS621  CYS622 
 ASP623  PHE694  ASN695  SER759  ASP760  ASP761  ALA762  ILE779  LEU786  VAL792 
 PHE793  MET794  SER795  GLU796  ALA797  LYS798  CYS799  TRP800  GLU811  SER814 

> <Gold.Protein.RotatedAtoms>
  150.9305  133.6772  159.2811 H   0  0  0  0  0  0  0  0  0  0  0  0  # atno 6907 bound_to 6896
  151.4196  135.0995  159.9619 H   0  0  0  0  0  0  0  0  0  0  0  0  # atno 6908 bound_to 6896
  152.5023  133.8760  159.7377 H   0  0  0  0  0  0  0  0  0  0  0  0  # atno 6909 bound_to 6896
  145.8837  139.3461  143.0691 H   0  0  0  0  0  0  0  0  0  0  0  0  # atno 7974 bound_to 7965
  156.2526  140.2883  156.0775 H   0  0  0  0  0  0  0  0  0  0  0  0  # atno 8008 bound_to 7997
  155.1603  140.0399  157.2858 H   0  0  0  0  0  0  0  0  0  0  0  0  # atno 8009 bound_to 7997
  154.6397  140.2519  155.7343 H   0  0  0  0  0  0  0  0  0  0  0  0  # atno 8010 bound_to 7997
  140.0422  144.5380  150.7425 H   0  0  0  0  0  0  0  0  0  0  0  0  # atno 10167 bound_to 10162
  156.1618  130.6607  151.0060 H   0  0  0  0  0  0  0  0  0  0  0  0  # atno 10718 bound_to 10713
  154.6791  135.5256  153.8239 H   0  0  0  0  0  0  0  0  0  0  0  0  # atno 10763 bound_to 10752
  153.0553  135.6548  154.0603 H   0  0  0  0  0  0  0  0  0  0  0  0  # atno 10764 bound_to 10752
  154.0493  135.2970  155.3323 H   0  0  0  0  0  0  0  0  0  0  0  0  # atno 10765 bound_to 10752
  140.4342  134.1388  155.7683 H   0  0  0  0  0  0  0  0  0  0  0  0  # atno 11005 bound_to 11000
  145.8993  140.9253  143.0511 LP  0  0  0  0  0  0  0  0  0  0  0  0  # atno 17320 bound_to 7965
  144.6728  140.1011  143.7460 LP  0  0  0  0  0  0  0  0  0  0  0  0  # atno 17321 bound_to 7965
  140.7255  143.2631  151.4135 LP  0  0  0  0  0  0  0  0  0  0  0  0  # atno 17342 bound_to 10162
  139.6006  144.1303  152.2194 LP  0  0  0  0  0  0  0  0  0  0  0  0  # atno 17343 bound_to 10162
  157.6738  131.0855  150.7546 LP  0  0  0  0  0  0  0  0  0  0  0  0  # atno 17370 bound_to 10713
  156.7608  130.4798  149.5437 LP  0  0  0  0  0  0  0  0  0  0  0  0  # atno 17371 bound_to 10713
  141.1733  133.8565  157.1503 LP  0  0  0  0  0  0  0  0  0  0  0  0  # atno 17394 bound_to 11000
  140.0113  134.9987  157.0401 LP  0  0  0  0  0  0  0  0  0  0  0  0  # atno 17395 bound_to 11000

$$$$
