AV-unprocessed.smi:2183|AV-procd|sdf|8867|dock4
  -GOLD-   2272012 63D 1   1.00000     0.00000
 Structure written by MMmdl.
 41 43  0  0  0  0  0  0  0  0  2 V2000
  150.8925  140.1622  154.7682 O   0  0  0  0  0  0  0  0  0  0  0  0
  150.0038  140.9394  155.5395 C   0  0  0  0  0  0  0  0  0  0  0  0
  150.6726  141.5560  156.7234 C   0  0  0  0  0  0  0  0  0  0  0  0
  150.7939  142.8914  156.9660 N   0  3  0  0  0  0  0  0  0  0  0  0
  151.4873  143.0940  158.1598 C   0  0  0  0  0  0  0  0  0  0  0  0
  151.8506  144.2673  158.8135 C   0  0  0  0  0  0  0  0  0  0  0  0
  152.5567  144.1239  160.0258 C   0  0  0  0  0  0  0  0  0  0  0  0
  152.8745  142.8516  160.5437 C   0  0  0  0  0  0  0  0  0  0  0  0
  152.5019  141.6691  159.8713 C   0  0  0  0  0  0  0  0  0  0  0  0
  151.8053  141.8189  158.6720 C   0  0  0  0  0  0  0  0  0  0  0  0
  151.2847  140.9007  157.7515 N   0  0  0  0  0  0  0  0  0  0  0  0
  151.4539  139.4568  157.9809 C   0  0  0  0  0  0  0  0  0  0  0  0
  152.9340  139.0389  158.0883 C   0  0  2  0  0  0  0  0  0  0  0  0
  153.4704  138.8240  156.7987 O   0  0  0  0  0  0  0  0  0  0  0  0
  153.1260  137.7615  158.9181 C   0  0  0  0  0  0  0  0  0  0  0  0
  153.2599  138.1218  160.2868 O   0  0  0  0  0  0  0  0  0  0  0  0
  153.7891  137.1945  161.1583 C   0  0  0  0  0  0  0  0  0  0  0  0
  153.7484  137.5118  162.5319 C   0  0  0  0  0  0  0  0  0  0  0  0
  154.2665  136.6228  163.4933 C   0  0  0  0  0  0  0  0  0  0  0  0
  154.8344  135.4009  163.0873 C   0  0  0  0  0  0  0  0  0  0  0  0
  155.4710  134.3098  164.2624 Cl  0  0  0  0  0  0  0  0  0  0  0  0
  154.8819  135.0713  161.7199 C   0  0  0  0  0  0  0  0  0  0  0  0
  154.3632  135.9609  160.7588 C   0  0  0  0  0  0  0  0  0  0  0  0
  150.9617  139.3051  155.1607 H   0  0  0  0  0  0  0  0  0  0  0  0
  149.5799  141.7240  154.9121 H   0  0  0  0  0  0  0  0  0  0  0  0
  149.1762  140.3119  155.8701 H   0  0  0  0  0  0  0  0  0  0  0  0
  151.6080  145.2431  158.4188 H   0  0  0  0  0  0  0  0  0  0  0  0
  152.8601  145.0071  160.5694 H   0  0  0  0  0  0  0  0  0  0  0  0
  153.4152  142.7805  161.4764 H   0  0  0  0  0  0  0  0  0  0  0  0
  152.7479  140.7006  160.2809 H   0  0  0  0  0  0  0  0  0  0  0  0
  150.9305  139.2179  158.9074 H   0  0  0  0  0  0  0  0  0  0  0  0
  150.9401  138.9011  157.1965 H   0  0  0  0  0  0  0  0  0  0  0  0
  153.5087  139.8439  158.5472 H   0  0  0  0  0  0  0  0  0  0  0  0
  152.7585  138.8136  156.1775 H   0  0  0  0  0  0  0  0  0  0  0  0
  152.2791  137.0883  158.7738 H   0  0  0  0  0  0  0  0  0  0  0  0
  154.0301  137.2450  158.5904 H   0  0  0  0  0  0  0  0  0  0  0  0
  153.3146  138.4476  162.8524 H   0  0  0  0  0  0  0  0  0  0  0  0
  154.2273  136.8803  164.5415 H   0  0  0  0  0  0  0  0  0  0  0  0
  155.3170  134.1345  161.4044 H   0  0  0  0  0  0  0  0  0  0  0  0
  154.4194  135.6729  159.7202 H   0  0  0  0  0  0  0  0  0  0  0  0
  150.4317  143.6106  156.3532 H   0  0  0  0  0  0  0  0  0  0  0  0
  1  2  1  0  0  0  0
  1 24  1  0  0  0  0
  2  3  1  0  0  0  0
  2 25  1  0  0  0  0
  2 26  1  0  0  0  0
  3 11  1  0  0  0  0
  3  4  2  0  0  0  0
  4  5  1  0  0  0  0
  4 41  1  0  0  0  0
  5 10  2  0  0  0  0
  5  6  1  0  0  0  0
  6  7  2  0  0  0  0
  6 27  1  0  0  0  0
  7  8  1  0  0  0  0
  7 28  1  0  0  0  0
  8  9  2  0  0  0  0
  8 29  1  0  0  0  0
  9 10  1  0  0  0  0
  9 30  1  0  0  0  0
 10 11  1  0  0  0  0
 11 12  1  0  0  0  0
 12 13  1  0  0  0  0
 12 31  1  0  0  0  0
 12 32  1  0  0  0  0
 13 14  1  0  0  0  0
 13 15  1  0  0  0  0
 13 33  1  0  0  0  0
 14 34  1  0  0  0  0
 15 16  1  0  0  0  0
 15 35  1  0  0  0  0
 15 36  1  0  0  0  0
 16 17  1  0  0  0  0
 17 23  1  0  0  0  0
 17 18  2  0  0  0  0
 18 19  1  0  0  0  0
 18 37  1  0  0  0  0
 19 20  2  0  0  0  0
 19 38  1  0  0  0  0
 20 21  1  0  0  0  0
 20 22  1  0  0  0  0
 22 23  2  0  0  0  0
 22 39  1  0  0  0  0
 23 40  1  0  0  0  0
M  CHG  1   4   1
M  END
> <s_m_source_file>
AV-unprocessed.smi

> <i_m_source_file_index>
2183

> <i_lp_mmshare_version>
43012

> <i_f3d_flags>
0

> <s_epik_input>
W2NIXTFbY0hdW2NIXVtjSF1jKGMxMiluKGMobjIpW0NIMl1bT0hdKVtDSDJdW0NASF0oW09IXSlbQ0gyXU9jM1tjSF1bY0hdYyhDbClbY0hdW2NIXTM=

> <s_epik_cmdline>
J2VwaWtfcHl0aG9uJywgJy1waCcsICc3LjAnLCAnLXRuJywgJzgnLCAnLW1hJywgJzIwMCcsICctbWV0YWxfYmluZGluZycsICctaW1hZScsICc8aW5maWxlLm1hZT4nLCAnLW9tYWUnLCAnPG91dGZpbGUubWFlPic=

> <r_lp_tautomer_probability>
1

> <r_epik_Ionization_Penalty>
1.40052

> <r_epik_Ionization_Penalty_Charging>
1.39966

> <r_epik_Ionization_Penalty_Neutral>
0.000858184

> <r_epik_State_Penalty>
1.4817

> <r_epik_Charging_Adjusted_Penalty>
2.88136

> <i_epik_Tot_Q>
1

> <i_epik_Tot_abs_Q>
1

> <r_epik_Metal_State_Penalty>
5.5238

> <b_epik_Metal_Only>
0

> <s_lp_Force_Field>
OPLS_2005

> <r_lp_Energy>
17.0634

> <b_lp_Chiralities_Consistent>
1

> <s_lp_Variant>
AV-unprocessed.smi:2183-3

> <Gold.Version>
5.8.1

> <Gold.Id.Protein>
6NUR|6NUR_protein|mol2

> <Gold.PLP.Fitness>
58.9432

> <Gold.PLP.PLP>
-48.3859

> <Gold.PLP.part.hbond>
-2.7781

> <Gold.PLP.part.metal>
0.0000

> <Gold.PLP.part.buried>
-6.4825

> <Gold.PLP.part.nonpolar>
-39.5958

> <Gold.PLP.part.repulsive>
0.0255

> <Gold.PLP.ligand.clash>
0.0000

> <Gold.PLP.ligand.torsion>
0.7707

> <Gold.PLP.Chemscore.Hbond>
4.0000

> <Gold.PLP.Chemscore.CHOScore>
0.0000

> <Gold.PLP.Chemscore.Metal>
0.0000

> <Gold.Chemscore.Hbonds>
donor molecule, donor type, donor heavy atom, donor atom, acceptor molecule, acceptor atom, score
      L1  H     4    41       P1  8028  2.00
      P1  H  7989  7998       L1     1  1.00
      P1  H  7997  8010       L1    14  1.00

> <Gold.PLP.Chemscore.Internal.Correction>
0.0987

> <Gold.Rescore>
     Score         DG    S(hbond)    S(metal)    S(lipo)     H(rot)  DE(clash)    DE(int)     intcor
     20.79     -21.47       2.74        0.00     127.10       3.13       0.09       0.60       ----

> <Gold.Chemscore.Fitness>
20.7859

> <Gold.Chemscore.DG>
-21.4742

> <Gold.Chemscore.ZeroCoef>
-5.4800

> <Gold.Chemscore.Hbond>
2.7358

> <Gold.Chemscore.Metal>
0.0000

> <Gold.Chemscore.Lipo>
127.1003

> <Gold.Chemscore.Internal_Hbond>
0.0000

> <Gold.Chemscore.DEClash>
0.0863

> <Gold.Chemscore.DEInternal>
0.6020

> <Gold.Chemscore.Rot>
3.1305

> <Gold.Chemscore.Internal.Correction>
   9.000000E+99

> <Gold.Chemscore.Hbonds>
donor molecule, donor type, donor heavy atom, donor atom, acceptor molecule, acceptor atom, score
      L1  H     4    41       P1  8028  0.90
      P1  H  7989  7998       L1     1  0.95
      P1  H  7997  8010       L1    14  0.30

> <Gold.Chemscore.Hbond.Weighted>
-9.1375

> <Gold.Chemscore.Metal.Weighted>
-0.0000

> <Gold.Chemscore.Lipo.Weighted>
-14.8707

> <Gold.Chemscore.Internal_Hbond.Weighted>
0.0000

> <Gold.Chemscore.DEClash.Weighted>
0.0863

> <Gold.Chemscore.DEInternal.Weighted>
0.6020

> <Gold.Chemscore.Rot.Weighted>
8.0141

> <Gold.Chemscore.Internal.Correction.Weighted>
   9.000000E+99

> <Gold.Protein.RotatedTorsions>
[ 6907 6896 6895 6894 ] final -161.15 input  -60.11 | X-H torsion
[ 7974 7965 7964 7962 ] final  141.27 input  175.53 | X-H torsion
[ 8008 7997 7996 7995 ] final   62.48 input   59.86 | X-H torsion
[ 10167 10162 10161 10158 ] final  -28.58 input  -65.29 | X-H torsion
[ 10718 10713 10712 10709 ] final  -47.77 input   66.30 | X-H torsion
[ 10763 10752 10751 10750 ] final  -23.13 input  -60.55 | X-H torsion
[ 11005 11000 10999 10996 ] final  163.92 input  -57.11 | X-H torsion

> <Gold.Protein.ActiveResidues>
 VAL166  LYS551  ARG553  GLY616  TRP617  ASP618  TYR619  PRO620  LYS621  CYS622 
 ASP623  PHE694  ASN695  SER759  ASP760  ASP761  ALA762  ILE779  LEU786  VAL792 
 PHE793  MET794  SER795  GLU796  ALA797  LYS798  CYS799  TRP800  GLU811  SER814 

> <Gold.Protein.RotatedAtoms>
  151.3602  133.3892  159.2688 H   0  0  0  0  0  0  0  0  0  0  0  0  # atno 6907 bound_to 6896
  150.9731  134.9101  159.7810 H   0  0  0  0  0  0  0  0  0  0  0  0  # atno 6908 bound_to 6896
  152.5191  134.3565  159.9322 H   0  0  0  0  0  0  0  0  0  0  0  0  # atno 6909 bound_to 6896
  144.9111  139.5292  143.5708 H   0  0  0  0  0  0  0  0  0  0  0  0  # atno 7974 bound_to 7965
  155.6149  140.3495  155.4634 H   0  0  0  0  0  0  0  0  0  0  0  0  # atno 8008 bound_to 7997
  156.0125  140.1236  157.0464 H   0  0  0  0  0  0  0  0  0  0  0  0  # atno 8009 bound_to 7997
  154.4286  140.1079  156.5835 H   0  0  0  0  0  0  0  0  0  0  0  0  # atno 8010 bound_to 7997
  140.7268  143.3998  151.1285 H   0  0  0  0  0  0  0  0  0  0  0  0  # atno 10167 bound_to 10162
  156.2052  130.4158  149.9187 H   0  0  0  0  0  0  0  0  0  0  0  0  # atno 10718 bound_to 10713
  153.6629  135.6975  153.5171 H   0  0  0  0  0  0  0  0  0  0  0  0  # atno 10763 bound_to 10752
  153.2617  135.4242  155.0900 H   0  0  0  0  0  0  0  0  0  0  0  0  # atno 10764 bound_to 10752
  154.8447  135.3556  154.6174 H   0  0  0  0  0  0  0  0  0  0  0  0  # atno 10765 bound_to 10752
  140.2407  134.8053  157.3407 H   0  0  0  0  0  0  0  0  0  0  0  0  # atno 11005 bound_to 11000
  146.3159  139.7918  142.8984 LP  0  0  0  0  0  0  0  0  0  0  0  0  # atno 17320 bound_to 7965
  145.3453  141.0296  143.3369 LP  0  0  0  0  0  0  0  0  0  0  0  0  # atno 17321 bound_to 7965
  139.7616  143.8627  152.3101 LP  0  0  0  0  0  0  0  0  0  0  0  0  # atno 17342 bound_to 10162
  139.8515  144.7162  150.9209 LP  0  0  0  0  0  0  0  0  0  0  0  0  # atno 17343 bound_to 10162
  156.6883  130.8885  151.3585 LP  0  0  0  0  0  0  0  0  0  0  0  0  # atno 17370 bound_to 10713
  157.7008  130.9331  150.0781 LP  0  0  0  0  0  0  0  0  0  0  0  0  # atno 17371 bound_to 10713
  140.1657  134.4673  155.7865 LP  0  0  0  0  0  0  0  0  0  0  0  0  # atno 17394 bound_to 11000
  141.2211  133.6920  156.7620 LP  0  0  0  0  0  0  0  0  0  0  0  0  # atno 17395 bound_to 11000

$$$$
