AV-unprocessed.smi:1489|AV-procd|sdf|6027|dock10
  -GOLD-   22720 6133D 1   1.00000     0.00000
 Structure written by MMmdl.
 47 49  0  0  0  0  0  0  0  0  2 V2000
  146.6687  137.6900  153.9208 O   0  0  0  0  0  0  0  0  0  0  0  0
  146.6616  138.4779  152.9751 C   0  0  0  0  0  0  0  0  0  0  0  0
  147.4471  139.5632  152.8646 N   0  0  0  0  0  0  0  0  0  0  0  0
  148.3903  140.0676  153.8002 C   0  0  0  0  0  0  0  0  0  0  0  0
  149.2235  139.2482  154.6021 C   0  0  0  0  0  0  0  0  0  0  0  0
  150.1164  139.8474  155.5138 C   0  0  0  0  0  0  0  0  0  0  0  0
  150.1618  141.2570  155.6208 C   0  0  0  0  0  0  0  0  0  0  0  0
  151.0191  141.9463  156.4905 N   0  0  0  0  0  0  0  0  0  0  0  0
  151.8275  141.0900  157.3431 C   0  0  0  0  0  0  0  0  0  0  0  0
  152.3292  141.9862  158.4794 C   0  0  0  0  0  0  0  0  0  0  0  0
  151.3868  143.1954  158.4767 C   0  0  0  0  0  0  0  0  0  0  0  0
  150.3651  142.8935  157.3781 C   0  0  0  0  0  0  0  0  0  0  0  0
  149.3401  142.0004  154.8479 N   0  3  0  0  0  0  0  0  0  0  0  0
  148.4694  141.4666  153.9639 C   0  0  0  0  0  0  0  0  0  0  0  0
  145.8664  138.3413  151.9040 N   0  0  0  0  0  0  0  0  0  0  0  0
  144.9014  137.2641  151.7002 C   0  0  2  0  0  0  0  0  0  0  0  0
  143.8593  137.2870  152.8352 C   0  0  0  0  0  0  0  0  0  0  0  0
  142.8523  136.1331  152.7015 C   0  0  0  0  0  0  0  0  0  0  0  0
  143.5715  134.7746  152.6478 C   0  0  1  0  0  0  0  0  0  0  0  0
  142.6237  133.7453  152.4590 O   0  0  0  0  0  0  0  0  0  0  0  0
  144.6032  134.7416  151.5072 C   0  0  0  0  0  0  0  0  0  0  0  0
  145.6116  135.8946  151.6379 C   0  0  0  0  0  0  0  0  0  0  0  0
  147.3974  140.0598  151.9869 H   0  0  0  0  0  0  0  0  0  0  0  0
  149.1870  138.1713  154.5460 H   0  0  0  0  0  0  0  0  0  0  0  0
  150.7557  139.2252  156.1226 H   0  0  0  0  0  0  0  0  0  0  0  0
  151.2283  140.2730  157.7476 H   0  0  0  0  0  0  0  0  0  0  0  0
  152.6556  140.6534  156.7839 H   0  0  0  0  0  0  0  0  0  0  0  0
  152.3220  141.4591  159.4340 H   0  0  0  0  0  0  0  0  0  0  0  0
  153.3526  142.3108  158.2881 H   0  0  0  0  0  0  0  0  0  0  0  0
  150.9069  143.3528  159.4433 H   0  0  0  0  0  0  0  0  0  0  0  0
  151.9467  144.0993  158.2333 H   0  0  0  0  0  0  0  0  0  0  0  0
  150.0755  143.7979  156.8423 H   0  0  0  0  0  0  0  0  0  0  0  0
  149.4653  142.4578  157.8139 H   0  0  0  0  0  0  0  0  0  0  0  0
  147.8701  142.1757  153.4111 H   0  0  0  0  0  0  0  0  0  0  0  0
  145.9331  139.0318  151.1707 H   0  0  0  0  0  0  0  0  0  0  0  0
  144.3785  137.4339  150.7569 H   0  0  0  0  0  0  0  0  0  0  0  0
  144.3624  137.2140  153.8007 H   0  0  0  0  0  0  0  0  0  0  0  0
  143.3268  138.2390  152.8355 H   0  0  0  0  0  0  0  0  0  0  0  0
  142.1535  136.1550  153.5386 H   0  0  0  0  0  0  0  0  0  0  0  0
  142.2579  136.2751  151.7976 H   0  0  0  0  0  0  0  0  0  0  0  0
  144.0764  134.5942  153.5978 H   0  0  0  0  0  0  0  0  0  0  0  0
  142.5181  133.2801  153.2748 H   0  0  0  0  0  0  0  0  0  0  0  0
  145.1321  133.7878  151.5069 H   0  0  0  0  0  0  0  0  0  0  0  0
  144.0949  134.8141  150.5444 H   0  0  0  0  0  0  0  0  0  0  0  0
  146.3053  135.8650  150.7968 H   0  0  0  0  0  0  0  0  0  0  0  0
  146.2115  135.7486  152.5374 H   0  0  0  0  0  0  0  0  0  0  0  0
  149.3789  143.0160  154.9365 H   0  0  0  0  0  0  0  0  0  0  0  0
  1  2  2  0  0  0  0
  2  3  1  0  0  0  0
  2 15  1  0  0  0  0
  3  4  1  0  0  0  0
  3 23  1  0  0  0  0
  4 14  1  0  0  0  0
  4  5  2  0  0  0  0
  5  6  1  0  0  0  0
  5 24  1  0  0  0  0
  6  7  2  0  0  0  0
  6 25  1  0  0  0  0
  7  8  1  0  0  0  0
  7 13  1  0  0  0  0
  8 12  1  0  0  0  0
  8  9  1  0  0  0  0
  9 10  1  0  0  0  0
  9 26  1  0  0  0  0
  9 27  1  0  0  0  0
 10 11  1  0  0  0  0
 10 28  1  0  0  0  0
 10 29  1  0  0  0  0
 11 12  1  0  0  0  0
 11 30  1  0  0  0  0
 11 31  1  0  0  0  0
 12 32  1  0  0  0  0
 12 33  1  0  0  0  0
 13 14  2  0  0  0  0
 13 47  1  0  0  0  0
 14 34  1  0  0  0  0
 15 16  1  0  0  0  0
 15 35  1  0  0  0  0
 16 22  1  0  0  0  0
 16 17  1  0  0  0  0
 16 36  1  0  0  0  0
 17 18  1  0  0  0  0
 17 37  1  0  0  0  0
 17 38  1  0  0  0  0
 18 19  1  0  0  0  0
 18 39  1  0  0  0  0
 18 40  1  0  0  0  0
 19 20  1  0  0  0  0
 19 21  1  0  0  0  0
 19 41  1  0  0  0  0
 20 42  1  0  0  0  0
 21 22  1  0  0  0  0
 21 43  1  0  0  0  0
 21 44  1  0  0  0  0
 22 45  1  0  0  0  0
 22 46  1  0  0  0  0
M  CHG  1  13   1
M  END
> <s_m_source_file>
AV-unprocessed.smi

> <i_m_source_file_index>
1489

> <i_lp_mmshare_version>
43012

> <i_f3d_flags>
0

> <s_epik_input>
W0NIMl0xW0NIMl1bQ0BIXShbT0hdKVtDSDJdW0NIMl1bQ0BIXTFbTkhdQyg9TylbTkhdYzJbY0hdW2NIXWMobltjSF0yKU4zW0NIMl1bQ0gyXVtDSDJdW0NIMl0z

> <s_epik_cmdline>
J2VwaWtfcHl0aG9uJywgJy1waCcsICc3LjAnLCAnLXRuJywgJzgnLCAnLW1hJywgJzIwMCcsICctbWV0YWxfYmluZGluZycsICctaW1hZScsICc8aW5maWxlLm1hZT4nLCAnLW9tYWUnLCAnPG91dGZpbGUubWFlPic=

> <r_lp_tautomer_probability>
0.999994

> <r_epik_Ionization_Penalty>
1.08454

> <r_epik_Ionization_Penalty_Charging>
1.08452

> <r_epik_Ionization_Penalty_Neutral>
2.18252e-05

> <r_epik_State_Penalty>
1.14025

> <r_epik_Charging_Adjusted_Penalty>
2.22477

> <i_epik_Tot_Q>
1

> <i_epik_Tot_abs_Q>
1

> <r_epik_Metal_State_Penalty>
1.22975

> <b_epik_Metal_Only>
0

> <s_lp_Force_Field>
OPLS_2005

> <r_lp_Energy>
44.1541

> <b_lp_Chiralities_Consistent>
1

> <s_lp_Variant>
AV-unprocessed.smi:1489-3

> <Gold.Version>
5.8.1

> <Gold.Id.Protein>
6NUR|6NUR_protein|mol2

> <Gold.PLP.Fitness>
43.3010

> <Gold.PLP.PLP>
-34.9980

> <Gold.PLP.part.hbond>
-5.0000

> <Gold.PLP.part.metal>
0.0000

> <Gold.PLP.part.buried>
-2.1747

> <Gold.PLP.part.nonpolar>
-29.3383

> <Gold.PLP.part.repulsive>
0.4737

> <Gold.PLP.ligand.clash>
0.0000

> <Gold.PLP.ligand.torsion>
0.3424

> <Gold.PLP.Chemscore.Hbond>
2.9913

> <Gold.PLP.Chemscore.CHOScore>
0.0000

> <Gold.PLP.Chemscore.Metal>
0.0000

> <Gold.Chemscore.Hbonds>
donor molecule, donor type, donor heavy atom, donor atom, acceptor molecule, acceptor atom, score
      L1  H     3    23       P1  7957  0.03
      L1  H    13    47       P1  8028  2.00
      L1  H    20    42       P1 10957  0.76

> <Gold.PLP.Chemscore.Internal.Correction>
0.0141

> <Gold.Rescore>
     Score         DG    S(hbond)    S(metal)    S(lipo)     H(rot)  DE(clash)    DE(int)     intcor
     14.78     -17.62       1.96        0.00      84.75       1.69       0.53       2.31       ----

> <Gold.Chemscore.Fitness>
14.7826

> <Gold.Chemscore.DG>
-17.6162

> <Gold.Chemscore.ZeroCoef>
-5.4800

> <Gold.Chemscore.Hbond>
1.9624

> <Gold.Chemscore.Metal>
0.0000

> <Gold.Chemscore.Lipo>
84.7494

> <Gold.Chemscore.Internal_Hbond>
0.0000

> <Gold.Chemscore.DEClash>
0.5258

> <Gold.Chemscore.DEInternal>
2.3078

> <Gold.Chemscore.Rot>
1.6929

> <Gold.Chemscore.Internal.Correction>
   9.000000E+99

> <Gold.Chemscore.Hbonds>
donor molecule, donor type, donor heavy atom, donor atom, acceptor molecule, acceptor atom, score
      L1  H     3    23       P1  7957  0.03
      L1  H    13    47       P1  8028  0.98
      L1  H    20    42       P1 10957  0.68

> <Gold.Chemscore.Hbond.Weighted>
-6.5543

> <Gold.Chemscore.Metal.Weighted>
-0.0000

> <Gold.Chemscore.Lipo.Weighted>
-9.9157

> <Gold.Chemscore.Internal_Hbond.Weighted>
0.0000

> <Gold.Chemscore.DEClash.Weighted>
0.5258

> <Gold.Chemscore.DEInternal.Weighted>
2.3078

> <Gold.Chemscore.Rot.Weighted>
4.3338

> <Gold.Chemscore.Internal.Correction.Weighted>
   9.000000E+99

> <Gold.Protein.RotatedTorsions>
[ 6907 6896 6895 6894 ] final  -52.77 input  -60.11 | X-H torsion
[ 7974 7965 7964 7962 ] final   85.70 input  175.53 | X-H torsion
[ 8008 7997 7996 7995 ] final  -54.74 input   59.86 | X-H torsion
[ 10167 10162 10161 10158 ] final  134.84 input  -65.29 | X-H torsion
[ 10718 10713 10712 10709 ] final -161.80 input   66.30 | X-H torsion
[ 10763 10752 10751 10750 ] final  -65.31 input  -60.55 | X-H torsion
[ 11005 11000 10999 10996 ] final  -85.22 input  -57.11 | X-H torsion

> <Gold.Protein.ActiveResidues>
 VAL166  LYS551  ARG553  GLY616  TRP617  ASP618  TYR619  PRO620  LYS621  CYS622 
 ASP623  PHE694  ASN695  SER759  ASP760  ASP761  ALA762  ILE779  LEU786  VAL792 
 PHE793  MET794  SER795  GLU796  ALA797  LYS798  CYS799  TRP800  GLU811  SER814 

> <Gold.Protein.RotatedAtoms>
  150.8487  134.7805  159.6991 H   0  0  0  0  0  0  0  0  0  0  0  0  # atno 6907 bound_to 6896
  152.4558  134.5292  159.9815 H   0  0  0  0  0  0  0  0  0  0  0  0  # atno 6908 bound_to 6896
  151.5417  133.3393  159.2972 H   0  0  0  0  0  0  0  0  0  0  0  0  # atno 6909 bound_to 6896
  145.5820  139.2326  143.2347 H   0  0  0  0  0  0  0  0  0  0  0  0  # atno 7974 bound_to 7965
  154.4172  140.1169  156.5365 H   0  0  0  0  0  0  0  0  0  0  0  0  # atno 8008 bound_to 7997
  155.6552  140.3496  155.4743 H   0  0  0  0  0  0  0  0  0  0  0  0  # atno 8009 bound_to 7997
  155.9759  140.1150  157.0760 H   0  0  0  0  0  0  0  0  0  0  0  0  # atno 8010 bound_to 7997
  139.5240  144.6547  151.5198 H   0  0  0  0  0  0  0  0  0  0  0  0  # atno 10167 bound_to 10162
  156.6014  130.8812  151.2914 H   0  0  0  0  0  0  0  0  0  0  0  0  # atno 10718 bound_to 10713
  154.3432  135.6152  153.5606 H   0  0  0  0  0  0  0  0  0  0  0  0  # atno 10763 bound_to 10752
  152.9803  135.5774  154.4829 H   0  0  0  0  0  0  0  0  0  0  0  0  # atno 10764 bound_to 10752
  154.4537  135.2853  155.1740 H   0  0  0  0  0  0  0  0  0  0  0  0  # atno 10765 bound_to 10752
  141.1643  133.7387  156.8983 H   0  0  0  0  0  0  0  0  0  0  0  0  # atno 11005 bound_to 11000
  146.1709  140.6647  142.9233 LP  0  0  0  0  0  0  0  0  0  0  0  0  # atno 17320 bound_to 7965
  144.7389  140.4888  143.6883 LP  0  0  0  0  0  0  0  0  0  0  0  0  # atno 17321 bound_to 7965
  140.6367  143.8970  150.6654 LP  0  0  0  0  0  0  0  0  0  0  0  0  # atno 17342 bound_to 10162
  140.2291  143.3749  152.1580 LP  0  0  0  0  0  0  0  0  0  0  0  0  # atno 17343 bound_to 10162
  157.7278  130.9649  150.1717 LP  0  0  0  0  0  0  0  0  0  0  0  0  # atno 17370 bound_to 10713
  156.2466  130.3696  149.8278 LP  0  0  0  0  0  0  0  0  0  0  0  0  # atno 17371 bound_to 10713
  140.1601  134.9172  157.2703 LP  0  0  0  0  0  0  0  0  0  0  0  0  # atno 17394 bound_to 11000
  140.2622  134.3558  155.7402 LP  0  0  0  0  0  0  0  0  0  0  0  0  # atno 17395 bound_to 11000

$$$$
