AV-unprocessed.smi:1047|AV-procd|sdf|4576|dock1
  -GOLD-   22720 3 33D 1   1.00000     0.00000
 Structure written by MMmdl.
 56 58  0  0  0  0  0  0  0  0  2 V2000
  145.9586  137.3474  151.8937 C   0  0  0  0  0  0  0  0  0  0  0  0
  144.7484  136.9244  152.7382 C   0  0  0  0  0  0  0  0  0  0  0  0
  144.2991  137.9938  153.6642 N   0  3  1  0  0  0  0  0  0  0  0  0
  143.1929  137.5765  154.5608 C   0  0  0  0  0  0  0  0  0  0  0  0
  142.7509  138.7499  155.4513 C   0  0  0  0  0  0  0  0  0  0  0  0
  143.8593  139.2341  156.1994 O   0  0  0  0  0  0  0  0  0  0  0  0
  144.9119  139.7028  155.3626 C   0  0  1  0  0  0  0  0  0  0  0  0
  146.0078  140.3316  156.2396 C   0  0  0  0  0  0  0  0  0  0  0  0
  147.2515  140.5372  155.5016 N   0  0  0  0  0  0  0  0  0  0  0  0
  148.3432  141.0274  156.3374 C   0  0  0  0  0  0  0  0  0  0  0  0
  149.6609  141.1122  155.5427 C   0  0  1  0  0  0  0  0  0  0  0  0
  149.3761  141.6391  154.2638 O   0  0  0  0  0  0  0  0  0  0  0  0
  150.7156  142.0299  156.1917 C   0  0  0  0  0  0  0  0  0  0  0  0
  151.5795  141.3206  157.1182 N   0  0  0  0  0  0  0  0  0  0  0  0
  152.1631  140.1227  156.9230 C   0  0  0  0  0  0  0  0  0  0  0  0
  152.9173  139.6450  157.9083 N   0  0  0  0  0  0  0  0  0  0  0  0
  152.8158  140.6531  158.8514 C   0  0  0  0  0  0  0  0  0  0  0  0
  153.3851  140.7645  160.1388 C   0  0  0  0  0  0  0  0  0  0  0  0
  153.1410  141.9002  160.9435 C   0  0  0  0  0  0  0  0  0  0  0  0
  153.7736  141.9782  162.3216 C   0  0  0  0  0  0  0  0  0  0  0  0
  152.3153  142.9479  160.4624 C   0  0  0  0  0  0  0  0  0  0  0  0
  152.0401  144.1787  161.3083 C   0  0  0  0  0  0  0  0  0  0  0  0
  151.7376  142.8519  159.1791 C   0  0  0  0  0  0  0  0  0  0  0  0
  151.9883  141.7172  158.3873 C   0  0  0  0  0  0  0  0  0  0  0  0
  145.4167  138.5603  154.4560 C   0  0  0  0  0  0  0  0  0  0  0  0
  146.3181  136.5110  151.2940 H   0  0  0  0  0  0  0  0  0  0  0  0
  146.7837  137.6781  152.5250 H   0  0  0  0  0  0  0  0  0  0  0  0
  145.7150  138.1555  151.2048 H   0  0  0  0  0  0  0  0  0  0  0  0
  143.9227  136.6108  152.0981 H   0  0  0  0  0  0  0  0  0  0  0  0
  145.0384  136.0488  153.3204 H   0  0  0  0  0  0  0  0  0  0  0  0
  142.3401  137.2288  153.9792 H   0  0  0  0  0  0  0  0  0  0  0  0
  143.5193  136.7406  155.1818 H   0  0  0  0  0  0  0  0  0  0  0  0
  142.3227  139.5540  154.8507 H   0  0  0  0  0  0  0  0  0  0  0  0
  141.9749  138.4233  156.1438 H   0  0  0  0  0  0  0  0  0  0  0  0
  144.5117  140.4971  154.7295 H   0  0  0  0  0  0  0  0  0  0  0  0
  145.6521  141.2837  156.6355 H   0  0  0  0  0  0  0  0  0  0  0  0
  146.1892  139.6879  157.1011 H   0  0  0  0  0  0  0  0  0  0  0  0
  147.5292  139.6683  155.0559 H   0  0  0  0  0  0  0  0  0  0  0  0
  148.0958  141.9963  156.7735 H   0  0  0  0  0  0  0  0  0  0  0  0
  148.4666  140.3397  157.1736 H   0  0  0  0  0  0  0  0  0  0  0  0
  150.0891  140.1161  155.4208 H   0  0  0  0  0  0  0  0  0  0  0  0
  149.7113  141.0408  153.6135 H   0  0  0  0  0  0  0  0  0  0  0  0
  151.3442  142.4838  155.4241 H   0  0  0  0  0  0  0  0  0  0  0  0
  150.2327  142.8515  156.7224 H   0  0  0  0  0  0  0  0  0  0  0  0
  152.0215  139.5681  156.0067 H   0  0  0  0  0  0  0  0  0  0  0  0
  154.0135  139.9661  160.5051 H   0  0  0  0  0  0  0  0  0  0  0  0
  154.4271  142.8477  162.3932 H   0  0  0  0  0  0  0  0  0  0  0  0
  154.3717  141.0920  162.5361 H   0  0  0  0  0  0  0  0  0  0  0  0
  153.0053  142.0573  163.0910 H   0  0  0  0  0  0  0  0  0  0  0  0
  151.4021  144.8888  160.7816 H   0  0  0  0  0  0  0  0  0  0  0  0
  152.9714  144.6880  161.5572 H   0  0  0  0  0  0  0  0  0  0  0  0
  151.5378  143.9009  162.2351 H   0  0  0  0  0  0  0  0  0  0  0  0
  151.1043  143.6416  158.8023 H   0  0  0  0  0  0  0  0  0  0  0  0
  145.8694  137.7655  155.0508 H   0  0  0  0  0  0  0  0  0  0  0  0
  146.1893  138.9392  153.7858 H   0  0  0  0  0  0  0  0  0  0  0  0
  143.9482  138.7465  153.0892 H   0  0  0  0  0  0  0  0  0  0  0  0
  1  2  1  0  0  0  0
  1 26  1  0  0  0  0
  1 27  1  0  0  0  0
  1 28  1  0  0  0  0
  2  3  1  0  0  0  0
  2 29  1  0  0  0  0
  2 30  1  0  0  0  0
  3 25  1  0  0  0  0
  3  4  1  0  0  0  0
  3 56  1  0  0  0  0
  4  5  1  0  0  0  0
  4 31  1  0  0  0  0
  4 32  1  0  0  0  0
  5  6  1  0  0  0  0
  5 33  1  0  0  0  0
  5 34  1  0  0  0  0
  6  7  1  0  0  0  0
  7  8  1  0  0  0  0
  7 25  1  0  0  0  0
  7 35  1  0  0  0  0
  8  9  1  0  0  0  0
  8 36  1  0  0  0  0
  8 37  1  0  0  0  0
  9 10  1  0  0  0  0
  9 38  1  0  0  0  0
 10 11  1  0  0  0  0
 10 39  1  0  0  0  0
 10 40  1  0  0  0  0
 11 12  1  0  0  0  0
 11 13  1  0  0  0  0
 11 41  1  0  0  0  0
 12 42  1  0  0  0  0
 13 14  1  0  0  0  0
 13 43  1  0  0  0  0
 13 44  1  0  0  0  0
 14 24  1  0  0  0  0
 14 15  1  0  0  0  0
 15 16  2  0  0  0  0
 15 45  1  0  0  0  0
 16 17  1  0  0  0  0
 17 24  2  0  0  0  0
 17 18  1  0  0  0  0
 18 19  2  0  0  0  0
 18 46  1  0  0  0  0
 19 20  1  0  0  0  0
 19 21  1  0  0  0  0
 20 47  1  0  0  0  0
 20 48  1  0  0  0  0
 20 49  1  0  0  0  0
 21 22  1  0  0  0  0
 21 23  2  0  0  0  0
 22 50  1  0  0  0  0
 22 51  1  0  0  0  0
 22 52  1  0  0  0  0
 23 24  1  0  0  0  0
 23 53  1  0  0  0  0
 25 54  1  0  0  0  0
 25 55  1  0  0  0  0
M  CHG  1   3   1
M  END
> <s_m_source_file>
AV-unprocessed.smi

> <i_m_source_file_index>
1047

> <i_lp_mmshare_version>
43012

> <i_f3d_flags>
0

> <s_epik_input>
W0NIM11bQ0gyXU4xW0NIMl1bQ0gyXU9bQ0BIXShbQ0gyXTEpW0NIMl1bTkhdW0NIMl1bQ0BIXShbT0hdKVtDSDJdbihbY0hdbjIpYyhjMjMpW2NIXWMoW0NIM10pYyhbY0hdMylbQ0gzXQ==

> <s_epik_cmdline>
J2VwaWtfcHl0aG9uJywgJy1waCcsICc3LjAnLCAnLXRuJywgJzgnLCAnLW1hJywgJzIwMCcsICctbWV0YWxfYmluZGluZycsICctaW1hZScsICc8aW5maWxlLm1hZT4nLCAnLW9tYWUnLCAnPG91dGZpbGUubWFlPic=

> <r_epik_Ionization_Penalty>
1.19246

> <r_epik_Ionization_Penalty_Charging>
0.210041

> <r_epik_Ionization_Penalty_Neutral>
0.982415

> <r_epik_State_Penalty>
1.57595

> <r_epik_Charging_Adjusted_Penalty>
1.78599

> <i_epik_Tot_Q>
1

> <i_epik_Tot_abs_Q>
1

> <r_epik_Metal_State_Penalty>
1.46172

> <b_epik_Metal_Only>
0

> <s_lp_Force_Field>
OPLS_2005

> <r_lp_Energy>
33.3203

> <b_lp_Chiralities_Consistent>
1

> <s_lp_Variant>
AV-unprocessed.smi:1047-17

> <Gold.Version>
5.8.1

> <Gold.Id.Protein>
6NUR|6NUR_protein|mol2

> <Gold.PLP.Fitness>
48.0633

> <Gold.PLP.PLP>
-40.8021

> <Gold.PLP.part.hbond>
-4.0000

> <Gold.PLP.part.metal>
0.0000

> <Gold.PLP.part.buried>
-1.4493

> <Gold.PLP.part.nonpolar>
-34.4752

> <Gold.PLP.part.repulsive>
0.0541

> <Gold.PLP.ligand.clash>
0.0000

> <Gold.PLP.ligand.torsion>
0.8911

> <Gold.PLP.Chemscore.Hbond>
2.9760

> <Gold.PLP.Chemscore.CHOScore>
0.0000

> <Gold.PLP.Chemscore.Metal>
0.0000

> <Gold.Chemscore.Hbonds>
donor molecule, donor type, donor heavy atom, donor atom, acceptor molecule, acceptor atom, score
      L1  H     3    56       P1 10175  2.00
      P1  H  7997  8008       L1    16  0.93

> <Gold.PLP.Chemscore.Internal.Correction>
0.1153

> <Gold.Rescore>
     Score         DG    S(hbond)    S(metal)    S(lipo)     H(rot)  DE(clash)    DE(int)     intcor
     15.05     -16.41       1.22        0.00     116.06       2.62       0.47       0.90       ----

> <Gold.Chemscore.Fitness>
15.0499

> <Gold.Chemscore.DG>
-16.4150

> <Gold.Chemscore.ZeroCoef>
-5.4800

> <Gold.Chemscore.Hbond>
1.2171

> <Gold.Chemscore.Metal>
0.0000

> <Gold.Chemscore.Lipo>
116.0626

> <Gold.Chemscore.Internal_Hbond>
0.0000

> <Gold.Chemscore.DEClash>
0.4666

> <Gold.Chemscore.DEInternal>
0.8985

> <Gold.Chemscore.Rot>
2.6209

> <Gold.Chemscore.Internal.Correction>
   9.000000E+99

> <Gold.Chemscore.Hbonds>
donor molecule, donor type, donor heavy atom, donor atom, acceptor molecule, acceptor atom, score
      L1  H     3    56       P1 10175  1.00
      P1  H  7997  8008       L1    16  0.06

> <Gold.Chemscore.Hbond.Weighted>
-4.0653

> <Gold.Chemscore.Metal.Weighted>
-0.0000

> <Gold.Chemscore.Lipo.Weighted>
-13.5793

> <Gold.Chemscore.Internal_Hbond.Weighted>
0.0000

> <Gold.Chemscore.DEClash.Weighted>
0.4666

> <Gold.Chemscore.DEInternal.Weighted>
0.8985

> <Gold.Chemscore.Rot.Weighted>
6.7096

> <Gold.Chemscore.Internal.Correction.Weighted>
   9.000000E+99

> <Gold.Protein.RotatedTorsions>
[ 6907 6896 6895 6894 ] final  -51.53 input  -60.11 | X-H torsion
[ 7974 7965 7964 7962 ] final -118.98 input  175.53 | X-H torsion
[ 8008 7997 7996 7995 ] final  -96.45 input   59.86 | X-H torsion
[ 10167 10162 10161 10158 ] final -166.29 input  -65.29 | X-H torsion
[ 10718 10713 10712 10709 ] final -145.93 input   66.30 | X-H torsion
[ 10763 10752 10751 10750 ] final   33.95 input  -60.55 | X-H torsion
[ 11005 11000 10999 10996 ] final  150.56 input  -57.11 | X-H torsion

> <Gold.Protein.ActiveResidues>
 VAL166  LYS551  ARG553  GLY616  TRP617  ASP618  TYR619  PRO620  LYS621  CYS622 
 ASP623  PHE694  ASN695  SER759  ASP760  ASP761  ALA762  ILE779  LEU786  VAL792 
 PHE793  MET794  SER795  GLU796  ALA797  LYS798  CYS799  TRP800  GLU811  SER814 

> <Gold.Protein.RotatedAtoms>
  150.8603  134.7953  159.7077 H   0  0  0  0  0  0  0  0  0  0  0  0  # atno 6907 bound_to 6896
  152.4642  134.5111  159.9764 H   0  0  0  0  0  0  0  0  0  0  0  0  # atno 6908 bound_to 6896
  151.5216  133.3427  159.2938 H   0  0  0  0  0  0  0  0  0  0  0  0  # atno 6909 bound_to 6896
  145.0677  140.8336  143.4114 H   0  0  0  0  0  0  0  0  0  0  0  0  # atno 7974 bound_to 7965
  154.7746  140.0471  157.1079 H   0  0  0  0  0  0  0  0  0  0  0  0  # atno 8008 bound_to 7997
  154.9779  140.3097  155.4940 H   0  0  0  0  0  0  0  0  0  0  0  0  # atno 8009 bound_to 7997
  156.2927  140.2241  156.4876 H   0  0  0  0  0  0  0  0  0  0  0  0  # atno 8010 bound_to 7997
  139.6125  144.0786  152.1856 H   0  0  0  0  0  0  0  0  0  0  0  0  # atno 10167 bound_to 10162
  156.3886  130.7874  151.2074 H   0  0  0  0  0  0  0  0  0  0  0  0  # atno 10718 bound_to 10713
  153.0187  135.6373  154.1593 H   0  0  0  0  0  0  0  0  0  0  0  0  # atno 10763 bound_to 10752
  154.1329  135.2839  155.3182 H   0  0  0  0  0  0  0  0  0  0  0  0  # atno 10764 bound_to 10752
  154.6181  135.5534  153.7607 H   0  0  0  0  0  0  0  0  0  0  0  0  # atno 10765 bound_to 10752
  140.1142  134.8905  157.1980 H   0  0  0  0  0  0  0  0  0  0  0  0  # atno 11005 bound_to 11000
  145.1331  139.2619  143.5529 LP  0  0  0  0  0  0  0  0  0  0  0  0  # atno 17320 bound_to 7965
  146.3527  140.0988  142.8609 LP  0  0  0  0  0  0  0  0  0  0  0  0  # atno 17321 bound_to 7965
  140.0408  144.6009  150.7412 LP  0  0  0  0  0  0  0  0  0  0  0  0  # atno 17342 bound_to 10162
  140.7329  143.2710  151.3887 LP  0  0  0  0  0  0  0  0  0  0  0  0  # atno 17343 bound_to 10162
  157.7497  131.0322  150.4217 LP  0  0  0  0  0  0  0  0  0  0  0  0  # atno 17370 bound_to 10713
  156.4474  130.4004  149.6658 LP  0  0  0  0  0  0  0  0  0  0  0  0  # atno 17371 bound_to 10713
  140.3051  134.3088  155.7280 LP  0  0  0  0  0  0  0  0  0  0  0  0  # atno 17394 bound_to 11000
  141.2137  133.7615  156.9696 LP  0  0  0  0  0  0  0  0  0  0  0  0  # atno 17395 bound_to 11000

$$$$
