AV-unprocessed.smi:1194|AV-procd|sdf|4991|dock7
  -GOLD-   22720 3593D 1   1.00000     0.00000
 Structure written by MMmdl.
 47 48  0  0  0  0  0  0  0  0  1 V2000
  152.5519  143.6664  161.6189 C   0  0  0  0  0  0  0  0  0  0  0  0
  152.7265  142.2452  161.0723 C   0  0  0  0  0  0  0  0  0  0  0  0
  152.5586  142.1794  159.5419 C   0  0  0  0  0  0  0  0  0  0  0  0
  152.7266  140.7669  158.9512 C   0  0  0  0  0  0  0  0  0  0  0  0
  153.8222  140.2130  159.0566 O   0  0  0  0  0  0  0  0  0  0  0  0
  151.6662  140.1666  158.3480 N   0  0  0  0  0  0  0  0  0  0  0  0
  150.3556  140.8177  158.1402 C   0  0  0  0  0  0  0  0  0  0  0  0
  150.1145  141.0260  156.6350 C   0  0  0  0  0  0  0  0  0  0  0  0
  150.2388  139.7003  155.8655 C   0  0  0  0  0  0  0  0  0  0  0  0
  151.5736  139.0063  156.1900 C   0  0  0  0  0  0  0  0  0  0  0  0
  151.7845  138.8307  157.7144 C   0  0  2  0  0  0  0  0  0  0  0  0
  150.8939  137.7480  158.3624 C   0  0  0  0  0  0  0  0  0  0  0  0
  151.3977  136.8520  159.0400 O   0  0  0  0  0  0  0  0  0  0  0  0
  149.5705  137.8409  158.1584 N   0  0  0  0  0  0  0  0  0  0  0  0
  148.5852  136.9101  158.6876 C   0  0  0  0  0  0  0  0  0  0  0  0
  147.7231  137.5920  159.7574 C   0  0  0  0  0  0  0  0  0  0  0  0
  147.2668  136.6190  160.8262 C   0  0  0  0  0  0  0  0  0  0  0  0
  147.3624  136.9505  162.1933 C   0  0  0  0  0  0  0  0  0  0  0  0
  146.9319  136.0117  163.1504 C   0  0  0  0  0  0  0  0  0  0  0  0
  146.4229  134.7781  162.6977 C   0  0  0  0  0  0  0  0  0  0  0  0
  146.3273  134.4497  161.3911 N   0  0  0  0  0  0  0  0  0  0  0  0
  146.7427  135.3555  160.4798 C   0  0  0  0  0  0  0  0  0  0  0  0
  152.6829  143.6848  162.7009 H   0  0  0  0  0  0  0  0  0  0  0  0
  151.5569  144.0537  161.3978 H   0  0  0  0  0  0  0  0  0  0  0  0
  153.2825  144.3488  161.1838 H   0  0  0  0  0  0  0  0  0  0  0  0
  153.7137  141.8763  161.3542 H   0  0  0  0  0  0  0  0  0  0  0  0
  152.0000  141.5898  161.5551 H   0  0  0  0  0  0  0  0  0  0  0  0
  151.5668  142.5511  159.2815 H   0  0  0  0  0  0  0  0  0  0  0  0
  153.2898  142.8425  159.0776 H   0  0  0  0  0  0  0  0  0  0  0  0
  149.5649  140.1898  158.5510 H   0  0  0  0  0  0  0  0  0  0  0  0
  150.2418  141.7711  158.6513 H   0  0  0  0  0  0  0  0  0  0  0  0
  149.1289  141.4617  156.4696 H   0  0  0  0  0  0  0  0  0  0  0  0
  150.8395  141.7427  156.2469 H   0  0  0  0  0  0  0  0  0  0  0  0
  149.4073  139.0454  156.1285 H   0  0  0  0  0  0  0  0  0  0  0  0
  150.1611  139.8803  154.7931 H   0  0  0  0  0  0  0  0  0  0  0  0
  151.6297  138.0464  155.6753 H   0  0  0  0  0  0  0  0  0  0  0  0
  152.3913  139.6048  155.7861 H   0  0  0  0  0  0  0  0  0  0  0  0
  152.7922  138.4296  157.8270 H   0  0  0  0  0  0  0  0  0  0  0  0
  149.2266  138.6078  157.5986 H   0  0  0  0  0  0  0  0  0  0  0  0
  147.9576  136.5491  157.8714 H   0  0  0  0  0  0  0  0  0  0  0  0
  149.0945  136.0441  159.1137 H   0  0  0  0  0  0  0  0  0  0  0  0
  148.2835  138.3995  160.2309 H   0  0  0  0  0  0  0  0  0  0  0  0
  146.8478  138.0526  159.2973 H   0  0  0  0  0  0  0  0  0  0  0  0
  147.7604  137.9053  162.5041 H   0  0  0  0  0  0  0  0  0  0  0  0
  146.9911  136.2312  164.2061 H   0  0  0  0  0  0  0  0  0  0  0  0
  146.0839  134.0352  163.4044 H   0  0  0  0  0  0  0  0  0  0  0  0
  146.6556  135.0618  159.4441 H   0  0  0  0  0  0  0  0  0  0  0  0
  1  2  1  0  0  0  0
  1 23  1  0  0  0  0
  1 24  1  0  0  0  0
  1 25  1  0  0  0  0
  2  3  1  0  0  0  0
  2 26  1  0  0  0  0
  2 27  1  0  0  0  0
  3  4  1  0  0  0  0
  3 28  1  0  0  0  0
  3 29  1  0  0  0  0
  4  5  2  0  0  0  0
  4  6  1  0  0  0  0
  6 11  1  0  0  0  0
  6  7  1  0  0  0  0
  7  8  1  0  0  0  0
  7 30  1  0  0  0  0
  7 31  1  0  0  0  0
  8  9  1  0  0  0  0
  8 32  1  0  0  0  0
  8 33  1  0  0  0  0
  9 10  1  0  0  0  0
  9 34  1  0  0  0  0
  9 35  1  0  0  0  0
 10 11  1  0  0  0  0
 10 36  1  0  0  0  0
 10 37  1  0  0  0  0
 11 12  1  0  0  0  0
 11 38  1  0  0  0  0
 12 13  2  0  0  0  0
 12 14  1  0  0  0  0
 14 15  1  0  0  0  0
 14 39  1  0  0  0  0
 15 16  1  0  0  0  0
 15 40  1  0  0  0  0
 15 41  1  0  0  0  0
 16 17  1  0  0  0  0
 16 42  1  0  0  0  0
 16 43  1  0  0  0  0
 17 22  1  0  0  0  0
 17 18  2  0  0  0  0
 18 19  1  0  0  0  0
 18 44  1  0  0  0  0
 19 20  2  0  0  0  0
 19 45  1  0  0  0  0
 20 21  1  0  0  0  0
 20 46  1  0  0  0  0
 21 22  2  0  0  0  0
 22 47  1  0  0  0  0
M  END
> <s_m_source_file>
AV-unprocessed.smi

> <i_m_source_file_index>
1194

> <i_lp_mmshare_version>
43012

> <i_f3d_flags>
0

> <s_epik_input>
W0NIM11bQ0gyXVtDSDJdQyg9TylOMVtDSDJdW0NIMl1bQ0gyXVtDSDJdW0NASF0xQyg9TylbTkhdW0NIMl1bQ0gyXWMyW2NIXVtjSF1bY0hdbltjSF0y

> <s_epik_cmdline>
J2VwaWtfcHl0aG9uJywgJy1waCcsICc3LjAnLCAnLXRuJywgJzgnLCAnLW1hJywgJzIwMCcsICctbWV0YWxfYmluZGluZycsICctaW1hZScsICc8aW5maWxlLm1hZT4nLCAnLW9tYWUnLCAnPG91dGZpbGUubWFlPic=

> <r_epik_Ionization_Penalty>
0.0130932

> <r_epik_Ionization_Penalty_Charging>
0

> <r_epik_Ionization_Penalty_Neutral>
0.0130932

> <r_epik_State_Penalty>
0.0101714

> <r_epik_Charging_Adjusted_Penalty>
0.0101714

> <i_epik_Tot_Q>
0

> <i_epik_Tot_abs_Q>
0

> <r_epik_Metal_State_Penalty>
0.00995056

> <b_epik_Metal_Only>
0

> <s_lp_Force_Field>
OPLS_2005

> <r_lp_Energy>
25.0478

> <b_lp_Chiralities_Consistent>
1

> <s_lp_Variant>
AV-unprocessed.smi:1194-2

> <Gold.Version>
5.8.1

> <Gold.Id.Protein>
6NUR|6NUR_protein|mol2

> <Gold.PLP.Fitness>
49.5965

> <Gold.PLP.PLP>
-45.4789

> <Gold.PLP.part.hbond>
-2.0000

> <Gold.PLP.part.metal>
0.0000

> <Gold.PLP.part.buried>
-3.9781

> <Gold.PLP.part.nonpolar>
-39.1299

> <Gold.PLP.part.repulsive>
0.0904

> <Gold.PLP.ligand.clash>
0.0000

> <Gold.PLP.ligand.torsion>
0.5870

> <Gold.PLP.Chemscore.Hbond>
1.7390

> <Gold.PLP.Chemscore.CHOScore>
0.0000

> <Gold.PLP.Chemscore.Metal>
0.0000

> <Gold.Chemscore.Hbonds>
donor molecule, donor type, donor heavy atom, donor atom, acceptor molecule, acceptor atom, score
      P1  H  6896  6907       L1    13  1.00
      P1  H  7997  8009       L1     5  0.73

> <Gold.PLP.Chemscore.Internal.Correction>
0.0745

> <Gold.Rescore>
     Score         DG    S(hbond)    S(metal)    S(lipo)     H(rot)  DE(clash)    DE(int)     intcor
     17.33     -19.06       1.66        0.00     105.52       1.68       0.07       1.66       ----

> <Gold.Chemscore.Fitness>
17.3321

> <Gold.Chemscore.DG>
-19.0602

> <Gold.Chemscore.ZeroCoef>
-5.4800

> <Gold.Chemscore.Hbond>
1.6592

> <Gold.Chemscore.Metal>
0.0000

> <Gold.Chemscore.Lipo>
105.5150

> <Gold.Chemscore.Internal_Hbond>
0.0000

> <Gold.Chemscore.DEClash>
0.0673

> <Gold.Chemscore.DEInternal>
1.6608

> <Gold.Chemscore.Rot>
1.6823

> <Gold.Chemscore.Internal.Correction>
   9.000000E+99

> <Gold.Chemscore.Hbonds>
donor molecule, donor type, donor heavy atom, donor atom, acceptor molecule, acceptor atom, score
      P1  H  6896  6907       L1    13  0.95
      P1  H  7997  8009       L1     5  0.66

> <Gold.Chemscore.Hbond.Weighted>
-5.5417

> <Gold.Chemscore.Metal.Weighted>
-0.0000

> <Gold.Chemscore.Lipo.Weighted>
-12.3453

> <Gold.Chemscore.Internal_Hbond.Weighted>
0.0000

> <Gold.Chemscore.DEClash.Weighted>
0.0673

> <Gold.Chemscore.DEInternal.Weighted>
1.6608

> <Gold.Chemscore.Rot.Weighted>
4.3068

> <Gold.Chemscore.Internal.Correction.Weighted>
   9.000000E+99

> <Gold.Protein.RotatedTorsions>
[ 6907 6896 6895 6894 ] final   -4.17 input  -60.11 | X-H torsion
[ 7974 7965 7964 7962 ] final  -70.77 input  175.53 | X-H torsion
[ 8008 7997 7996 7995 ] final  128.18 input   59.86 | X-H torsion
[ 10167 10162 10161 10158 ] final   36.89 input  -65.29 | X-H torsion
[ 10718 10713 10712 10709 ] final  116.86 input   66.30 | X-H torsion
[ 10763 10752 10751 10750 ] final   35.53 input  -60.55 | X-H torsion
[ 11005 11000 10999 10996 ] final  -85.57 input  -57.11 | X-H torsion

> <Gold.Protein.ActiveResidues>
 VAL166  LYS551  ARG553  GLY616  TRP617  ASP618  TYR619  PRO620  LYS621  CYS622 
 ASP623  PHE694  ASN695  SER759  ASP760  ASP761  ALA762  ILE779  LEU786  VAL792 
 PHE793  MET794  SER795  GLU796  ALA797  LYS798  CYS799  TRP800  GLU811  SER814 

> <Gold.Protein.RotatedAtoms>
  151.5020  135.1062  159.9831 H   0  0  0  0  0  0  0  0  0  0  0  0  # atno 6907 bound_to 6896
  152.4698  133.7999  159.6958 H   0  0  0  0  0  0  0  0  0  0  0  0  # atno 6908 bound_to 6896
  150.8700  133.7455  159.2990 H   0  0  0  0  0  0  0  0  0  0  0  0  # atno 6909 bound_to 6896
  145.6867  140.9168  143.0803 H   0  0  0  0  0  0  0  0  0  0  0  0  # atno 7974 bound_to 7965
  156.2909  140.2651  156.2393 H   0  0  0  0  0  0  0  0  0  0  0  0  # atno 8008 bound_to 7997
  154.9993  140.0388  157.2371 H   0  0  0  0  0  0  0  0  0  0  0  0  # atno 8009 bound_to 7997
  154.7616  140.2761  155.6215 H   0  0  0  0  0  0  0  0  0  0  0  0  # atno 8010 bound_to 7997
  140.4084  144.1626  150.6138 H   0  0  0  0  0  0  0  0  0  0  0  0  # atno 10167 bound_to 10162
  157.6134  131.1030  150.7532 H   0  0  0  0  0  0  0  0  0  0  0  0  # atno 10718 bound_to 10713
  153.0115  135.6331  154.1841 H   0  0  0  0  0  0  0  0  0  0  0  0  # atno 10763 bound_to 10752
  154.1583  135.2825  155.3118 H   0  0  0  0  0  0  0  0  0  0  0  0  # atno 10764 bound_to 10752
  154.6001  135.5590  153.7426 H   0  0  0  0  0  0  0  0  0  0  0  0  # atno 10765 bound_to 10752
  141.1640  133.7406  156.9034 H   0  0  0  0  0  0  0  0  0  0  0  0  # atno 11005 bound_to 11000
  144.7009  139.8768  143.7444 LP  0  0  0  0  0  0  0  0  0  0  0  0  # atno 17320 bound_to 7965
  146.0917  139.3907  143.0401 LP  0  0  0  0  0  0  0  0  0  0  0  0  # atno 17321 bound_to 7965
  140.4664  143.2429  151.9149 LP  0  0  0  0  0  0  0  0  0  0  0  0  # atno 17342 bound_to 10162
  139.4783  144.5415  151.8521 LP  0  0  0  0  0  0  0  0  0  0  0  0  # atno 17343 bound_to 10162
  156.7905  130.4888  149.5385 LP  0  0  0  0  0  0  0  0  0  0  0  0  # atno 17370 bound_to 10713
  156.1245  130.6134  151.0243 LP  0  0  0  0  0  0  0  0  0  0  0  0  # atno 17371 bound_to 10713
  140.1567  134.9194  157.2662 LP  0  0  0  0  0  0  0  0  0  0  0  0  # atno 17394 bound_to 11000
  140.2659  134.3516  155.7390 LP  0  0  0  0  0  0  0  0  0  0  0  0  # atno 17395 bound_to 11000

$$$$
