AV-unprocessed.smi:2822|AV-procd|sdf|10865|dock4
  -GOLD-   2272015313D 1   1.00000     0.00000
 Structure written by MMmdl.
 41 43  0  0  0  0  0  0  0  0  3 V2000
  149.5933  138.0690  154.3832 Cl  0  0  0  0  0  0  0  0  0  0  0  0
  148.6327  139.4534  153.9949 C   0  0  0  0  0  0  0  0  0  0  0  0
  149.0802  140.7333  154.3823 C   0  0  0  0  0  0  0  0  0  0  0  0
  148.3426  141.8248  154.0875 N   0  3  0  0  0  0  0  0  0  0  0  0
  147.1696  141.7542  153.4238 C   0  0  0  0  0  0  0  0  0  0  0  0
  146.6703  140.5030  153.0088 C   0  0  0  0  0  0  0  0  0  0  0  0
  147.4075  139.3262  153.2946 C   0  0  0  0  0  0  0  0  0  0  0  0
  146.9635  138.0506  152.9120 N   0  0  0  0  0  0  0  0  0  0  0  0
  145.5427  137.7533  152.8066 C   0  0  0  0  0  0  0  0  0  0  0  0
  145.2982  136.3227  152.3045 C   0  0  1  0  0  0  0  0  0  0  0  0
  145.6922  136.1718  150.8181 C   0  0  0  0  0  0  0  0  0  0  0  0
  145.5750  134.7658  150.3614 N   0  3  2  0  0  0  0  0  0  0  0  0
  144.1721  134.3438  150.0980 C   0  0  0  0  0  0  0  0  0  0  0  0
  144.1103  132.9049  149.5654 C   0  0  0  0  0  0  0  0  0  0  0  0
  144.7882  131.9372  150.5415 C   0  0  0  0  0  0  0  0  0  0  0  0
  146.2337  132.3842  150.7977 C   0  0  0  0  0  0  0  0  0  0  0  0
  146.3250  133.8518  151.2669 C   0  0  2  0  0  0  0  0  0  0  0  0
  145.8995  134.0685  152.7345 C   0  0  0  0  0  0  0  0  0  0  0  0
  146.0957  135.4345  153.0828 O   0  0  0  0  0  0  0  0  0  0  0  0
  150.0011  140.9151  154.9169 H   0  0  0  0  0  0  0  0  0  0  0  0
  146.6679  142.6945  153.2463 H   0  0  0  0  0  0  0  0  0  0  0  0
  145.7290  140.4674  152.4811 H   0  0  0  0  0  0  0  0  0  0  0  0
  147.6193  137.4190  152.4734 H   0  0  0  0  0  0  0  0  0  0  0  0
  145.0932  137.8694  153.7935 H   0  0  0  0  0  0  0  0  0  0  0  0
  145.0616  138.4722  152.1421 H   0  0  0  0  0  0  0  0  0  0  0  0
  144.2427  136.0804  152.4377 H   0  0  0  0  0  0  0  0  0  0  0  0
  145.0858  136.8228  150.1870 H   0  0  0  0  0  0  0  0  0  0  0  0
  146.7273  136.4879  150.6815 H   0  0  0  0  0  0  0  0  0  0  0  0
  143.5711  134.4220  151.0037 H   0  0  0  0  0  0  0  0  0  0  0  0
  143.7245  135.0190  149.3680 H   0  0  0  0  0  0  0  0  0  0  0  0
  143.0723  132.6097  149.4090 H   0  0  0  0  0  0  0  0  0  0  0  0
  144.5982  132.8499  148.5911 H   0  0  0  0  0  0  0  0  0  0  0  0
  144.2328  131.9023  151.4792 H   0  0  0  0  0  0  0  0  0  0  0  0
  144.7755  130.9254  150.1355 H   0  0  0  0  0  0  0  0  0  0  0  0
  146.7082  131.7241  151.5247 H   0  0  0  0  0  0  0  0  0  0  0  0
  146.8026  132.2725  149.8735 H   0  0  0  0  0  0  0  0  0  0  0  0
  147.3759  134.1380  151.2000 H   0  0  0  0  0  0  0  0  0  0  0  0
  144.8610  133.7824  152.9063 H   0  0  0  0  0  0  0  0  0  0  0  0
  146.5089  133.4532  153.3968 H   0  0  0  0  0  0  0  0  0  0  0  0
  146.0388  134.7185  149.4653 H   0  0  0  0  0  0  0  0  0  0  0  0
  148.6856  142.7408  154.3790 H   0  0  0  0  0  0  0  0  0  0  0  0
  1  2  1  0  0  0  0
  2  7  1  0  0  0  0
  2  3  2  0  0  0  0
  3  4  1  0  0  0  0
  3 20  1  0  0  0  0
  4  5  2  0  0  0  0
  4 41  1  0  0  0  0
  5  6  1  0  0  0  0
  5 21  1  0  0  0  0
  6  7  2  0  0  0  0
  6 22  1  0  0  0  0
  7  8  1  0  0  0  0
  8  9  1  0  0  0  0
  8 23  1  0  0  0  0
  9 10  1  0  0  0  0
  9 24  1  0  0  0  0
  9 25  1  0  0  0  0
 10 19  1  0  0  0  0
 10 11  1  0  0  0  0
 10 26  1  0  0  0  0
 11 12  1  0  0  0  0
 11 27  1  0  0  0  0
 11 28  1  0  0  0  0
 12 17  1  0  0  0  0
 12 13  1  0  0  0  0
 12 40  1  0  0  0  0
 13 14  1  0  0  0  0
 13 29  1  0  0  0  0
 13 30  1  0  0  0  0
 14 15  1  0  0  0  0
 14 31  1  0  0  0  0
 14 32  1  0  0  0  0
 15 16  1  0  0  0  0
 15 33  1  0  0  0  0
 15 34  1  0  0  0  0
 16 17  1  0  0  0  0
 16 35  1  0  0  0  0
 16 36  1  0  0  0  0
 17 18  1  0  0  0  0
 17 37  1  0  0  0  0
 18 19  1  0  0  0  0
 18 38  1  0  0  0  0
 18 39  1  0  0  0  0
M  CHG  1   4   1
M  CHG  1  12   1
M  END
> <s_m_source_file>
AV-unprocessed.smi

> <i_m_source_file_index>
2822

> <i_lp_mmshare_version>
43012

> <i_f3d_flags>
0

> <s_epik_input>
Q2xjMVtjSF1uW2NIXVtjSF1jMVtOSF1bQ0gyXVtDQEhdKFtDSDJdMilPW0NIMl1bQ0BASF0oTjIzKVtDSDJdW0NIMl1bQ0gyXVtDSDJdMw==

> <s_epik_cmdline>
J2VwaWtfcHl0aG9uJywgJy1waCcsICc3LjAnLCAnLXRuJywgJzgnLCAnLW1hJywgJzIwMCcsICctbWV0YWxfYmluZGluZycsICctaW1hZScsICc8aW5maWxlLm1hZT4nLCAnLW9tYWUnLCAnPG91dGZpbGUubWFlPic=

> <r_lp_tautomer_probability>
1

> <r_epik_Ionization_Penalty>
0.254999

> <r_epik_Ionization_Penalty_Charging>
0.254956

> <r_epik_Ionization_Penalty_Neutral>
4.33524e-05

> <r_epik_State_Penalty>
0.230978

> <r_epik_Charging_Adjusted_Penalty>
0.485934

> <i_epik_Tot_Q>
2

> <i_epik_Tot_abs_Q>
2

> <r_epik_Metal_State_Penalty>
3.47007

> <b_epik_Metal_Only>
0

> <s_lp_Force_Field>
OPLS_2005

> <r_lp_Energy>
40.6185

> <b_lp_Chiralities_Consistent>
1

> <s_lp_Variant>
AV-unprocessed.smi:2822-6

> <Gold.Version>
5.8.1

> <Gold.Id.Protein>
6NUR|6NUR_protein|mol2

> <Gold.PLP.Fitness>
45.5655

> <Gold.PLP.PLP>
-34.0557

> <Gold.PLP.part.hbond>
-3.0000

> <Gold.PLP.part.metal>
0.0000

> <Gold.PLP.part.buried>
-1.8916

> <Gold.PLP.part.nonpolar>
-31.2799

> <Gold.PLP.part.repulsive>
1.9447

> <Gold.PLP.ligand.clash>
0.0000

> <Gold.PLP.ligand.torsion>
0.2453

> <Gold.PLP.Chemscore.Hbond>
4.0000

> <Gold.PLP.Chemscore.CHOScore>
0.0000

> <Gold.PLP.Chemscore.Metal>
0.0000

> <Gold.Chemscore.Hbonds>
donor molecule, donor type, donor heavy atom, donor atom, acceptor molecule, acceptor atom, score
      L1  H     4    41       P1  8028  0.46
      L1  H     8    23       P1  7948  1.00
      L1  H    12    40       P1  7921  1.00

> <Gold.PLP.Chemscore.Internal.Correction>
0.0003

> <Gold.Rescore>
     Score         DG    S(hbond)    S(metal)    S(lipo)     H(rot)  DE(clash)    DE(int)     intcor
     22.91     -23.46       2.71        0.00     102.49       1.20       0.34       0.21       ----

> <Gold.Chemscore.Fitness>
22.9057

> <Gold.Chemscore.DG>
-23.4600

> <Gold.Chemscore.ZeroCoef>
-5.4800

> <Gold.Chemscore.Hbond>
2.7097

> <Gold.Chemscore.Metal>
0.0000

> <Gold.Chemscore.Lipo>
102.4947

> <Gold.Chemscore.Internal_Hbond>
0.0000

> <Gold.Chemscore.DEClash>
0.3397

> <Gold.Chemscore.DEInternal>
0.2146

> <Gold.Chemscore.Rot>
1.1962

> <Gold.Chemscore.Internal.Correction>
   9.000000E+99

> <Gold.Chemscore.Hbonds>
donor molecule, donor type, donor heavy atom, donor atom, acceptor molecule, acceptor atom, score
      L1  H     4    41       P1  8028  0.23
      L1  H     8    23       P1  7948  1.00
      L1  H    12    40       P1  7921  0.59

> <Gold.Chemscore.Hbond.Weighted>
-9.0505

> <Gold.Chemscore.Metal.Weighted>
-0.0000

> <Gold.Chemscore.Lipo.Weighted>
-11.9919

> <Gold.Chemscore.Internal_Hbond.Weighted>
0.0000

> <Gold.Chemscore.DEClash.Weighted>
0.3397

> <Gold.Chemscore.DEInternal.Weighted>
0.2146

> <Gold.Chemscore.Rot.Weighted>
3.0623

> <Gold.Chemscore.Internal.Correction.Weighted>
   9.000000E+99

> <Gold.Protein.RotatedTorsions>
[ 6907 6896 6895 6894 ] final  -31.41 input  -60.11 | X-H torsion
[ 7974 7965 7964 7962 ] final -153.13 input  175.53 | X-H torsion
[ 8008 7997 7996 7995 ] final  -58.98 input   59.86 | X-H torsion
[ 10167 10162 10161 10158 ] final -149.65 input  -65.29 | X-H torsion
[ 10718 10713 10712 10709 ] final  150.66 input   66.30 | X-H torsion
[ 10763 10752 10751 10750 ] final  137.81 input  -60.55 | X-H torsion
[ 11005 11000 10999 10996 ] final -129.75 input  -57.11 | X-H torsion

> <Gold.Protein.ActiveResidues>
 VAL166  LYS551  ARG553  GLY616  TRP617  ASP618  TYR619  PRO620  LYS621  CYS622 
 ASP623  PHE694  ASN695  SER759  ASP760  ASP761  ALA762  ILE779  LEU786  VAL792 
 PHE793  MET794  SER795  GLU796  ALA797  LYS798  CYS799  TRP800  GLU811  SER814 

> <Gold.Protein.RotatedAtoms>
  151.0924  134.9924  159.8408 H   0  0  0  0  0  0  0  0  0  0  0  0  # atno 6907 bound_to 6896
  152.5430  134.2049  159.8737 H   0  0  0  0  0  0  0  0  0  0  0  0  # atno 6908 bound_to 6896
  151.2086  133.4525  159.2631 H   0  0  0  0  0  0  0  0  0  0  0  0  # atno 6909 bound_to 6896
  144.7757  140.4567  143.5875 H   0  0  0  0  0  0  0  0  0  0  0  0  # atno 7974 bound_to 7965
  154.4332  140.1072  156.6043 H   0  0  0  0  0  0  0  0  0  0  0  0  # atno 8008 bound_to 7997
  155.5877  140.3491  155.4539 H   0  0  0  0  0  0  0  0  0  0  0  0  # atno 8009 bound_to 7997
  156.0270  140.1252  157.0287 H   0  0  0  0  0  0  0  0  0  0  0  0  # atno 8010 bound_to 7997
  139.7423  143.8643  152.2565 H   0  0  0  0  0  0  0  0  0  0  0  0  # atno 10167 bound_to 10162
  157.2806  131.0834  151.1534 H   0  0  0  0  0  0  0  0  0  0  0  0  # atno 10718 bound_to 10713
  153.8792  135.3046  155.3445 H   0  0  0  0  0  0  0  0  0  0  0  0  # atno 10763 bound_to 10752
  154.7769  135.4856  153.9766 H   0  0  0  0  0  0  0  0  0  0  0  0  # atno 10764 bound_to 10752
  153.1361  135.6814  153.9197 H   0  0  0  0  0  0  0  0  0  0  0  0  # atno 10765 bound_to 10752
  140.9405  134.1199  157.4155 H   0  0  0  0  0  0  0  0  0  0  0  0  # atno 11005 bound_to 11000
  145.6194  139.1522  143.3031 LP  0  0  0  0  0  0  0  0  0  0  0  0  # atno 17320 bound_to 7965
  146.1934  140.6305  142.9135 LP  0  0  0  0  0  0  0  0  0  0  0  0  # atno 17321 bound_to 7965
  139.8597  144.7123  150.9114 LP  0  0  0  0  0  0  0  0  0  0  0  0  # atno 17342 bound_to 10162
  140.7787  143.3828  151.1446 LP  0  0  0  0  0  0  0  0  0  0  0  0  # atno 17343 bound_to 10162
  157.2970  130.6824  149.6144 LP  0  0  0  0  0  0  0  0  0  0  0  0  # atno 17370 bound_to 10713
  155.9664  130.4403  150.5296 LP  0  0  0  0  0  0  0  0  0  0  0  0  # atno 17371 bound_to 10713
  139.8819  135.0035  156.6190 LP  0  0  0  0  0  0  0  0  0  0  0  0  # atno 17394 bound_to 11000
  140.7740  133.8714  155.8514 LP  0  0  0  0  0  0  0  0  0  0  0  0  # atno 17395 bound_to 11000

$$$$
