AV-unprocessed.smi:1714|AV-procd|sdf|6908|dock4
  -GOLD-   22720 8113D 1   1.00000     0.00000
 Structure written by MMmdl.
 46 47  0  0  0  0  0  0  0  0  2 V2000
  147.6225  133.1929  152.3099 C   0  0  0  0  0  0  0  0  0  0  0  0
  146.1962  133.2248  151.7848 C   0  0  0  0  0  0  0  0  0  0  0  0
  145.4923  132.0121  151.6254 C   0  0  0  0  0  0  0  0  0  0  0  0
  144.1736  132.0431  151.1411 C   0  0  0  0  0  0  0  0  0  0  0  0
  143.6104  133.2938  150.8352 C   0  0  0  0  0  0  0  0  0  0  0  0
  144.2752  134.4573  150.9858 N   0  0  0  0  0  0  0  0  0  0  0  0
  145.5488  134.4452  151.4533 C   0  0  0  0  0  0  0  0  0  0  0  0
  146.3094  135.6341  151.6391 N   0  0  0  0  0  0  0  0  0  0  0  0
  145.8747  136.8608  151.9768 C   0  0  0  0  0  0  0  0  0  0  0  0
  144.7013  137.1713  152.1836 O   0  0  0  0  0  0  0  0  0  0  0  0
  146.8938  137.7290  152.0623 N   0  0  0  0  0  0  0  0  0  0  0  0
  146.7808  139.1404  152.4325 C   0  0  0  0  0  0  0  0  0  0  0  0
  146.8179  139.4071  153.9694 C   0  0  0  0  0  0  0  0  0  0  0  0
  146.0946  138.2252  154.6681 C   0  0  0  0  0  0  0  0  0  0  0  0
  148.2758  139.4422  154.4909 C   0  0  0  0  0  0  0  0  0  0  0  0
  146.1126  140.7144  154.2436 N   0  3  0  0  0  0  0  0  0  0  0  0
  145.6386  140.9306  155.6415 C   0  0  0  0  0  0  0  0  0  0  0  0
  144.8124  142.2251  155.7480 C   0  0  0  0  0  0  0  0  0  0  0  0
  145.5719  143.3319  155.2856 O   0  0  0  0  0  0  0  0  0  0  0  0
  145.9372  143.1796  153.9221 C   0  0  0  0  0  0  0  0  0  0  0  0
  146.8278  141.9365  153.7738 C   0  0  0  0  0  0  0  0  0  0  0  0
  147.9657  132.1698  152.4660 H   0  0  0  0  0  0  0  0  0  0  0  0
  147.6886  133.7182  153.2629 H   0  0  0  0  0  0  0  0  0  0  0  0
  148.3024  133.6684  151.6025 H   0  0  0  0  0  0  0  0  0  0  0  0
  145.9543  131.0671  151.8710 H   0  0  0  0  0  0  0  0  0  0  0  0
  143.6089  131.1325  151.0078 H   0  0  0  0  0  0  0  0  0  0  0  0
  142.5999  133.3630  150.4605 H   0  0  0  0  0  0  0  0  0  0  0  0
  147.3047  135.5323  151.5073 H   0  0  0  0  0  0  0  0  0  0  0  0
  147.8235  137.3847  151.8715 H   0  0  0  0  0  0  0  0  0  0  0  0
  147.5542  139.6965  151.9050 H   0  0  0  0  0  0  0  0  0  0  0  0
  145.8359  139.5028  152.0256 H   0  0  0  0  0  0  0  0  0  0  0  0
  146.5257  137.2617  154.3961 H   0  0  0  0  0  0  0  0  0  0  0  0
  145.0369  138.1916  154.4045 H   0  0  0  0  0  0  0  0  0  0  0  0
  146.1728  138.2785  155.7541 H   0  0  0  0  0  0  0  0  0  0  0  0
  148.7493  138.4629  154.4177 H   0  0  0  0  0  0  0  0  0  0  0  0
  148.3229  139.7348  155.5398 H   0  0  0  0  0  0  0  0  0  0  0  0
  148.8982  140.1341  153.9230 H   0  0  0  0  0  0  0  0  0  0  0  0
  144.9947  140.1201  155.9781 H   0  0  0  0  0  0  0  0  0  0  0  0
  146.4901  140.9749  156.3215 H   0  0  0  0  0  0  0  0  0  0  0  0
  143.8866  142.1429  155.1758 H   0  0  0  0  0  0  0  0  0  0  0  0
  144.5281  142.4030  156.7851 H   0  0  0  0  0  0  0  0  0  0  0  0
  145.0480  143.1037  153.2940 H   0  0  0  0  0  0  0  0  0  0  0  0
  146.4785  144.0703  153.6023 H   0  0  0  0  0  0  0  0  0  0  0  0
  147.7377  142.0867  154.3556 H   0  0  0  0  0  0  0  0  0  0  0  0
  147.1283  141.8553  152.7317 H   0  0  0  0  0  0  0  0  0  0  0  0
  145.2678  140.6664  153.6922 H   0  0  0  0  0  0  0  0  0  0  0  0
  1  2  1  0  0  0  0
  1 22  1  0  0  0  0
  1 23  1  0  0  0  0
  1 24  1  0  0  0  0
  2  7  1  0  0  0  0
  2  3  2  0  0  0  0
  3  4  1  0  0  0  0
  3 25  1  0  0  0  0
  4  5  2  0  0  0  0
  4 26  1  0  0  0  0
  5  6  1  0  0  0  0
  5 27  1  0  0  0  0
  6  7  2  0  0  0  0
  7  8  1  0  0  0  0
  8  9  1  0  0  0  0
  8 28  1  0  0  0  0
  9 10  2  0  0  0  0
  9 11  1  0  0  0  0
 11 12  1  0  0  0  0
 11 29  1  0  0  0  0
 12 13  1  0  0  0  0
 12 30  1  0  0  0  0
 12 31  1  0  0  0  0
 13 14  1  0  0  0  0
 13 15  1  0  0  0  0
 13 16  1  0  0  0  0
 14 32  1  0  0  0  0
 14 33  1  0  0  0  0
 14 34  1  0  0  0  0
 15 35  1  0  0  0  0
 15 36  1  0  0  0  0
 15 37  1  0  0  0  0
 16 21  1  0  0  0  0
 16 17  1  0  0  0  0
 16 46  1  0  0  0  0
 17 18  1  0  0  0  0
 17 38  1  0  0  0  0
 17 39  1  0  0  0  0
 18 19  1  0  0  0  0
 18 40  1  0  0  0  0
 18 41  1  0  0  0  0
 19 20  1  0  0  0  0
 20 21  1  0  0  0  0
 20 42  1  0  0  0  0
 20 43  1  0  0  0  0
 21 44  1  0  0  0  0
 21 45  1  0  0  0  0
M  CHG  1  16   1
M  END
> <s_m_source_file>
AV-unprocessed.smi

> <i_m_source_file_index>
1714

> <i_lp_mmshare_version>
43012

> <i_f3d_flags>
0

> <s_epik_input>
W0NIM11jMVtjSF1bY0hdW2NIXW5jMVtOSF1DKD1PKVtOSF1bQ0gyXUMoW0NIM10pKFtDSDNdKU4yW0NIMl1bQ0gyXU9bQ0gyXVtDSDJdMg==

> <s_epik_cmdline>
J2VwaWtfcHl0aG9uJywgJy1waCcsICc3LjAnLCAnLXRuJywgJzgnLCAnLW1hJywgJzIwMCcsICctbWV0YWxfYmluZGluZycsICctaW1hZScsICc8aW5maWxlLm1hZT4nLCAnLW9tYWUnLCAnPG91dGZpbGUubWFlPic=

> <r_epik_Ionization_Penalty>
0.602574

> <r_epik_Ionization_Penalty_Charging>
0.602531

> <r_epik_Ionization_Penalty_Neutral>
4.31176e-05

> <r_epik_State_Penalty>
0.617039

> <r_epik_Charging_Adjusted_Penalty>
1.21957

> <i_epik_Tot_Q>
1

> <i_epik_Tot_abs_Q>
1

> <r_epik_Metal_State_Penalty>
0.617042

> <b_epik_Metal_Only>
0

> <s_lp_Force_Field>
OPLS_2005

> <r_lp_Energy>
27.6878

> <b_lp_Chiralities_Consistent>
1

> <s_lp_Variant>
AV-unprocessed.smi:1714-2

> <Gold.Version>
5.8.1

> <Gold.Id.Protein>
6NUR|6NUR_protein|mol2

> <Gold.PLP.Fitness>
46.7745

> <Gold.PLP.PLP>
-34.0430

> <Gold.PLP.part.hbond>
-2.9491

> <Gold.PLP.part.metal>
0.0000

> <Gold.PLP.part.buried>
-5.2182

> <Gold.PLP.part.nonpolar>
-26.4219

> <Gold.PLP.part.repulsive>
1.4741

> <Gold.PLP.ligand.clash>
0.0000

> <Gold.PLP.ligand.torsion>
1.0779

> <Gold.PLP.Chemscore.Hbond>
3.9200

> <Gold.PLP.Chemscore.CHOScore>
1.0000

> <Gold.PLP.Chemscore.Metal>
0.0000

> <Gold.Chemscore.Hbonds>
donor molecule, donor type, donor heavy atom, donor atom, acceptor molecule, acceptor atom, score
      L1  H     8    28       P1  7948  0.94
      L1  H    11    29       P1  7948  1.00
      L1  H    16    46       P1 10175  2.00
      L1  C     5    27       P1 10186  1.00

> <Gold.PLP.Chemscore.Internal.Correction>
0.1273

> <Gold.Rescore>
     Score         DG    S(hbond)    S(metal)    S(lipo)     H(rot)  DE(clash)    DE(int)     intcor
     16.09     -19.26       2.86        0.00      68.75       1.49       0.32       2.85       ----

> <Gold.Chemscore.Fitness>
16.0855

> <Gold.Chemscore.DG>
-19.2617

> <Gold.Chemscore.ZeroCoef>
-5.4800

> <Gold.Chemscore.Hbond>
2.8623

> <Gold.Chemscore.Metal>
0.0000

> <Gold.Chemscore.Lipo>
68.7477

> <Gold.Chemscore.Internal_Hbond>
0.0000

> <Gold.Chemscore.DEClash>
0.3246

> <Gold.Chemscore.DEInternal>
2.8517

> <Gold.Chemscore.Rot>
1.4930

> <Gold.Chemscore.Internal.Correction>
   9.000000E+99

> <Gold.Chemscore.Hbonds>
donor molecule, donor type, donor heavy atom, donor atom, acceptor molecule, acceptor atom, score
      L1  H     8    28       P1  7948  0.89
      L1  H    11    29       P1  7948  0.95
      L1  H    16    46       P1 10175  0.93

> <Gold.Chemscore.Hbond.Weighted>
-9.5602

> <Gold.Chemscore.Metal.Weighted>
-0.0000

> <Gold.Chemscore.Lipo.Weighted>
-8.0435

> <Gold.Chemscore.Internal_Hbond.Weighted>
0.0000

> <Gold.Chemscore.DEClash.Weighted>
0.3246

> <Gold.Chemscore.DEInternal.Weighted>
2.8517

> <Gold.Chemscore.Rot.Weighted>
3.8220

> <Gold.Chemscore.Internal.Correction.Weighted>
   9.000000E+99

> <Gold.Protein.RotatedTorsions>
[ 6907 6896 6895 6894 ] final  165.23 input  -60.11 | X-H torsion
[ 7974 7965 7964 7962 ] final -163.83 input  175.53 | X-H torsion
[ 8008 7997 7996 7995 ] final  -10.40 input   59.86 | X-H torsion
[ 10167 10162 10161 10158 ] final  129.84 input  -65.29 | X-H torsion
[ 10718 10713 10712 10709 ] final  -67.55 input   66.30 | X-H torsion
[ 10763 10752 10751 10750 ] final  158.69 input  -60.55 | X-H torsion
[ 11005 11000 10999 10996 ] final  138.20 input  -57.11 | X-H torsion

> <Gold.Protein.ActiveResidues>
 VAL166  LYS551  ARG553  GLY616  TRP617  ASP618  TYR619  PRO620  LYS621  CYS622 
 ASP623  PHE694  ASN695  SER759  ASP760  ASP761  ALA762  ILE779  LEU786  VAL792 
 PHE793  MET794  SER795  GLU796  ALA797  LYS798  CYS799  TRP800  GLU811  SER814 

> <Gold.Protein.RotatedAtoms>
  151.8976  133.3530  159.3819 H   0  0  0  0  0  0  0  0  0  0  0  0  # atno 6907 bound_to 6896
  150.7088  134.4860  159.5502 H   0  0  0  0  0  0  0  0  0  0  0  0  # atno 6908 bound_to 6896
  152.2443  134.8198  160.0506 H   0  0  0  0  0  0  0  0  0  0  0  0  # atno 6909 bound_to 6896
  144.7314  140.3050  143.6198 H   0  0  0  0  0  0  0  0  0  0  0  0  # atno 7974 bound_to 7965
  154.5558  140.2330  155.8412 H   0  0  0  0  0  0  0  0  0  0  0  0  # atno 8008 bound_to 7997
  156.1987  140.3058  155.9441 H   0  0  0  0  0  0  0  0  0  0  0  0  # atno 8009 bound_to 7997
  155.2982  140.0430  157.3018 H   0  0  0  0  0  0  0  0  0  0  0  0  # atno 8010 bound_to 7997
  139.5458  144.6772  151.4477 H   0  0  0  0  0  0  0  0  0  0  0  0  # atno 10167 bound_to 10162
  156.0552  130.4280  150.1871 H   0  0  0  0  0  0  0  0  0  0  0  0  # atno 10718 bound_to 10713
  154.2200  135.2782  155.2928 H   0  0  0  0  0  0  0  0  0  0  0  0  # atno 10763 bound_to 10752
  154.5709  135.5619  153.7097 H   0  0  0  0  0  0  0  0  0  0  0  0  # atno 10764 bound_to 10752
  153.0044  135.6321  154.2340 H   0  0  0  0  0  0  0  0  0  0  0  0  # atno 10765 bound_to 10752
  140.0167  134.9415  157.0390 H   0  0  0  0  0  0  0  0  0  0  0  0  # atno 11005 bound_to 11000
  145.7722  139.1861  143.2206 LP  0  0  0  0  0  0  0  0  0  0  0  0  # atno 17320 bound_to 7965
  146.0902  140.7665  142.9599 LP  0  0  0  0  0  0  0  0  0  0  0  0  # atno 17321 bound_to 7965
  140.6706  143.8303  150.6994 LP  0  0  0  0  0  0  0  0  0  0  0  0  # atno 17342 bound_to 10162
  140.1725  143.4182  152.1990 LP  0  0  0  0  0  0  0  0  0  0  0  0  # atno 17343 bound_to 10162
  156.9948  130.9904  151.3406 LP  0  0  0  0  0  0  0  0  0  0  0  0  # atno 17370 bound_to 10713
  157.5514  130.8185  149.8150 LP  0  0  0  0  0  0  0  0  0  0  0  0  # atno 17371 bound_to 10713
  140.4459  134.1633  155.7177 LP  0  0  0  0  0  0  0  0  0  0  0  0  # atno 17394 bound_to 11000
  141.1747  133.8538  157.1459 LP  0  0  0  0  0  0  0  0  0  0  0  0  # atno 17395 bound_to 11000

$$$$
