AV-unprocessed.smi:1244|AV-procd|sdf|5234|dock2
  -GOLD-   22720 4333D 1   1.00000     0.00000
 Structure written by MMmdl.
 56 58  0  0  0  0  0  0  0  0  3 V2000
  147.1681  132.4527  158.3072 C   0  0  0  0  0  0  0  0  0  0  0  0
  147.6248  133.4220  159.4031 C   0  0  1  0  0  0  0  0  0  0  0  0
  148.0337  134.7903  158.8291 C   0  0  0  0  0  0  0  0  0  0  0  0
  148.3854  135.7279  159.9209 N   0  3  1  0  0  0  0  0  0  0  0  0
  148.8858  137.0285  159.4096 C   0  0  0  0  0  0  0  0  0  0  0  0
  150.0045  136.8590  158.3638 C   0  0  0  0  0  0  0  0  0  0  0  0
  150.9150  137.9982  158.3615 N   0  0  0  0  0  0  0  0  0  0  0  0
  150.5382  139.2820  158.2774 C   0  0  0  0  0  0  0  0  0  0  0  0
  149.3628  139.6402  158.2086 O   0  0  0  0  0  0  0  0  0  0  0  0
  151.6025  140.1024  158.2619 N   0  0  0  0  0  0  0  0  0  0  0  0
  151.6227  141.5203  158.1252 C   0  0  0  0  0  0  0  0  0  0  0  0
  152.5606  142.3182  158.8308 C   0  0  0  0  0  0  0  0  0  0  0  0
  152.5384  143.7187  158.6924 C   0  0  0  0  0  0  0  0  0  0  0  0
  151.5808  144.3032  157.8466 C   0  0  0  0  0  0  0  0  0  0  0  0
  150.7164  143.5174  157.1725 N   0  3  0  0  0  0  0  0  0  0  0  0
  150.6974  142.1631  157.2511 C   0  0  0  0  0  0  0  0  0  0  0  0
  149.7418  141.4716  156.4715 N   0  0  0  0  0  0  0  0  0  0  0  0
  148.3153  141.6824  156.6909 C   0  0  0  0  0  0  0  0  0  0  0  0
  147.6320  141.0724  155.4698 C   0  0  0  0  0  0  0  0  0  0  0  0
  148.6271  141.3715  154.3526 C   0  0  0  0  0  0  0  0  0  0  0  0
  149.9907  141.2801  155.0461 C   0  0  0  0  0  0  0  0  0  0  0  0
  147.2519  135.8578  160.8701 C   0  0  0  0  0  0  0  0  0  0  0  0
  146.8098  134.4800  161.4014 C   0  0  2  0  0  0  0  0  0  0  0  0
  147.7870  133.8720  162.4239 C   0  0  0  0  0  0  0  0  0  0  0  0
  146.5428  133.5941  160.3145 O   0  0  0  0  0  0  0  0  0  0  0  0
  147.9643  132.2737  157.5841 H   0  0  0  0  0  0  0  0  0  0  0  0
  146.3060  132.8447  157.7665 H   0  0  0  0  0  0  0  0  0  0  0  0
  146.8846  131.4897  158.7326 H   0  0  0  0  0  0  0  0  0  0  0  0
  148.4734  132.9714  159.9182 H   0  0  0  0  0  0  0  0  0  0  0  0
  148.8874  134.6634  158.1618 H   0  0  0  0  0  0  0  0  0  0  0  0
  147.2216  135.2123  158.2343 H   0  0  0  0  0  0  0  0  0  0  0  0
  148.0568  137.5629  158.9430 H   0  0  0  0  0  0  0  0  0  0  0  0
  149.2228  137.6491  160.2414 H   0  0  0  0  0  0  0  0  0  0  0  0
  150.6025  135.9734  158.5744 H   0  0  0  0  0  0  0  0  0  0  0  0
  149.5795  136.7171  157.3686 H   0  0  0  0  0  0  0  0  0  0  0  0
  151.9023  137.7915  158.4102 H   0  0  0  0  0  0  0  0  0  0  0  0
  152.5058  139.6525  158.2358 H   0  0  0  0  0  0  0  0  0  0  0  0
  153.3055  141.8778  159.4756 H   0  0  0  0  0  0  0  0  0  0  0  0
  153.2453  144.3346  159.2292 H   0  0  0  0  0  0  0  0  0  0  0  0
  151.4856  145.3667  157.6817 H   0  0  0  0  0  0  0  0  0  0  0  0
  147.9813  141.2137  157.6172 H   0  0  0  0  0  0  0  0  0  0  0  0
  148.0891  142.7484  156.7426 H   0  0  0  0  0  0  0  0  0  0  0  0
  147.5299  139.9938  155.5982 H   0  0  0  0  0  0  0  0  0  0  0  0
  146.6413  141.4881  155.2842 H   0  0  0  0  0  0  0  0  0  0  0  0
  148.5354  140.6905  153.5060 H   0  0  0  0  0  0  0  0  0  0  0  0
  148.4690  142.3863  153.9851 H   0  0  0  0  0  0  0  0  0  0  0  0
  150.6882  142.0175  154.6463 H   0  0  0  0  0  0  0  0  0  0  0  0
  150.4180  140.2884  154.8957 H   0  0  0  0  0  0  0  0  0  0  0  0
  147.5161  136.5006  161.7089 H   0  0  0  0  0  0  0  0  0  0  0  0
  146.4148  136.3371  160.3594 H   0  0  0  0  0  0  0  0  0  0  0  0
  145.8597  134.6151  161.9191 H   0  0  0  0  0  0  0  0  0  0  0  0
  147.8697  134.5090  163.3049 H   0  0  0  0  0  0  0  0  0  0  0  0
  148.7911  133.7507  162.0185 H   0  0  0  0  0  0  0  0  0  0  0  0
  147.4403  132.8938  162.7580 H   0  0  0  0  0  0  0  0  0  0  0  0
  149.1498  135.3014  160.4252 H   0  0  0  0  0  0  0  0  0  0  0  0
  150.0403  143.9710  156.5579 H   0  0  0  0  0  0  0  0  0  0  0  0
  1  2  1  0  0  0  0
  1 26  1  0  0  0  0
  1 27  1  0  0  0  0
  1 28  1  0  0  0  0
  2 25  1  0  0  0  0
  2  3  1  0  0  0  0
  2 29  1  0  0  0  0
  3  4  1  0  0  0  0
  3 30  1  0  0  0  0
  3 31  1  0  0  0  0
  4  5  1  0  0  0  0
  4 22  1  0  0  0  0
  4 55  1  0  0  0  0
  5  6  1  0  0  0  0
  5 32  1  0  0  0  0
  5 33  1  0  0  0  0
  6  7  1  0  0  0  0
  6 34  1  0  0  0  0
  6 35  1  0  0  0  0
  7  8  1  0  0  0  0
  7 36  1  0  0  0  0
  8  9  2  0  0  0  0
  8 10  1  0  0  0  0
 10 11  1  0  0  0  0
 10 37  1  0  0  0  0
 11 16  1  0  0  0  0
 11 12  2  0  0  0  0
 12 13  1  0  0  0  0
 12 38  1  0  0  0  0
 13 14  2  0  0  0  0
 13 39  1  0  0  0  0
 14 15  1  0  0  0  0
 14 40  1  0  0  0  0
 15 16  2  0  0  0  0
 15 56  1  0  0  0  0
 16 17  1  0  0  0  0
 17 21  1  0  0  0  0
 17 18  1  0  0  0  0
 18 19  1  0  0  0  0
 18 41  1  0  0  0  0
 18 42  1  0  0  0  0
 19 20  1  0  0  0  0
 19 43  1  0  0  0  0
 19 44  1  0  0  0  0
 20 21  1  0  0  0  0
 20 45  1  0  0  0  0
 20 46  1  0  0  0  0
 21 47  1  0  0  0  0
 21 48  1  0  0  0  0
 22 23  1  0  0  0  0
 22 49  1  0  0  0  0
 22 50  1  0  0  0  0
 23 24  1  0  0  0  0
 23 25  1  0  0  0  0
 23 51  1  0  0  0  0
 24 52  1  0  0  0  0
 24 53  1  0  0  0  0
 24 54  1  0  0  0  0
M  CHG  1   4   1
M  CHG  1  15   1
M  END
> <s_m_source_file>
AV-unprocessed.smi

> <i_m_source_file_index>
1244

> <i_lp_mmshare_version>
43012

> <i_f3d_flags>
0

> <s_epik_input>
W0NIM11bQ0BASF0xW0NIMl1OKFtDSDJdW0NASF0oTzEpW0NIM10pW0NIMl1bQ0gyXVtOSF1DKD1PKVtOSF1jMltjSF1bY0hdW2NIXW5jMk4zW0NIMl1bQ0gyXVtDSDJdW0NIMl0z

> <s_epik_cmdline>
J2VwaWtfcHl0aG9uJywgJy1waCcsICc3LjAnLCAnLXRuJywgJzgnLCAnLW1hJywgJzIwMCcsICctbWV0YWxfYmluZGluZycsICctaW1hZScsICc8aW5maWxlLm1hZT4nLCAnLW9tYWUnLCAnPG91dGZpbGUubWFlPic=

> <r_lp_tautomer_probability>
0.999994

> <r_epik_Ionization_Penalty>
1.81601

> <r_epik_Ionization_Penalty_Charging>
1.81599

> <r_epik_Ionization_Penalty_Neutral>
2.01972e-05

> <r_epik_State_Penalty>
1.85672

> <r_epik_Charging_Adjusted_Penalty>
3.6727

> <i_epik_Tot_Q>
2

> <i_epik_Tot_abs_Q>
2

> <r_epik_Metal_State_Penalty>
1.93796

> <b_epik_Metal_Only>
0

> <s_lp_Force_Field>
OPLS_2005

> <r_lp_Energy>
54.6365

> <b_lp_Chiralities_Consistent>
1

> <s_lp_Variant>
AV-unprocessed.smi:1244-14

> <Gold.Version>
5.8.1

> <Gold.Id.Protein>
6NUR|6NUR_protein|mol2

> <Gold.PLP.Fitness>
44.1502

> <Gold.PLP.PLP>
-39.2045

> <Gold.PLP.part.hbond>
-1.2990

> <Gold.PLP.part.metal>
0.0000

> <Gold.PLP.part.buried>
-5.4419

> <Gold.PLP.part.nonpolar>
-32.7950

> <Gold.PLP.part.repulsive>
0.4642

> <Gold.PLP.ligand.clash>
0.0000

> <Gold.PLP.ligand.torsion>
0.7591

> <Gold.PLP.Chemscore.Hbond>
2.0000

> <Gold.PLP.Chemscore.CHOScore>
0.0000

> <Gold.PLP.Chemscore.Metal>
0.0000

> <Gold.Chemscore.Hbonds>
donor molecule, donor type, donor heavy atom, donor atom, acceptor molecule, acceptor atom, score
      L1  H    15    56       P1  8028  2.00

> <Gold.PLP.Chemscore.Internal.Correction>
0.4638

> <Gold.Rescore>
     Score         DG    S(hbond)    S(metal)    S(lipo)     H(rot)  DE(clash)    DE(int)     intcor
      9.08     -16.53       0.98        0.00     102.06       1.63       0.54       6.91       ----

> <Gold.Chemscore.Fitness>
9.0809

> <Gold.Chemscore.DG>
-16.5327

> <Gold.Chemscore.ZeroCoef>
-5.4800

> <Gold.Chemscore.Hbond>
0.9827

> <Gold.Chemscore.Metal>
0.0000

> <Gold.Chemscore.Lipo>
102.0636

> <Gold.Chemscore.Internal_Hbond>
0.0000

> <Gold.Chemscore.DEClash>
0.5422

> <Gold.Chemscore.DEInternal>
6.9095

> <Gold.Chemscore.Rot>
1.6293

> <Gold.Chemscore.Internal.Correction>
   9.000000E+99

> <Gold.Chemscore.Hbonds>
donor molecule, donor type, donor heavy atom, donor atom, acceptor molecule, acceptor atom, score
      L1  H    15    56       P1  8028  0.99

> <Gold.Chemscore.Hbond.Weighted>
-3.2821

> <Gold.Chemscore.Metal.Weighted>
-0.0000

> <Gold.Chemscore.Lipo.Weighted>
-11.9414

> <Gold.Chemscore.Internal_Hbond.Weighted>
0.0000

> <Gold.Chemscore.DEClash.Weighted>
0.5422

> <Gold.Chemscore.DEInternal.Weighted>
6.9095

> <Gold.Chemscore.Rot.Weighted>
4.1709

> <Gold.Chemscore.Internal.Correction.Weighted>
   9.000000E+99

> <Gold.Protein.RotatedTorsions>
[ 6907 6896 6895 6894 ] final -169.62 input  -60.11 | X-H torsion
[ 7974 7965 7964 7962 ] final  -29.86 input  175.53 | X-H torsion
[ 8008 7997 7996 7995 ] final -149.40 input   59.86 | X-H torsion
[ 10167 10162 10161 10158 ] final  144.23 input  -65.29 | X-H torsion
[ 10718 10713 10712 10709 ] final  134.78 input   66.30 | X-H torsion
[ 10763 10752 10751 10750 ] final -132.52 input  -60.55 | X-H torsion
[ 11005 11000 10999 10996 ] final  162.70 input  -57.11 | X-H torsion

> <Gold.Protein.ActiveResidues>
 VAL166  LYS551  ARG553  GLY616  TRP617  ASP618  TYR619  PRO620  LYS621  CYS622 
 ASP623  PHE694  ASN695  SER759  ASP760  ASP761  ALA762  ILE779  LEU786  VAL792 
 PHE793  MET794  SER795  GLU796  ALA797  LYS798  CYS799  TRP800  GLU811  SER814 

> <Gold.Protein.RotatedAtoms>
  151.4946  133.3517  159.2858 H   0  0  0  0  0  0  0  0  0  0  0  0  # atno 6907 bound_to 6896
  150.8813  134.8206  159.7237 H   0  0  0  0  0  0  0  0  0  0  0  0  # atno 6908 bound_to 6896
  152.4764  134.4843  159.9727 H   0  0  0  0  0  0  0  0  0  0  0  0  # atno 6909 bound_to 6896
  146.1185  140.5466  142.8746 H   0  0  0  0  0  0  0  0  0  0  0  0  # atno 7974 bound_to 7965
  155.6070  140.0668  157.2717 H   0  0  0  0  0  0  0  0  0  0  0  0  # atno 8008 bound_to 7997
  154.4263  140.1808  156.1280 H   0  0  0  0  0  0  0  0  0  0  0  0  # atno 8009 bound_to 7997
  156.0115  140.3326  155.6949 H   0  0  0  0  0  0  0  0  0  0  0  0  # atno 8010 bound_to 7997
  139.4951  144.5986  151.6529 H   0  0  0  0  0  0  0  0  0  0  0  0  # atno 10167 bound_to 10162
  157.4638  131.1075  150.9888 H   0  0  0  0  0  0  0  0  0  0  0  0  # atno 10718 bound_to 10713
  154.8742  135.3795  154.4422 H   0  0  0  0  0  0  0  0  0  0  0  0  # atno 10763 bound_to 10752
  153.5106  135.7029  153.5788 H   0  0  0  0  0  0  0  0  0  0  0  0  # atno 10764 bound_to 10752
  153.4079  135.3932  155.1997 H   0  0  0  0  0  0  0  0  0  0  0  0  # atno 10765 bound_to 10752
  140.2284  134.8142  157.3292 H   0  0  0  0  0  0  0  0  0  0  0  0  # atno 11005 bound_to 11000
  144.7575  140.5343  143.6758 LP  0  0  0  0  0  0  0  0  0  0  0  0  # atno 17320 bound_to 7965
  145.5515  139.1477  143.3391 LP  0  0  0  0  0  0  0  0  0  0  0  0  # atno 17321 bound_to 7965
  140.5630  144.0236  150.6179 LP  0  0  0  0  0  0  0  0  0  0  0  0  # atno 17342 bound_to 10162
  140.3329  143.3067  152.0669 LP  0  0  0  0  0  0  0  0  0  0  0  0  # atno 17343 bound_to 10162
  157.0676  130.5851  149.5397 LP  0  0  0  0  0  0  0  0  0  0  0  0  # atno 17370 bound_to 10713
  156.0041  130.5124  150.7767 LP  0  0  0  0  0  0  0  0  0  0  0  0  # atno 17371 bound_to 10713
  140.1776  134.4530  155.7792 LP  0  0  0  0  0  0  0  0  0  0  0  0  # atno 17394 bound_to 11000
  141.2219  133.6969  156.7814 LP  0  0  0  0  0  0  0  0  0  0  0  0  # atno 17395 bound_to 11000

$$$$
