AV-unprocessed.smi:1254|AV-procd|sdf|5280|dock6
  -GOLD-   22720 4403D 1   1.00000     0.00000
 Structure written by MMmdl.
 44 45  0  0  0  0  0  0  0  0  2 V2000
  151.2175  144.8265  159.1878 C   0  0  0  0  0  0  0  0  0  0  0  0
  151.9991  143.5759  159.4014 C   0  0  0  0  0  0  0  0  0  0  0  0
  153.0439  143.2611  160.2232 C   0  0  0  0  0  0  0  0  0  0  0  0
  153.2957  141.8951  159.9195 C   0  0  0  0  0  0  0  0  0  0  0  0
  154.2521  141.1299  160.4678 N   0  5  0  0  0  0  0  0  0  0  0  0
  154.3712  139.8297  160.1122 C   0  0  0  0  0  0  0  0  0  0  0  0
  154.7091  139.4030  159.0057 O   0  0  0  0  0  0  0  0  0  0  0  0
  154.0781  138.9729  161.1007 N   0  0  0  0  0  0  0  0  0  0  0  0
  154.1261  137.5164  161.0201 C   0  0  0  0  0  0  0  0  0  0  0  0
  154.2876  136.8771  162.4093 C   0  0  1  0  0  0  0  0  0  0  0  0
  154.8531  135.4461  162.3178 C   0  0  0  0  0  0  0  0  0  0  0  0
  155.0586  134.8470  163.6327 N   0  0  0  0  0  0  0  0  0  0  0  0
  155.5847  133.4867  163.5077 C   0  0  0  0  0  0  0  0  0  0  0  0
  155.4832  132.6057  164.7714 C   0  0  0  0  0  0  0  0  0  0  0  0
  154.0513  132.6290  165.3262 C   0  0  0  0  0  0  0  0  0  0  0  0
  156.4859  133.0418  165.8521 C   0  0  0  0  0  0  0  0  0  0  0  0
  155.9275  135.7197  164.4195 C   0  0  0  0  0  0  0  0  0  0  0  0
  155.3795  137.1544  164.5000 C   0  0  0  0  0  0  0  0  0  0  0  0
  155.1886  137.6634  163.1853 O   0  0  0  0  0  0  0  0  0  0  0  0
  152.4869  141.4280  158.9828 N   0  0  0  0  0  0  0  0  0  0  0  0
  151.6478  142.4981  158.6499 O   0  0  0  0  0  0  0  0  0  0  0  0
  151.4831  145.2891  158.2374 H   0  0  0  0  0  0  0  0  0  0  0  0
  151.4131  145.5474  159.9818 H   0  0  0  0  0  0  0  0  0  0  0  0
  150.1476  144.6181  159.1772 H   0  0  0  0  0  0  0  0  0  0  0  0
  153.5465  143.9024  160.9318 H   0  0  0  0  0  0  0  0  0  0  0  0
  153.8090  139.3700  161.9888 H   0  0  0  0  0  0  0  0  0  0  0  0
  153.1867  137.1880  160.5749 H   0  0  0  0  0  0  0  0  0  0  0  0
  154.9166  137.1827  160.3458 H   0  0  0  0  0  0  0  0  0  0  0  0
  153.3151  136.8502  162.9048 H   0  0  0  0  0  0  0  0  0  0  0  0
  154.1684  134.8274  161.7365 H   0  0  0  0  0  0  0  0  0  0  0  0
  155.7967  135.4648  161.7698 H   0  0  0  0  0  0  0  0  0  0  0  0
  155.0530  132.9744  162.7044 H   0  0  0  0  0  0  0  0  0  0  0  0
  156.6262  133.5355  163.1861 H   0  0  0  0  0  0  0  0  0  0  0  0
  155.6980  131.5704  164.5082 H   0  0  0  0  0  0  0  0  0  0  0  0
  153.7588  133.6354  165.6276 H   0  0  0  0  0  0  0  0  0  0  0  0
  153.9558  131.9796  166.1968 H   0  0  0  0  0  0  0  0  0  0  0  0
  153.3349  132.2840  164.5801 H   0  0  0  0  0  0  0  0  0  0  0  0
  156.3155  134.0746  166.1574 H   0  0  0  0  0  0  0  0  0  0  0  0
  157.5131  132.9659  165.4943 H   0  0  0  0  0  0  0  0  0  0  0  0
  156.4039  132.4144  166.7400 H   0  0  0  0  0  0  0  0  0  0  0  0
  156.0373  135.3352  165.4325 H   0  0  0  0  0  0  0  0  0  0  0  0
  156.9264  135.7407  163.9810 H   0  0  0  0  0  0  0  0  0  0  0  0
  154.4367  137.1793  165.0485 H   0  0  0  0  0  0  0  0  0  0  0  0
  156.0782  137.7990  165.0333 H   0  0  0  0  0  0  0  0  0  0  0  0
  1  2  1  0  0  0  0
  1 22  1  0  0  0  0
  1 23  1  0  0  0  0
  1 24  1  0  0  0  0
  2 21  1  0  0  0  0
  2  3  2  0  0  0  0
  3  4  1  0  0  0  0
  3 25  1  0  0  0  0
  4  5  1  0  0  0  0
  4 20  2  0  0  0  0
  5  6  1  0  0  0  0
  6  7  2  0  0  0  0
  6  8  1  0  0  0  0
  8  9  1  0  0  0  0
  8 26  1  0  0  0  0
  9 10  1  0  0  0  0
  9 27  1  0  0  0  0
  9 28  1  0  0  0  0
 10 19  1  0  0  0  0
 10 11  1  0  0  0  0
 10 29  1  0  0  0  0
 11 12  1  0  0  0  0
 11 30  1  0  0  0  0
 11 31  1  0  0  0  0
 12 13  1  0  0  0  0
 12 17  1  0  0  0  0
 13 14  1  0  0  0  0
 13 32  1  0  0  0  0
 13 33  1  0  0  0  0
 14 15  1  0  0  0  0
 14 16  1  0  0  0  0
 14 34  1  0  0  0  0
 15 35  1  0  0  0  0
 15 36  1  0  0  0  0
 15 37  1  0  0  0  0
 16 38  1  0  0  0  0
 16 39  1  0  0  0  0
 16 40  1  0  0  0  0
 17 18  1  0  0  0  0
 17 41  1  0  0  0  0
 17 42  1  0  0  0  0
 18 19  1  0  0  0  0
 18 43  1  0  0  0  0
 18 44  1  0  0  0  0
 20 21  1  0  0  0  0
M  CHG  1   5  -1
M  END
> <s_m_source_file>
AV-unprocessed.smi

> <i_m_source_file_index>
1254

> <i_lp_mmshare_version>
43012

> <i_f3d_flags>
0

> <s_epik_input>
W0NIM11jMVtjSF1jKG5vMSlbTkhdQyg9TylbTkhdW0NIMl1bQ0BASF0yW0NIMl1OKFtDSDJdW0NIMl1PMilbQ0gyXVtDSF0oW0NIM10pW0NIM10=

> <s_epik_cmdline>
J2VwaWtfcHl0aG9uJywgJy1waCcsICc3LjAnLCAnLXRuJywgJzgnLCAnLW1hJywgJzIwMCcsICctbWV0YWxfYmluZGluZycsICctaW1hZScsICc8aW5maWxlLm1hZT4nLCAnLW9tYWUnLCAnPG91dGZpbGUubWFlPic=

> <r_epik_Ionization_Penalty>
7.56718

> <r_epik_Ionization_Penalty_Charging>
6.43435

> <r_epik_Ionization_Penalty_Neutral>
1.13283

> <r_epik_State_Penalty>
7.60314

> <r_epik_Charging_Adjusted_Penalty>
14.0375

> <i_epik_Tot_Q>
-1

> <i_epik_Tot_abs_Q>
1

> <r_epik_Metal_State_Penalty>
3.53636

> <b_epik_Metal_Only>
1

> <s_lp_Force_Field>
OPLS_2005

> <r_lp_Energy>
16.636

> <b_lp_Chiralities_Consistent>
1

> <s_lp_Variant>
AV-unprocessed.smi:1254-12

> <Gold.Version>
5.8.1

> <Gold.Id.Protein>
6NUR|6NUR_protein|mol2

> <Gold.PLP.Fitness>
40.1726

> <Gold.PLP.PLP>
-39.3239

> <Gold.PLP.part.hbond>
-1.0000

> <Gold.PLP.part.metal>
0.0000

> <Gold.PLP.part.buried>
-5.5900

> <Gold.PLP.part.nonpolar>
-33.2404

> <Gold.PLP.part.repulsive>
0.0874

> <Gold.PLP.ligand.clash>
0.0000

> <Gold.PLP.ligand.torsion>
1.1769

> <Gold.PLP.Chemscore.Hbond>
1.0000

> <Gold.PLP.Chemscore.CHOScore>
0.0000

> <Gold.PLP.Chemscore.Metal>
0.0000

> <Gold.Chemscore.Hbonds>
donor molecule, donor type, donor heavy atom, donor atom, acceptor molecule, acceptor atom, score
      P1  H  7997  8010       L1     7  1.00

> <Gold.PLP.Chemscore.Internal.Correction>
0.2025

> <Gold.Rescore>
     Score         DG    S(hbond)    S(metal)    S(lipo)     H(rot)  DE(clash)    DE(int)     intcor
     15.40     -16.71       1.00        0.00     103.59       1.65       0.01       1.30       ----

> <Gold.Chemscore.Fitness>
15.4022

> <Gold.Chemscore.DG>
-16.7086

> <Gold.Chemscore.ZeroCoef>
-5.4800

> <Gold.Chemscore.Hbond>
0.9999

> <Gold.Chemscore.Metal>
0.0000

> <Gold.Chemscore.Lipo>
103.5885

> <Gold.Chemscore.Internal_Hbond>
0.0000

> <Gold.Chemscore.DEClash>
0.0064

> <Gold.Chemscore.DEInternal>
1.3000

> <Gold.Chemscore.Rot>
1.6526

> <Gold.Chemscore.Internal.Correction>
   9.000000E+99

> <Gold.Chemscore.Hbonds>
donor molecule, donor type, donor heavy atom, donor atom, acceptor molecule, acceptor atom, score
      P1  H  7997  8010       L1     7  1.00

> <Gold.Chemscore.Hbond.Weighted>
-3.3395

> <Gold.Chemscore.Metal.Weighted>
-0.0000

> <Gold.Chemscore.Lipo.Weighted>
-12.1199

> <Gold.Chemscore.Internal_Hbond.Weighted>
0.0000

> <Gold.Chemscore.DEClash.Weighted>
0.0064

> <Gold.Chemscore.DEInternal.Weighted>
1.3000

> <Gold.Chemscore.Rot.Weighted>
4.2308

> <Gold.Chemscore.Internal.Correction.Weighted>
   9.000000E+99

> <Gold.Protein.RotatedTorsions>
[ 6907 6896 6895 6894 ] final  -71.01 input  -60.11 | X-H torsion
[ 7974 7965 7964 7962 ] final  145.58 input  175.53 | X-H torsion
[ 8008 7997 7996 7995 ] final   -0.66 input   59.86 | X-H torsion
[ 10167 10162 10161 10158 ] final  -94.86 input  -65.29 | X-H torsion
[ 10718 10713 10712 10709 ] final  126.01 input   66.30 | X-H torsion
[ 10763 10752 10751 10750 ] final  -45.82 input  -60.55 | X-H torsion
[ 11005 11000 10999 10996 ] final  -78.49 input  -57.11 | X-H torsion

> <Gold.Protein.ActiveResidues>
 VAL166  LYS551  ARG553  GLY616  TRP617  ASP618  TYR619  PRO620  LYS621  CYS622 
 ASP623  PHE694  ASN695  SER759  ASP760  ASP761  ALA762  ILE779  LEU786  VAL792 
 PHE793  MET794  SER795  GLU796  ALA797  LYS798  CYS799  TRP800  GLU811  SER814 

> <Gold.Protein.RotatedAtoms>
  150.7231  134.5371  159.5728 H   0  0  0  0  0  0  0  0  0  0  0  0  # atno 6907 bound_to 6896
  152.2890  134.7740  160.0390 H   0  0  0  0  0  0  0  0  0  0  0  0  # atno 6908 bound_to 6896
  151.8360  133.3380  159.3665 H   0  0  0  0  0  0  0  0  0  0  0  0  # atno 6909 bound_to 6896
  144.8741  139.5801  143.5873 H   0  0  0  0  0  0  0  0  0  0  0  0  # atno 7974 bound_to 7965
  154.6555  140.2578  155.7166 H   0  0  0  0  0  0  0  0  0  0  0  0  # atno 8008 bound_to 7997
  156.2595  140.2859  156.0928 H   0  0  0  0  0  0  0  0  0  0  0  0  # atno 8009 bound_to 7997
  155.1386  140.0380  157.2783 H   0  0  0  0  0  0  0  0  0  0  0  0  # atno 8010 bound_to 7997
  140.3101  143.3110  152.0157 H   0  0  0  0  0  0  0  0  0  0  0  0  # atno 10167 bound_to 10162
  157.5455  131.1096  150.8788 H   0  0  0  0  0  0  0  0  0  0  0  0  # atno 10718 bound_to 10713
  154.0349  135.6652  153.4784 H   0  0  0  0  0  0  0  0  0  0  0  0  # atno 10763 bound_to 10752
  153.0525  135.5076  154.7897 H   0  0  0  0  0  0  0  0  0  0  0  0  # atno 10764 bound_to 10752
  154.6855  135.3052  154.9519 H   0  0  0  0  0  0  0  0  0  0  0  0  # atno 10765 bound_to 10752
  141.1665  133.7065  156.7979 H   0  0  0  0  0  0  0  0  0  0  0  0  # atno 11005 bound_to 11000
  146.2950  139.7252  142.9133 LP  0  0  0  0  0  0  0  0  0  0  0  0  # atno 17320 bound_to 7965
  145.4076  141.0393  143.3035 LP  0  0  0  0  0  0  0  0  0  0  0  0  # atno 17321 bound_to 7965
  139.4895  144.6391  151.6915 LP  0  0  0  0  0  0  0  0  0  0  0  0  # atno 17342 bound_to 10162
  140.5575  144.0323  150.6154 LP  0  0  0  0  0  0  0  0  0  0  0  0  # atno 17343 bound_to 10162
  156.9328  130.5356  149.5279 LP  0  0  0  0  0  0  0  0  0  0  0  0  # atno 17370 bound_to 10713
  156.0532  130.5598  150.9035 LP  0  0  0  0  0  0  0  0  0  0  0  0  # atno 17371 bound_to 10713
  140.2277  134.8709  157.3444 LP  0  0  0  0  0  0  0  0  0  0  0  0  # atno 17394 bound_to 11000
  140.1922  134.4357  155.7709 LP  0  0  0  0  0  0  0  0  0  0  0  0  # atno 17395 bound_to 11000

$$$$
