AV-unprocessed.smi:2379|AV-procd|sdf|9451|dock8
  -GOLD-   2272013 83D 1   1.00000     0.00000
 Structure written by MMmdl.
 53 55  0  0  0  0  0  0  0  0  2 V2000
  152.2903  144.6933  158.6344 C   0  0  0  0  0  0  0  0  0  0  0  0
  152.4327  143.2217  158.9624 C   0  0  0  0  0  0  0  0  0  0  0  0
  153.2616  142.7927  160.0165 C   0  0  0  0  0  0  0  0  0  0  0  0
  153.3517  141.4100  160.2708 C   0  0  0  0  0  0  0  0  0  0  0  0
  154.2259  140.8784  161.3872 C   0  0  0  0  0  0  0  0  0  0  0  0
  152.6826  140.4834  159.5516 N   0  0  0  0  0  0  0  0  0  0  0  0
  151.8821  140.8854  158.5336 C   0  0  0  0  0  0  0  0  0  0  0  0
  151.1370  139.9933  157.7177 N   0  0  0  0  0  0  0  0  0  0  0  0
  149.9962  140.2351  157.0484 C   0  0  0  0  0  0  0  0  0  0  0  0
  149.3900  141.3069  157.0330 O   0  0  0  0  0  0  0  0  0  0  0  0
  149.5889  139.1482  156.3766 N   0  0  0  0  0  0  0  0  0  0  0  0
  148.3961  139.0765  155.5375 C   0  0  2  0  0  0  0  0  0  0  0  0
  147.9489  137.6122  155.3944 C   0  0  0  0  0  0  0  0  0  0  0  0
  146.7598  137.4801  154.4278 C   0  0  0  0  0  0  0  0  0  0  0  0
  147.0841  138.0616  153.0999 N   0  3  1  0  0  0  0  0  0  0  0  0
  146.0298  137.8149  152.0827 C   0  0  0  0  0  0  0  0  0  0  0  0
  145.5209  136.3615  152.1277 C   0  0  2  0  0  0  0  0  0  0  0  0
  145.5711  135.6108  150.8104 C   0  0  0  0  0  0  0  0  0  0  0  0
  144.5836  134.4716  151.0488 C   0  0  0  0  0  0  0  0  0  0  0  0
  143.6298  134.9687  151.9831 O   0  0  0  0  0  0  0  0  0  0  0  0
  144.0329  136.2488  152.4574 C   0  0  0  0  0  0  0  0  0  0  0  0
  147.4614  139.4943  153.2132 C   0  0  0  0  0  0  0  0  0  0  0  0
  148.6713  139.6732  154.1442 C   0  0  0  0  0  0  0  0  0  0  0  0
  151.7363  142.2534  158.2115 C   0  0  0  0  0  0  0  0  0  0  0  0
  152.7623  145.3158  159.3953 H   0  0  0  0  0  0  0  0  0  0  0  0
  151.2373  144.9693  158.5750 H   0  0  0  0  0  0  0  0  0  0  0  0
  152.7585  144.9114  157.6744 H   0  0  0  0  0  0  0  0  0  0  0  0
  153.8141  143.5037  160.6136 H   0  0  0  0  0  0  0  0  0  0  0  0
  154.6294  141.6895  161.9938 H   0  0  0  0  0  0  0  0  0  0  0  0
  155.0614  140.3120  160.9751 H   0  0  0  0  0  0  0  0  0  0  0  0
  153.6525  140.2197  162.0400 H   0  0  0  0  0  0  0  0  0  0  0  0
  151.5230  139.0652  157.6283 H   0  0  0  0  0  0  0  0  0  0  0  0
  150.1471  138.3101  156.4491 H   0  0  0  0  0  0  0  0  0  0  0  0
  147.5886  139.6367  156.0132 H   0  0  0  0  0  0  0  0  0  0  0  0
  148.7784  137.0049  155.0282 H   0  0  0  0  0  0  0  0  0  0  0  0
  147.6768  137.2069  156.3696 H   0  0  0  0  0  0  0  0  0  0  0  0
  146.5098  136.4242  154.3164 H   0  0  0  0  0  0  0  0  0  0  0  0
  145.8789  137.9749  154.8400 H   0  0  0  0  0  0  0  0  0  0  0  0
  145.1772  138.4681  152.2758 H   0  0  0  0  0  0  0  0  0  0  0  0
  146.3818  138.0808  151.0844 H   0  0  0  0  0  0  0  0  0  0  0  0
  146.0807  135.8002  152.8780 H   0  0  0  0  0  0  0  0  0  0  0  0
  145.2173  136.2447  149.9957 H   0  0  0  0  0  0  0  0  0  0  0  0
  146.5688  135.2511  150.5564 H   0  0  0  0  0  0  0  0  0  0  0  0
  144.1033  134.1406  150.1276 H   0  0  0  0  0  0  0  0  0  0  0  0
  145.0896  133.6138  151.4942 H   0  0  0  0  0  0  0  0  0  0  0  0
  143.8306  136.3589  153.5232 H   0  0  0  0  0  0  0  0  0  0  0  0
  143.4599  137.0092  151.9246 H   0  0  0  0  0  0  0  0  0  0  0  0
  147.7019  139.8997  152.2311 H   0  0  0  0  0  0  0  0  0  0  0  0
  146.6125  140.0678  153.5895 H   0  0  0  0  0  0  0  0  0  0  0  0
  148.9129  140.7336  154.2279 H   0  0  0  0  0  0  0  0  0  0  0  0
  149.5442  139.1926  153.6994 H   0  0  0  0  0  0  0  0  0  0  0  0
  151.0961  142.5610  157.3970 H   0  0  0  0  0  0  0  0  0  0  0  0
  147.9040  137.5686  152.7761 H   0  0  0  0  0  0  0  0  0  0  0  0
  1  2  1  0  0  0  0
  1 25  1  0  0  0  0
  1 26  1  0  0  0  0
  1 27  1  0  0  0  0
  2 24  1  0  0  0  0
  2  3  2  0  0  0  0
  3  4  1  0  0  0  0
  3 28  1  0  0  0  0
  4  5  1  0  0  0  0
  4  6  2  0  0  0  0
  5 29  1  0  0  0  0
  5 30  1  0  0  0  0
  5 31  1  0  0  0  0
  6  7  1  0  0  0  0
  7  8  1  0  0  0  0
  7 24  2  0  0  0  0
  8  9  1  0  0  0  0
  8 32  1  0  0  0  0
  9 10  2  0  0  0  0
  9 11  1  0  0  0  0
 11 12  1  0  0  0  0
 11 33  1  0  0  0  0
 12 23  1  0  0  0  0
 12 13  1  0  0  0  0
 12 34  1  0  0  0  0
 13 14  1  0  0  0  0
 13 35  1  0  0  0  0
 13 36  1  0  0  0  0
 14 15  1  0  0  0  0
 14 37  1  0  0  0  0
 14 38  1  0  0  0  0
 15 16  1  0  0  0  0
 15 22  1  0  0  0  0
 15 53  1  0  0  0  0
 16 17  1  0  0  0  0
 16 39  1  0  0  0  0
 16 40  1  0  0  0  0
 17 21  1  0  0  0  0
 17 18  1  0  0  0  0
 17 41  1  0  0  0  0
 18 19  1  0  0  0  0
 18 42  1  0  0  0  0
 18 43  1  0  0  0  0
 19 20  1  0  0  0  0
 19 44  1  0  0  0  0
 19 45  1  0  0  0  0
 20 21  1  0  0  0  0
 21 46  1  0  0  0  0
 21 47  1  0  0  0  0
 22 23  1  0  0  0  0
 22 48  1  0  0  0  0
 22 49  1  0  0  0  0
 23 50  1  0  0  0  0
 23 51  1  0  0  0  0
 24 52  1  0  0  0  0
M  CHG  1  15   1
M  END
> <s_m_source_file>
AV-unprocessed.smi

> <i_m_source_file_index>
2379

> <i_lp_mmshare_version>
43012

> <i_f3d_flags>
0

> <s_epik_input>
W0NIM11jMVtjSF1jKFtDSDNdKW5jKFtjSF0xKVtOSF1DKD1PKVtOSF1bQ0hdMltDSDJdW0NIMl1OKFtDSDJdW0NIMl0yKVtDSDJdW0NAQEhdM1tDSDJdW0NIMl1PW0NIMl0z

> <s_epik_cmdline>
J2VwaWtfcHl0aG9uJywgJy1waCcsICc3LjAnLCAnLXRuJywgJzgnLCAnLW1hJywgJzIwMCcsICctbWV0YWxfYmluZGluZycsICctaW1hZScsICc8aW5maWxlLm1hZT4nLCAnLW9tYWUnLCAnPG91dGZpbGUubWFlPic=

> <r_epik_Ionization_Penalty>
0.00766556

> <r_epik_Ionization_Penalty_Charging>
0.00747775

> <r_epik_Ionization_Penalty_Neutral>
0.00018781

> <r_epik_State_Penalty>
0.00558817

> <r_epik_Charging_Adjusted_Penalty>
0.0130659

> <i_epik_Tot_Q>
1

> <i_epik_Tot_abs_Q>
1

> <r_epik_Metal_State_Penalty>
-0

> <b_epik_Metal_Only>
0

> <s_lp_Force_Field>
OPLS_2005

> <r_lp_Energy>
36.075

> <b_lp_Chiralities_Consistent>
1

> <s_lp_Variant>
AV-unprocessed.smi:2379-1

> <Gold.Version>
5.8.1

> <Gold.Id.Protein>
6NUR|6NUR_protein|mol2

> <Gold.PLP.Fitness>
45.4158

> <Gold.PLP.PLP>
-41.9252

> <Gold.PLP.part.hbond>
-1.0000

> <Gold.PLP.part.metal>
0.0000

> <Gold.PLP.part.buried>
-3.2007

> <Gold.PLP.part.nonpolar>
-38.4912

> <Gold.PLP.part.repulsive>
0.3316

> <Gold.PLP.ligand.clash>
0.0000

> <Gold.PLP.ligand.torsion>
1.2734

> <Gold.PLP.Chemscore.Hbond>
2.0000

> <Gold.PLP.Chemscore.CHOScore>
0.0000

> <Gold.PLP.Chemscore.Metal>
0.0000

> <Gold.Chemscore.Hbonds>
donor molecule, donor type, donor heavy atom, donor atom, acceptor molecule, acceptor atom, score
      L1  H    15    53       P1  7948  2.00

> <Gold.PLP.Chemscore.Internal.Correction>
0.0373

> <Gold.Rescore>
     Score         DG    S(hbond)    S(metal)    S(lipo)     H(rot)  DE(clash)    DE(int)     intcor
     15.77     -18.44       0.98        0.00     112.78       1.37       0.05       2.62       ----

> <Gold.Chemscore.Fitness>
15.7671

> <Gold.Chemscore.DG>
-18.4355

> <Gold.Chemscore.ZeroCoef>
-5.4800

> <Gold.Chemscore.Hbond>
0.9802

> <Gold.Chemscore.Metal>
0.0000

> <Gold.Chemscore.Lipo>
112.7790

> <Gold.Chemscore.Internal_Hbond>
0.0000

> <Gold.Chemscore.DEClash>
0.0468

> <Gold.Chemscore.DEInternal>
2.6216

> <Gold.Chemscore.Rot>
1.3725

> <Gold.Chemscore.Internal.Correction>
   9.000000E+99

> <Gold.Chemscore.Hbonds>
donor molecule, donor type, donor heavy atom, donor atom, acceptor molecule, acceptor atom, score
      L1  H    15    53       P1  7948  0.99

> <Gold.Chemscore.Hbond.Weighted>
-3.2739

> <Gold.Chemscore.Metal.Weighted>
-0.0000

> <Gold.Chemscore.Lipo.Weighted>
-13.1951

> <Gold.Chemscore.Internal_Hbond.Weighted>
0.0000

> <Gold.Chemscore.DEClash.Weighted>
0.0468

> <Gold.Chemscore.DEInternal.Weighted>
2.6216

> <Gold.Chemscore.Rot.Weighted>
3.5136

> <Gold.Chemscore.Internal.Correction.Weighted>
   9.000000E+99

> <Gold.Protein.RotatedTorsions>
[ 6907 6896 6895 6894 ] final   72.53 input  -60.11 | X-H torsion
[ 7974 7965 7964 7962 ] final  141.75 input  175.53 | X-H torsion
[ 8008 7997 7996 7995 ] final  127.79 input   59.86 | X-H torsion
[ 10167 10162 10161 10158 ] final   -8.35 input  -65.29 | X-H torsion
[ 10718 10713 10712 10709 ] final  170.80 input   66.30 | X-H torsion
[ 10763 10752 10751 10750 ] final   33.49 input  -60.55 | X-H torsion
[ 11005 11000 10999 10996 ] final  152.05 input  -57.11 | X-H torsion

> <Gold.Protein.ActiveResidues>
 VAL166  LYS551  ARG553  GLY616  TRP617  ASP618  TYR619  PRO620  LYS621  CYS622 
 ASP623  PHE694  ASN695  SER759  ASP760  ASP761  ALA762  ILE779  LEU786  VAL792 
 PHE793  MET794  SER795  GLU796  ALA797  LYS798  CYS799  TRP800  GLU811  SER814 

> <Gold.Protein.RotatedAtoms>
  152.4873  134.4558  159.9588 H   0  0  0  0  0  0  0  0  0  0  0  0  # atno 6907 bound_to 6896
  151.4551  133.3601  159.2809 H   0  0  0  0  0  0  0  0  0  0  0  0  # atno 6908 bound_to 6896
  150.8994  134.8430  159.7410 H   0  0  0  0  0  0  0  0  0  0  0  0  # atno 6909 bound_to 6896
  144.9068  139.5346  143.5727 H   0  0  0  0  0  0  0  0  0  0  0  0  # atno 7974 bound_to 7965
  156.2899  140.2660  156.2330 H   0  0  0  0  0  0  0  0  0  0  0  0  # atno 8008 bound_to 7997
  155.0053  140.0387  157.2395 H   0  0  0  0  0  0  0  0  0  0  0  0  # atno 8009 bound_to 7997
  154.7565  140.2753  155.6254 H   0  0  0  0  0  0  0  0  0  0  0  0  # atno 8010 bound_to 7997
  140.7056  143.5979  150.8827 H   0  0  0  0  0  0  0  0  0  0  0  0  # atno 10167 bound_to 10162
  157.0028  131.0181  151.2826 H   0  0  0  0  0  0  0  0  0  0  0  0  # atno 10718 bound_to 10713
  153.0209  135.6385  154.1520 H   0  0  0  0  0  0  0  0  0  0  0  0  # atno 10763 bound_to 10752
  154.1255  135.2844  155.3200 H   0  0  0  0  0  0  0  0  0  0  0  0  # atno 10764 bound_to 10752
  154.6233  135.5517  153.7661 H   0  0  0  0  0  0  0  0  0  0  0  0  # atno 10765 bound_to 10752
  140.1273  134.8825  157.2155 H   0  0  0  0  0  0  0  0  0  0  0  0  # atno 11005 bound_to 11000
  146.3138  139.7843  142.8999 LP  0  0  0  0  0  0  0  0  0  0  0  0  # atno 17320 bound_to 7965
  145.3521  141.0309  143.3332 LP  0  0  0  0  0  0  0  0  0  0  0  0  # atno 17321 bound_to 7965
  139.9704  143.6063  152.2975 LP  0  0  0  0  0  0  0  0  0  0  0  0  # atno 17342 bound_to 10162
  139.6648  144.7662  151.1894 LP  0  0  0  0  0  0  0  0  0  0  0  0  # atno 17343 bound_to 10162
  157.5378  130.8100  149.7992 LP  0  0  0  0  0  0  0  0  0  0  0  0  # atno 17370 bound_to 10713
  156.0165  130.3812  150.2096 LP  0  0  0  0  0  0  0  0  0  0  0  0  # atno 17371 bound_to 10713
  140.2888  134.3265  155.7321 LP  0  0  0  0  0  0  0  0  0  0  0  0  # atno 17394 bound_to 11000
  141.2163  133.7522  156.9472 LP  0  0  0  0  0  0  0  0  0  0  0  0  # atno 17395 bound_to 11000

$$$$
