AV-unprocessed.smi:532|AV-procd|sdf|2850|dock5
  -GOLD-   2262023343D 1   1.00000     0.00000
 Structure written by MMmdl.
 49 51  0  0  0  0  0  0  0  0  1 V2000
  144.5491  138.7870  160.2782 C   0  0  0  0  0  0  0  0  0  0  0  0
  145.7145  138.0407  159.9753 O   0  0  0  0  0  0  0  0  0  0  0  0
  146.0232  138.0580  158.5923 C   0  0  0  0  0  0  0  0  0  0  0  0
  146.9003  136.8447  158.2623 C   0  0  0  0  0  0  0  0  0  0  0  0
  148.2660  137.0302  158.7327 N   0  0  0  0  0  0  0  0  0  0  0  0
  148.8388  136.5324  159.8578 C   0  0  0  0  0  0  0  0  0  0  0  0
  148.1166  135.7427  160.7476 N   0  0  0  0  0  0  0  0  0  0  0  0
  147.9402  136.1011  162.1556 C   0  0  0  0  0  0  0  0  0  0  0  0
  146.5980  135.6268  162.7577 C   0  0  1  0  0  0  0  0  0  0  0  0
  145.3983  136.4774  162.3089 C   0  0  0  0  0  0  0  0  0  0  0  0
  146.3882  134.1245  162.5013 C   0  0  0  0  0  0  0  0  0  0  0  0
  146.6070  133.7771  161.0201 C   0  0  2  0  0  0  0  0  0  0  0  0
  146.4723  132.2686  160.7728 C   0  0  0  0  0  0  0  0  0  0  0  0
  147.9807  134.3002  160.5637 C   0  0  0  0  0  0  0  0  0  0  0  0
  150.1244  136.8552  160.0245 N   0  0  0  0  0  0  0  0  0  0  0  0
  150.3883  137.6417  158.9124 C   0  0  0  0  0  0  0  0  0  0  0  0
  149.2870  137.7622  158.1291 C   0  0  0  0  0  0  0  0  0  0  0  0
  149.2825  138.5477  156.8899 C   0  0  0  0  0  0  0  0  0  0  0  0
  148.2917  138.6783  156.1745 O   0  0  0  0  0  0  0  0  0  0  0  0
  150.4829  139.1161  156.6195 N   0  0  0  0  0  0  0  0  0  0  0  0
  151.6299  139.0342  157.3617 C   0  0  0  0  0  0  0  0  0  0  0  0
  152.6457  139.6140  156.9791 O   0  0  0  0  0  0  0  0  0  0  0  0
  151.5887  138.2952  158.5187 N   0  0  0  0  0  0  0  0  0  0  0  0
  152.7588  138.1465  159.3862 C   0  0  0  0  0  0  0  0  0  0  0  0
  150.5368  139.6657  155.7744 H   0  0  0  0  0  0  0  0  0  0  0  0
  144.3537  138.7436  161.3497 H   0  0  0  0  0  0  0  0  0  0  0  0
  143.6776  138.3846  159.7602 H   0  0  0  0  0  0  0  0  0  0  0  0
  144.6684  139.8352  160.0007 H   0  0  0  0  0  0  0  0  0  0  0  0
  145.1058  138.0323  158.0023 H   0  0  0  0  0  0  0  0  0  0  0  0
  146.5467  138.9803  158.3384 H   0  0  0  0  0  0  0  0  0  0  0  0
  146.4901  135.9399  158.7091 H   0  0  0  0  0  0  0  0  0  0  0  0
  146.9120  136.6599  157.1885 H   0  0  0  0  0  0  0  0  0  0  0  0
  148.7655  135.6624  162.7178 H   0  0  0  0  0  0  0  0  0  0  0  0
  148.0384  137.1812  162.2697 H   0  0  0  0  0  0  0  0  0  0  0  0
  146.6690  135.7615  163.8375 H   0  0  0  0  0  0  0  0  0  0  0  0
  145.2287  136.4127  161.2358 H   0  0  0  0  0  0  0  0  0  0  0  0
  145.5474  137.5271  162.5613 H   0  0  0  0  0  0  0  0  0  0  0  0
  144.4830  136.1521  162.8037 H   0  0  0  0  0  0  0  0  0  0  0  0
  147.0958  133.5590  163.1095 H   0  0  0  0  0  0  0  0  0  0  0  0
  145.3931  133.8171  162.8252 H   0  0  0  0  0  0  0  0  0  0  0  0
  145.8387  134.2744  160.4266 H   0  0  0  0  0  0  0  0  0  0  0  0
  147.2241  131.7066  161.3280 H   0  0  0  0  0  0  0  0  0  0  0  0
  146.5931  132.0328  159.7150 H   0  0  0  0  0  0  0  0  0  0  0  0
  145.4911  131.9066  161.0806 H   0  0  0  0  0  0  0  0  0  0  0  0
  148.1301  134.0650  159.5091 H   0  0  0  0  0  0  0  0  0  0  0  0
  148.7797  133.7965  161.1094 H   0  0  0  0  0  0  0  0  0  0  0  0
  153.6483  138.6647  159.0268 H   0  0  0  0  0  0  0  0  0  0  0  0
  153.0144  137.0911  159.4874 H   0  0  0  0  0  0  0  0  0  0  0  0
  152.5348  138.5338  160.3805 H   0  0  0  0  0  0  0  0  0  0  0  0
  1  2  1  0  0  0  0
  1 26  1  0  0  0  0
  1 27  1  0  0  0  0
  1 28  1  0  0  0  0
  2  3  1  0  0  0  0
  3  4  1  0  0  0  0
  3 29  1  0  0  0  0
  3 30  1  0  0  0  0
  4  5  1  0  0  0  0
  4 31  1  0  0  0  0
  4 32  1  0  0  0  0
  5 17  1  0  0  0  0
  5  6  1  0  0  0  0
  6  7  1  0  0  0  0
  6 15  2  0  0  0  0
  7 14  1  0  0  0  0
  7  8  1  0  0  0  0
  8  9  1  0  0  0  0
  8 33  1  0  0  0  0
  8 34  1  0  0  0  0
  9 10  1  0  0  0  0
  9 11  1  0  0  0  0
  9 35  1  0  0  0  0
 10 36  1  0  0  0  0
 10 37  1  0  0  0  0
 10 38  1  0  0  0  0
 11 12  1  0  0  0  0
 11 39  1  0  0  0  0
 11 40  1  0  0  0  0
 12 13  1  0  0  0  0
 12 14  1  0  0  0  0
 12 41  1  0  0  0  0
 13 42  1  0  0  0  0
 13 43  1  0  0  0  0
 13 44  1  0  0  0  0
 14 45  1  0  0  0  0
 14 46  1  0  0  0  0
 15 16  1  0  0  0  0
 16 23  1  0  0  0  0
 16 17  2  0  0  0  0
 17 18  1  0  0  0  0
 18 19  2  0  0  0  0
 18 20  1  0  0  0  0
 20 25  1  0  0  0  0
 20 21  1  0  0  0  0
 21 22  2  0  0  0  0
 21 23  1  0  0  0  0
 23 24  1  0  0  0  0
 24 47  1  0  0  0  0
 24 48  1  0  0  0  0
 24 49  1  0  0  0  0
M  END
> <s_m_source_file>
AV-unprocessed.smi

> <i_m_source_file_index>
532

> <i_lp_mmshare_version>
43012

> <i_f3d_flags>
0

> <s_epik_input>
W0NIM11uMWMoPU8pW25IXWMoPU8pYyhjMTIpbihbQ0gyXVtDSDJdT1tDSDNdKWMobjIpTjNbQ0gyXVtDQEBIXShbQ0gzXSlbQ0gyXVtDQEBIXShbQ0gzXSlbQ0gyXTM=

> <s_epik_cmdline>
J2VwaWtfcHl0aG9uJywgJy1waCcsICc3LjAnLCAnLXRuJywgJzgnLCAnLW1hJywgJzIwMCcsICctbWV0YWxfYmluZGluZycsICctaW1hZScsICc8aW5maWxlLm1hZT4nLCAnLW9tYWUnLCAnPG91dGZpbGUubWFlPic=

> <r_lp_tautomer_probability>
1

> <r_epik_Ionization_Penalty>
0.000642525

> <r_epik_Ionization_Penalty_Charging>
0.000121571

> <r_epik_Ionization_Penalty_Neutral>
0.000520954

> <r_epik_State_Penalty>
-0

> <r_epik_Charging_Adjusted_Penalty>
0.000121571

> <i_epik_Tot_Q>
0

> <i_epik_Tot_abs_Q>
0

> <r_epik_Metal_State_Penalty>
0.0931709

> <b_epik_Metal_Only>
0

> <s_lp_Force_Field>
OPLS_2005

> <r_lp_Energy>
43.7667

> <b_lp_Chiralities_Consistent>
1

> <s_lp_Variant>
AV-unprocessed.smi:532-3

> <Gold.Version>
5.8.1

> <Gold.Id.Protein>
6NUR|6NUR_protein|mol2

> <Gold.PLP.Fitness>
38.2834

> <Gold.PLP.PLP>
-32.4353

> <Gold.PLP.part.hbond>
-3.7633

> <Gold.PLP.part.metal>
0.0000

> <Gold.PLP.part.buried>
-4.8906

> <Gold.PLP.part.nonpolar>
-24.9797

> <Gold.PLP.part.repulsive>
0.0107

> <Gold.PLP.ligand.clash>
0.0000

> <Gold.PLP.ligand.torsion>
1.7383

> <Gold.PLP.Chemscore.Hbond>
2.8070

> <Gold.PLP.Chemscore.CHOScore>
0.0000

> <Gold.PLP.Chemscore.Metal>
0.0000

> <Gold.Chemscore.Hbonds>
donor molecule, donor type, donor heavy atom, donor atom, acceptor molecule, acceptor atom, score
      P1  H  6896  6907       L1    15  0.99
      P1  H  6934  6947       L1     2  0.82
      P1  H  7997  8009       L1    22  1.00

> <Gold.PLP.Chemscore.Internal.Correction>
0.9038

> <Gold.Rescore>
     Score         DG    S(hbond)    S(metal)    S(lipo)     H(rot)  DE(clash)    DE(int)     intcor
     14.21     -15.93       2.10        0.00      60.86       1.43       0.02       1.70       ----

> <Gold.Chemscore.Fitness>
14.2121

> <Gold.Chemscore.DG>
-15.9329

> <Gold.Chemscore.ZeroCoef>
-5.4800

> <Gold.Chemscore.Hbond>
2.0955

> <Gold.Chemscore.Metal>
0.0000

> <Gold.Chemscore.Lipo>
60.8619

> <Gold.Chemscore.Internal_Hbond>
0.0000

> <Gold.Chemscore.DEClash>
0.0234

> <Gold.Chemscore.DEInternal>
1.6974

> <Gold.Chemscore.Rot>
1.4324

> <Gold.Chemscore.Internal.Correction>
   9.000000E+99

> <Gold.Chemscore.Hbonds>
donor molecule, donor type, donor heavy atom, donor atom, acceptor molecule, acceptor atom, score
      P1  H  6896  6907       L1    15  0.31
      P1  H  6934  6947       L1     2  0.19
      P1  H  7997  8009       L1    22  1.00

> <Gold.Chemscore.Hbond.Weighted>
-6.9989

> <Gold.Chemscore.Metal.Weighted>
-0.0000

> <Gold.Chemscore.Lipo.Weighted>
-7.1208

> <Gold.Chemscore.Internal_Hbond.Weighted>
0.0000

> <Gold.Chemscore.DEClash.Weighted>
0.0234

> <Gold.Chemscore.DEInternal.Weighted>
1.6974

> <Gold.Chemscore.Rot.Weighted>
3.6669

> <Gold.Chemscore.Internal.Correction.Weighted>
   9.000000E+99

> <Gold.Protein.RotatedTorsions>
[ 6907 6896 6895 6894 ] final  -28.81 input  -60.11 | X-H torsion
[ 7974 7965 7964 7962 ] final   52.16 input  175.53 | X-H torsion
[ 8008 7997 7996 7995 ] final  176.95 input   59.86 | X-H torsion
[ 10167 10162 10161 10158 ] final  115.03 input  -65.29 | X-H torsion
[ 10718 10713 10712 10709 ] final -124.90 input   66.30 | X-H torsion
[ 10763 10752 10751 10750 ] final   98.63 input  -60.55 | X-H torsion
[ 11005 11000 10999 10996 ] final  -12.27 input  -57.11 | X-H torsion

> <Gold.Protein.ActiveResidues>
 VAL166  LYS551  ARG553  GLY616  TRP617  ASP618  TYR619  PRO620  LYS621  CYS622 
 ASP623  PHE694  ASN695  SER759  ASP760  ASP761  ALA762  ILE779  LEU786  VAL792 
 PHE793  MET794  SER795  GLU796  ALA797  LYS798  CYS799  TRP800  GLU811  SER814 

> <Gold.Protein.RotatedAtoms>
  151.1278  135.0114  159.8568 H   0  0  0  0  0  0  0  0  0  0  0  0  # atno 6907 bound_to 6896
  152.5450  134.1646  159.8582 H   0  0  0  0  0  0  0  0  0  0  0  0  # atno 6908 bound_to 6896
  151.1710  133.4739  159.2627 H   0  0  0  0  0  0  0  0  0  0  0  0  # atno 6909 bound_to 6896
  145.9841  139.4272  143.0113 H   0  0  0  0  0  0  0  0  0  0  0  0  # atno 7974 bound_to 7965
  156.0709  140.1370  156.9830 H   0  0  0  0  0  0  0  0  0  0  0  0  # atno 8008 bound_to 7997
  154.4531  140.0972  156.6729 H   0  0  0  0  0  0  0  0  0  0  0  0  # atno 8009 bound_to 7997
  155.5229  140.3456  155.4413 H   0  0  0  0  0  0  0  0  0  0  0  0  # atno 8010 bound_to 7997
  139.6346  144.7118  151.2361 H   0  0  0  0  0  0  0  0  0  0  0  0  # atno 10167 bound_to 10162
  156.1628  130.6613  151.0073 H   0  0  0  0  0  0  0  0  0  0  0  0  # atno 10718 bound_to 10713
  153.2914  135.4141  155.1170 H   0  0  0  0  0  0  0  0  0  0  0  0  # atno 10763 bound_to 10752
  154.8521  135.3519  154.5976 H   0  0  0  0  0  0  0  0  0  0  0  0  # atno 10764 bound_to 10752
  153.6398  135.7057  153.5303 H   0  0  0  0  0  0  0  0  0  0  0  0  # atno 10765 bound_to 10752
  140.7639  133.8492  155.9148 H   0  0  0  0  0  0  0  0  0  0  0  0  # atno 11005 bound_to 11000
  145.7726  140.9890  143.1141 LP  0  0  0  0  0  0  0  0  0  0  0  0  # atno 17320 bound_to 7965
  144.6870  139.9465  143.7476 LP  0  0  0  0  0  0  0  0  0  0  0  0  # atno 17321 bound_to 7965
  140.7458  143.6419  150.8327 LP  0  0  0  0  0  0  0  0  0  0  0  0  # atno 17342 bound_to 10162
  140.0048  143.5705  152.2862 LP  0  0  0  0  0  0  0  0  0  0  0  0  # atno 17343 bound_to 10162
  157.6745  131.0853  150.7529 LP  0  0  0  0  0  0  0  0  0  0  0  0  # atno 17370 bound_to 10713
  156.7591  130.4793  149.5440 LP  0  0  0  0  0  0  0  0  0  0  0  0  # atno 17371 bound_to 10713
  140.9637  134.1622  157.4633 LP  0  0  0  0  0  0  0  0  0  0  0  0  # atno 17394 bound_to 11000
  139.8766  134.9954  156.5741 LP  0  0  0  0  0  0  0  0  0  0  0  0  # atno 17395 bound_to 11000

$$$$
