AV-unprocessed.smi:12|AV-procd|sdf|68|dock7
  -GOLD-   2262015193D 1   1.00000     0.00000
 Structure written by MMmdl.
 41 44  0  0  0  0  0  0  0  0  1 V2000
  145.2702  137.1012  153.5878 C   0  0  0  0  0  0  0  0  0  0  0  0
  145.8063  138.3893  154.1858 C   0  0  0  0  0  0  0  0  0  0  0  0
  147.0235  138.8776  153.8492 C   0  0  0  0  0  0  0  0  0  0  0  0
  147.4641  140.0366  154.4244 N   0  0  0  0  0  0  0  0  0  0  0  0
  146.6389  140.7187  155.3445 C   0  0  0  0  0  0  0  0  0  0  0  0
  145.4629  140.3182  155.7161 N   0  0  0  0  0  0  0  0  0  0  0  0
  144.9656  139.1209  155.1665 C   0  0  0  0  0  0  0  0  0  0  0  0
  143.8584  138.6967  155.4941 O   0  0  0  0  0  0  0  0  0  0  0  0
  147.2801  141.8457  155.7588 O   0  0  0  0  0  0  0  0  0  0  0  0
  148.5704  141.9297  155.1365 C   0  0  1  0  0  0  0  0  0  0  0  0
  149.6674  141.7071  156.1745 C   0  0  2  0  0  0  0  0  0  0  0  0
  150.7954  142.5118  155.8854 O   0  0  0  0  0  0  0  0  0  0  0  0
  149.9724  140.2071  156.0600 C   0  0  2  0  0  0  0  0  0  0  0  0
  151.3706  139.7719  156.5187 C   0  0  0  0  0  0  0  0  0  0  0  0
  151.7417  140.5438  157.6488 O   0  0  0  0  0  0  0  0  0  0  0  0
  152.5476  140.0193  158.5913 C   0  0  0  0  0  0  0  0  0  0  0  0
  152.9933  138.8708  158.5462 O   0  0  0  0  0  0  0  0  0  0  0  0
  152.8481  140.9774  159.6941 C   0  0  0  0  0  0  0  0  0  0  0  0
  152.4487  142.3284  159.5674 C   0  0  0  0  0  0  0  0  0  0  0  0
  152.7186  143.2553  160.5929 C   0  0  0  0  0  0  0  0  0  0  0  0
  153.3931  142.8431  161.7569 C   0  0  0  0  0  0  0  0  0  0  0  0
  153.7969  141.5023  161.8944 C   0  0  0  0  0  0  0  0  0  0  0  0
  153.5267  140.5734  160.8705 C   0  0  0  0  0  0  0  0  0  0  0  0
  149.7789  139.9425  154.6762 O   0  0  0  0  0  0  0  0  0  0  0  0
  148.7350  140.7275  154.1835 C   0  0  1  0  0  0  0  0  0  0  0  0
  145.9776  136.6687  152.8798 H   0  0  0  0  0  0  0  0  0  0  0  0
  144.3341  137.2849  153.0594 H   0  0  0  0  0  0  0  0  0  0  0  0
  145.0853  136.3659  154.3715 H   0  0  0  0  0  0  0  0  0  0  0  0
  147.6541  138.3620  153.1397 H   0  0  0  0  0  0  0  0  0  0  0  0
  148.6728  142.8709  154.5941 H   0  0  0  0  0  0  0  0  0  0  0  0
  149.3299  141.9664  157.1786 H   0  0  0  0  0  0  0  0  0  0  0  0
  150.4958  143.3323  155.5246 H   0  0  0  0  0  0  0  0  0  0  0  0
  149.2171  139.6576  156.6251 H   0  0  0  0  0  0  0  0  0  0  0  0
  151.3877  138.7082  156.7602 H   0  0  0  0  0  0  0  0  0  0  0  0
  152.0912  139.9431  155.7177 H   0  0  0  0  0  0  0  0  0  0  0  0
  151.9295  142.6682  158.6828 H   0  0  0  0  0  0  0  0  0  0  0  0
  152.4067  144.2837  160.4856 H   0  0  0  0  0  0  0  0  0  0  0  0
  153.6006  143.5543  162.5429 H   0  0  0  0  0  0  0  0  0  0  0  0
  154.3153  141.1843  162.7870 H   0  0  0  0  0  0  0  0  0  0  0  0
  153.8523  139.5526  161.0075 H   0  0  0  0  0  0  0  0  0  0  0  0
  148.7647  140.9462  153.1158 H   0  0  0  0  0  0  0  0  0  0  0  0
  1  2  1  0  0  0  0
  1 26  1  0  0  0  0
  1 27  1  0  0  0  0
  1 28  1  0  0  0  0
  2  7  1  0  0  0  0
  2  3  2  0  0  0  0
  3  4  1  0  0  0  0
  3 29  1  0  0  0  0
  4 25  1  0  0  0  0
  4  5  1  0  0  0  0
  5  6  2  0  0  0  0
  5  9  1  0  0  0  0
  6  7  1  0  0  0  0
  7  8  2  0  0  0  0
  9 10  1  0  0  0  0
 10 25  1  0  0  0  0
 10 11  1  0  0  0  0
 10 30  1  0  0  0  0
 11 12  1  0  0  0  0
 11 13  1  0  0  0  0
 11 31  1  0  0  0  0
 12 32  1  0  0  0  0
 13 14  1  0  0  0  0
 13 24  1  0  0  0  0
 13 33  1  0  0  0  0
 14 15  1  0  0  0  0
 14 34  1  0  0  0  0
 14 35  1  0  0  0  0
 15 16  1  0  0  0  0
 16 17  2  0  0  0  0
 16 18  1  0  0  0  0
 18 23  1  0  0  0  0
 18 19  2  0  0  0  0
 19 20  1  0  0  0  0
 19 36  1  0  0  0  0
 20 21  2  0  0  0  0
 20 37  1  0  0  0  0
 21 22  1  0  0  0  0
 21 38  1  0  0  0  0
 22 23  2  0  0  0  0
 22 39  1  0  0  0  0
 23 40  1  0  0  0  0
 24 25  1  0  0  0  0
 25 41  1  0  0  0  0
M  END
> <s_m_source_file>
AV-unprocessed.smi

> <i_m_source_file_index>
12

> <i_lp_mmshare_version>
43012

> <i_f3d_flags>
0

> <s_epik_input>
W0NIM11jKFtjSF0xKWMoPU8pbmMobjEyKU9bQ0BIXTNbQ0BASF0yT1tDQEBIXShbQ0BASF0zW09IXSlbQ0gyXU9DKD1PKWM0W2NIXVtjSF1bY0hdW2NIXVtjSF00

> <s_epik_cmdline>
J2VwaWtfcHl0aG9uJywgJy1waCcsICc3LjAnLCAnLXRuJywgJzgnLCAnLW1hJywgJzIwMCcsICctbWV0YWxfYmluZGluZycsICctaW1hZScsICc8aW5maWxlLm1hZT4nLCAnLW9tYWUnLCAnPG91dGZpbGUubWFlPic=

> <r_lp_tautomer_probability>
0.933681

> <r_epik_Ionization_Penalty>
0.00399549

> <r_epik_Ionization_Penalty_Charging>
3.09373e-09

> <r_epik_Ionization_Penalty_Neutral>
0.00399549

> <r_epik_State_Penalty>
0.00284953

> <r_epik_Charging_Adjusted_Penalty>
0.00284953

> <i_epik_Tot_Q>
0

> <i_epik_Tot_abs_Q>
0

> <r_epik_Metal_State_Penalty>
-0

> <b_epik_Metal_Only>
0

> <s_epik_Chemistry_Notes>
This compound has an ester and may undergo hydrolysis at high or low pH. This compound contains an acetal/aminal-like group ( X-CH(R)-Y where X, Y are N, S, or O) that may be acid/base labile, releasing an aldehyde.

> <s_lp_Force_Field>
OPLS_2005

> <r_lp_Energy>
39.7302

> <b_lp_Chiralities_Consistent>
1

> <s_lp_Variant>
AV-unprocessed.smi:12-8

> <Gold.Version>
5.8.1

> <Gold.Id.Protein>
6NUR|6NUR_protein|mol2

> <Gold.PLP.Fitness>
51.5909

> <Gold.PLP.PLP>
-37.6987

> <Gold.PLP.part.hbond>
-3.0000

> <Gold.PLP.part.metal>
0.0000

> <Gold.PLP.part.buried>
-0.0630

> <Gold.PLP.part.nonpolar>
-34.8565

> <Gold.PLP.part.repulsive>
0.3038

> <Gold.PLP.ligand.clash>
0.0000

> <Gold.PLP.ligand.torsion>
0.4968

> <Gold.PLP.Chemscore.Hbond>
2.9760

> <Gold.PLP.Chemscore.CHOScore>
1.9846

> <Gold.PLP.Chemscore.Metal>
0.0000

> <Gold.Chemscore.Hbonds>
donor molecule, donor type, donor heavy atom, donor atom, acceptor molecule, acceptor atom, score
      L1  H    12    32       P1  8028  0.66
      P1  H  7989  7998       L1    24  0.13
      L1  C     3    29       P1  7948  0.35

> <Gold.PLP.Chemscore.Internal.Correction>
0.0039

> <Gold.Rescore>
     Score         DG    S(hbond)    S(metal)    S(lipo)     H(rot)  DE(clash)    DE(int)     intcor
     16.40     -20.13       2.68        0.00      96.25       2.18       1.77       1.96       ----

> <Gold.Chemscore.Fitness>
16.3998

> <Gold.Chemscore.DG>
-20.1270

> <Gold.Chemscore.ZeroCoef>
-5.4800

> <Gold.Chemscore.Hbond>
2.6844

> <Gold.Chemscore.Metal>
0.0000

> <Gold.Chemscore.Lipo>
96.2540

> <Gold.Chemscore.Internal_Hbond>
0.0000

> <Gold.Chemscore.DEClash>
1.7708

> <Gold.Chemscore.DEInternal>
1.9564

> <Gold.Chemscore.Rot>
2.1800

> <Gold.Chemscore.Internal.Correction>
   9.000000E+99

> <Gold.Chemscore.Hbonds>
donor molecule, donor type, donor heavy atom, donor atom, acceptor molecule, acceptor atom, score
      L1  H    12    32       P1  8028  0.64
      P1  H  7989  7998       L1    24  0.03

> <Gold.Chemscore.Hbond.Weighted>
-8.9660

> <Gold.Chemscore.Metal.Weighted>
-0.0000

> <Gold.Chemscore.Lipo.Weighted>
-11.2617

> <Gold.Chemscore.Internal_Hbond.Weighted>
0.0000

> <Gold.Chemscore.DEClash.Weighted>
1.7708

> <Gold.Chemscore.DEInternal.Weighted>
1.9564

> <Gold.Chemscore.Rot.Weighted>
5.5807

> <Gold.Chemscore.Internal.Correction.Weighted>
   9.000000E+99

> <Gold.Protein.RotatedTorsions>
[ 6907 6896 6895 6894 ] final   27.12 input  -60.11 | X-H torsion
[ 7974 7965 7964 7962 ] final   68.51 input  175.53 | X-H torsion
[ 8008 7997 7996 7995 ] final  132.72 input   59.86 | X-H torsion
[ 10167 10162 10161 10158 ] final  126.76 input  -65.29 | X-H torsion
[ 10718 10713 10712 10709 ] final   79.98 input   66.30 | X-H torsion
[ 10763 10752 10751 10750 ] final  142.15 input  -60.55 | X-H torsion
[ 11005 11000 10999 10996 ] final -120.94 input  -57.11 | X-H torsion

> <Gold.Protein.ActiveResidues>
 VAL166  LYS551  ARG553  GLY616  TRP617  ASP618  TYR619  PRO620  LYS621  CYS622 
 ASP623  PHE694  ASN695  SER759  ASP760  ASP761  ALA762  ILE779  LEU786  VAL792 
 PHE793  MET794  SER795  GLU796  ALA797  LYS798  CYS799  TRP800  GLU811  SER814 

> <Gold.Protein.RotatedAtoms>
  151.9975  134.9946  160.0563 H   0  0  0  0  0  0  0  0  0  0  0  0  # atno 6907 bound_to 6896
  152.1550  133.4541  159.4840 H   0  0  0  0  0  0  0  0  0  0  0  0  # atno 6908 bound_to 6896
  150.6880  134.2060  159.4383 H   0  0  0  0  0  0  0  0  0  0  0  0  # atno 6909 bound_to 6896
  145.8017  139.2986  143.1151 H   0  0  0  0  0  0  0  0  0  0  0  0  # atno 7974 bound_to 7965
  156.2985  140.2539  156.3136 H   0  0  0  0  0  0  0  0  0  0  0  0  # atno 8008 bound_to 7997
  154.9302  140.0398  157.2063 H   0  0  0  0  0  0  0  0  0  0  0  0  # atno 8009 bound_to 7997
  154.8225  140.2862  155.5781 H   0  0  0  0  0  0  0  0  0  0  0  0  # atno 8010 bound_to 7997
  139.5614  144.6884  151.4033 H   0  0  0  0  0  0  0  0  0  0  0  0  # atno 10167 bound_to 10162
  157.6793  130.9939  150.2012 H   0  0  0  0  0  0  0  0  0  0  0  0  # atno 10718 bound_to 10713
  153.9510  135.2970  155.3438 H   0  0  0  0  0  0  0  0  0  0  0  0  # atno 10763 bound_to 10752
  154.7426  135.5017  153.9152 H   0  0  0  0  0  0  0  0  0  0  0  0  # atno 10764 bound_to 10752
  153.0994  135.6730  153.9810 H   0  0  0  0  0  0  0  0  0  0  0  0  # atno 10765 bound_to 10752
  141.0107  134.0269  157.3418 H   0  0  0  0  0  0  0  0  0  0  0  0  # atno 11005 bound_to 11000
  145.9871  140.8634  143.0085 LP  0  0  0  0  0  0  0  0  0  0  0  0  # atno 17320 bound_to 7965
  144.6768  140.2162  143.7371 LP  0  0  0  0  0  0  0  0  0  0  0  0  # atno 17321 bound_to 7965
  140.6894  143.7897  150.7233 LP  0  0  0  0  0  0  0  0  0  0  0  0  # atno 17342 bound_to 10162
  140.1375  143.4471  152.2215 LP  0  0  0  0  0  0  0  0  0  0  0  0  # atno 17343 bound_to 10162
  156.2703  130.3721  149.8039 LP  0  0  0  0  0  0  0  0  0  0  0  0  # atno 17370 bound_to 10713
  156.5758  130.8444  151.3369 LP  0  0  0  0  0  0  0  0  0  0  0  0  # atno 17371 bound_to 10713
  139.9088  135.0186  156.7602 LP  0  0  0  0  0  0  0  0  0  0  0  0  # atno 17394 bound_to 11000
  140.6739  133.9535  155.7872 LP  0  0  0  0  0  0  0  0  0  0  0  0  # atno 17395 bound_to 11000

$$$$
