AV-unprocessed.smi:794|AV-procd|sdf|3757|dock10
  -GOLD-   22720 1193D 1   1.00000     0.00000
 Structure written by MMmdl.
 41 43  0  0  0  0  0  0  0  0  1 V2000
  147.7130  136.4768  163.5883 C   0  0  0  0  0  0  0  0  0  0  0  0
  147.5213  136.1808  162.1324 C   0  0  0  0  0  0  0  0  0  0  0  0
  148.4196  136.7034  161.1970 N   0  0  0  0  0  0  0  0  0  0  0  0
  148.1120  136.3468  159.9459 C   0  0  0  0  0  0  0  0  0  0  0  0
  148.8535  136.7292  158.7978 N   0  0  0  0  0  0  0  0  0  0  0  0
  149.1499  137.9701  158.3738 C   0  0  0  0  0  0  0  0  0  0  0  0
  148.7953  139.0143  158.9214 O   0  0  0  0  0  0  0  0  0  0  0  0
  149.8886  137.9337  157.2556 N   0  0  0  0  0  0  0  0  0  0  0  0
  150.4071  139.1011  156.5405 C   0  0  1  0  0  0  0  0  0  0  0  0
  151.3595  139.9509  157.4183 C   0  0  1  0  0  0  0  0  0  0  0  0
  152.4493  139.0774  158.0764 C   0  0  0  0  0  0  0  0  0  0  0  0
  153.3308  138.6828  156.8781 C   0  0  0  0  0  0  0  0  0  0  0  0
  152.6543  139.4094  155.6966 C   0  0  2  0  0  0  0  0  0  0  0  0
  152.1817  140.6928  156.3694 C   0  0  0  0  0  0  0  0  0  0  0  0
  151.3011  138.7618  155.3121 C   0  0  1  0  0  0  0  0  0  0  0  0
  151.3617  137.2857  154.8584 C   0  0  0  0  0  0  0  0  0  0  0  0
  151.9240  137.1916  153.5668 O   0  0  0  0  0  0  0  0  0  0  0  0
  146.6815  135.3368  159.8330 S   0  0  0  0  0  0  0  0  0  0  0  0
  146.5213  135.4214  161.5697 C   0  0  0  0  0  0  0  0  0  0  0  0
  145.4054  134.7207  162.2707 C   0  0  0  0  0  0  0  0  0  0  0  0
  147.6969  135.5618  164.1809 H   0  0  0  0  0  0  0  0  0  0  0  0
  146.9222  137.1270  163.9631 H   0  0  0  0  0  0  0  0  0  0  0  0
  148.6656  136.9731  163.7779 H   0  0  0  0  0  0  0  0  0  0  0  0
  149.2100  135.9675  158.2397 H   0  0  0  0  0  0  0  0  0  0  0  0
  150.1276  137.0303  156.8742 H   0  0  0  0  0  0  0  0  0  0  0  0
  149.5773  139.7327  156.2162 H   0  0  0  0  0  0  0  0  0  0  0  0
  150.8370  140.5954  158.1259 H   0  0  0  0  0  0  0  0  0  0  0  0
  153.0271  139.6661  158.7900 H   0  0  0  0  0  0  0  0  0  0  0  0
  152.0590  138.2143  158.6149 H   0  0  0  0  0  0  0  0  0  0  0  0
  154.3470  139.0522  157.0219 H   0  0  0  0  0  0  0  0  0  0  0  0
  153.3972  137.6045  156.7408 H   0  0  0  0  0  0  0  0  0  0  0  0
  153.3179  139.5655  154.8454 H   0  0  0  0  0  0  0  0  0  0  0  0
  151.5801  141.3300  155.7186 H   0  0  0  0  0  0  0  0  0  0  0  0
  152.9942  141.2855  156.7935 H   0  0  0  0  0  0  0  0  0  0  0  0
  150.9043  139.3263  154.4660 H   0  0  0  0  0  0  0  0  0  0  0  0
  151.9348  136.6648  155.5460 H   0  0  0  0  0  0  0  0  0  0  0  0
  150.3562  136.8661  154.8174 H   0  0  0  0  0  0  0  0  0  0  0  0
  151.2325  137.2878  152.9300 H   0  0  0  0  0  0  0  0  0  0  0  0
  144.8811  135.4014  162.9420 H   0  0  0  0  0  0  0  0  0  0  0  0
  145.7850  133.8879  162.8631 H   0  0  0  0  0  0  0  0  0  0  0  0
  144.6785  134.3250  161.5606 H   0  0  0  0  0  0  0  0  0  0  0  0
  1  2  1  0  0  0  0
  1 21  1  0  0  0  0
  1 22  1  0  0  0  0
  1 23  1  0  0  0  0
  2 19  2  0  0  0  0
  2  3  1  0  0  0  0
  3  4  2  0  0  0  0
  4  5  1  0  0  0  0
  4 18  1  0  0  0  0
  5  6  1  0  0  0  0
  5 24  1  0  0  0  0
  6  7  2  0  0  0  0
  6  8  1  0  0  0  0
  8  9  1  0  0  0  0
  8 25  1  0  0  0  0
  9 15  1  0  0  0  0
  9 10  1  0  0  0  0
  9 26  1  0  0  0  0
 10 14  1  0  0  0  0
 10 11  1  0  0  0  0
 10 27  1  0  0  0  0
 11 12  1  0  0  0  0
 11 28  1  0  0  0  0
 11 29  1  0  0  0  0
 12 13  1  0  0  0  0
 12 30  1  0  0  0  0
 12 31  1  0  0  0  0
 13 14  1  0  0  0  0
 13 15  1  0  0  0  0
 13 32  1  0  0  0  0
 14 33  1  0  0  0  0
 14 34  1  0  0  0  0
 15 16  1  0  0  0  0
 15 35  1  0  0  0  0
 16 17  1  0  0  0  0
 16 36  1  0  0  0  0
 16 37  1  0  0  0  0
 17 38  1  0  0  0  0
 18 19  1  0  0  0  0
 19 20  1  0  0  0  0
 20 39  1  0  0  0  0
 20 40  1  0  0  0  0
 20 41  1  0  0  0  0
M  END
> <s_m_source_file>
AV-unprocessed.smi

> <i_m_source_file_index>
794

> <i_lp_mmshare_version>
43012

> <i_f3d_flags>
0

> <s_epik_input>
W0NIM11jMW5jKHNjMVtDSDNdKVtOSF1DKD1PKVtOSF1bQ0BIXShbQ0BASF0yMylbQ0BIXShbQ0gyXVtPSF0pW0NAQEhdKFtDSDJdMylbQ0gyXVtDSDJdMg==

> <s_epik_cmdline>
J2VwaWtfcHl0aG9uJywgJy1waCcsICc3LjAnLCAnLXRuJywgJzgnLCAnLW1hJywgJzIwMCcsICctbWV0YWxfYmluZGluZycsICctaW1hZScsICc8aW5maWxlLm1hZT4nLCAnLW9tYWUnLCAnPG91dGZpbGUubWFlPic=

> <r_lp_tautomer_probability>
0.999

> <r_epik_Ionization_Penalty>
0.000713029

> <r_epik_Ionization_Penalty_Charging>
0

> <r_epik_Ionization_Penalty_Neutral>
0.000713029

> <r_epik_State_Penalty>
0.000177984

> <r_epik_Charging_Adjusted_Penalty>
0.000177984

> <i_epik_Tot_Q>
0

> <i_epik_Tot_abs_Q>
0

> <r_epik_Metal_State_Penalty>
-0

> <b_epik_Metal_Only>
0

> <s_lp_Force_Field>
OPLS_2005

> <r_lp_Energy>
49.1423

> <b_lp_Chiralities_Consistent>
1

> <s_lp_Variant>
AV-unprocessed.smi:794-2

> <Gold.Version>
5.8.1

> <Gold.Id.Protein>
6NUR|6NUR_protein|mol2

> <Gold.PLP.Fitness>
41.9194

> <Gold.PLP.PLP>
-34.2138

> <Gold.PLP.part.hbond>
-4.0413

> <Gold.PLP.part.metal>
0.0000

> <Gold.PLP.part.buried>
0.2915

> <Gold.PLP.part.nonpolar>
-30.7314

> <Gold.PLP.part.repulsive>
0.1447

> <Gold.PLP.ligand.clash>
0.0000

> <Gold.PLP.ligand.torsion>
0.6275

> <Gold.PLP.Chemscore.Hbond>
2.9840

> <Gold.PLP.Chemscore.CHOScore>
0.0000

> <Gold.PLP.Chemscore.Metal>
0.0000

> <Gold.Chemscore.Hbonds>
donor molecule, donor type, donor heavy atom, donor atom, acceptor molecule, acceptor atom, score
      L1  H    17    38       P1  7949  0.35
      P1  H  6931  6943       L1     3  1.00
      P1  H 10752 10764       L1    17  1.00

> <Gold.PLP.Chemscore.Internal.Correction>
0.0086

> <Gold.Rescore>
     Score         DG    S(hbond)    S(metal)    S(lipo)     H(rot)  DE(clash)    DE(int)     intcor
     15.37     -17.58       2.03        0.00      84.46       1.78       1.52       0.69       ----

> <Gold.Chemscore.Fitness>
15.3663

> <Gold.Chemscore.DG>
-17.5766

> <Gold.Chemscore.ZeroCoef>
-5.4800

> <Gold.Chemscore.Hbond>
2.0272

> <Gold.Chemscore.Metal>
0.0000

> <Gold.Chemscore.Lipo>
84.4621

> <Gold.Chemscore.Internal_Hbond>
0.0000

> <Gold.Chemscore.DEClash>
1.5194

> <Gold.Chemscore.DEInternal>
0.6910

> <Gold.Chemscore.Rot>
1.7798

> <Gold.Chemscore.Internal.Correction>
   9.000000E+99

> <Gold.Chemscore.Hbonds>
donor molecule, donor type, donor heavy atom, donor atom, acceptor molecule, acceptor atom, score
      L1  H    17    38       P1  7949  0.20
      P1  H  6931  6943       L1     3  0.55
      P1  H 10752 10764       L1    17  0.33

> <Gold.Chemscore.Hbond.Weighted>
-6.7708

> <Gold.Chemscore.Metal.Weighted>
-0.0000

> <Gold.Chemscore.Lipo.Weighted>
-9.8821

> <Gold.Chemscore.Internal_Hbond.Weighted>
0.0000

> <Gold.Chemscore.DEClash.Weighted>
1.5194

> <Gold.Chemscore.DEInternal.Weighted>
0.6910

> <Gold.Chemscore.Rot.Weighted>
4.5562

> <Gold.Chemscore.Internal.Correction.Weighted>
   9.000000E+99

> <Gold.Protein.RotatedTorsions>
[ 6907 6896 6895 6894 ] final  -41.00 input  -60.11 | X-H torsion
[ 7974 7965 7964 7962 ] final  130.50 input  175.53 | X-H torsion
[ 8008 7997 7996 7995 ] final -140.13 input   59.86 | X-H torsion
[ 10167 10162 10161 10158 ] final  -94.21 input  -65.29 | X-H torsion
[ 10718 10713 10712 10709 ] final  102.65 input   66.30 | X-H torsion
[ 10763 10752 10751 10750 ] final -111.04 input  -60.55 | X-H torsion
[ 11005 11000 10999 10996 ] final -113.66 input  -57.11 | X-H torsion

> <Gold.Protein.ActiveResidues>
 VAL166  LYS551  ARG553  GLY616  TRP617  ASP618  TYR619  PRO620  LYS621  CYS622 
 ASP623  PHE694  ASN695  SER759  ASP760  ASP761  ALA762  ILE779  LEU786  VAL792 
 PHE793  MET794  SER795  GLU796  ALA797  LYS798  CYS799  TRP800  GLU811  SER814 

> <Gold.Protein.RotatedAtoms>
  150.9719  134.9090  159.7792 H   0  0  0  0  0  0  0  0  0  0  0  0  # atno 6907 bound_to 6896
  152.5193  134.3529  159.9267 H   0  0  0  0  0  0  0  0  0  0  0  0  # atno 6908 bound_to 6896
  151.3538  133.3874  159.2717 H   0  0  0  0  0  0  0  0  0  0  0  0  # atno 6909 bound_to 6896
  145.0172  139.4165  143.5215 H   0  0  0  0  0  0  0  0  0  0  0  0  # atno 7974 bound_to 7965
  155.4562  140.0542  157.2996 H   0  0  0  0  0  0  0  0  0  0  0  0  # atno 8008 bound_to 7997
  154.4756  140.2059  155.9842 H   0  0  0  0  0  0  0  0  0  0  0  0  # atno 8009 bound_to 7997
  156.1126  140.3201  155.8099 H   0  0  0  0  0  0  0  0  0  0  0  0  # atno 8010 bound_to 7997
  140.3168  143.3073  152.0090 H   0  0  0  0  0  0  0  0  0  0  0  0  # atno 10167 bound_to 10162
  157.6796  131.0758  150.5437 H   0  0  0  0  0  0  0  0  0  0  0  0  # atno 10718 bound_to 10713
  154.8280  135.4542  154.0978 H   0  0  0  0  0  0  0  0  0  0  0  0  # atno 10763 bound_to 10752
  153.2276  135.6901  153.7933 H   0  0  0  0  0  0  0  0  0  0  0  0  # atno 10764 bound_to 10752
  153.7328  135.3324  155.3265 H   0  0  0  0  0  0  0  0  0  0  0  0  # atno 10765 bound_to 10752
  141.0601  133.9550  157.2683 H   0  0  0  0  0  0  0  0  0  0  0  0  # atno 11005 bound_to 11000
  146.3480  139.9650  142.8713 LP  0  0  0  0  0  0  0  0  0  0  0  0  # atno 17320 bound_to 7965
  145.1943  140.9826  143.4192 LP  0  0  0  0  0  0  0  0  0  0  0  0  # atno 17321 bound_to 7965
  139.4882  144.6342  151.7008 LP  0  0  0  0  0  0  0  0  0  0  0  0  # atno 17342 bound_to 10162
  140.5520  144.0410  150.6131 LP  0  0  0  0  0  0  0  0  0  0  0  0  # atno 17343 bound_to 10162
  156.5743  130.4288  149.6005 LP  0  0  0  0  0  0  0  0  0  0  0  0  # atno 17370 bound_to 10713
  156.2714  130.7019  151.1818 LP  0  0  0  0  0  0  0  0  0  0  0  0  # atno 17371 bound_to 10713
  139.9425  135.0189  156.8751 LP  0  0  0  0  0  0  0  0  0  0  0  0  # atno 17394 bound_to 11000
  140.5886  134.0283  155.7491 LP  0  0  0  0  0  0  0  0  0  0  0  0  # atno 17395 bound_to 11000

$$$$
