AV-unprocessed.smi:1588|AV-procd|sdf|6392|dock3
  -GOLD-   22720 7 23D 1   1.00000     0.00000
 Structure written by MMmdl.
 37 38  0  0  0  0  0  0  0  0  2 V2000
  145.0579  132.0314  150.6351 C   0  0  0  0  0  0  0  0  0  0  0  0
  143.5959  132.4791  150.7656 C   0  0  0  0  0  0  0  0  0  0  0  0
  143.4674  133.9525  150.8618 N   0  3  2  0  0  0  0  0  0  0  0  0
  144.4617  134.7050  150.0598 C   0  0  0  0  0  0  0  0  0  0  0  0
  145.0309  135.7983  150.9709 C   0  0  0  0  0  0  0  0  0  0  0  0
  144.0001  135.9332  152.0920 C   0  0  2  0  0  0  0  0  0  0  0  0
  144.5309  136.5398  153.4052 C   0  0  0  0  0  0  0  0  0  0  0  0
  144.9315  137.9339  153.2415 N   0  0  0  0  0  0  0  0  0  0  0  0
  146.0270  138.4960  153.7723 C   0  0  0  0  0  0  0  0  0  0  0  0
  146.8383  137.8835  154.4667 O   0  0  0  0  0  0  0  0  0  0  0  0
  146.1181  139.7947  153.4424 N   0  0  0  0  0  0  0  0  0  0  0  0
  147.1407  140.7063  153.8079 C   0  0  0  0  0  0  0  0  0  0  0  0
  148.5319  140.4753  153.6303 C   0  0  0  0  0  0  0  0  0  0  0  0
  149.2517  141.5011  154.0620 N   0  0  0  0  0  0  0  0  0  0  0  0
  148.3332  142.3848  154.5134 N   0  0  0  0  0  0  0  0  0  0  0  0
  147.0353  141.9433  154.3799 C   0  0  0  0  0  0  0  0  0  0  0  0
  143.5043  134.4947  152.2377 C   0  0  0  0  0  0  0  0  0  0  0  0
  148.6046  143.2759  154.9044 H   0  0  0  0  0  0  0  0  0  0  0  0
  145.1271  130.9436  150.6193 H   0  0  0  0  0  0  0  0  0  0  0  0
  145.6561  132.3885  151.4739 H   0  0  0  0  0  0  0  0  0  0  0  0
  145.5128  132.4007  149.7158 H   0  0  0  0  0  0  0  0  0  0  0  0
  143.0065  132.1068  149.9264 H   0  0  0  0  0  0  0  0  0  0  0  0
  143.1746  132.0327  151.6674 H   0  0  0  0  0  0  0  0  0  0  0  0
  145.2604  134.0667  149.6784 H   0  0  0  0  0  0  0  0  0  0  0  0
  143.9514  135.1425  149.2013 H   0  0  0  0  0  0  0  0  0  0  0  0
  145.9853  135.4654  151.3818 H   0  0  0  0  0  0  0  0  0  0  0  0
  145.2067  136.7355  150.4419 H   0  0  0  0  0  0  0  0  0  0  0  0
  143.1716  136.5431  151.7268 H   0  0  0  0  0  0  0  0  0  0  0  0
  143.7459  136.5099  154.1613 H   0  0  0  0  0  0  0  0  0  0  0  0
  145.3551  135.9433  153.8005 H   0  0  0  0  0  0  0  0  0  0  0  0
  144.3232  138.5179  152.6860 H   0  0  0  0  0  0  0  0  0  0  0  0
  145.3795  140.1725  152.8674 H   0  0  0  0  0  0  0  0  0  0  0  0
  149.0333  139.6155  153.2108 H   0  0  0  0  0  0  0  0  0  0  0  0
  146.1882  142.5349  154.6941 H   0  0  0  0  0  0  0  0  0  0  0  0
  142.5261  134.4397  152.7166 H   0  0  0  0  0  0  0  0  0  0  0  0
  144.2078  133.9191  152.8421 H   0  0  0  0  0  0  0  0  0  0  0  0
  142.5653  134.1991  150.4799 H   0  0  0  0  0  0  0  0  0  0  0  0
  1  2  1  0  0  0  0
  1 19  1  0  0  0  0
  1 20  1  0  0  0  0
  1 21  1  0  0  0  0
  2  3  1  0  0  0  0
  2 22  1  0  0  0  0
  2 23  1  0  0  0  0
  3 17  1  0  0  0  0
  3  4  1  0  0  0  0
  3 37  1  0  0  0  0
  4  5  1  0  0  0  0
  4 24  1  0  0  0  0
  4 25  1  0  0  0  0
  5  6  1  0  0  0  0
  5 26  1  0  0  0  0
  5 27  1  0  0  0  0
  6  7  1  0  0  0  0
  6 17  1  0  0  0  0
  6 28  1  0  0  0  0
  7  8  1  0  0  0  0
  7 29  1  0  0  0  0
  7 30  1  0  0  0  0
  8  9  1  0  0  0  0
  8 31  1  0  0  0  0
  9 10  2  0  0  0  0
  9 11  1  0  0  0  0
 11 12  1  0  0  0  0
 11 32  1  0  0  0  0
 12 16  2  0  0  0  0
 12 13  1  0  0  0  0
 13 14  2  0  0  0  0
 13 33  1  0  0  0  0
 14 15  1  0  0  0  0
 15 18  1  0  0  0  0
 15 16  1  0  0  0  0
 16 34  1  0  0  0  0
 17 35  1  0  0  0  0
 17 36  1  0  0  0  0
M  CHG  1   3   1
M  END
> <s_m_source_file>
AV-unprocessed.smi

> <i_m_source_file_index>
1588

> <i_lp_mmshare_version>
43012

> <i_f3d_flags>
0

> <s_epik_input>
W0NIM11bQ0gyXU4xW0NIMl1bQ0gyXVtDQEhdKFtDSDJdMSlbQ0gyXVtOSF1DKD1PKVtOSF1jMltjSF1uW25IXVtjSF0y

> <s_epik_cmdline>
J2VwaWtfcHl0aG9uJywgJy1waCcsICc3LjAnLCAnLXRuJywgJzgnLCAnLW1hJywgJzIwMCcsICctbWV0YWxfYmluZGluZycsICctaW1hZScsICc8aW5maWxlLm1hZT4nLCAnLW9tYWUnLCAnPG91dGZpbGUubWFlPic=

> <r_lp_tautomer_probability>
0.5

> <r_epik_Ionization_Penalty>
0.000628417

> <r_epik_Ionization_Penalty_Charging>
0.000582718

> <r_epik_Ionization_Penalty_Neutral>
4.56984e-05

> <r_epik_State_Penalty>
0.000366292

> <r_epik_Charging_Adjusted_Penalty>
0.00094901

> <i_epik_Tot_Q>
1

> <i_epik_Tot_abs_Q>
1

> <r_epik_Metal_State_Penalty>
-0

> <b_epik_Metal_Only>
0

> <s_lp_Force_Field>
OPLS_2005

> <r_lp_Energy>
30.9502

> <b_lp_Chiralities_Consistent>
1

> <s_lp_Variant>
AV-unprocessed.smi:1588-4

> <Gold.Version>
5.8.1

> <Gold.Id.Protein>
6NUR|6NUR_protein|mol2

> <Gold.PLP.Fitness>
46.5095

> <Gold.PLP.PLP>
-29.7871

> <Gold.PLP.part.hbond>
-5.7919

> <Gold.PLP.part.metal>
0.0000

> <Gold.PLP.part.buried>
-1.1609

> <Gold.PLP.part.nonpolar>
-23.5573

> <Gold.PLP.part.repulsive>
1.0291

> <Gold.PLP.ligand.clash>
0.0000

> <Gold.PLP.ligand.torsion>
0.9263

> <Gold.PLP.Chemscore.Hbond>
5.4720

> <Gold.PLP.Chemscore.CHOScore>
0.7159

> <Gold.PLP.Chemscore.Metal>
0.0000

> <Gold.Chemscore.Hbonds>
donor molecule, donor type, donor heavy atom, donor atom, acceptor molecule, acceptor atom, score
      L1  H     3    37       P1 10186  2.00
      L1  H     8    31       P1 10175  0.83
      L1  H    11    32       P1 10175  1.00
      L1  H    15    18       P1  8028  1.00
      P1  H  8011  8017       L1    14  0.67
      L1  C    13    33       P1  7957  0.60

> <Gold.PLP.Chemscore.Internal.Correction>
0.0113

> <Gold.Rescore>
     Score         DG    S(hbond)    S(metal)    S(lipo)     H(rot)  DE(clash)    DE(int)     intcor
     17.92     -20.28       3.40        0.00      63.91       1.58       1.15       1.21       ----

> <Gold.Chemscore.Fitness>
17.9178

> <Gold.Chemscore.DG>
-20.2771

> <Gold.Chemscore.ZeroCoef>
-5.4800

> <Gold.Chemscore.Hbond>
3.3988

> <Gold.Chemscore.Metal>
0.0000

> <Gold.Chemscore.Lipo>
63.9122

> <Gold.Chemscore.Internal_Hbond>
0.0000

> <Gold.Chemscore.DEClash>
1.1461

> <Gold.Chemscore.DEInternal>
1.2132

> <Gold.Chemscore.Rot>
1.5753

> <Gold.Chemscore.Internal.Correction>
   9.000000E+99

> <Gold.Chemscore.Hbonds>
donor molecule, donor type, donor heavy atom, donor atom, acceptor molecule, acceptor atom, score
      L1  H     3    37       P1 10186  0.70
      L1  H     8    31       P1 10175  0.79
      L1  H    11    32       P1 10175  0.95
      L1  H    15    18       P1  8028  0.99
      P1  H  8011  8017       L1    14  0.06

> <Gold.Chemscore.Hbond.Weighted>
-11.3521

> <Gold.Chemscore.Metal.Weighted>
-0.0000

> <Gold.Chemscore.Lipo.Weighted>
-7.4777

> <Gold.Chemscore.Internal_Hbond.Weighted>
0.0000

> <Gold.Chemscore.DEClash.Weighted>
1.1461

> <Gold.Chemscore.DEInternal.Weighted>
1.2132

> <Gold.Chemscore.Rot.Weighted>
4.0328

> <Gold.Chemscore.Internal.Correction.Weighted>
   9.000000E+99

> <Gold.Protein.RotatedTorsions>
[ 6907 6896 6895 6894 ] final  118.00 input  -60.11 | X-H torsion
[ 7974 7965 7964 7962 ] final  -36.00 input  175.53 | X-H torsion
[ 8008 7997 7996 7995 ] final   48.80 input   59.86 | X-H torsion
[ 10167 10162 10161 10158 ] final  -59.90 input  -65.29 | X-H torsion
[ 10718 10713 10712 10709 ] final  -34.91 input   66.30 | X-H torsion
[ 10763 10752 10751 10750 ] final  -42.27 input  -60.55 | X-H torsion
[ 11005 11000 10999 10996 ] final  174.33 input  -57.11 | X-H torsion

> <Gold.Protein.ActiveResidues>
 VAL166  LYS551  ARG553  GLY616  TRP617  ASP618  TYR619  PRO620  LYS621  CYS622 
 ASP623  PHE694  ASN695  SER759  ASP760  ASP761  ALA762  ILE779  LEU786  VAL792 
 PHE793  MET794  SER795  GLU796  ALA797  LYS798  CYS799  TRP800  GLU811  SER814 

> <Gold.Protein.RotatedAtoms>
  152.4573  133.7749  159.6818 H   0  0  0  0  0  0  0  0  0  0  0  0  # atno 6907 bound_to 6896
  150.8504  133.7786  159.3034 H   0  0  0  0  0  0  0  0  0  0  0  0  # atno 6908 bound_to 6896
  151.5383  135.1071  159.9972 H   0  0  0  0  0  0  0  0  0  0  0  0  # atno 6909 bound_to 6896
  146.0699  140.6227  142.8957 H   0  0  0  0  0  0  0  0  0  0  0  0  # atno 7974 bound_to 7965
  155.3916  140.3433  155.4252 H   0  0  0  0  0  0  0  0  0  0  0  0  # atno 8008 bound_to 7997
  156.1554  140.1584  156.8734 H   0  0  0  0  0  0  0  0  0  0  0  0  # atno 8009 bound_to 7997
  154.5090  140.0795  156.7933 H   0  0  0  0  0  0  0  0  0  0  0  0  # atno 8010 bound_to 7997
  140.6105  143.2386  151.5719 H   0  0  0  0  0  0  0  0  0  0  0  0  # atno 10167 bound_to 10162
  156.3449  130.4299  149.7755 H   0  0  0  0  0  0  0  0  0  0  0  0  # atno 10718 bound_to 10713
  153.9763  135.6722  153.4748 H   0  0  0  0  0  0  0  0  0  0  0  0  # atno 10763 bound_to 10752
  153.0769  135.4944  154.8419 H   0  0  0  0  0  0  0  0  0  0  0  0  # atno 10764 bound_to 10752
  154.7190  135.3113  154.9039 H   0  0  0  0  0  0  0  0  0  0  0  0  # atno 10765 bound_to 10752
  140.3502  134.7202  157.4262 H   0  0  0  0  0  0  0  0  0  0  0  0  # atno 11005 bound_to 11000
  144.7225  140.4419  143.6997 LP  0  0  0  0  0  0  0  0  0  0  0  0  # atno 17320 bound_to 7965
  145.6411  139.1550  143.2915 LP  0  0  0  0  0  0  0  0  0  0  0  0  # atno 17321 bound_to 7965
  139.5358  144.2786  152.1248 LP  0  0  0  0  0  0  0  0  0  0  0  0  # atno 17342 bound_to 10162
  140.1984  144.4682  150.6444 LP  0  0  0  0  0  0  0  0  0  0  0  0  # atno 17343 bound_to 10162
  156.4978  130.8114  151.3120 LP  0  0  0  0  0  0  0  0  0  0  0  0  # atno 17370 bound_to 10713
  157.7452  130.9954  150.2744 LP  0  0  0  0  0  0  0  0  0  0  0  0  # atno 17371 bound_to 10713
  140.0710  134.5863  155.8642 LP  0  0  0  0  0  0  0  0  0  0  0  0  # atno 17394 bound_to 11000
  141.2014  133.6618  156.5950 LP  0  0  0  0  0  0  0  0  0  0  0  0  # atno 17395 bound_to 11000

$$$$
