AV-unprocessed.smi:1385|AV-procd|sdf|5634|dock2
  -GOLD-   22720 5253D 1   1.00000     0.00000
 Structure written by MMmdl.
 38 39  0  0  0  0  0  0  0  0  3 V2000
  136.3716  140.1745  154.5279 C   0  0  0  0  0  0  0  0  0  0  0  0
  137.8549  140.1036  154.3991 C   0  0  0  0  0  0  0  0  0  0  0  0
  138.6740  140.9964  154.9684 N   0  0  0  0  0  0  0  0  0  0  0  0
  140.0104  140.7208  154.7150 N   0  0  0  0  0  0  0  0  0  0  0  0
  140.1601  139.6225  153.9615 C   0  0  0  0  0  0  0  0  0  0  0  0
  141.4207  139.1083  153.5572 N   0  0  0  0  0  0  0  0  0  0  0  0
  141.8299  137.8274  153.5365 C   0  0  0  0  0  0  0  0  0  0  0  0
  141.1598  136.8592  153.8964 O   0  0  0  0  0  0  0  0  0  0  0  0
  143.0821  137.7246  153.0677 N   0  0  0  0  0  0  0  0  0  0  0  0
  143.8165  136.4732  152.9049 C   0  0  2  0  0  0  0  0  0  0  0  0
  145.0208  136.6593  151.9639 C   0  0  0  0  0  0  0  0  0  0  0  0
  145.7384  135.3233  151.7101 C   0  0  0  0  0  0  0  0  0  0  0  0
  144.8009  134.3026  151.1683 N   0  3  1  0  0  0  0  0  0  0  0  0
  145.4728  133.0349  150.7887 C   0  0  0  0  0  0  0  0  0  0  0  0
  144.5604  132.2066  149.8782 C   0  0  0  0  0  0  0  0  0  0  0  0
  144.5861  132.6299  148.6003 N   0  5  0  0  0  0  0  0  0  0  0  0
  143.9018  131.2848  150.3557 O   0  0  0  0  0  0  0  0  0  0  0  0
  143.6491  134.0805  152.0789 C   0  0  0  0  0  0  0  0  0  0  0  0
  142.8853  135.3898  152.3381 C   0  0  0  0  0  0  0  0  0  0  0  0
  138.6647  138.8320  153.4917 S   0  0  0  0  0  0  0  0  0  0  0  0
  136.0505  141.2055  154.6797 H   0  0  0  0  0  0  0  0  0  0  0  0
  136.0435  139.5760  155.3777 H   0  0  0  0  0  0  0  0  0  0  0  0
  135.8962  139.7917  153.6247 H   0  0  0  0  0  0  0  0  0  0  0  0
  142.0834  139.7972  153.2338 H   0  0  0  0  0  0  0  0  0  0  0  0
  143.5590  138.5718  152.7955 H   0  0  0  0  0  0  0  0  0  0  0  0
  144.1746  136.1396  153.8810 H   0  0  0  0  0  0  0  0  0  0  0  0
  144.6894  137.0789  151.0128 H   0  0  0  0  0  0  0  0  0  0  0  0
  145.7250  137.3757  152.3884 H   0  0  0  0  0  0  0  0  0  0  0  0
  146.5599  135.4898  151.0130 H   0  0  0  0  0  0  0  0  0  0  0  0
  146.1826  134.9553  152.6364 H   0  0  0  0  0  0  0  0  0  0  0  0
  146.4485  133.2370  150.3410 H   0  0  0  0  0  0  0  0  0  0  0  0
  145.6604  132.4309  151.6775 H   0  0  0  0  0  0  0  0  0  0  0  0
  145.1811  133.4316  148.3586 H   0  0  0  0  0  0  0  0  0  0  0  0
  142.9675  133.3511  151.6395 H   0  0  0  0  0  0  0  0  0  0  0  0
  144.0042  133.6568  153.0198 H   0  0  0  0  0  0  0  0  0  0  0  0
  142.0619  135.2047  153.0291 H   0  0  0  0  0  0  0  0  0  0  0  0
  142.4358  135.7358  151.4058 H   0  0  0  0  0  0  0  0  0  0  0  0
  144.4198  134.6776  150.3113 H   0  0  0  0  0  0  0  0  0  0  0  0
  1  2  1  0  0  0  0
  1 21  1  0  0  0  0
  1 22  1  0  0  0  0
  1 23  1  0  0  0  0
  2 20  1  0  0  0  0
  2  3  2  0  0  0  0
  3  4  1  0  0  0  0
  4  5  2  0  0  0  0
  5  6  1  0  0  0  0
  5 20  1  0  0  0  0
  6  7  1  0  0  0  0
  6 24  1  0  0  0  0
  7  8  2  0  0  0  0
  7  9  1  0  0  0  0
  9 10  1  0  0  0  0
  9 25  1  0  0  0  0
 10 19  1  0  0  0  0
 10 11  1  0  0  0  0
 10 26  1  0  0  0  0
 11 12  1  0  0  0  0
 11 27  1  0  0  0  0
 11 28  1  0  0  0  0
 12 13  1  0  0  0  0
 12 29  1  0  0  0  0
 12 30  1  0  0  0  0
 13 14  1  0  0  0  0
 13 18  1  0  0  0  0
 13 38  1  0  0  0  0
 14 15  1  0  0  0  0
 14 31  1  0  0  0  0
 14 32  1  0  0  0  0
 15 16  1  0  0  0  0
 15 17  2  0  0  0  0
 16 33  1  0  0  0  0
 18 19  1  0  0  0  0
 18 34  1  0  0  0  0
 18 35  1  0  0  0  0
 19 36  1  0  0  0  0
 19 37  1  0  0  0  0
M  CHG  1  13   1
M  CHG  1  16  -1
M  END
> <s_m_source_file>
AV-unprocessed.smi

> <i_m_source_file_index>
1385

> <i_lp_mmshare_version>
43012

> <i_f3d_flags>
0

> <s_epik_input>
W0NIM11jMW5uYyhzMSlbTkhdQyg9TylbTkhdW0NIXTJbQ0gyXVtDSDJdTihbQ0gyXVtDSDJdMilbQ0gyXUMoPU8pW05IMl0=

> <s_epik_cmdline>
J2VwaWtfcHl0aG9uJywgJy1waCcsICc3LjAnLCAnLXRuJywgJzgnLCAnLW1hJywgJzIwMCcsICctbWV0YWxfYmluZGluZycsICctaW1hZScsICc8aW5maWxlLm1hZT4nLCAnLW9tYWUnLCAnPG91dGZpbGUubWFlPic=

> <r_lp_tautomer_probability>
1

> <r_epik_Ionization_Penalty>
5.73549

> <r_epik_Ionization_Penalty_Charging>
5.73152

> <r_epik_Ionization_Penalty_Neutral>
0.00396448

> <r_epik_State_Penalty>
6.57436

> <r_epik_Charging_Adjusted_Penalty>
12.3059

> <i_epik_Tot_Q>
0

> <i_epik_Tot_abs_Q>
2

> <r_epik_Metal_State_Penalty>
2.87628

> <b_epik_Metal_Only>
1

> <s_lp_Force_Field>
OPLS_2005

> <r_lp_Energy>
6.06006

> <b_lp_Chiralities_Consistent>
1

> <s_lp_Variant>
AV-unprocessed.smi:1385-7

> <Gold.Version>
5.8.1

> <Gold.Id.Protein>
6NUR|6NUR_protein|mol2

> <Gold.PLP.Fitness>
39.3149

> <Gold.PLP.PLP>
-30.2763

> <Gold.PLP.part.hbond>
-5.7914

> <Gold.PLP.part.metal>
0.0000

> <Gold.PLP.part.buried>
-3.8237

> <Gold.PLP.part.nonpolar>
-22.1242

> <Gold.PLP.part.repulsive>
0.4972

> <Gold.PLP.ligand.clash>
0.0000

> <Gold.PLP.ligand.torsion>
0.9664

> <Gold.PLP.Chemscore.Hbond>
3.6480

> <Gold.PLP.Chemscore.CHOScore>
0.0000

> <Gold.PLP.Chemscore.Metal>
0.0000

> <Gold.Chemscore.Hbonds>
donor molecule, donor type, donor heavy atom, donor atom, acceptor molecule, acceptor atom, score
      L1  H     6    24       P1 10175  1.00
      L1  H     9    25       P1 10175  1.00
      L1  H    16    33       P1  7921  1.00
      P1  H 10785 10796       L1    17  0.58

> <Gold.PLP.Chemscore.Internal.Correction>
0.0273

> <Gold.Rescore>
     Score         DG    S(hbond)    S(metal)    S(lipo)     H(rot)  DE(clash)    DE(int)     intcor
     15.43     -17.71       3.59        0.00      46.59       2.04       0.10       2.17       ----

> <Gold.Chemscore.Fitness>
15.4295

> <Gold.Chemscore.DG>
-17.7060

> <Gold.Chemscore.ZeroCoef>
-5.4800

> <Gold.Chemscore.Hbond>
3.5898

> <Gold.Chemscore.Metal>
0.0000

> <Gold.Chemscore.Lipo>
46.5870

> <Gold.Chemscore.Internal_Hbond>
0.0000

> <Gold.Chemscore.DEClash>
0.1040

> <Gold.Chemscore.DEInternal>
2.1725

> <Gold.Chemscore.Rot>
2.0369

> <Gold.Chemscore.Internal.Correction>
   9.000000E+99

> <Gold.Chemscore.Hbonds>
donor molecule, donor type, donor heavy atom, donor atom, acceptor molecule, acceptor atom, score
      L1  H     6    24       P1 10175  0.74
      L1  H     9    25       P1 10175  0.97
      L1  H    16    33       P1  7921  0.50
      P1  H 10785 10796       L1    17  0.33

> <Gold.Chemscore.Hbond.Weighted>
-11.9898

> <Gold.Chemscore.Metal.Weighted>
-0.0000

> <Gold.Chemscore.Lipo.Weighted>
-5.4507

> <Gold.Chemscore.Internal_Hbond.Weighted>
0.0000

> <Gold.Chemscore.DEClash.Weighted>
0.1040

> <Gold.Chemscore.DEInternal.Weighted>
2.1725

> <Gold.Chemscore.Rot.Weighted>
5.2144

> <Gold.Chemscore.Internal.Correction.Weighted>
   9.000000E+99

> <Gold.Protein.RotatedTorsions>
[ 6907 6896 6895 6894 ] final -149.62 input  -60.11 | X-H torsion
[ 7974 7965 7964 7962 ] final -155.13 input  175.53 | X-H torsion
[ 8008 7997 7996 7995 ] final  159.67 input   59.86 | X-H torsion
[ 10167 10162 10161 10158 ] final  167.64 input  -65.29 | X-H torsion
[ 10718 10713 10712 10709 ] final   64.62 input   66.30 | X-H torsion
[ 10763 10752 10751 10750 ] final  -26.68 input  -60.55 | X-H torsion
[ 11005 11000 10999 10996 ] final -175.24 input  -57.11 | X-H torsion

> <Gold.Protein.ActiveResidues>
 VAL166  LYS551  ARG553  GLY616  TRP617  ASP618  TYR619  PRO620  LYS621  CYS622 
 ASP623  PHE694  ASN695  SER759  ASP760  ASP761  ALA762  ILE779  LEU786  VAL792 
 PHE793  MET794  SER795  GLU796  ALA797  LYS798  CYS799  TRP800  GLU811  SER814 

> <Gold.Protein.RotatedAtoms>
  151.1868  133.4691  159.2594 H   0  0  0  0  0  0  0  0  0  0  0  0  # atno 6907 bound_to 6896
  151.1204  135.0076  159.8546 H   0  0  0  0  0  0  0  0  0  0  0  0  # atno 6908 bound_to 6896
  152.5455  134.1779  159.8676 H   0  0  0  0  0  0  0  0  0  0  0  0  # atno 6909 bound_to 6896
  144.7655  140.4292  143.5945 H   0  0  0  0  0  0  0  0  0  0  0  0  # atno 7974 bound_to 7965
  156.2223  140.1825  156.7446 H   0  0  0  0  0  0  0  0  0  0  0  0  # atno 8008 bound_to 7997
  154.5886  140.0654  156.9234 H   0  0  0  0  0  0  0  0  0  0  0  0  # atno 8009 bound_to 7997
  155.2377  140.3319  155.4298 H   0  0  0  0  0  0  0  0  0  0  0  0  # atno 8010 bound_to 7997
  139.4950  144.3900  151.9527 H   0  0  0  0  0  0  0  0  0  0  0  0  # atno 10167 bound_to 10162
  157.6051  130.9170  149.9869 H   0  0  0  0  0  0  0  0  0  0  0  0  # atno 10718 bound_to 10713
  153.7199  135.6945  153.5015 H   0  0  0  0  0  0  0  0  0  0  0  0  # atno 10763 bound_to 10752
  153.2211  135.4369  155.0489 H   0  0  0  0  0  0  0  0  0  0  0  0  # atno 10764 bound_to 10752
  154.8288  135.3461  154.6733 H   0  0  0  0  0  0  0  0  0  0  0  0  # atno 10765 bound_to 10752
  140.4655  134.6214  157.4860 H   0  0  0  0  0  0  0  0  0  0  0  0  # atno 11005 bound_to 11000
  145.6484  139.1561  143.2876 LP  0  0  0  0  0  0  0  0  0  0  0  0  # atno 17320 bound_to 7965
  146.1758  140.6575  142.9212 LP  0  0  0  0  0  0  0  0  0  0  0  0  # atno 17321 bound_to 7965
  140.3338  144.3285  150.5981 LP  0  0  0  0  0  0  0  0  0  0  0  0  # atno 17342 bound_to 10162
  140.5623  143.2190  151.7744 LP  0  0  0  0  0  0  0  0  0  0  0  0  # atno 17343 bound_to 10162
  156.1135  130.3649  150.0007 LP  0  0  0  0  0  0  0  0  0  0  0  0  # atno 17370 bound_to 10713
  156.8101  130.9321  151.3644 LP  0  0  0  0  0  0  0  0  0  0  0  0  # atno 17371 bound_to 10713
  139.9918  134.6973  155.9677 LP  0  0  0  0  0  0  0  0  0  0  0  0  # atno 17394 bound_to 11000
  141.1601  133.6539  156.4291 LP  0  0  0  0  0  0  0  0  0  0  0  0  # atno 17395 bound_to 11000

$$$$
