AV-unprocessed.smi:2176|AV-procd|sdf|8846|dock6
  -GOLD-   2272012 33D 1   1.00000     0.00000
 Structure written by MMmdl.
 29 30  0  0  0  0  0  0  0  0  1 V2000
  149.9966  140.9401  157.8395 O   0  0  0  0  0  0  0  0  0  0  0  0
  150.6251  141.5176  156.9512 C   0  0  0  0  0  0  0  0  0  0  0  0
  151.0590  140.7680  155.6828 C   0  0  0  0  0  0  0  0  0  0  0  0
  149.9285  140.3685  154.8316 N   0  0  0  0  0  0  0  0  0  0  0  0
  148.8825  141.2499  154.5971 C   0  0  0  0  0  0  0  0  0  0  0  0
  147.8165  140.9514  153.8172 C   0  0  0  0  0  0  0  0  0  0  0  0
  147.7176  139.6484  153.1685 C   0  0  0  0  0  0  0  0  0  0  0  0
  146.7916  139.2832  152.4478 O   0  0  0  0  0  0  0  0  0  0  0  0
  148.7907  138.7911  153.4258 N   0  0  0  0  0  0  0  0  0  0  0  0
  149.8932  139.0931  154.2266 C   0  0  0  0  0  0  0  0  0  0  0  0
  150.7885  138.2639  154.3843 O   0  0  0  0  0  0  0  0  0  0  0  0
  150.9911  142.8066  157.0230 N   0  0  0  0  0  0  0  0  0  0  0  0
  150.7133  143.7139  158.1302 C   0  0  0  0  0  0  0  0  0  0  0  0
  151.9545  144.3217  158.7497 C   0  0  0  0  0  0  0  0  0  0  0  0
  152.5841  143.6957  159.9719 C   0  0  0  0  0  0  0  0  0  0  0  0
  151.8942  145.0342  160.0808 C   0  0  0  0  0  0  0  0  0  0  0  0
  148.7673  137.8781  152.9952 H   0  0  0  0  0  0  0  0  0  0  0  0
  151.7605  141.3810  155.1128 H   0  0  0  0  0  0  0  0  0  0  0  0
  151.6291  139.8894  155.9883 H   0  0  0  0  0  0  0  0  0  0  0  0
  148.9152  142.2289  155.0540 H   0  0  0  0  0  0  0  0  0  0  0  0
  147.0331  141.6811  153.6716 H   0  0  0  0  0  0  0  0  0  0  0  0
  151.5095  143.1905  156.2463 H   0  0  0  0  0  0  0  0  0  0  0  0
  150.0659  144.5113  157.7637 H   0  0  0  0  0  0  0  0  0  0  0  0
  150.1578  143.2111  158.9230 H   0  0  0  0  0  0  0  0  0  0  0  0
  152.6549  144.7237  158.0197 H   0  0  0  0  0  0  0  0  0  0  0  0
  152.0850  142.8370  160.4168 H   0  0  0  0  0  0  0  0  0  0  0  0
  153.6708  143.6839  160.0278 H   0  0  0  0  0  0  0  0  0  0  0  0
  152.5208  145.9150  160.2071 H   0  0  0  0  0  0  0  0  0  0  0  0
  150.9373  145.0649  160.5982 H   0  0  0  0  0  0  0  0  0  0  0  0
  1  2  2  0  0  0  0
  2  3  1  0  0  0  0
  2 12  1  0  0  0  0
  3  4  1  0  0  0  0
  3 18  1  0  0  0  0
  3 19  1  0  0  0  0
  4 10  1  0  0  0  0
  4  5  1  0  0  0  0
  5  6  2  0  0  0  0
  5 20  1  0  0  0  0
  6  7  1  0  0  0  0
  6 21  1  0  0  0  0
  7  8  2  0  0  0  0
  7  9  1  0  0  0  0
  9 17  1  0  0  0  0
  9 10  1  0  0  0  0
 10 11  2  0  0  0  0
 12 13  1  0  0  0  0
 12 22  1  0  0  0  0
 13 14  1  0  0  0  0
 13 23  1  0  0  0  0
 13 24  1  0  0  0  0
 14 16  1  0  0  0  0
 14 15  1  0  0  0  0
 14 25  1  0  0  0  0
 15 16  1  0  0  0  0
 15 26  1  0  0  0  0
 15 27  1  0  0  0  0
 16 28  1  0  0  0  0
 16 29  1  0  0  0  0
M  END
> <s_m_source_file>
AV-unprocessed.smi

> <i_m_source_file_index>
2176

> <i_lp_mmshare_version>
43012

> <i_f3d_flags>
0

> <s_epik_input>
W0NIMl0xW0NIMl1bQ0hdMVtDSDJdW05IXUMoPU8pW0NIMl1uMltjSF1bY0hdYyg9TylbbkhdYzI9Tw==

> <s_epik_cmdline>
J2VwaWtfcHl0aG9uJywgJy1waCcsICc3LjAnLCAnLXRuJywgJzgnLCAnLW1hJywgJzIwMCcsICctbWV0YWxfYmluZGluZycsICctaW1hZScsICc8aW5maWxlLm1hZT4nLCAnLW9tYWUnLCAnPG91dGZpbGUubWFlPic=

> <r_lp_tautomer_probability>
0.999537

> <r_epik_Ionization_Penalty>
0.00328917

> <r_epik_Ionization_Penalty_Charging>
0.00328916

> <r_epik_Ionization_Penalty_Neutral>
1.93017e-08

> <r_epik_State_Penalty>
0.00232387

> <r_epik_Charging_Adjusted_Penalty>
0.00561303

> <i_epik_Tot_Q>
0

> <i_epik_Tot_abs_Q>
0

> <r_epik_Metal_State_Penalty>
0.365274

> <b_epik_Metal_Only>
0

> <s_lp_Force_Field>
OPLS_2005

> <r_lp_Energy>
12.7002

> <b_lp_Chiralities_Consistent>
1

> <s_lp_Variant>
AV-unprocessed.smi:2176-1

> <Gold.Version>
5.8.1

> <Gold.Id.Protein>
6NUR|6NUR_protein|mol2

> <Gold.PLP.Fitness>
40.8663

> <Gold.PLP.PLP>
-35.4644

> <Gold.PLP.part.hbond>
-2.7213

> <Gold.PLP.part.metal>
0.0000

> <Gold.PLP.part.buried>
-0.8399

> <Gold.PLP.part.nonpolar>
-32.8130

> <Gold.PLP.part.repulsive>
0.6053

> <Gold.PLP.ligand.clash>
0.0000

> <Gold.PLP.ligand.torsion>
0.5729

> <Gold.PLP.Chemscore.Hbond>
1.0000

> <Gold.PLP.Chemscore.CHOScore>
1.0000

> <Gold.PLP.Chemscore.Metal>
0.0000

> <Gold.Chemscore.Hbonds>
donor molecule, donor type, donor heavy atom, donor atom, acceptor molecule, acceptor atom, score
      L1  H     9    17       P1  7948  1.00
      L1  C     5    20       P1  8028  0.94

> <Gold.PLP.Chemscore.Internal.Correction>
0.5478

> <Gold.Rescore>
     Score         DG    S(hbond)    S(metal)    S(lipo)     H(rot)  DE(clash)    DE(int)     intcor
     10.87     -11.83       0.98        0.00      70.72       2.04       0.36       0.59       ----

> <Gold.Chemscore.Fitness>
10.8687

> <Gold.Chemscore.DG>
-11.8280

> <Gold.Chemscore.ZeroCoef>
-5.4800

> <Gold.Chemscore.Hbond>
0.9831

> <Gold.Chemscore.Metal>
0.0000

> <Gold.Chemscore.Lipo>
70.7195

> <Gold.Chemscore.Internal_Hbond>
0.0000

> <Gold.Chemscore.DEClash>
0.3644

> <Gold.Chemscore.DEInternal>
0.5949

> <Gold.Chemscore.Rot>
2.0351

> <Gold.Chemscore.Internal.Correction>
   9.000000E+99

> <Gold.Chemscore.Hbonds>
donor molecule, donor type, donor heavy atom, donor atom, acceptor molecule, acceptor atom, score
      L1  H     9    17       P1  7948  0.97

> <Gold.Chemscore.Hbond.Weighted>
-3.2836

> <Gold.Chemscore.Metal.Weighted>
-0.0000

> <Gold.Chemscore.Lipo.Weighted>
-8.2742

> <Gold.Chemscore.Internal_Hbond.Weighted>
0.0000

> <Gold.Chemscore.DEClash.Weighted>
0.3644

> <Gold.Chemscore.DEInternal.Weighted>
0.5949

> <Gold.Chemscore.Rot.Weighted>
5.2098

> <Gold.Chemscore.Internal.Correction.Weighted>
   9.000000E+99

> <Gold.Protein.RotatedTorsions>
[ 6907 6896 6895 6894 ] final  137.72 input  -60.11 | X-H torsion
[ 7974 7965 7964 7962 ] final -169.70 input  175.53 | X-H torsion
[ 8008 7997 7996 7995 ] final -119.97 input   59.86 | X-H torsion
[ 10167 10162 10161 10158 ] final  -74.26 input  -65.29 | X-H torsion
[ 10718 10713 10712 10709 ] final -160.82 input   66.30 | X-H torsion
[ 10763 10752 10751 10750 ] final -175.64 input  -60.55 | X-H torsion
[ 11005 11000 10999 10996 ] final   79.39 input  -57.11 | X-H torsion

> <Gold.Protein.ActiveResidues>
 VAL166  LYS551  ARG553  GLY616  TRP617  ASP618  TYR619  PRO620  LYS621  CYS622 
 ASP623  PHE694  ASN695  SER759  ASP760  ASP761  ALA762  ILE779  LEU786  VAL792 
 PHE793  MET794  SER795  GLU796  ALA797  LYS798  CYS799  TRP800  GLU811  SER814 

> <Gold.Protein.RotatedAtoms>
  152.2749  133.5416  159.5461 H   0  0  0  0  0  0  0  0  0  0  0  0  # atno 6907 bound_to 6896
  150.7173  134.0646  159.3852 H   0  0  0  0  0  0  0  0  0  0  0  0  # atno 6908 bound_to 6896
  151.8559  135.0541  160.0515 H   0  0  0  0  0  0  0  0  0  0  0  0  # atno 6909 bound_to 6896
  144.7181  140.2182  143.6319 H   0  0  0  0  0  0  0  0  0  0  0  0  # atno 7974 bound_to 7965
  155.1243  140.0399  157.2758 H   0  0  0  0  0  0  0  0  0  0  0  0  # atno 8008 bound_to 7997
  154.6590  140.2586  155.7104 H   0  0  0  0  0  0  0  0  0  0  0  0  # atno 8009 bound_to 7997
  156.2611  140.2821  156.1054 H   0  0  0  0  0  0  0  0  0  0  0  0  # atno 8010 bound_to 7997
  140.5041  143.2356  151.7702 H   0  0  0  0  0  0  0  0  0  0  0  0  # atno 10167 bound_to 10162
  156.5875  130.8756  151.2881 H   0  0  0  0  0  0  0  0  0  0  0  0  # atno 10718 bound_to 10713
  154.5820  135.2837  155.0723 H   0  0  0  0  0  0  0  0  0  0  0  0  # atno 10763 bound_to 10752
  154.2056  135.6417  153.5103 H   0  0  0  0  0  0  0  0  0  0  0  0  # atno 10764 bound_to 10752
  153.0091  135.5479  154.6477 H   0  0  0  0  0  0  0  0  0  0  0  0  # atno 10765 bound_to 10752
  139.9174  134.7839  156.1772 H   0  0  0  0  0  0  0  0  0  0  0  0  # atno 11005 bound_to 11000
  145.8526  139.2183  143.1763 LP  0  0  0  0  0  0  0  0  0  0  0  0  # atno 17320 bound_to 7965
  146.0247  140.8315  142.9906 LP  0  0  0  0  0  0  0  0  0  0  0  0  # atno 17321 bound_to 7965
  139.4879  144.4481  151.9686 LP  0  0  0  0  0  0  0  0  0  0  0  0  # atno 17342 bound_to 10162
  140.3571  144.3018  150.5939 LP  0  0  0  0  0  0  0  0  0  0  0  0  # atno 17343 bound_to 10162
  157.7312  130.9696  150.1867 LP  0  0  0  0  0  0  0  0  0  0  0  0  # atno 17370 bound_to 10713
  156.2578  130.3707  149.8163 LP  0  0  0  0  0  0  0  0  0  0  0  0  # atno 17371 bound_to 10713
  141.0664  133.6817  156.2053 LP  0  0  0  0  0  0  0  0  0  0  0  0  # atno 17394 bound_to 11000
  140.6578  134.4999  157.5581 LP  0  0  0  0  0  0  0  0  0  0  0  0  # atno 17395 bound_to 11000

$$$$
