AV-unprocessed.smi:1830|AV-procd|sdf|7451|dock3
  -GOLD-   22720 9143D 1   1.00000     0.00000
 Structure written by MMmdl.
 54 57  0  0  0  0  0  0  0  0  3 V2000
  151.3278  135.2119  155.6593 O   0  0  0  0  0  0  0  0  0  0  0  0
  150.5922  135.5279  154.7250 C   0  0  0  0  0  0  0  0  0  0  0  0
  150.4911  136.7790  154.2553 N   0  0  0  0  0  0  0  0  0  0  0  0
  151.1787  137.9384  154.8156 C   0  0  0  0  0  0  0  0  0  0  0  0
  150.4838  139.2719  154.4802 C   0  0  1  0  0  0  0  0  0  0  0  0
  149.0557  139.0857  153.9081 C   0  0  0  0  0  0  0  0  0  0  0  0
  148.4330  140.4151  153.7685 N   0  3  1  0  0  0  0  0  0  0  0  0
  147.0632  140.4930  153.2322 C   0  0  0  0  0  0  0  0  0  0  0  0
  146.5100  141.8328  153.7583 C   0  0  0  0  0  0  0  0  0  0  0  0
  147.5698  142.3669  154.7393 C   0  0  0  0  0  0  0  0  0  0  0  0
  148.4100  141.1311  155.0458 C   0  0  2  0  0  0  0  0  0  0  0  0
  149.8512  141.3354  155.5282 C   0  0  0  0  0  0  0  0  0  0  0  0
  150.4365  140.0418  155.6864 O   0  0  0  0  0  0  0  0  0  0  0  0
  149.7796  134.6888  154.0605 N   0  0  0  0  0  0  0  0  0  0  0  0
  149.5432  133.3078  154.3176 C   0  0  0  0  0  0  0  0  0  0  0  0
  150.3843  132.5660  155.1867 C   0  0  0  0  0  0  0  0  0  0  0  0
  150.1118  131.2090  155.4419 C   0  0  0  0  0  0  0  0  0  0  0  0
  149.0031  130.6100  154.8207 C   0  0  0  0  0  0  0  0  0  0  0  0
  148.2342  131.3355  153.9832 N   0  3  0  0  0  0  0  0  0  0  0  0
  148.4531  132.6408  153.6848 C   0  0  0  0  0  0  0  0  0  0  0  0
  147.5673  133.2649  152.7765 N   0  0  0  0  0  0  0  0  0  0  0  0
  146.2375  133.6809  153.2083 C   0  0  0  0  0  0  0  0  0  0  0  0
  145.4729  133.9669  151.9188 C   0  0  0  0  0  0  0  0  0  0  0  0
  146.0392  132.9213  150.9632 C   0  0  0  0  0  0  0  0  0  0  0  0
  147.5014  132.7830  151.4005 C   0  0  0  0  0  0  0  0  0  0  0  0
  149.8627  136.9524  153.4843 H   0  0  0  0  0  0  0  0  0  0  0  0
  151.2306  137.8108  155.8974 H   0  0  0  0  0  0  0  0  0  0  0  0
  152.2108  137.9547  154.4612 H   0  0  0  0  0  0  0  0  0  0  0  0
  151.0912  139.8191  153.7569 H   0  0  0  0  0  0  0  0  0  0  0  0
  149.0872  138.5964  152.9340 H   0  0  0  0  0  0  0  0  0  0  0  0
  148.4535  138.4603  154.5691 H   0  0  0  0  0  0  0  0  0  0  0  0
  147.0641  140.4380  152.1434 H   0  0  0  0  0  0  0  0  0  0  0  0
  146.4651  139.6648  153.6153 H   0  0  0  0  0  0  0  0  0  0  0  0
  146.3368  142.5431  152.9492 H   0  0  0  0  0  0  0  0  0  0  0  0
  145.5571  141.6731  154.2641 H   0  0  0  0  0  0  0  0  0  0  0  0
  148.1807  143.1262  154.2489 H   0  0  0  0  0  0  0  0  0  0  0  0
  147.1328  142.8118  155.6338 H   0  0  0  0  0  0  0  0  0  0  0  0
  147.8725  140.5244  155.7780 H   0  0  0  0  0  0  0  0  0  0  0  0
  150.4306  141.9330  154.8227 H   0  0  0  0  0  0  0  0  0  0  0  0
  149.8651  141.8552  156.4862 H   0  0  0  0  0  0  0  0  0  0  0  0
  149.1693  135.1138  153.3781 H   0  0  0  0  0  0  0  0  0  0  0  0
  151.2425  133.0166  155.6617 H   0  0  0  0  0  0  0  0  0  0  0  0
  150.7433  130.6377  156.1065 H   0  0  0  0  0  0  0  0  0  0  0  0
  148.7141  129.5782  154.9596 H   0  0  0  0  0  0  0  0  0  0  0  0
  145.7441  132.8763  153.7548 H   0  0  0  0  0  0  0  0  0  0  0  0
  146.2838  134.5588  153.8538 H   0  0  0  0  0  0  0  0  0  0  0  0
  144.3918  133.8958  152.0405 H   0  0  0  0  0  0  0  0  0  0  0  0
  145.7094  134.9688  151.5572 H   0  0  0  0  0  0  0  0  0  0  0  0
  145.5202  131.9731  151.1100 H   0  0  0  0  0  0  0  0  0  0  0  0
  145.9350  133.2010  149.9145 H   0  0  0  0  0  0  0  0  0  0  0  0
  148.1365  133.4137  150.7779 H   0  0  0  0  0  0  0  0  0  0  0  0
  147.8468  131.7522  151.3076 H   0  0  0  0  0  0  0  0  0  0  0  0
  149.0154  140.9587  153.1475 H   0  0  0  0  0  0  0  0  0  0  0  0
  147.4424  130.8691  153.5402 H   0  0  0  0  0  0  0  0  0  0  0  0
  1  2  2  0  0  0  0
  2  3  1  0  0  0  0
  2 14  1  0  0  0  0
  3  4  1  0  0  0  0
  3 26  1  0  0  0  0
  4  5  1  0  0  0  0
  4 27  1  0  0  0  0
  4 28  1  0  0  0  0
  5 13  1  0  0  0  0
  5  6  1  0  0  0  0
  5 29  1  0  0  0  0
  6  7  1  0  0  0  0
  6 30  1  0  0  0  0
  6 31  1  0  0  0  0
  7 11  1  0  0  0  0
  7  8  1  0  0  0  0
  7 53  1  0  0  0  0
  8  9  1  0  0  0  0
  8 32  1  0  0  0  0
  8 33  1  0  0  0  0
  9 10  1  0  0  0  0
  9 34  1  0  0  0  0
  9 35  1  0  0  0  0
 10 11  1  0  0  0  0
 10 36  1  0  0  0  0
 10 37  1  0  0  0  0
 11 12  1  0  0  0  0
 11 38  1  0  0  0  0
 12 13  1  0  0  0  0
 12 39  1  0  0  0  0
 12 40  1  0  0  0  0
 14 15  1  0  0  0  0
 14 41  1  0  0  0  0
 15 20  1  0  0  0  0
 15 16  2  0  0  0  0
 16 17  1  0  0  0  0
 16 42  1  0  0  0  0
 17 18  2  0  0  0  0
 17 43  1  0  0  0  0
 18 19  1  0  0  0  0
 18 44  1  0  0  0  0
 19 20  2  0  0  0  0
 19 54  1  0  0  0  0
 20 21  1  0  0  0  0
 21 25  1  0  0  0  0
 21 22  1  0  0  0  0
 22 23  1  0  0  0  0
 22 45  1  0  0  0  0
 22 46  1  0  0  0  0
 23 24  1  0  0  0  0
 23 47  1  0  0  0  0
 23 48  1  0  0  0  0
 24 25  1  0  0  0  0
 24 49  1  0  0  0  0
 24 50  1  0  0  0  0
 25 51  1  0  0  0  0
 25 52  1  0  0  0  0
M  CHG  1   7   1
M  CHG  1  19   1
M  END
> <s_m_source_file>
AV-unprocessed.smi

> <i_m_source_file_index>
1830

> <i_lp_mmshare_version>
43012

> <i_f3d_flags>
0

> <s_epik_input>
W0NIMl0xW0NIMl1bQ0gyXVtDQEhdKE4xMilbQ0gyXU9bQ0BASF0oW0NIMl0yKVtDSDJdW05IXUMoPU8pW05IXWMzW2NIXVtjSF1bY0hdbmMzTjRbQ0gyXVtDSDJdW0NIMl1bQ0gyXTQ=

> <s_epik_cmdline>
J2VwaWtfcHl0aG9uJywgJy1waCcsICc3LjAnLCAnLXRuJywgJzgnLCAnLW1hJywgJzIwMCcsICctbWV0YWxfYmluZGluZycsICctaW1hZScsICc8aW5maWxlLm1hZT4nLCAnLW9tYWUnLCAnPG91dGZpbGUubWFlPic=

> <r_lp_tautomer_probability>
0.999994

> <r_epik_Ionization_Penalty>
1.29113

> <r_epik_Ionization_Penalty_Charging>
1.29111

> <r_epik_Ionization_Penalty_Neutral>
1.88144e-05

> <r_epik_State_Penalty>
1.32676

> <r_epik_Charging_Adjusted_Penalty>
2.61787

> <i_epik_Tot_Q>
2

> <i_epik_Tot_abs_Q>
2

> <r_epik_Metal_State_Penalty>
1.40425

> <b_epik_Metal_Only>
0

> <s_lp_Force_Field>
OPLS_2005

> <r_lp_Energy>
72.9797

> <b_lp_Chiralities_Consistent>
1

> <s_lp_Variant>
AV-unprocessed.smi:1830-20

> <Gold.Version>
5.8.1

> <Gold.Id.Protein>
6NUR|6NUR_protein|mol2

> <Gold.PLP.Fitness>
47.2636

> <Gold.PLP.PLP>
-40.1928

> <Gold.PLP.part.hbond>
-5.3864

> <Gold.PLP.part.metal>
0.0000

> <Gold.PLP.part.buried>
4.1569

> <Gold.PLP.part.nonpolar>
-39.4582

> <Gold.PLP.part.repulsive>
0.4856

> <Gold.PLP.ligand.clash>
0.4029

> <Gold.PLP.ligand.torsion>
1.1004

> <Gold.PLP.Chemscore.Hbond>
3.0931

> <Gold.PLP.Chemscore.CHOScore>
0.0000

> <Gold.PLP.Chemscore.Metal>
0.0000

> <Gold.Chemscore.Hbonds>
donor molecule, donor type, donor heavy atom, donor atom, acceptor molecule, acceptor atom, score
      L1  H     3    26       P1  7948  0.93
      L1  H     7    53       P1  7957  0.16
      L1  H    14    41       P1  7948  0.86
      P1  H 10752 10763       L1     1  1.00

> <Gold.PLP.Chemscore.Internal.Correction>
0.3951

> <Gold.Rescore>
     Score         DG    S(hbond)    S(metal)    S(lipo)     H(rot)  DE(clash)    DE(int)     intcor
     15.73     -19.67       2.07        0.00      93.53       1.43       1.54       2.40       ----

> <Gold.Chemscore.Fitness>
15.7302

> <Gold.Chemscore.DG>
-19.6692

> <Gold.Chemscore.ZeroCoef>
-5.4800

> <Gold.Chemscore.Hbond>
2.0662

> <Gold.Chemscore.Metal>
0.0000

> <Gold.Chemscore.Lipo>
93.5327

> <Gold.Chemscore.Internal_Hbond>
0.0000

> <Gold.Chemscore.DEClash>
1.5414

> <Gold.Chemscore.DEInternal>
2.3976

> <Gold.Chemscore.Rot>
1.4278

> <Gold.Chemscore.Internal.Correction>
   9.000000E+99

> <Gold.Chemscore.Hbonds>
donor molecule, donor type, donor heavy atom, donor atom, acceptor molecule, acceptor atom, score
      L1  H     3    26       P1  7948  0.36
      L1  H     7    53       P1  7957  0.16
      L1  H    14    41       P1  7948  0.16
      P1  H 10752 10763       L1     1  0.38

> <Gold.Chemscore.Hbond.Weighted>
-6.9010

> <Gold.Chemscore.Metal.Weighted>
-0.0000

> <Gold.Chemscore.Lipo.Weighted>
-10.9433

> <Gold.Chemscore.Internal_Hbond.Weighted>
0.0000

> <Gold.Chemscore.DEClash.Weighted>
1.5414

> <Gold.Chemscore.DEInternal.Weighted>
2.3976

> <Gold.Chemscore.Rot.Weighted>
3.6551

> <Gold.Chemscore.Internal.Correction.Weighted>
   9.000000E+99

> <Gold.Protein.RotatedTorsions>
[ 6907 6896 6895 6894 ] final   81.37 input  -60.11 | X-H torsion
[ 7974 7965 7964 7962 ] final  107.33 input  175.53 | X-H torsion
[ 8008 7997 7996 7995 ] final   -4.83 input   59.86 | X-H torsion
[ 10167 10162 10161 10158 ] final   93.95 input  -65.29 | X-H torsion
[ 10718 10713 10712 10709 ] final -122.24 input   66.30 | X-H torsion
[ 10763 10752 10751 10750 ] final   81.31 input  -60.55 | X-H torsion
[ 11005 11000 10999 10996 ] final  116.65 input  -57.11 | X-H torsion

> <Gold.Protein.ActiveResidues>
 VAL166  LYS551  ARG553  GLY616  TRP617  ASP618  TYR619  PRO620  LYS621  CYS622 
 ASP623  PHE694  ASN695  SER759  ASP760  ASP761  ALA762  ILE779  LEU786  VAL792 
 PHE793  MET794  SER795  GLU796  ALA797  LYS798  CYS799  TRP800  GLU811  SER814 

> <Gold.Protein.RotatedAtoms>
  152.5266  134.3214  159.9149 H   0  0  0  0  0  0  0  0  0  0  0  0  # atno 6907 bound_to 6896
  151.3163  133.4052  159.2658 H   0  0  0  0  0  0  0  0  0  0  0  0  # atno 6908 bound_to 6896
  150.9996  134.9328  159.8004 H   0  0  0  0  0  0  0  0  0  0  0  0  # atno 6909 bound_to 6896
  145.2950  139.2588  143.3844 H   0  0  0  0  0  0  0  0  0  0  0  0  # atno 7974 bound_to 7965
  154.6102  140.2474  155.7679 H   0  0  0  0  0  0  0  0  0  0  0  0  # atno 8008 bound_to 7997
  156.2366  140.2948  156.0279 H   0  0  0  0  0  0  0  0  0  0  0  0  # atno 8009 bound_to 7997
  155.2065  140.0396  157.2916 H   0  0  0  0  0  0  0  0  0  0  0  0  # atno 8010 bound_to 7997
  139.8130  144.6765  150.9616 H   0  0  0  0  0  0  0  0  0  0  0  0  # atno 10167 bound_to 10162
  156.1402  130.6460  150.9759 H   0  0  0  0  0  0  0  0  0  0  0  0  # atno 10718 bound_to 10713
  153.1106  135.4770  154.9028 H   0  0  0  0  0  0  0  0  0  0  0  0  # atno 10763 bound_to 10752
  154.7477  135.3098  154.8618 H   0  0  0  0  0  0  0  0  0  0  0  0  # atno 10764 bound_to 10752
  153.9208  135.6855  153.4801 H   0  0  0  0  0  0  0  0  0  0  0  0  # atno 10765 bound_to 10752
  139.9048  134.9601  156.7231 H   0  0  0  0  0  0  0  0  0  0  0  0  # atno 11005 bound_to 11000
  146.3172  140.3450  142.8651 LP  0  0  0  0  0  0  0  0  0  0  0  0  # atno 17320 bound_to 7965
  144.9141  140.7792  143.5789 LP  0  0  0  0  0  0  0  0  0  0  0  0  # atno 17321 bound_to 7965
  140.7817  143.4166  151.0908 LP  0  0  0  0  0  0  0  0  0  0  0  0  # atno 17342 bound_to 10162
  139.7831  143.8326  152.3141 LP  0  0  0  0  0  0  0  0  0  0  0  0  # atno 17343 bound_to 10162
  157.6569  131.0888  150.7927 LP  0  0  0  0  0  0  0  0  0  0  0  0  # atno 17370 bound_to 10713
  156.8003  130.4919  149.5371 LP  0  0  0  0  0  0  0  0  0  0  0  0  # atno 17371 bound_to 10713
  140.6985  133.9327  155.8009 LP  0  0  0  0  0  0  0  0  0  0  0  0  # atno 17394 bound_to 11000
  141.0389  134.0649  157.3925 LP  0  0  0  0  0  0  0  0  0  0  0  0  # atno 17395 bound_to 11000

$$$$
