AV-unprocessed.smi:630|AV-procd|sdf|3122|dock1
  -GOLD-   22720 0 43D 1   1.00000     0.00000
 Structure written by MMmdl.
 36 37  0  0  0  0  0  0  0  0  2 V2000
  149.8335  137.8157  154.0100 N   0  0  0  0  0  0  0  0  0  0  0  0
  150.9276  137.5378  154.7240 C   0  0  0  0  0  0  0  0  0  0  0  0
  151.4666  136.4332  154.6809 O   0  0  0  0  0  0  0  0  0  0  0  0
  151.4814  138.6585  155.6239 C   0  0  1  0  0  0  0  0  0  0  0  0
  150.7080  139.9736  155.3735 C   0  0  0  0  0  0  0  0  0  0  0  0
  151.2571  141.2023  156.1204 C   0  0  0  0  0  0  0  0  0  0  0  0
  150.8812  141.2164  157.6103 C   0  0  0  0  0  0  0  0  0  0  0  0
  151.8075  140.4125  158.5412 C   0  0  0  0  0  0  0  0  0  0  0  0
  152.4406  139.1287  157.9667 C   0  0  0  0  0  0  0  0  0  0  0  0
  151.5336  138.2125  157.1120 C   0  0  1  0  0  0  0  0  0  0  0  0
  150.2006  138.0419  157.6979 N   0  0  0  0  0  0  0  0  0  0  0  0
  149.8901  137.2771  158.7545 C   0  0  0  0  0  0  0  0  0  0  0  0
  150.7692  136.6222  159.3198 O   0  0  0  0  0  0  0  0  0  0  0  0
  148.5823  137.3244  159.0956 N   0  5  0  0  0  0  0  0  0  0  0  0
  148.1322  136.5952  160.1294 C   0  0  0  0  0  0  0  0  0  0  0  0
  147.6981  137.1393  161.2719 N   0  0  0  0  0  0  0  0  0  0  0  0
  147.2799  136.1961  162.2122 C   0  0  0  0  0  0  0  0  0  0  0  0
  147.4056  134.9032  161.7788 C   0  0  0  0  0  0  0  0  0  0  0  0
  148.0607  134.8311  160.1679 S   0  0  0  0  0  0  0  0  0  0  0  0
  149.4437  137.1121  153.3998 H   0  0  0  0  0  0  0  0  0  0  0  0
  149.4070  138.7283  154.0751 H   0  0  0  0  0  0  0  0  0  0  0  0
  152.5091  138.8321  155.2993 H   0  0  0  0  0  0  0  0  0  0  0  0
  150.7425  140.1925  154.3052 H   0  0  0  0  0  0  0  0  0  0  0  0
  149.6498  139.8487  155.6082 H   0  0  0  0  0  0  0  0  0  0  0  0
  152.3346  141.3007  155.9844 H   0  0  0  0  0  0  0  0  0  0  0  0
  150.8182  142.0881  155.6598 H   0  0  0  0  0  0  0  0  0  0  0  0
  150.8673  142.2482  157.9625 H   0  0  0  0  0  0  0  0  0  0  0  0
  149.8548  140.8656  157.7256 H   0  0  0  0  0  0  0  0  0  0  0  0
  152.6179  141.0608  158.8754 H   0  0  0  0  0  0  0  0  0  0  0  0
  151.2484  140.1633  159.4440 H   0  0  0  0  0  0  0  0  0  0  0  0
  153.3252  139.3955  157.3876 H   0  0  0  0  0  0  0  0  0  0  0  0
  152.8259  138.5506  158.8075 H   0  0  0  0  0  0  0  0  0  0  0  0
  152.0121  137.2306  157.1138 H   0  0  0  0  0  0  0  0  0  0  0  0
  149.4463  138.5528  157.2631 H   0  0  0  0  0  0  0  0  0  0  0  0
  146.9060  136.5350  163.1666 H   0  0  0  0  0  0  0  0  0  0  0  0
  147.1571  133.9942  162.3048 H   0  0  0  0  0  0  0  0  0  0  0  0
  1  2  1  0  0  0  0
  1 20  1  0  0  0  0
  1 21  1  0  0  0  0
  2  3  2  0  0  0  0
  2  4  1  0  0  0  0
  4 10  1  0  0  0  0
  4  5  1  0  0  0  0
  4 22  1  0  0  0  0
  5  6  1  0  0  0  0
  5 23  1  0  0  0  0
  5 24  1  0  0  0  0
  6  7  1  0  0  0  0
  6 25  1  0  0  0  0
  6 26  1  0  0  0  0
  7  8  1  0  0  0  0
  7 27  1  0  0  0  0
  7 28  1  0  0  0  0
  8  9  1  0  0  0  0
  8 29  1  0  0  0  0
  8 30  1  0  0  0  0
  9 10  1  0  0  0  0
  9 31  1  0  0  0  0
  9 32  1  0  0  0  0
 10 11  1  0  0  0  0
 10 33  1  0  0  0  0
 11 12  1  0  0  0  0
 11 34  1  0  0  0  0
 12 13  2  0  0  0  0
 12 14  1  0  0  0  0
 14 15  1  0  0  0  0
 15 19  1  0  0  0  0
 15 16  2  0  0  0  0
 16 17  1  0  0  0  0
 17 18  2  0  0  0  0
 17 35  1  0  0  0  0
 18 19  1  0  0  0  0
 18 36  1  0  0  0  0
M  CHG  1  14  -1
M  END
> <s_m_source_file>
AV-unprocessed.smi

> <i_m_source_file_index>
630

> <i_lp_mmshare_version>
43012

> <i_f3d_flags>
0

> <s_epik_input>
W05IMl1DKD1PKVtDQEBIXTFbQ0gyXVtDSDJdW0NIMl1bQ0gyXVtDSDJdW0NASF0xW05IXUMoPU8pW05IXWMybltjSF1bY0hdczI=

> <s_epik_cmdline>
J2VwaWtfcHl0aG9uJywgJy1waCcsICc3LjAnLCAnLXRuJywgJzgnLCAnLW1hJywgJzIwMCcsICctbWV0YWxfYmluZGluZycsICctaW1hZScsICc8aW5maWxlLm1hZT4nLCAnLW9tYWUnLCAnPG91dGZpbGUubWFlPic=

> <r_lp_tautomer_probability>
0.999

> <r_epik_Ionization_Penalty>
8.29606

> <r_epik_Ionization_Penalty_Charging>
6.67551

> <r_epik_Ionization_Penalty_Neutral>
1.62055

> <r_epik_State_Penalty>
6.67568

> <r_epik_Charging_Adjusted_Penalty>
13.3512

> <i_epik_Tot_Q>
-1

> <i_epik_Tot_abs_Q>
1

> <r_epik_Metal_State_Penalty>
2.59802

> <b_epik_Metal_Only>
1

> <s_lp_Force_Field>
OPLS_2005

> <r_lp_Energy>
11.1014

> <b_lp_Chiralities_Consistent>
1

> <s_lp_Variant>
AV-unprocessed.smi:630-6

> <Gold.Version>
5.8.1

> <Gold.Id.Protein>
6NUR|6NUR_protein|mol2

> <Gold.PLP.Fitness>
44.3542

> <Gold.PLP.PLP>
-33.5115

> <Gold.PLP.part.hbond>
-5.0000

> <Gold.PLP.part.metal>
0.0000

> <Gold.PLP.part.buried>
-5.7807

> <Gold.PLP.part.nonpolar>
-23.2223

> <Gold.PLP.part.repulsive>
0.2475

> <Gold.PLP.ligand.clash>
1.8630

> <Gold.PLP.ligand.torsion>
0.9499

> <Gold.PLP.Chemscore.Hbond>
4.8240

> <Gold.PLP.Chemscore.CHOScore>
0.0000

> <Gold.PLP.Chemscore.Metal>
0.0000

> <Gold.Chemscore.Hbonds>
donor molecule, donor type, donor heavy atom, donor atom, acceptor molecule, acceptor atom, score
      L1  H     1    20       P1  7948  1.00
      P1  H  6896  6908       L1    13  1.00
      P1  H  6931  6943       L1    16  0.99
      P1  H  6934  6947       L1    16  0.85
      P1  H 10752 10763       L1     3  1.00

> <Gold.PLP.Chemscore.Internal.Correction>
0.1336

> <Gold.Rescore>
     Score         DG    S(hbond)    S(metal)    S(lipo)     H(rot)  DE(clash)    DE(int)     intcor
     21.90     -23.02       4.21        0.00      62.74       1.50       0.11       1.01       ----

> <Gold.Chemscore.Fitness>
21.9031

> <Gold.Chemscore.DG>
-23.0227

> <Gold.Chemscore.ZeroCoef>
-5.4800

> <Gold.Chemscore.Hbond>
4.2075

> <Gold.Chemscore.Metal>
0.0000

> <Gold.Chemscore.Lipo>
62.7424

> <Gold.Chemscore.Internal_Hbond>
0.0000

> <Gold.Chemscore.DEClash>
0.1130

> <Gold.Chemscore.DEInternal>
1.0066

> <Gold.Chemscore.Rot>
1.5044

> <Gold.Chemscore.Internal.Correction>
   9.000000E+99

> <Gold.Chemscore.Hbonds>
donor molecule, donor type, donor heavy atom, donor atom, acceptor molecule, acceptor atom, score
      L1  H     1    20       P1  7948  0.90
      P1  H  6896  6908       L1    13  0.96
      P1  H  6931  6943       L1    16  0.52
      P1  H  6934  6947       L1    16  0.57
      P1  H 10752 10763       L1     3  1.00

> <Gold.Chemscore.Hbond.Weighted>
-14.0530

> <Gold.Chemscore.Metal.Weighted>
-0.0000

> <Gold.Chemscore.Lipo.Weighted>
-7.3409

> <Gold.Chemscore.Internal_Hbond.Weighted>
0.0000

> <Gold.Chemscore.DEClash.Weighted>
0.1130

> <Gold.Chemscore.DEInternal.Weighted>
1.0066

> <Gold.Chemscore.Rot.Weighted>
3.8512

> <Gold.Chemscore.Internal.Correction.Weighted>
   9.000000E+99

> <Gold.Protein.RotatedTorsions>
[ 6907 6896 6895 6894 ] final -161.56 input  -60.11 | X-H torsion
[ 7974 7965 7964 7962 ] final   35.46 input  175.53 | X-H torsion
[ 8008 7997 7996 7995 ] final  102.44 input   59.86 | X-H torsion
[ 10167 10162 10161 10158 ] final   90.85 input  -65.29 | X-H torsion
[ 10718 10713 10712 10709 ] final   95.36 input   66.30 | X-H torsion
[ 10763 10752 10751 10750 ] final   41.14 input  -60.55 | X-H torsion
[ 11005 11000 10999 10996 ] final  -71.85 input  -57.11 | X-H torsion

> <Gold.Protein.ActiveResidues>
 VAL166  LYS551  ARG553  GLY616  TRP617  ASP618  TYR619  PRO620  LYS621  CYS622 
 ASP623  PHE694  ASN695  SER759  ASP760  ASP761  ALA762  ILE779  LEU786  VAL792 
 PHE793  MET794  SER795  GLU796  ALA797  LYS798  CYS799  TRP800  GLU811  SER814 

> <Gold.Protein.RotatedAtoms>
  151.3665  133.3870  159.2694 H   0  0  0  0  0  0  0  0  0  0  0  0  # atno 6907 bound_to 6896
  150.9684  134.9062  159.7783 H   0  0  0  0  0  0  0  0  0  0  0  0  # atno 6908 bound_to 6896
  152.5175  134.3627  159.9342 H   0  0  0  0  0  0  0  0  0  0  0  0  # atno 6909 bound_to 6896
  146.1281  139.6139  142.9245 H   0  0  0  0  0  0  0  0  0  0  0  0  # atno 7974 bound_to 7965
  156.1393  140.3181  155.8470 H   0  0  0  0  0  0  0  0  0  0  0  0  # atno 8008 bound_to 7997
  155.4184  140.0510  157.3044 H   0  0  0  0  0  0  0  0  0  0  0  0  # atno 8009 bound_to 7997
  154.4963  140.2112  155.9453 H   0  0  0  0  0  0  0  0  0  0  0  0  # atno 8010 bound_to 7997
  139.8432  144.6630  150.9258 H   0  0  0  0  0  0  0  0  0  0  0  0  # atno 10167 bound_to 10162
  157.6939  131.0543  150.4327 H   0  0  0  0  0  0  0  0  0  0  0  0  # atno 10718 bound_to 10713
  152.9916  135.6170  154.2739 H   0  0  0  0  0  0  0  0  0  0  0  0  # atno 10763 bound_to 10752
  154.2471  135.2786  155.2833 H   0  0  0  0  0  0  0  0  0  0  0  0  # atno 10764 bound_to 10752
  154.5320  135.5785  153.6824 H   0  0  0  0  0  0  0  0  0  0  0  0  # atno 10765 bound_to 10752
  141.1599  133.6829  156.6969 H   0  0  0  0  0  0  0  0  0  0  0  0  # atno 11005 bound_to 11000
  145.5321  141.0426  143.2377 LP  0  0  0  0  0  0  0  0  0  0  0  0  # atno 17320 bound_to 7965
  144.7662  139.6839  143.7213 LP  0  0  0  0  0  0  0  0  0  0  0  0  # atno 17321 bound_to 7965
  140.7796  143.3893  151.1337 LP  0  0  0  0  0  0  0  0  0  0  0  0  # atno 17342 bound_to 10162
  139.7538  143.8739  152.3083 LP  0  0  0  0  0  0  0  0  0  0  0  0  # atno 17343 bound_to 10162
  156.4692  130.4049  149.6528 LP  0  0  0  0  0  0  0  0  0  0  0  0  # atno 17370 bound_to 10713
  156.3615  130.7484  151.2456 LP  0  0  0  0  0  0  0  0  0  0  0  0  # atno 17371 bound_to 10713
  140.2988  134.8180  157.4080 LP  0  0  0  0  0  0  0  0  0  0  0  0  # atno 17394 bound_to 11000
  140.1280  134.5132  155.8128 LP  0  0  0  0  0  0  0  0  0  0  0  0  # atno 17395 bound_to 11000

$$$$
