AV-unprocessed.smi:1047|AV-procd|sdf|4578|dock6
  -GOLD-   22720 3 43D 1   1.00000     0.00000
 Structure written by MMmdl.
 56 58  0  0  0  0  0  0  0  0  2 V2000
  144.5099  134.5026  150.9448 C   0  0  0  0  0  0  0  0  0  0  0  0
  145.4964  135.5071  151.5562 C   0  0  0  0  0  0  0  0  0  0  0  0
  144.8718  136.8331  151.8064 N   0  3  1  0  0  0  0  0  0  0  0  0
  143.6895  136.8038  152.7045 C   0  0  0  0  0  0  0  0  0  0  0  0
  144.1066  136.6871  154.1829 C   0  0  0  0  0  0  0  0  0  0  0  0
  145.0100  137.7358  154.5102 O   0  0  0  0  0  0  0  0  0  0  0  0
  146.2083  137.6845  153.7417 C   0  0  2  0  0  0  0  0  0  0  0  0
  147.1382  138.8028  154.2343 C   0  0  0  0  0  0  0  0  0  0  0  0
  146.7397  140.0962  153.6889 N   0  0  0  0  0  0  0  0  0  0  0  0
  147.4619  141.2185  154.2806 C   0  0  0  0  0  0  0  0  0  0  0  0
  148.9438  140.8667  154.5158 C   0  0  1  0  0  0  0  0  0  0  0  0
  149.5950  140.8294  153.2629 O   0  0  0  0  0  0  0  0  0  0  0  0
  149.6907  141.8935  155.3895 C   0  0  0  0  0  0  0  0  0  0  0  0
  150.4691  141.2692  156.4441 N   0  0  0  0  0  0  0  0  0  0  0  0
  150.7343  139.9560  156.5829 C   0  0  0  0  0  0  0  0  0  0  0  0
  151.4670  139.5897  157.6302 N   0  0  0  0  0  0  0  0  0  0  0  0
  151.7117  140.8085  158.2393 C   0  0  0  0  0  0  0  0  0  0  0  0
  152.4375  141.1183  159.4104 C   0  0  0  0  0  0  0  0  0  0  0  0
  152.5583  142.4538  159.8563 C   0  0  0  0  0  0  0  0  0  0  0  0
  153.3473  142.7418  161.1215 C   0  0  0  0  0  0  0  0  0  0  0  0
  151.9467  143.5045  159.1262 C   0  0  0  0  0  0  0  0  0  0  0  0
  152.0627  144.9470  159.5862 C   0  0  0  0  0  0  0  0  0  0  0  0
  151.2171  143.2125  157.9548 C   0  0  0  0  0  0  0  0  0  0  0  0
  151.1039  141.8797  157.5210 C   0  0  0  0  0  0  0  0  0  0  0  0
  145.8362  137.8677  152.2549 C   0  0  0  0  0  0  0  0  0  0  0  0
  145.0224  133.5782  150.6776 H   0  0  0  0  0  0  0  0  0  0  0  0
  144.0536  134.8998  150.0376 H   0  0  0  0  0  0  0  0  0  0  0  0
  143.7107  134.2393  151.6372 H   0  0  0  0  0  0  0  0  0  0  0  0
  145.9337  135.1028  152.4689 H   0  0  0  0  0  0  0  0  0  0  0  0
  146.3199  135.6300  150.8517 H   0  0  0  0  0  0  0  0  0  0  0  0
  143.1363  137.7334  152.5641 H   0  0  0  0  0  0  0  0  0  0  0  0
  143.0046  136.0015  152.4329 H   0  0  0  0  0  0  0  0  0  0  0  0
  143.2292  136.7693  154.8245 H   0  0  0  0  0  0  0  0  0  0  0  0
  144.5603  135.7186  154.3961 H   0  0  0  0  0  0  0  0  0  0  0  0
  146.7017  136.7209  153.8820 H   0  0  0  0  0  0  0  0  0  0  0  0
  147.1028  138.8483  155.3236 H   0  0  0  0  0  0  0  0  0  0  0  0
  148.1702  138.5735  153.9654 H   0  0  0  0  0  0  0  0  0  0  0  0
  146.8745  140.0979  152.6824 H   0  0  0  0  0  0  0  0  0  0  0  0
  147.3754  142.1098  153.6575 H   0  0  0  0  0  0  0  0  0  0  0  0
  146.9901  141.4649  155.2316 H   0  0  0  0  0  0  0  0  0  0  0  0
  149.0268  139.8828  154.9800 H   0  0  0  0  0  0  0  0  0  0  0  0
  149.2778  140.0786  152.7844 H   0  0  0  0  0  0  0  0  0  0  0  0
  150.3699  142.4877  154.7762 H   0  0  0  0  0  0  0  0  0  0  0  0
  148.9871  142.5943  155.8407 H   0  0  0  0  0  0  0  0  0  0  0  0
  150.3643  139.2274  155.8761 H   0  0  0  0  0  0  0  0  0  0  0  0
  152.9021  140.3173  159.9663 H   0  0  0  0  0  0  0  0  0  0  0  0
  154.1835  143.4076  160.9077 H   0  0  0  0  0  0  0  0  0  0  0  0
  153.7513  141.8272  161.5564 H   0  0  0  0  0  0  0  0  0  0  0  0
  152.7100  143.2141  161.8696 H   0  0  0  0  0  0  0  0  0  0  0  0
  151.5381  145.6233  158.9107 H   0  0  0  0  0  0  0  0  0  0  0  0
  153.1081  145.2541  159.6218 H   0  0  0  0  0  0  0  0  0  0  0  0
  151.6316  145.0668  160.5804 H   0  0  0  0  0  0  0  0  0  0  0  0
  150.7448  144.0035  157.3914 H   0  0  0  0  0  0  0  0  0  0  0  0
  146.7268  137.8554  151.6256 H   0  0  0  0  0  0  0  0  0  0  0  0
  145.3771  138.8471  152.1127 H   0  0  0  0  0  0  0  0  0  0  0  0
  144.5403  137.1406  150.9029 H   0  0  0  0  0  0  0  0  0  0  0  0
  1  2  1  0  0  0  0
  1 26  1  0  0  0  0
  1 27  1  0  0  0  0
  1 28  1  0  0  0  0
  2  3  1  0  0  0  0
  2 29  1  0  0  0  0
  2 30  1  0  0  0  0
  3 25  1  0  0  0  0
  3  4  1  0  0  0  0
  3 56  1  0  0  0  0
  4  5  1  0  0  0  0
  4 31  1  0  0  0  0
  4 32  1  0  0  0  0
  5  6  1  0  0  0  0
  5 33  1  0  0  0  0
  5 34  1  0  0  0  0
  6  7  1  0  0  0  0
  7  8  1  0  0  0  0
  7 25  1  0  0  0  0
  7 35  1  0  0  0  0
  8  9  1  0  0  0  0
  8 36  1  0  0  0  0
  8 37  1  0  0  0  0
  9 10  1  0  0  0  0
  9 38  1  0  0  0  0
 10 11  1  0  0  0  0
 10 39  1  0  0  0  0
 10 40  1  0  0  0  0
 11 12  1  0  0  0  0
 11 13  1  0  0  0  0
 11 41  1  0  0  0  0
 12 42  1  0  0  0  0
 13 14  1  0  0  0  0
 13 43  1  0  0  0  0
 13 44  1  0  0  0  0
 14 24  1  0  0  0  0
 14 15  1  0  0  0  0
 15 16  2  0  0  0  0
 15 45  1  0  0  0  0
 16 17  1  0  0  0  0
 17 24  2  0  0  0  0
 17 18  1  0  0  0  0
 18 19  2  0  0  0  0
 18 46  1  0  0  0  0
 19 20  1  0  0  0  0
 19 21  1  0  0  0  0
 20 47  1  0  0  0  0
 20 48  1  0  0  0  0
 20 49  1  0  0  0  0
 21 22  1  0  0  0  0
 21 23  2  0  0  0  0
 22 50  1  0  0  0  0
 22 51  1  0  0  0  0
 22 52  1  0  0  0  0
 23 24  1  0  0  0  0
 23 53  1  0  0  0  0
 25 54  1  0  0  0  0
 25 55  1  0  0  0  0
M  CHG  1   3   1
M  END
> <s_m_source_file>
AV-unprocessed.smi

> <i_m_source_file_index>
1047

> <i_lp_mmshare_version>
43012

> <i_f3d_flags>
0

> <s_epik_input>
W0NIM11bQ0gyXU4xW0NIMl1bQ0gyXU9bQ0BIXShbQ0gyXTEpW0NIMl1bTkhdW0NIMl1bQ0BIXShbT0hdKVtDSDJdbihbY0hdbjIpYyhjMjMpW2NIXWMoW0NIM10pYyhbY0hdMylbQ0gzXQ==

> <s_epik_cmdline>
J2VwaWtfcHl0aG9uJywgJy1waCcsICc3LjAnLCAnLXRuJywgJzgnLCAnLW1hJywgJzIwMCcsICctbWV0YWxfYmluZGluZycsICctaW1hZScsICc8aW5maWxlLm1hZT4nLCAnLW9tYWUnLCAnPG91dGZpbGUubWFlPic=

> <r_epik_Ionization_Penalty>
1.19246

> <r_epik_Ionization_Penalty_Charging>
0.210041

> <r_epik_Ionization_Penalty_Neutral>
0.982415

> <r_epik_State_Penalty>
1.57595

> <r_epik_Charging_Adjusted_Penalty>
1.78599

> <i_epik_Tot_Q>
1

> <i_epik_Tot_abs_Q>
1

> <r_epik_Metal_State_Penalty>
1.46172

> <b_epik_Metal_Only>
0

> <s_lp_Force_Field>
OPLS_2005

> <r_lp_Energy>
33.2573

> <b_lp_Chiralities_Consistent>
1

> <s_lp_Variant>
AV-unprocessed.smi:1047-19

> <Gold.Version>
5.8.1

> <Gold.Id.Protein>
6NUR|6NUR_protein|mol2

> <Gold.PLP.Fitness>
55.2679

> <Gold.PLP.PLP>
-49.4634

> <Gold.PLP.part.hbond>
-3.3538

> <Gold.PLP.part.metal>
0.0000

> <Gold.PLP.part.buried>
-3.4663

> <Gold.PLP.part.nonpolar>
-43.3678

> <Gold.PLP.part.repulsive>
0.1270

> <Gold.PLP.ligand.clash>
0.0000

> <Gold.PLP.ligand.torsion>
1.1529

> <Gold.PLP.Chemscore.Hbond>
2.6313

> <Gold.PLP.Chemscore.CHOScore>
0.0000

> <Gold.PLP.Chemscore.Metal>
0.0000

> <Gold.Chemscore.Hbonds>
donor molecule, donor type, donor heavy atom, donor atom, acceptor molecule, acceptor atom, score
      L1  H     3    56       P1 10171  0.98
      L1  H    12    42       P1  7957  0.34
      P1  H  7989  7998       L1    12  0.24
      P1  H  8011  8017       L1    12  1.00

> <Gold.PLP.Chemscore.Internal.Correction>
0.2164

> <Gold.Rescore>
     Score         DG    S(hbond)    S(metal)    S(lipo)     H(rot)  DE(clash)    DE(int)     intcor
     20.36     -22.16       2.39        0.00     131.76       2.62       0.51       1.30       ----

> <Gold.Chemscore.Fitness>
20.3602

> <Gold.Chemscore.DG>
-22.1603

> <Gold.Chemscore.ZeroCoef>
-5.4800

> <Gold.Chemscore.Hbond>
2.3875

> <Gold.Chemscore.Metal>
0.0000

> <Gold.Chemscore.Lipo>
131.7565

> <Gold.Chemscore.Internal_Hbond>
0.0000

> <Gold.Chemscore.DEClash>
0.5050

> <Gold.Chemscore.DEInternal>
1.2950

> <Gold.Chemscore.Rot>
2.6209

> <Gold.Chemscore.Internal.Correction>
   9.000000E+99

> <Gold.Chemscore.Hbonds>
donor molecule, donor type, donor heavy atom, donor atom, acceptor molecule, acceptor atom, score
      L1  H     3    56       P1 10171  0.92
      L1  H    12    42       P1  7957  0.32
      P1  H  7989  7998       L1    12  0.17
      P1  H  8011  8017       L1    12  0.91

> <Gold.Chemscore.Hbond.Weighted>
-7.9744

> <Gold.Chemscore.Metal.Weighted>
-0.0000

> <Gold.Chemscore.Lipo.Weighted>
-15.4155

> <Gold.Chemscore.Internal_Hbond.Weighted>
0.0000

> <Gold.Chemscore.DEClash.Weighted>
0.5050

> <Gold.Chemscore.DEInternal.Weighted>
1.2950

> <Gold.Chemscore.Rot.Weighted>
6.7096

> <Gold.Chemscore.Internal.Correction.Weighted>
   9.000000E+99

> <Gold.Protein.RotatedTorsions>
[ 6907 6896 6895 6894 ] final  -81.76 input  -60.11 | X-H torsion
[ 7974 7965 7964 7962 ] final -160.43 input  175.53 | X-H torsion
[ 8008 7997 7996 7995 ] final   29.85 input   59.86 | X-H torsion
[ 10167 10162 10161 10158 ] final  146.85 input  -65.29 | X-H torsion
[ 10718 10713 10712 10709 ] final   78.82 input   66.30 | X-H torsion
[ 10763 10752 10751 10750 ] final   68.65 input  -60.55 | X-H torsion
[ 11005 11000 10999 10996 ] final   75.82 input  -57.11 | X-H torsion

> <Gold.Protein.ActiveResidues>
 VAL166  LYS551  ARG553  GLY616  TRP617  ASP618  TYR619  PRO620  LYS621  CYS622 
 ASP623  PHE694  ASN695  SER759  ASP760  ASP761  ALA762  ILE779  LEU786  VAL792 
 PHE793  MET794  SER795  GLU796  ALA797  LYS798  CYS799  TRP800  GLU811  SER814 

> <Gold.Protein.RotatedAtoms>
  150.6907  134.3769  159.5016 H   0  0  0  0  0  0  0  0  0  0  0  0  # atno 6907 bound_to 6896
  152.1577  134.8935  160.0553 H   0  0  0  0  0  0  0  0  0  0  0  0  # atno 6908 bound_to 6896
  152.0008  133.3790  159.4218 H   0  0  0  0  0  0  0  0  0  0  0  0  # atno 6909 bound_to 6896
  144.7427  140.3543  143.6109 H   0  0  0  0  0  0  0  0  0  0  0  0  # atno 7974 bound_to 7965
  155.0810  140.3210  155.4601 H   0  0  0  0  0  0  0  0  0  0  0  0  # atno 8008 bound_to 7997
  156.2767  140.2095  156.5884 H   0  0  0  0  0  0  0  0  0  0  0  0  # atno 8009 bound_to 7997
  154.6978  140.0510  157.0415 H   0  0  0  0  0  0  0  0  0  0  0  0  # atno 8010 bound_to 7997
  139.4900  144.5799  151.6893 H   0  0  0  0  0  0  0  0  0  0  0  0  # atno 10167 bound_to 10162
  157.6757  130.9886  150.1843 H   0  0  0  0  0  0  0  0  0  0  0  0  # atno 10718 bound_to 10713
  153.0246  135.5239  154.7167 H   0  0  0  0  0  0  0  0  0  0  0  0  # atno 10763 bound_to 10752
  154.6234  135.2891  155.0302 H   0  0  0  0  0  0  0  0  0  0  0  0  # atno 10764 bound_to 10752
  154.1280  135.6597  153.4968 H   0  0  0  0  0  0  0  0  0  0  0  0  # atno 10765 bound_to 10752
  139.9326  134.7549  156.1318 H   0  0  0  0  0  0  0  0  0  0  0  0  # atno 11005 bound_to 11000
  145.7243  139.1718  143.2466 LP  0  0  0  0  0  0  0  0  0  0  0  0  # atno 17320 bound_to 7965
  146.1254  140.7255  142.9438 LP  0  0  0  0  0  0  0  0  0  0  0  0  # atno 17321 bound_to 7965
  140.5403  144.0590  150.6086 LP  0  0  0  0  0  0  0  0  0  0  0  0  # atno 17342 bound_to 10162
  140.3610  143.2908  152.0383 LP  0  0  0  0  0  0  0  0  0  0  0  0  # atno 17343 bound_to 10162
  156.2568  130.3706  149.8173 LP  0  0  0  0  0  0  0  0  0  0  0  0  # atno 17370 bound_to 10713
  156.5929  130.8514  151.3412 LP  0  0  0  0  0  0  0  0  0  0  0  0  # atno 17371 bound_to 10713
  141.0923  133.6709  156.2569 LP  0  0  0  0  0  0  0  0  0  0  0  0  # atno 17394 bound_to 11000
  140.6160  134.5410  157.5541 LP  0  0  0  0  0  0  0  0  0  0  0  0  # atno 17395 bound_to 11000

$$$$
