AV-unprocessed.smi:1033|AV-procd|sdf|4511|dock4
  -GOLD-   22720 2513D 1   1.00000     0.00000
 Structure written by MMmdl.
 57 59  0  0  0  0  0  0  0  0  3 V2000
  152.9018  141.7694  159.0953 C   0  0  0  0  0  0  0  0  0  0  0  0
  151.9466  141.6180  157.9243 C   0  0  0  0  0  0  0  0  0  0  0  0
  152.0197  140.4558  157.1239 C   0  0  0  0  0  0  0  0  0  0  0  0
  151.1492  140.2756  156.0270 C   0  0  0  0  0  0  0  0  0  0  0  0
  151.0491  139.2349  155.1198 N   0  0  0  0  0  0  0  0  0  0  0  0
  150.0573  139.6526  154.3395 C   0  0  0  0  0  0  0  0  0  0  0  0
  149.5090  140.8488  154.6268 N   0  0  0  0  0  0  0  0  0  0  0  0
  148.4346  141.5092  153.9088 C   0  0  0  0  0  0  0  0  0  0  0  0
  147.1171  140.7103  153.9545 C   0  0  1  0  0  0  0  0  0  0  0  0
  146.0541  141.6191  153.7517 O   0  0  0  0  0  0  0  0  0  0  0  0
  147.0314  139.5969  152.8864 C   0  0  0  0  0  0  0  0  0  0  0  0
  145.8775  138.6856  153.0988 N   0  3  2  0  0  0  0  0  0  0  0  0
  145.6060  138.3957  154.5312 C   0  0  0  0  0  0  0  0  0  0  0  0
  144.3656  137.4934  154.6988 C   0  0  0  0  0  0  0  0  0  0  0  0
  144.4582  136.2487  153.8906 N   0  3  2  0  0  0  0  0  0  0  0  0
  145.3472  135.1998  154.4603 C   0  0  0  0  0  0  0  0  0  0  0  0
  144.9177  134.7732  155.8775 C   0  0  2  0  0  0  0  0  0  0  0  0
  145.6982  133.5494  156.3741 C   0  0  0  0  0  0  0  0  0  0  0  0
  143.5433  134.4454  155.8646 O   0  0  0  0  0  0  0  0  0  0  0  0
  144.7405  136.5577  152.4667 C   0  0  0  0  0  0  0  0  0  0  0  0
  145.9974  137.4341  152.3103 C   0  0  0  0  0  0  0  0  0  0  0  0
  150.1970  141.2996  155.7490 C   0  0  0  0  0  0  0  0  0  0  0  0
  150.1139  142.4606  156.5383 C   0  0  0  0  0  0  0  0  0  0  0  0
  150.9903  142.6235  157.6317 C   0  0  0  0  0  0  0  0  0  0  0  0
  150.8903  143.8781  158.4813 C   0  0  0  0  0  0  0  0  0  0  0  0
  153.5583  140.9037  159.1884 H   0  0  0  0  0  0  0  0  0  0  0  0
  152.3491  141.8717  160.0294 H   0  0  0  0  0  0  0  0  0  0  0  0
  153.5290  142.6517  158.9653 H   0  0  0  0  0  0  0  0  0  0  0  0
  152.7478  139.6894  157.3472 H   0  0  0  0  0  0  0  0  0  0  0  0
  149.7135  139.0586  153.5050 H   0  0  0  0  0  0  0  0  0  0  0  0
  148.2926  142.4991  154.3454 H   0  0  0  0  0  0  0  0  0  0  0  0
  148.7519  141.6681  152.8773 H   0  0  0  0  0  0  0  0  0  0  0  0
  147.0092  140.2868  154.9526 H   0  0  0  0  0  0  0  0  0  0  0  0
  145.3590  141.1758  153.2884 H   0  0  0  0  0  0  0  0  0  0  0  0
  146.9536  140.0688  151.9056 H   0  0  0  0  0  0  0  0  0  0  0  0
  147.9442  139.0009  152.8635 H   0  0  0  0  0  0  0  0  0  0  0  0
  146.4820  137.9274  154.9817 H   0  0  0  0  0  0  0  0  0  0  0  0
  145.4389  139.3226  155.0782 H   0  0  0  0  0  0  0  0  0  0  0  0
  144.2028  137.2657  155.7515 H   0  0  0  0  0  0  0  0  0  0  0  0
  143.4804  138.0408  154.3716 H   0  0  0  0  0  0  0  0  0  0  0  0
  145.3339  134.3174  153.8182 H   0  0  0  0  0  0  0  0  0  0  0  0
  146.3800  135.5483  154.4660 H   0  0  0  0  0  0  0  0  0  0  0  0
  145.0674  135.5865  156.5869 H   0  0  0  0  0  0  0  0  0  0  0  0
  146.7668  133.7610  156.4240 H   0  0  0  0  0  0  0  0  0  0  0  0
  145.5602  132.6920  155.7144 H   0  0  0  0  0  0  0  0  0  0  0  0
  145.3757  133.2556  157.3737 H   0  0  0  0  0  0  0  0  0  0  0  0
  143.4444  133.5558  155.5600 H   0  0  0  0  0  0  0  0  0  0  0  0
  144.8362  135.6385  151.8877 H   0  0  0  0  0  0  0  0  0  0  0  0
  143.8792  137.0848  152.0541 H   0  0  0  0  0  0  0  0  0  0  0  0
  146.1330  137.6772  151.2557 H   0  0  0  0  0  0  0  0  0  0  0  0
  146.8872  136.8862  152.6245 H   0  0  0  0  0  0  0  0  0  0  0  0
  149.3811  143.2191  156.3066 H   0  0  0  0  0  0  0  0  0  0  0  0
  150.1266  144.5572  158.1012 H   0  0  0  0  0  0  0  0  0  0  0  0
  151.8400  144.4134  158.4883 H   0  0  0  0  0  0  0  0  0  0  0  0
  150.6290  143.6224  159.5084 H   0  0  0  0  0  0  0  0  0  0  0  0
  143.5373  135.8312  153.9008 H   0  0  0  0  0  0  0  0  0  0  0  0
  145.0687  139.1712  152.7362 H   0  0  0  0  0  0  0  0  0  0  0  0
  1  2  1  0  0  0  0
  1 26  1  0  0  0  0
  1 27  1  0  0  0  0
  1 28  1  0  0  0  0
  2 24  1  0  0  0  0
  2  3  2  0  0  0  0
  3  4  1  0  0  0  0
  3 29  1  0  0  0  0
  4 22  2  0  0  0  0
  4  5  1  0  0  0  0
  5  6  2  0  0  0  0
  6  7  1  0  0  0  0
  6 30  1  0  0  0  0
  7  8  1  0  0  0  0
  7 22  1  0  0  0  0
  8  9  1  0  0  0  0
  8 31  1  0  0  0  0
  8 32  1  0  0  0  0
  9 10  1  0  0  0  0
  9 11  1  0  0  0  0
  9 33  1  0  0  0  0
 10 34  1  0  0  0  0
 11 12  1  0  0  0  0
 11 35  1  0  0  0  0
 11 36  1  0  0  0  0
 12 21  1  0  0  0  0
 12 13  1  0  0  0  0
 12 57  1  0  0  0  0
 13 14  1  0  0  0  0
 13 37  1  0  0  0  0
 13 38  1  0  0  0  0
 14 15  1  0  0  0  0
 14 39  1  0  0  0  0
 14 40  1  0  0  0  0
 15 16  1  0  0  0  0
 15 20  1  0  0  0  0
 15 56  1  0  0  0  0
 16 17  1  0  0  0  0
 16 41  1  0  0  0  0
 16 42  1  0  0  0  0
 17 18  1  0  0  0  0
 17 19  1  0  0  0  0
 17 43  1  0  0  0  0
 18 44  1  0  0  0  0
 18 45  1  0  0  0  0
 18 46  1  0  0  0  0
 19 47  1  0  0  0  0
 20 21  1  0  0  0  0
 20 48  1  0  0  0  0
 20 49  1  0  0  0  0
 21 50  1  0  0  0  0
 21 51  1  0  0  0  0
 22 23  1  0  0  0  0
 23 24  2  0  0  0  0
 23 52  1  0  0  0  0
 24 25  1  0  0  0  0
 25 53  1  0  0  0  0
 25 54  1  0  0  0  0
 25 55  1  0  0  0  0
M  CHG  1  12   1
M  CHG  1  15   1
M  END
> <s_m_source_file>
AV-unprocessed.smi

> <i_m_source_file_index>
1033

> <i_lp_mmshare_version>
43012

> <i_f3d_flags>
0

> <s_epik_input>
W0NIM11jKFtjSF0xKWMoW0NIM10pW2NIXWMoYzEyKW4oW2NIXW4yKVtDSDJdW0NASF0oW09IXSlbQ0gyXU4zW0NIMl1bQ0gyXU4oW0NIMl1bQ0gyXTMpW0NIMl1bQ0BIXShbQ0gzXSlbT0hd

> <s_epik_cmdline>
J2VwaWtfcHl0aG9uJywgJy1waCcsICc3LjAnLCAnLXRuJywgJzgnLCAnLW1hJywgJzIwMCcsICctbWV0YWxfYmluZGluZycsICctaW1hZScsICc8aW5maWxlLm1hZT4nLCAnLW9tYWUnLCAnPG91dGZpbGUubWFlPic=

> <r_epik_Ionization_Penalty>
3.16016

> <r_epik_Ionization_Penalty_Charging>
3.07679

> <r_epik_Ionization_Penalty_Neutral>
0.083365

> <r_epik_State_Penalty>
2.09701

> <r_epik_Charging_Adjusted_Penalty>
5.1738

> <i_epik_Tot_Q>
2

> <i_epik_Tot_abs_Q>
2

> <r_epik_Metal_State_Penalty>
2.02534

> <b_epik_Metal_Only>
0

> <s_lp_Force_Field>
OPLS_2005

> <r_lp_Energy>
29.7714

> <b_lp_Chiralities_Consistent>
1

> <s_lp_Variant>
AV-unprocessed.smi:1033-22

> <Gold.Version>
5.8.1

> <Gold.Id.Protein>
6NUR|6NUR_protein|mol2

> <Gold.PLP.Fitness>
51.9760

> <Gold.PLP.PLP>
-38.2907

> <Gold.PLP.part.hbond>
-3.1159

> <Gold.PLP.part.metal>
0.0000

> <Gold.PLP.part.buried>
-2.0714

> <Gold.PLP.part.nonpolar>
-33.3125

> <Gold.PLP.part.repulsive>
0.0626

> <Gold.PLP.ligand.clash>
0.0000

> <Gold.PLP.ligand.torsion>
0.5374

> <Gold.PLP.Chemscore.Hbond>
3.9913

> <Gold.PLP.Chemscore.CHOScore>
0.8632

> <Gold.PLP.Chemscore.Metal>
0.0000

> <Gold.Chemscore.Hbonds>
donor molecule, donor type, donor heavy atom, donor atom, acceptor molecule, acceptor atom, score
      L1  H    10    34       P1 10175  1.00
      L1  H    12    57       P1 10175  2.00
      L1  H    19    47       P1 10957  0.86
      L1  C     6    30       P1  7957  0.81

> <Gold.PLP.Chemscore.Internal.Correction>
0.1966

> <Gold.Rescore>
     Score         DG    S(hbond)    S(metal)    S(lipo)     H(rot)  DE(clash)    DE(int)     intcor
     15.87     -18.35       2.66        0.00     102.61       3.14       1.74       0.74       ----

> <Gold.Chemscore.Fitness>
15.8656

> <Gold.Chemscore.DG>
-18.3455

> <Gold.Chemscore.ZeroCoef>
-5.4800

> <Gold.Chemscore.Hbond>
2.6626

> <Gold.Chemscore.Metal>
0.0000

> <Gold.Chemscore.Lipo>
102.6126

> <Gold.Chemscore.Internal_Hbond>
0.0000

> <Gold.Chemscore.DEClash>
1.7421

> <Gold.Chemscore.DEInternal>
0.7378

> <Gold.Chemscore.Rot>
3.1380

> <Gold.Chemscore.Internal.Correction>
   9.000000E+99

> <Gold.Chemscore.Hbonds>
donor molecule, donor type, donor heavy atom, donor atom, acceptor molecule, acceptor atom, score
      L1  H    10    34       P1 10175  0.29
      L1  H    12    57       P1 10175  1.00
      L1  H    19    47       P1 10957  0.84

> <Gold.Chemscore.Hbond.Weighted>
-8.8930

> <Gold.Chemscore.Metal.Weighted>
-0.0000

> <Gold.Chemscore.Lipo.Weighted>
-12.0057

> <Gold.Chemscore.Internal_Hbond.Weighted>
0.0000

> <Gold.Chemscore.DEClash.Weighted>
1.7421

> <Gold.Chemscore.DEInternal.Weighted>
0.7378

> <Gold.Chemscore.Rot.Weighted>
8.0332

> <Gold.Chemscore.Internal.Correction.Weighted>
   9.000000E+99

> <Gold.Protein.RotatedTorsions>
[ 6907 6896 6895 6894 ] final -164.47 input  -60.11 | X-H torsion
[ 7974 7965 7964 7962 ] final  -48.18 input  175.53 | X-H torsion
[ 8008 7997 7996 7995 ] final  -79.98 input   59.86 | X-H torsion
[ 10167 10162 10161 10158 ] final -168.67 input  -65.29 | X-H torsion
[ 10718 10713 10712 10709 ] final  117.78 input   66.30 | X-H torsion
[ 10763 10752 10751 10750 ] final -133.29 input  -60.55 | X-H torsion
[ 11005 11000 10999 10996 ] final  -10.07 input  -57.11 | X-H torsion

> <Gold.Protein.ActiveResidues>
 VAL166  LYS551  ARG553  GLY616  TRP617  ASP618  TYR619  PRO620  LYS621  CYS622 
 ASP623  PHE694  ASN695  SER759  ASP760  ASP761  ALA762  ILE779  LEU786  VAL792 
 PHE793  MET794  SER795  GLU796  ALA797  LYS798  CYS799  TRP800  GLU811  SER814 

> <Gold.Protein.RotatedAtoms>
  151.4124  133.3723  159.2745 H   0  0  0  0  0  0  0  0  0  0  0  0  # atno 6907 bound_to 6896
  150.9353  134.8767  159.7588 H   0  0  0  0  0  0  0  0  0  0  0  0  # atno 6908 bound_to 6896
  152.5047  134.4071  159.9488 H   0  0  0  0  0  0  0  0  0  0  0  0  # atno 6909 bound_to 6896
  145.9539  140.7546  142.9491 H   0  0  0  0  0  0  0  0  0  0  0  0  # atno 7974 bound_to 7965
  154.5838  140.0670  156.9142 H   0  0  0  0  0  0  0  0  0  0  0  0  # atno 8008 bound_to 7997
  155.2415  140.3345  155.4273 H   0  0  0  0  0  0  0  0  0  0  0  0  # atno 8009 bound_to 7997
  156.2208  140.1798  156.7466 H   0  0  0  0  0  0  0  0  0  0  0  0  # atno 8010 bound_to 7997
  139.5971  144.1090  152.1701 H   0  0  0  0  0  0  0  0  0  0  0  0  # atno 10167 bound_to 10162
  157.6074  131.1041  150.7664 H   0  0  0  0  0  0  0  0  0  0  0  0  # atno 10718 bound_to 10713
  154.8734  135.3771  154.4549 H   0  0  0  0  0  0  0  0  0  0  0  0  # atno 10763 bound_to 10752
  153.5222  135.7029  153.5731 H   0  0  0  0  0  0  0  0  0  0  0  0  # atno 10764 bound_to 10752
  153.3973  135.3957  155.1929 H   0  0  0  0  0  0  0  0  0  0  0  0  # atno 10765 bound_to 10752
  140.7409  133.8671  155.8967 H   0  0  0  0  0  0  0  0  0  0  0  0  # atno 11005 bound_to 11000
  144.6801  140.2479  143.7335 LP  0  0  0  0  0  0  0  0  0  0  0  0  # atno 17320 bound_to 7965
  145.8134  139.2012  143.1980 LP  0  0  0  0  0  0  0  0  0  0  0  0  # atno 17321 bound_to 7965
  140.0677  144.5804  150.7215 LP  0  0  0  0  0  0  0  0  0  0  0  0  # atno 17342 bound_to 10162
  140.7220  143.2598  151.4247 LP  0  0  0  0  0  0  0  0  0  0  0  0  # atno 17343 bound_to 10162
  156.8049  130.4933  149.5364 LP  0  0  0  0  0  0  0  0  0  0  0  0  # atno 17370 bound_to 10713
  156.1164  130.6078  151.0127 LP  0  0  0  0  0  0  0  0  0  0  0  0  # atno 17371 bound_to 10713
  140.9837  134.1371  157.4471 LP  0  0  0  0  0  0  0  0  0  0  0  0  # atno 17394 bound_to 11000
  139.8806  135.0019  156.6093 LP  0  0  0  0  0  0  0  0  0  0  0  0  # atno 17395 bound_to 11000

$$$$
