AV-unprocessed.smi:1445|AV-procd|sdf|5885|dock3
  -GOLD-   22720 5563D 1   1.00000     0.00000
 Structure written by MMmdl.
 46 47  0  0  0  0  0  0  0  0  2 V2000
  151.8386  138.3241  154.6160 C   0  0  0  0  0  0  0  0  0  0  0  0
  150.4816  138.2737  154.1887 O   0  0  0  0  0  0  0  0  0  0  0  0
  149.6997  139.4034  154.3388 C   0  0  0  0  0  0  0  0  0  0  0  0
  150.2925  140.5449  154.7708 N   0  0  0  0  0  0  0  0  0  0  0  0
  149.5308  141.6473  154.9223 C   0  0  0  0  0  0  0  0  0  0  0  0
  148.1490  141.6698  154.6601 C   0  0  0  0  0  0  0  0  0  0  0  0
  147.5317  140.4875  154.2122 C   0  0  0  0  0  0  0  0  0  0  0  0
  148.3200  139.3238  154.0347 C   0  0  0  0  0  0  0  0  0  0  0  0
  147.8048  138.0695  153.6009 N   0  0  0  0  0  0  0  0  0  0  0  0
  146.5343  137.7172  153.3403 C   0  0  0  0  0  0  0  0  0  0  0  0
  145.5530  138.4550  153.4259 O   0  0  0  0  0  0  0  0  0  0  0  0
  146.4578  136.4372  152.9492 N   0  0  0  0  0  0  0  0  0  0  0  0
  145.2230  135.7414  152.6052 C   0  0  0  0  0  0  0  0  0  0  0  0
  144.9313  134.5819  153.5778 C   0  0  0  0  0  0  0  0  0  0  0  0
  144.5717  133.3285  152.8679 N   0  3  1  0  0  0  0  0  0  0  0  0
  143.8401  133.5899  151.6013 C   0  0  0  0  0  0  0  0  0  0  0  0
  143.3565  132.2795  150.9606 C   0  0  0  0  0  0  0  0  0  0  0  0
  144.5285  131.3193  150.7234 C   0  0  0  0  0  0  0  0  0  0  0  0
  145.2946  131.0795  152.0350 C   0  0  1  0  0  0  0  0  0  0  0  0
  146.4909  130.1413  151.8212 C   0  0  0  0  0  0  0  0  0  0  0  0
  145.7328  132.4235  152.6514 C   0  0  0  0  0  0  0  0  0  0  0  0
  152.3102  137.3594  154.4294 H   0  0  0  0  0  0  0  0  0  0  0  0
  151.9132  138.5270  155.6854 H   0  0  0  0  0  0  0  0  0  0  0  0
  152.4027  139.0794  154.0669 H   0  0  0  0  0  0  0  0  0  0  0  0
  150.0366  142.5368  155.2678 H   0  0  0  0  0  0  0  0  0  0  0  0
  147.5745  142.5731  154.8032 H   0  0  0  0  0  0  0  0  0  0  0  0
  146.4692  140.4997  154.0289 H   0  0  0  0  0  0  0  0  0  0  0  0
  148.5039  137.3637  153.4205 H   0  0  0  0  0  0  0  0  0  0  0  0
  147.3132  135.9028  152.9004 H   0  0  0  0  0  0  0  0  0  0  0  0
  144.4213  136.4784  152.6267 H   0  0  0  0  0  0  0  0  0  0  0  0
  145.2798  135.3738  151.5791 H   0  0  0  0  0  0  0  0  0  0  0  0
  145.8256  134.4042  154.1765 H   0  0  0  0  0  0  0  0  0  0  0  0
  144.1414  134.8515  154.2807 H   0  0  0  0  0  0  0  0  0  0  0  0
  142.9775  134.2283  151.7967 H   0  0  0  0  0  0  0  0  0  0  0  0
  144.4872  134.1323  150.9098 H   0  0  0  0  0  0  0  0  0  0  0  0
  142.6178  131.8050  151.6081 H   0  0  0  0  0  0  0  0  0  0  0  0
  142.8512  132.4899  150.0176 H   0  0  0  0  0  0  0  0  0  0  0  0
  144.1585  130.3751  150.3220 H   0  0  0  0  0  0  0  0  0  0  0  0
  145.1983  131.7378  149.9707 H   0  0  0  0  0  0  0  0  0  0  0  0
  144.6169  130.5915  152.7376 H   0  0  0  0  0  0  0  0  0  0  0  0
  147.2138  130.5711  151.1272 H   0  0  0  0  0  0  0  0  0  0  0  0
  146.1694  129.1823  151.4142 H   0  0  0  0  0  0  0  0  0  0  0  0
  147.0082  129.9426  152.7603 H   0  0  0  0  0  0  0  0  0  0  0  0
  146.4603  132.9162  152.0039 H   0  0  0  0  0  0  0  0  0  0  0  0
  146.2365  132.2301  153.5978 H   0  0  0  0  0  0  0  0  0  0  0  0
  143.9232  132.8391  153.4679 H   0  0  0  0  0  0  0  0  0  0  0  0
  1  2  1  0  0  0  0
  1 22  1  0  0  0  0
  1 23  1  0  0  0  0
  1 24  1  0  0  0  0
  2  3  1  0  0  0  0
  3  8  1  0  0  0  0
  3  4  2  0  0  0  0
  4  5  1  0  0  0  0
  5  6  2  0  0  0  0
  5 25  1  0  0  0  0
  6  7  1  0  0  0  0
  6 26  1  0  0  0  0
  7  8  2  0  0  0  0
  7 27  1  0  0  0  0
  8  9  1  0  0  0  0
  9 10  1  0  0  0  0
  9 28  1  0  0  0  0
 10 11  2  0  0  0  0
 10 12  1  0  0  0  0
 12 13  1  0  0  0  0
 12 29  1  0  0  0  0
 13 14  1  0  0  0  0
 13 30  1  0  0  0  0
 13 31  1  0  0  0  0
 14 15  1  0  0  0  0
 14 32  1  0  0  0  0
 14 33  1  0  0  0  0
 15 21  1  0  0  0  0
 15 16  1  0  0  0  0
 15 46  1  0  0  0  0
 16 17  1  0  0  0  0
 16 34  1  0  0  0  0
 16 35  1  0  0  0  0
 17 18  1  0  0  0  0
 17 36  1  0  0  0  0
 17 37  1  0  0  0  0
 18 19  1  0  0  0  0
 18 38  1  0  0  0  0
 18 39  1  0  0  0  0
 19 20  1  0  0  0  0
 19 21  1  0  0  0  0
 19 40  1  0  0  0  0
 20 41  1  0  0  0  0
 20 42  1  0  0  0  0
 20 43  1  0  0  0  0
 21 44  1  0  0  0  0
 21 45  1  0  0  0  0
M  CHG  1  15   1
M  END
> <s_m_source_file>
AV-unprocessed.smi

> <i_m_source_file_index>
1445

> <i_lp_mmshare_version>
43012

> <i_f3d_flags>
0

> <s_epik_input>
W0NIM11PYzFuW2NIXVtjSF1bY0hdYzFbTkhdQyg9TylbTkhdW0NIMl1bQ0gyXU4yW0NIMl1bQ0gyXVtDSDJdW0NAQEhdKFtDSDNdKVtDSDJdMg==

> <s_epik_cmdline>
J2VwaWtfcHl0aG9uJywgJy1waCcsICc3LjAnLCAnLXRuJywgJzgnLCAnLW1hJywgJzIwMCcsICctbWV0YWxfYmluZGluZycsICctaW1hZScsICc8aW5maWxlLm1hZT4nLCAnLW9tYWUnLCAnPG91dGZpbGUubWFlPic=

> <r_lp_tautomer_probability>
1

> <r_epik_Ionization_Penalty>
0.00179544

> <r_epik_Ionization_Penalty_Charging>
0.00171832

> <r_epik_Ionization_Penalty_Neutral>
7.71118e-05

> <r_epik_State_Penalty>
0.0011618

> <r_epik_Charging_Adjusted_Penalty>
0.00288012

> <i_epik_Tot_Q>
1

> <i_epik_Tot_abs_Q>
1

> <r_epik_Metal_State_Penalty>
-0

> <b_epik_Metal_Only>
0

> <s_lp_Force_Field>
OPLS_2005

> <r_lp_Energy>
18.8564

> <b_lp_Chiralities_Consistent>
1

> <s_lp_Variant>
AV-unprocessed.smi:1445-1

> <Gold.Version>
5.8.1

> <Gold.Id.Protein>
6NUR|6NUR_protein|mol2

> <Gold.PLP.Fitness>
47.0674

> <Gold.PLP.PLP>
-33.0158

> <Gold.PLP.part.hbond>
-3.9509

> <Gold.PLP.part.metal>
0.0000

> <Gold.PLP.part.buried>
-4.7119

> <Gold.PLP.part.nonpolar>
-28.1909

> <Gold.PLP.part.repulsive>
1.9123

> <Gold.PLP.ligand.clash>
0.0885

> <Gold.PLP.ligand.torsion>
0.7776

> <Gold.PLP.Chemscore.Hbond>
4.3977

> <Gold.PLP.Chemscore.CHOScore>
0.8150

> <Gold.PLP.Chemscore.Metal>
0.0000

> <Gold.Chemscore.Hbonds>
donor molecule, donor type, donor heavy atom, donor atom, acceptor molecule, acceptor atom, score
      L1  H     9    28       P1  7948  0.69
      L1  H    12    29       P1  7948  0.61
      L1  H    15    46       P1 10957  1.62
      P1  H  7989  7998       L1     4  0.94
      L1  C     5    25       P1  8028  0.87

> <Gold.PLP.Chemscore.Internal.Correction>
0.0572

> <Gold.Rescore>
     Score         DG    S(hbond)    S(metal)    S(lipo)     H(rot)  DE(clash)    DE(int)     intcor
     18.14     -20.67       2.82        0.00      86.77       1.71       0.40       2.13       ----

> <Gold.Chemscore.Fitness>
18.1384

> <Gold.Chemscore.DG>
-20.6717

> <Gold.Chemscore.ZeroCoef>
-5.4800

> <Gold.Chemscore.Hbond>
2.8200

> <Gold.Chemscore.Metal>
0.0000

> <Gold.Chemscore.Lipo>
86.7712

> <Gold.Chemscore.Internal_Hbond>
0.0000

> <Gold.Chemscore.DEClash>
0.3991

> <Gold.Chemscore.DEInternal>
2.1342

> <Gold.Chemscore.Rot>
1.7107

> <Gold.Chemscore.Internal.Correction>
   9.000000E+99

> <Gold.Chemscore.Hbonds>
donor molecule, donor type, donor heavy atom, donor atom, acceptor molecule, acceptor atom, score
      L1  H     9    28       P1  7948  0.69
      L1  H    12    29       P1  7948  0.59
      L1  H    15    46       P1 10957  0.53
      P1  H  7989  7998       L1     4  0.28

> <Gold.Chemscore.Hbond.Weighted>
-9.4189

> <Gold.Chemscore.Metal.Weighted>
-0.0000

> <Gold.Chemscore.Lipo.Weighted>
-10.1522

> <Gold.Chemscore.Internal_Hbond.Weighted>
0.0000

> <Gold.Chemscore.DEClash.Weighted>
0.3991

> <Gold.Chemscore.DEInternal.Weighted>
2.1342

> <Gold.Chemscore.Rot.Weighted>
4.3794

> <Gold.Chemscore.Internal.Correction.Weighted>
   9.000000E+99

> <Gold.Protein.RotatedTorsions>
[ 6907 6896 6895 6894 ] final  156.53 input  -60.11 | X-H torsion
[ 7974 7965 7964 7962 ] final  152.81 input  175.53 | X-H torsion
[ 8008 7997 7996 7995 ] final -149.20 input   59.86 | X-H torsion
[ 10167 10162 10161 10158 ] final  -87.77 input  -65.29 | X-H torsion
[ 10718 10713 10712 10709 ] final   66.39 input   66.30 | X-H torsion
[ 10763 10752 10751 10750 ] final   47.42 input  -60.55 | X-H torsion
[ 11005 11000 10999 10996 ] final -115.55 input  -57.11 | X-H torsion

> <Gold.Protein.ActiveResidues>
 VAL166  LYS551  ARG553  GLY616  TRP617  ASP618  TYR619  PRO620  LYS621  CYS622 
 ASP623  PHE694  ASN695  SER759  ASP760  ASP761  ALA762  ILE779  LEU786  VAL792 
 PHE793  MET794  SER795  GLU796  ALA797  LYS798  CYS799  TRP800  GLU811  SER814 

> <Gold.Protein.RotatedAtoms>
  152.0283  133.3927  159.4286 H   0  0  0  0  0  0  0  0  0  0  0  0  # atno 6907 bound_to 6896
  150.6884  134.3549  159.4934 H   0  0  0  0  0  0  0  0  0  0  0  0  # atno 6908 bound_to 6896
  152.1332  134.9119  160.0608 H   0  0  0  0  0  0  0  0  0  0  0  0  # atno 6909 bound_to 6896
  144.8197  139.6717  143.6106 H   0  0  0  0  0  0  0  0  0  0  0  0  # atno 7974 bound_to 7965
  155.6038  140.0665  157.2725 H   0  0  0  0  0  0  0  0  0  0  0  0  # atno 8008 bound_to 7997
  154.4271  140.1813  156.1248 H   0  0  0  0  0  0  0  0  0  0  0  0  # atno 8009 bound_to 7997
  156.0138  140.3324  155.6972 H   0  0  0  0  0  0  0  0  0  0  0  0  # atno 8010 bound_to 7997
  140.3812  143.2748  151.9381 H   0  0  0  0  0  0  0  0  0  0  0  0  # atno 10167 bound_to 10162
  157.6166  130.9265  150.0102 H   0  0  0  0  0  0  0  0  0  0  0  0  # atno 10718 bound_to 10713
  152.9800  135.5977  154.3760 H   0  0  0  0  0  0  0  0  0  0  0  0  # atno 10763 bound_to 10752
  154.3429  135.2767  155.2415 H   0  0  0  0  0  0  0  0  0  0  0  0  # atno 10764 bound_to 10752
  154.4488  135.5995  153.6233 H   0  0  0  0  0  0  0  0  0  0  0  0  # atno 10765 bound_to 10752
  141.0480  133.9732  157.2885 H   0  0  0  0  0  0  0  0  0  0  0  0  # atno 11005 bound_to 11000
  146.2502  139.6183  142.9432 LP  0  0  0  0  0  0  0  0  0  0  0  0  # atno 17320 bound_to 7965
  145.5133  141.0434  143.2476 LP  0  0  0  0  0  0  0  0  0  0  0  0  # atno 17321 bound_to 7965
  139.4795  144.5817  151.7922 LP  0  0  0  0  0  0  0  0  0  0  0  0  # atno 17342 bound_to 10162
  140.4935  144.1274  150.5955 LP  0  0  0  0  0  0  0  0  0  0  0  0  # atno 17343 bound_to 10162
  156.1291  130.3644  149.9761 LP  0  0  0  0  0  0  0  0  0  0  0  0  # atno 17370 bound_to 10713
  156.7826  130.9227  151.3646 LP  0  0  0  0  0  0  0  0  0  0  0  0  # atno 17371 bound_to 10713
  139.9327  135.0199  156.8455 LP  0  0  0  0  0  0  0  0  0  0  0  0  # atno 17394 bound_to 11000
  140.6110  134.0083  155.7576 LP  0  0  0  0  0  0  0  0  0  0  0  0  # atno 17395 bound_to 11000

$$$$
