AV-unprocessed.smi:1808|AV-procd|sdf|7307|dock5
  -GOLD-   22720 8563D 1   1.00000     0.00000
 Structure written by MMmdl.
 27 28  0  0  0  0  0  0  0  0  2 V2000
  150.4335  140.3370  154.9223 O   0  0  0  0  0  0  0  0  0  0  0  0
  149.8134  141.3923  155.0745 C   0  0  0  0  0  0  0  0  0  0  0  0
  150.1681  142.2413  156.0496 N   0  0  0  0  0  0  0  0  0  0  0  0
  151.2675  142.0507  156.9895 C   0  0  0  0  0  0  0  0  0  0  0  0
  151.2057  143.0629  158.1452 C   0  0  2  0  0  0  0  0  0  0  0  0
  151.8858  144.3926  157.8379 C   0  0  0  0  0  0  0  0  0  0  0  0
  152.1404  144.9560  159.2234 C   0  0  0  0  0  0  0  0  0  0  0  0
  152.2285  143.7104  160.1114 C   0  0  0  0  0  0  0  0  0  0  0  0
  151.9472  142.6014  159.2643 O   0  0  0  0  0  0  0  0  0  0  0  0
  148.7654  141.8198  154.3341 N   0  5  0  0  0  0  0  0  0  0  0  0
  148.0443  140.9404  153.6198 C   0  0  0  0  0  0  0  0  0  0  0  0
  148.1533  139.6152  153.7690 N   0  0  0  0  0  0  0  0  0  0  0  0
  147.3054  138.8903  152.9296 C   0  0  0  0  0  0  0  0  0  0  0  0
  146.5262  139.6820  152.1281 C   0  0  0  0  0  0  0  0  0  0  0  0
  146.8366  141.3720  152.4056 S   0  0  0  0  0  0  0  0  0  0  0  0
  149.6365  143.0950  156.1371 H   0  0  0  0  0  0  0  0  0  0  0  0
  151.2175  141.0332  157.3774 H   0  0  0  0  0  0  0  0  0  0  0  0
  152.2198  142.1345  156.4634 H   0  0  0  0  0  0  0  0  0  0  0  0
  150.1732  143.2439  158.4502 H   0  0  0  0  0  0  0  0  0  0  0  0
  152.8349  144.2234  157.3273 H   0  0  0  0  0  0  0  0  0  0  0  0
  151.2757  145.0479  157.2158 H   0  0  0  0  0  0  0  0  0  0  0  0
  153.0448  145.5638  159.2605 H   0  0  0  0  0  0  0  0  0  0  0  0
  151.3022  145.5788  159.5382 H   0  0  0  0  0  0  0  0  0  0  0  0
  153.2158  143.5946  160.5589 H   0  0  0  0  0  0  0  0  0  0  0  0
  151.4942  143.7565  160.9164 H   0  0  0  0  0  0  0  0  0  0  0  0
  147.3213  137.8115  152.9707 H   0  0  0  0  0  0  0  0  0  0  0  0
  145.7927  139.3776  151.3971 H   0  0  0  0  0  0  0  0  0  0  0  0
  1  2  2  0  0  0  0
  2  3  1  0  0  0  0
  2 10  1  0  0  0  0
  3  4  1  0  0  0  0
  3 16  1  0  0  0  0
  4  5  1  0  0  0  0
  4 17  1  0  0  0  0
  4 18  1  0  0  0  0
  5  9  1  0  0  0  0
  5  6  1  0  0  0  0
  5 19  1  0  0  0  0
  6  7  1  0  0  0  0
  6 20  1  0  0  0  0
  6 21  1  0  0  0  0
  7  8  1  0  0  0  0
  7 22  1  0  0  0  0
  7 23  1  0  0  0  0
  8  9  1  0  0  0  0
  8 24  1  0  0  0  0
  8 25  1  0  0  0  0
 10 11  1  0  0  0  0
 11 15  1  0  0  0  0
 11 12  2  0  0  0  0
 12 13  1  0  0  0  0
 13 14  2  0  0  0  0
 13 26  1  0  0  0  0
 14 15  1  0  0  0  0
 14 27  1  0  0  0  0
M  CHG  1  10  -1
M  END
> <s_m_source_file>
AV-unprocessed.smi

> <i_m_source_file_index>
1808

> <i_lp_mmshare_version>
43012

> <i_f3d_flags>
0

> <s_epik_input>
czFbY0hdW2NIXW5jMVtOSF1DKD1PKVtOSF1bQ0gyXVtDQEBIXTJbQ0gyXVtDSDJdW0NIMl1PMg==

> <s_epik_cmdline>
J2VwaWtfcHl0aG9uJywgJy1waCcsICc3LjAnLCAnLXRuJywgJzgnLCAnLW1hJywgJzIwMCcsICctbWV0YWxfYmluZGluZycsICctaW1hZScsICc8aW5maWxlLm1hZT4nLCAnLW9tYWUnLCAnPG91dGZpbGUubWFlPic=

> <r_lp_tautomer_probability>
0.999

> <r_epik_Ionization_Penalty>
8.26346

> <r_epik_Ionization_Penalty_Charging>
6.6559

> <r_epik_Ionization_Penalty_Neutral>
1.60756

> <r_epik_State_Penalty>
6.65607

> <r_epik_Charging_Adjusted_Penalty>
13.312

> <i_epik_Tot_Q>
-1

> <i_epik_Tot_abs_Q>
1

> <r_epik_Metal_State_Penalty>
2.5789

> <b_epik_Metal_Only>
1

> <s_lp_Force_Field>
OPLS_2005

> <r_lp_Energy>
12.338

> <b_lp_Chiralities_Consistent>
1

> <s_lp_Variant>
AV-unprocessed.smi:1808-3

> <Gold.Version>
5.8.1

> <Gold.Id.Protein>
6NUR|6NUR_protein|mol2

> <Gold.PLP.Fitness>
40.9266

> <Gold.PLP.PLP>
-29.0875

> <Gold.PLP.part.hbond>
-3.0000

> <Gold.PLP.part.metal>
0.0000

> <Gold.PLP.part.buried>
-0.0015

> <Gold.PLP.part.nonpolar>
-26.6452

> <Gold.PLP.part.repulsive>
1.1302

> <Gold.PLP.ligand.clash>
0.0000

> <Gold.PLP.ligand.torsion>
0.4377

> <Gold.PLP.Chemscore.Hbond>
2.0422

> <Gold.PLP.Chemscore.CHOScore>
2.1912

> <Gold.PLP.Chemscore.Metal>
0.0000

> <Gold.Chemscore.Hbonds>
donor molecule, donor type, donor heavy atom, donor atom, acceptor molecule, acceptor atom, score
      L1  H     3    16       P1  8028  1.00
      P1  H  7989  7998       L1     1  0.95
      P1  H  8011  8017       L1    10  0.04
      L1  C    13    26       P1  7948  0.95
      L1  C    14    27       P1 10171  0.85
      L1  C    14    27       P1 10175  0.34

> <Gold.PLP.Chemscore.Internal.Correction>
0.0143

> <Gold.Rescore>
     Score         DG    S(hbond)    S(metal)    S(lipo)     H(rot)  DE(clash)    DE(int)     intcor
     12.84     -16.68       1.45        0.00      82.75       1.30       1.97       1.86       ----

> <Gold.Chemscore.Fitness>
12.8432

> <Gold.Chemscore.DG>
-16.6775

> <Gold.Chemscore.ZeroCoef>
-5.4800

> <Gold.Chemscore.Hbond>
1.4502

> <Gold.Chemscore.Metal>
0.0000

> <Gold.Chemscore.Lipo>
82.7506

> <Gold.Chemscore.Internal_Hbond>
0.0000

> <Gold.Chemscore.DEClash>
1.9724

> <Gold.Chemscore.DEInternal>
1.8619

> <Gold.Chemscore.Rot>
1.3000

> <Gold.Chemscore.Internal.Correction>
   9.000000E+99

> <Gold.Chemscore.Hbonds>
donor molecule, donor type, donor heavy atom, donor atom, acceptor molecule, acceptor atom, score
      L1  H     3    16       P1  8028  0.99
      P1  H  7989  7998       L1     1  0.21

> <Gold.Chemscore.Hbond.Weighted>
-4.8437

> <Gold.Chemscore.Metal.Weighted>
-0.0000

> <Gold.Chemscore.Lipo.Weighted>
-9.6818

> <Gold.Chemscore.Internal_Hbond.Weighted>
0.0000

> <Gold.Chemscore.DEClash.Weighted>
1.9724

> <Gold.Chemscore.DEInternal.Weighted>
1.8619

> <Gold.Chemscore.Rot.Weighted>
3.3280

> <Gold.Chemscore.Internal.Correction.Weighted>
   9.000000E+99

> <Gold.Protein.RotatedTorsions>
[ 6907 6896 6895 6894 ] final -138.41 input  -60.11 | X-H torsion
[ 7974 7965 7964 7962 ] final   97.60 input  175.53 | X-H torsion
[ 8008 7997 7996 7995 ] final  -92.47 input   59.86 | X-H torsion
[ 10167 10162 10161 10158 ] final   99.05 input  -65.29 | X-H torsion
[ 10718 10713 10712 10709 ] final -161.11 input   66.30 | X-H torsion
[ 10763 10752 10751 10750 ] final -155.96 input  -60.55 | X-H torsion
[ 11005 11000 10999 10996 ] final  166.51 input  -57.11 | X-H torsion

> <Gold.Protein.ActiveResidues>
 VAL166  LYS551  ARG553  GLY616  TRP617  ASP618  TYR619  PRO620  LYS621  CYS622 
 ASP623  PHE694  ASN695  SER759  ASP760  ASP761  ALA762  ILE779  LEU786  VAL792 
 PHE793  MET794  SER795  GLU796  ALA797  LYS798  CYS799  TRP800  GLU811  SER814 

> <Gold.Protein.RotatedAtoms>
  151.0347  133.5759  159.2656 H   0  0  0  0  0  0  0  0  0  0  0  0  # atno 6907 bound_to 6896
  151.2827  135.0718  159.9185 H   0  0  0  0  0  0  0  0  0  0  0  0  # atno 6908 bound_to 6896
  152.5352  134.0059  159.7970 H   0  0  0  0  0  0  0  0  0  0  0  0  # atno 6909 bound_to 6896
  145.4233  139.2319  143.3184 H   0  0  0  0  0  0  0  0  0  0  0  0  # atno 7974 bound_to 7965
  154.7235  140.0508  157.0661 H   0  0  0  0  0  0  0  0  0  0  0  0  # atno 8008 bound_to 7997
  155.0396  140.3167  155.4710 H   0  0  0  0  0  0  0  0  0  0  0  0  # atno 8009 bound_to 7997
  156.2823  140.2135  156.5519 H   0  0  0  0  0  0  0  0  0  0  0  0  # atno 8010 bound_to 7997
  139.7653  144.6941  151.0234 H   0  0  0  0  0  0  0  0  0  0  0  0  # atno 10167 bound_to 10162
  156.5917  130.8773  151.2891 H   0  0  0  0  0  0  0  0  0  0  0  0  # atno 10718 bound_to 10713
  154.7748  135.3156  154.8114 H   0  0  0  0  0  0  0  0  0  0  0  0  # atno 10763 bound_to 10752
  153.8841  135.6832  153.4769 H   0  0  0  0  0  0  0  0  0  0  0  0  # atno 10764 bound_to 10752
  153.1369  135.4755  154.9372 H   0  0  0  0  0  0  0  0  0  0  0  0  # atno 10765 bound_to 10752
  140.2671  134.7856  157.3642 H   0  0  0  0  0  0  0  0  0  0  0  0  # atno 11005 bound_to 11000
  146.2645  140.4960  142.8840 LP  0  0  0  0  0  0  0  0  0  0  0  0  # atno 17320 bound_to 7965
  144.8231  140.6583  143.6340 LP  0  0  0  0  0  0  0  0  0  0  0  0  # atno 17321 bound_to 7965
  140.7810  143.4650  151.0224 LP  0  0  0  0  0  0  0  0  0  0  0  0  # atno 17342 bound_to 10162
  139.8336  143.7658  152.3180 LP  0  0  0  0  0  0  0  0  0  0  0  0  # atno 17343 bound_to 10162
  157.7302  130.9682  150.1822 LP  0  0  0  0  0  0  0  0  0  0  0  0  # atno 17370 bound_to 10713
  156.2544  130.3704  149.8197 LP  0  0  0  0  0  0  0  0  0  0  0  0  # atno 17371 bound_to 10713
  140.1408  134.4974  155.8033 LP  0  0  0  0  0  0  0  0  0  0  0  0  # atno 17394 bound_to 11000
  141.2182  133.6825  156.7207 LP  0  0  0  0  0  0  0  0  0  0  0  0  # atno 17395 bound_to 11000

$$$$
