AV-unprocessed.smi:1715|AV-procd|sdf|6910|dock8
  -GOLD-   22720 8113D 1   1.00000     0.00000
 Structure written by MMmdl.
 40 41  0  0  0  0  0  0  0  0  1 V2000
  151.8224  145.4232  159.3698 C   0  0  0  0  0  0  0  0  0  0  0  0
  152.4233  144.0298  159.1568 C   0  0  2  0  0  0  0  0  0  0  0  0
  151.4340  143.0663  158.4744 C   0  0  0  0  0  0  0  0  0  0  0  0
  151.9829  141.7216  158.3400 N   0  0  0  0  0  0  0  0  0  0  0  0
  151.0276  140.8319  157.6824 C   0  0  0  0  0  0  0  0  0  0  0  0
  150.3656  141.4098  156.4173 C   0  0  0  0  0  0  0  0  0  0  0  0
  149.4301  140.4600  155.8277 N   0  0  0  0  0  0  0  0  0  0  0  0
  148.9190  140.5500  154.5918 C   0  0  0  0  0  0  0  0  0  0  0  0
  149.1882  141.4605  153.8080 O   0  0  0  0  0  0  0  0  0  0  0  0
  148.0859  139.5288  154.3328 N   0  0  0  0  0  0  0  0  0  0  0  0
  147.3658  139.2877  153.1355 C   0  0  0  0  0  0  0  0  0  0  0  0
  147.1255  138.0013  152.5811 C   0  0  0  0  0  0  0  0  0  0  0  0
  146.4266  138.0812  151.4579 N   0  0  0  0  0  0  0  0  0  0  0  0
  146.2189  139.4068  151.2898 N   0  0  0  0  0  0  0  0  0  0  0  0
  146.7719  140.1796  152.2869 C   0  0  0  0  0  0  0  0  0  0  0  0
  152.3831  141.2406  159.6602 C   0  0  0  0  0  0  0  0  0  0  0  0
  153.3711  142.2015  160.3497 C   0  0  2  0  0  0  0  0  0  0  0  0
  153.7265  141.7471  161.7693 C   0  0  0  0  0  0  0  0  0  0  0  0
  152.7855  143.4982  160.4282 O   0  0  0  0  0  0  0  0  0  0  0  0
  145.7035  139.7647  150.4979 H   0  0  0  0  0  0  0  0  0  0  0  0
  151.5383  145.8770  158.4201 H   0  0  0  0  0  0  0  0  0  0  0  0
  152.5393  146.0867  159.8540 H   0  0  0  0  0  0  0  0  0  0  0  0
  150.9328  145.3775  159.9987 H   0  0  0  0  0  0  0  0  0  0  0  0
  153.3215  144.1257  158.5443 H   0  0  0  0  0  0  0  0  0  0  0  0
  150.5075  143.0300  159.0503 H   0  0  0  0  0  0  0  0  0  0  0  0
  151.1731  143.4571  157.4901 H   0  0  0  0  0  0  0  0  0  0  0  0
  151.5124  139.8847  157.4412 H   0  0  0  0  0  0  0  0  0  0  0  0
  150.2354  140.5895  158.3923 H   0  0  0  0  0  0  0  0  0  0  0  0
  149.8552  142.3470  156.6464 H   0  0  0  0  0  0  0  0  0  0  0  0
  151.1130  141.6384  155.6585 H   0  0  0  0  0  0  0  0  0  0  0  0
  149.1531  139.6779  156.4026 H   0  0  0  0  0  0  0  0  0  0  0  0
  147.9529  138.8515  155.0692 H   0  0  0  0  0  0  0  0  0  0  0  0
  147.4286  137.0321  152.9489 H   0  0  0  0  0  0  0  0  0  0  0  0
  146.6920  141.2564  152.2958 H   0  0  0  0  0  0  0  0  0  0  0  0
  151.5005  141.1136  160.2891 H   0  0  0  0  0  0  0  0  0  0  0  0
  152.8527  140.2609  159.5785 H   0  0  0  0  0  0  0  0  0  0  0  0
  154.2888  142.2641  159.7623 H   0  0  0  0  0  0  0  0  0  0  0  0
  154.1911  140.7608  161.7616 H   0  0  0  0  0  0  0  0  0  0  0  0
  152.8392  141.6950  162.4009 H   0  0  0  0  0  0  0  0  0  0  0  0
  154.4269  142.4403  162.2356 H   0  0  0  0  0  0  0  0  0  0  0  0
  1  2  1  0  0  0  0
  1 21  1  0  0  0  0
  1 22  1  0  0  0  0
  1 23  1  0  0  0  0
  2 19  1  0  0  0  0
  2  3  1  0  0  0  0
  2 24  1  0  0  0  0
  3  4  1  0  0  0  0
  3 25  1  0  0  0  0
  3 26  1  0  0  0  0
  4  5  1  0  0  0  0
  4 16  1  0  0  0  0
  5  6  1  0  0  0  0
  5 27  1  0  0  0  0
  5 28  1  0  0  0  0
  6  7  1  0  0  0  0
  6 29  1  0  0  0  0
  6 30  1  0  0  0  0
  7  8  1  0  0  0  0
  7 31  1  0  0  0  0
  8  9  2  0  0  0  0
  8 10  1  0  0  0  0
 10 11  1  0  0  0  0
 10 32  1  0  0  0  0
 11 15  2  0  0  0  0
 11 12  1  0  0  0  0
 12 13  2  0  0  0  0
 12 33  1  0  0  0  0
 13 14  1  0  0  0  0
 14 20  1  0  0  0  0
 14 15  1  0  0  0  0
 15 34  1  0  0  0  0
 16 17  1  0  0  0  0
 16 35  1  0  0  0  0
 16 36  1  0  0  0  0
 17 18  1  0  0  0  0
 17 19  1  0  0  0  0
 17 37  1  0  0  0  0
 18 38  1  0  0  0  0
 18 39  1  0  0  0  0
 18 40  1  0  0  0  0
M  END
> <s_m_source_file>
AV-unprocessed.smi

> <i_m_source_file_index>
1715

> <i_lp_mmshare_version>
43012

> <i_f3d_flags>
0

> <s_epik_input>
W0NIM11bQ0BASF0xW0NIMl1OKFtDSDJdW0NASF0oTzEpW0NIM10pW0NIMl1bQ0gyXVtOSF1DKD1PKVtOSF1jMltjSF1uW25IXVtjSF0y

> <s_epik_cmdline>
J2VwaWtfcHl0aG9uJywgJy1waCcsICc3LjAnLCAnLXRuJywgJzgnLCAnLW1hJywgJzIwMCcsICctbWV0YWxfYmluZGluZycsICctaW1hZScsICc8aW5maWxlLm1hZT4nLCAnLW9tYWUnLCAnPG91dGZpbGUubWFlPic=

> <r_lp_tautomer_probability>
0.5

> <r_epik_Ionization_Penalty>
0.242771

> <r_epik_Ionization_Penalty_Charging>
0

> <r_epik_Ionization_Penalty_Neutral>
0.242771

> <r_epik_State_Penalty>
0.233765

> <r_epik_Charging_Adjusted_Penalty>
0.233765

> <i_epik_Tot_Q>
0

> <i_epik_Tot_abs_Q>
0

> <r_epik_Metal_State_Penalty>
0.233764

> <b_epik_Metal_Only>
0

> <s_lp_Force_Field>
OPLS_2005

> <r_lp_Energy>
21.5882

> <b_lp_Chiralities_Consistent>
1

> <s_lp_Variant>
AV-unprocessed.smi:1715-2

> <Gold.Version>
5.8.1

> <Gold.Id.Protein>
6NUR|6NUR_protein|mol2

> <Gold.PLP.Fitness>
40.0665

> <Gold.PLP.PLP>
-35.5669

> <Gold.PLP.part.hbond>
-4.0704

> <Gold.PLP.part.metal>
0.0000

> <Gold.PLP.part.buried>
0.7444

> <Gold.PLP.part.nonpolar>
-34.7901

> <Gold.PLP.part.repulsive>
1.8440

> <Gold.PLP.ligand.clash>
0.0000

> <Gold.PLP.ligand.torsion>
0.4374

> <Gold.PLP.Chemscore.Hbond>
1.1838

> <Gold.PLP.Chemscore.CHOScore>
0.6042

> <Gold.PLP.Chemscore.Metal>
0.0000

> <Gold.Chemscore.Hbonds>
donor molecule, donor type, donor heavy atom, donor atom, acceptor molecule, acceptor atom, score
      L1  H    14    20       P1 10171  0.19
      P1  H  7954  7966       L1    13  0.18
      P1  H  8011  8017       L1     9  0.77
      L1  C    12    33       P1  7948  0.64

> <Gold.PLP.Chemscore.Internal.Correction>
0.0106

> <Gold.Rescore>
     Score         DG    S(hbond)    S(metal)    S(lipo)     H(rot)  DE(clash)    DE(int)     intcor
     14.77     -17.35       1.38        0.00      97.57       1.63       2.17       0.41       ----

> <Gold.Chemscore.Fitness>
14.7707

> <Gold.Chemscore.DG>
-17.3454

> <Gold.Chemscore.ZeroCoef>
-5.4800

> <Gold.Chemscore.Hbond>
1.3829

> <Gold.Chemscore.Metal>
0.0000

> <Gold.Chemscore.Lipo>
97.5730

> <Gold.Chemscore.Internal_Hbond>
0.0000

> <Gold.Chemscore.DEClash>
2.1678

> <Gold.Chemscore.DEInternal>
0.4068

> <Gold.Chemscore.Rot>
1.6287

> <Gold.Chemscore.Internal.Correction>
   9.000000E+99

> <Gold.Chemscore.Hbonds>
donor molecule, donor type, donor heavy atom, donor atom, acceptor molecule, acceptor atom, score
      L1  H    14    20       P1 10171  0.18
      P1  H  7954  7966       L1    13  0.01
      P1  H  8011  8017       L1     9  0.76

> <Gold.Chemscore.Hbond.Weighted>
-4.6189

> <Gold.Chemscore.Metal.Weighted>
-0.0000

> <Gold.Chemscore.Lipo.Weighted>
-11.4160

> <Gold.Chemscore.Internal_Hbond.Weighted>
0.0000

> <Gold.Chemscore.DEClash.Weighted>
2.1678

> <Gold.Chemscore.DEInternal.Weighted>
0.4068

> <Gold.Chemscore.Rot.Weighted>
4.1695

> <Gold.Chemscore.Internal.Correction.Weighted>
   9.000000E+99

> <Gold.Protein.RotatedTorsions>
[ 6907 6896 6895 6894 ] final   18.12 input  -60.11 | X-H torsion
[ 7974 7965 7964 7962 ] final -165.35 input  175.53 | X-H torsion
[ 8008 7997 7996 7995 ] final -171.74 input   59.86 | X-H torsion
[ 10167 10162 10161 10158 ] final  127.42 input  -65.29 | X-H torsion
[ 10718 10713 10712 10709 ] final  -61.43 input   66.30 | X-H torsion
[ 10763 10752 10751 10750 ] final  149.60 input  -60.55 | X-H torsion
[ 11005 11000 10999 10996 ] final   27.03 input  -57.11 | X-H torsion

> <Gold.Protein.ActiveResidues>
 VAL166  LYS551  ARG553  GLY616  TRP617  ASP618  TYR619  PRO620  LYS621  CYS622 
 ASP623  PHE694  ASN695  SER759  ASP760  ASP761  ALA762  ILE779  LEU786  VAL792 
 PHE793  MET794  SER795  GLU796  ALA797  LYS798  CYS799  TRP800  GLU811  SER814 

> <Gold.Protein.RotatedAtoms>
  151.8603  135.0526  160.0468 H   0  0  0  0  0  0  0  0  0  0  0  0  # atno 6907 bound_to 6896
  152.2668  133.5342  159.5423 H   0  0  0  0  0  0  0  0  0  0  0  0  # atno 6908 bound_to 6896
  150.7136  134.0669  159.3893 H   0  0  0  0  0  0  0  0  0  0  0  0  # atno 6909 bound_to 6896
  144.7272  140.2826  143.6233 H   0  0  0  0  0  0  0  0  0  0  0  0  # atno 7974 bound_to 7965
  155.9354  140.1099  157.1098 H   0  0  0  0  0  0  0  0  0  0  0  0  # atno 8008 bound_to 7997
  154.4079  140.1229  156.4923 H   0  0  0  0  0  0  0  0  0  0  0  0  # atno 8009 bound_to 7997
  155.7028  140.3471  155.4942 H   0  0  0  0  0  0  0  0  0  0  0  0  # atno 8010 bound_to 7997
  139.5579  144.6861  151.4129 H   0  0  0  0  0  0  0  0  0  0  0  0  # atno 10167 bound_to 10162
  156.0922  130.4198  150.0993 H   0  0  0  0  0  0  0  0  0  0  0  0  # atno 10718 bound_to 10713
  154.0738  135.2864  155.3303 H   0  0  0  0  0  0  0  0  0  0  0  0  # atno 10763 bound_to 10752
  154.6729  135.5292  153.8165 H   0  0  0  0  0  0  0  0  0  0  0  0  # atno 10764 bound_to 10752
  153.0475  135.6562  154.0918 H   0  0  0  0  0  0  0  0  0  0  0  0  # atno 10765 bound_to 10752
  140.3306  134.2441  155.7703 H   0  0  0  0  0  0  0  0  0  0  0  0  # atno 11005 bound_to 11000
  145.7934  139.1936  143.2090 LP  0  0  0  0  0  0  0  0  0  0  0  0  # atno 17320 bound_to 7965
  146.0737  140.7841  142.9675 LP  0  0  0  0  0  0  0  0  0  0  0  0  # atno 17321 bound_to 7965
  140.6855  143.7984  150.7180 LP  0  0  0  0  0  0  0  0  0  0  0  0  # atno 17342 bound_to 10162
  140.1451  143.4407  152.2168 LP  0  0  0  0  0  0  0  0  0  0  0  0  # atno 17343 bound_to 10162
  156.9000  130.9617  151.3577 LP  0  0  0  0  0  0  0  0  0  0  0  0  # atno 17370 bound_to 10713
  157.6075  130.8558  149.8898 LP  0  0  0  0  0  0  0  0  0  0  0  0  # atno 17371 bound_to 10713
  141.2064  133.7834  157.0178 LP  0  0  0  0  0  0  0  0  0  0  0  0  # atno 17394 bound_to 11000
  140.0863  134.9618  157.1706 LP  0  0  0  0  0  0  0  0  0  0  0  0  # atno 17395 bound_to 11000

$$$$
