AV-unprocessed.smi:2468|AV-procd|sdf|9732|dock3
  -GOLD-   2272013373D 1   1.00000     0.00000
 Structure written by MMmdl.
 32 33  0  0  0  0  0  0  0  0  1 V2000
  152.7962  143.7995  162.2206 C   0  0  0  0  0  0  0  0  0  0  0  0
  152.9929  142.6491  161.2514 C   0  0  0  0  0  0  0  0  0  0  0  0
  153.9077  141.7252  161.6185 N   0  0  0  0  0  0  0  0  0  0  0  0
  154.1158  140.6766  160.7964 C   0  0  0  0  0  0  0  0  0  0  0  0
  153.4344  140.5011  159.5768 C   0  0  0  0  0  0  0  0  0  0  0  0
  152.4876  141.4759  159.1808 C   0  0  0  0  0  0  0  0  0  0  0  0
  151.7284  141.3860  157.9816 N   0  0  0  0  0  0  0  0  0  0  0  0
  151.8719  140.5326  156.9507 C   0  0  0  0  0  0  0  0  0  0  0  0
  152.7295  139.6515  156.8913 O   0  0  0  0  0  0  0  0  0  0  0  0
  150.8756  140.7193  155.7961 C   0  0  1  0  0  0  0  0  0  0  0  0
  151.1585  139.7807  154.7581 O   0  0  0  0  0  0  0  0  0  0  0  0
  149.9482  139.2860  154.1920 C   0  0  0  0  0  0  0  0  0  0  0  0
  148.8274  140.1260  154.7955 C   0  0  0  0  0  0  0  0  0  0  0  0
  149.3972  140.4924  156.1509 C   0  0  2  0  0  0  0  0  0  0  0  0
  148.6991  141.6944  156.8068 C   0  0  0  0  0  0  0  0  0  0  0  0
  152.2534  142.5690  160.0479 C   0  0  0  0  0  0  0  0  0  0  0  0
  151.0911  143.7878  159.6426 Cl  0  0  0  0  0  0  0  0  0  0  0  0
  153.0214  144.7485  161.7334 H   0  0  0  0  0  0  0  0  0  0  0  0
  153.4458  143.7058  163.0919 H   0  0  0  0  0  0  0  0  0  0  0  0
  151.7643  143.8275  162.5714 H   0  0  0  0  0  0  0  0  0  0  0  0
  154.8439  139.9496  161.1243 H   0  0  0  0  0  0  0  0  0  0  0  0
  153.6398  139.6239  158.9829 H   0  0  0  0  0  0  0  0  0  0  0  0
  151.0394  142.1131  157.8521 H   0  0  0  0  0  0  0  0  0  0  0  0
  151.0059  141.7192  155.3795 H   0  0  0  0  0  0  0  0  0  0  0  0
  149.9667  139.3383  153.1030 H   0  0  0  0  0  0  0  0  0  0  0  0
  149.8367  138.2398  154.4790 H   0  0  0  0  0  0  0  0  0  0  0  0
  148.6700  141.0226  154.1937 H   0  0  0  0  0  0  0  0  0  0  0  0
  147.8812  139.5877  154.8586 H   0  0  0  0  0  0  0  0  0  0  0  0
  149.3065  139.6249  156.8077 H   0  0  0  0  0  0  0  0  0  0  0  0
  148.7699  142.5854  156.1823 H   0  0  0  0  0  0  0  0  0  0  0  0
  149.1410  141.9319  157.7744 H   0  0  0  0  0  0  0  0  0  0  0  0
  147.6414  141.4868  156.9709 H   0  0  0  0  0  0  0  0  0  0  0  0
  1  2  1  0  0  0  0
  1 18  1  0  0  0  0
  1 19  1  0  0  0  0
  1 20  1  0  0  0  0
  2 16  1  0  0  0  0
  2  3  2  0  0  0  0
  3  4  1  0  0  0  0
  4  5  2  0  0  0  0
  4 21  1  0  0  0  0
  5  6  1  0  0  0  0
  5 22  1  0  0  0  0
  6  7  1  0  0  0  0
  6 16  2  0  0  0  0
  7  8  1  0  0  0  0
  7 23  1  0  0  0  0
  8  9  2  0  0  0  0
  8 10  1  0  0  0  0
 10 14  1  0  0  0  0
 10 11  1  0  0  0  0
 10 24  1  0  0  0  0
 11 12  1  0  0  0  0
 12 13  1  0  0  0  0
 12 25  1  0  0  0  0
 12 26  1  0  0  0  0
 13 14  1  0  0  0  0
 13 27  1  0  0  0  0
 13 28  1  0  0  0  0
 14 15  1  0  0  0  0
 14 29  1  0  0  0  0
 15 30  1  0  0  0  0
 15 31  1  0  0  0  0
 15 32  1  0  0  0  0
 16 17  1  0  0  0  0
M  END
> <s_m_source_file>
AV-unprocessed.smi

> <i_m_source_file_index>
2468

> <i_lp_mmshare_version>
43012

> <i_f3d_flags>
0

> <s_epik_input>
W0NIM11jMW5bY0hdW2NIXWMoYzFDbClbTkhdQyg9TylbQ0BASF0yT1tDSDJdW0NIMl1bQ0BIXTJbQ0gzXQ==

> <s_epik_cmdline>
J2VwaWtfcHl0aG9uJywgJy1waCcsICc3LjAnLCAnLXRuJywgJzgnLCAnLW1hJywgJzIwMCcsICctbWV0YWxfYmluZGluZycsICctaW1hZScsICc8aW5maWxlLm1hZT4nLCAnLW9tYWUnLCAnPG91dGZpbGUubWFlPic=

> <r_epik_Ionization_Penalty>
0.000361027

> <r_epik_Ionization_Penalty_Charging>
0

> <r_epik_Ionization_Penalty_Neutral>
0.000361027

> <r_epik_State_Penalty>
0.000217849

> <r_epik_Charging_Adjusted_Penalty>
0.000217849

> <i_epik_Tot_Q>
0

> <i_epik_Tot_abs_Q>
0

> <r_epik_Metal_State_Penalty>
-0

> <b_epik_Metal_Only>
0

> <s_lp_Force_Field>
OPLS_2005

> <r_lp_Energy>
24.7843

> <b_lp_Chiralities_Consistent>
1

> <s_lp_Variant>
AV-unprocessed.smi:2468-4

> <Gold.Version>
5.8.1

> <Gold.Id.Protein>
6NUR|6NUR_protein|mol2

> <Gold.PLP.Fitness>
40.7138

> <Gold.PLP.PLP>
-34.7683

> <Gold.PLP.part.hbond>
-2.3734

> <Gold.PLP.part.metal>
0.0000

> <Gold.PLP.part.buried>
-4.6677

> <Gold.PLP.part.nonpolar>
-27.0218

> <Gold.PLP.part.repulsive>
0.1397

> <Gold.PLP.ligand.clash>
0.0000

> <Gold.PLP.ligand.torsion>
0.0286

> <Gold.PLP.Chemscore.Hbond>
2.0000

> <Gold.PLP.Chemscore.CHOScore>
0.0000

> <Gold.PLP.Chemscore.Metal>
0.0000

> <Gold.Chemscore.Hbonds>
donor molecule, donor type, donor heavy atom, donor atom, acceptor molecule, acceptor atom, score
      P1  H  7989  7998       L1    11  1.00
      P1  H  7997  8010       L1     9  1.00

> <Gold.PLP.Chemscore.Internal.Correction>
0.0027

> <Gold.Rescore>
     Score         DG    S(hbond)    S(metal)    S(lipo)     H(rot)  DE(clash)    DE(int)     intcor
     16.62     -18.12       1.05        0.00     100.05       1.00       0.22       1.28       ----

> <Gold.Chemscore.Fitness>
16.6236

> <Gold.Chemscore.DG>
-18.1217

> <Gold.Chemscore.ZeroCoef>
-5.4800

> <Gold.Chemscore.Hbond>
1.0468

> <Gold.Chemscore.Metal>
0.0000

> <Gold.Chemscore.Lipo>
100.0459

> <Gold.Chemscore.Internal_Hbond>
0.0000

> <Gold.Chemscore.DEClash>
0.2216

> <Gold.Chemscore.DEInternal>
1.2765

> <Gold.Chemscore.Rot>
1.0000

> <Gold.Chemscore.Internal.Correction>
   9.000000E+99

> <Gold.Chemscore.Hbonds>
donor molecule, donor type, donor heavy atom, donor atom, acceptor molecule, acceptor atom, score
      P1  H  7989  7998       L1    11  0.07
      P1  H  7997  8010       L1     9  0.98

> <Gold.Chemscore.Hbond.Weighted>
-3.4963

> <Gold.Chemscore.Metal.Weighted>
-0.0000

> <Gold.Chemscore.Lipo.Weighted>
-11.7054

> <Gold.Chemscore.Internal_Hbond.Weighted>
0.0000

> <Gold.Chemscore.DEClash.Weighted>
0.2216

> <Gold.Chemscore.DEInternal.Weighted>
1.2765

> <Gold.Chemscore.Rot.Weighted>
2.5600

> <Gold.Chemscore.Internal.Correction.Weighted>
   9.000000E+99

> <Gold.Protein.RotatedTorsions>
[ 6907 6896 6895 6894 ] final  -24.43 input  -60.11 | X-H torsion
[ 7974 7965 7964 7962 ] final  128.94 input  175.53 | X-H torsion
[ 8008 7997 7996 7995 ] final   58.42 input   59.86 | X-H torsion
[ 10167 10162 10161 10158 ] final -166.22 input  -65.29 | X-H torsion
[ 10718 10713 10712 10709 ] final -146.41 input   66.30 | X-H torsion
[ 10763 10752 10751 10750 ] final    3.56 input  -60.55 | X-H torsion
[ 11005 11000 10999 10996 ] final  -81.74 input  -57.11 | X-H torsion

> <Gold.Protein.ActiveResidues>
 VAL166  LYS551  ARG553  GLY616  TRP617  ASP618  TYR619  PRO620  LYS621  CYS622 
 ASP623  PHE694  ASN695  SER759  ASP760  ASP761  ALA762  ILE779  LEU786  VAL792 
 PHE793  MET794  SER795  GLU796  ALA797  LYS798  CYS799  TRP800  GLU811  SER814 

> <Gold.Protein.RotatedAtoms>
  151.1897  135.0397  159.8827 H   0  0  0  0  0  0  0  0  0  0  0  0  # atno 6907 bound_to 6896
  152.5440  134.0970  159.8311 H   0  0  0  0  0  0  0  0  0  0  0  0  # atno 6908 bound_to 6896
  151.1097  133.5135  159.2638 H   0  0  0  0  0  0  0  0  0  0  0  0  # atno 6909 bound_to 6896
  145.0340  139.4021  143.5135 H   0  0  0  0  0  0  0  0  0  0  0  0  # atno 7974 bound_to 7965
  155.5498  140.3486  155.4466 H   0  0  0  0  0  0  0  0  0  0  0  0  # atno 8008 bound_to 7997
  156.0591  140.1336  156.9988 H   0  0  0  0  0  0  0  0  0  0  0  0  # atno 8009 bound_to 7997
  154.4471  140.0989  156.6475 H   0  0  0  0  0  0  0  0  0  0  0  0  # atno 8010 bound_to 7997
  139.6129  144.0778  152.1860 H   0  0  0  0  0  0  0  0  0  0  0  0  # atno 10167 bound_to 10162
  156.3946  130.7903  151.2108 H   0  0  0  0  0  0  0  0  0  0  0  0  # atno 10718 bound_to 10713
  153.2818  135.6941  153.7378 H   0  0  0  0  0  0  0  0  0  0  0  0  # atno 10763 bound_to 10752
  153.6362  135.3401  155.3058 H   0  0  0  0  0  0  0  0  0  0  0  0  # atno 10764 bound_to 10752
  154.8497  135.4421  154.1874 H   0  0  0  0  0  0  0  0  0  0  0  0  # atno 10765 bound_to 10752
  141.1665  133.7211  156.8468 H   0  0  0  0  0  0  0  0  0  0  0  0  # atno 11005 bound_to 11000
  146.3502  139.9906  142.8686 LP  0  0  0  0  0  0  0  0  0  0  0  0  # atno 17320 bound_to 7965
  145.1733  140.9731  143.4309 LP  0  0  0  0  0  0  0  0  0  0  0  0  # atno 17321 bound_to 7965
  140.0401  144.6014  150.7418 LP  0  0  0  0  0  0  0  0  0  0  0  0  # atno 17342 bound_to 10162
  140.7331  143.2714  151.3878 LP  0  0  0  0  0  0  0  0  0  0  0  0  # atno 17343 bound_to 10162
  157.7501  131.0305  150.4141 LP  0  0  0  0  0  0  0  0  0  0  0  0  # atno 17370 bound_to 10713
  156.4409  130.3991  149.6698 LP  0  0  0  0  0  0  0  0  0  0  0  0  # atno 17371 bound_to 10713
  140.1944  134.8942  157.3098 LP  0  0  0  0  0  0  0  0  0  0  0  0  # atno 17394 bound_to 11000
  140.2255  134.3972  155.7546 LP  0  0  0  0  0  0  0  0  0  0  0  0  # atno 17395 bound_to 11000

$$$$
