AV-unprocessed.smi:199|AV-procd|sdf|1573|dock4
  -GOLD-   2262019453D 1   1.00000     0.00000
 Structure written by MMmdl.
 51 55  0  0  0  0  0  0  0  0  1 V2000
  149.9497  136.5344  158.1850 C   0  0  0  0  0  0  0  0  0  0  0  0
  149.7198  136.4244  156.6689 C   0  0  1  0  0  0  0  0  0  0  0  0
  149.5937  137.7184  156.0802 O   0  0  0  0  0  0  0  0  0  0  0  0
  150.5452  137.8775  155.0373 C   0  0  0  0  0  0  0  0  0  0  0  0
  150.8280  136.4586  154.5608 C   0  0  0  0  0  0  0  0  0  0  0  0
  150.7943  135.6629  155.8581 C   0  0  1  0  0  0  0  0  0  0  0  0
  152.0657  135.7685  156.4793 O   0  0  0  0  0  0  0  0  0  0  0  0
  150.4612  134.1636  155.6702 C   0  0  0  0  0  0  0  0  0  0  0  0
  149.4171  133.9214  154.6865 N   0  0  0  0  0  0  0  0  0  0  0  0
  149.5814  133.4064  153.4213 C   0  0  0  0  0  0  0  0  0  0  0  0
  148.4841  133.2787  152.7274 N   0  0  0  0  0  0  0  0  0  0  0  0
  147.4856  133.7539  153.5700 C   0  0  0  0  0  0  0  0  0  0  0  0
  146.0729  133.9072  153.4569 C   0  0  0  0  0  0  0  0  0  0  0  0
  145.3636  133.5720  152.3458 N   0  0  0  0  0  0  0  0  0  0  0  0
  143.9185  133.7276  152.2915 C   0  0  2  0  0  0  0  0  0  0  0  0
  143.5653  133.0077  150.9784 C   0  0  0  0  0  0  0  0  0  0  0  0
  144.7901  133.3448  150.1110 C   0  0  0  0  0  0  0  0  0  0  0  0
  145.6064  134.2304  151.0702 C   0  0  1  0  0  0  0  0  0  0  0  0
  144.9016  135.6057  151.1847 C   0  0  2  0  0  0  0  0  0  0  0  0
  145.8028  136.7325  151.7253 C   0  0  0  0  0  0  0  0  0  0  0  0
  146.3254  137.4911  150.6560 O   0  0  0  0  0  0  0  0  0  0  0  0
  143.7178  135.2459  152.1057 C   0  0  0  0  0  0  0  0  0  0  0  0
  145.4127  134.3980  154.5397 N   0  0  0  0  0  0  0  0  0  0  0  0
  146.0807  134.7433  155.6434 C   0  0  0  0  0  0  0  0  0  0  0  0
  147.3909  134.6715  155.8810 N   0  0  0  0  0  0  0  0  0  0  0  0
  148.0596  134.1605  154.8087 C   0  0  0  0  0  0  0  0  0  0  0  0
  150.0550  135.5483  158.6379 H   0  0  0  0  0  0  0  0  0  0  0  0
  149.1087  137.0329  158.6670 H   0  0  0  0  0  0  0  0  0  0  0  0
  150.8459  137.1105  158.4162 H   0  0  0  0  0  0  0  0  0  0  0  0
  148.7546  135.9422  156.5094 H   0  0  0  0  0  0  0  0  0  0  0  0
  150.1659  138.5215  154.2438 H   0  0  0  0  0  0  0  0  0  0  0  0
  151.4480  138.3341  155.4451 H   0  0  0  0  0  0  0  0  0  0  0  0
  150.0219  136.1364  153.9000 H   0  0  0  0  0  0  0  0  0  0  0  0
  151.7669  136.3698  154.0125 H   0  0  0  0  0  0  0  0  0  0  0  0
  152.2117  134.9928  156.9993 H   0  0  0  0  0  0  0  0  0  0  0  0
  151.3536  133.6103  155.3742 H   0  0  0  0  0  0  0  0  0  0  0  0
  150.1345  133.7298  156.6161 H   0  0  0  0  0  0  0  0  0  0  0  0
  150.5463  133.1202  153.0282 H   0  0  0  0  0  0  0  0  0  0  0  0
  143.3803  133.3202  153.1481 H   0  0  0  0  0  0  0  0  0  0  0  0
  143.4887  131.9303  151.1312 H   0  0  0  0  0  0  0  0  0  0  0  0
  142.6276  133.3583  150.5456 H   0  0  0  0  0  0  0  0  0  0  0  0
  145.3412  132.4376  149.8601 H   0  0  0  0  0  0  0  0  0  0  0  0
  144.5282  133.8482  149.1796 H   0  0  0  0  0  0  0  0  0  0  0  0
  146.6483  134.3018  150.7629 H   0  0  0  0  0  0  0  0  0  0  0  0
  144.5386  135.9107  150.2018 H   0  0  0  0  0  0  0  0  0  0  0  0
  145.2622  137.3982  152.3971 H   0  0  0  0  0  0  0  0  0  0  0  0
  146.6355  136.3118  152.2897 H   0  0  0  0  0  0  0  0  0  0  0  0
  145.6045  137.8542  150.1644 H   0  0  0  0  0  0  0  0  0  0  0  0
  142.7515  135.4914  151.6639 H   0  0  0  0  0  0  0  0  0  0  0  0
  143.7852  135.7645  153.0628 H   0  0  0  0  0  0  0  0  0  0  0  0
  145.4792  135.1324  156.4518 H   0  0  0  0  0  0  0  0  0  0  0  0
  1  2  1  0  0  0  0
  1 27  1  0  0  0  0
  1 28  1  0  0  0  0
  1 29  1  0  0  0  0
  2  6  1  0  0  0  0
  2  3  1  0  0  0  0
  2 30  1  0  0  0  0
  3  4  1  0  0  0  0
  4  5  1  0  0  0  0
  4 31  1  0  0  0  0
  4 32  1  0  0  0  0
  5  6  1  0  0  0  0
  5 33  1  0  0  0  0
  5 34  1  0  0  0  0
  6  7  1  0  0  0  0
  6  8  1  0  0  0  0
  7 35  1  0  0  0  0
  8  9  1  0  0  0  0
  8 36  1  0  0  0  0
  8 37  1  0  0  0  0
  9 26  1  0  0  0  0
  9 10  1  0  0  0  0
 10 11  2  0  0  0  0
 10 38  1  0  0  0  0
 11 12  1  0  0  0  0
 12 26  2  0  0  0  0
 12 13  1  0  0  0  0
 13 14  1  0  0  0  0
 13 23  2  0  0  0  0
 14 18  1  0  0  0  0
 14 15  1  0  0  0  0
 15 22  1  0  0  0  0
 15 16  1  0  0  0  0
 15 39  1  0  0  0  0
 16 17  1  0  0  0  0
 16 40  1  0  0  0  0
 16 41  1  0  0  0  0
 17 18  1  0  0  0  0
 17 42  1  0  0  0  0
 17 43  1  0  0  0  0
 18 19  1  0  0  0  0
 18 44  1  0  0  0  0
 19 20  1  0  0  0  0
 19 22  1  0  0  0  0
 19 45  1  0  0  0  0
 20 21  1  0  0  0  0
 20 46  1  0  0  0  0
 20 47  1  0  0  0  0
 21 48  1  0  0  0  0
 22 49  1  0  0  0  0
 22 50  1  0  0  0  0
 23 24  1  0  0  0  0
 24 25  2  0  0  0  0
 24 51  1  0  0  0  0
 25 26  1  0  0  0  0
M  END
> <s_m_source_file>
AV-unprocessed.smi

> <i_m_source_file_index>
199

> <i_lp_mmshare_version>
43012

> <i_f3d_flags>
0

> <s_epik_input>
W0NIMl0xW0NIMl1PW0NAQEhdKFtDSDNdKVtDQEBdMShbT0hdKVtDSDJdbihbY0hdbjIpYyhjMjMpbltjSF1uYzNOKFtDQEBIXTQ1KVtDQEhdKFtDSDJdW0NIMl00KVtDQEhdKFtDSDJdNSlbQ0gyXVtPSF0=

> <s_epik_cmdline>
J2VwaWtfcHl0aG9uJywgJy1waCcsICc3LjAnLCAnLXRuJywgJzgnLCAnLW1hJywgJzIwMCcsICctbWV0YWxfYmluZGluZycsICctaW1hZScsICc8aW5maWxlLm1hZT4nLCAnLW9tYWUnLCAnPG91dGZpbGUubWFlPic=

> <r_lp_tautomer_probability>
1

> <r_epik_Ionization_Penalty>
0.00583903

> <r_epik_Ionization_Penalty_Charging>
0

> <r_epik_Ionization_Penalty_Neutral>
0.00583903

> <r_epik_State_Penalty>
-0

> <r_epik_Charging_Adjusted_Penalty>
0

> <i_epik_Tot_Q>
0

> <i_epik_Tot_abs_Q>
0

> <r_epik_Metal_State_Penalty>
-0

> <b_epik_Metal_Only>
0

> <s_lp_Force_Field>
OPLS_2005

> <r_lp_Energy>
83.8114

> <b_lp_Chiralities_Consistent>
1

> <s_lp_Variant>
AV-unprocessed.smi:199-14

> <Gold.Version>
5.8.1

> <Gold.Id.Protein>
6NUR|6NUR_protein|mol2

> <Gold.PLP.Fitness>
42.2768

> <Gold.PLP.PLP>
-34.9757

> <Gold.PLP.part.hbond>
-3.9694

> <Gold.PLP.part.metal>
0.0000

> <Gold.PLP.part.buried>
-4.8393

> <Gold.PLP.part.nonpolar>
-27.7174

> <Gold.PLP.part.repulsive>
0.4046

> <Gold.PLP.ligand.clash>
0.0000

> <Gold.PLP.ligand.torsion>
0.8506

> <Gold.PLP.Chemscore.Hbond>
2.9833

> <Gold.PLP.Chemscore.CHOScore>
0.0000

> <Gold.PLP.Chemscore.Metal>
0.0000

> <Gold.Chemscore.Hbonds>
donor molecule, donor type, donor heavy atom, donor atom, acceptor molecule, acceptor atom, score
      L1  H    21    48       P1 10171  1.00
      P1  H  7954  7966       L1    21  0.99
      P1  H 10752 10763       L1     7  1.00

> <Gold.PLP.Chemscore.Internal.Correction>
0.0525

> <Gold.Rescore>
     Score         DG    S(hbond)    S(metal)    S(lipo)     H(rot)  DE(clash)    DE(int)     intcor
     11.75     -13.84       2.20        0.00      75.93       3.07       0.53       1.57       ----

> <Gold.Chemscore.Fitness>
11.7465

> <Gold.Chemscore.DG>
-13.8442

> <Gold.Chemscore.ZeroCoef>
-5.4800

> <Gold.Chemscore.Hbond>
2.1997

> <Gold.Chemscore.Metal>
0.0000

> <Gold.Chemscore.Lipo>
75.9298

> <Gold.Chemscore.Internal_Hbond>
0.0000

> <Gold.Chemscore.DEClash>
0.5283

> <Gold.Chemscore.DEInternal>
1.5694

> <Gold.Chemscore.Rot>
3.0729

> <Gold.Chemscore.Internal.Correction>
   9.000000E+99

> <Gold.Chemscore.Hbonds>
donor molecule, donor type, donor heavy atom, donor atom, acceptor molecule, acceptor atom, score
      L1  H    21    48       P1 10171  0.99
      P1  H  7954  7966       L1    21  0.80
      P1  H 10752 10763       L1     7  0.09

> <Gold.Chemscore.Hbond.Weighted>
-7.3471

> <Gold.Chemscore.Metal.Weighted>
-0.0000

> <Gold.Chemscore.Lipo.Weighted>
-8.8838

> <Gold.Chemscore.Internal_Hbond.Weighted>
0.0000

> <Gold.Chemscore.DEClash.Weighted>
0.5283

> <Gold.Chemscore.DEInternal.Weighted>
1.5694

> <Gold.Chemscore.Rot.Weighted>
7.8667

> <Gold.Chemscore.Internal.Correction.Weighted>
   9.000000E+99

> <Gold.Protein.RotatedTorsions>
[ 6907 6896 6895 6894 ] final -165.05 input  -60.11 | X-H torsion
[ 7974 7965 7964 7962 ] final  -60.62 input  175.53 | X-H torsion
[ 8008 7997 7996 7995 ] final -149.04 input   59.86 | X-H torsion
[ 10167 10162 10161 10158 ] final  136.27 input  -65.29 | X-H torsion
[ 10718 10713 10712 10709 ] final  -55.48 input   66.30 | X-H torsion
[ 10763 10752 10751 10750 ] final   93.19 input  -60.55 | X-H torsion
[ 11005 11000 10999 10996 ] final  -66.94 input  -57.11 | X-H torsion

> <Gold.Protein.ActiveResidues>
 VAL166  LYS551  ARG553  GLY616  TRP617  ASP618  TYR619  PRO620  LYS621  CYS622 
 ASP623  PHE694  ASN695  SER759  ASP760  ASP761  ALA762  ILE779  LEU786  VAL792 
 PHE793  MET794  SER795  GLU796  ALA797  LYS798  CYS799  TRP800  GLU811  SER814 

> <Gold.Protein.RotatedAtoms>
  151.4216  133.3696  159.2756 H   0  0  0  0  0  0  0  0  0  0  0  0  # atno 6907 bound_to 6896
  150.9289  134.8706  159.7549 H   0  0  0  0  0  0  0  0  0  0  0  0  # atno 6908 bound_to 6896
  152.5019  134.4159  159.9516 H   0  0  0  0  0  0  0  0  0  0  0  0  # atno 6909 bound_to 6896
  145.8133  140.8585  143.0171 H   0  0  0  0  0  0  0  0  0  0  0  0  # atno 7974 bound_to 7965
  155.6013  140.0662  157.2732 H   0  0  0  0  0  0  0  0  0  0  0  0  # atno 8008 bound_to 7997
  154.4278  140.1818  156.1224 H   0  0  0  0  0  0  0  0  0  0  0  0  # atno 8009 bound_to 7997
  156.0157  140.3322  155.6990 H   0  0  0  0  0  0  0  0  0  0  0  0  # atno 8010 bound_to 7997
  139.5186  144.6473  151.5402 H   0  0  0  0  0  0  0  0  0  0  0  0  # atno 10167 bound_to 10162
  156.1365  130.4156  150.0177 H   0  0  0  0  0  0  0  0  0  0  0  0  # atno 10718 bound_to 10713
  153.2275  135.4334  155.0558 H   0  0  0  0  0  0  0  0  0  0  0  0  # atno 10763 bound_to 10752
  154.8280  135.3371  154.6836 H   0  0  0  0  0  0  0  0  0  0  0  0  # atno 10764 bound_to 10752
  153.7265  135.7013  153.5056 H   0  0  0  0  0  0  0  0  0  0  0  0  # atno 10765 bound_to 10752
  141.1495  133.6709  156.6216 H   0  0  0  0  0  0  0  0  0  0  0  0  # atno 11005 bound_to 11000
  144.6755  140.0427  143.7480 LP  0  0  0  0  0  0  0  0  0  0  0  0  # atno 17320 bound_to 7965
  145.9754  139.2901  143.1074 LP  0  0  0  0  0  0  0  0  0  0  0  0  # atno 17321 bound_to 7965
  140.6264  143.9161  150.6568 LP  0  0  0  0  0  0  0  0  0  0  0  0  # atno 17342 bound_to 10162
  140.2451  143.3635  152.1453 LP  0  0  0  0  0  0  0  0  0  0  0  0  # atno 17343 bound_to 10162
  156.8074  130.9312  151.3645 LP  0  0  0  0  0  0  0  0  0  0  0  0  # atno 17370 bound_to 10713
  157.6537  130.8906  149.9685 LP  0  0  0  0  0  0  0  0  0  0  0  0  # atno 17371 bound_to 10713
  140.3536  134.7747  157.4484 LP  0  0  0  0  0  0  0  0  0  0  0  0  # atno 17394 bound_to 11000
  140.0841  134.5691  155.8510 LP  0  0  0  0  0  0  0  0  0  0  0  0  # atno 17395 bound_to 11000

$$$$
