AV-unprocessed.smi:1459|AV-procd|sdf|5924|dock3
  -GOLD-   22720 6 03D 1   1.00000     0.00000
 Structure written by MMmdl.
 34 35  0  0  0  0  0  0  0  0  1 V2000
  152.7488  139.6522  155.4529 C   0  0  0  0  0  0  0  0  0  0  0  0
  152.2358  138.2808  155.1755 C   0  0  0  0  0  0  0  0  0  0  0  0
  151.1764  137.8129  154.4502 C   0  0  0  0  0  0  0  0  0  0  0  0
  151.2741  136.4052  154.6124 C   0  0  0  0  0  0  0  0  0  0  0  0
  150.3362  135.5349  154.0002 N   0  0  0  0  0  0  0  0  0  0  0  0
  150.0824  134.2526  154.3125 C   0  0  0  0  0  0  0  0  0  0  0  0
  150.6407  133.6181  155.2078 O   0  0  0  0  0  0  0  0  0  0  0  0
  149.1265  133.7416  153.5220 N   0  0  0  0  0  0  0  0  0  0  0  0
  148.6010  132.3782  153.5818 C   0  0  2  0  0  0  0  0  0  0  0  0
  149.7806  131.3949  153.5974 C   0  0  0  0  0  0  0  0  0  0  0  0
  147.6488  132.1139  152.3968 C   0  0  2  0  0  0  0  0  0  0  0  0
  146.3891  132.9829  152.3719 C   0  0  0  0  0  0  0  0  0  0  0  0
  145.4483  132.1350  151.5475 C   0  0  0  0  0  0  0  0  0  0  0  0
  145.7906  130.7312  152.0359 C   0  0  0  0  0  0  0  0  0  0  0  0
  147.1582  130.7751  152.4356 O   0  0  0  0  0  0  0  0  0  0  0  0
  152.3005  136.0464  155.3685 N   0  0  0  0  0  0  0  0  0  0  0  0
  152.9222  137.2466  155.7328 O   0  0  0  0  0  0  0  0  0  0  0  0
  152.1800  140.4005  154.9008 H   0  0  0  0  0  0  0  0  0  0  0  0
  153.7951  139.7405  155.1602 H   0  0  0  0  0  0  0  0  0  0  0  0
  152.6729  139.8852  156.5151 H   0  0  0  0  0  0  0  0  0  0  0  0
  150.4506  138.3878  153.8945 H   0  0  0  0  0  0  0  0  0  0  0  0
  149.8000  135.9316  153.2431 H   0  0  0  0  0  0  0  0  0  0  0  0
  148.7259  134.3446  152.8185 H   0  0  0  0  0  0  0  0  0  0  0  0
  148.0437  132.2357  154.5093 H   0  0  0  0  0  0  0  0  0  0  0  0
  149.4345  130.3642  153.6793 H   0  0  0  0  0  0  0  0  0  0  0  0
  150.4390  131.5857  154.4457 H   0  0  0  0  0  0  0  0  0  0  0  0
  150.3769  131.4732  152.6878 H   0  0  0  0  0  0  0  0  0  0  0  0
  148.1817  132.2411  151.4528 H   0  0  0  0  0  0  0  0  0  0  0  0
  145.9885  133.1100  153.3788 H   0  0  0  0  0  0  0  0  0  0  0  0
  146.5595  133.9712  151.9442 H   0  0  0  0  0  0  0  0  0  0  0  0
  144.3988  132.3926  151.6907 H   0  0  0  0  0  0  0  0  0  0  0  0
  145.6853  132.2345  150.4874 H   0  0  0  0  0  0  0  0  0  0  0  0
  145.1858  130.4730  152.9058 H   0  0  0  0  0  0  0  0  0  0  0  0
  145.6234  129.9734  151.2700 H   0  0  0  0  0  0  0  0  0  0  0  0
  1  2  1  0  0  0  0
  1 18  1  0  0  0  0
  1 19  1  0  0  0  0
  1 20  1  0  0  0  0
  2 17  1  0  0  0  0
  2  3  2  0  0  0  0
  3  4  1  0  0  0  0
  3 21  1  0  0  0  0
  4  5  1  0  0  0  0
  4 16  2  0  0  0  0
  5  6  1  0  0  0  0
  5 22  1  0  0  0  0
  6  7  2  0  0  0  0
  6  8  1  0  0  0  0
  8  9  1  0  0  0  0
  8 23  1  0  0  0  0
  9 10  1  0  0  0  0
  9 11  1  0  0  0  0
  9 24  1  0  0  0  0
 10 25  1  0  0  0  0
 10 26  1  0  0  0  0
 10 27  1  0  0  0  0
 11 15  1  0  0  0  0
 11 12  1  0  0  0  0
 11 28  1  0  0  0  0
 12 13  1  0  0  0  0
 12 29  1  0  0  0  0
 12 30  1  0  0  0  0
 13 14  1  0  0  0  0
 13 31  1  0  0  0  0
 13 32  1  0  0  0  0
 14 15  1  0  0  0  0
 14 33  1  0  0  0  0
 14 34  1  0  0  0  0
 16 17  1  0  0  0  0
M  END
> <s_m_source_file>
AV-unprocessed.smi

> <i_m_source_file_index>
1459

> <i_lp_mmshare_version>
43012

> <i_f3d_flags>
0

> <s_epik_input>
W0NIM11jMVtjSF1jKG5vMSlbTkhdQyg9TylbTkhdW0NASF0oW0NIM10pW0NAQEhdMltDSDJdW0NIMl1bQ0gyXU8y

> <s_epik_cmdline>
J2VwaWtfcHl0aG9uJywgJy1waCcsICc3LjAnLCAnLXRuJywgJzgnLCAnLW1hJywgJzIwMCcsICctbWV0YWxfYmluZGluZycsICctaW1hZScsICc8aW5maWxlLm1hZT4nLCAnLW9tYWUnLCAnPG91dGZpbGUubWFlPic=

> <r_lp_tautomer_probability>
1

> <r_epik_Ionization_Penalty>
2.20869e-05

> <r_epik_Ionization_Penalty_Charging>
0

> <r_epik_Ionization_Penalty_Neutral>
2.20869e-05

> <r_epik_State_Penalty>
-0

> <r_epik_Charging_Adjusted_Penalty>
0

> <i_epik_Tot_Q>
0

> <i_epik_Tot_abs_Q>
0

> <r_epik_Metal_State_Penalty>
-0

> <b_epik_Metal_Only>
0

> <s_lp_Force_Field>
OPLS_2005

> <r_lp_Energy>
15.5661

> <b_lp_Chiralities_Consistent>
1

> <s_lp_Variant>
AV-unprocessed.smi:1459-1

> <Gold.Version>
5.8.1

> <Gold.Id.Protein>
6NUR|6NUR_protein|mol2

> <Gold.PLP.Fitness>
35.3274

> <Gold.PLP.PLP>
-26.9266

> <Gold.PLP.part.hbond>
-3.8823

> <Gold.PLP.part.metal>
0.0000

> <Gold.PLP.part.buried>
-1.2810

> <Gold.PLP.part.nonpolar>
-22.6443

> <Gold.PLP.part.repulsive>
0.2612

> <Gold.PLP.ligand.clash>
0.0000

> <Gold.PLP.ligand.torsion>
0.1604

> <Gold.PLP.Chemscore.Hbond>
2.9040

> <Gold.PLP.Chemscore.CHOScore>
0.0000

> <Gold.PLP.Chemscore.Metal>
0.0000

> <Gold.Chemscore.Hbonds>
donor molecule, donor type, donor heavy atom, donor atom, acceptor molecule, acceptor atom, score
      L1  H     5    22       P1  7948  0.55
      L1  H     8    23       P1  7948  0.42

> <Gold.PLP.Chemscore.Internal.Correction>
0.0096

> <Gold.Rescore>
     Score         DG    S(hbond)    S(metal)    S(lipo)     H(rot)  DE(clash)    DE(int)     intcor
     12.12     -14.82       1.89        0.00      53.75       1.28       0.02       2.68       ----

> <Gold.Chemscore.Fitness>
12.1205

> <Gold.Chemscore.DG>
-14.8159

> <Gold.Chemscore.ZeroCoef>
-5.4800

> <Gold.Chemscore.Hbond>
1.8915

> <Gold.Chemscore.Metal>
0.0000

> <Gold.Chemscore.Lipo>
53.7516

> <Gold.Chemscore.Internal_Hbond>
0.0000

> <Gold.Chemscore.DEClash>
0.0156

> <Gold.Chemscore.DEInternal>
2.6797

> <Gold.Chemscore.Rot>
1.2776

> <Gold.Chemscore.Internal.Correction>
   9.000000E+99

> <Gold.Chemscore.Hbonds>
donor molecule, donor type, donor heavy atom, donor atom, acceptor molecule, acceptor atom, score
      L1  H     5    22       P1  7948  0.03
      L1  H     8    23       P1  7948  0.02
      P1  H 10752 10763       L1    16  0.01

> <Gold.Chemscore.Hbond.Weighted>
-6.3177

> <Gold.Chemscore.Metal.Weighted>
-0.0000

> <Gold.Chemscore.Lipo.Weighted>
-6.2889

> <Gold.Chemscore.Internal_Hbond.Weighted>
0.0000

> <Gold.Chemscore.DEClash.Weighted>
0.0156

> <Gold.Chemscore.DEInternal.Weighted>
2.6797

> <Gold.Chemscore.Rot.Weighted>
3.2707

> <Gold.Chemscore.Internal.Correction.Weighted>
   9.000000E+99

> <Gold.Protein.RotatedTorsions>
[ 6907 6896 6895 6894 ] final   78.32 input  -60.11 | X-H torsion
[ 7974 7965 7964 7962 ] final   68.41 input  175.53 | X-H torsion
[ 8008 7997 7996 7995 ] final  -67.11 input   59.86 | X-H torsion
[ 10167 10162 10161 10158 ] final  -72.89 input  -65.29 | X-H torsion
[ 10718 10713 10712 10709 ] final  132.34 input   66.30 | X-H torsion
[ 10763 10752 10751 10750 ] final   94.47 input  -60.55 | X-H torsion
[ 11005 11000 10999 10996 ] final   77.07 input  -57.11 | X-H torsion

> <Gold.Protein.ActiveResidues>
 VAL166  LYS551  ARG553  GLY616  TRP617  ASP618  TYR619  PRO620  LYS621  CYS622 
 ASP623  PHE694  ASN695  SER759  ASP760  ASP761  ALA762  ILE779  LEU786  VAL792 
 PHE793  MET794  SER795  GLU796  ALA797  LYS798  CYS799  TRP800  GLU811  SER814 

> <Gold.Protein.RotatedAtoms>
  152.5154  134.3682  159.9308 H   0  0  0  0  0  0  0  0  0  0  0  0  # atno 6907 bound_to 6896
  151.3636  133.3874  159.2700 H   0  0  0  0  0  0  0  0  0  0  0  0  # atno 6908 bound_to 6896
  150.9633  134.9037  159.7802 H   0  0  0  0  0  0  0  0  0  0  0  0  # atno 6909 bound_to 6896
  145.8029  139.2992  143.1144 H   0  0  0  0  0  0  0  0  0  0  0  0  # atno 7974 bound_to 7965
  154.4778  140.0899  156.7305 H   0  0  0  0  0  0  0  0  0  0  0  0  # atno 8008 bound_to 7997
  155.4550  140.3459  155.4287 H   0  0  0  0  0  0  0  0  0  0  0  0  # atno 8009 bound_to 7997
  156.1144  140.1456  156.9282 H   0  0  0  0  0  0  0  0  0  0  0  0  # atno 8010 bound_to 7997
  140.5155  143.2338  151.7520 H   0  0  0  0  0  0  0  0  0  0  0  0  # atno 10167 bound_to 10162
  157.4881  131.1089  150.9593 H   0  0  0  0  0  0  0  0  0  0  0  0  # atno 10718 bound_to 10713
  153.2420  135.4288  155.0708 H   0  0  0  0  0  0  0  0  0  0  0  0  # atno 10763 bound_to 10752
  154.8345  135.3405  154.6635 H   0  0  0  0  0  0  0  0  0  0  0  0  # atno 10764 bound_to 10752
  153.7059  135.7025  153.5107 H   0  0  0  0  0  0  0  0  0  0  0  0  # atno 10765 bound_to 10752
  139.9270  134.7653  156.1476 H   0  0  0  0  0  0  0  0  0  0  0  0  # atno 11005 bound_to 11000
  145.9858  140.8644  143.0091 LP  0  0  0  0  0  0  0  0  0  0  0  0  # atno 17320 bound_to 7965
  144.6766  140.2145  143.7373 LP  0  0  0  0  0  0  0  0  0  0  0  0  # atno 17321 bound_to 7965
  139.4908  144.4329  151.9851 LP  0  0  0  0  0  0  0  0  0  0  0  0  # atno 17342 bound_to 10162
  140.3424  144.3188  150.5965 LP  0  0  0  0  0  0  0  0  0  0  0  0  # atno 17343 bound_to 10162
  157.0304  130.5709  149.5342 LP  0  0  0  0  0  0  0  0  0  0  0  0  # atno 17370 bound_to 10713
  156.0158  130.5252  150.8129 LP  0  0  0  0  0  0  0  0  0  0  0  0  # atno 17371 bound_to 10713
  141.0835  133.6744  156.2385 LP  0  0  0  0  0  0  0  0  0  0  0  0  # atno 17394 bound_to 11000
  140.6308  134.5266  157.5559 LP  0  0  0  0  0  0  0  0  0  0  0  0  # atno 17395 bound_to 11000

$$$$
