AV-unprocessed.smi:212|AV-procd|sdf|1621|dock4
  -GOLD-   2262019553D 1   1.00000     0.00000
 Structure written by MMmdl.
 65 68  0  0  0  0  0  0  0  0  2 V2000
  147.5473  139.2586  154.8317 C   0  0  0  0  0  0  0  0  0  0  0  0
  148.6647  138.3018  154.3718 C   0  0  2  0  0  0  0  0  0  0  0  0
  148.7407  137.0285  155.2387 C   0  0  0  0  0  0  0  0  0  0  0  0
  149.7740  136.0958  154.7208 N   0  3  2  0  0  0  0  0  0  0  0  0
  149.8062  134.7961  155.4430 C   0  0  0  0  0  0  0  0  0  0  0  0
  148.8029  133.7703  154.8656 C   0  0  0  0  0  0  0  0  0  0  0  0
  149.2725  132.3387  155.1750 C   0  0  0  0  0  0  0  0  0  0  0  0
  147.3741  133.9883  155.3975 C   0  0  0  0  0  0  0  0  0  0  0  0
  148.7773  133.8889  153.4566 O   0  0  0  0  0  0  0  0  0  0  0  0
  151.1093  136.7383  154.6097 C   0  0  0  0  0  0  0  0  0  0  0  0
  151.0425  138.0423  153.7881 C   0  0  0  0  0  0  0  0  0  0  0  0
  149.9824  138.9353  154.2514 N   0  0  0  0  0  0  0  0  0  0  0  0
  150.3466  139.8176  155.2126 C   0  0  0  0  0  0  0  0  0  0  0  0
  150.2359  141.1535  154.9943 N   0  0  0  0  0  0  0  0  0  0  0  0
  150.6090  142.0180  155.9427 C   0  0  0  0  0  0  0  0  0  0  0  0
  151.1121  141.7630  157.1521 N   0  0  0  0  0  0  0  0  0  0  0  0
  151.2309  140.4225  157.3713 C   0  0  0  0  0  0  0  0  0  0  0  0
  150.8670  139.3902  156.4625 C   0  0  0  0  0  0  0  0  0  0  0  0
  151.1152  138.1468  157.0269 N   0  0  0  0  0  0  0  0  0  0  0  0
  151.5994  138.4280  158.2058 C   0  0  0  0  0  0  0  0  0  0  0  0
  151.7221  139.7709  158.4906 N   0  0  0  0  0  0  0  0  0  0  0  0
  152.2356  140.3547  159.7231 C   0  0  0  0  0  0  0  0  0  0  0  0
  153.2242  141.5323  159.5103 C   0  0  1  0  0  0  0  0  0  0  0  0
  152.5212  142.8884  159.7600 C   0  0  0  0  0  0  0  0  0  0  0  0
  153.0408  143.9124  158.9377 O   0  0  0  0  0  0  0  0  0  0  0  0
  154.5206  141.3617  160.3505 C   0  0  2  0  0  0  0  0  0  0  0  0
  155.3540  140.1294  160.0425 C   0  0  0  0  0  0  0  0  0  0  0  0
  156.2327  140.0053  161.2830 C   0  0  0  0  0  0  0  0  0  0  0  0
  155.4644  140.5392  162.3554 O   0  0  0  0  0  0  0  0  0  0  0  0
  154.2760  141.1352  161.8473 C   0  0  0  0  0  0  0  0  0  0  0  0
  146.5762  138.7644  154.7974 H   0  0  0  0  0  0  0  0  0  0  0  0
  147.4886  140.1351  154.1855 H   0  0  0  0  0  0  0  0  0  0  0  0
  147.7005  139.6038  155.8549 H   0  0  0  0  0  0  0  0  0  0  0  0
  148.3995  137.9878  153.3612 H   0  0  0  0  0  0  0  0  0  0  0  0
  148.9601  137.2792  156.2777 H   0  0  0  0  0  0  0  0  0  0  0  0
  147.7711  136.5284  155.2310 H   0  0  0  0  0  0  0  0  0  0  0  0
  150.8183  134.3872  155.4388 H   0  0  0  0  0  0  0  0  0  0  0  0
  149.5655  134.9536  156.4959 H   0  0  0  0  0  0  0  0  0  0  0  0
  149.3157  132.1609  156.2502 H   0  0  0  0  0  0  0  0  0  0  0  0
  150.2677  132.1490  154.7706 H   0  0  0  0  0  0  0  0  0  0  0  0
  148.5979  131.5957  154.7475 H   0  0  0  0  0  0  0  0  0  0  0  0
  147.3452  133.9179  156.4854 H   0  0  0  0  0  0  0  0  0  0  0  0
  146.6858  133.2401  155.0026 H   0  0  0  0  0  0  0  0  0  0  0  0
  146.9810  134.9669  155.1202 H   0  0  0  0  0  0  0  0  0  0  0  0
  148.9559  134.7886  153.2257 H   0  0  0  0  0  0  0  0  0  0  0  0
  151.4958  136.9385  155.6093 H   0  0  0  0  0  0  0  0  0  0  0  0
  151.8144  136.0524  154.1403 H   0  0  0  0  0  0  0  0  0  0  0  0
  152.0067  138.5526  153.8111 H   0  0  0  0  0  0  0  0  0  0  0  0
  150.8473  137.8046  152.7419 H   0  0  0  0  0  0  0  0  0  0  0  0
  150.4897  143.0631  155.6979 H   0  0  0  0  0  0  0  0  0  0  0  0
  151.8878  137.6549  158.9028 H   0  0  0  0  0  0  0  0  0  0  0  0
  151.3917  140.6615  160.3412 H   0  0  0  0  0  0  0  0  0  0  0  0
  152.7327  139.5614  160.2829 H   0  0  0  0  0  0  0  0  0  0  0  0
  153.5054  141.5028  158.4563 H   0  0  0  0  0  0  0  0  0  0  0  0
  151.4591  142.8128  159.5263 H   0  0  0  0  0  0  0  0  0  0  0  0
  152.5991  143.1846  160.8066 H   0  0  0  0  0  0  0  0  0  0  0  0
  152.7818  143.7422  158.0448 H   0  0  0  0  0  0  0  0  0  0  0  0
  155.1600  142.2361  160.2233 H   0  0  0  0  0  0  0  0  0  0  0  0
  154.7144  139.2500  159.9517 H   0  0  0  0  0  0  0  0  0  0  0  0
  155.9406  140.2227  159.1283 H   0  0  0  0  0  0  0  0  0  0  0  0
  156.5316  138.9752  161.4790 H   0  0  0  0  0  0  0  0  0  0  0  0
  157.1364  140.6059  161.1720 H   0  0  0  0  0  0  0  0  0  0  0  0
  154.0401  142.0494  162.3897 H   0  0  0  0  0  0  0  0  0  0  0  0
  153.4519  140.4369  162.0007 H   0  0  0  0  0  0  0  0  0  0  0  0
  149.4905  135.8752  153.7768 H   0  0  0  0  0  0  0  0  0  0  0  0
  1  2  1  0  0  0  0
  1 31  1  0  0  0  0
  1 32  1  0  0  0  0
  1 33  1  0  0  0  0
  2 12  1  0  0  0  0
  2  3  1  0  0  0  0
  2 34  1  0  0  0  0
  3  4  1  0  0  0  0
  3 35  1  0  0  0  0
  3 36  1  0  0  0  0
  4  5  1  0  0  0  0
  4 10  1  0  0  0  0
  4 65  1  0  0  0  0
  5  6  1  0  0  0  0
  5 37  1  0  0  0  0
  5 38  1  0  0  0  0
  6  7  1  0  0  0  0
  6  8  1  0  0  0  0
  6  9  1  0  0  0  0
  7 39  1  0  0  0  0
  7 40  1  0  0  0  0
  7 41  1  0  0  0  0
  8 42  1  0  0  0  0
  8 43  1  0  0  0  0
  8 44  1  0  0  0  0
  9 45  1  0  0  0  0
 10 11  1  0  0  0  0
 10 46  1  0  0  0  0
 10 47  1  0  0  0  0
 11 12  1  0  0  0  0
 11 48  1  0  0  0  0
 11 49  1  0  0  0  0
 12 13  1  0  0  0  0
 13 18  1  0  0  0  0
 13 14  2  0  0  0  0
 14 15  1  0  0  0  0
 15 16  2  0  0  0  0
 15 50  1  0  0  0  0
 16 17  1  0  0  0  0
 17 21  1  0  0  0  0
 17 18  2  0  0  0  0
 18 19  1  0  0  0  0
 19 20  2  0  0  0  0
 20 21  1  0  0  0  0
 20 51  1  0  0  0  0
 21 22  1  0  0  0  0
 22 23  1  0  0  0  0
 22 52  1  0  0  0  0
 22 53  1  0  0  0  0
 23 24  1  0  0  0  0
 23 26  1  0  0  0  0
 23 54  1  0  0  0  0
 24 25  1  0  0  0  0
 24 55  1  0  0  0  0
 24 56  1  0  0  0  0
 25 57  1  0  0  0  0
 26 30  1  0  0  0  0
 26 27  1  0  0  0  0
 26 58  1  0  0  0  0
 27 28  1  0  0  0  0
 27 59  1  0  0  0  0
 27 60  1  0  0  0  0
 28 29  1  0  0  0  0
 28 61  1  0  0  0  0
 28 62  1  0  0  0  0
 29 30  1  0  0  0  0
 30 63  1  0  0  0  0
 30 64  1  0  0  0  0
M  CHG  1   4   1
M  END
> <s_m_source_file>
AV-unprocessed.smi

> <i_m_source_file_index>
212

> <i_lp_mmshare_version>
43012

> <i_f3d_flags>
0

> <s_epik_input>
W0NIM11bQ0BASF0xW0NIMl1OKFtDSDJdQyhbQ0gzXSkoW0NIM10pW09IXSlbQ0gyXVtDSDJdTjFjKG5bY0hdbjIpYyhjMjMpbltjSF1uM1tDSDJdW0NASF0oW0NIMl1bT0hdKVtDQEBIXTRbQ0gyXVtDSDJdT1tDSDJdNA==

> <s_epik_cmdline>
J2VwaWtfcHl0aG9uJywgJy1waCcsICc3LjAnLCAnLXRuJywgJzgnLCAnLW1hJywgJzIwMCcsICctbWV0YWxfYmluZGluZycsICctaW1hZScsICc8aW5maWxlLm1hZT4nLCAnLW9tYWUnLCAnPG91dGZpbGUubWFlPic=

> <r_lp_tautomer_probability>
1

> <r_epik_Ionization_Penalty>
0.00182193

> <r_epik_Ionization_Penalty_Charging>
0.00173996

> <r_epik_Ionization_Penalty_Neutral>
8.19718e-05

> <r_epik_State_Penalty>
-0

> <r_epik_Charging_Adjusted_Penalty>
0.00173996

> <i_epik_Tot_Q>
1

> <i_epik_Tot_abs_Q>
1

> <r_epik_Metal_State_Penalty>
-0

> <b_epik_Metal_Only>
0

> <s_lp_Force_Field>
OPLS_2005

> <r_lp_Energy>
60.0398

> <b_lp_Chiralities_Consistent>
1

> <s_lp_Variant>
AV-unprocessed.smi:212-5

> <Gold.Version>
5.8.1

> <Gold.Id.Protein>
6NUR|6NUR_protein|mol2

> <Gold.PLP.Fitness>
50.3432

> <Gold.PLP.PLP>
-41.1579

> <Gold.PLP.part.hbond>
-4.0000

> <Gold.PLP.part.metal>
0.0000

> <Gold.PLP.part.buried>
-1.2910

> <Gold.PLP.part.nonpolar>
-34.8997

> <Gold.PLP.part.repulsive>
0.3969

> <Gold.PLP.ligand.clash>
0.0000

> <Gold.PLP.ligand.torsion>
2.2833

> <Gold.PLP.Chemscore.Hbond>
3.1952

> <Gold.PLP.Chemscore.CHOScore>
1.0000

> <Gold.PLP.Chemscore.Metal>
0.0000

> <Gold.Chemscore.Hbonds>
donor molecule, donor type, donor heavy atom, donor atom, acceptor molecule, acceptor atom, score
      L1  H     4    65       P1  7948  2.00
      L1  H     9    45       P1  7948  0.82
      P1  H  7989  7998       L1    14  0.21
      L1  C    15    50       P1  8028  1.00

> <Gold.PLP.Chemscore.Internal.Correction>
1.1661

> <Gold.Rescore>
     Score         DG    S(hbond)    S(metal)    S(lipo)     H(rot)  DE(clash)    DE(int)     intcor
     10.04     -13.60       1.78        0.00      99.09       3.68       0.05       3.51       ----

> <Gold.Chemscore.Fitness>
10.0363

> <Gold.Chemscore.DG>
-13.5970

> <Gold.Chemscore.ZeroCoef>
-5.4800

> <Gold.Chemscore.Hbond>
1.7805

> <Gold.Chemscore.Metal>
0.0000

> <Gold.Chemscore.Lipo>
99.0932

> <Gold.Chemscore.Internal_Hbond>
0.0000

> <Gold.Chemscore.DEClash>
0.0529

> <Gold.Chemscore.DEInternal>
3.5078

> <Gold.Chemscore.Rot>
3.6812

> <Gold.Chemscore.Internal.Correction>
   9.000000E+99

> <Gold.Chemscore.Hbonds>
donor molecule, donor type, donor heavy atom, donor atom, acceptor molecule, acceptor atom, score
      L1  H     4    65       P1  7948  0.43
      L1  H     9    45       P1  7948  0.13

> <Gold.Chemscore.Hbond.Weighted>
-5.9470

> <Gold.Chemscore.Metal.Weighted>
-0.0000

> <Gold.Chemscore.Lipo.Weighted>
-11.5939

> <Gold.Chemscore.Internal_Hbond.Weighted>
0.0000

> <Gold.Chemscore.DEClash.Weighted>
0.0529

> <Gold.Chemscore.DEInternal.Weighted>
3.5078

> <Gold.Chemscore.Rot.Weighted>
9.4239

> <Gold.Chemscore.Internal.Correction.Weighted>
   9.000000E+99

> <Gold.Protein.RotatedTorsions>
[ 6907 6896 6895 6894 ] final  -97.08 input  -60.11 | X-H torsion
[ 7974 7965 7964 7962 ] final  104.94 input  175.53 | X-H torsion
[ 8008 7997 7996 7995 ] final  174.89 input   59.86 | X-H torsion
[ 10167 10162 10161 10158 ] final   69.67 input  -65.29 | X-H torsion
[ 10718 10713 10712 10709 ] final  -36.47 input   66.30 | X-H torsion
[ 10763 10752 10751 10750 ] final -147.00 input  -60.55 | X-H torsion
[ 11005 11000 10999 10996 ] final  -48.48 input  -57.11 | X-H torsion

> <Gold.Protein.ActiveResidues>
 VAL166  LYS551  ARG553  GLY616  TRP617  ASP618  TYR619  PRO620  LYS621  CYS622 
 ASP623  PHE694  ASN695  SER759  ASP760  ASP761  ALA762  ILE779  LEU786  VAL792 
 PHE793  MET794  SER795  GLU796  ALA797  LYS798  CYS799  TRP800  GLU811  SER814 

> <Gold.Protein.RotatedAtoms>
  150.7006  134.1403  159.4102 H   0  0  0  0  0  0  0  0  0  0  0  0  # atno 6907 bound_to 6896
  151.9388  135.0220  160.0543 H   0  0  0  0  0  0  0  0  0  0  0  0  # atno 6908 bound_to 6896
  152.2112  133.4877  159.5148 H   0  0  0  0  0  0  0  0  0  0  0  0  # atno 6909 bound_to 6896
  145.3262  139.2499  143.3685 H   0  0  0  0  0  0  0  0  0  0  0  0  # atno 7974 bound_to 7965
  156.0928  140.1423  156.9570 H   0  0  0  0  0  0  0  0  0  0  0  0  # atno 8008 bound_to 7997
  154.4652  140.0929  156.7048 H   0  0  0  0  0  0  0  0  0  0  0  0  # atno 8009 bound_to 7997
  155.4891  140.3447  155.4354 H   0  0  0  0  0  0  0  0  0  0  0  0  # atno 8010 bound_to 7997
  140.0652  144.5199  150.7266 H   0  0  0  0  0  0  0  0  0  0  0  0  # atno 10167 bound_to 10162
  156.3264  130.4273  149.7912 H   0  0  0  0  0  0  0  0  0  0  0  0  # atno 10718 bound_to 10713
  154.8308  135.3371  154.6750 H   0  0  0  0  0  0  0  0  0  0  0  0  # atno 10763 bound_to 10752
  153.7370  135.6948  153.4980 H   0  0  0  0  0  0  0  0  0  0  0  0  # atno 10764 bound_to 10752
  153.2271  135.4429  155.0505 H   0  0  0  0  0  0  0  0  0  0  0  0  # atno 10765 bound_to 10752
  141.0703  133.6681  156.3448 H   0  0  0  0  0  0  0  0  0  0  0  0  # atno 11005 bound_to 11000
  146.3063  140.3830  142.8686 LP  0  0  0  0  0  0  0  0  0  0  0  0  # atno 17320 bound_to 7965
  144.8900  140.7511  143.5933 LP  0  0  0  0  0  0  0  0  0  0  0  0  # atno 17321 bound_to 7965
  140.7152  143.2539  151.4456 LP  0  0  0  0  0  0  0  0  0  0  0  0  # atno 17342 bound_to 10162
  139.5869  144.1584  152.2040 LP  0  0  0  0  0  0  0  0  0  0  0  0  # atno 17343 bound_to 10162
  156.5201  130.8211  151.3200 LP  0  0  0  0  0  0  0  0  0  0  0  0  # atno 17370 bound_to 10713
  157.7422  130.9885  150.2500 LP  0  0  0  0  0  0  0  0  0  0  0  0  # atno 17371 bound_to 10713
  140.5687  134.5862  157.5452 LP  0  0  0  0  0  0  0  0  0  0  0  0  # atno 17394 bound_to 11000
  139.9517  134.7605  156.0433 LP  0  0  0  0  0  0  0  0  0  0  0  0  # atno 17395 bound_to 11000

$$$$
