AV-unprocessed.smi:2692|AV-procd|sdf|10396|dock4
  -GOLD-   2272014433D 1   1.00000     0.00000
 Structure written by MMmdl.
 20 20  0  0  0  0  0  0  0  0  3 V2000
  147.4587  138.8012  152.0184 N   0  3  0  0  0  0  0  0  0  0  0  0
  147.1966  139.0746  153.4406 C   0  0  0  0  0  0  0  0  0  0  0  0
  147.9350  140.3346  153.9100 C   0  0  0  0  0  0  0  0  0  0  0  0
  149.3344  140.0208  154.3977 C   0  0  0  0  0  0  0  0  0  0  0  0
  150.1079  140.9955  155.0636 C   0  0  0  0  0  0  0  0  0  0  0  0
  151.3548  140.7662  155.5273 N   0  0  0  0  0  0  0  0  0  0  0  0
  151.8827  139.5371  155.3384 C   0  0  0  0  0  0  0  0  0  0  0  0
  151.1941  138.4933  154.6863 C   0  0  0  0  0  0  0  0  0  0  0  0
  151.7708  137.2676  154.5247 O   0  5  0  0  0  0  0  0  0  0  0  0
  149.8945  138.7415  154.2055 C   0  0  0  0  0  0  0  0  0  0  0  0
  148.2023  139.4018  151.6924 H   0  0  0  0  0  0  0  0  0  0  0  0
  146.6215  138.9803  151.4828 H   0  0  0  0  0  0  0  0  0  0  0  0
  146.1215  139.1889  153.5833 H   0  0  0  0  0  0  0  0  0  0  0  0
  147.5103  138.2098  154.0265 H   0  0  0  0  0  0  0  0  0  0  0  0
  147.9988  141.0585  153.0964 H   0  0  0  0  0  0  0  0  0  0  0  0
  147.3793  140.8206  154.7131 H   0  0  0  0  0  0  0  0  0  0  0  0
  149.7134  141.9863  155.2343 H   0  0  0  0  0  0  0  0  0  0  0  0
  152.8814  139.3840  155.7212 H   0  0  0  0  0  0  0  0  0  0  0  0
  149.3365  137.9648  153.7028 H   0  0  0  0  0  0  0  0  0  0  0  0
  147.7315  137.8354  151.9052 H   0  0  0  0  0  0  0  0  0  0  0  0
  1  2  1  0  0  0  0
  1 11  1  0  0  0  0
  1 12  1  0  0  0  0
  1 20  1  0  0  0  0
  2  3  1  0  0  0  0
  2 13  1  0  0  0  0
  2 14  1  0  0  0  0
  3  4  1  0  0  0  0
  3 15  1  0  0  0  0
  3 16  1  0  0  0  0
  4 10  1  0  0  0  0
  4  5  2  0  0  0  0
  5  6  1  0  0  0  0
  5 17  1  0  0  0  0
  6  7  2  0  0  0  0
  7  8  1  0  0  0  0
  7 18  1  0  0  0  0
  8  9  1  0  0  0  0
  8 10  2  0  0  0  0
 10 19  1  0  0  0  0
M  CHG  1   1   1
M  CHG  1   9  -1
M  END
> <s_m_source_file>
AV-unprocessed.smi

> <i_m_source_file_index>
2692

> <i_lp_mmshare_version>
43012

> <i_f3d_flags>
0

> <s_epik_input>
W05IMl1bQ0gyXVtDSDJdYzFbY0hdbltjSF1jKFtPSF0pW2NIXTE=

> <s_epik_cmdline>
J2VwaWtfcHl0aG9uJywgJy1waCcsICc3LjAnLCAnLXRuJywgJzgnLCAnLW1hJywgJzIwMCcsICctbWV0YWxfYmluZGluZycsICctaW1hZScsICc8aW5maWxlLm1hZT4nLCAnLW9tYWUnLCAnPG91dGZpbGUubWFlPic=

> <r_epik_Ionization_Penalty>
3.23431

> <r_epik_Ionization_Penalty_Charging>
1.61725

> <r_epik_Ionization_Penalty_Neutral>
1.61706

> <r_epik_State_Penalty>
2.11228

> <r_epik_Charging_Adjusted_Penalty>
3.72953

> <i_epik_Tot_Q>
0

> <i_epik_Tot_abs_Q>
2

> <r_epik_Metal_State_Penalty>
0.426281

> <b_epik_Metal_Only>
0

> <s_lp_Force_Field>
OPLS_2005

> <r_lp_Energy>
-2.16473

> <b_lp_Chiralities_Consistent>
1

> <s_lp_Variant>
AV-unprocessed.smi:2692-3

> <Gold.Version>
5.8.1

> <Gold.Id.Protein>
6NUR|6NUR_protein|mol2

> <Gold.PLP.Fitness>
37.8394

> <Gold.PLP.PLP>
-22.7527

> <Gold.PLP.part.hbond>
-4.0000

> <Gold.PLP.part.metal>
0.0000

> <Gold.PLP.part.buried>
-0.8511

> <Gold.PLP.part.nonpolar>
-17.3990

> <Gold.PLP.part.repulsive>
0.2598

> <Gold.PLP.ligand.clash>
0.0000

> <Gold.PLP.ligand.torsion>
0.2595

> <Gold.PLP.Chemscore.Hbond>
5.0000

> <Gold.PLP.Chemscore.CHOScore>
0.2018

> <Gold.PLP.Chemscore.Metal>
0.0000

> <Gold.Chemscore.Hbonds>
donor molecule, donor type, donor heavy atom, donor atom, acceptor molecule, acceptor atom, score
      L1  H     1    11       P1  7957  1.00
      L1  H     1    20       P1  7948  2.00
      P1  H 10752 10765       L1     9  2.00
      L1  C     5    17       P1  8028  0.12

> <Gold.PLP.Chemscore.Internal.Correction>
0.0003

> <Gold.Rescore>
     Score         DG    S(hbond)    S(metal)    S(lipo)     H(rot)  DE(clash)    DE(int)     intcor
     17.38     -17.66       2.95        0.00      49.03       1.33       0.01       0.27       ----

> <Gold.Chemscore.Fitness>
17.3834

> <Gold.Chemscore.DG>
-17.6609

> <Gold.Chemscore.ZeroCoef>
-5.4800

> <Gold.Chemscore.Hbond>
2.9500

> <Gold.Chemscore.Metal>
0.0000

> <Gold.Chemscore.Lipo>
49.0253

> <Gold.Chemscore.Internal_Hbond>
0.0000

> <Gold.Chemscore.DEClash>
0.0089

> <Gold.Chemscore.DEInternal>
0.2685

> <Gold.Chemscore.Rot>
1.3313

> <Gold.Chemscore.Internal.Correction>
   9.000000E+99

> <Gold.Chemscore.Hbonds>
donor molecule, donor type, donor heavy atom, donor atom, acceptor molecule, acceptor atom, score
      L1  H     1    11       P1  7957  0.98
      L1  H     1    20       P1  7948  0.97
      P1  H 10752 10765       L1     9  0.92

> <Gold.Chemscore.Hbond.Weighted>
-9.8531

> <Gold.Chemscore.Metal.Weighted>
-0.0000

> <Gold.Chemscore.Lipo.Weighted>
-5.7360

> <Gold.Chemscore.Internal_Hbond.Weighted>
0.0000

> <Gold.Chemscore.DEClash.Weighted>
0.0089

> <Gold.Chemscore.DEInternal.Weighted>
0.2685

> <Gold.Chemscore.Rot.Weighted>
3.4082

> <Gold.Chemscore.Internal.Correction.Weighted>
   9.000000E+99

> <Gold.Protein.RotatedTorsions>
[ 6907 6896 6895 6894 ] final  -99.65 input  -60.11 | X-H torsion
[ 7974 7965 7964 7962 ] final  127.32 input  175.53 | X-H torsion
[ 8008 7997 7996 7995 ] final   16.30 input   59.86 | X-H torsion
[ 10167 10162 10161 10158 ] final  155.19 input  -65.29 | X-H torsion
[ 10718 10713 10712 10709 ] final  138.35 input   66.30 | X-H torsion
[ 10763 10752 10751 10750 ] final  170.72 input  -60.55 | X-H torsion
[ 11005 11000 10999 10996 ] final  -76.32 input  -57.11 | X-H torsion

> <Gold.Protein.ActiveResidues>
 VAL166  LYS551  ARG553  GLY616  TRP617  ASP618  TYR619  PRO620  LYS621  CYS622 
 ASP623  PHE694  ASN695  SER759  ASP760  ASP761  ALA762  ILE779  LEU786  VAL792 
 PHE793  MET794  SER795  GLU796  ALA797  LYS798  CYS799  TRP800  GLU811  SER814 

> <Gold.Protein.RotatedAtoms>
  150.7087  134.1007  159.3964 H   0  0  0  0  0  0  0  0  0  0  0  0  # atno 6907 bound_to 6896
  151.8993  135.0382  160.0514 H   0  0  0  0  0  0  0  0  0  0  0  0  # atno 6908 bound_to 6896
  152.2427  133.5113  159.5316 H   0  0  0  0  0  0  0  0  0  0  0  0  # atno 6909 bound_to 6896
  145.0519  139.3876  143.5049 H   0  0  0  0  0  0  0  0  0  0  0  0  # atno 7974 bound_to 7965
  154.8750  140.2964  155.5459 H   0  0  0  0  0  0  0  0  0  0  0  0  # atno 8008 bound_to 7997
  156.3022  140.2453  156.3678 H   0  0  0  0  0  0  0  0  0  0  0  0  # atno 8009 bound_to 7997
  154.8777  140.0399  157.1752 H   0  0  0  0  0  0  0  0  0  0  0  0  # atno 8010 bound_to 7997
  139.4821  144.5121  151.8009 H   0  0  0  0  0  0  0  0  0  0  0  0  # atno 10167 bound_to 10162
  157.4263  131.1044  151.0299 H   0  0  0  0  0  0  0  0  0  0  0  0  # atno 10718 bound_to 10713
  154.4017  135.2755  155.2093 H   0  0  0  0  0  0  0  0  0  0  0  0  # atno 10763 bound_to 10752
  154.4116  135.6021  153.5959 H   0  0  0  0  0  0  0  0  0  0  0  0  # atno 10764 bound_to 10752
  152.9831  135.5951  154.4285 H   0  0  0  0  0  0  0  0  0  0  0  0  # atno 10765 bound_to 10752
  141.1653  133.6979  156.7651 H   0  0  0  0  0  0  0  0  0  0  0  0  # atno 11005 bound_to 11000
  146.3518  140.0174  142.8661 LP  0  0  0  0  0  0  0  0  0  0  0  0  # atno 17320 bound_to 7965
  145.1516  140.9626  143.4429 LP  0  0  0  0  0  0  0  0  0  0  0  0  # atno 17321 bound_to 7965
  140.4625  144.1702  150.5908 LP  0  0  0  0  0  0  0  0  0  0  0  0  # atno 17342 bound_to 10162
  140.4469  143.2503  151.9399 LP  0  0  0  0  0  0  0  0  0  0  0  0  # atno 17343 bound_to 10162
  157.1211  130.6062  149.5505 LP  0  0  0  0  0  0  0  0  0  0  0  0  # atno 17370 bound_to 10713
  155.9897  130.4946  150.7227 LP  0  0  0  0  0  0  0  0  0  0  0  0  # atno 17371 bound_to 10713
  140.2505  134.8544  157.3663 LP  0  0  0  0  0  0  0  0  0  0  0  0  # atno 17394 bound_to 11000
  140.1707  134.4612  155.7833 LP  0  0  0  0  0  0  0  0  0  0  0  0  # atno 17395 bound_to 11000

$$$$
