AV-unprocessed.smi:3056|AV-procd|sdf|11654|dock3
  -GOLD-   2272017 53D 1   1.00000     0.00000
 Structure written by MMmdl.
 47 48  0  0  0  0  0  0  0  0  1 V2000
  144.3077  132.3572  149.1563 C   0  0  0  0  0  0  0  0  0  0  0  0
  144.1903  133.3458  150.2804 C   0  0  0  0  0  0  0  0  0  0  0  0
  143.6165  133.1399  151.5663 C   0  0  0  0  0  0  0  0  0  0  0  0
  143.6745  134.2155  152.3337 N   0  0  0  0  0  0  0  0  0  0  0  0
  144.2805  135.1497  151.5662 N   0  0  0  0  0  0  0  0  0  0  0  0
  144.5458  136.4844  152.0960 C   0  0  1  0  0  0  0  0  0  0  0  0
  143.2238  137.1567  152.5151 C   0  0  0  0  0  0  0  0  0  0  0  0
  145.5970  136.4354  153.2379 C   0  0  2  0  0  0  0  0  0  0  0  0
  145.0638  135.7772  154.5251 C   0  0  0  0  0  0  0  0  0  0  0  0
  145.9941  137.8040  153.5605 N   0  0  0  0  0  0  0  0  0  0  0  0
  147.1530  137.8662  154.4617 C   0  0  0  0  0  0  0  0  0  0  0  0
  147.4967  139.2999  154.8999 C   0  0  0  0  0  0  0  0  0  0  0  0
  146.6840  139.9299  155.5800 O   0  0  0  0  0  0  0  0  0  0  0  0
  148.6844  139.8313  154.5233 N   0  0  0  0  0  0  0  0  0  0  0  0
  149.7081  139.0770  153.7958 C   0  0  0  0  0  0  0  0  0  0  0  0
  150.9274  138.9161  154.7209 C   0  0  0  0  0  0  0  0  0  0  0  0
  151.3944  140.2005  155.1305 O   0  0  0  0  0  0  0  0  0  0  0  0
  150.4067  140.9762  155.8093 C   0  0  1  0  0  0  0  0  0  0  0  0
  151.0386  142.3133  156.2105 C   0  0  0  0  0  0  0  0  0  0  0  0
  149.1896  141.1601  154.8806 C   0  0  0  0  0  0  0  0  0  0  0  0
  144.6059  134.6465  150.3236 C   0  0  0  0  0  0  0  0  0  0  0  0
  143.3294  132.0669  148.7732 H   0  0  0  0  0  0  0  0  0  0  0  0
  144.8131  131.4452  149.4744 H   0  0  0  0  0  0  0  0  0  0  0  0
  144.8743  132.7614  148.3170 H   0  0  0  0  0  0  0  0  0  0  0  0
  143.1638  132.2434  151.9635 H   0  0  0  0  0  0  0  0  0  0  0  0
  144.9582  137.0741  151.2754 H   0  0  0  0  0  0  0  0  0  0  0  0
  143.3636  138.2143  152.7361 H   0  0  0  0  0  0  0  0  0  0  0  0
  142.7969  136.6846  153.4005 H   0  0  0  0  0  0  0  0  0  0  0  0
  142.4845  137.0947  151.7157 H   0  0  0  0  0  0  0  0  0  0  0  0
  146.4603  135.8698  152.8824 H   0  0  0  0  0  0  0  0  0  0  0  0
  144.8235  134.7264  154.3660 H   0  0  0  0  0  0  0  0  0  0  0  0
  144.1616  136.2748  154.8821 H   0  0  0  0  0  0  0  0  0  0  0  0
  145.7990  135.8087  155.3292 H   0  0  0  0  0  0  0  0  0  0  0  0
  145.2025  138.3136  153.9266 H   0  0  0  0  0  0  0  0  0  0  0  0
  146.9633  137.2628  155.3495 H   0  0  0  0  0  0  0  0  0  0  0  0
  148.0171  137.4451  153.9455 H   0  0  0  0  0  0  0  0  0  0  0  0
  149.3625  138.0968  153.4653 H   0  0  0  0  0  0  0  0  0  0  0  0
  149.9881  139.6201  152.8919 H   0  0  0  0  0  0  0  0  0  0  0  0
  150.6733  138.3167  155.5966 H   0  0  0  0  0  0  0  0  0  0  0  0
  151.7322  138.3968  154.2007 H   0  0  0  0  0  0  0  0  0  0  0  0
  150.1012  140.4489  156.7150 H   0  0  0  0  0  0  0  0  0  0  0  0
  150.3247  142.9392  156.7466 H   0  0  0  0  0  0  0  0  0  0  0  0
  151.3799  142.8672  155.3357 H   0  0  0  0  0  0  0  0  0  0  0  0
  151.8981  142.1574  156.8629 H   0  0  0  0  0  0  0  0  0  0  0  0
  149.4870  141.6851  153.9715 H   0  0  0  0  0  0  0  0  0  0  0  0
  148.4467  141.7985  155.3563 H   0  0  0  0  0  0  0  0  0  0  0  0
  145.1063  135.2494  149.5804 H   0  0  0  0  0  0  0  0  0  0  0  0
  1  2  1  0  0  0  0
  1 22  1  0  0  0  0
  1 23  1  0  0  0  0
  1 24  1  0  0  0  0
  2 21  2  0  0  0  0
  2  3  1  0  0  0  0
  3  4  2  0  0  0  0
  3 25  1  0  0  0  0
  4  5  1  0  0  0  0
  5  6  1  0  0  0  0
  5 21  1  0  0  0  0
  6  7  1  0  0  0  0
  6  8  1  0  0  0  0
  6 26  1  0  0  0  0
  7 27  1  0  0  0  0
  7 28  1  0  0  0  0
  7 29  1  0  0  0  0
  8  9  1  0  0  0  0
  8 10  1  0  0  0  0
  8 30  1  0  0  0  0
  9 31  1  0  0  0  0
  9 32  1  0  0  0  0
  9 33  1  0  0  0  0
 10 11  1  0  0  0  0
 10 34  1  0  0  0  0
 11 12  1  0  0  0  0
 11 35  1  0  0  0  0
 11 36  1  0  0  0  0
 12 13  2  0  0  0  0
 12 14  1  0  0  0  0
 14 20  1  0  0  0  0
 14 15  1  0  0  0  0
 15 16  1  0  0  0  0
 15 37  1  0  0  0  0
 15 38  1  0  0  0  0
 16 17  1  0  0  0  0
 16 39  1  0  0  0  0
 16 40  1  0  0  0  0
 17 18  1  0  0  0  0
 18 19  1  0  0  0  0
 18 20  1  0  0  0  0
 18 41  1  0  0  0  0
 19 42  1  0  0  0  0
 19 43  1  0  0  0  0
 19 44  1  0  0  0  0
 20 45  1  0  0  0  0
 20 46  1  0  0  0  0
 21 47  1  0  0  0  0
M  END
> <s_m_source_file>
AV-unprocessed.smi

> <i_m_source_file_index>
3056

> <i_lp_mmshare_version>
43012

> <i_f3d_flags>
0

> <s_epik_input>
W0NIM11jMVtjSF1ubihbY0hdMSlbQ0BIXShbQ0gzXSlbQ0BIXShbQ0gzXSlbTkhdW0NIMl1DKD1PKU4yW0NIMl1bQ0gyXU9bQ0BASF0oW0NIM10pW0NIMl0y

> <s_epik_cmdline>
J2VwaWtfcHl0aG9uJywgJy1waCcsICc3LjAnLCAnLXRuJywgJzgnLCAnLW1hJywgJzIwMCcsICctbWV0YWxfYmluZGluZycsICctaW1hZScsICc8aW5maWxlLm1hZT4nLCAnLW9tYWUnLCAnPG91dGZpbGUubWFlPic=

> <r_lp_tautomer_probability>
1

> <r_epik_Ionization_Penalty>
0.667689

> <r_epik_Ionization_Penalty_Charging>
0

> <r_epik_Ionization_Penalty_Neutral>
0.667689

> <r_epik_State_Penalty>
0.684601

> <r_epik_Charging_Adjusted_Penalty>
0.684601

> <i_epik_Tot_Q>
0

> <i_epik_Tot_abs_Q>
0

> <r_epik_Metal_State_Penalty>
0.681448

> <b_epik_Metal_Only>
0

> <s_lp_Force_Field>
OPLS_2005

> <r_lp_Energy>
29.4013

> <b_lp_Chiralities_Consistent>
1

> <s_lp_Variant>
AV-unprocessed.smi:3056-10

> <Gold.Version>
5.8.1

> <Gold.Id.Protein>
6NUR|6NUR_protein|mol2

> <Gold.PLP.Fitness>
38.6292

> <Gold.PLP.PLP>
-33.1925

> <Gold.PLP.part.hbond>
-1.0000

> <Gold.PLP.part.metal>
0.0000

> <Gold.PLP.part.buried>
-3.6211

> <Gold.PLP.part.nonpolar>
-29.2284

> <Gold.PLP.part.repulsive>
0.2042

> <Gold.PLP.ligand.clash>
0.0000

> <Gold.PLP.ligand.torsion>
0.1950

> <Gold.PLP.Chemscore.Hbond>
0.9000

> <Gold.PLP.Chemscore.CHOScore>
1.0077

> <Gold.PLP.Chemscore.Metal>
0.0000

> <Gold.Chemscore.Hbonds>
donor molecule, donor type, donor heavy atom, donor atom, acceptor molecule, acceptor atom, score
      P1  H  7989  7998       L1    17  0.85
      L1  C     3    25       P1 10957  0.01
      L1  C    21    47       P1  7921  1.00

> <Gold.PLP.Chemscore.Internal.Correction>
0.1037

> <Gold.Rescore>
     Score         DG    S(hbond)    S(metal)    S(lipo)     H(rot)  DE(clash)    DE(int)     intcor
     11.14     -11.57       0.12        0.00      85.33       1.68       0.16       0.27       ----

> <Gold.Chemscore.Fitness>
11.1401

> <Gold.Chemscore.DG>
-11.5672

> <Gold.Chemscore.ZeroCoef>
-5.4800

> <Gold.Chemscore.Hbond>
0.1205

> <Gold.Chemscore.Metal>
0.0000

> <Gold.Chemscore.Lipo>
85.3302

> <Gold.Chemscore.Internal_Hbond>
0.0000

> <Gold.Chemscore.DEClash>
0.1611

> <Gold.Chemscore.DEInternal>
0.2660

> <Gold.Chemscore.Rot>
1.6793

> <Gold.Chemscore.Internal.Correction>
   9.000000E+99

> <Gold.Chemscore.Hbonds>
donor molecule, donor type, donor heavy atom, donor atom, acceptor molecule, acceptor atom, score
      P1  H  7989  7998       L1    17  0.10

> <Gold.Chemscore.Hbond.Weighted>
-0.4026

> <Gold.Chemscore.Metal.Weighted>
-0.0000

> <Gold.Chemscore.Lipo.Weighted>
-9.9836

> <Gold.Chemscore.Internal_Hbond.Weighted>
0.0000

> <Gold.Chemscore.DEClash.Weighted>
0.1611

> <Gold.Chemscore.DEInternal.Weighted>
0.2660

> <Gold.Chemscore.Rot.Weighted>
4.2990

> <Gold.Chemscore.Internal.Correction.Weighted>
   9.000000E+99

> <Gold.Protein.RotatedTorsions>
[ 6907 6896 6895 6894 ] final   95.74 input  -60.11 | X-H torsion
[ 7974 7965 7964 7962 ] final -136.48 input  175.53 | X-H torsion
[ 8008 7997 7996 7995 ] final    9.56 input   59.86 | X-H torsion
[ 10167 10162 10161 10158 ] final    4.09 input  -65.29 | X-H torsion
[ 10718 10713 10712 10709 ] final  179.41 input   66.30 | X-H torsion
[ 10763 10752 10751 10750 ] final  174.60 input  -60.55 | X-H torsion
[ 11005 11000 10999 10996 ] final -179.69 input  -57.11 | X-H torsion

> <Gold.Protein.ActiveResidues>
 VAL166  LYS551  ARG553  GLY616  TRP617  ASP618  TYR619  PRO620  LYS621  CYS622 
 ASP623  PHE694  ASN695  SER759  ASP760  ASP761  ALA762  ILE779  LEU786  VAL792 
 PHE793  MET794  SER795  GLU796  ALA797  LYS798  CYS799  TRP800  GLU811  SER814 

> <Gold.Protein.RotatedAtoms>
  152.5441  134.0993  159.8310 H   0  0  0  0  0  0  0  0  0  0  0  0  # atno 6907 bound_to 6896
  151.1072  133.5192  159.2614 H   0  0  0  0  0  0  0  0  0  0  0  0  # atno 6908 bound_to 6896
  151.1924  135.0417  159.8892 H   0  0  0  0  0  0  0  0  0  0  0  0  # atno 6909 bound_to 6896
  144.8923  140.6659  143.5137 H   0  0  0  0  0  0  0  0  0  0  0  0  # atno 7974 bound_to 7965
  154.7817  140.2820  155.6058 H   0  0  0  0  0  0  0  0  0  0  0  0  # atno 8008 bound_to 7997
  156.2951  140.2622  156.2572 H   0  0  0  0  0  0  0  0  0  0  0  0  # atno 8009 bound_to 7997
  154.9776  140.0375  157.2252 H   0  0  0  0  0  0  0  0  0  0  0  0  # atno 8010 bound_to 7997
  140.6552  143.7444  150.7642 H   0  0  0  0  0  0  0  0  0  0  0  0  # atno 10167 bound_to 10162
  156.8761  130.9800  151.3067 H   0  0  0  0  0  0  0  0  0  0  0  0  # atno 10718 bound_to 10713
  154.4562  135.2766  155.1746 H   0  0  0  0  0  0  0  0  0  0  0  0  # atno 10763 bound_to 10752
  154.3552  135.6141  153.5666 H   0  0  0  0  0  0  0  0  0  0  0  0  # atno 10764 bound_to 10752
  152.9851  135.5821  154.4916 H   0  0  0  0  0  0  0  0  0  0  0  0  # atno 10765 bound_to 10752
  140.4158  134.6651  157.4638 H   0  0  0  0  0  0  0  0  0  0  0  0  # atno 11005 bound_to 11000
  145.3761  139.1647  143.4306 LP  0  0  0  0  0  0  0  0  0  0  0  0  # atno 17320 bound_to 7965
  146.3061  140.3838  142.8687 LP  0  0  0  0  0  0  0  0  0  0  0  0  # atno 17321 bound_to 7965
  140.1103  143.4706  152.2374 LP  0  0  0  0  0  0  0  0  0  0  0  0  # atno 17342 bound_to 10162
  139.5774  144.7494  151.3729 LP  0  0  0  0  0  0  0  0  0  0  0  0  # atno 17343 bound_to 10162
  157.6167  130.8624  149.9041 LP  0  0  0  0  0  0  0  0  0  0  0  0  # atno 17370 bound_to 10713
  156.0701  130.3686  150.0794 LP  0  0  0  0  0  0  0  0  0  0  0  0  # atno 17371 bound_to 10713
  140.0235  134.6512  155.9206 LP  0  0  0  0  0  0  0  0  0  0  0  0  # atno 17394 bound_to 11000
  141.1803  133.6545  156.4995 LP  0  0  0  0  0  0  0  0  0  0  0  0  # atno 17395 bound_to 11000

$$$$
