AV-unprocessed.smi:285|AV-procd|sdf|2166|dock5
  -GOLD-   2262021523D 1   1.00000     0.00000
 Structure written by MMmdl.
 31 33  0  0  0  0  0  0  0  0  1 V2000
  156.3846  139.8578  162.6513 N   0  0  0  0  0  0  0  0  0  0  0  0
  155.4983  140.1744  161.6970 C   0  0  0  0  0  0  0  0  0  0  0  0
  155.4715  139.4247  160.5704 N   0  0  0  0  0  0  0  0  0  0  0  0
  154.5971  139.7200  159.6029 C   0  0  0  0  0  0  0  0  0  0  0  0
  153.6881  140.6979  159.5680 N   0  0  0  0  0  0  0  0  0  0  0  0
  153.7135  141.4530  160.7053 C   0  0  0  0  0  0  0  0  0  0  0  0
  154.5892  141.2561  161.8133 C   0  0  0  0  0  0  0  0  0  0  0  0
  154.3439  142.2081  162.7947 N   0  0  0  0  0  0  0  0  0  0  0  0
  153.3767  142.9118  162.2760 C   0  0  0  0  0  0  0  0  0  0  0  0
  152.6492  144.3944  163.2251 Br  0  0  0  0  0  0  0  0  0  0  0  0
  152.9259  142.5403  161.0291 N   0  0  0  0  0  0  0  0  0  0  0  0
  151.8401  143.1501  160.2021 C   0  0  1  0  0  0  0  0  0  0  0  0
  152.4014  143.9111  159.0140 C   0  0  0  0  0  0  0  0  0  0  0  0
  151.1720  143.9286  158.1324 C   0  0  1  0  0  0  0  0  0  0  0  0
  151.5038  144.2011  156.7850 O   0  0  0  0  0  0  0  0  0  0  0  0
  150.5313  142.5450  158.3942 C   0  0  1  0  0  0  0  0  0  0  0  0
  150.9032  141.4439  157.3804 C   0  0  0  0  0  0  0  0  0  0  0  0
  150.3819  141.7658  156.1087 O   0  0  0  0  0  0  0  0  0  0  0  0
  151.0474  142.1394  159.6680 O   0  0  0  0  0  0  0  0  0  0  0  0
  156.4242  140.4017  163.5013 H   0  0  0  0  0  0  0  0  0  0  0  0
  157.0079  139.0744  162.5203 H   0  0  0  0  0  0  0  0  0  0  0  0
  154.6297  139.0817  158.7322 H   0  0  0  0  0  0  0  0  0  0  0  0
  151.2502  143.7716  160.8758 H   0  0  0  0  0  0  0  0  0  0  0  0
  152.7598  144.8992  159.3040 H   0  0  0  0  0  0  0  0  0  0  0  0
  153.2128  143.3438  158.5552 H   0  0  0  0  0  0  0  0  0  0  0  0
  150.4955  144.7084  158.4859 H   0  0  0  0  0  0  0  0  0  0  0  0
  150.7055  144.3584  156.3040 H   0  0  0  0  0  0  0  0  0  0  0  0
  149.4471  142.6556  158.4443 H   0  0  0  0  0  0  0  0  0  0  0  0
  151.9838  141.3715  157.2599 H   0  0  0  0  0  0  0  0  0  0  0  0
  150.5489  140.4646  157.7008 H   0  0  0  0  0  0  0  0  0  0  0  0
  149.9136  142.5837  156.1751 H   0  0  0  0  0  0  0  0  0  0  0  0
  1  2  1  0  0  0  0
  1 20  1  0  0  0  0
  1 21  1  0  0  0  0
  2  7  1  0  0  0  0
  2  3  2  0  0  0  0
  3  4  1  0  0  0  0
  4  5  2  0  0  0  0
  4 22  1  0  0  0  0
  5  6  1  0  0  0  0
  6 11  1  0  0  0  0
  6  7  2  0  0  0  0
  7  8  1  0  0  0  0
  8  9  2  0  0  0  0
  9 10  1  0  0  0  0
  9 11  1  0  0  0  0
 11 12  1  0  0  0  0
 12 19  1  0  0  0  0
 12 13  1  0  0  0  0
 12 23  1  0  0  0  0
 13 14  1  0  0  0  0
 13 24  1  0  0  0  0
 13 25  1  0  0  0  0
 14 15  1  0  0  0  0
 14 16  1  0  0  0  0
 14 26  1  0  0  0  0
 15 27  1  0  0  0  0
 16 17  1  0  0  0  0
 16 19  1  0  0  0  0
 16 28  1  0  0  0  0
 17 18  1  0  0  0  0
 17 29  1  0  0  0  0
 17 30  1  0  0  0  0
 18 31  1  0  0  0  0
M  END
> <s_m_source_file>
AV-unprocessed.smi

> <i_m_source_file_index>
285

> <i_lp_mmshare_version>
43012

> <i_f3d_flags>
0

> <s_epik_input>
bjFbY0hdbmMoW05IMl0pYyhjMTIpbmMoQnIpbjJbQ0BASF0zW0NIMl1bQ0BASF0oW09IXSlbQ0BIXShPMylbQ0gyXVtPSF0=

> <s_epik_cmdline>
J2VwaWtfcHl0aG9uJywgJy1waCcsICc3LjAnLCAnLXRuJywgJzgnLCAnLW1hJywgJzIwMCcsICctbWV0YWxfYmluZGluZycsICctaW1hZScsICc8aW5maWxlLm1hZT4nLCAnLW9tYWUnLCAnPG91dGZpbGUubWFlPic=

> <r_lp_tautomer_probability>
1

> <r_epik_Ionization_Penalty>
0.000103242

> <r_epik_Ionization_Penalty_Charging>
0

> <r_epik_Ionization_Penalty_Neutral>
0.000103242

> <r_epik_State_Penalty>
-0

> <r_epik_Charging_Adjusted_Penalty>
0

> <i_epik_Tot_Q>
0

> <i_epik_Tot_abs_Q>
0

> <r_epik_Metal_State_Penalty>
-0

> <b_epik_Metal_Only>
0

> <s_epik_Chemistry_Notes>
This compound contains an acetal/aminal-like group ( X-CH(R)-Y where X, Y are N, S, or O) that may be acid/base labile, releasing an aldehyde.

> <s_lp_Force_Field>
OPLS_2005

> <r_lp_Energy>
35.0354

> <b_lp_Chiralities_Consistent>
1

> <s_lp_Variant>
AV-unprocessed.smi:285-2

> <Gold.Version>
5.8.1

> <Gold.Id.Protein>
6NUR|6NUR_protein|mol2

> <Gold.PLP.Fitness>
43.2707

> <Gold.PLP.PLP>
-37.9380

> <Gold.PLP.part.hbond>
-4.1148

> <Gold.PLP.part.metal>
0.0000

> <Gold.PLP.part.buried>
-2.1322

> <Gold.PLP.part.nonpolar>
-31.5753

> <Gold.PLP.part.repulsive>
0.0000

> <Gold.PLP.ligand.clash>
0.0000

> <Gold.PLP.ligand.torsion>
0.3409

> <Gold.PLP.Chemscore.Hbond>
2.0000

> <Gold.PLP.Chemscore.CHOScore>
0.0000

> <Gold.PLP.Chemscore.Metal>
0.0000

> <Gold.Chemscore.Hbonds>
donor molecule, donor type, donor heavy atom, donor atom, acceptor molecule, acceptor atom, score
      L1  H    15    27       P1  8028  1.00
      L1  H    18    31       P1  8028  0.02

> <Gold.PLP.Chemscore.Internal.Correction>
0.0145

> <Gold.Rescore>
     Score         DG    S(hbond)    S(metal)    S(lipo)     H(rot)  DE(clash)    DE(int)     intcor
      8.47     -10.87       1.94        0.00      57.75       3.06       0.36       2.05       ----

> <Gold.Chemscore.Fitness>
8.4685

> <Gold.Chemscore.DG>
-10.8716

> <Gold.Chemscore.ZeroCoef>
-5.4800

> <Gold.Chemscore.Hbond>
1.9372

> <Gold.Chemscore.Metal>
0.0000

> <Gold.Chemscore.Lipo>
57.7488

> <Gold.Chemscore.Internal_Hbond>
0.0000

> <Gold.Chemscore.DEClash>
0.3573

> <Gold.Chemscore.DEInternal>
2.0458

> <Gold.Chemscore.Rot>
3.0607

> <Gold.Chemscore.Internal.Correction>
   9.000000E+99

> <Gold.Chemscore.Hbonds>
donor molecule, donor type, donor heavy atom, donor atom, acceptor molecule, acceptor atom, score
      L1  H    15    27       P1  8028  0.99
      L1  H    18    31       P1  8028  0.07

> <Gold.Chemscore.Hbond.Weighted>
-6.4703

> <Gold.Chemscore.Metal.Weighted>
-0.0000

> <Gold.Chemscore.Lipo.Weighted>
-6.7566

> <Gold.Chemscore.Internal_Hbond.Weighted>
0.0000

> <Gold.Chemscore.DEClash.Weighted>
0.3573

> <Gold.Chemscore.DEInternal.Weighted>
2.0458

> <Gold.Chemscore.Rot.Weighted>
7.8354

> <Gold.Chemscore.Internal.Correction.Weighted>
   9.000000E+99

> <Gold.Protein.RotatedTorsions>
[ 6907 6896 6895 6894 ] final  -34.18 input  -60.11 | X-H torsion
[ 7974 7965 7964 7962 ] final  162.10 input  175.53 | X-H torsion
[ 8008 7997 7996 7995 ] final   -8.86 input   59.86 | X-H torsion
[ 10167 10162 10161 10158 ] final  -73.15 input  -65.29 | X-H torsion
[ 10718 10713 10712 10709 ] final   46.04 input   66.30 | X-H torsion
[ 10763 10752 10751 10750 ] final -164.33 input  -60.55 | X-H torsion
[ 11005 11000 10999 10996 ] final  -48.63 input  -57.11 | X-H torsion

> <Gold.Protein.ActiveResidues>
 VAL166  LYS551  ARG553  GLY616  TRP617  ASP618  TYR619  PRO620  LYS621  CYS622 
 ASP623  PHE694  ASN695  SER759  ASP760  ASP761  ALA762  ILE779  LEU786  VAL792 
 PHE793  MET794  SER795  GLU796  ALA797  LYS798  CYS799  TRP800  GLU811  SER814 

> <Gold.Protein.RotatedAtoms>
  151.0559  134.9704  159.8235 H   0  0  0  0  0  0  0  0  0  0  0  0  # atno 6907 bound_to 6896
  152.5388  134.2478  159.8897 H   0  0  0  0  0  0  0  0  0  0  0  0  # atno 6908 bound_to 6896
  151.2496  133.4314  159.2644 H   0  0  0  0  0  0  0  0  0  0  0  0  # atno 6909 bound_to 6896
  144.7653  139.7991  143.6317 H   0  0  0  0  0  0  0  0  0  0  0  0  # atno 7974 bound_to 7965
  154.5701  140.2370  155.8204 H   0  0  0  0  0  0  0  0  0  0  0  0  # atno 8008 bound_to 7997
  156.2100  140.3029  155.9669 H   0  0  0  0  0  0  0  0  0  0  0  0  # atno 8009 bound_to 7997
  155.2728  140.0419  157.2999 H   0  0  0  0  0  0  0  0  0  0  0  0  # atno 8010 bound_to 7997
  140.5134  143.2341  151.7554 H   0  0  0  0  0  0  0  0  0  0  0  0  # atno 10167 bound_to 10162
  157.4439  130.8097  149.7721 H   0  0  0  0  0  0  0  0  0  0  0  0  # atno 10718 bound_to 10713
  154.7038  135.2993  154.9301 H   0  0  0  0  0  0  0  0  0  0  0  0  # atno 10763 bound_to 10752
  154.0224  135.6681  153.4777 H   0  0  0  0  0  0  0  0  0  0  0  0  # atno 10764 bound_to 10752
  153.0702  135.5065  154.8197 H   0  0  0  0  0  0  0  0  0  0  0  0  # atno 10765 bound_to 10752
  141.0712  133.6678  156.3469 H   0  0  0  0  0  0  0  0  0  0  0  0  # atno 11005 bound_to 11000
  146.1755  139.4923  142.9900 LP  0  0  0  0  0  0  0  0  0  0  0  0  # atno 17320 bound_to 7965
  145.6489  141.0267  143.1771 LP  0  0  0  0  0  0  0  0  0  0  0  0  # atno 17321 bound_to 7965
  139.4902  144.4358  151.9821 LP  0  0  0  0  0  0  0  0  0  0  0  0  # atno 17342 bound_to 10162
  140.3451  144.3156  150.5959 LP  0  0  0  0  0  0  0  0  0  0  0  0  # atno 17343 bound_to 10162
  155.9959  130.3909  150.2799 LP  0  0  0  0  0  0  0  0  0  0  0  0  # atno 17370 bound_to 10713
  157.0965  131.0184  151.3102 LP  0  0  0  0  0  0  0  0  0  0  0  0  # atno 17371 bound_to 10713
  140.5669  134.5879  157.5448 LP  0  0  0  0  0  0  0  0  0  0  0  0  # atno 17394 bound_to 11000
  139.9526  134.7591  156.0415 LP  0  0  0  0  0  0  0  0  0  0  0  0  # atno 17395 bound_to 11000

$$$$
