AV-unprocessed.smi:6|AV-procd|sdf|42|dock3
  -GOLD-   2262015153D 1   1.00000     0.00000
 Structure written by MMmdl.
 37 38  0  0  0  0  0  0  0  0  3 V2000
  143.7606  132.7329  148.9868 C   0  0  0  0  0  0  0  0  0  0  0  0
  145.0054  132.9256  149.8661 C   0  0  0  0  0  0  0  0  0  0  0  0
  145.4769  131.6242  150.5326 C   0  0  0  0  0  0  0  0  0  0  0  0
  144.8215  134.0486  150.8770 C   0  0  0  0  0  0  0  0  0  0  0  0
  143.6047  134.5978  151.0244 N   0  3  0  0  0  0  0  0  0  0  0  0
  143.4242  135.6009  151.9179 C   0  0  0  0  0  0  0  0  0  0  0  0
  144.5030  136.0695  152.6900 C   0  0  0  0  0  0  0  0  0  0  0  0
  145.7479  135.4486  152.4892 C   0  0  0  0  0  0  0  0  0  0  0  0
  146.8588  135.8760  153.2271 N   0  0  0  0  0  0  0  0  0  0  0  0
  146.6604  136.8161  154.3238 C   0  0  0  0  0  0  0  0  0  0  0  0
  147.8471  137.7449  154.5328 C   0  0  0  0  0  0  0  0  0  0  0  0
  147.7787  139.0686  154.2795 C   0  0  0  0  0  0  0  0  0  0  0  0
  148.8787  139.9249  154.4506 N   0  0  0  0  0  0  0  0  0  0  0  0
  148.7028  141.3491  154.1563 C   0  0  0  0  0  0  0  0  0  0  0  0
  150.0729  139.4300  154.8835 C   0  0  0  0  0  0  0  0  0  0  0  0
  151.0184  140.2053  155.0312 O   0  0  0  0  0  0  0  0  0  0  0  0
  150.1743  138.0895  155.1366 N   0  5  0  0  0  0  0  0  0  0  0  0
  149.1394  137.2129  154.9815 C   0  0  0  0  0  0  0  0  0  0  0  0
  149.2591  136.0085  155.2060 O   0  0  0  0  0  0  0  0  0  0  0  0
  145.8859  134.4531  151.5854 N   0  0  0  0  0  0  0  0  0  0  0  0
  143.4930  133.6587  148.4768 H   0  0  0  0  0  0  0  0  0  0  0  0
  142.9002  132.4169  149.5776 H   0  0  0  0  0  0  0  0  0  0  0  0
  143.9336  131.9739  148.2233 H   0  0  0  0  0  0  0  0  0  0  0  0
  145.8085  133.2334  149.1944 H   0  0  0  0  0  0  0  0  0  0  0  0
  146.4022  131.7803  151.0878 H   0  0  0  0  0  0  0  0  0  0  0  0
  145.6652  130.8488  149.7896 H   0  0  0  0  0  0  0  0  0  0  0  0
  144.7310  131.2398  151.2293 H   0  0  0  0  0  0  0  0  0  0  0  0
  142.4214  135.9965  151.9856 H   0  0  0  0  0  0  0  0  0  0  0  0
  144.3765  136.8681  153.4066 H   0  0  0  0  0  0  0  0  0  0  0  0
  147.7377  135.9446  152.7332 H   0  0  0  0  0  0  0  0  0  0  0  0
  145.7698  137.4166  154.1332 H   0  0  0  0  0  0  0  0  0  0  0  0
  146.4808  136.2610  155.2454 H   0  0  0  0  0  0  0  0  0  0  0  0
  146.8767  139.5503  153.9315 H   0  0  0  0  0  0  0  0  0  0  0  0
  149.4302  141.6816  153.4143 H   0  0  0  0  0  0  0  0  0  0  0  0
  148.8430  141.9433  155.0603 H   0  0  0  0  0  0  0  0  0  0  0  0
  147.7113  141.5768  153.7637 H   0  0  0  0  0  0  0  0  0  0  0  0
  142.8140  134.2681  150.4701 H   0  0  0  0  0  0  0  0  0  0  0  0
  1  2  1  0  0  0  0
  1 21  1  0  0  0  0
  1 22  1  0  0  0  0
  1 23  1  0  0  0  0
  2  3  1  0  0  0  0
  2  4  1  0  0  0  0
  2 24  1  0  0  0  0
  3 25  1  0  0  0  0
  3 26  1  0  0  0  0
  3 27  1  0  0  0  0
  4 20  1  0  0  0  0
  4  5  2  0  0  0  0
  5  6  1  0  0  0  0
  5 37  1  0  0  0  0
  6  7  2  0  0  0  0
  6 28  1  0  0  0  0
  7  8  1  0  0  0  0
  7 29  1  0  0  0  0
  8  9  1  0  0  0  0
  8 20  2  0  0  0  0
  9 10  1  0  0  0  0
  9 30  1  0  0  0  0
 10 11  1  0  0  0  0
 10 31  1  0  0  0  0
 10 32  1  0  0  0  0
 11 18  1  0  0  0  0
 11 12  2  0  0  0  0
 12 13  1  0  0  0  0
 12 33  1  0  0  0  0
 13 14  1  0  0  0  0
 13 15  1  0  0  0  0
 14 34  1  0  0  0  0
 14 35  1  0  0  0  0
 14 36  1  0  0  0  0
 15 16  2  0  0  0  0
 15 17  1  0  0  0  0
 17 18  1  0  0  0  0
 18 19  2  0  0  0  0
M  CHG  1   5   1
M  CHG  1  17  -1
M  END
> <s_m_source_file>
AV-unprocessed.smi

> <i_m_source_file_index>
6

> <i_lp_mmshare_version>
43012

> <i_f3d_flags>
0

> <s_epik_input>
W0NIM11bQ0hdKFtDSDNdKWMxbltjSF1bY0hdYyhuMSlbTkhdW0NIMl1jMltjSF1uKFtDSDNdKWMoPU8pW25IXWMyPU8=

> <s_epik_cmdline>
J2VwaWtfcHl0aG9uJywgJy1waCcsICc3LjAnLCAnLXRuJywgJzgnLCAnLW1hJywgJzIwMCcsICctbWV0YWxfYmluZGluZycsICctaW1hZScsICc8aW5maWxlLm1hZT4nLCAnLW9tYWUnLCAnPG91dGZpbGUubWFlPic=

> <r_lp_tautomer_probability>
0.998874

> <r_epik_Ionization_Penalty>
4.8157

> <r_epik_Ionization_Penalty_Charging>
0.866709

> <r_epik_Ionization_Penalty_Neutral>
3.94899

> <r_epik_State_Penalty>
4.49389

> <r_epik_Charging_Adjusted_Penalty>
5.3606

> <i_epik_Tot_Q>
0

> <i_epik_Tot_abs_Q>
2

> <r_epik_Metal_State_Penalty>
1.28929

> <b_epik_Metal_Only>
1

> <s_lp_Force_Field>
OPLS_2005

> <r_lp_Energy>
16.1184

> <b_lp_Chiralities_Consistent>
1

> <s_lp_Variant>
AV-unprocessed.smi:6-4

> <Gold.Version>
5.8.1

> <Gold.Id.Protein>
6NUR|6NUR_protein|mol2

> <Gold.PLP.Fitness>
41.0477

> <Gold.PLP.PLP>
-29.6308

> <Gold.PLP.part.hbond>
-3.0000

> <Gold.PLP.part.metal>
0.0000

> <Gold.PLP.part.buried>
-4.4771

> <Gold.PLP.part.nonpolar>
-23.3207

> <Gold.PLP.part.repulsive>
0.4235

> <Gold.PLP.ligand.clash>
0.0000

> <Gold.PLP.ligand.torsion>
0.3339

> <Gold.PLP.Chemscore.Hbond>
4.0000

> <Gold.PLP.Chemscore.CHOScore>
0.0000

> <Gold.PLP.Chemscore.Metal>
0.0000

> <Gold.Chemscore.Hbonds>
donor molecule, donor type, donor heavy atom, donor atom, acceptor molecule, acceptor atom, score
      L1  H     5    37       P1 10186  2.00
      L1  H     9    30       P1  7948  0.96
      P1  H  7989  7998       L1    16  1.00

> <Gold.PLP.Chemscore.Internal.Correction>
0.0847

> <Gold.Rescore>
     Score         DG    S(hbond)    S(metal)    S(lipo)     H(rot)  DE(clash)    DE(int)     intcor
     17.27     -17.60       2.83        0.00      58.91       1.65       0.05       0.28       ----

> <Gold.Chemscore.Fitness>
17.2712

> <Gold.Chemscore.DG>
-17.6032

> <Gold.Chemscore.ZeroCoef>
-5.4800

> <Gold.Chemscore.Hbond>
2.8291

> <Gold.Chemscore.Metal>
0.0000

> <Gold.Chemscore.Lipo>
58.9079

> <Gold.Chemscore.Internal_Hbond>
0.0000

> <Gold.Chemscore.DEClash>
0.0494

> <Gold.Chemscore.DEInternal>
0.2826

> <Gold.Chemscore.Rot>
1.6477

> <Gold.Chemscore.Internal.Correction>
   9.000000E+99

> <Gold.Chemscore.Hbonds>
donor molecule, donor type, donor heavy atom, donor atom, acceptor molecule, acceptor atom, score
      L1  H     5    37       P1 10186  0.68
      L1  H     9    30       P1  7948  0.91
      P1  H  7989  7998       L1    16  0.88

> <Gold.Chemscore.Hbond.Weighted>
-9.4490

> <Gold.Chemscore.Metal.Weighted>
-0.0000

> <Gold.Chemscore.Lipo.Weighted>
-6.8922

> <Gold.Chemscore.Internal_Hbond.Weighted>
0.0000

> <Gold.Chemscore.DEClash.Weighted>
0.0494

> <Gold.Chemscore.DEInternal.Weighted>
0.2826

> <Gold.Chemscore.Rot.Weighted>
4.2180

> <Gold.Chemscore.Internal.Correction.Weighted>
   9.000000E+99

> <Gold.Protein.RotatedTorsions>
[ 6907 6896 6895 6894 ] final  -36.25 input  -60.11 | X-H torsion
[ 7974 7965 7964 7962 ] final  115.25 input  175.53 | X-H torsion
[ 8008 7997 7996 7995 ] final -112.70 input   59.86 | X-H torsion
[ 10167 10162 10161 10158 ] final   -5.07 input  -65.29 | X-H torsion
[ 10718 10713 10712 10709 ] final  179.56 input   66.30 | X-H torsion
[ 10763 10752 10751 10750 ] final  -29.10 input  -60.55 | X-H torsion
[ 11005 11000 10999 10996 ] final   89.43 input  -57.11 | X-H torsion

> <Gold.Protein.ActiveResidues>
 VAL166  LYS551  ARG553  GLY616  TRP617  ASP618  TYR619  PRO620  LYS621  CYS622 
 ASP623  PHE694  ASN695  SER759  ASP760  ASP761  ALA762  ILE779  LEU786  VAL792 
 PHE793  MET794  SER795  GLU796  ALA797  LYS798  CYS799  TRP800  GLU811  SER814 

> <Gold.Protein.RotatedAtoms>
  151.0295  134.9528  159.8102 H   0  0  0  0  0  0  0  0  0  0  0  0  # atno 6907 bound_to 6896
  152.5342  134.2799  159.9013 H   0  0  0  0  0  0  0  0  0  0  0  0  # atno 6908 bound_to 6896
  151.2808  133.4168  159.2661 H   0  0  0  0  0  0  0  0  0  0  0  0  # atno 6909 bound_to 6896
  145.1943  139.2984  143.4352 H   0  0  0  0  0  0  0  0  0  0  0  0  # atno 7974 bound_to 7965
  155.0092  140.0393  157.2392 H   0  0  0  0  0  0  0  0  0  0  0  0  # atno 8008 bound_to 7997
  154.7475  140.2760  155.6297 H   0  0  0  0  0  0  0  0  0  0  0  0  # atno 8009 bound_to 7997
  156.2878  140.2653  156.2219 H   0  0  0  0  0  0  0  0  0  0  0  0  # atno 8010 bound_to 7997
  140.6950  143.6350  150.8488 H   0  0  0  0  0  0  0  0  0  0  0  0  # atno 10167 bound_to 10162
  156.8739  130.9793  151.3070 H   0  0  0  0  0  0  0  0  0  0  0  0  # atno 10718 bound_to 10713
  153.7592  135.6920  153.4929 H   0  0  0  0  0  0  0  0  0  0  0  0  # atno 10763 bound_to 10752
  153.1950  135.4457  155.0195 H   0  0  0  0  0  0  0  0  0  0  0  0  # atno 10764 bound_to 10752
  154.8159  135.3399  154.7108 H   0  0  0  0  0  0  0  0  0  0  0  0  # atno 10765 bound_to 10752
  139.8875  134.8551  156.3141 H   0  0  0  0  0  0  0  0  0  0  0  0  # atno 11005 bound_to 11000
  146.3430  140.2166  142.8591 LP  0  0  0  0  0  0  0  0  0  0  0  0  # atno 17320 bound_to 7965
  145.0010  140.8632  143.5281 LP  0  0  0  0  0  0  0  0  0  0  0  0  # atno 17321 bound_to 7965
  140.0067  143.5686  152.2855 LP  0  0  0  0  0  0  0  0  0  0  0  0  # atno 17342 bound_to 10162
  139.6395  144.7653  151.2368 LP  0  0  0  0  0  0  0  0  0  0  0  0  # atno 17343 bound_to 10162
  157.6180  130.8633  149.9060 LP  0  0  0  0  0  0  0  0  0  0  0  0  # atno 17370 bound_to 10713
  156.0712  130.3685  150.0772 LP  0  0  0  0  0  0  0  0  0  0  0  0  # atno 17371 bound_to 10713
  140.9830  133.7255  156.0700 LP  0  0  0  0  0  0  0  0  0  0  0  0  # atno 17394 bound_to 11000
  140.7724  134.3817  157.5505 LP  0  0  0  0  0  0  0  0  0  0  0  0  # atno 17395 bound_to 11000

$$$$
