AV-unprocessed.smi:2862|AV-procd|sdf|11009|dock9
  -GOLD-   2272015473D 1   1.00000     0.00000
 Structure written by MMmdl.
 52 54  0  0  0  0  0  0  0  0  1 V2000
  145.6021  130.3643  151.1752 C   0  0  0  0  0  0  0  0  0  0  0  0
  145.6569  131.7981  151.7301 C   0  0  1  0  0  0  0  0  0  0  0  0
  147.0108  132.1467  152.1580 N   0  0  0  0  0  0  0  0  0  0  0  0
  147.3652  132.9685  153.1635 C   0  0  0  0  0  0  0  0  0  0  0  0
  146.5477  133.5483  153.8767 O   0  0  0  0  0  0  0  0  0  0  0  0
  148.8655  133.1907  153.4261 C   0  0  0  0  0  0  0  0  0  0  0  0
  149.5575  132.0662  154.0837 N   0  0  0  0  0  0  0  0  0  0  0  0
  149.2475  130.7728  153.6180 C   0  0  0  0  0  0  0  0  0  0  0  0
  149.8167  129.6729  154.1335 C   0  0  0  0  0  0  0  0  0  0  0  0
  150.7749  129.8338  155.1989 C   0  0  0  0  0  0  0  0  0  0  0  0
  151.1058  131.0712  155.6337 C   0  0  0  0  0  0  0  0  0  0  0  0
  152.0329  131.2867  156.7529 C   0  0  0  0  0  0  0  0  0  0  0  0
  151.7137  131.9159  157.7637 O   0  0  0  0  0  0  0  0  0  0  0  0
  153.2657  130.7151  156.6250 N   0  0  0  0  0  0  0  0  0  0  0  0
  154.1419  130.4108  157.7693 C   0  0  0  0  0  0  0  0  0  0  0  0
  153.7739  130.1843  155.3408 C   0  0  2  0  0  0  0  0  0  0  0  0
  153.8525  128.6443  155.3472 C   0  0  0  0  0  0  0  0  0  0  0  0
  155.0849  130.8011  154.8704 C   0  0  0  0  0  0  0  0  0  0  0  0
  155.6610  130.4747  153.5136 C   0  0  0  0  0  0  0  0  0  0  0  0
  156.3405  129.9690  154.7664 C   0  0  0  0  0  0  0  0  0  0  0  0
  150.4673  132.2891  155.0838 C   0  0  0  0  0  0  0  0  0  0  0  0
  150.7281  133.4367  155.4560 O   0  0  0  0  0  0  0  0  0  0  0  0
  145.0104  132.7954  150.7807 C   0  0  0  0  0  0  0  0  0  0  0  0
  143.5612  132.6619  150.3803 C   0  0  0  0  0  0  0  0  0  0  0  0
  144.6542  132.4034  149.3669 C   0  0  0  0  0  0  0  0  0  0  0  0
  144.5721  130.0587  150.9891 H   0  0  0  0  0  0  0  0  0  0  0  0
  146.0325  129.6523  151.8801 H   0  0  0  0  0  0  0  0  0  0  0  0
  146.1452  130.2730  150.2343 H   0  0  0  0  0  0  0  0  0  0  0  0
  145.0660  131.8027  152.6467 H   0  0  0  0  0  0  0  0  0  0  0  0
  147.7601  131.7196  151.6331 H   0  0  0  0  0  0  0  0  0  0  0  0
  149.3505  133.4311  152.4782 H   0  0  0  0  0  0  0  0  0  0  0  0
  148.9681  134.0961  154.0257 H   0  0  0  0  0  0  0  0  0  0  0  0
  148.5262  130.7344  152.8144 H   0  0  0  0  0  0  0  0  0  0  0  0
  149.5665  128.6916  153.7578 H   0  0  0  0  0  0  0  0  0  0  0  0
  151.2121  128.9544  155.6498 H   0  0  0  0  0  0  0  0  0  0  0  0
  153.5937  130.2957  158.7053 H   0  0  0  0  0  0  0  0  0  0  0  0
  154.8852  131.1978  157.8985 H   0  0  0  0  0  0  0  0  0  0  0  0
  154.6765  129.4709  157.6282 H   0  0  0  0  0  0  0  0  0  0  0  0
  153.0354  130.4128  154.5703 H   0  0  0  0  0  0  0  0  0  0  0  0
  154.0587  128.2646  154.3462 H   0  0  0  0  0  0  0  0  0  0  0  0
  152.9097  128.2043  155.6740 H   0  0  0  0  0  0  0  0  0  0  0  0
  154.6409  128.2696  155.9994 H   0  0  0  0  0  0  0  0  0  0  0  0
  155.2431  131.8208  155.2152 H   0  0  0  0  0  0  0  0  0  0  0  0
  155.1366  129.7456  152.8995 H   0  0  0  0  0  0  0  0  0  0  0  0
  156.1448  131.2821  152.9677 H   0  0  0  0  0  0  0  0  0  0  0  0
  157.2784  130.4387  155.0558 H   0  0  0  0  0  0  0  0  0  0  0  0
  156.2655  128.9052  154.9825 H   0  0  0  0  0  0  0  0  0  0  0  0
  145.3766  133.8138  150.8966 H   0  0  0  0  0  0  0  0  0  0  0  0
  143.0089  131.8019  150.7540 H   0  0  0  0  0  0  0  0  0  0  0  0
  142.9836  133.5784  150.2770 H   0  0  0  0  0  0  0  0  0  0  0  0
  144.8024  133.1472  148.5866 H   0  0  0  0  0  0  0  0  0  0  0  0
  144.8267  131.3716  149.0669 H   0  0  0  0  0  0  0  0  0  0  0  0
  1  2  1  0  0  0  0
  1 26  1  0  0  0  0
  1 27  1  0  0  0  0
  1 28  1  0  0  0  0
  2  3  1  0  0  0  0
  2 23  1  0  0  0  0
  2 29  1  0  0  0  0
  3  4  1  0  0  0  0
  3 30  1  0  0  0  0
  4  5  2  0  0  0  0
  4  6  1  0  0  0  0
  6  7  1  0  0  0  0
  6 31  1  0  0  0  0
  6 32  1  0  0  0  0
  7 21  1  0  0  0  0
  7  8  1  0  0  0  0
  8  9  2  0  0  0  0
  8 33  1  0  0  0  0
  9 10  1  0  0  0  0
  9 34  1  0  0  0  0
 10 11  2  0  0  0  0
 10 35  1  0  0  0  0
 11 12  1  0  0  0  0
 11 21  1  0  0  0  0
 12 13  2  0  0  0  0
 12 14  1  0  0  0  0
 14 15  1  0  0  0  0
 14 16  1  0  0  0  0
 15 36  1  0  0  0  0
 15 37  1  0  0  0  0
 15 38  1  0  0  0  0
 16 17  1  0  0  0  0
 16 18  1  0  0  0  0
 16 39  1  0  0  0  0
 17 40  1  0  0  0  0
 17 41  1  0  0  0  0
 17 42  1  0  0  0  0
 18 20  1  0  0  0  0
 18 19  1  0  0  0  0
 18 43  1  0  0  0  0
 19 20  1  0  0  0  0
 19 44  1  0  0  0  0
 19 45  1  0  0  0  0
 20 46  1  0  0  0  0
 20 47  1  0  0  0  0
 21 22  2  0  0  0  0
 23 25  1  0  0  0  0
 23 24  1  0  0  0  0
 23 48  1  0  0  0  0
 24 25  1  0  0  0  0
 24 49  1  0  0  0  0
 24 50  1  0  0  0  0
 25 51  1  0  0  0  0
 25 52  1  0  0  0  0
M  END
> <s_m_source_file>
AV-unprocessed.smi

> <i_m_source_file_index>
2862

> <i_lp_mmshare_version>
43012

> <i_f3d_flags>
0

> <s_epik_input>
W0NIMl0xW0NIMl1bQ0hdMVtDQEhdKFtDSDNdKVtOSF1DKD1PKVtDSDJdbjJbY0hdW2NIXVtjSF1jKGMyPU8pQyg9TylOKFtDSDNdKVtDQEhdKFtDSDNdKVtDSF0zW0NIMl1bQ0gyXTM=

> <s_epik_cmdline>
J2VwaWtfcHl0aG9uJywgJy1waCcsICc3LjAnLCAnLXRuJywgJzgnLCAnLW1hJywgJzIwMCcsICctbWV0YWxfYmluZGluZycsICctaW1hZScsICc8aW5maWxlLm1hZT4nLCAnLW9tYWUnLCAnPG91dGZpbGUubWFlPic=

> <r_lp_tautomer_probability>
1

> <r_epik_Ionization_Penalty>
4.00841e-08

> <r_epik_Ionization_Penalty_Charging>
2.07773e-08

> <r_epik_Ionization_Penalty_Neutral>
1.93069e-08

> <r_epik_State_Penalty>
-0

> <r_epik_Charging_Adjusted_Penalty>
2.07773e-08

> <i_epik_Tot_Q>
0

> <i_epik_Tot_abs_Q>
0

> <r_epik_Metal_State_Penalty>
-0

> <b_epik_Metal_Only>
0

> <s_lp_Force_Field>
OPLS_2005

> <r_lp_Energy>
60.0482

> <b_lp_Chiralities_Consistent>
1

> <s_lp_Variant>
AV-unprocessed.smi:2862-2

> <Gold.Version>
5.8.1

> <Gold.Id.Protein>
6NUR|6NUR_protein|mol2

> <Gold.PLP.Fitness>
51.1743

> <Gold.PLP.PLP>
-44.7381

> <Gold.PLP.part.hbond>
-2.0000

> <Gold.PLP.part.metal>
0.0000

> <Gold.PLP.part.buried>
-5.3801

> <Gold.PLP.part.nonpolar>
-36.9363

> <Gold.PLP.part.repulsive>
0.0972

> <Gold.PLP.ligand.clash>
0.0000

> <Gold.PLP.ligand.torsion>
3.4010

> <Gold.PLP.Chemscore.Hbond>
2.0000

> <Gold.PLP.Chemscore.CHOScore>
0.9628

> <Gold.PLP.Chemscore.Metal>
0.0000

> <Gold.Chemscore.Hbonds>
donor molecule, donor type, donor heavy atom, donor atom, acceptor molecule, acceptor atom, score
      L1  H     3    30       P1 10747  1.00
      P1  H  6896  6908       L1    13  1.00
      L1  C     8    33       P1 10747  0.88

> <Gold.PLP.Chemscore.Internal.Correction>
4.3499

> <Gold.Rescore>
     Score         DG    S(hbond)    S(metal)    S(lipo)     H(rot)  DE(clash)    DE(int)     intcor
     13.94     -20.27       2.00        0.00     107.29       1.73       0.10       6.23       ----

> <Gold.Chemscore.Fitness>
13.9396

> <Gold.Chemscore.DG>
-20.2677

> <Gold.Chemscore.ZeroCoef>
-5.4800

> <Gold.Chemscore.Hbond>
1.9988

> <Gold.Chemscore.Metal>
0.0000

> <Gold.Chemscore.Lipo>
107.2881

> <Gold.Chemscore.Internal_Hbond>
0.0000

> <Gold.Chemscore.DEClash>
0.0998

> <Gold.Chemscore.DEInternal>
6.2283

> <Gold.Chemscore.Rot>
1.7348

> <Gold.Chemscore.Internal.Correction>
   9.000000E+99

> <Gold.Chemscore.Hbonds>
donor molecule, donor type, donor heavy atom, donor atom, acceptor molecule, acceptor atom, score
      L1  H     3    30       P1 10747  0.94
      P1  H  6896  6908       L1    13  0.93

> <Gold.Chemscore.Hbond.Weighted>
-6.6761

> <Gold.Chemscore.Metal.Weighted>
-0.0000

> <Gold.Chemscore.Lipo.Weighted>
-12.5527

> <Gold.Chemscore.Internal_Hbond.Weighted>
0.0000

> <Gold.Chemscore.DEClash.Weighted>
0.0998

> <Gold.Chemscore.DEInternal.Weighted>
6.2283

> <Gold.Chemscore.Rot.Weighted>
4.4412

> <Gold.Chemscore.Internal.Correction.Weighted>
   9.000000E+99

> <Gold.Protein.RotatedTorsions>
[ 6907 6896 6895 6894 ] final   64.09 input  -60.11 | X-H torsion
[ 7974 7965 7964 7962 ] final -171.94 input  175.53 | X-H torsion
[ 8008 7997 7996 7995 ] final   69.46 input   59.86 | X-H torsion
[ 10167 10162 10161 10158 ] final  -89.37 input  -65.29 | X-H torsion
[ 10718 10713 10712 10709 ] final  -80.63 input   66.30 | X-H torsion
[ 10763 10752 10751 10750 ] final  119.79 input  -60.55 | X-H torsion
[ 11005 11000 10999 10996 ] final -112.25 input  -57.11 | X-H torsion

> <Gold.Protein.ActiveResidues>
 VAL166  LYS551  ARG553  GLY616  TRP617  ASP618  TYR619  PRO620  LYS621  CYS622 
 ASP623  PHE694  ASN695  SER759  ASP760  ASP761  ALA762  ILE779  LEU786  VAL792 
 PHE793  MET794  SER795  GLU796  ALA797  LYS798  CYS799  TRP800  GLU811  SER814 

> <Gold.Protein.RotatedAtoms>
  152.4305  134.5787  159.9941 H   0  0  0  0  0  0  0  0  0  0  0  0  # atno 6907 bound_to 6896
  151.5912  133.3360  159.3036 H   0  0  0  0  0  0  0  0  0  0  0  0  # atno 6908 bound_to 6896
  150.8197  134.7434  159.6826 H   0  0  0  0  0  0  0  0  0  0  0  0  # atno 6909 bound_to 6896
  144.7151  140.1847  143.6354 H   0  0  0  0  0  0  0  0  0  0  0  0  # atno 7974 bound_to 7965
  155.7239  140.3493  155.5028 H   0  0  0  0  0  0  0  0  0  0  0  0  # atno 8008 bound_to 7997
  155.9244  140.1073  157.1203 H   0  0  0  0  0  0  0  0  0  0  0  0  # atno 8009 bound_to 7997
  154.4075  140.1243  156.4708 H   0  0  0  0  0  0  0  0  0  0  0  0  # atno 8010 bound_to 7997
  140.3655  143.2820  151.9564 H   0  0  0  0  0  0  0  0  0  0  0  0  # atno 10167 bound_to 10162
  156.0066  130.4580  150.3829 H   0  0  0  0  0  0  0  0  0  0  0  0  # atno 10718 bound_to 10713
  153.5885  135.3470  155.2902 H   0  0  0  0  0  0  0  0  0  0  0  0  # atno 10763 bound_to 10752
  154.8656  135.4199  154.2542 H   0  0  0  0  0  0  0  0  0  0  0  0  # atno 10764 bound_to 10752
  153.3344  135.7046  153.6991 H   0  0  0  0  0  0  0  0  0  0  0  0  # atno 10765 bound_to 10752
  141.0686  133.9417  157.2529 H   0  0  0  0  0  0  0  0  0  0  0  0  # atno 11005 bound_to 11000
  145.8824  139.2330  143.1598 LP  0  0  0  0  0  0  0  0  0  0  0  0  # atno 17320 bound_to 7965
  145.9982  140.8543  143.0032 LP  0  0  0  0  0  0  0  0  0  0  0  0  # atno 17321 bound_to 7965
  139.4809  144.5955  151.7698 LP  0  0  0  0  0  0  0  0  0  0  0  0  # atno 17342 bound_to 10162
  140.5085  144.1061  150.5989 LP  0  0  0  0  0  0  0  0  0  0  0  0  # atno 17343 bound_to 10162
  157.1908  131.0415  151.2701 LP  0  0  0  0  0  0  0  0  0  0  0  0  # atno 17370 bound_to 10713
  157.4063  130.7361  149.6805 LP  0  0  0  0  0  0  0  0  0  0  0  0  # atno 17371 bound_to 10713
  139.9501  135.0177  156.8968 LP  0  0  0  0  0  0  0  0  0  0  0  0  # atno 17394 bound_to 11000
  140.5721  134.0433  155.7434 LP  0  0  0  0  0  0  0  0  0  0  0  0  # atno 17395 bound_to 11000

$$$$
