AV-unprocessed.smi:1643|AV-procd|sdf|6573|dock2
  -GOLD-   22720 7253D 1   1.00000     0.00000
 Structure written by MMmdl.
 54 56  0  0  0  0  0  0  0  0  2 V2000
  142.9656  133.0588  149.2282 C   0  0  0  0  0  0  0  0  0  0  0  0
  144.3210  132.8466  149.9093 C   0  0  0  0  0  0  0  0  0  0  0  0
  145.1019  132.0406  149.4032 O   0  0  0  0  0  0  0  0  0  0  0  0
  144.6142  133.5494  151.0313 N   0  0  0  0  0  0  0  0  0  0  0  0
  143.6316  134.4691  151.6256 C   0  0  0  0  0  0  0  0  0  0  0  0
  143.9178  135.9280  151.2269 C   0  0  0  0  0  0  0  0  0  0  0  0
  145.4163  136.2704  151.0864 C   0  0  0  0  0  0  0  0  0  0  0  0
  146.2256  135.9778  152.3018 N   0  3  1  0  0  0  0  0  0  0  0  0
  145.9748  136.9471  153.4045 C   0  0  0  0  0  0  0  0  0  0  0  0
  146.5955  138.3405  153.1427 C   0  0  2  0  0  0  0  0  0  0  0  0
  147.9224  138.1987  152.6780 O   0  0  0  0  0  0  0  0  0  0  0  0
  146.6610  139.2400  154.3951 C   0  0  0  0  0  0  0  0  0  0  0  0
  147.8283  140.1033  154.4130 N   0  0  0  0  0  0  0  0  0  0  0  0
  148.0384  141.2034  153.6640 C   0  0  0  0  0  0  0  0  0  0  0  0
  149.1892  141.8465  153.8363 N   0  0  0  0  0  0  0  0  0  0  0  0
  149.7895  141.0850  154.8238 C   0  0  0  0  0  0  0  0  0  0  0  0
  151.0383  141.2350  155.4650 C   0  0  0  0  0  0  0  0  0  0  0  0
  151.4536  140.3265  156.4643 C   0  0  0  0  0  0  0  0  0  0  0  0
  152.8022  140.5295  157.1325 C   0  0  0  0  0  0  0  0  0  0  0  0
  150.6143  139.2451  156.8348 C   0  0  0  0  0  0  0  0  0  0  0  0
  151.0381  138.2592  157.9090 C   0  0  0  0  0  0  0  0  0  0  0  0
  149.3646  139.0787  156.2021 C   0  0  0  0  0  0  0  0  0  0  0  0
  148.9625  139.9896  155.2094 C   0  0  0  0  0  0  0  0  0  0  0  0
  146.2429  134.5524  152.7577 C   0  0  0  0  0  0  0  0  0  0  0  0
  145.9397  133.4735  151.6826 C   0  0  0  0  0  0  0  0  0  0  0  0
  142.7818  134.1161  149.0362 H   0  0  0  0  0  0  0  0  0  0  0  0
  142.1570  132.6640  149.8434 H   0  0  0  0  0  0  0  0  0  0  0  0
  142.9357  132.5401  148.2693 H   0  0  0  0  0  0  0  0  0  0  0  0
  142.6084  134.2148  151.3440 H   0  0  0  0  0  0  0  0  0  0  0  0
  143.6248  134.3609  152.7090 H   0  0  0  0  0  0  0  0  0  0  0  0
  143.4387  136.1259  150.2675 H   0  0  0  0  0  0  0  0  0  0  0  0
  143.4399  136.5994  151.9406 H   0  0  0  0  0  0  0  0  0  0  0  0
  145.8488  135.7423  150.2361 H   0  0  0  0  0  0  0  0  0  0  0  0
  145.5214  137.3242  150.8254 H   0  0  0  0  0  0  0  0  0  0  0  0
  144.8954  137.0669  153.4900 H   0  0  0  0  0  0  0  0  0  0  0  0
  146.2999  136.5399  154.3631 H   0  0  0  0  0  0  0  0  0  0  0  0
  146.0196  138.8532  152.3712 H   0  0  0  0  0  0  0  0  0  0  0  0
  147.9340  137.5577  151.9831 H   0  0  0  0  0  0  0  0  0  0  0  0
  145.7674  139.8626  154.4632 H   0  0  0  0  0  0  0  0  0  0  0  0
  146.6840  138.6282  155.2984 H   0  0  0  0  0  0  0  0  0  0  0  0
  147.3101  141.5461  152.9433 H   0  0  0  0  0  0  0  0  0  0  0  0
  151.6770  142.0597  155.1838 H   0  0  0  0  0  0  0  0  0  0  0  0
  153.4352  139.6528  156.9936 H   0  0  0  0  0  0  0  0  0  0  0  0
  152.6753  140.7000  158.2020 H   0  0  0  0  0  0  0  0  0  0  0  0
  153.3272  141.3903  156.7166 H   0  0  0  0  0  0  0  0  0  0  0  0
  150.2771  137.4952  158.0705 H   0  0  0  0  0  0  0  0  0  0  0  0
  151.2022  138.7736  158.8561 H   0  0  0  0  0  0  0  0  0  0  0  0
  151.9617  137.7555  157.6231 H   0  0  0  0  0  0  0  0  0  0  0  0
  148.7152  138.2607  156.4768 H   0  0  0  0  0  0  0  0  0  0  0  0
  147.2393  134.3579  153.1549 H   0  0  0  0  0  0  0  0  0  0  0  0
  145.5755  134.4192  153.6089 H   0  0  0  0  0  0  0  0  0  0  0  0
  146.0342  132.4899  152.1449 H   0  0  0  0  0  0  0  0  0  0  0  0
  146.7245  133.5338  150.9274 H   0  0  0  0  0  0  0  0  0  0  0  0
  147.1719  136.1653  152.0019 H   0  0  0  0  0  0  0  0  0  0  0  0
  1  2  1  0  0  0  0
  1 26  1  0  0  0  0
  1 27  1  0  0  0  0
  1 28  1  0  0  0  0
  2  3  2  0  0  0  0
  2  4  1  0  0  0  0
  4 25  1  0  0  0  0
  4  5  1  0  0  0  0
  5  6  1  0  0  0  0
  5 29  1  0  0  0  0
  5 30  1  0  0  0  0
  6  7  1  0  0  0  0
  6 31  1  0  0  0  0
  6 32  1  0  0  0  0
  7  8  1  0  0  0  0
  7 33  1  0  0  0  0
  7 34  1  0  0  0  0
  8  9  1  0  0  0  0
  8 24  1  0  0  0  0
  8 54  1  0  0  0  0
  9 10  1  0  0  0  0
  9 35  1  0  0  0  0
  9 36  1  0  0  0  0
 10 11  1  0  0  0  0
 10 12  1  0  0  0  0
 10 37  1  0  0  0  0
 11 38  1  0  0  0  0
 12 13  1  0  0  0  0
 12 39  1  0  0  0  0
 12 40  1  0  0  0  0
 13 23  1  0  0  0  0
 13 14  1  0  0  0  0
 14 15  2  0  0  0  0
 14 41  1  0  0  0  0
 15 16  1  0  0  0  0
 16 23  2  0  0  0  0
 16 17  1  0  0  0  0
 17 18  2  0  0  0  0
 17 42  1  0  0  0  0
 18 19  1  0  0  0  0
 18 20  1  0  0  0  0
 19 43  1  0  0  0  0
 19 44  1  0  0  0  0
 19 45  1  0  0  0  0
 20 21  1  0  0  0  0
 20 22  2  0  0  0  0
 21 46  1  0  0  0  0
 21 47  1  0  0  0  0
 21 48  1  0  0  0  0
 22 23  1  0  0  0  0
 22 49  1  0  0  0  0
 24 25  1  0  0  0  0
 24 50  1  0  0  0  0
 24 51  1  0  0  0  0
 25 52  1  0  0  0  0
 25 53  1  0  0  0  0
M  CHG  1   8   1
M  END
> <s_m_source_file>
AV-unprocessed.smi

> <i_m_source_file_index>
1643

> <i_lp_mmshare_version>
43012

> <i_f3d_flags>
0

> <s_epik_input>
W0NIM11DKD1PKU4xW0NIMl1bQ0gyXVtDSDJdTihbQ0gyXVtDSDJdMSlbQ0gyXVtDQEhdKFtPSF0pW0NIMl1uKFtjSF1uMiljKGMyMylbY0hdYyhbQ0gzXSljKFtjSF0zKVtDSDNd

> <s_epik_cmdline>
J2VwaWtfcHl0aG9uJywgJy1waCcsICc3LjAnLCAnLXRuJywgJzgnLCAnLW1hJywgJzIwMCcsICctbWV0YWxfYmluZGluZycsICctaW1hZScsICc8aW5maWxlLm1hZT4nLCAnLW9tYWUnLCAnPG91dGZpbGUubWFlPic=

> <r_epik_Ionization_Penalty>
0.189467

> <r_epik_Ionization_Penalty_Charging>
0.101761

> <r_epik_Ionization_Penalty_Neutral>
0.0877056

> <r_epik_State_Penalty>
0.170758

> <r_epik_Charging_Adjusted_Penalty>
0.272519

> <i_epik_Tot_Q>
1

> <i_epik_Tot_abs_Q>
1

> <r_epik_Metal_State_Penalty>
0.0948013

> <b_epik_Metal_Only>
0

> <s_lp_Force_Field>
OPLS_2005

> <r_lp_Energy>
50.1894

> <b_lp_Chiralities_Consistent>
1

> <s_lp_Variant>
AV-unprocessed.smi:1643-2

> <Gold.Version>
5.8.1

> <Gold.Id.Protein>
6NUR|6NUR_protein|mol2

> <Gold.PLP.Fitness>
50.7792

> <Gold.PLP.PLP>
-42.3093

> <Gold.PLP.part.hbond>
-3.7411

> <Gold.PLP.part.metal>
0.0000

> <Gold.PLP.part.buried>
-7.7659

> <Gold.PLP.part.nonpolar>
-32.4100

> <Gold.PLP.part.repulsive>
0.3979

> <Gold.PLP.ligand.clash>
0.0000

> <Gold.PLP.ligand.torsion>
0.9340

> <Gold.PLP.Chemscore.Hbond>
3.4080

> <Gold.PLP.Chemscore.CHOScore>
0.0000

> <Gold.PLP.Chemscore.Metal>
0.0000

> <Gold.Chemscore.Hbonds>
donor molecule, donor type, donor heavy atom, donor atom, acceptor molecule, acceptor atom, score
      L1  H     8    54       P1  7948  2.00
      L1  H    11    38       P1  7948  0.56
      P1  H  8011  8017       L1    15  0.54

> <Gold.PLP.Chemscore.Internal.Correction>
0.1140

> <Gold.Rescore>
     Score         DG    S(hbond)    S(metal)    S(lipo)     H(rot)  DE(clash)    DE(int)     intcor
     16.42     -17.86       2.18        0.00      90.01       2.12       0.52       0.92       ----

> <Gold.Chemscore.Fitness>
16.4157

> <Gold.Chemscore.DG>
-17.8579

> <Gold.Chemscore.ZeroCoef>
-5.4800

> <Gold.Chemscore.Hbond>
2.1762

> <Gold.Chemscore.Metal>
0.0000

> <Gold.Chemscore.Lipo>
90.0066

> <Gold.Chemscore.Internal_Hbond>
0.0000

> <Gold.Chemscore.DEClash>
0.5188

> <Gold.Chemscore.DEInternal>
0.9234

> <Gold.Chemscore.Rot>
2.1178

> <Gold.Chemscore.Internal.Correction>
   9.000000E+99

> <Gold.Chemscore.Hbonds>
donor molecule, donor type, donor heavy atom, donor atom, acceptor molecule, acceptor atom, score
      L1  H     8    54       P1  7948  1.00
      L1  H    11    38       P1  7948  0.56
      P1  H  8011  8017       L1    15  0.42

> <Gold.Chemscore.Hbond.Weighted>
-7.2686

> <Gold.Chemscore.Metal.Weighted>
-0.0000

> <Gold.Chemscore.Lipo.Weighted>
-10.5308

> <Gold.Chemscore.Internal_Hbond.Weighted>
0.0000

> <Gold.Chemscore.DEClash.Weighted>
0.5188

> <Gold.Chemscore.DEInternal.Weighted>
0.9234

> <Gold.Chemscore.Rot.Weighted>
5.4215

> <Gold.Chemscore.Internal.Correction.Weighted>
   9.000000E+99

> <Gold.Protein.RotatedTorsions>
[ 6907 6896 6895 6894 ] final   15.22 input  -60.11 | X-H torsion
[ 7974 7965 7964 7962 ] final   79.87 input  175.53 | X-H torsion
[ 8008 7997 7996 7995 ] final   35.34 input   59.86 | X-H torsion
[ 10167 10162 10161 10158 ] final    3.62 input  -65.29 | X-H torsion
[ 10718 10713 10712 10709 ] final  169.89 input   66.30 | X-H torsion
[ 10763 10752 10751 10750 ] final   -9.38 input  -60.55 | X-H torsion
[ 11005 11000 10999 10996 ] final   92.68 input  -57.11 | X-H torsion

> <Gold.Protein.ActiveResidues>
 VAL166  LYS551  ARG553  GLY616  TRP617  ASP618  TYR619  PRO620  LYS621  CYS622 
 ASP623  PHE694  ASN695  SER759  ASP760  ASP761  ALA762  ILE779  LEU786  VAL792 
 PHE793  MET794  SER795  GLU796  ALA797  LYS798  CYS799  TRP800  GLU811  SER814 

> <Gold.Protein.RotatedAtoms>
  151.8146  135.0670  160.0417 H   0  0  0  0  0  0  0  0  0  0  0  0  # atno 6907 bound_to 6896
  152.2995  133.5637  159.5618 H   0  0  0  0  0  0  0  0  0  0  0  0  # atno 6908 bound_to 6896
  150.7267  134.0228  159.3749 H   0  0  0  0  0  0  0  0  0  0  0  0  # atno 6909 bound_to 6896
  145.6586  139.2465  143.1936 H   0  0  0  0  0  0  0  0  0  0  0  0  # atno 7974 bound_to 7965
  155.1695  140.3290  155.4395 H   0  0  0  0  0  0  0  0  0  0  0  0  # atno 8008 bound_to 7997
  156.2515  140.1946  156.6749 H   0  0  0  0  0  0  0  0  0  0  0  0  # atno 8009 bound_to 7997
  154.6347  140.0578  156.9761 H   0  0  0  0  0  0  0  0  0  0  0  0  # atno 8010 bound_to 7997
  140.6576  143.7386  150.7681 H   0  0  0  0  0  0  0  0  0  0  0  0  # atno 10167 bound_to 10162
  157.0160  131.0218  151.2789 H   0  0  0  0  0  0  0  0  0  0  0  0  # atno 10718 bound_to 10713
  153.4539  135.7015  153.6092 H   0  0  0  0  0  0  0  0  0  0  0  0  # atno 10763 bound_to 10752
  153.4415  135.3779  155.2231 H   0  0  0  0  0  0  0  0  0  0  0  0  # atno 10764 bound_to 10752
  154.8728  135.3975  154.3955 H   0  0  0  0  0  0  0  0  0  0  0  0  # atno 10765 bound_to 10752
  139.8820  134.8746  156.3607 H   0  0  0  0  0  0  0  0  0  0  0  0  # atno 11005 bound_to 11000
  146.1144  140.7388  142.9487 LP  0  0  0  0  0  0  0  0  0  0  0  0  # atno 17320 bound_to 7965
  144.7097  140.3991  143.7090 LP  0  0  0  0  0  0  0  0  0  0  0  0  # atno 17321 bound_to 7965
  140.1049  143.4753  152.2404 LP  0  0  0  0  0  0  0  0  0  0  0  0  # atno 17342 bound_to 10162
  139.5802  144.7507  151.3659 LP  0  0  0  0  0  0  0  0  0  0  0  0  # atno 17343 bound_to 10162
  157.5285  130.8043  149.7889 LP  0  0  0  0  0  0  0  0  0  0  0  0  # atno 17370 bound_to 10713
  156.0119  130.3830  150.2237 LP  0  0  0  0  0  0  0  0  0  0  0  0  # atno 17371 bound_to 10713
  140.9531  133.7438  156.0299 LP  0  0  0  0  0  0  0  0  0  0  0  0  # atno 17394 bound_to 11000
  140.8081  134.3431  157.5420 LP  0  0  0  0  0  0  0  0  0  0  0  0  # atno 17395 bound_to 11000

$$$$
