AV-unprocessed.smi:1357|AV-procd|sdf|5548|dock2
  -GOLD-   22720 5143D 1   1.00000     0.00000
 Structure written by MMmdl.
 43 44  0  0  0  0  0  0  0  0  1 V2000
  144.0587  136.7499  154.5933 C   0  0  0  0  0  0  0  0  0  0  0  0
  144.0056  136.4819  153.0747 C   0  0  0  0  0  0  0  0  0  0  0  0
  143.8558  134.9655  152.8370 C   0  0  0  0  0  0  0  0  0  0  0  0
  142.7753  137.2089  152.4821 C   0  0  0  0  0  0  0  0  0  0  0  0
  145.3374  136.9543  152.4419 C   0  0  0  0  0  0  0  0  0  0  0  0
  146.0532  136.1410  151.8552 O   0  0  0  0  0  0  0  0  0  0  0  0
  145.6750  138.2501  152.5582 N   0  0  0  0  0  0  0  0  0  0  0  0
  146.9123  138.8460  152.0699 C   0  0  0  0  0  0  0  0  0  0  0  0
  147.5675  139.7343  153.1105 C   0  0  0  0  0  0  0  0  0  0  0  0
  147.1172  141.0533  153.3196 C   0  0  0  0  0  0  0  0  0  0  0  0
  147.7762  141.8418  154.2821 C   0  0  0  0  0  0  0  0  0  0  0  0
  148.8185  141.3974  155.0161 N   0  0  0  0  0  0  0  0  0  0  0  0
  149.2519  140.1297  154.8140 C   0  0  0  0  0  0  0  0  0  0  0  0
  150.3273  139.6610  155.5822 N   0  0  0  0  0  0  0  0  0  0  0  0
  150.8653  140.6727  156.4829 C   0  0  0  0  0  0  0  0  0  0  0  0
  151.9485  140.0544  157.3839 C   0  0  0  0  0  0  0  0  0  0  0  0
  152.9571  139.4528  156.5770 O   0  0  0  0  0  0  0  0  0  0  0  0
  152.4345  138.4141  155.7532 C   0  0  0  0  0  0  0  0  0  0  0  0
  151.3673  138.9935  154.8085 C   0  0  0  0  0  0  0  0  0  0  0  0
  148.6567  139.2641  153.8722 C   0  0  0  0  0  0  0  0  0  0  0  0
  143.1387  136.4292  155.0831 H   0  0  0  0  0  0  0  0  0  0  0  0
  144.1878  137.8119  154.8068 H   0  0  0  0  0  0  0  0  0  0  0  0
  144.8802  136.2156  155.0728 H   0  0  0  0  0  0  0  0  0  0  0  0
  144.6852  134.4021  153.2670 H   0  0  0  0  0  0  0  0  0  0  0  0
  143.8149  134.7307  151.7726 H   0  0  0  0  0  0  0  0  0  0  0  0
  142.9395  134.5845  153.2897 H   0  0  0  0  0  0  0  0  0  0  0  0
  141.8532  136.8604  152.9484 H   0  0  0  0  0  0  0  0  0  0  0  0
  142.6764  137.0314  151.4102 H   0  0  0  0  0  0  0  0  0  0  0  0
  142.8263  138.2871  152.6416 H   0  0  0  0  0  0  0  0  0  0  0  0
  145.0393  138.8610  153.0504 H   0  0  0  0  0  0  0  0  0  0  0  0
  147.6126  138.0755  151.7430 H   0  0  0  0  0  0  0  0  0  0  0  0
  146.6807  139.4409  151.1859 H   0  0  0  0  0  0  0  0  0  0  0  0
  146.2910  141.4558  152.7519 H   0  0  0  0  0  0  0  0  0  0  0  0
  147.4589  142.8574  154.4661 H   0  0  0  0  0  0  0  0  0  0  0  0
  151.2904  141.4927  155.9021 H   0  0  0  0  0  0  0  0  0  0  0  0
  150.0636  141.0904  157.0932 H   0  0  0  0  0  0  0  0  0  0  0  0
  152.4037  140.8246  158.0063 H   0  0  0  0  0  0  0  0  0  0  0  0
  151.5175  139.3127  158.0583 H   0  0  0  0  0  0  0  0  0  0  0  0
  153.2484  137.9742  155.1767 H   0  0  0  0  0  0  0  0  0  0  0  0
  152.0166  137.6193  156.3733 H   0  0  0  0  0  0  0  0  0  0  0  0
  150.9263  138.1973  154.2075 H   0  0  0  0  0  0  0  0  0  0  0  0
  151.8309  139.7010  154.1195 H   0  0  0  0  0  0  0  0  0  0  0  0
  149.0304  138.2596  153.7352 H   0  0  0  0  0  0  0  0  0  0  0  0
  1  2  1  0  0  0  0
  1 21  1  0  0  0  0
  1 22  1  0  0  0  0
  1 23  1  0  0  0  0
  2  3  1  0  0  0  0
  2  4  1  0  0  0  0
  2  5  1  0  0  0  0
  3 24  1  0  0  0  0
  3 25  1  0  0  0  0
  3 26  1  0  0  0  0
  4 27  1  0  0  0  0
  4 28  1  0  0  0  0
  4 29  1  0  0  0  0
  5  6  2  0  0  0  0
  5  7  1  0  0  0  0
  7  8  1  0  0  0  0
  7 30  1  0  0  0  0
  8  9  1  0  0  0  0
  8 31  1  0  0  0  0
  8 32  1  0  0  0  0
  9 20  1  0  0  0  0
  9 10  2  0  0  0  0
 10 11  1  0  0  0  0
 10 33  1  0  0  0  0
 11 12  2  0  0  0  0
 11 34  1  0  0  0  0
 12 13  1  0  0  0  0
 13 14  1  0  0  0  0
 13 20  2  0  0  0  0
 14 19  1  0  0  0  0
 14 15  1  0  0  0  0
 15 16  1  0  0  0  0
 15 35  1  0  0  0  0
 15 36  1  0  0  0  0
 16 17  1  0  0  0  0
 16 37  1  0  0  0  0
 16 38  1  0  0  0  0
 17 18  1  0  0  0  0
 18 19  1  0  0  0  0
 18 39  1  0  0  0  0
 18 40  1  0  0  0  0
 19 41  1  0  0  0  0
 19 42  1  0  0  0  0
 20 43  1  0  0  0  0
M  END
> <s_m_source_file>
AV-unprocessed.smi

> <i_m_source_file_index>
1357

> <i_lp_mmshare_version>
43012

> <i_f3d_flags>
0

> <s_epik_input>
W0NIM11DKFtDSDNdKShbQ0gzXSlDKD1PKVtOSF1bQ0gyXWMxW2NIXVtjSF1uYyhbY0hdMSlOMltDSDJdW0NIMl1PW0NIMl1bQ0gyXTI=

> <s_epik_cmdline>
J2VwaWtfcHl0aG9uJywgJy1waCcsICc3LjAnLCAnLXRuJywgJzgnLCAnLW1hJywgJzIwMCcsICctbWV0YWxfYmluZGluZycsICctaW1hZScsICc8aW5maWxlLm1hZT4nLCAnLW9tYWUnLCAnPG91dGZpbGUubWFlPic=

> <r_lp_tautomer_probability>
1

> <r_epik_Ionization_Penalty>
0.00576178

> <r_epik_Ionization_Penalty_Charging>
0

> <r_epik_Ionization_Penalty_Neutral>
0.00576178

> <r_epik_State_Penalty>
0.00422935

> <r_epik_Charging_Adjusted_Penalty>
0.00422935

> <i_epik_Tot_Q>
0

> <i_epik_Tot_abs_Q>
0

> <r_epik_Metal_State_Penalty>
-0

> <b_epik_Metal_Only>
0

> <s_lp_Force_Field>
OPLS_2005

> <r_lp_Energy>
22.6538

> <b_lp_Chiralities_Consistent>
1

> <s_lp_Variant>
AV-unprocessed.smi:1357-1

> <Gold.Version>
5.8.1

> <Gold.Id.Protein>
6NUR|6NUR_protein|mol2

> <Gold.PLP.Fitness>
40.6294

> <Gold.PLP.PLP>
-33.7919

> <Gold.PLP.part.hbond>
-2.0000

> <Gold.PLP.part.metal>
0.0000

> <Gold.PLP.part.buried>
-0.9194

> <Gold.PLP.part.nonpolar>
-30.5956

> <Gold.PLP.part.repulsive>
0.3508

> <Gold.PLP.ligand.clash>
0.0000

> <Gold.PLP.ligand.torsion>
0.4912

> <Gold.PLP.Chemscore.Hbond>
1.5760

> <Gold.PLP.Chemscore.CHOScore>
0.9943

> <Gold.PLP.Chemscore.Metal>
0.0000

> <Gold.Chemscore.Hbonds>
donor molecule, donor type, donor heavy atom, donor atom, acceptor molecule, acceptor atom, score
      L1  H     7    30       P1 10175  0.45
      P1  H  7997  8010       L1    17  1.00
      L1  C    11    34       P1  8028  0.80

> <Gold.PLP.Chemscore.Internal.Correction>
0.1088

> <Gold.Rescore>
     Score         DG    S(hbond)    S(metal)    S(lipo)     H(rot)  DE(clash)    DE(int)     intcor
     12.76     -13.43       0.98        0.00      73.00       1.52       0.06       0.61       ----

> <Gold.Chemscore.Fitness>
12.7577

> <Gold.Chemscore.DG>
-13.4259

> <Gold.Chemscore.ZeroCoef>
-5.4800

> <Gold.Chemscore.Hbond>
0.9849

> <Gold.Chemscore.Metal>
0.0000

> <Gold.Chemscore.Lipo>
72.9975

> <Gold.Chemscore.Internal_Hbond>
0.0000

> <Gold.Chemscore.DEClash>
0.0626

> <Gold.Chemscore.DEInternal>
0.6055

> <Gold.Chemscore.Rot>
1.5173

> <Gold.Chemscore.Internal.Correction>
   9.000000E+99

> <Gold.Chemscore.Hbonds>
donor molecule, donor type, donor heavy atom, donor atom, acceptor molecule, acceptor atom, score
      L1  H     7    30       P1 10175  0.44
      P1  H  7997  8010       L1    17  0.91

> <Gold.Chemscore.Hbond.Weighted>
-3.2895

> <Gold.Chemscore.Metal.Weighted>
-0.0000

> <Gold.Chemscore.Lipo.Weighted>
-8.5407

> <Gold.Chemscore.Internal_Hbond.Weighted>
0.0000

> <Gold.Chemscore.DEClash.Weighted>
0.0626

> <Gold.Chemscore.DEInternal.Weighted>
0.6055

> <Gold.Chemscore.Rot.Weighted>
3.8843

> <Gold.Chemscore.Internal.Correction.Weighted>
   9.000000E+99

> <Gold.Protein.RotatedTorsions>
[ 6907 6896 6895 6894 ] final   92.49 input  -60.11 | X-H torsion
[ 7974 7965 7964 7962 ] final -106.06 input  175.53 | X-H torsion
[ 8008 7997 7996 7995 ] final   57.73 input   59.86 | X-H torsion
[ 10167 10162 10161 10158 ] final  -47.81 input  -65.29 | X-H torsion
[ 10718 10713 10712 10709 ] final  -62.51 input   66.30 | X-H torsion
[ 10763 10752 10751 10750 ] final -138.61 input  -60.55 | X-H torsion
[ 11005 11000 10999 10996 ] final -126.40 input  -57.11 | X-H torsion

> <Gold.Protein.ActiveResidues>
 VAL166  LYS551  ARG553  GLY616  TRP617  ASP618  TYR619  PRO620  LYS621  CYS622 
 ASP623  PHE694  ASN695  SER759  ASP760  ASP761  ALA762  ILE779  LEU786  VAL792 
 PHE793  MET794  SER795  GLU796  ALA797  LYS798  CYS799  TRP800  GLU811  SER814 

> <Gold.Protein.RotatedAtoms>
  152.5452  134.1493  159.8511 H   0  0  0  0  0  0  0  0  0  0  0  0  # atno 6907 bound_to 6896
  151.1522  133.4893  159.2602 H   0  0  0  0  0  0  0  0  0  0  0  0  # atno 6908 bound_to 6896
  151.1460  135.0214  159.8702 H   0  0  0  0  0  0  0  0  0  0  0  0  # atno 6909 bound_to 6896
  145.2226  140.9140  143.3251 H   0  0  0  0  0  0  0  0  0  0  0  0  # atno 7974 bound_to 7965
  155.5385  140.3484  155.4441 H   0  0  0  0  0  0  0  0  0  0  0  0  # atno 8008 bound_to 7997
  156.0668  140.1353  156.9903 H   0  0  0  0  0  0  0  0  0  0  0  0  # atno 8009 bound_to 7997
  154.4507  140.0974  156.6584 H   0  0  0  0  0  0  0  0  0  0  0  0  # atno 8010 bound_to 7997
  140.6759  143.2768  151.3980 H   0  0  0  0  0  0  0  0  0  0  0  0  # atno 10167 bound_to 10162
  156.0850  130.4210  150.1145 H   0  0  0  0  0  0  0  0  0  0  0  0  # atno 10718 bound_to 10713
  154.8632  135.3607  154.5413 H   0  0  0  0  0  0  0  0  0  0  0  0  # atno 10763 bound_to 10752
  153.6035  135.7012  153.5380 H   0  0  0  0  0  0  0  0  0  0  0  0  # atno 10764 bound_to 10752
  153.3271  135.4135  155.1426 H   0  0  0  0  0  0  0  0  0  0  0  0  # atno 10765 bound_to 10752
  140.9684  134.0840  157.3896 H   0  0  0  0  0  0  0  0  0  0  0  0  # atno 11005 bound_to 11000
  144.9751  139.3840  143.6289 LP  0  0  0  0  0  0  0  0  0  0  0  0  # atno 17320 bound_to 7965
  146.3372  139.8867  142.8815 LP  0  0  0  0  0  0  0  0  0  0  0  0  # atno 17321 bound_to 7965
  139.6051  144.1214  152.2240 LP  0  0  0  0  0  0  0  0  0  0  0  0  # atno 17342 bound_to 10162
  140.0611  144.5856  150.7262 LP  0  0  0  0  0  0  0  0  0  0  0  0  # atno 17343 bound_to 10162
  156.9168  130.9670  151.3554 LP  0  0  0  0  0  0  0  0  0  0  0  0  # atno 17370 bound_to 10713
  157.5982  130.8493  149.8761 LP  0  0  0  0  0  0  0  0  0  0  0  0  # atno 17371 bound_to 10713
  139.8903  135.0111  156.6728 LP  0  0  0  0  0  0  0  0  0  0  0  0  # atno 17394 bound_to 11000
  140.7365  133.9014  155.8248 LP  0  0  0  0  0  0  0  0  0  0  0  0  # atno 17395 bound_to 11000

$$$$
