AV-unprocessed.smi:1428|AV-procd|sdf|5816|dock7
  -GOLD-   22720 5473D 1   1.00000     0.00000
 Structure written by MMmdl.
 43 44  0  0  0  0  0  0  0  0  3 V2000
  151.8210  138.6845  154.8665 C   0  0  0  0  0  0  0  0  0  0  0  0
  150.4866  138.4740  154.4171 O   0  0  0  0  0  0  0  0  0  0  0  0
  149.6218  139.5518  154.3901 C   0  0  0  0  0  0  0  0  0  0  0  0
  150.0735  140.7508  154.8363 N   0  0  0  0  0  0  0  0  0  0  0  0
  149.2334  141.8052  154.8082 C   0  0  0  0  0  0  0  0  0  0  0  0
  147.9128  141.7245  154.3313 C   0  0  0  0  0  0  0  0  0  0  0  0
  147.4420  140.4828  153.8664 C   0  0  0  0  0  0  0  0  0  0  0  0
  148.3069  139.3611  153.9030 C   0  0  0  0  0  0  0  0  0  0  0  0
  147.9454  138.0608  153.4501 N   0  0  0  0  0  0  0  0  0  0  0  0
  146.7249  137.5583  153.1963 C   0  0  0  0  0  0  0  0  0  0  0  0
  145.6604  138.1614  153.3285 O   0  0  0  0  0  0  0  0  0  0  0  0
  146.8031  136.2845  152.7851 N   0  0  0  0  0  0  0  0  0  0  0  0
  145.6638  135.4485  152.4173 C   0  0  2  0  0  0  0  0  0  0  0  0
  145.9242  133.9712  152.7654 C   0  0  0  0  0  0  0  0  0  0  0  0
  144.7645  133.0791  152.2934 C   0  0  0  0  0  0  0  0  0  0  0  0
  144.5257  133.2381  150.8340 N   0  3  1  0  0  0  0  0  0  0  0  0
  143.5062  132.2993  150.2997 C   0  0  0  0  0  0  0  0  0  0  0  0
  143.4526  132.3668  148.7696 C   0  0  0  0  0  0  0  0  0  0  0  0
  142.2023  132.5728  148.3082 N   0  5  0  0  0  0  0  0  0  0  0  0
  144.4862  132.2365  148.1183 O   0  0  0  0  0  0  0  0  0  0  0  0
  144.2401  134.6498  150.4738 C   0  0  0  0  0  0  0  0  0  0  0  0
  145.3861  135.5777  150.9110 C   0  0  0  0  0  0  0  0  0  0  0  0
  152.3660  137.7414  154.8319 H   0  0  0  0  0  0  0  0  0  0  0  0
  151.8450  139.0417  155.8970 H   0  0  0  0  0  0  0  0  0  0  0  0
  152.3489  139.3949  154.2284 H   0  0  0  0  0  0  0  0  0  0  0  0
  149.6277  142.7429  155.1712 H   0  0  0  0  0  0  0  0  0  0  0  0
  147.2762  142.5967  154.3184 H   0  0  0  0  0  0  0  0  0  0  0  0
  146.4360  140.4253  153.4828 H   0  0  0  0  0  0  0  0  0  0  0  0
  148.7160  137.4154  153.3537 H   0  0  0  0  0  0  0  0  0  0  0  0
  147.7187  135.8654  152.7113 H   0  0  0  0  0  0  0  0  0  0  0  0
  144.7808  135.7933  152.9594 H   0  0  0  0  0  0  0  0  0  0  0  0
  146.8518  133.6361  152.2983 H   0  0  0  0  0  0  0  0  0  0  0  0
  146.0598  133.8528  153.8410 H   0  0  0  0  0  0  0  0  0  0  0  0
  144.9978  132.0397  152.5263 H   0  0  0  0  0  0  0  0  0  0  0  0
  143.8542  133.3274  152.8413 H   0  0  0  0  0  0  0  0  0  0  0  0
  143.7127  131.2817  150.6350 H   0  0  0  0  0  0  0  0  0  0  0  0
  142.5158  132.5564  150.6795 H   0  0  0  0  0  0  0  0  0  0  0  0
  142.0201  132.4424  147.3058 H   0  0  0  0  0  0  0  0  0  0  0  0
  144.1069  134.7338  149.3945 H   0  0  0  0  0  0  0  0  0  0  0  0
  143.3019  134.9618  150.9353 H   0  0  0  0  0  0  0  0  0  0  0  0
  145.1376  136.6103  150.6623 H   0  0  0  0  0  0  0  0  0  0  0  0
  146.2855  135.3305  150.3446 H   0  0  0  0  0  0  0  0  0  0  0  0
  145.3858  132.9903  150.3642 H   0  0  0  0  0  0  0  0  0  0  0  0
  1  2  1  0  0  0  0
  1 23  1  0  0  0  0
  1 24  1  0  0  0  0
  1 25  1  0  0  0  0
  2  3  1  0  0  0  0
  3  8  1  0  0  0  0
  3  4  2  0  0  0  0
  4  5  1  0  0  0  0
  5  6  2  0  0  0  0
  5 26  1  0  0  0  0
  6  7  1  0  0  0  0
  6 27  1  0  0  0  0
  7  8  2  0  0  0  0
  7 28  1  0  0  0  0
  8  9  1  0  0  0  0
  9 10  1  0  0  0  0
  9 29  1  0  0  0  0
 10 11  2  0  0  0  0
 10 12  1  0  0  0  0
 12 13  1  0  0  0  0
 12 30  1  0  0  0  0
 13 22  1  0  0  0  0
 13 14  1  0  0  0  0
 13 31  1  0  0  0  0
 14 15  1  0  0  0  0
 14 32  1  0  0  0  0
 14 33  1  0  0  0  0
 15 16  1  0  0  0  0
 15 34  1  0  0  0  0
 15 35  1  0  0  0  0
 16 17  1  0  0  0  0
 16 21  1  0  0  0  0
 16 43  1  0  0  0  0
 17 18  1  0  0  0  0
 17 36  1  0  0  0  0
 17 37  1  0  0  0  0
 18 19  1  0  0  0  0
 18 20  2  0  0  0  0
 19 38  1  0  0  0  0
 21 22  1  0  0  0  0
 21 39  1  0  0  0  0
 21 40  1  0  0  0  0
 22 41  1  0  0  0  0
 22 42  1  0  0  0  0
M  CHG  1  16   1
M  CHG  1  19  -1
M  END
> <s_m_source_file>
AV-unprocessed.smi

> <i_m_source_file_index>
1428

> <i_lp_mmshare_version>
43012

> <i_f3d_flags>
0

> <s_epik_input>
W0NIM11PYzFuW2NIXVtjSF1bY0hdYzFbTkhdQyg9TylbTkhdW0NIXTJbQ0gyXVtDSDJdTihbQ0gyXVtDSDJdMilbQ0gyXUMoPU8pW05IMl0=

> <s_epik_cmdline>
J2VwaWtfcHl0aG9uJywgJy1waCcsICc3LjAnLCAnLXRuJywgJzgnLCAnLW1hJywgJzIwMCcsICctbWV0YWxfYmluZGluZycsICctaW1hZScsICc8aW5maWxlLm1hZT4nLCAnLW9tYWUnLCAnPG91dGZpbGUubWFlPic=

> <r_lp_tautomer_probability>
1

> <r_epik_Ionization_Penalty>
5.72888

> <r_epik_Ionization_Penalty_Charging>
5.7288

> <r_epik_Ionization_Penalty_Neutral>
7.84403e-05

> <r_epik_State_Penalty>
6.54882

> <r_epik_Charging_Adjusted_Penalty>
12.2776

> <i_epik_Tot_Q>
0

> <i_epik_Tot_abs_Q>
2

> <r_epik_Metal_State_Penalty>
2.51301

> <b_epik_Metal_Only>
1

> <s_lp_Force_Field>
OPLS_2005

> <r_lp_Energy>
10.0981

> <b_lp_Chiralities_Consistent>
1

> <s_lp_Variant>
AV-unprocessed.smi:1428-4

> <Gold.Version>
5.8.1

> <Gold.Id.Protein>
6NUR|6NUR_protein|mol2

> <Gold.PLP.Fitness>
49.0046

> <Gold.PLP.PLP>
-38.5037

> <Gold.PLP.part.hbond>
-6.8188

> <Gold.PLP.part.metal>
0.0000

> <Gold.PLP.part.buried>
-0.9826

> <Gold.PLP.part.nonpolar>
-33.0579

> <Gold.PLP.part.repulsive>
1.2905

> <Gold.PLP.ligand.clash>
0.0000

> <Gold.PLP.ligand.torsion>
0.5018

> <Gold.PLP.Chemscore.Hbond>
2.8240

> <Gold.PLP.Chemscore.CHOScore>
1.0000

> <Gold.PLP.Chemscore.Metal>
0.0000

> <Gold.Chemscore.Hbonds>
donor molecule, donor type, donor heavy atom, donor atom, acceptor molecule, acceptor atom, score
      L1  H     9    29       P1  7948  0.50
      L1  H    12    30       P1  7948  0.64
      L1  H    19    38       P1 10195  1.00
      P1  H  7918  7932       L1    20  0.01
      P1  H  7989  7998       L1     4  0.61
      L1  C     5    26       P1  8028  1.00

> <Gold.PLP.Chemscore.Internal.Correction>
0.0326

> <Gold.Rescore>
     Score         DG    S(hbond)    S(metal)    S(lipo)     H(rot)  DE(clash)    DE(int)     intcor
     13.61     -15.89       2.43        0.00      69.61       2.29       0.75       1.52       ----

> <Gold.Chemscore.Fitness>
13.6105

> <Gold.Chemscore.DG>
-15.8864

> <Gold.Chemscore.ZeroCoef>
-5.4800

> <Gold.Chemscore.Hbond>
2.4321

> <Gold.Chemscore.Metal>
0.0000

> <Gold.Chemscore.Lipo>
69.6063

> <Gold.Chemscore.Internal_Hbond>
0.0000

> <Gold.Chemscore.DEClash>
0.7525

> <Gold.Chemscore.DEInternal>
1.5234

> <Gold.Chemscore.Rot>
2.2894

> <Gold.Chemscore.Internal.Correction>
   9.000000E+99

> <Gold.Chemscore.Hbonds>
donor molecule, donor type, donor heavy atom, donor atom, acceptor molecule, acceptor atom, score
      L1  H     9    29       P1  7948  0.50
      L1  H    12    30       P1  7948  0.60
      L1  H    19    38       P1 10195  0.94
      P1  H  7918  7932       L1    20  0.02
      P1  H  7989  7998       L1     4  0.07

> <Gold.Chemscore.Hbond.Weighted>
-8.1233

> <Gold.Chemscore.Metal.Weighted>
-0.0000

> <Gold.Chemscore.Lipo.Weighted>
-8.1439

> <Gold.Chemscore.Internal_Hbond.Weighted>
0.0000

> <Gold.Chemscore.DEClash.Weighted>
0.7525

> <Gold.Chemscore.DEInternal.Weighted>
1.5234

> <Gold.Chemscore.Rot.Weighted>
5.8608

> <Gold.Chemscore.Internal.Correction.Weighted>
   9.000000E+99

> <Gold.Protein.RotatedTorsions>
[ 6907 6896 6895 6894 ] final   54.40 input  -60.11 | X-H torsion
[ 7974 7965 7964 7962 ] final -124.81 input  175.53 | X-H torsion
[ 8008 7997 7996 7995 ] final   86.84 input   59.86 | X-H torsion
[ 10167 10162 10161 10158 ] final  -73.03 input  -65.29 | X-H torsion
[ 10718 10713 10712 10709 ] final   34.94 input   66.30 | X-H torsion
[ 10763 10752 10751 10750 ] final  -82.00 input  -60.55 | X-H torsion
[ 11005 11000 10999 10996 ] final  -75.47 input  -57.11 | X-H torsion

> <Gold.Protein.ActiveResidues>
 VAL166  LYS551  ARG553  GLY616  TRP617  ASP618  TYR619  PRO620  LYS621  CYS622 
 ASP623  PHE694  ASN695  SER759  ASP760  ASP761  ALA762  ILE779  LEU786  VAL792 
 PHE793  MET794  SER795  GLU796  ALA797  LYS798  CYS799  TRP800  GLU811  SER814 

> <Gold.Protein.RotatedAtoms>
  152.3435  134.7102  160.0256 H   0  0  0  0  0  0  0  0  0  0  0  0  # atno 6907 bound_to 6896
  151.7479  133.3320  159.3391 H   0  0  0  0  0  0  0  0  0  0  0  0  # atno 6908 bound_to 6896
  150.7495  134.6151  159.6151 H   0  0  0  0  0  0  0  0  0  0  0  0  # atno 6909 bound_to 6896
  145.0042  140.7848  143.4478 H   0  0  0  0  0  0  0  0  0  0  0  0  # atno 7974 bound_to 7965
  155.9679  140.3388  155.6549 H   0  0  0  0  0  0  0  0  0  0  0  0  # atno 8008 bound_to 7997
  155.6713  140.0727  157.2537 H   0  0  0  0  0  0  0  0  0  0  0  0  # atno 8009 bound_to 7997
  154.4159  140.1691  156.1870 H   0  0  0  0  0  0  0  0  0  0  0  0  # atno 8010 bound_to 7997
  140.5144  143.2340  151.7539 H   0  0  0  0  0  0  0  0  0  0  0  0  # atno 10167 bound_to 10162
  157.3165  130.7426  149.6758 H   0  0  0  0  0  0  0  0  0  0  0  0  # atno 10718 bound_to 10713
  154.5704  135.5606  153.7090 H   0  0  0  0  0  0  0  0  0  0  0  0  # atno 10763 bound_to 10752
  153.0047  135.6295  154.2122 H   0  0  0  0  0  0  0  0  0  0  0  0  # atno 10764 bound_to 10752
  154.2061  135.2875  155.2954 H   0  0  0  0  0  0  0  0  0  0  0  0  # atno 10765 bound_to 10752
  141.1645  133.6948  156.7521 H   0  0  0  0  0  0  0  0  0  0  0  0  # atno 11005 bound_to 11000
  145.2111  139.2204  143.5142 LP  0  0  0  0  0  0  0  0  0  0  0  0  # atno 17320 bound_to 7965
  146.3458  140.1950  142.8589 LP  0  0  0  0  0  0  0  0  0  0  0  0  # atno 17321 bound_to 7965
  139.4905  144.4345  151.9834 LP  0  0  0  0  0  0  0  0  0  0  0  0  # atno 17342 bound_to 10162
  140.3439  144.3170  150.5962 LP  0  0  0  0  0  0  0  0  0  0  0  0  # atno 17343 bound_to 10162
  155.9682  130.4236  150.4568 LP  0  0  0  0  0  0  0  0  0  0  0  0  # atno 17370 bound_to 10713
  157.2576  131.0560  151.2340 LP  0  0  0  0  0  0  0  0  0  0  0  0  # atno 17371 bound_to 10713
  140.2596  134.8477  157.3746 LP  0  0  0  0  0  0  0  0  0  0  0  0  # atno 17394 bound_to 11000
  140.1624  134.4712  155.7886 LP  0  0  0  0  0  0  0  0  0  0  0  0  # atno 17395 bound_to 11000

$$$$
