AV-unprocessed.smi:113|AV-procd|sdf|1092|dock6
  -GOLD-   2262018193D 1   1.00000     0.00000
 Structure written by MMmdl.
 52 55  0  0  0  0  0  0  0  0  1 V2000
  153.4731  137.8546  158.1887 C   0  0  0  0  0  0  0  0  0  0  0  0
  153.1241  139.2503  158.6620 C   0  0  0  0  0  0  0  0  0  0  0  0
  152.4055  140.1312  157.8345 C   0  0  0  0  0  0  0  0  0  0  0  0
  152.1032  141.4276  158.3110 C   0  0  0  0  0  0  0  0  0  0  0  0
  151.3248  142.4275  157.4484 C   0  0  0  0  0  0  0  0  0  0  0  0
  149.9410  142.0928  157.1426 N   0  0  0  0  0  0  0  0  0  0  0  0
  149.6927  141.2987  155.9978 C   0  0  0  0  0  0  0  0  0  0  0  0
  150.6100  140.9060  155.2734 O   0  0  0  0  0  0  0  0  0  0  0  0
  148.2846  140.9753  155.7597 C   0  0  0  0  0  0  0  0  0  0  0  0
  147.9406  140.1504  154.5289 C   0  0  0  0  0  0  0  0  0  0  0  0
  147.3358  141.4106  156.6242 C   0  0  0  0  0  0  0  0  0  0  0  0
  147.6088  142.1618  157.7592 N   0  0  0  0  0  0  0  0  0  0  0  0
  146.5455  142.5966  158.7512 C   0  0  1  0  0  0  0  0  0  0  0  0
  145.1995  143.0025  158.1563 C   0  0  0  0  0  0  0  0  0  0  0  0
  144.3301  142.9026  159.3928 C   0  0  1  0  0  0  0  0  0  0  0  0
  142.9671  142.7560  159.0456 O   0  0  0  0  0  0  0  0  0  0  0  0
  144.9522  141.7123  160.1601 C   0  0  1  0  0  0  0  0  0  0  0  0
  144.1995  140.3703  160.0784 C   0  0  0  0  0  0  0  0  0  0  0  0
  144.7344  139.4392  160.9964 O   0  0  0  0  0  0  0  0  0  0  0  0
  146.2344  141.5099  159.5638 O   0  0  0  0  0  0  0  0  0  0  0  0
  148.9420  142.5300  158.0406 C   0  0  0  0  0  0  0  0  0  0  0  0
  149.2157  143.1965  159.0421 O   0  0  0  0  0  0  0  0  0  0  0  0
  152.5443  141.7760  159.6161 C   0  0  0  0  0  0  0  0  0  0  0  0
  152.2794  143.0518  160.1703 C   0  0  0  0  0  0  0  0  0  0  0  0
  152.7271  143.3778  161.4630 C   0  0  0  0  0  0  0  0  0  0  0  0
  153.4447  142.4332  162.2149 C   0  0  0  0  0  0  0  0  0  0  0  0
  153.7109  141.1632  161.6724 C   0  0  0  0  0  0  0  0  0  0  0  0
  153.2703  140.8130  160.3779 C   0  0  0  0  0  0  0  0  0  0  0  0
  153.5470  139.5807  159.8975 N   0  0  0  0  0  0  0  0  0  0  0  0
  152.8392  137.5535  157.3539 H   0  0  0  0  0  0  0  0  0  0  0  0
  153.3403  137.1285  158.9915 H   0  0  0  0  0  0  0  0  0  0  0  0
  154.5120  137.8184  157.8599 H   0  0  0  0  0  0  0  0  0  0  0  0
  152.0993  139.8033  156.8527 H   0  0  0  0  0  0  0  0  0  0  0  0
  151.3281  143.4115  157.9195 H   0  0  0  0  0  0  0  0  0  0  0  0
  151.8359  142.5833  156.4970 H   0  0  0  0  0  0  0  0  0  0  0  0
  146.8691  139.9668  154.4457 H   0  0  0  0  0  0  0  0  0  0  0  0
  148.4406  139.1820  154.5691 H   0  0  0  0  0  0  0  0  0  0  0  0
  148.2617  140.6645  153.6223 H   0  0  0  0  0  0  0  0  0  0  0  0
  146.3173  141.1544  156.3826 H   0  0  0  0  0  0  0  0  0  0  0  0
  146.9986  143.4027  159.3329 H   0  0  0  0  0  0  0  0  0  0  0  0
  145.2332  143.9950  157.7058 H   0  0  0  0  0  0  0  0  0  0  0  0
  144.8674  142.2631  157.4269 H   0  0  0  0  0  0  0  0  0  0  0  0
  144.4435  143.8111  159.9861 H   0  0  0  0  0  0  0  0  0  0  0  0
  142.4389  143.1280  159.7358 H   0  0  0  0  0  0  0  0  0  0  0  0
  145.1059  141.9865  161.2048 H   0  0  0  0  0  0  0  0  0  0  0  0
  143.1309  140.5023  160.2515 H   0  0  0  0  0  0  0  0  0  0  0  0
  144.3086  139.9448  159.0803 H   0  0  0  0  0  0  0  0  0  0  0  0
  144.5192  138.5675  160.7008 H   0  0  0  0  0  0  0  0  0  0  0  0
  151.7311  143.8008  159.6197 H   0  0  0  0  0  0  0  0  0  0  0  0
  152.5197  144.3537  161.8768 H   0  0  0  0  0  0  0  0  0  0  0  0
  153.7908  142.6811  163.2074 H   0  0  0  0  0  0  0  0  0  0  0  0
  154.2630  140.4449  162.2611 H   0  0  0  0  0  0  0  0  0  0  0  0
  1  2  1  0  0  0  0
  1 30  1  0  0  0  0
  1 31  1  0  0  0  0
  1 32  1  0  0  0  0
  2 29  1  0  0  0  0
  2  3  2  0  0  0  0
  3  4  1  0  0  0  0
  3 33  1  0  0  0  0
  4  5  1  0  0  0  0
  4 23  2  0  0  0  0
  5  6  1  0  0  0  0
  5 34  1  0  0  0  0
  5 35  1  0  0  0  0
  6 21  1  0  0  0  0
  6  7  1  0  0  0  0
  7  8  2  0  0  0  0
  7  9  1  0  0  0  0
  9 10  1  0  0  0  0
  9 11  2  0  0  0  0
 10 36  1  0  0  0  0
 10 37  1  0  0  0  0
 10 38  1  0  0  0  0
 11 12  1  0  0  0  0
 11 39  1  0  0  0  0
 12 13  1  0  0  0  0
 12 21  1  0  0  0  0
 13 20  1  0  0  0  0
 13 14  1  0  0  0  0
 13 40  1  0  0  0  0
 14 15  1  0  0  0  0
 14 41  1  0  0  0  0
 14 42  1  0  0  0  0
 15 16  1  0  0  0  0
 15 17  1  0  0  0  0
 15 43  1  0  0  0  0
 16 44  1  0  0  0  0
 17 18  1  0  0  0  0
 17 20  1  0  0  0  0
 17 45  1  0  0  0  0
 18 19  1  0  0  0  0
 18 46  1  0  0  0  0
 18 47  1  0  0  0  0
 19 48  1  0  0  0  0
 21 22  2  0  0  0  0
 23 28  1  0  0  0  0
 23 24  1  0  0  0  0
 24 25  2  0  0  0  0
 24 49  1  0  0  0  0
 25 26  1  0  0  0  0
 25 50  1  0  0  0  0
 26 27  2  0  0  0  0
 26 51  1  0  0  0  0
 27 28  1  0  0  0  0
 27 52  1  0  0  0  0
 28 29  2  0  0  0  0
M  END
> <s_m_source_file>
AV-unprocessed.smi

> <i_m_source_file_index>
113

> <i_lp_mmshare_version>
43012

> <i_f3d_flags>
0

> <s_epik_input>
W2NIXTFbY0hdW2NIXVtjSF1jKGMxMiluYyhbQ0gzXSlbY0hdYzJbQ0gyXW4zYyg9TyljKFtDSDNdKVtjSF1uKGMzPU8pW0NAQEhdNFtDSDJdW0NAQEhdKFtPSF0pW0NASF0oTzQpW0NIMl1bT0hd

> <s_epik_cmdline>
J2VwaWtfcHl0aG9uJywgJy1waCcsICc3LjAnLCAnLXRuJywgJzgnLCAnLW1hJywgJzIwMCcsICctbWV0YWxfYmluZGluZycsICctaW1hZScsICc8aW5maWxlLm1hZT4nLCAnLW9tYWUnLCAnPG91dGZpbGUubWFlPic=

> <r_lp_tautomer_probability>
1

> <r_epik_Ionization_Penalty>
0.214728

> <r_epik_Ionization_Penalty_Charging>
3.04883e-08

> <r_epik_Ionization_Penalty_Neutral>
0.214728

> <r_epik_State_Penalty>
0.204913

> <r_epik_Charging_Adjusted_Penalty>
0.204913

> <i_epik_Tot_Q>
0

> <i_epik_Tot_abs_Q>
0

> <r_epik_Metal_State_Penalty>
0.000244761

> <b_epik_Metal_Only>
0

> <s_epik_Chemistry_Notes>
This compound contains an acetal/aminal-like group ( X-CH(R)-Y where X, Y are N, S, or O) that may be acid/base labile, releasing an aldehyde.

> <s_lp_Force_Field>
OPLS_2005

> <r_lp_Energy>
43.3088

> <b_lp_Chiralities_Consistent>
1

> <s_lp_Variant>
AV-unprocessed.smi:113-2

> <Gold.Version>
5.8.1

> <Gold.Id.Protein>
6NUR|6NUR_protein|mol2

> <Gold.PLP.Fitness>
47.2938

> <Gold.PLP.PLP>
-44.1494

> <Gold.PLP.part.hbond>
-3.6539

> <Gold.PLP.part.metal>
0.0000

> <Gold.PLP.part.buried>
-4.9761

> <Gold.PLP.part.nonpolar>
-33.7046

> <Gold.PLP.part.repulsive>
0.2319

> <Gold.PLP.ligand.clash>
0.0000

> <Gold.PLP.ligand.torsion>
1.0519

> <Gold.PLP.Chemscore.Hbond>
1.7389

> <Gold.PLP.Chemscore.CHOScore>
0.0000

> <Gold.PLP.Chemscore.Metal>
0.0000

> <Gold.Chemscore.Hbonds>
donor molecule, donor type, donor heavy atom, donor atom, acceptor molecule, acceptor atom, score
      P1  H  6934  6946       L1    20  0.79
      P1  H  7989  7998       L1     8  0.75

> <Gold.PLP.Chemscore.Internal.Correction>
0.0314

> <Gold.Rescore>
     Score         DG    S(hbond)    S(metal)    S(lipo)     H(rot)  DE(clash)    DE(int)     intcor
     14.52     -15.13       1.28        0.00     110.40       2.95       0.06       0.55       ----

> <Gold.Chemscore.Fitness>
14.5157

> <Gold.Chemscore.DG>
-15.1317

> <Gold.Chemscore.ZeroCoef>
-5.4800

> <Gold.Chemscore.Hbond>
1.2810

> <Gold.Chemscore.Metal>
0.0000

> <Gold.Chemscore.Lipo>
110.4019

> <Gold.Chemscore.Internal_Hbond>
0.0000

> <Gold.Chemscore.DEClash>
0.0620

> <Gold.Chemscore.DEInternal>
0.5540

> <Gold.Chemscore.Rot>
2.9469

> <Gold.Chemscore.Internal.Correction>
   9.000000E+99

> <Gold.Chemscore.Hbonds>
donor molecule, donor type, donor heavy atom, donor atom, acceptor molecule, acceptor atom, score
      P1  H  6934  6946       L1    20  0.17
      P1  H  7989  7998       L1     8  0.72

> <Gold.Chemscore.Hbond.Weighted>
-4.2786

> <Gold.Chemscore.Metal.Weighted>
-0.0000

> <Gold.Chemscore.Lipo.Weighted>
-12.9170

> <Gold.Chemscore.Internal_Hbond.Weighted>
0.0000

> <Gold.Chemscore.DEClash.Weighted>
0.0620

> <Gold.Chemscore.DEInternal.Weighted>
0.5540

> <Gold.Chemscore.Rot.Weighted>
7.5439

> <Gold.Chemscore.Internal.Correction.Weighted>
   9.000000E+99

> <Gold.Protein.RotatedTorsions>
[ 6907 6896 6895 6894 ] final   27.11 input  -60.11 | X-H torsion
[ 7974 7965 7964 7962 ] final    1.35 input  175.53 | X-H torsion
[ 8008 7997 7996 7995 ] final  -55.54 input   59.86 | X-H torsion
[ 10167 10162 10161 10158 ] final   82.63 input  -65.29 | X-H torsion
[ 10718 10713 10712 10709 ] final   50.83 input   66.30 | X-H torsion
[ 10763 10752 10751 10750 ] final  -44.78 input  -60.55 | X-H torsion
[ 11005 11000 10999 10996 ] final    1.52 input  -57.11 | X-H torsion

> <Gold.Protein.ActiveResidues>
 VAL166  LYS551  ARG553  GLY616  TRP617  ASP618  TYR619  PRO620  LYS621  CYS622 
 ASP623  PHE694  ASN695  SER759  ASP760  ASP761  ALA762  ILE779  LEU786  VAL792 
 PHE793  MET794  SER795  GLU796  ALA797  LYS798  CYS799  TRP800  GLU811  SER814 

> <Gold.Protein.RotatedAtoms>
  151.9974  134.9947  160.0563 H   0  0  0  0  0  0  0  0  0  0  0  0  # atno 6907 bound_to 6896
  152.1552  133.4542  159.4841 H   0  0  0  0  0  0  0  0  0  0  0  0  # atno 6908 bound_to 6896
  150.6880  134.2058  159.4383 H   0  0  0  0  0  0  0  0  0  0  0  0  # atno 6909 bound_to 6896
  146.2440  140.1000  142.8348 H   0  0  0  0  0  0  0  0  0  0  0  0  # atno 7974 bound_to 7965
  154.4198  140.1150  156.5493 H   0  0  0  0  0  0  0  0  0  0  0  0  # atno 8008 bound_to 7997
  155.6427  140.3496  155.4701 H   0  0  0  0  0  0  0  0  0  0  0  0  # atno 8009 bound_to 7997
  155.9857  140.1169  157.0674 H   0  0  0  0  0  0  0  0  0  0  0  0  # atno 8010 bound_to 7997
  139.9268  144.6178  150.8385 H   0  0  0  0  0  0  0  0  0  0  0  0  # atno 10167 bound_to 10162
  157.4923  130.8384  149.8217 H   0  0  0  0  0  0  0  0  0  0  0  0  # atno 10718 bound_to 10713
  154.0177  135.6673  153.4770 H   0  0  0  0  0  0  0  0  0  0  0  0  # atno 10763 bound_to 10752
  153.0594  135.5037  154.8053 H   0  0  0  0  0  0  0  0  0  0  0  0  # atno 10764 bound_to 10752
  154.6957  135.3069  154.9379 H   0  0  0  0  0  0  0  0  0  0  0  0  # atno 10765 bound_to 10752
  140.6145  133.9718  155.8194 H   0  0  0  0  0  0  0  0  0  0  0  0  # atno 11005 bound_to 11000
  145.0576  140.9064  143.4958 LP  0  0  0  0  0  0  0  0  0  0  0  0  # atno 17320 bound_to 7965
  145.1110  139.2757  143.5637 LP  0  0  0  0  0  0  0  0  0  0  0  0  # atno 17321 bound_to 7965
  140.7648  143.3258  151.2519 LP  0  0  0  0  0  0  0  0  0  0  0  0  # atno 17342 bound_to 10162
  139.6815  143.9845  152.2811 LP  0  0  0  0  0  0  0  0  0  0  0  0  # atno 17343 bound_to 10162
  156.0180  130.3806  150.2049 LP  0  0  0  0  0  0  0  0  0  0  0  0  # atno 17370 bound_to 10713
  157.0238  130.9987  151.3332 LP  0  0  0  0  0  0  0  0  0  0  0  0  # atno 17371 bound_to 10713
  141.0785  134.0098  157.3422 LP  0  0  0  0  0  0  0  0  0  0  0  0  # atno 17394 bound_to 11000
  139.9178  135.0198  156.7950 LP  0  0  0  0  0  0  0  0  0  0  0  0  # atno 17395 bound_to 11000

$$$$
