AV-unprocessed.smi:3348|AV-procd|sdf|12918|dock7
  -GOLD-   2272019333D 1   1.00000     0.00000
 Structure written by MMmdl.
 47 48  0  0  0  0  0  0  0  0  2 V2000
  147.3218  141.8014  154.6179 C   0  0  0  0  0  0  0  0  0  0  0  0
  148.5625  141.0209  155.0947 C   0  0  1  0  0  0  0  0  0  0  0  0
  149.1649  140.1392  153.9810 C   0  0  0  0  0  0  0  0  0  0  0  0
  150.3110  139.3664  154.4246 N   0  0  0  0  0  0  0  0  0  0  0  0
  150.4717  137.9967  154.4383 C   0  0  0  0  0  0  0  0  0  0  0  0
  151.7165  137.7391  154.9369 C   0  0  0  0  0  0  0  0  0  0  0  0
  152.2510  139.0319  155.1967 C   0  0  0  0  0  0  0  0  0  0  0  0
  151.4076  140.0037  154.8874 N   0  0  0  0  0  0  0  0  0  0  0  0
  149.6067  141.9357  155.6078 N   0  3  0  0  0  0  0  0  0  0  0  0
  149.9956  141.7298  157.0192 C   0  0  0  0  0  0  0  0  0  0  0  0
  151.0734  142.7334  157.4393 C   0  0  0  0  0  0  0  0  0  0  0  0
  151.7379  142.2217  158.5844 O   0  0  0  0  0  0  0  0  0  0  0  0
  152.8719  142.9741  159.0043 C   0  0  1  0  0  0  0  0  0  0  0  0
  152.5217  144.4739  159.1112 C   0  0  0  0  0  0  0  0  0  0  0  0
  151.4739  144.7361  160.2052 C   0  0  0  0  0  0  0  0  0  0  0  0
  151.9370  144.1840  161.5619 C   0  0  0  0  0  0  0  0  0  0  0  0
  152.2898  142.6909  161.4677 C   0  0  0  0  0  0  0  0  0  0  0  0
  153.3406  142.4251  160.3706 C   0  0  1  0  0  0  0  0  0  0  0  0
  153.7255  140.9391  160.2953 C   0  0  0  0  0  0  0  0  0  0  0  0
  146.5402  141.1299  154.2621 H   0  0  0  0  0  0  0  0  0  0  0  0
  147.5714  142.4798  153.8013 H   0  0  0  0  0  0  0  0  0  0  0  0
  146.8813  142.3929  155.4198 H   0  0  0  0  0  0  0  0  0  0  0  0
  148.2648  140.3647  155.9143 H   0  0  0  0  0  0  0  0  0  0  0  0
  148.4124  139.4484  153.5972 H   0  0  0  0  0  0  0  0  0  0  0  0
  149.4788  140.7563  153.1376 H   0  0  0  0  0  0  0  0  0  0  0  0
  149.6958  137.3262  154.0994 H   0  0  0  0  0  0  0  0  0  0  0  0
  152.1768  136.7742  155.0907 H   0  0  0  0  0  0  0  0  0  0  0  0
  153.2199  139.2909  155.5972 H   0  0  0  0  0  0  0  0  0  0  0  0
  150.4373  141.7883  155.0515 H   0  0  0  0  0  0  0  0  0  0  0  0
  149.1224  141.8533  157.6593 H   0  0  0  0  0  0  0  0  0  0  0  0
  150.3608  140.7119  157.1627 H   0  0  0  0  0  0  0  0  0  0  0  0
  151.7783  142.8982  156.6228 H   0  0  0  0  0  0  0  0  0  0  0  0
  150.6064  143.6911  157.6681 H   0  0  0  0  0  0  0  0  0  0  0  0
  153.6841  142.8427  158.2870 H   0  0  0  0  0  0  0  0  0  0  0  0
  153.4272  145.0356  159.3444 H   0  0  0  0  0  0  0  0  0  0  0  0
  152.1691  144.8641  158.1571 H   0  0  0  0  0  0  0  0  0  0  0  0
  151.2820  145.8063  160.2865 H   0  0  0  0  0  0  0  0  0  0  0  0
  150.5267  144.2736  159.9251 H   0  0  0  0  0  0  0  0  0  0  0  0
  152.8080  144.7438  161.9052 H   0  0  0  0  0  0  0  0  0  0  0  0
  151.1583  144.3358  162.3100 H   0  0  0  0  0  0  0  0  0  0  0  0
  152.6628  142.3448  162.4323 H   0  0  0  0  0  0  0  0  0  0  0  0
  151.3862  142.1148  161.2641 H   0  0  0  0  0  0  0  0  0  0  0  0
  154.2441  142.9710  160.6470 H   0  0  0  0  0  0  0  0  0  0  0  0
  152.8665  140.3149  160.0480 H   0  0  0  0  0  0  0  0  0  0  0  0
  154.1240  140.5900  161.2481 H   0  0  0  0  0  0  0  0  0  0  0  0
  154.4905  140.7696  159.5374 H   0  0  0  0  0  0  0  0  0  0  0  0
  149.3024  142.8900  155.4790 H   0  0  0  0  0  0  0  0  0  0  0  0
  1  2  1  0  0  0  0
  1 20  1  0  0  0  0
  1 21  1  0  0  0  0
  1 22  1  0  0  0  0
  2  3  1  0  0  0  0
  2  9  1  0  0  0  0
  2 23  1  0  0  0  0
  3  4  1  0  0  0  0
  3 24  1  0  0  0  0
  3 25  1  0  0  0  0
  4  8  1  0  0  0  0
  4  5  1  0  0  0  0
  5  6  2  0  0  0  0
  5 26  1  0  0  0  0
  6  7  1  0  0  0  0
  6 27  1  0  0  0  0
  7  8  2  0  0  0  0
  7 28  1  0  0  0  0
  9 10  1  0  0  0  0
  9 29  1  0  0  0  0
  9 47  1  0  0  0  0
 10 11  1  0  0  0  0
 10 30  1  0  0  0  0
 10 31  1  0  0  0  0
 11 12  1  0  0  0  0
 11 32  1  0  0  0  0
 11 33  1  0  0  0  0
 12 13  1  0  0  0  0
 13 18  1  0  0  0  0
 13 14  1  0  0  0  0
 13 34  1  0  0  0  0
 14 15  1  0  0  0  0
 14 35  1  0  0  0  0
 14 36  1  0  0  0  0
 15 16  1  0  0  0  0
 15 37  1  0  0  0  0
 15 38  1  0  0  0  0
 16 17  1  0  0  0  0
 16 39  1  0  0  0  0
 16 40  1  0  0  0  0
 17 18  1  0  0  0  0
 17 41  1  0  0  0  0
 17 42  1  0  0  0  0
 18 19  1  0  0  0  0
 18 43  1  0  0  0  0
 19 44  1  0  0  0  0
 19 45  1  0  0  0  0
 19 46  1  0  0  0  0
M  CHG  1   9   1
M  END
> <s_m_source_file>
AV-unprocessed.smi

> <i_m_source_file_index>
3348

> <i_lp_mmshare_version>
43012

> <i_f3d_flags>
0

> <s_epik_input>
bjFbY0hdW2NIXVtjSF1uMVtDSDJdW0NAQEhdKFtDSDNdKVtOSF1bQ0gyXVtDSDJdT1tDQEBIXTJbQ0gyXVtDSDJdW0NIMl1bQ0gyXVtDQEhdMltDSDNd

> <s_epik_cmdline>
J2VwaWtfcHl0aG9uJywgJy1waCcsICc3LjAnLCAnLXRuJywgJzgnLCAnLW1hJywgJzIwMCcsICctbWV0YWxfYmluZGluZycsICctaW1hZScsICc8aW5maWxlLm1hZT4nLCAnLW9tYWUnLCAnPG91dGZpbGUubWFlPic=

> <r_lp_tautomer_probability>
1

> <r_epik_Ionization_Penalty>
0.00925088

> <r_epik_Ionization_Penalty_Charging>
0.00924645

> <r_epik_Ionization_Penalty_Neutral>
4.42413e-06

> <r_epik_State_Penalty>
0.0070118

> <r_epik_Charging_Adjusted_Penalty>
0.0162583

> <i_epik_Tot_Q>
1

> <i_epik_Tot_abs_Q>
1

> <r_epik_Metal_State_Penalty>
0.00701222

> <b_epik_Metal_Only>
0

> <s_lp_Force_Field>
OPLS_2005

> <r_lp_Energy>
16.697

> <b_lp_Chiralities_Consistent>
1

> <s_lp_Variant>
AV-unprocessed.smi:3348-4

> <Gold.Version>
5.8.1

> <Gold.Id.Protein>
6NUR|6NUR_protein|mol2

> <Gold.PLP.Fitness>
62.3946

> <Gold.PLP.PLP>
-52.0647

> <Gold.PLP.part.hbond>
-2.0000

> <Gold.PLP.part.metal>
0.0000

> <Gold.PLP.part.buried>
-4.9129

> <Gold.PLP.part.nonpolar>
-45.3975

> <Gold.PLP.part.repulsive>
0.2177

> <Gold.PLP.ligand.clash>
0.0000

> <Gold.PLP.ligand.torsion>
0.9027

> <Gold.PLP.Chemscore.Hbond>
3.0000

> <Gold.PLP.Chemscore.CHOScore>
0.9851

> <Gold.PLP.Chemscore.Metal>
0.0000

> <Gold.Chemscore.Hbonds>
donor molecule, donor type, donor heavy atom, donor atom, acceptor molecule, acceptor atom, score
      L1  H     9    47       P1  8028  2.00
      P1  H  7989  7998       L1     8  0.75
      L1  C     5    26       P1  7948  0.90

> <Gold.PLP.Chemscore.Internal.Correction>
0.1799

> <Gold.Rescore>
     Score         DG    S(hbond)    S(metal)    S(lipo)     H(rot)  DE(clash)    DE(int)     intcor
     22.24     -23.33       1.96        0.00     136.22       1.82       0.01       1.08       ----

> <Gold.Chemscore.Fitness>
22.2430

> <Gold.Chemscore.DG>
-23.3271

> <Gold.Chemscore.ZeroCoef>
-5.4800

> <Gold.Chemscore.Hbond>
1.9639

> <Gold.Chemscore.Metal>
0.0000

> <Gold.Chemscore.Lipo>
136.2169

> <Gold.Chemscore.Internal_Hbond>
0.0000

> <Gold.Chemscore.DEClash>
0.0067

> <Gold.Chemscore.DEInternal>
1.0774

> <Gold.Chemscore.Rot>
1.8163

> <Gold.Chemscore.Internal.Correction>
   9.000000E+99

> <Gold.Chemscore.Hbonds>
donor molecule, donor type, donor heavy atom, donor atom, acceptor molecule, acceptor atom, score
      L1  H     9    47       P1  8028  1.00
      P1  H  7989  7998       L1     8  0.09

> <Gold.Chemscore.Hbond.Weighted>
-6.5595

> <Gold.Chemscore.Metal.Weighted>
-0.0000

> <Gold.Chemscore.Lipo.Weighted>
-15.9374

> <Gold.Chemscore.Internal_Hbond.Weighted>
0.0000

> <Gold.Chemscore.DEClash.Weighted>
0.0067

> <Gold.Chemscore.DEInternal.Weighted>
1.0774

> <Gold.Chemscore.Rot.Weighted>
4.6497

> <Gold.Chemscore.Internal.Correction.Weighted>
   9.000000E+99

> <Gold.Protein.RotatedTorsions>
[ 6907 6896 6895 6894 ] final  -14.60 input  -60.11 | X-H torsion
[ 7974 7965 7964 7962 ] final -109.05 input  175.53 | X-H torsion
[ 8008 7997 7996 7995 ] final -134.31 input   59.86 | X-H torsion
[ 10167 10162 10161 10158 ] final  174.30 input  -65.29 | X-H torsion
[ 10718 10713 10712 10709 ] final   -8.83 input   66.30 | X-H torsion
[ 10763 10752 10751 10750 ] final  -15.67 input  -60.55 | X-H torsion
[ 11005 11000 10999 10996 ] final  119.69 input  -57.11 | X-H torsion

> <Gold.Protein.ActiveResidues>
 VAL166  LYS551  ARG553  GLY616  TRP617  ASP618  TYR619  PRO620  LYS621  CYS622 
 ASP623  PHE694  ASN695  SER759  ASP760  ASP761  ALA762  ILE779  LEU786  VAL792 
 PHE793  MET794  SER795  GLU796  ALA797  LYS798  CYS799  TRP800  GLU811  SER814 

> <Gold.Protein.RotatedAtoms>
  151.3368  135.0854  159.9357 H   0  0  0  0  0  0  0  0  0  0  0  0  # atno 6907 bound_to 6896
  152.5221  133.9487  159.7672 H   0  0  0  0  0  0  0  0  0  0  0  0  # atno 6908 bound_to 6896
  150.9836  133.6167  159.2748 H   0  0  0  0  0  0  0  0  0  0  0  0  # atno 6909 bound_to 6896
  145.1853  140.8990  143.3456 H   0  0  0  0  0  0  0  0  0  0  0  0  # atno 7974 bound_to 7965
  155.3599  140.0482  157.3046 H   0  0  0  0  0  0  0  0  0  0  0  0  # atno 8008 bound_to 7997
  154.5183  140.2216  155.8987 H   0  0  0  0  0  0  0  0  0  0  0  0  # atno 8009 bound_to 7997
  156.1661  140.3106  155.8898 H   0  0  0  0  0  0  0  0  0  0  0  0  # atno 8010 bound_to 7997
  139.5137  144.3163  152.0245 H   0  0  0  0  0  0  0  0  0  0  0  0  # atno 10167 bound_to 10162
  156.6969  130.5081  149.5928 H   0  0  0  0  0  0  0  0  0  0  0  0  # atno 10718 bound_to 10713
  153.5468  135.7012  153.5610 H   0  0  0  0  0  0  0  0  0  0  0  0  # atno 10763 bound_to 10752
  153.3552  135.3984  155.1676 H   0  0  0  0  0  0  0  0  0  0  0  0  # atno 10764 bound_to 10752
  154.8666  135.3775  154.4976 H   0  0  0  0  0  0  0  0  0  0  0  0  # atno 10765 bound_to 10752
  139.9156  134.9630  156.7694 H   0  0  0  0  0  0  0  0  0  0  0  0  # atno 11005 bound_to 11000
  145.0095  139.3523  143.6127 LP  0  0  0  0  0  0  0  0  0  0  0  0  # atno 17320 bound_to 7965
  146.3446  139.9351  142.8748 LP  0  0  0  0  0  0  0  0  0  0  0  0  # atno 17321 bound_to 7965
  140.2606  144.4071  150.6187 LP  0  0  0  0  0  0  0  0  0  0  0  0  # atno 17342 bound_to 10162
  140.6160  143.2172  151.6791 LP  0  0  0  0  0  0  0  0  0  0  0  0  # atno 17343 bound_to 10162
  156.1757  130.6466  151.0891 LP  0  0  0  0  0  0  0  0  0  0  0  0  # atno 17370 bound_to 10713
  157.6988  131.0784  150.6886 LP  0  0  0  0  0  0  0  0  0  0  0  0  # atno 17371 bound_to 10713
  140.6633  133.9625  155.7816 LP  0  0  0  0  0  0  0  0  0  0  0  0  # atno 17394 bound_to 11000
  141.0628  134.0321  157.3635 LP  0  0  0  0  0  0  0  0  0  0  0  0  # atno 17395 bound_to 11000

$$$$
