AV-unprocessed.smi:3066|AV-procd|sdf|11693|dock7
  -GOLD-   2272017 93D 1   1.00000     0.00000
 Structure written by MMmdl.
 35 36  0  0  0  0  0  0  0  0  1 V2000
  150.6751  133.4553  157.1546 N   0  0  0  0  0  0  0  0  0  0  0  0
  150.6640  134.4912  156.6384 C   0  0  0  0  0  0  0  0  0  0  0  0
  150.6502  135.7918  155.9910 C   0  0  0  0  0  0  0  0  0  0  0  0
  151.3594  136.0276  154.8489 N   0  0  0  0  0  0  0  0  0  0  0  0
  151.0381  137.3026  154.6665 C   0  0  0  0  0  0  0  0  0  0  0  0
  150.2170  137.7950  155.6003 N   0  0  0  0  0  0  0  0  0  0  0  0
  149.6583  139.1257  155.7574 C   0  0  0  0  0  0  0  0  0  0  0  0
  150.7496  140.1429  156.0923 C   0  0  0  0  0  0  0  0  0  0  0  0
  151.6469  140.3713  155.2815 O   0  0  0  0  0  0  0  0  0  0  0  0
  150.6586  140.7431  157.2899 N   0  0  0  0  0  0  0  0  0  0  0  0
  151.6028  141.7177  157.8299 C   0  0  0  0  0  0  0  0  0  0  0  0
  152.0722  141.2142  159.2079 C   0  0  0  0  0  0  0  0  0  0  0  0
  153.0629  142.1353  159.9407 C   0  0  0  0  0  0  0  0  0  0  0  0
  152.3887  143.3850  160.5296 C   0  0  0  0  0  0  0  0  0  0  0  0
  152.2573  144.5801  159.5694 C   0  0  0  0  0  0  0  0  0  0  0  0
  151.9631  144.2513  158.0952 C   0  0  0  0  0  0  0  0  0  0  0  0
  150.9511  143.1182  157.8554 C   0  0  0  0  0  0  0  0  0  0  0  0
  149.9472  136.8071  156.4887 N   0  0  0  0  0  0  0  0  0  0  0  0
  151.4115  137.8907  153.8408 H   0  0  0  0  0  0  0  0  0  0  0  0
  149.1564  139.4057  154.8303 H   0  0  0  0  0  0  0  0  0  0  0  0
  148.9017  139.1151  156.5439 H   0  0  0  0  0  0  0  0  0  0  0  0
  149.8818  140.4895  157.8838 H   0  0  0  0  0  0  0  0  0  0  0  0
  152.4754  141.7496  157.1745 H   0  0  0  0  0  0  0  0  0  0  0  0
  151.2100  141.0259  159.8495 H   0  0  0  0  0  0  0  0  0  0  0  0
  152.5511  140.2434  159.0708 H   0  0  0  0  0  0  0  0  0  0  0  0
  153.4907  141.5664  160.7669 H   0  0  0  0  0  0  0  0  0  0  0  0
  153.9031  142.4044  159.2993 H   0  0  0  0  0  0  0  0  0  0  0  0
  151.4041  143.1171  160.9144 H   0  0  0  0  0  0  0  0  0  0  0  0
  152.9546  143.7166  161.4008 H   0  0  0  0  0  0  0  0  0  0  0  0
  151.4763  145.2380  159.9521 H   0  0  0  0  0  0  0  0  0  0  0  0
  153.1755  145.1674  159.6056 H   0  0  0  0  0  0  0  0  0  0  0  0
  151.5926  145.1607  157.6207 H   0  0  0  0  0  0  0  0  0  0  0  0
  152.8950  144.0208  157.5777 H   0  0  0  0  0  0  0  0  0  0  0  0
  150.4888  143.2990  156.8839 H   0  0  0  0  0  0  0  0  0  0  0  0
  150.1386  143.1617  158.5819 H   0  0  0  0  0  0  0  0  0  0  0  0
  1  2  3  0  0  0  0
  2  3  1  0  0  0  0
  3 18  2  0  0  0  0
  3  4  1  0  0  0  0
  4  5  2  0  0  0  0
  5  6  1  0  0  0  0
  5 19  1  0  0  0  0
  6  7  1  0  0  0  0
  6 18  1  0  0  0  0
  7  8  1  0  0  0  0
  7 20  1  0  0  0  0
  7 21  1  0  0  0  0
  8  9  2  0  0  0  0
  8 10  1  0  0  0  0
 10 11  1  0  0  0  0
 10 22  1  0  0  0  0
 11 17  1  0  0  0  0
 11 12  1  0  0  0  0
 11 23  1  0  0  0  0
 12 13  1  0  0  0  0
 12 24  1  0  0  0  0
 12 25  1  0  0  0  0
 13 14  1  0  0  0  0
 13 26  1  0  0  0  0
 13 27  1  0  0  0  0
 14 15  1  0  0  0  0
 14 28  1  0  0  0  0
 14 29  1  0  0  0  0
 15 16  1  0  0  0  0
 15 30  1  0  0  0  0
 15 31  1  0  0  0  0
 16 17  1  0  0  0  0
 16 32  1  0  0  0  0
 16 33  1  0  0  0  0
 17 34  1  0  0  0  0
 17 35  1  0  0  0  0
M  END
> <s_m_source_file>
AV-unprocessed.smi

> <i_m_source_file_index>
3066

> <i_lp_mmshare_version>
43012

> <i_f3d_flags>
0

> <s_epik_input>
TiNDYzFuW2NIXW4objEpW0NIMl1DKD1PKVtOSF1bQ0hdMltDSDJdW0NIMl1bQ0gyXVtDSDJdW0NIMl1bQ0gyXTI=

> <s_epik_cmdline>
J2VwaWtfcHl0aG9uJywgJy1waCcsICc3LjAnLCAnLXRuJywgJzgnLCAnLW1hJywgJzIwMCcsICctbWV0YWxfYmluZGluZycsICctaW1hZScsICc8aW5maWxlLm1hZT4nLCAnLW9tYWUnLCAnPG91dGZpbGUubWFlPic=

> <r_lp_tautomer_probability>
1

> <r_epik_Ionization_Penalty>
4.79211e-08

> <r_epik_Ionization_Penalty_Charging>
0

> <r_epik_Ionization_Penalty_Neutral>
4.79211e-08

> <r_epik_State_Penalty>
-0

> <r_epik_Charging_Adjusted_Penalty>
0

> <i_epik_Tot_Q>
0

> <i_epik_Tot_abs_Q>
0

> <r_epik_Metal_State_Penalty>
-0

> <b_epik_Metal_Only>
0

> <s_lp_Force_Field>
OPLS_2005

> <r_lp_Energy>
17.6035

> <b_lp_Chiralities_Consistent>
1

> <s_lp_Variant>
AV-unprocessed.smi:3066-1

> <Gold.Version>
5.8.1

> <Gold.Id.Protein>
6NUR|6NUR_protein|mol2

> <Gold.PLP.Fitness>
43.7208

> <Gold.PLP.PLP>
-35.5897

> <Gold.PLP.part.hbond>
-3.0000

> <Gold.PLP.part.metal>
0.0000

> <Gold.PLP.part.buried>
-5.0370

> <Gold.PLP.part.nonpolar>
-29.2177

> <Gold.PLP.part.repulsive>
0.2154

> <Gold.PLP.ligand.clash>
0.0000

> <Gold.PLP.ligand.torsion>
0.1407

> <Gold.PLP.Chemscore.Hbond>
2.7995

> <Gold.PLP.Chemscore.CHOScore>
0.0000

> <Gold.PLP.Chemscore.Metal>
0.0000

> <Gold.Chemscore.Hbonds>
donor molecule, donor type, donor heavy atom, donor atom, acceptor molecule, acceptor atom, score
      P1  H  6896  6908       L1     1  0.69
      P1  H  7989  7998       L1     9  0.85
      P1  H 10752 10765       L1     4  1.00

> <Gold.PLP.Chemscore.Internal.Correction>
0.0142

> <Gold.Rescore>
     Score         DG    S(hbond)    S(metal)    S(lipo)     H(rot)  DE(clash)    DE(int)     intcor
     18.47     -18.53       2.64        0.00      78.72       1.95       0.00       0.06       ----

> <Gold.Chemscore.Fitness>
18.4736

> <Gold.Chemscore.DG>
-18.5323

> <Gold.Chemscore.ZeroCoef>
-5.4800

> <Gold.Chemscore.Hbond>
2.6428

> <Gold.Chemscore.Metal>
0.0000

> <Gold.Chemscore.Lipo>
78.7221

> <Gold.Chemscore.Internal_Hbond>
0.0000

> <Gold.Chemscore.DEClash>
0.0000

> <Gold.Chemscore.DEInternal>
0.0587

> <Gold.Chemscore.Rot>
1.9474

> <Gold.Chemscore.Internal.Correction>
   9.000000E+99

> <Gold.Chemscore.Hbonds>
donor molecule, donor type, donor heavy atom, donor atom, acceptor molecule, acceptor atom, score
      P1  H  6896  6908       L1     1  0.50
      P1  H  7989  7998       L1     9  0.85
      P1  H 10752 10765       L1     4  0.87

> <Gold.Chemscore.Hbond.Weighted>
-8.8270

> <Gold.Chemscore.Metal.Weighted>
-0.0000

> <Gold.Chemscore.Lipo.Weighted>
-9.2105

> <Gold.Chemscore.Internal_Hbond.Weighted>
0.0000

> <Gold.Chemscore.DEClash.Weighted>
0.0000

> <Gold.Chemscore.DEInternal.Weighted>
0.0587

> <Gold.Chemscore.Rot.Weighted>
4.9852

> <Gold.Chemscore.Internal.Correction.Weighted>
   9.000000E+99

> <Gold.Protein.RotatedTorsions>
[ 6907 6896 6895 6894 ] final  112.82 input  -60.11 | X-H torsion
[ 7974 7965 7964 7962 ] final  172.53 input  175.53 | X-H torsion
[ 8008 7997 7996 7995 ] final  166.45 input   59.86 | X-H torsion
[ 10167 10162 10161 10158 ] final   -7.65 input  -65.29 | X-H torsion
[ 10718 10713 10712 10709 ] final    3.03 input   66.30 | X-H torsion
[ 10763 10752 10751 10750 ] final  162.83 input  -60.55 | X-H torsion
[ 11005 11000 10999 10996 ] final   34.42 input  -57.11 | X-H torsion

> <Gold.Protein.ActiveResidues>
 VAL166  LYS551  ARG553  GLY616  TRP617  ASP618  TYR619  PRO620  LYS621  CYS622 
 ASP623  PHE694  ASN695  SER759  ASP760  ASP761  ALA762  ILE779  LEU786  VAL792 
 PHE793  MET794  SER795  GLU796  ALA797  LYS798  CYS799  TRP800  GLU811  SER814 

> <Gold.Protein.RotatedAtoms>
  152.4895  133.8463  159.7178 H   0  0  0  0  0  0  0  0  0  0  0  0  # atno 6907 bound_to 6896
  150.9012  133.7107  159.2885 H   0  0  0  0  0  0  0  0  0  0  0  0  # atno 6908 bound_to 6896
  151.4547  135.1037  159.9760 H   0  0  0  0  0  0  0  0  0  0  0  0  # atno 6909 bound_to 6896
  144.7266  139.9513  143.6432 H   0  0  0  0  0  0  0  0  0  0  0  0  # atno 7974 bound_to 7965
  156.1718  140.1643  156.8434 H   0  0  0  0  0  0  0  0  0  0  0  0  # atno 8008 bound_to 7997
  154.5264  140.0766  156.8301 H   0  0  0  0  0  0  0  0  0  0  0  0  # atno 8009 bound_to 7997
  155.3497  140.3389  155.4241 H   0  0  0  0  0  0  0  0  0  0  0  0  # atno 8010 bound_to 7997
  140.7035  143.6056  150.8754 H   0  0  0  0  0  0  0  0  0  0  0  0  # atno 10167 bound_to 10162
  156.8718  130.5623  149.5657 H   0  0  0  0  0  0  0  0  0  0  0  0  # atno 10718 bound_to 10713
  154.2844  135.2762  155.2683 H   0  0  0  0  0  0  0  0  0  0  0  0  # atno 10763 bound_to 10752
  154.5190  135.5761  153.6668 H   0  0  0  0  0  0  0  0  0  0  0  0  # atno 10764 bound_to 10752
  152.9924  135.6199  154.3005 H   0  0  0  0  0  0  0  0  0  0  0  0  # atno 10765 bound_to 10752
  140.2530  134.3281  155.7883 H   0  0  0  0  0  0  0  0  0  0  0  0  # atno 11005 bound_to 11000
  146.0709  139.3698  143.0523 LP  0  0  0  0  0  0  0  0  0  0  0  0  # atno 17320 bound_to 7965
  145.7969  140.9789  143.1019 LP  0  0  0  0  0  0  0  0  0  0  0  0  # atno 17321 bound_to 7965
  139.9780  143.5983  152.2952 LP  0  0  0  0  0  0  0  0  0  0  0  0  # atno 17342 bound_to 10162
  139.6593  144.7662  151.1993 LP  0  0  0  0  0  0  0  0  0  0  0  0  # atno 17343 bound_to 10162
  156.0722  130.5752  150.9405 LP  0  0  0  0  0  0  0  0  0  0  0  0  # atno 17370 bound_to 10713
  157.6191  131.0931  150.8656 LP  0  0  0  0  0  0  0  0  0  0  0  0  # atno 17371 bound_to 10713
  141.2199  133.7364  156.9067 LP  0  0  0  0  0  0  0  0  0  0  0  0  # atno 17394 bound_to 11000
  140.1539  134.9211  157.2628 LP  0  0  0  0  0  0  0  0  0  0  0  0  # atno 17395 bound_to 11000

$$$$
