AV-unprocessed.smi:3249|AV-procd|sdf|12420|dock8
  -GOLD-   2272018303D 1   1.00000     0.00000
 Structure written by MMmdl.
 44 45  0  0  0  0  0  0  0  0  2 V2000
  145.7529  143.3469  154.4459 C   0  0  0  0  0  0  0  0  0  0  0  0
  146.5717  142.1083  154.2230 C   0  0  0  0  0  0  0  0  0  0  0  0
  147.9902  141.9922  154.1870 C   0  0  0  0  0  0  0  0  0  0  0  0
  148.3985  140.7535  153.9669 N   0  0  0  0  0  0  0  0  0  0  0  0
  147.2595  140.0341  153.8565 N   0  0  0  0  0  0  0  0  0  0  0  0
  147.3193  138.6003  153.6011 C   0  0  1  0  0  0  0  0  0  0  0  0
  147.1790  137.8256  154.9253 C   0  0  0  0  0  0  0  0  0  0  0  0
  146.2892  138.1538  152.5282 C   0  0  1  0  0  0  0  0  0  0  0  0
  146.5973  138.7105  151.1263 C   0  0  0  0  0  0  0  0  0  0  0  0
  146.2307  136.6767  152.4523 N   0  3  0  0  0  0  0  0  0  0  0  0
  145.1598  136.1410  151.5860 C   0  0  0  0  0  0  0  0  0  0  0  0
  145.5441  134.7787  150.9895 C   0  0  2  0  0  0  0  0  0  0  0  0
  144.4309  134.1773  150.1062 C   0  0  0  0  0  0  0  0  0  0  0  0
  144.8251  132.7780  149.6195 C   0  0  0  0  0  0  0  0  0  0  0  0
  145.2180  131.9056  150.8161 C   0  0  0  0  0  0  0  0  0  0  0  0
  146.2817  132.6157  151.6683 C   0  0  0  0  0  0  0  0  0  0  0  0
  145.8027  133.8938  152.0765 O   0  0  0  0  0  0  0  0  0  0  0  0
  146.1426  140.8301  154.0037 C   0  0  0  0  0  0  0  0  0  0  0  0
  146.3710  144.1933  154.7464 H   0  0  0  0  0  0  0  0  0  0  0  0
  145.0069  143.2015  155.2274 H   0  0  0  0  0  0  0  0  0  0  0  0
  145.2197  143.6436  153.5427 H   0  0  0  0  0  0  0  0  0  0  0  0
  148.7312  142.7681  154.3130 H   0  0  0  0  0  0  0  0  0  0  0  0
  148.3175  138.3979  153.2091 H   0  0  0  0  0  0  0  0  0  0  0  0
  147.3646  136.7604  154.7883 H   0  0  0  0  0  0  0  0  0  0  0  0
  146.1813  137.9369  155.3508 H   0  0  0  0  0  0  0  0  0  0  0  0
  147.8962  138.1835  155.6648 H   0  0  0  0  0  0  0  0  0  0  0  0
  145.3065  138.5344  152.8132 H   0  0  0  0  0  0  0  0  0  0  0  0
  146.5508  139.7994  151.1020 H   0  0  0  0  0  0  0  0  0  0  0  0
  145.8761  138.3455  150.3944 H   0  0  0  0  0  0  0  0  0  0  0  0
  147.5911  138.4123  150.7910 H   0  0  0  0  0  0  0  0  0  0  0  0
  147.1162  136.3436  152.0986 H   0  0  0  0  0  0  0  0  0  0  0  0
  144.2535  136.0308  152.1828 H   0  0  0  0  0  0  0  0  0  0  0  0
  144.9336  136.8548  150.7927 H   0  0  0  0  0  0  0  0  0  0  0  0
  146.4613  134.8931  150.4083 H   0  0  0  0  0  0  0  0  0  0  0  0
  143.5019  134.1156  150.6745 H   0  0  0  0  0  0  0  0  0  0  0  0
  144.2311  134.8217  149.2498 H   0  0  0  0  0  0  0  0  0  0  0  0
  144.0033  132.3200  149.0684 H   0  0  0  0  0  0  0  0  0  0  0  0
  145.6649  132.8520  148.9277 H   0  0  0  0  0  0  0  0  0  0  0  0
  144.3376  131.7029  151.4273 H   0  0  0  0  0  0  0  0  0  0  0  0
  145.5904  130.9398  150.4733 H   0  0  0  0  0  0  0  0  0  0  0  0
  146.5065  132.0242  152.5559 H   0  0  0  0  0  0  0  0  0  0  0  0
  147.2154  132.7249  151.1144 H   0  0  0  0  0  0  0  0  0  0  0  0
  145.1427  140.4258  153.9419 H   0  0  0  0  0  0  0  0  0  0  0  0
  146.1029  136.3154  153.3869 H   0  0  0  0  0  0  0  0  0  0  0  0
  1  2  1  0  0  0  0
  1 19  1  0  0  0  0
  1 20  1  0  0  0  0
  1 21  1  0  0  0  0
  2 18  2  0  0  0  0
  2  3  1  0  0  0  0
  3  4  2  0  0  0  0
  3 22  1  0  0  0  0
  4  5  1  0  0  0  0
  5  6  1  0  0  0  0
  5 18  1  0  0  0  0
  6  7  1  0  0  0  0
  6  8  1  0  0  0  0
  6 23  1  0  0  0  0
  7 24  1  0  0  0  0
  7 25  1  0  0  0  0
  7 26  1  0  0  0  0
  8  9  1  0  0  0  0
  8 10  1  0  0  0  0
  8 27  1  0  0  0  0
  9 28  1  0  0  0  0
  9 29  1  0  0  0  0
  9 30  1  0  0  0  0
 10 11  1  0  0  0  0
 10 31  1  0  0  0  0
 10 44  1  0  0  0  0
 11 12  1  0  0  0  0
 11 32  1  0  0  0  0
 11 33  1  0  0  0  0
 12 17  1  0  0  0  0
 12 13  1  0  0  0  0
 12 34  1  0  0  0  0
 13 14  1  0  0  0  0
 13 35  1  0  0  0  0
 13 36  1  0  0  0  0
 14 15  1  0  0  0  0
 14 37  1  0  0  0  0
 14 38  1  0  0  0  0
 15 16  1  0  0  0  0
 15 39  1  0  0  0  0
 15 40  1  0  0  0  0
 16 17  1  0  0  0  0
 16 41  1  0  0  0  0
 16 42  1  0  0  0  0
 18 43  1  0  0  0  0
M  CHG  1  10   1
M  END
> <s_m_source_file>
AV-unprocessed.smi

> <i_m_source_file_index>
3249

> <i_lp_mmshare_version>
43012

> <i_f3d_flags>
0

> <s_epik_input>
W0NIM11jMVtjSF1ubihbY0hdMSlbQ0BIXShbQ0gzXSlbQ0BIXShbQ0gzXSlbTkhdW0NIMl1bQ0BASF0yW0NIMl1bQ0gyXVtDSDJdW0NIMl1PMg==

> <s_epik_cmdline>
J2VwaWtfcHl0aG9uJywgJy1waCcsICc3LjAnLCAnLXRuJywgJzgnLCAnLW1hJywgJzIwMCcsICctbWV0YWxfYmluZGluZycsICctaW1hZScsICc8aW5maWxlLm1hZT4nLCAnLW9tYWUnLCAnPG91dGZpbGUubWFlPic=

> <r_lp_tautomer_probability>
1

> <r_epik_Ionization_Penalty>
0.00659207

> <r_epik_Ionization_Penalty_Charging>
0.00656881

> <r_epik_Ionization_Penalty_Neutral>
2.32662e-05

> <r_epik_State_Penalty>
0.0048654

> <r_epik_Charging_Adjusted_Penalty>
0.0114342

> <i_epik_Tot_Q>
1

> <i_epik_Tot_abs_Q>
1

> <r_epik_Metal_State_Penalty>
-0

> <b_epik_Metal_Only>
0

> <s_lp_Force_Field>
OPLS_2005

> <r_lp_Energy>
19.2424

> <b_lp_Chiralities_Consistent>
1

> <s_lp_Variant>
AV-unprocessed.smi:3249-4

> <Gold.Version>
5.8.1

> <Gold.Id.Protein>
6NUR|6NUR_protein|mol2

> <Gold.PLP.Fitness>
43.2525

> <Gold.PLP.PLP>
-32.8447

> <Gold.PLP.part.hbond>
-1.0000

> <Gold.PLP.part.metal>
0.0000

> <Gold.PLP.part.buried>
1.4395

> <Gold.PLP.part.nonpolar>
-33.9023

> <Gold.PLP.part.repulsive>
1.0110

> <Gold.PLP.ligand.clash>
0.0000

> <Gold.PLP.ligand.torsion>
0.8481

> <Gold.PLP.Chemscore.Hbond>
2.0000

> <Gold.PLP.Chemscore.CHOScore>
2.0000

> <Gold.PLP.Chemscore.Metal>
0.0000

> <Gold.Chemscore.Hbonds>
donor molecule, donor type, donor heavy atom, donor atom, acceptor molecule, acceptor atom, score
      L1  H    10    31       P1  7948  2.00
      L1  C     3    22       P1  8028  1.00
      L1  C    18    43       P1 10175  1.00

> <Gold.PLP.Chemscore.Internal.Correction>
0.1040

> <Gold.Rescore>
     Score         DG    S(hbond)    S(metal)    S(lipo)     H(rot)  DE(clash)    DE(int)     intcor
     14.02     -15.11       1.00        0.00      87.38       1.53       0.53       0.55       ----

> <Gold.Chemscore.Fitness>
14.0248

> <Gold.Chemscore.DG>
-15.1127

> <Gold.Chemscore.ZeroCoef>
-5.4800

> <Gold.Chemscore.Hbond>
0.9982

> <Gold.Chemscore.Metal>
0.0000

> <Gold.Chemscore.Lipo>
87.3845

> <Gold.Chemscore.Internal_Hbond>
0.0000

> <Gold.Chemscore.DEClash>
0.5336

> <Gold.Chemscore.DEInternal>
0.5543

> <Gold.Chemscore.Rot>
1.5333

> <Gold.Chemscore.Internal.Correction>
   9.000000E+99

> <Gold.Chemscore.Hbonds>
donor molecule, donor type, donor heavy atom, donor atom, acceptor molecule, acceptor atom, score
      L1  H    10    31       P1  7948  1.00

> <Gold.Chemscore.Hbond.Weighted>
-3.3339

> <Gold.Chemscore.Metal.Weighted>
-0.0000

> <Gold.Chemscore.Lipo.Weighted>
-10.2240

> <Gold.Chemscore.Internal_Hbond.Weighted>
0.0000

> <Gold.Chemscore.DEClash.Weighted>
0.5336

> <Gold.Chemscore.DEInternal.Weighted>
0.5543

> <Gold.Chemscore.Rot.Weighted>
3.9252

> <Gold.Chemscore.Internal.Correction.Weighted>
   9.000000E+99

> <Gold.Protein.RotatedTorsions>
[ 6907 6896 6895 6894 ] final   25.87 input  -60.11 | X-H torsion
[ 7974 7965 7964 7962 ] final  -54.17 input  175.53 | X-H torsion
[ 8008 7997 7996 7995 ] final  149.79 input   59.86 | X-H torsion
[ 10167 10162 10161 10158 ] final   47.68 input  -65.29 | X-H torsion
[ 10718 10713 10712 10709 ] final   21.02 input   66.30 | X-H torsion
[ 10763 10752 10751 10750 ] final  -41.42 input  -60.55 | X-H torsion
[ 11005 11000 10999 10996 ] final   72.54 input  -57.11 | X-H torsion

> <Gold.Protein.ActiveResidues>
 VAL166  LYS551  ARG553  GLY616  TRP617  ASP618  TYR619  PRO620  LYS621  CYS622 
 ASP623  PHE694  ASN695  SER759  ASP760  ASP761  ALA762  ILE779  LEU786  VAL792 
 PHE793  MET794  SER795  GLU796  ALA797  LYS798  CYS799  TRP800  GLU811  SER814 

> <Gold.Protein.RotatedAtoms>
  151.9790  135.0038  160.0556 H   0  0  0  0  0  0  0  0  0  0  0  0  # atno 6907 bound_to 6896
  152.1714  133.4641  159.4919 H   0  0  0  0  0  0  0  0  0  0  0  0  # atno 6908 bound_to 6896
  150.6902  134.1866  159.4312 H   0  0  0  0  0  0  0  0  0  0  0  0  # atno 6909 bound_to 6896
  145.8886  140.8089  142.9803 H   0  0  0  0  0  0  0  0  0  0  0  0  # atno 7974 bound_to 7965
  156.2741  140.2092  156.5913 H   0  0  0  0  0  0  0  0  0  0  0  0  # atno 8008 bound_to 7997
  154.6980  140.0523  157.0453 H   0  0  0  0  0  0  0  0  0  0  0  0  # atno 8009 bound_to 7997
  155.0774  140.3183  155.4614 H   0  0  0  0  0  0  0  0  0  0  0  0  # atno 8010 bound_to 7997
  140.3011  144.2933  150.6219 H   0  0  0  0  0  0  0  0  0  0  0  0  # atno 10167 bound_to 10162
  157.1326  130.6597  149.5956 H   0  0  0  0  0  0  0  0  0  0  0  0  # atno 10718 bound_to 10713
  153.9621  135.6738  153.4745 H   0  0  0  0  0  0  0  0  0  0  0  0  # atno 10763 bound_to 10752
  153.0833  135.4912  154.8543 H   0  0  0  0  0  0  0  0  0  0  0  0  # atno 10764 bound_to 10752
  154.7266  135.3129  154.8920 H   0  0  0  0  0  0  0  0  0  0  0  0  # atno 10765 bound_to 10752
  139.9485  134.7269  156.0919 H   0  0  0  0  0  0  0  0  0  0  0  0  # atno 11005 bound_to 11000
  144.6729  140.1494  143.7431 LP  0  0  0  0  0  0  0  0  0  0  0  0  # atno 17320 bound_to 7965
  145.8936  139.2390  143.1535 LP  0  0  0  0  0  0  0  0  0  0  0  0  # atno 17321 bound_to 7965
  140.5650  143.2187  151.7699 LP  0  0  0  0  0  0  0  0  0  0  0  0  # atno 17342 bound_to 10162
  139.4915  144.4296  151.9887 LP  0  0  0  0  0  0  0  0  0  0  0  0  # atno 17343 bound_to 10162
  155.9805  130.4805  150.6774 LP  0  0  0  0  0  0  0  0  0  0  0  0  # atno 17370 bound_to 10713
  157.4379  131.0857  151.0974 LP  0  0  0  0  0  0  0  0  0  0  0  0  # atno 17371 bound_to 10713
  141.1142  133.6633  156.3053 LP  0  0  0  0  0  0  0  0  0  0  0  0  # atno 17394 bound_to 11000
  140.5775  134.5779  157.5472 LP  0  0  0  0  0  0  0  0  0  0  0  0  # atno 17395 bound_to 11000

$$$$
