AV-unprocessed.smi:3292|AV-procd|sdf|12628|dock9
  -GOLD-   2272018563D 1   1.00000     0.00000
 Structure written by MMmdl.
 38 39  0  0  0  0  0  0  0  0  1 V2000
  144.1385  136.7223  152.3450 C   0  0  0  0  0  0  0  0  0  0  0  0
  145.2064  135.6232  152.2206 C   0  0  1  0  0  0  0  0  0  0  0  0
  145.4198  135.1436  150.7684 C   0  0  0  0  0  0  0  0  0  0  0  0
  145.0475  133.7552  150.5758 N   0  0  0  0  0  0  0  0  0  0  0  0
  143.7618  133.2314  150.5485 C   0  0  0  0  0  0  0  0  0  0  0  0
  143.8938  131.8762  150.3456 C   0  0  0  0  0  0  0  0  0  0  0  0
  145.2437  131.5459  150.2498 N   0  0  0  0  0  0  0  0  0  0  0  0
  145.8655  132.7085  150.3986 C   0  0  0  0  0  0  0  0  0  0  0  0
  146.4657  136.1111  152.7759 N   0  0  0  0  0  0  0  0  0  0  0  0
  146.5925  136.7747  153.9339 C   0  0  0  0  0  0  0  0  0  0  0  0
  145.6481  137.0679  154.6673 O   0  0  0  0  0  0  0  0  0  0  0  0
  147.8726  137.0690  154.2014 N   0  0  0  0  0  0  0  0  0  0  0  0
  148.3479  137.7667  155.3924 C   0  0  0  0  0  0  0  0  0  0  0  0
  149.2239  138.9827  155.0359 C   0  0  1  0  0  0  0  0  0  0  0  0
  149.5681  139.8578  156.2236 C   0  0  0  0  0  0  0  0  0  0  0  0
  150.7535  140.6593  155.6939 C   0  0  0  0  0  0  0  0  0  0  0  0
  151.4140  139.8088  154.7611 O   0  0  0  0  0  0  0  0  0  0  0  0
  150.6227  138.6515  154.5109 C   0  0  0  0  0  0  0  0  0  0  0  0
  143.1588  136.3661  152.0256 H   0  0  0  0  0  0  0  0  0  0  0  0
  144.3916  137.5918  151.7375 H   0  0  0  0  0  0  0  0  0  0  0  0
  144.0383  137.0557  153.3785 H   0  0  0  0  0  0  0  0  0  0  0  0
  144.8690  134.7754  152.8201 H   0  0  0  0  0  0  0  0  0  0  0  0
  144.8411  135.7580  150.0768 H   0  0  0  0  0  0  0  0  0  0  0  0
  146.4661  135.2523  150.4800 H   0  0  0  0  0  0  0  0  0  0  0  0
  142.8845  133.8497  150.6709 H   0  0  0  0  0  0  0  0  0  0  0  0
  143.1275  131.1196  150.2638 H   0  0  0  0  0  0  0  0  0  0  0  0
  146.9414  132.8011  150.3737 H   0  0  0  0  0  0  0  0  0  0  0  0
  147.3017  135.9187  152.2436 H   0  0  0  0  0  0  0  0  0  0  0  0
  148.5742  136.7832  153.5343 H   0  0  0  0  0  0  0  0  0  0  0  0
  147.4723  138.1023  155.9486 H   0  0  0  0  0  0  0  0  0  0  0  0
  148.8844  137.0842  156.0539 H   0  0  0  0  0  0  0  0  0  0  0  0
  148.7079  139.5965  154.2955 H   0  0  0  0  0  0  0  0  0  0  0  0
  148.7400  140.4893  156.5468 H   0  0  0  0  0  0  0  0  0  0  0  0
  149.8812  139.2449  157.0705 H   0  0  0  0  0  0  0  0  0  0  0  0
  150.4059  141.5476  155.1651 H   0  0  0  0  0  0  0  0  0  0  0  0
  151.4272  140.9799  156.4888 H   0  0  0  0  0  0  0  0  0  0  0  0
  151.0553  137.8161  155.0632 H   0  0  0  0  0  0  0  0  0  0  0  0
  150.6230  138.3925  153.4518 H   0  0  0  0  0  0  0  0  0  0  0  0
  1  2  1  0  0  0  0
  1 19  1  0  0  0  0
  1 20  1  0  0  0  0
  1 21  1  0  0  0  0
  2  3  1  0  0  0  0
  2  9  1  0  0  0  0
  2 22  1  0  0  0  0
  3  4  1  0  0  0  0
  3 23  1  0  0  0  0
  3 24  1  0  0  0  0
  4  8  1  0  0  0  0
  4  5  1  0  0  0  0
  5  6  2  0  0  0  0
  5 25  1  0  0  0  0
  6  7  1  0  0  0  0
  6 26  1  0  0  0  0
  7  8  2  0  0  0  0
  8 27  1  0  0  0  0
  9 10  1  0  0  0  0
  9 28  1  0  0  0  0
 10 11  2  0  0  0  0
 10 12  1  0  0  0  0
 12 13  1  0  0  0  0
 12 29  1  0  0  0  0
 13 14  1  0  0  0  0
 13 30  1  0  0  0  0
 13 31  1  0  0  0  0
 14 18  1  0  0  0  0
 14 15  1  0  0  0  0
 14 32  1  0  0  0  0
 15 16  1  0  0  0  0
 15 33  1  0  0  0  0
 15 34  1  0  0  0  0
 16 17  1  0  0  0  0
 16 35  1  0  0  0  0
 16 36  1  0  0  0  0
 17 18  1  0  0  0  0
 18 37  1  0  0  0  0
 18 38  1  0  0  0  0
M  END
> <s_m_source_file>
AV-unprocessed.smi

> <i_m_source_file_index>
3292

> <i_lp_mmshare_version>
43012

> <i_f3d_flags>
0

> <s_epik_input>
W2NIXTFuW2NIXVtjSF1uMVtDSDJdW0NAQEhdKFtDSDNdKVtOSF1DKD1PKVtOSF1bQ0gyXVtDQEBIXTJbQ0gyXVtDSDJdT1tDSDJdMg==

> <s_epik_cmdline>
J2VwaWtfcHl0aG9uJywgJy1waCcsICc3LjAnLCAnLXRuJywgJzgnLCAnLW1hJywgJzIwMCcsICctbWV0YWxfYmluZGluZycsICctaW1hZScsICc8aW5maWxlLm1hZT4nLCAnLW9tYWUnLCAnPG91dGZpbGUubWFlPic=

> <r_lp_tautomer_probability>
1

> <r_epik_Ionization_Penalty>
0.621291

> <r_epik_Ionization_Penalty_Charging>
0.621234

> <r_epik_Ionization_Penalty_Neutral>
5.72199e-05

> <r_epik_State_Penalty>
0.637278

> <r_epik_Charging_Adjusted_Penalty>
1.25851

> <i_epik_Tot_Q>
0

> <i_epik_Tot_abs_Q>
0

> <r_epik_Metal_State_Penalty>
0.306757

> <b_epik_Metal_Only>
0

> <s_lp_Force_Field>
OPLS_2005

> <r_lp_Energy>
18.205

> <b_lp_Chiralities_Consistent>
1

> <s_lp_Variant>
AV-unprocessed.smi:3292-8

> <Gold.Version>
5.8.1

> <Gold.Id.Protein>
6NUR|6NUR_protein|mol2

> <Gold.PLP.Fitness>
42.5854

> <Gold.PLP.PLP>
-28.8679

> <Gold.PLP.part.hbond>
-3.0000

> <Gold.PLP.part.metal>
0.0000

> <Gold.PLP.part.buried>
-4.3489

> <Gold.PLP.part.nonpolar>
-22.5279

> <Gold.PLP.part.repulsive>
0.2315

> <Gold.PLP.ligand.clash>
0.0000

> <Gold.PLP.ligand.torsion>
1.1124

> <Gold.PLP.Chemscore.Hbond>
2.9920

> <Gold.PLP.Chemscore.CHOScore>
2.3007

> <Gold.PLP.Chemscore.Metal>
0.0000

> <Gold.Chemscore.Hbonds>
donor molecule, donor type, donor heavy atom, donor atom, acceptor molecule, acceptor atom, score
      L1  H     9    28       P1  7948  1.00
      L1  H    12    29       P1  7948  0.98
      P1  H  7989  7998       L1    17  1.00
      L1  C     5    25       P1 10186  1.00
      L1  C     6    26       P1 10952  1.00
      L1  C     8    27       P1 10747  0.31

> <Gold.PLP.Chemscore.Internal.Correction>
0.0640

> <Gold.Rescore>
     Score         DG    S(hbond)    S(metal)    S(lipo)     H(rot)  DE(clash)    DE(int)     intcor
     13.26     -16.10       2.83        0.00      57.08       2.16       0.00       2.84       ----

> <Gold.Chemscore.Fitness>
13.2606

> <Gold.Chemscore.DG>
-16.1005

> <Gold.Chemscore.ZeroCoef>
-5.4800

> <Gold.Chemscore.Hbond>
2.8341

> <Gold.Chemscore.Metal>
0.0000

> <Gold.Chemscore.Lipo>
57.0795

> <Gold.Chemscore.Internal_Hbond>
0.0000

> <Gold.Chemscore.DEClash>
0.0048

> <Gold.Chemscore.DEInternal>
2.8351

> <Gold.Chemscore.Rot>
2.1577

> <Gold.Chemscore.Internal.Correction>
   9.000000E+99

> <Gold.Chemscore.Hbonds>
donor molecule, donor type, donor heavy atom, donor atom, acceptor molecule, acceptor atom, score
      L1  H     9    28       P1  7948  0.97
      L1  H    12    29       P1  7948  0.93
      P1  H  7989  7998       L1    17  0.28

> <Gold.Chemscore.Hbond.Weighted>
-9.4659

> <Gold.Chemscore.Metal.Weighted>
-0.0000

> <Gold.Chemscore.Lipo.Weighted>
-6.6783

> <Gold.Chemscore.Internal_Hbond.Weighted>
0.0000

> <Gold.Chemscore.DEClash.Weighted>
0.0048

> <Gold.Chemscore.DEInternal.Weighted>
2.8351

> <Gold.Chemscore.Rot.Weighted>
5.5237

> <Gold.Chemscore.Internal.Correction.Weighted>
   9.000000E+99

> <Gold.Protein.RotatedTorsions>
[ 6907 6896 6895 6894 ] final -154.07 input  -60.11 | X-H torsion
[ 7974 7965 7964 7962 ] final  -58.62 input  175.53 | X-H torsion
[ 8008 7997 7996 7995 ] final   15.44 input   59.86 | X-H torsion
[ 10167 10162 10161 10158 ] final  -32.30 input  -65.29 | X-H torsion
[ 10718 10713 10712 10709 ] final  -13.14 input   66.30 | X-H torsion
[ 10763 10752 10751 10750 ] final -137.90 input  -60.55 | X-H torsion
[ 11005 11000 10999 10996 ] final -137.23 input  -57.11 | X-H torsion

> <Gold.Protein.ActiveResidues>
 VAL166  LYS551  ARG553  GLY616  TRP617  ASP618  TYR619  PRO620  LYS621  CYS622 
 ASP623  PHE694  ASN695  SER759  ASP760  ASP761  ALA762  ILE779  LEU786  VAL792 
 PHE793  MET794  SER795  GLU796  ALA797  LYS798  CYS799  TRP800  GLU811  SER814 

> <Gold.Protein.RotatedAtoms>
  151.2520  133.4345  159.2611 H   0  0  0  0  0  0  0  0  0  0  0  0  # atno 6907 bound_to 6896
  151.0609  134.9736  159.8270 H   0  0  0  0  0  0  0  0  0  0  0  0  # atno 6908 bound_to 6896
  152.5398  134.2470  159.8937 H   0  0  0  0  0  0  0  0  0  0  0  0  # atno 6909 bound_to 6896
  145.8372  140.8441  143.0053 H   0  0  0  0  0  0  0  0  0  0  0  0  # atno 7974 bound_to 7965
  154.8626  140.2946  155.5529 H   0  0  0  0  0  0  0  0  0  0  0  0  # atno 8008 bound_to 7997
  156.3020  140.2475  156.3536 H   0  0  0  0  0  0  0  0  0  0  0  0  # atno 8009 bound_to 7997
  154.8902  140.0395  157.1823 H   0  0  0  0  0  0  0  0  0  0  0  0  # atno 8010 bound_to 7997
  140.7223  143.3705  151.1788 H   0  0  0  0  0  0  0  0  0  0  0  0  # atno 10167 bound_to 10162
  156.6345  130.4910  149.6117 H   0  0  0  0  0  0  0  0  0  0  0  0  # atno 10718 bound_to 10713
  154.8650  135.3628  154.5298 H   0  0  0  0  0  0  0  0  0  0  0  0  # atno 10763 bound_to 10752
  153.5924  135.7015  153.5422 H   0  0  0  0  0  0  0  0  0  0  0  0  # atno 10764 bound_to 10752
  153.3362  135.4110  155.1497 H   0  0  0  0  0  0  0  0  0  0  0  0  # atno 10765 bound_to 10752
  140.8731  134.2026  157.4639 H   0  0  0  0  0  0  0  0  0  0  0  0  # atno 11005 bound_to 11000
  144.6736  140.0758  143.7471 LP  0  0  0  0  0  0  0  0  0  0  0  0  # atno 17320 bound_to 7965
  145.9506  139.2731  143.1215 LP  0  0  0  0  0  0  0  0  0  0  0  0  # atno 17321 bound_to 7965
  139.7275  143.9125  152.3008 LP  0  0  0  0  0  0  0  0  0  0  0  0  # atno 17342 bound_to 10162
  139.8903  144.6969  150.8778 LP  0  0  0  0  0  0  0  0  0  0  0  0  # atno 17343 bound_to 10162
  156.2208  130.6736  151.1366 LP  0  0  0  0  0  0  0  0  0  0  0  0  # atno 17370 bound_to 10713
  157.7190  131.0693  150.6213 LP  0  0  0  0  0  0  0  0  0  0  0  0  # atno 17371 bound_to 10713
  139.8713  134.9783  156.4993 LP  0  0  0  0  0  0  0  0  0  0  0  0  # atno 17394 bound_to 11000
  140.8550  133.8103  155.9207 LP  0  0  0  0  0  0  0  0  0  0  0  0  # atno 17395 bound_to 11000

$$$$
