AV-unprocessed.smi:1434|AV-procd|sdf|5856|dock8
  -GOLD-   22720 5533D 1   1.00000     0.00000
 Structure written by MMmdl.
 44 45  0  0  0  0  0  0  0  0  3 V2000
  154.1179  138.3248  154.6284 C   0  0  0  0  0  0  0  0  0  0  0  0
  152.6779  138.4652  155.7706 S   0  0  0  0  0  0  0  0  0  0  0  0
  152.0274  137.1439  155.7783 O   0  0  0  0  0  0  0  0  0  0  0  0
  153.2477  138.9298  157.0443 O   0  0  0  0  0  0  0  0  0  0  0  0
  151.7949  139.6351  155.0640 N   0  5  0  0  0  0  0  0  0  0  0  0
  150.4040  139.8699  155.4325 C   0  0  1  0  0  0  0  0  0  0  0  0
  150.3108  140.9236  156.5670 C   0  0  0  0  0  0  0  0  0  0  0  0
  148.8635  141.4158  156.8334 C   0  0  0  0  0  0  0  0  0  0  0  0
  148.1429  141.8687  155.5426 C   0  0  0  0  0  0  0  0  0  0  0  0
  148.2165  140.7493  154.5750 N   0  0  0  0  0  0  0  0  0  0  0  0
  147.1560  140.0461  154.0937 C   0  0  0  0  0  0  0  0  0  0  0  0
  146.0272  140.1009  154.5835 O   0  0  0  0  0  0  0  0  0  0  0  0
  147.4280  139.2645  153.0359 N   0  0  0  0  0  0  0  0  0  0  0  0
  146.4549  138.4223  152.3547 C   0  0  0  0  0  0  0  0  0  0  0  0
  145.9177  137.3419  153.3033 C   0  0  0  0  0  0  0  0  0  0  0  0
  145.3948  136.1304  152.5561 C   0  0  0  0  0  0  0  0  0  0  0  0
  144.0140  135.9011  152.3702 C   0  0  0  0  0  0  0  0  0  0  0  0
  143.5954  134.7588  151.6561 C   0  0  0  0  0  0  0  0  0  0  0  0
  144.5642  133.8708  151.1444 C   0  0  0  0  0  0  0  0  0  0  0  0
  145.9294  134.1497  151.3573 C   0  0  0  0  0  0  0  0  0  0  0  0
  146.2913  135.2556  152.0445 N   0  3  0  0  0  0  0  0  0  0  0  0
  149.6108  140.4045  154.2087 C   0  0  0  0  0  0  0  0  0  0  0  0
  154.8374  137.6211  155.0454 H   0  0  0  0  0  0  0  0  0  0  0  0
  154.5899  139.3007  154.5178 H   0  0  0  0  0  0  0  0  0  0  0  0
  153.7896  137.9651  153.6539 H   0  0  0  0  0  0  0  0  0  0  0  0
  149.9153  138.9545  155.7684 H   0  0  0  0  0  0  0  0  0  0  0  0
  150.7368  140.5249  157.4881 H   0  0  0  0  0  0  0  0  0  0  0  0
  150.9206  141.7892  156.3026 H   0  0  0  0  0  0  0  0  0  0  0  0
  148.2837  140.6231  157.3106 H   0  0  0  0  0  0  0  0  0  0  0  0
  148.8868  142.2392  157.5478 H   0  0  0  0  0  0  0  0  0  0  0  0
  147.1345  142.2028  155.7848 H   0  0  0  0  0  0  0  0  0  0  0  0
  148.6480  142.7374  155.1178 H   0  0  0  0  0  0  0  0  0  0  0  0
  148.3734  139.2605  152.6816 H   0  0  0  0  0  0  0  0  0  0  0  0
  145.6308  139.0369  151.9879 H   0  0  0  0  0  0  0  0  0  0  0  0
  146.9290  137.9637  151.4857 H   0  0  0  0  0  0  0  0  0  0  0  0
  146.7029  137.0221  153.9901 H   0  0  0  0  0  0  0  0  0  0  0  0
  145.1171  137.7519  153.9208 H   0  0  0  0  0  0  0  0  0  0  0  0
  143.2835  136.5918  152.7658 H   0  0  0  0  0  0  0  0  0  0  0  0
  142.5435  134.5668  151.5019 H   0  0  0  0  0  0  0  0  0  0  0  0
  144.2640  132.9901  150.5953 H   0  0  0  0  0  0  0  0  0  0  0  0
  146.7369  133.5269  151.0005 H   0  0  0  0  0  0  0  0  0  0  0  0
  150.0915  141.3023  153.8164 H   0  0  0  0  0  0  0  0  0  0  0  0
  149.6577  139.6757  153.3979 H   0  0  0  0  0  0  0  0  0  0  0  0
  147.2853  135.4380  152.1846 H   0  0  0  0  0  0  0  0  0  0  0  0
  1  2  1  0  0  0  0
  1 23  1  0  0  0  0
  1 24  1  0  0  0  0
  1 25  1  0  0  0  0
  2  3  2  0  0  0  0
  2  4  2  0  0  0  0
  2  5  1  0  0  0  0
  5  6  1  0  0  0  0
  6 22  1  0  0  0  0
  6  7  1  0  0  0  0
  6 26  1  0  0  0  0
  7  8  1  0  0  0  0
  7 27  1  0  0  0  0
  7 28  1  0  0  0  0
  8  9  1  0  0  0  0
  8 29  1  0  0  0  0
  8 30  1  0  0  0  0
  9 10  1  0  0  0  0
  9 31  1  0  0  0  0
  9 32  1  0  0  0  0
 10 11  1  0  0  0  0
 10 22  1  0  0  0  0
 11 12  2  0  0  0  0
 11 13  1  0  0  0  0
 13 14  1  0  0  0  0
 13 33  1  0  0  0  0
 14 15  1  0  0  0  0
 14 34  1  0  0  0  0
 14 35  1  0  0  0  0
 15 16  1  0  0  0  0
 15 36  1  0  0  0  0
 15 37  1  0  0  0  0
 16 21  1  0  0  0  0
 16 17  2  0  0  0  0
 17 18  1  0  0  0  0
 17 38  1  0  0  0  0
 18 19  2  0  0  0  0
 18 39  1  0  0  0  0
 19 20  1  0  0  0  0
 19 40  1  0  0  0  0
 20 21  2  0  0  0  0
 20 41  1  0  0  0  0
 21 44  1  0  0  0  0
 22 42  1  0  0  0  0
 22 43  1  0  0  0  0
M  CHG  1   5  -1
M  CHG  1  21   1
M  END
> <s_m_source_file>
AV-unprocessed.smi

> <i_m_source_file_index>
1434

> <i_lp_mmshare_version>
43012

> <i_f3d_flags>
0

> <s_epik_input>
W0NIM11TKD1PKSg9TylbTkhdW0NAQEhdMVtDSDJdW0NIMl1bQ0gyXU4oW0NIMl0xKUMoPU8pW05IXVtDSDJdW0NIMl1jMltjSF1bY0hdW2NIXVtjSF1uMg==

> <s_epik_cmdline>
J2VwaWtfcHl0aG9uJywgJy1waCcsICc3LjAnLCAnLXRuJywgJzgnLCAnLW1hJywgJzIwMCcsICctbWV0YWxfYmluZGluZycsICctaW1hZScsICc8aW5maWxlLm1hZT4nLCAnLW9tYWUnLCAnPG91dGZpbGUubWFlPic=

> <r_epik_Ionization_Penalty>
8.07847

> <r_epik_Ionization_Penalty_Charging>
8.0784

> <r_epik_Ionization_Penalty_Neutral>
6.25603e-05

> <r_epik_State_Penalty>
8.17261

> <r_epik_Charging_Adjusted_Penalty>
16.251

> <i_epik_Tot_Q>
0

> <i_epik_Tot_abs_Q>
2

> <r_epik_Metal_State_Penalty>
4.14042

> <b_epik_Metal_Only>
1

> <s_lp_Force_Field>
OPLS_2005

> <r_lp_Energy>
28.6508

> <b_lp_Chiralities_Consistent>
1

> <s_lp_Variant>
AV-unprocessed.smi:1434-8

> <Gold.Version>
5.8.1

> <Gold.Id.Protein>
6NUR|6NUR_protein|mol2

> <Gold.PLP.Fitness>
47.6811

> <Gold.PLP.PLP>
-33.1295

> <Gold.PLP.part.hbond>
-4.8626

> <Gold.PLP.part.metal>
0.0000

> <Gold.PLP.part.buried>
-0.3363

> <Gold.PLP.part.nonpolar>
-28.1303

> <Gold.PLP.part.repulsive>
0.2928

> <Gold.PLP.ligand.clash>
0.8116

> <Gold.PLP.ligand.torsion>
1.4506

> <Gold.PLP.Chemscore.Hbond>
5.7320

> <Gold.PLP.Chemscore.CHOScore>
0.0000

> <Gold.PLP.Chemscore.Metal>
0.0000

> <Gold.Chemscore.Hbonds>
donor molecule, donor type, donor heavy atom, donor atom, acceptor molecule, acceptor atom, score
      L1  H    13    33       P1  7957  0.70
      L1  H    21    44       P1  7948  2.00
      P1  H  7989  7998       L1     5  0.60
      P1  H  7997  8010       L1     4  1.00
      P1  H 10752 10765       L1     3  0.81

> <Gold.PLP.Chemscore.Internal.Correction>
1.0685

> <Gold.Rescore>
     Score         DG    S(hbond)    S(metal)    S(lipo)     H(rot)  DE(clash)    DE(int)     intcor
     19.63     -22.80       3.83        0.00      77.20       1.77       1.00       2.17       ----

> <Gold.Chemscore.Fitness>
19.6251

> <Gold.Chemscore.DG>
-22.7960

> <Gold.Chemscore.ZeroCoef>
-5.4800

> <Gold.Chemscore.Hbond>
3.8339

> <Gold.Chemscore.Metal>
0.0000

> <Gold.Chemscore.Lipo>
77.1962

> <Gold.Chemscore.Internal_Hbond>
0.0000

> <Gold.Chemscore.DEClash>
0.9996

> <Gold.Chemscore.DEInternal>
2.1713

> <Gold.Chemscore.Rot>
1.7661

> <Gold.Chemscore.Internal.Correction>
   9.000000E+99

> <Gold.Chemscore.Hbonds>
donor molecule, donor type, donor heavy atom, donor atom, acceptor molecule, acceptor atom, score
      L1  H    13    33       P1  7957  0.70
      L1  H    21    44       P1  7948  0.98
      P1  H  7989  7998       L1     5  0.04
      P1  H  7997  8010       L1     4  0.84
      P1  H 10752 10765       L1     3  0.74

> <Gold.Chemscore.Hbond.Weighted>
-12.8051

> <Gold.Chemscore.Metal.Weighted>
-0.0000

> <Gold.Chemscore.Lipo.Weighted>
-9.0320

> <Gold.Chemscore.Internal_Hbond.Weighted>
0.0000

> <Gold.Chemscore.DEClash.Weighted>
0.9996

> <Gold.Chemscore.DEInternal.Weighted>
2.1713

> <Gold.Chemscore.Rot.Weighted>
4.5211

> <Gold.Chemscore.Internal.Correction.Weighted>
   9.000000E+99

> <Gold.Protein.RotatedTorsions>
[ 6907 6896 6895 6894 ] final  -28.07 input  -60.11 | X-H torsion
[ 7974 7965 7964 7962 ] final -117.61 input  175.53 | X-H torsion
[ 8008 7997 7996 7995 ] final   45.31 input   59.86 | X-H torsion
[ 10167 10162 10161 10158 ] final  -26.74 input  -65.29 | X-H torsion
[ 10718 10713 10712 10709 ] final -157.42 input   66.30 | X-H torsion
[ 10763 10752 10751 10750 ] final -167.19 input  -60.55 | X-H torsion
[ 11005 11000 10999 10996 ] final  -61.24 input  -57.11 | X-H torsion

> <Gold.Protein.ActiveResidues>
 VAL166  LYS551  ARG553  GLY616  TRP617  ASP618  TYR619  PRO620  LYS621  CYS622 
 ASP623  PHE694  ASN695  SER759  ASP760  ASP761  ALA762  ILE779  LEU786  VAL792 
 PHE793  MET794  SER795  GLU796  ALA797  LYS798  CYS799  TRP800  GLU811  SER814 

> <Gold.Protein.RotatedAtoms>
  151.1380  135.0165  159.8612 H   0  0  0  0  0  0  0  0  0  0  0  0  # atno 6907 bound_to 6896
  152.5452  134.1532  159.8537 H   0  0  0  0  0  0  0  0  0  0  0  0  # atno 6908 bound_to 6896
  151.1605  133.4803  159.2627 H   0  0  0  0  0  0  0  0  0  0  0  0  # atno 6909 bound_to 6896
  145.0832  140.8440  143.4026 H   0  0  0  0  0  0  0  0  0  0  0  0  # atno 7974 bound_to 7965
  155.3338  140.3404  155.4239 H   0  0  0  0  0  0  0  0  0  0  0  0  # atno 8008 bound_to 7997
  156.1848  140.1676  156.8242 H   0  0  0  0  0  0  0  0  0  0  0  0  # atno 8009 bound_to 7997
  154.5374  140.0732  156.8434 H   0  0  0  0  0  0  0  0  0  0  0  0  # atno 8010 bound_to 7997
  140.7281  143.4152  151.1040 H   0  0  0  0  0  0  0  0  0  0  0  0  # atno 10167 bound_to 10162
  156.5400  130.8559  151.2745 H   0  0  0  0  0  0  0  0  0  0  0  0  # atno 10718 bound_to 10713
  154.6757  135.2946  154.9681 H   0  0  0  0  0  0  0  0  0  0  0  0  # atno 10763 bound_to 10752
  154.0693  135.6620  153.4826 H   0  0  0  0  0  0  0  0  0  0  0  0  # atno 10764 bound_to 10752
  153.0515  135.5171  154.7775 H   0  0  0  0  0  0  0  0  0  0  0  0  # atno 10765 bound_to 10752
  141.1317  133.6628  156.5345 H   0  0  0  0  0  0  0  0  0  0  0  0  # atno 11005 bound_to 11000
  145.1153  139.2729  143.5616 LP  0  0  0  0  0  0  0  0  0  0  0  0  # atno 17320 bound_to 7965
  146.3531  140.0761  142.8620 LP  0  0  0  0  0  0  0  0  0  0  0  0  # atno 17321 bound_to 7965
  139.7791  143.8382  152.3134 LP  0  0  0  0  0  0  0  0  0  0  0  0  # atno 17342 bound_to 10162
  139.8327  144.7246  150.9430 LP  0  0  0  0  0  0  0  0  0  0  0  0  # atno 17343 bound_to 10162
  157.7407  130.9855  150.2394 LP  0  0  0  0  0  0  0  0  0  0  0  0  # atno 17370 bound_to 10713
  156.2980  130.3754  149.7777 LP  0  0  0  0  0  0  0  0  0  0  0  0  # atno 17371 bound_to 10713
  140.4189  134.7205  157.4879 LP  0  0  0  0  0  0  0  0  0  0  0  0  # atno 17394 bound_to 11000
  140.0374  134.6317  155.9025 LP  0  0  0  0  0  0  0  0  0  0  0  0  # atno 17395 bound_to 11000

$$$$
