AV-unprocessed.smi:2655|AV-procd|sdf|10298|dock10
  -GOLD-   2272014313D 1   1.00000     0.00000
 Structure written by MMmdl.
 33 34  0  0  0  0  0  0  0  0  2 V2000
  152.2921  138.7479  155.7791 C   0  0  0  0  0  0  0  0  0  0  0  0
  150.9526  138.7907  155.1022 C   0  0  0  0  0  0  0  0  0  0  0  0
  150.7263  139.7106  154.1697 N   0  0  0  0  0  0  0  0  0  0  0  0
  149.4590  139.4806  153.7768 N   0  0  0  0  0  0  0  0  0  0  0  0
  148.8989  138.4285  154.4538 C   0  0  0  0  0  0  0  0  0  0  0  0
  147.6345  138.0357  154.2139 O   0  5  0  0  0  0  0  0  0  0  0  0
  149.8267  137.9389  155.3267 C   0  0  0  0  0  0  0  0  0  0  0  0
  149.7028  136.7939  156.2938 C   0  0  0  0  0  0  0  0  0  0  0  0
  150.1280  135.4675  155.6451 C   0  0  0  0  0  0  0  0  0  0  0  0
  149.2906  135.1407  154.4975 N   0  0  0  0  0  0  0  0  0  0  0  0
  148.5059  134.0582  154.3998 C   0  0  0  0  0  0  0  0  0  0  0  0
  148.3971  133.2159  155.2909 O   0  0  0  0  0  0  0  0  0  0  0  0
  147.8728  134.0251  153.2151 N   0  0  0  0  0  0  0  0  0  0  0  0
  146.9700  133.0472  152.7241 C   0  0  0  0  0  0  0  0  0  0  0  0
  146.1006  133.1870  151.6034 C   0  0  0  0  0  0  0  0  0  0  0  0
  145.4604  131.9807  151.5602 C   0  0  0  0  0  0  0  0  0  0  0  0
  144.4185  131.4175  150.6557 C   0  0  0  0  0  0  0  0  0  0  0  0
  145.8986  131.1754  152.5648 O   0  0  0  0  0  0  0  0  0  0  0  0
  146.8656  131.8658  153.3046 N   0  0  0  0  0  0  0  0  0  0  0  0
  152.1965  138.4370  156.8195 H   0  0  0  0  0  0  0  0  0  0  0  0
  152.7764  139.7249  155.7715 H   0  0  0  0  0  0  0  0  0  0  0  0
  152.9565  138.0419  155.2813 H   0  0  0  0  0  0  0  0  0  0  0  0
  149.0057  140.0366  153.0660 H   0  0  0  0  0  0  0  0  0  0  0  0
  148.6779  136.7127  156.6570 H   0  0  0  0  0  0  0  0  0  0  0  0
  150.3145  136.9753  157.1784 H   0  0  0  0  0  0  0  0  0  0  0  0
  151.1776  135.5046  155.3481 H   0  0  0  0  0  0  0  0  0  0  0  0
  150.0388  134.6568  156.3688 H   0  0  0  0  0  0  0  0  0  0  0  0
  149.3214  135.7815  153.7181 H   0  0  0  0  0  0  0  0  0  0  0  0
  148.0653  134.7891  152.5842 H   0  0  0  0  0  0  0  0  0  0  0  0
  145.9573  134.0215  150.9340 H   0  0  0  0  0  0  0  0  0  0  0  0
  144.2799  132.0511  149.7794 H   0  0  0  0  0  0  0  0  0  0  0  0
  143.4614  131.3396  151.1719 H   0  0  0  0  0  0  0  0  0  0  0  0
  144.7007  130.4225  150.3115 H   0  0  0  0  0  0  0  0  0  0  0  0
  1 20  1  0  0  0  0
  1 21  1  0  0  0  0
  1 22  1  0  0  0  0
  1  2  1  0  0  0  0
  2  7  1  0  0  0  0
  2  3  2  0  0  0  0
  3  4  1  0  0  0  0
  4 23  1  0  0  0  0
  4  5  1  0  0  0  0
  5  7  2  0  0  0  0
  5  6  1  0  0  0  0
  7  8  1  0  0  0  0
  8  9  1  0  0  0  0
  8 24  1  0  0  0  0
  8 25  1  0  0  0  0
  9 10  1  0  0  0  0
  9 26  1  0  0  0  0
  9 27  1  0  0  0  0
 10 11  1  0  0  0  0
 10 28  1  0  0  0  0
 11 12  2  0  0  0  0
 11 13  1  0  0  0  0
 13 14  1  0  0  0  0
 13 29  1  0  0  0  0
 14 19  2  0  0  0  0
 14 15  1  0  0  0  0
 15 16  2  0  0  0  0
 15 30  1  0  0  0  0
 16 17  1  0  0  0  0
 16 18  1  0  0  0  0
 17 31  1  0  0  0  0
 17 32  1  0  0  0  0
 17 33  1  0  0  0  0
 18 19  1  0  0  0  0
M  CHG  1   6  -1
M  END
> <s_m_source_file>
AV-unprocessed.smi

> <i_m_source_file_index>
2655

> <i_lp_mmshare_version>
43012

> <i_f3d_flags>
0

> <s_epik_input>
W0NIM11DMT1OW05IXUMoPU8pW0NASF0xW0NIMl1bQ0gyXVtOSF1DKD1PKVtOSF1jMltjSF1jKFtDSDNdKW9uMg==

> <s_epik_cmdline>
J2VwaWtfcHl0aG9uJywgJy1waCcsICc3LjAnLCAnLXRuJywgJzgnLCAnLW1hJywgJzIwMCcsICctbWV0YWxfYmluZGluZycsICctaW1hZScsICc8aW5maWxlLm1hZT4nLCAnLW9tYWUnLCAnPG91dGZpbGUubWFlPic=

> <r_lp_tautomer_probability>
0.99495

> <r_epik_Ionization_Penalty>
1.68606

> <r_epik_Ionization_Penalty_Charging>
0.00156442

> <r_epik_Ionization_Penalty_Neutral>
1.68449

> <r_epik_State_Penalty>
0.315845

> <r_epik_Charging_Adjusted_Penalty>
0.31741

> <i_epik_Tot_Q>
-1

> <i_epik_Tot_abs_Q>
1

> <r_epik_Metal_State_Penalty>
0.0445802

> <b_epik_Metal_Only>
0

> <s_lp_Force_Field>
OPLS_2005

> <r_lp_Energy>
-3.25288

> <b_lp_Chiralities_Consistent>
1

> <s_lp_Variant>
AV-unprocessed.smi:2655-1

> <Gold.Version>
5.8.1

> <Gold.Id.Protein>
6NUR|6NUR_protein|mol2

> <Gold.PLP.Fitness>
36.0391

> <Gold.PLP.PLP>
-26.9189

> <Gold.PLP.part.hbond>
-3.9549

> <Gold.PLP.part.metal>
0.0000

> <Gold.PLP.part.buried>
-2.8335

> <Gold.PLP.part.nonpolar>
-20.1304

> <Gold.PLP.part.repulsive>
0.7874

> <Gold.PLP.ligand.clash>
0.0000

> <Gold.PLP.ligand.torsion>
0.4274

> <Gold.PLP.Chemscore.Hbond>
3.3221

> <Gold.PLP.Chemscore.CHOScore>
0.0000

> <Gold.PLP.Chemscore.Metal>
0.0000

> <Gold.Chemscore.Hbonds>
donor molecule, donor type, donor heavy atom, donor atom, acceptor molecule, acceptor atom, score
      L1  H     4    23       P1  7957  0.45
      L1  H    10    28       P1  7948  1.00
      L1  H    13    29       P1  7948  1.00
      P1  H  7989  7998       L1     3  1.00

> <Gold.PLP.Chemscore.Internal.Correction>
0.0088

> <Gold.Rescore>
     Score         DG    S(hbond)    S(metal)    S(lipo)     H(rot)  DE(clash)    DE(int)     intcor
     12.26     -14.02       2.26        0.00      49.13       1.85       0.00       1.76       ----

> <Gold.Chemscore.Fitness>
12.2649

> <Gold.Chemscore.DG>
-14.0249

> <Gold.Chemscore.ZeroCoef>
-5.4800

> <Gold.Chemscore.Hbond>
2.2556

> <Gold.Chemscore.Metal>
0.0000

> <Gold.Chemscore.Lipo>
49.1295

> <Gold.Chemscore.Internal_Hbond>
0.0000

> <Gold.Chemscore.DEClash>
0.0040

> <Gold.Chemscore.DEInternal>
1.7560

> <Gold.Chemscore.Rot>
1.8504

> <Gold.Chemscore.Internal.Correction>
   9.000000E+99

> <Gold.Chemscore.Hbonds>
donor molecule, donor type, donor heavy atom, donor atom, acceptor molecule, acceptor atom, score
      L1  H     4    23       P1  7957  0.44
      L1  H    10    28       P1  7948  0.57
      L1  H    13    29       P1  7948  0.70
      P1  H  7989  7998       L1     3  0.97

> <Gold.Chemscore.Hbond.Weighted>
-7.5337

> <Gold.Chemscore.Metal.Weighted>
-0.0000

> <Gold.Chemscore.Lipo.Weighted>
-5.7482

> <Gold.Chemscore.Internal_Hbond.Weighted>
0.0000

> <Gold.Chemscore.DEClash.Weighted>
0.0040

> <Gold.Chemscore.DEInternal.Weighted>
1.7560

> <Gold.Chemscore.Rot.Weighted>
4.7369

> <Gold.Chemscore.Internal.Correction.Weighted>
   9.000000E+99

> <Gold.Protein.RotatedTorsions>
[ 6907 6896 6895 6894 ] final   80.57 input  -60.11 | X-H torsion
[ 7974 7965 7964 7962 ] final   18.21 input  175.53 | X-H torsion
[ 8008 7997 7996 7995 ] final  113.58 input   59.86 | X-H torsion
[ 10167 10162 10161 10158 ] final  144.84 input  -65.29 | X-H torsion
[ 10718 10713 10712 10709 ] final  165.27 input   66.30 | X-H torsion
[ 10763 10752 10751 10750 ] final -167.08 input  -60.55 | X-H torsion
[ 11005 11000 10999 10996 ] final   79.80 input  -57.11 | X-H torsion

> <Gold.Protein.ActiveResidues>
 VAL166  LYS551  ARG553  GLY616  TRP617  ASP618  TYR619  PRO620  LYS621  CYS622 
 ASP623  PHE694  ASN695  SER759  ASP760  ASP761  ALA762  ILE779  LEU786  VAL792 
 PHE793  MET794  SER795  GLU796  ALA797  LYS798  CYS799  TRP800  GLU811  SER814 

> <Gold.Protein.RotatedAtoms>
  152.5239  134.3338  159.9192 H   0  0  0  0  0  0  0  0  0  0  0  0  # atno 6907 bound_to 6896
  151.3287  133.4003  159.2668 H   0  0  0  0  0  0  0  0  0  0  0  0  # atno 6908 bound_to 6896
  150.9898  134.9253  159.7951 H   0  0  0  0  0  0  0  0  0  0  0  0  # atno 6909 bound_to 6896
  146.2192  139.8490  142.8626 H   0  0  0  0  0  0  0  0  0  0  0  0  # atno 7974 bound_to 7965
  156.2267  140.2976  156.0084 H   0  0  0  0  0  0  0  0  0  0  0  0  # atno 8008 bound_to 7997
  155.2337  140.0420  157.2983 H   0  0  0  0  0  0  0  0  0  0  0  0  # atno 8009 bound_to 7997
  154.5927  140.2406  155.7906 H   0  0  0  0  0  0  0  0  0  0  0  0  # atno 8010 bound_to 7997
  139.4938  144.5944  151.6614 H   0  0  0  0  0  0  0  0  0  0  0  0  # atno 10167 bound_to 10162
  157.0825  131.0396  151.2569 H   0  0  0  0  0  0  0  0  0  0  0  0  # atno 10718 bound_to 10713
  154.6769  135.2948  154.9667 H   0  0  0  0  0  0  0  0  0  0  0  0  # atno 10763 bound_to 10752
  154.0675  135.6623  153.4824 H   0  0  0  0  0  0  0  0  0  0  0  0  # atno 10764 bound_to 10752
  153.0522  135.5167  154.7792 H   0  0  0  0  0  0  0  0  0  0  0  0  # atno 10765 bound_to 10752
  139.9158  134.7871  156.1826 H   0  0  0  0  0  0  0  0  0  0  0  0  # atno 11005 bound_to 11000
  145.2821  141.0142  143.3711 LP  0  0  0  0  0  0  0  0  0  0  0  0  # atno 17320 bound_to 7965
  144.9142  139.4491  143.6572 LP  0  0  0  0  0  0  0  0  0  0  0  0  # atno 17321 bound_to 7965
  140.5578  144.0319  150.6155 LP  0  0  0  0  0  0  0  0  0  0  0  0  # atno 17342 bound_to 10162
  140.3395  143.3028  152.0603 LP  0  0  0  0  0  0  0  0  0  0  0  0  # atno 17343 bound_to 10162
  157.4788  130.7753  149.7394 LP  0  0  0  0  0  0  0  0  0  0  0  0  # atno 17370 bound_to 10713
  155.9920  130.3934  150.2962 LP  0  0  0  0  0  0  0  0  0  0  0  0  # atno 17371 bound_to 10713
  141.0633  133.6831  156.1994 LP  0  0  0  0  0  0  0  0  0  0  0  0  # atno 17394 bound_to 11000
  140.6626  134.4951  157.5584 LP  0  0  0  0  0  0  0  0  0  0  0  0  # atno 17395 bound_to 11000

$$$$
