AV-unprocessed.smi:581|AV-procd|sdf|2991|dock3
  -GOLD-   2262023493D 1   1.00000     0.00000
 Structure written by MMmdl.
 35 36  0  0  0  0  0  0  0  0  2 V2000
  149.1381  141.0921  154.5103 C   0  0  0  0  0  0  0  0  0  0  0  0
  150.2059  140.9298  155.5777 C   0  0  0  0  0  0  0  0  0  0  0  0
  150.2335  141.9250  156.5629 N   0  0  0  0  0  0  0  0  0  0  0  0
  151.1053  141.8729  157.5206 C   0  0  0  0  0  0  0  0  0  0  0  0
  151.2416  142.8029  158.5542 N   0  0  0  0  0  0  0  0  0  0  0  0
  150.4415  144.0298  158.5975 C   0  0  0  0  0  0  0  0  0  0  0  0
  150.3478  144.5865  160.0280 C   0  0  0  0  0  0  0  0  0  0  0  0
  151.6534  144.7867  160.5515 O   0  0  0  0  0  0  0  0  0  0  0  0
  152.3748  143.5647  160.6240 C   0  0  0  0  0  0  0  0  0  0  0  0
  152.5363  142.9734  159.2136 C   0  0  0  0  0  0  0  0  0  0  0  0
  152.0315  140.8255  157.5699 N   0  0  0  0  0  0  0  0  0  0  0  0
  152.0864  139.8182  156.6707 C   0  0  0  0  0  0  0  0  0  0  0  0
  152.9278  138.9283  156.7851 O   0  0  0  0  0  0  0  0  0  0  0  0
  151.0848  139.8888  155.5942 C   0  0  0  0  0  0  0  0  0  0  0  0
  151.1020  138.7931  154.5313 C   0  0  0  0  0  0  0  0  0  0  0  0
  149.8816  137.8554  154.6436 C   0  0  0  0  0  0  0  0  0  0  0  0
  150.0730  136.7302  155.6693 C   0  0  0  0  0  0  0  0  0  0  0  0
  149.2317  136.6003  156.5867 O   0  0  0  0  0  0  0  0  0  0  0  0
  151.0803  136.0066  155.5129 O   0  5  0  0  0  0  0  0  0  0  0  0
  152.7045  140.8127  158.3218 H   0  0  0  0  0  0  0  0  0  0  0  0
  148.5534  140.1776  154.4076 H   0  0  0  0  0  0  0  0  0  0  0  0
  149.5953  141.3222  153.5478 H   0  0  0  0  0  0  0  0  0  0  0  0
  148.4500  141.9012  154.7579 H   0  0  0  0  0  0  0  0  0  0  0  0
  150.9053  144.7693  157.9434 H   0  0  0  0  0  0  0  0  0  0  0  0
  149.4319  143.8694  158.2196 H   0  0  0  0  0  0  0  0  0  0  0  0
  149.8179  145.5390  160.0251 H   0  0  0  0  0  0  0  0  0  0  0  0
  149.7831  143.9104  160.6720 H   0  0  0  0  0  0  0  0  0  0  0  0
  153.3532  143.7564  161.0643 H   0  0  0  0  0  0  0  0  0  0  0  0
  151.8612  142.8629  161.2831 H   0  0  0  0  0  0  0  0  0  0  0  0
  153.0572  142.0178  159.2881 H   0  0  0  0  0  0  0  0  0  0  0  0
  153.1594  143.6285  158.6034 H   0  0  0  0  0  0  0  0  0  0  0  0
  151.1351  139.2427  153.5389 H   0  0  0  0  0  0  0  0  0  0  0  0
  152.0283  138.2225  154.6175 H   0  0  0  0  0  0  0  0  0  0  0  0
  148.9961  138.4270  154.9237 H   0  0  0  0  0  0  0  0  0  0  0  0
  149.6702  137.4031  153.6740 H   0  0  0  0  0  0  0  0  0  0  0  0
  1  2  1  0  0  0  0
  1 21  1  0  0  0  0
  1 22  1  0  0  0  0
  1 23  1  0  0  0  0
  2 14  2  0  0  0  0
  2  3  1  0  0  0  0
  3  4  2  0  0  0  0
  4  5  1  0  0  0  0
  4 11  1  0  0  0  0
  5 10  1  0  0  0  0
  5  6  1  0  0  0  0
  6  7  1  0  0  0  0
  6 24  1  0  0  0  0
  6 25  1  0  0  0  0
  7  8  1  0  0  0  0
  7 26  1  0  0  0  0
  7 27  1  0  0  0  0
  8  9  1  0  0  0  0
  9 10  1  0  0  0  0
  9 28  1  0  0  0  0
  9 29  1  0  0  0  0
 10 30  1  0  0  0  0
 10 31  1  0  0  0  0
 11 20  1  0  0  0  0
 11 12  1  0  0  0  0
 12 13  2  0  0  0  0
 12 14  1  0  0  0  0
 14 15  1  0  0  0  0
 15 16  1  0  0  0  0
 15 32  1  0  0  0  0
 15 33  1  0  0  0  0
 16 17  1  0  0  0  0
 16 34  1  0  0  0  0
 16 35  1  0  0  0  0
 17 18  2  0  0  0  0
 17 19  1  0  0  0  0
M  CHG  1  19  -1
M  END
> <s_m_source_file>
AV-unprocessed.smi

> <i_m_source_file_index>
581

> <i_lp_mmshare_version>
43012

> <i_f3d_flags>
0

> <s_epik_input>
W0NIMl0xW0NIMl1PW0NIMl1bQ0gyXU4xYyhuYzJbQ0gzXSlbbkhdYyg9TyljMltDSDJdW0NIMl1DKD1PKVtPSF0=

> <s_epik_cmdline>
J2VwaWtfcHl0aG9uJywgJy1waCcsICc3LjAnLCAnLXRuJywgJzgnLCAnLW1hJywgJzIwMCcsICctbWV0YWxfYmluZGluZycsICctaW1hZScsICc8aW5maWxlLm1hZT4nLCAnLW9tYWUnLCAnPG91dGZpbGUubWFlPic=

> <r_lp_tautomer_probability>
0.878553

> <r_epik_Ionization_Penalty>
0.00211884

> <r_epik_Ionization_Penalty_Charging>
0.00208365

> <r_epik_Ionization_Penalty_Neutral>
3.51846e-05

> <r_epik_State_Penalty>
0.0663044

> <r_epik_Charging_Adjusted_Penalty>
0.0683881

> <i_epik_Tot_Q>
-1

> <i_epik_Tot_abs_Q>
1

> <r_epik_Metal_State_Penalty>
0.312881

> <b_epik_Metal_Only>
0

> <s_lp_Force_Field>
OPLS_2005

> <r_lp_Energy>
24.7506

> <b_lp_Chiralities_Consistent>
1

> <s_lp_Variant>
AV-unprocessed.smi:581-1

> <Gold.Version>
5.8.1

> <Gold.Id.Protein>
6NUR|6NUR_protein|mol2

> <Gold.PLP.Fitness>
43.6962

> <Gold.PLP.PLP>
-35.3099

> <Gold.PLP.part.hbond>
-2.0000

> <Gold.PLP.part.metal>
0.0000

> <Gold.PLP.part.buried>
-5.1851

> <Gold.PLP.part.nonpolar>
-29.7605

> <Gold.PLP.part.repulsive>
0.4474

> <Gold.PLP.ligand.clash>
0.0000

> <Gold.PLP.ligand.torsion>
0.4025

> <Gold.PLP.Chemscore.Hbond>
2.9920

> <Gold.PLP.Chemscore.CHOScore>
0.0000

> <Gold.PLP.Chemscore.Metal>
0.0000

> <Gold.Chemscore.Hbonds>
donor molecule, donor type, donor heavy atom, donor atom, acceptor molecule, acceptor atom, score
      P1  H  7997  8009       L1    13  0.94
      P1  H 10752 10763       L1    19  1.66

> <Gold.PLP.Chemscore.Internal.Correction>
0.2152

> <Gold.Rescore>
     Score         DG    S(hbond)    S(metal)    S(lipo)     H(rot)  DE(clash)    DE(int)     intcor
     14.80     -15.12       1.82        0.00      71.67       1.89       0.05       0.27       ----

> <Gold.Chemscore.Fitness>
14.8030

> <Gold.Chemscore.DG>
-15.1173

> <Gold.Chemscore.ZeroCoef>
-5.4800

> <Gold.Chemscore.Hbond>
1.8228

> <Gold.Chemscore.Metal>
0.0000

> <Gold.Chemscore.Lipo>
71.6653

> <Gold.Chemscore.Internal_Hbond>
0.0000

> <Gold.Chemscore.DEClash>
0.0476

> <Gold.Chemscore.DEInternal>
0.2667

> <Gold.Chemscore.Rot>
1.8890

> <Gold.Chemscore.Internal.Correction>
   9.000000E+99

> <Gold.Chemscore.Hbonds>
donor molecule, donor type, donor heavy atom, donor atom, acceptor molecule, acceptor atom, score
      P1  H  7997  8009       L1    13  0.20
      P1  H 10752 10763       L1    19  0.82

> <Gold.Chemscore.Hbond.Weighted>
-6.0882

> <Gold.Chemscore.Metal.Weighted>
-0.0000

> <Gold.Chemscore.Lipo.Weighted>
-8.3848

> <Gold.Chemscore.Internal_Hbond.Weighted>
0.0000

> <Gold.Chemscore.DEClash.Weighted>
0.0476

> <Gold.Chemscore.DEInternal.Weighted>
0.2667

> <Gold.Chemscore.Rot.Weighted>
4.8357

> <Gold.Chemscore.Internal.Correction.Weighted>
   9.000000E+99

> <Gold.Protein.RotatedTorsions>
[ 6907 6896 6895 6894 ] final  133.58 input  -60.11 | X-H torsion
[ 7974 7965 7964 7962 ] final -152.69 input  175.53 | X-H torsion
[ 8008 7997 7996 7995 ] final  162.87 input   59.86 | X-H torsion
[ 10167 10162 10161 10158 ] final  136.84 input  -65.29 | X-H torsion
[ 10718 10713 10712 10709 ] final  -87.34 input   66.30 | X-H torsion
[ 10763 10752 10751 10750 ] final   61.58 input  -60.55 | X-H torsion
[ 11005 11000 10999 10996 ] final   58.93 input  -57.11 | X-H torsion

> <Gold.Protein.ActiveResidues>
 VAL166  LYS551  ARG553  GLY616  TRP617  ASP618  TYR619  PRO620  LYS621  CYS622 
 ASP623  PHE694  ASN695  SER759  ASP760  ASP761  ALA762  ILE779  LEU786  VAL792 
 PHE793  MET794  SER795  GLU796  ALA797  LYS798  CYS799  TRP800  GLU811  SER814 

> <Gold.Protein.RotatedAtoms>
  152.3204  133.5848  159.5740 H   0  0  0  0  0  0  0  0  0  0  0  0  # atno 6907 bound_to 6896
  150.7368  134.0019  159.3650 H   0  0  0  0  0  0  0  0  0  0  0  0  # atno 6908 bound_to 6896
  151.7904  135.0738  160.0437 H   0  0  0  0  0  0  0  0  0  0  0  0  # atno 6909 bound_to 6896
  144.7781  140.4628  143.5859 H   0  0  0  0  0  0  0  0  0  0  0  0  # atno 7974 bound_to 7965
  156.1999  140.1738  156.7921 H   0  0  0  0  0  0  0  0  0  0  0  0  # atno 8008 bound_to 7997
  154.5578  140.0705  156.8802 H   0  0  0  0  0  0  0  0  0  0  0  0  # atno 8009 bound_to 7997
  155.2905  140.3355  155.4255 H   0  0  0  0  0  0  0  0  0  0  0  0  # atno 8010 bound_to 7997
  139.5165  144.6443  151.5483 H   0  0  0  0  0  0  0  0  0  0  0  0  # atno 10167 bound_to 10162
  155.9986  130.4796  150.4852 H   0  0  0  0  0  0  0  0  0  0  0  0  # atno 10718 bound_to 10713
  152.9955  135.5496  154.6056 H   0  0  0  0  0  0  0  0  0  0  0  0  # atno 10763 bound_to 10752
  154.5388  135.2818  155.1117 H   0  0  0  0  0  0  0  0  0  0  0  0  # atno 10764 bound_to 10752
  154.2402  135.6417  153.5257 H   0  0  0  0  0  0  0  0  0  0  0  0  # atno 10765 bound_to 10752
  140.0341  134.5969  155.9468 H   0  0  0  0  0  0  0  0  0  0  0  0  # atno 11005 bound_to 11000
  145.6129  139.1515  143.3066 LP  0  0  0  0  0  0  0  0  0  0  0  0  # atno 17320 bound_to 7965
  146.1972  140.6244  142.9118 LP  0  0  0  0  0  0  0  0  0  0  0  0  # atno 17321 bound_to 7965
  140.6222  143.9237  150.6535 LP  0  0  0  0  0  0  0  0  0  0  0  0  # atno 17342 bound_to 10162
  140.2514  143.3590  152.1402 LP  0  0  0  0  0  0  0  0  0  0  0  0  # atno 17343 bound_to 10162
  157.2853  131.0615  151.2170 LP  0  0  0  0  0  0  0  0  0  0  0  0  # atno 17370 bound_to 10713
  157.3202  130.6933  149.6265 LP  0  0  0  0  0  0  0  0  0  0  0  0  # atno 17371 bound_to 10713
  141.1847  133.6553  156.5169 LP  0  0  0  0  0  0  0  0  0  0  0  0  # atno 17394 bound_to 11000
  140.4177  134.7215  157.4872 LP  0  0  0  0  0  0  0  0  0  0  0  0  # atno 17395 bound_to 11000

$$$$
