AV-unprocessed.smi:72|AV-procd|sdf|740|dock3
  -GOLD-   2262017 73D 1   1.00000     0.00000
 Structure written by MMmdl.
 28 29  0  0  0  0  0  0  0  0  2 V2000
  148.9725  134.3924  158.4857 N   0  0  0  0  0  0  0  0  0  0  0  0
  149.0923  135.2315  157.5523 C   0  0  0  0  0  0  0  0  0  0  0  0
  148.2545  136.4101  157.5270 N   0  0  0  0  0  0  0  0  0  0  0  0
  148.4379  137.2631  156.5665 C   0  0  0  0  0  0  0  0  0  0  0  0
  149.4629  137.0682  155.5460 N   0  0  0  0  0  0  0  0  0  0  0  0
  149.6939  138.0585  154.4134 C   0  0  1  0  0  0  0  0  0  0  0  0
  148.4944  138.2963  153.7325 O   0  0  0  0  0  0  0  0  0  0  0  0
  147.9012  139.5022  154.2055 C   0  0  2  0  0  0  0  0  0  0  0  0
  146.8381  140.0232  153.2233 C   0  0  0  0  0  0  0  0  0  0  0  0
  147.1575  139.6158  151.9099 O   0  0  0  0  0  0  0  0  0  0  0  0
  149.1259  140.4003  154.4019 C   0  0  2  0  0  0  0  0  0  0  0  0
  149.5276  140.9706  153.1666 O   0  0  0  0  0  0  0  0  0  0  0  0
  150.1602  139.4249  154.9639 C   0  0  2  0  0  0  0  0  0  0  0  0
  151.4828  139.7617  154.5883 O   0  0  0  0  0  0  0  0  0  0  0  0
  150.2363  135.8757  155.5718 C   0  0  0  0  0  0  0  0  0  0  0  0
  151.0620  135.7005  154.6752 O   0  0  0  0  0  0  0  0  0  0  0  0
  150.0338  134.9817  156.5791 N   0  5  0  0  0  0  0  0  0  0  0  0
  150.4034  137.5698  153.7431 H   0  0  0  0  0  0  0  0  0  0  0  0
  147.4498  139.3282  155.1841 H   0  0  0  0  0  0  0  0  0  0  0  0
  148.9234  141.2134  155.0997 H   0  0  0  0  0  0  0  0  0  0  0  0
  150.0893  139.4193  156.0528 H   0  0  0  0  0  0  0  0  0  0  0  0
  148.2621  134.6513  159.1545 H   0  0  0  0  0  0  0  0  0  0  0  0
  147.8370  138.1672  156.4718 H   0  0  0  0  0  0  0  0  0  0  0  0
  145.8620  139.6035  153.4683 H   0  0  0  0  0  0  0  0  0  0  0  0
  146.7485  141.1090  153.2699 H   0  0  0  0  0  0  0  0  0  0  0  0
  147.9760  140.0195  151.6638 H   0  0  0  0  0  0  0  0  0  0  0  0
  149.4509  140.3068  152.4979 H   0  0  0  0  0  0  0  0  0  0  0  0
  152.0778  139.2669  155.1325 H   0  0  0  0  0  0  0  0  0  0  0  0
  1  2  2  0  0  0  0
  1 22  1  0  0  0  0
  2 17  1  0  0  0  0
  2  3  1  0  0  0  0
  3  4  2  0  0  0  0
  4  5  1  0  0  0  0
  4 23  1  0  0  0  0
  5  6  1  0  0  0  0
  5 15  1  0  0  0  0
  6 18  1  0  0  0  0
  6 13  1  0  0  0  0
  6  7  1  0  0  0  0
  7  8  1  0  0  0  0
  8 19  1  0  0  0  0
  8  9  1  0  0  0  0
  8 11  1  0  0  0  0
  9 10  1  0  0  0  0
  9 24  1  0  0  0  0
  9 25  1  0  0  0  0
 10 26  1  0  0  0  0
 11 20  1  0  0  0  0
 11 12  1  0  0  0  0
 11 13  1  0  0  0  0
 12 27  1  0  0  0  0
 13 21  1  0  0  0  0
 13 14  1  0  0  0  0
 14 28  1  0  0  0  0
 15 16  2  0  0  0  0
 15 17  1  0  0  0  0
M  CHG  1  17  -1
M  END
> <s_m_source_file>
AV-unprocessed.smi

> <i_m_source_file_index>
72

> <i_lp_mmshare_version>
43012

> <i_f3d_flags>
0

> <s_epik_input>
W05IMl1jMW5bY0hdbihjKD1PKW4xKVtDQEBIXTJPW0NASF0oW0NIMl1bT0hdKVtDQEBIXShbT0hdKVtDQEhdMltPSF0=

> <s_epik_cmdline>
J2VwaWtfcHl0aG9uJywgJy1waCcsICc3LjAnLCAnLXRuJywgJzgnLCAnLW1hJywgJzIwMCcsICctbWV0YWxfYmluZGluZycsICctaW1hZScsICc8aW5maWxlLm1hZT4nLCAnLW9tYWUnLCAnPG91dGZpbGUubWFlPic=

> <r_lp_tautomer_probability>
7.17554e-07

> <r_epik_Ionization_Penalty>
12.8705

> <r_epik_Ionization_Penalty_Charging>
5.64144

> <r_epik_Ionization_Penalty_Neutral>
7.22905

> <r_epik_State_Penalty>
3.30104

> <r_epik_Charging_Adjusted_Penalty>
8.94249

> <i_epik_Tot_Q>
-1

> <i_epik_Tot_abs_Q>
1

> <r_epik_Metal_State_Penalty>
0.529074

> <b_epik_Metal_Only>
1

> <s_epik_Chemistry_Notes>
This compound contains an acetal/aminal-like group ( X-CH(R)-Y where X, Y are N, S, or O) that may be acid/base labile, releasing an aldehyde.

> <s_lp_Force_Field>
OPLS_2005

> <r_lp_Energy>
36.2844

> <b_lp_Chiralities_Consistent>
1

> <s_lp_Variant>
AV-unprocessed.smi:72-78

> <Gold.Version>
5.8.1

> <Gold.Id.Protein>
6NUR|6NUR_protein|mol2

> <Gold.PLP.Fitness>
37.1253

> <Gold.PLP.PLP>
-19.9668

> <Gold.PLP.part.hbond>
-6.0564

> <Gold.PLP.part.metal>
0.0000

> <Gold.PLP.part.buried>
-4.1311

> <Gold.PLP.part.nonpolar>
-11.1637

> <Gold.PLP.part.repulsive>
1.0309

> <Gold.PLP.ligand.clash>
0.0000

> <Gold.PLP.ligand.torsion>
0.3955

> <Gold.PLP.Chemscore.Hbond>
5.9760

> <Gold.PLP.Chemscore.CHOScore>
0.0000

> <Gold.PLP.Chemscore.Metal>
0.0000

> <Gold.Chemscore.Hbonds>
donor molecule, donor type, donor heavy atom, donor atom, acceptor molecule, acceptor atom, score
      L1  H    10    26       P1  7957  1.00
      L1  H    12    27       P1  7957  0.53
      P1  H  6896  6909       L1     1  1.00
      P1  H  7989  7998       L1    14  1.00
      P1  H  8011  8017       L1    12  1.00
      P1  H 10752 10764       L1    16  1.00

> <Gold.PLP.Chemscore.Internal.Correction>
0.0214

> <Gold.Rescore>
     Score         DG    S(hbond)    S(metal)    S(lipo)     H(rot)  DE(clash)    DE(int)     intcor
     13.49     -14.42       4.89        0.00      25.09       4.04       0.41       0.51       ----

> <Gold.Chemscore.Fitness>
13.4933

> <Gold.Chemscore.DG>
-14.4163

> <Gold.Chemscore.ZeroCoef>
-5.4800

> <Gold.Chemscore.Hbond>
4.8935

> <Gold.Chemscore.Metal>
0.0000

> <Gold.Chemscore.Lipo>
25.0858

> <Gold.Chemscore.Internal_Hbond>
0.0000

> <Gold.Chemscore.DEClash>
0.4081

> <Gold.Chemscore.DEInternal>
0.5149

> <Gold.Chemscore.Rot>
4.0403

> <Gold.Chemscore.Internal.Correction>
   9.000000E+99

> <Gold.Chemscore.Hbonds>
donor molecule, donor type, donor heavy atom, donor atom, acceptor molecule, acceptor atom, score
      L1  H    10    26       P1  7957  0.98
      L1  H    12    27       P1  7957  0.52
      P1  H  6896  6909       L1     1  0.58
      P1  H  7989  7998       L1    14  0.90
      P1  H  8011  8017       L1    12  0.50
      P1  H 10752 10764       L1    16  0.99

> <Gold.Chemscore.Hbond.Weighted>
-16.3443

> <Gold.Chemscore.Metal.Weighted>
-0.0000

> <Gold.Chemscore.Lipo.Weighted>
-2.9350

> <Gold.Chemscore.Internal_Hbond.Weighted>
0.0000

> <Gold.Chemscore.DEClash.Weighted>
0.4081

> <Gold.Chemscore.DEInternal.Weighted>
0.5149

> <Gold.Chemscore.Rot.Weighted>
10.3431

> <Gold.Chemscore.Internal.Correction.Weighted>
   9.000000E+99

> <Gold.Protein.RotatedTorsions>
[ 6907 6896 6895 6894 ] final   20.21 input  -60.11 | X-H torsion
[ 7974 7965 7964 7962 ] final   65.20 input  175.53 | X-H torsion
[ 8008 7997 7996 7995 ] final    1.62 input   59.86 | X-H torsion
[ 10167 10162 10161 10158 ] final -138.57 input  -65.29 | X-H torsion
[ 10718 10713 10712 10709 ] final -110.37 input   66.30 | X-H torsion
[ 10763 10752 10751 10750 ] final  -56.83 input  -60.55 | X-H torsion
[ 11005 11000 10999 10996 ] final  117.08 input  -57.11 | X-H torsion

> <Gold.Protein.ActiveResidues>
 VAL166  LYS551  ARG553  GLY616  TRP617  ASP618  TYR619  PRO620  LYS621  CYS622 
 ASP623  PHE694  ASN695  SER759  ASP760  ASP761  ALA762  ILE779  LEU786  VAL792 
 PHE793  MET794  SER795  GLU796  ALA797  LYS798  CYS799  TRP800  GLU811  SER814 

> <Gold.Protein.RotatedAtoms>
  151.8929  135.0409  160.0499 H   0  0  0  0  0  0  0  0  0  0  0  0  # atno 6907 bound_to 6896
  152.2421  133.5140  159.5284 H   0  0  0  0  0  0  0  0  0  0  0  0  # atno 6908 bound_to 6896
  150.7057  134.0991  159.4002 H   0  0  0  0  0  0  0  0  0  0  0  0  # atno 6909 bound_to 6896
  145.8412  139.3197  143.0930 H   0  0  0  0  0  0  0  0  0  0  0  0  # atno 7974 bound_to 7965
  154.6818  140.2634  155.6900 H   0  0  0  0  0  0  0  0  0  0  0  0  # atno 8008 bound_to 7997
  156.2700  140.2808  156.1288 H   0  0  0  0  0  0  0  0  0  0  0  0  # atno 8009 bound_to 7997
  155.1020  140.0374  157.2690 H   0  0  0  0  0  0  0  0  0  0  0  0  # atno 8010 bound_to 7997
  139.8465  143.7253  152.2660 H   0  0  0  0  0  0  0  0  0  0  0  0  # atno 10167 bound_to 10162
  156.0587  130.5812  150.8228 H   0  0  0  0  0  0  0  0  0  0  0  0  # atno 10718 bound_to 10713
  154.2129  135.6391  153.5121 H   0  0  0  0  0  0  0  0  0  0  0  0  # atno 10763 bound_to 10752
  152.9986  135.5478  154.6196 H   0  0  0  0  0  0  0  0  0  0  0  0  # atno 10764 bound_to 10752
  154.5637  135.2911  155.0868 H   0  0  0  0  0  0  0  0  0  0  0  0  # atno 10765 bound_to 10752
  139.9062  134.9606  156.7297 H   0  0  0  0  0  0  0  0  0  0  0  0  # atno 11005 bound_to 11000
  145.9463  140.8942  143.0282 LP  0  0  0  0  0  0  0  0  0  0  0  0  # atno 17320 bound_to 7965
  144.6733  140.1618  143.7422 LP  0  0  0  0  0  0  0  0  0  0  0  0  # atno 17321 bound_to 7965
  139.7507  144.7535  151.0511 LP  0  0  0  0  0  0  0  0  0  0  0  0  # atno 17342 bound_to 10162
  140.7792  143.4864  150.9951 LP  0  0  0  0  0  0  0  0  0  0  0  0  # atno 17343 bound_to 10162
  157.5579  131.0945  150.9602 LP  0  0  0  0  0  0  0  0  0  0  0  0  # atno 17370 bound_to 10713
  156.9846  130.5540  149.5299 LP  0  0  0  0  0  0  0  0  0  0  0  0  # atno 17371 bound_to 10713
  140.6935  133.9369  155.7980 LP  0  0  0  0  0  0  0  0  0  0  0  0  # atno 17394 bound_to 11000
  141.0424  134.0602  157.3885 LP  0  0  0  0  0  0  0  0  0  0  0  0  # atno 17395 bound_to 11000

$$$$
