AV-unprocessed.smi:3222|AV-procd|sdf|12303|dock9
  -GOLD-   2272018143D 1   1.00000     0.00000
 Structure written by MMmdl.
 41 42  0  0  0  0  0  0  0  0  2 V2000
  147.5357  141.7709  156.2936 C   0  0  0  0  0  0  0  0  0  0  0  0
  148.9162  141.1168  156.0899 C   0  0  2  0  0  0  0  0  0  0  0  0
  149.9862  142.0616  156.4905 N   0  3  0  0  0  0  0  0  0  0  0  0
  150.4325  141.9591  157.8949 C   0  0  0  0  0  0  0  0  0  0  0  0
  151.4154  143.0895  158.2368 C   0  0  0  0  0  0  0  0  0  0  0  0
  152.1273  142.8264  159.4844 N   0  0  0  0  0  0  0  0  0  0  0  0
  153.2376  141.8898  159.5238 C   0  0  0  0  0  0  0  0  0  0  0  0
  153.5984  141.7600  161.0108 C   0  0  0  0  0  0  0  0  0  0  0  0
  152.8664  142.9040  161.7215 C   0  0  0  0  0  0  0  0  0  0  0  0
  151.9040  143.4173  160.6641 C   0  0  0  0  0  0  0  0  0  0  0  0
  151.0450  144.2665  160.8969 O   0  0  0  0  0  0  0  0  0  0  0  0
  149.1452  140.6556  154.6262 C   0  0  2  0  0  0  0  0  0  0  0  0
  147.8912  140.0521  153.9654 C   0  0  0  0  0  0  0  0  0  0  0  0
  150.2494  139.7043  154.5496 N   0  0  0  0  0  0  0  0  0  0  0  0
  150.2366  138.3926  154.1170 C   0  0  0  0  0  0  0  0  0  0  0  0
  151.5013  137.9003  154.2664 C   0  0  0  0  0  0  0  0  0  0  0  0
  152.2273  138.9941  154.8137 C   0  0  0  0  0  0  0  0  0  0  0  0
  151.4738  140.0670  154.9919 N   0  0  0  0  0  0  0  0  0  0  0  0
  146.7254  141.0700  156.0948 H   0  0  0  0  0  0  0  0  0  0  0  0
  147.4031  142.6298  155.6350 H   0  0  0  0  0  0  0  0  0  0  0  0
  147.3980  142.1162  157.3178 H   0  0  0  0  0  0  0  0  0  0  0  0
  148.9811  140.2370  156.7325 H   0  0  0  0  0  0  0  0  0  0  0  0
  150.7893  141.8678  155.9086 H   0  0  0  0  0  0  0  0  0  0  0  0
  149.5681  141.9999  158.5573 H   0  0  0  0  0  0  0  0  0  0  0  0
  150.9142  140.9928  158.0508 H   0  0  0  0  0  0  0  0  0  0  0  0
  152.1375  143.2119  157.4281 H   0  0  0  0  0  0  0  0  0  0  0  0
  150.8840  144.0391  158.3216 H   0  0  0  0  0  0  0  0  0  0  0  0
  152.9611  140.9279  159.0903 H   0  0  0  0  0  0  0  0  0  0  0  0
  154.0734  142.2955  158.9523 H   0  0  0  0  0  0  0  0  0  0  0  0
  153.2525  140.8009  161.3984 H   0  0  0  0  0  0  0  0  0  0  0  0
  154.6766  141.8067  161.1688 H   0  0  0  0  0  0  0  0  0  0  0  0
  152.3362  142.5633  162.6114 H   0  0  0  0  0  0  0  0  0  0  0  0
  153.5536  143.7014  162.0063 H   0  0  0  0  0  0  0  0  0  0  0  0
  149.4255  141.5300  154.0355 H   0  0  0  0  0  0  0  0  0  0  0  0
  147.1059  140.7963  153.8363 H   0  0  0  0  0  0  0  0  0  0  0  0
  147.4802  139.2324  154.5555 H   0  0  0  0  0  0  0  0  0  0  0  0
  148.1228  139.6633  152.9729 H   0  0  0  0  0  0  0  0  0  0  0  0
  149.3396  137.9220  153.7420 H   0  0  0  0  0  0  0  0  0  0  0  0
  151.8542  136.9091  154.0230 H   0  0  0  0  0  0  0  0  0  0  0  0
  153.2706  139.0387  155.0896 H   0  0  0  0  0  0  0  0  0  0  0  0
  149.6797  143.0054  156.3017 H   0  0  0  0  0  0  0  0  0  0  0  0
  1  2  1  0  0  0  0
  1 19  1  0  0  0  0
  1 20  1  0  0  0  0
  1 21  1  0  0  0  0
  2  3  1  0  0  0  0
  2 12  1  0  0  0  0
  2 22  1  0  0  0  0
  3  4  1  0  0  0  0
  3 23  1  0  0  0  0
  3 41  1  0  0  0  0
  4  5  1  0  0  0  0
  4 24  1  0  0  0  0
  4 25  1  0  0  0  0
  5  6  1  0  0  0  0
  5 26  1  0  0  0  0
  5 27  1  0  0  0  0
  6 10  1  0  0  0  0
  6  7  1  0  0  0  0
  7  8  1  0  0  0  0
  7 28  1  0  0  0  0
  7 29  1  0  0  0  0
  8  9  1  0  0  0  0
  8 30  1  0  0  0  0
  8 31  1  0  0  0  0
  9 10  1  0  0  0  0
  9 32  1  0  0  0  0
  9 33  1  0  0  0  0
 10 11  2  0  0  0  0
 12 13  1  0  0  0  0
 12 14  1  0  0  0  0
 12 34  1  0  0  0  0
 13 35  1  0  0  0  0
 13 36  1  0  0  0  0
 13 37  1  0  0  0  0
 14 18  1  0  0  0  0
 14 15  1  0  0  0  0
 15 16  2  0  0  0  0
 15 38  1  0  0  0  0
 16 17  1  0  0  0  0
 16 39  1  0  0  0  0
 17 18  2  0  0  0  0
 17 40  1  0  0  0  0
M  CHG  1   3   1
M  END
> <s_m_source_file>
AV-unprocessed.smi

> <i_m_source_file_index>
3222

> <i_lp_mmshare_version>
43012

> <i_f3d_flags>
0

> <s_epik_input>
bjFbY0hdW2NIXVtjSF1uMVtDQEBIXShbQ0gzXSlbQ0BIXShbQ0gzXSlbTkhdW0NIMl1bQ0gyXU4yW0NIMl1bQ0gyXVtDSDJdQzI9Tw==

> <s_epik_cmdline>
J2VwaWtfcHl0aG9uJywgJy1waCcsICc3LjAnLCAnLXRuJywgJzgnLCAnLW1hJywgJzIwMCcsICctbWV0YWxfYmluZGluZycsICctaW1hZScsICc8aW5maWxlLm1hZT4nLCAnLW9tYWUnLCAnPG91dGZpbGUubWFlPic=

> <r_lp_tautomer_probability>
1

> <r_epik_Ionization_Penalty>
0.0064019

> <r_epik_Ionization_Penalty_Charging>
0.00639164

> <r_epik_Ionization_Penalty_Neutral>
1.02567e-05

> <r_epik_State_Penalty>
0.00472531

> <r_epik_Charging_Adjusted_Penalty>
0.011117

> <i_epik_Tot_Q>
1

> <i_epik_Tot_abs_Q>
1

> <r_epik_Metal_State_Penalty>
-0

> <b_epik_Metal_Only>
0

> <s_lp_Force_Field>
OPLS_2005

> <r_lp_Energy>
24.5342

> <b_lp_Chiralities_Consistent>
1

> <s_lp_Variant>
AV-unprocessed.smi:3222-1

> <Gold.Version>
5.8.1

> <Gold.Id.Protein>
6NUR|6NUR_protein|mol2

> <Gold.PLP.Fitness>
51.3714

> <Gold.PLP.PLP>
-43.3299

> <Gold.PLP.part.hbond>
-2.0000

> <Gold.PLP.part.metal>
0.0000

> <Gold.PLP.part.buried>
-4.6394

> <Gold.PLP.part.nonpolar>
-37.7995

> <Gold.PLP.part.repulsive>
0.2733

> <Gold.PLP.ligand.clash>
0.0000

> <Gold.PLP.ligand.torsion>
1.0730

> <Gold.PLP.Chemscore.Hbond>
2.3500

> <Gold.PLP.Chemscore.CHOScore>
0.9989

> <Gold.PLP.Chemscore.Metal>
0.0000

> <Gold.Chemscore.Hbonds>
donor molecule, donor type, donor heavy atom, donor atom, acceptor molecule, acceptor atom, score
      L1  H     3    41       P1  8028  2.00
      P1  H  7989  7998       L1    18  0.30
      L1  C    15    38       P1  7948  1.00

> <Gold.PLP.Chemscore.Internal.Correction>
0.1410

> <Gold.Rescore>
     Score         DG    S(hbond)    S(metal)    S(lipo)     H(rot)  DE(clash)    DE(int)     intcor
     12.62     -14.94       0.98        0.00      96.48       1.99       0.03       2.30       ----

> <Gold.Chemscore.Fitness>
12.6152

> <Gold.Chemscore.DG>
-14.9380

> <Gold.Chemscore.ZeroCoef>
-5.4800

> <Gold.Chemscore.Hbond>
0.9790

> <Gold.Chemscore.Metal>
0.0000

> <Gold.Chemscore.Lipo>
96.4827

> <Gold.Chemscore.Internal_Hbond>
0.0000

> <Gold.Chemscore.DEClash>
0.0256

> <Gold.Chemscore.DEInternal>
2.2972

> <Gold.Chemscore.Rot>
1.9922

> <Gold.Chemscore.Internal.Correction>
   9.000000E+99

> <Gold.Chemscore.Hbonds>
donor molecule, donor type, donor heavy atom, donor atom, acceptor molecule, acceptor atom, score
      L1  H     3    41       P1  8028  0.97

> <Gold.Chemscore.Hbond.Weighted>
-3.2697

> <Gold.Chemscore.Metal.Weighted>
-0.0000

> <Gold.Chemscore.Lipo.Weighted>
-11.2885

> <Gold.Chemscore.Internal_Hbond.Weighted>
0.0000

> <Gold.Chemscore.DEClash.Weighted>
0.0256

> <Gold.Chemscore.DEInternal.Weighted>
2.2972

> <Gold.Chemscore.Rot.Weighted>
5.1002

> <Gold.Chemscore.Internal.Correction.Weighted>
   9.000000E+99

> <Gold.Protein.RotatedTorsions>
[ 6907 6896 6895 6894 ] final -168.01 input  -60.11 | X-H torsion
[ 7974 7965 7964 7962 ] final   84.68 input  175.53 | X-H torsion
[ 8008 7997 7996 7995 ] final -134.05 input   59.86 | X-H torsion
[ 10167 10162 10161 10158 ] final -159.31 input  -65.29 | X-H torsion
[ 10718 10713 10712 10709 ] final -176.77 input   66.30 | X-H torsion
[ 10763 10752 10751 10750 ] final  -34.51 input  -60.55 | X-H torsion
[ 11005 11000 10999 10996 ] final -137.03 input  -57.11 | X-H torsion

> <Gold.Protein.ActiveResidues>
 VAL166  LYS551  ARG553  GLY616  TRP617  ASP618  TYR619  PRO620  LYS621  CYS622 
 ASP623  PHE694  ASN695  SER759  ASP760  ASP761  ALA762  ILE779  LEU786  VAL792 
 PHE793  MET794  SER795  GLU796  ALA797  LYS798  CYS799  TRP800  GLU811  SER814 

> <Gold.Protein.RotatedAtoms>
  151.4687  133.3574  159.2819 H   0  0  0  0  0  0  0  0  0  0  0  0  # atno 6907 bound_to 6896
  150.8975  134.8387  159.7348 H   0  0  0  0  0  0  0  0  0  0  0  0  # atno 6908 bound_to 6896
  152.4860  134.4604  159.9655 H   0  0  0  0  0  0  0  0  0  0  0  0  # atno 6909 bound_to 6896
  145.5955  139.2344  143.2275 H   0  0  0  0  0  0  0  0  0  0  0  0  # atno 7974 bound_to 7965
  155.3557  140.0480  157.3046 H   0  0  0  0  0  0  0  0  0  0  0  0  # atno 8008 bound_to 7997
  154.5204  140.2223  155.8951 H   0  0  0  0  0  0  0  0  0  0  0  0  # atno 8009 bound_to 7997
  156.1683  140.3101  155.8934 H   0  0  0  0  0  0  0  0  0  0  0  0  # atno 8010 bound_to 7997
  139.6625  143.9887  152.2234 H   0  0  0  0  0  0  0  0  0  0  0  0  # atno 10167 bound_to 10162
  156.8196  130.9615  151.3112 H   0  0  0  0  0  0  0  0  0  0  0  0  # atno 10718 bound_to 10713
  153.8479  135.6851  153.4795 H   0  0  0  0  0  0  0  0  0  0  0  0  # atno 10763 bound_to 10752
  153.1415  135.4655  154.9500 H   0  0  0  0  0  0  0  0  0  0  0  0  # atno 10764 bound_to 10752
  154.7816  135.3270  154.7925 H   0  0  0  0  0  0  0  0  0  0  0  0  # atno 10765 bound_to 10752
  140.8749  134.2004  157.4628 H   0  0  0  0  0  0  0  0  0  0  0  0  # atno 11005 bound_to 11000
  146.1615  140.6781  142.9275 LP  0  0  0  0  0  0  0  0  0  0  0  0  # atno 17320 bound_to 7965
  144.7332  140.4734  143.6922 LP  0  0  0  0  0  0  0  0  0  0  0  0  # atno 17321 bound_to 7965
  139.9630  144.6545  150.8061 LP  0  0  0  0  0  0  0  0  0  0  0  0  # atno 17342 bound_to 10162
  140.7586  143.3110  151.2845 LP  0  0  0  0  0  0  0  0  0  0  0  0  # atno 17343 bound_to 10162
  157.6463  130.8847  149.9546 LP  0  0  0  0  0  0  0  0  0  0  0  0  # atno 17370 bound_to 10713
  156.0996  130.3657  150.0242 LP  0  0  0  0  0  0  0  0  0  0  0  0  # atno 17371 bound_to 10713
  139.8715  134.9791  156.5023 LP  0  0  0  0  0  0  0  0  0  0  0  0  # atno 17394 bound_to 11000
  140.8530  133.8118  155.9187 LP  0  0  0  0  0  0  0  0  0  0  0  0  # atno 17395 bound_to 11000

$$$$
