AV-unprocessed.smi:2690|AV-procd|sdf|10389|dock3
  -GOLD-   2272014423D 1   1.00000     0.00000
 Structure written by MMmdl.
 47 49  0  0  0  0  0  0  0  0  1 V2000
  152.4583  143.0522  161.5643 C   0  0  0  0  0  0  0  0  0  0  0  0
  152.1588  143.0562  160.0587 C   0  0  2  0  0  0  0  0  0  0  0  0
  150.7897  143.6961  159.7605 C   0  0  0  0  0  0  0  0  0  0  0  0
  150.4737  143.6838  158.2545 C   0  0  0  0  0  0  0  0  0  0  0  0
  150.5449  142.2659  157.6431 C   0  0  2  0  0  0  0  0  0  0  0  0
  150.4799  142.4296  156.2385 O   0  0  0  0  0  0  0  0  0  0  0  0
  149.3324  141.3925  158.0693 C   0  0  0  0  0  0  0  0  0  0  0  0
  148.0647  141.7997  157.4790 N   0  0  0  0  0  0  0  0  0  0  0  0
  147.0489  142.4926  158.1007 C   0  0  0  0  0  0  0  0  0  0  0  0
  146.0038  142.7394  157.3586 N   0  0  0  0  0  0  0  0  0  0  0  0
  146.3188  142.1638  156.1348 C   0  0  0  0  0  0  0  0  0  0  0  0
  145.6392  142.0604  154.8932 C   0  0  0  0  0  0  0  0  0  0  0  0
  144.4089  142.5954  154.7264 N   0  0  0  0  0  0  0  0  0  0  0  0
  144.0596  143.8962  155.2911 C   0  0  0  0  0  0  0  0  0  0  0  0
  142.9387  143.7701  156.3365 C   0  0  0  0  0  0  0  0  0  0  0  0
  143.6547  144.8610  154.1691 C   0  0  0  0  0  0  0  0  0  0  0  0
  146.2654  141.4005  153.8836 N   0  0  0  0  0  0  0  0  0  0  0  0
  147.4804  140.8779  154.0766 C   0  0  0  0  0  0  0  0  0  0  0  0
  148.2325  140.8992  155.1792 N   0  0  0  0  0  0  0  0  0  0  0  0
  147.6070  141.5621  156.1938 C   0  0  0  0  0  0  0  0  0  0  0  0
  151.9192  141.6295  157.9612 C   0  0  0  0  0  0  0  0  0  0  0  0
  152.2321  141.6358  159.4681 C   0  0  0  0  0  0  0  0  0  0  0  0
  151.7236  142.4623  162.1129 H   0  0  0  0  0  0  0  0  0  0  0  0
  152.4435  144.0640  161.9702 H   0  0  0  0  0  0  0  0  0  0  0  0
  153.4428  142.6299  161.7677 H   0  0  0  0  0  0  0  0  0  0  0  0
  152.9255  143.6611  159.5725 H   0  0  0  0  0  0  0  0  0  0  0  0
  150.0067  143.1733  160.3101 H   0  0  0  0  0  0  0  0  0  0  0  0
  150.7765  144.7247  160.1226 H   0  0  0  0  0  0  0  0  0  0  0  0
  149.4916  144.1249  158.0789 H   0  0  0  0  0  0  0  0  0  0  0  0
  151.1905  144.3345  157.7508 H   0  0  0  0  0  0  0  0  0  0  0  0
  149.9597  143.1955  156.0496 H   0  0  0  0  0  0  0  0  0  0  0  0
  149.5021  140.3476  157.8106 H   0  0  0  0  0  0  0  0  0  0  0  0
  149.2180  141.4140  159.1540 H   0  0  0  0  0  0  0  0  0  0  0  0
  147.1093  142.8163  159.1296 H   0  0  0  0  0  0  0  0  0  0  0  0
  143.6617  142.1083  154.2529 H   0  0  0  0  0  0  0  0  0  0  0  0
  144.9412  144.3188  155.7744 H   0  0  0  0  0  0  0  0  0  0  0  0
  142.6868  144.7434  156.7582 H   0  0  0  0  0  0  0  0  0  0  0  0
  143.2311  143.1239  157.1645 H   0  0  0  0  0  0  0  0  0  0  0  0
  142.0318  143.3546  155.8963 H   0  0  0  0  0  0  0  0  0  0  0  0
  143.4268  145.8506  154.5663 H   0  0  0  0  0  0  0  0  0  0  0  0
  142.7723  144.5048  153.6364 H   0  0  0  0  0  0  0  0  0  0  0  0
  144.4593  144.9768  153.4423 H   0  0  0  0  0  0  0  0  0  0  0  0
  147.9111  140.3708  153.2259 H   0  0  0  0  0  0  0  0  0  0  0  0
  151.9817  140.6136  157.5707 H   0  0  0  0  0  0  0  0  0  0  0  0
  152.7039  142.1887  157.4490 H   0  0  0  0  0  0  0  0  0  0  0  0
  153.2256  141.2169  159.6317 H   0  0  0  0  0  0  0  0  0  0  0  0
  151.5368  140.9837  159.9960 H   0  0  0  0  0  0  0  0  0  0  0  0
  1  2  1  0  0  0  0
  1 23  1  0  0  0  0
  1 24  1  0  0  0  0
  1 25  1  0  0  0  0
  2 22  1  0  0  0  0
  2  3  1  0  0  0  0
  2 26  1  0  0  0  0
  3  4  1  0  0  0  0
  3 27  1  0  0  0  0
  3 28  1  0  0  0  0
  4  5  1  0  0  0  0
  4 29  1  0  0  0  0
  4 30  1  0  0  0  0
  5  6  1  0  0  0  0
  5  7  1  0  0  0  0
  5 21  1  0  0  0  0
  6 31  1  0  0  0  0
  7  8  1  0  0  0  0
  7 32  1  0  0  0  0
  7 33  1  0  0  0  0
  8 20  1  0  0  0  0
  8  9  1  0  0  0  0
  9 10  2  0  0  0  0
  9 34  1  0  0  0  0
 10 11  1  0  0  0  0
 11 20  2  0  0  0  0
 11 12  1  0  0  0  0
 12 13  1  0  0  0  0
 12 17  2  0  0  0  0
 13 14  1  0  0  0  0
 13 35  1  0  0  0  0
 14 15  1  0  0  0  0
 14 16  1  0  0  0  0
 14 36  1  0  0  0  0
 15 37  1  0  0  0  0
 15 38  1  0  0  0  0
 15 39  1  0  0  0  0
 16 40  1  0  0  0  0
 16 41  1  0  0  0  0
 16 42  1  0  0  0  0
 17 18  1  0  0  0  0
 18 19  2  0  0  0  0
 18 43  1  0  0  0  0
 19 20  1  0  0  0  0
 21 22  1  0  0  0  0
 21 44  1  0  0  0  0
 21 45  1  0  0  0  0
 22 46  1  0  0  0  0
 22 47  1  0  0  0  0
M  END
> <s_m_source_file>
AV-unprocessed.smi

> <i_m_source_file_index>
2690

> <i_lp_mmshare_version>
43012

> <i_f3d_flags>
0

> <s_epik_input>
W0NIMl0xW0NIMl1bQ0BIXShbQ0gzXSlbQ0gyXVtDSDJdW0NAQF0xKFtPSF0pW0NIMl1uKFtjSF1uMiljKGMyMyluW2NIXW5jM1tOSF1bQ0hdKFtDSDNdKVtDSDNd

> <s_epik_cmdline>
J2VwaWtfcHl0aG9uJywgJy1waCcsICc3LjAnLCAnLXRuJywgJzgnLCAnLW1hJywgJzIwMCcsICctbWV0YWxfYmluZGluZycsICctaW1hZScsICc8aW5maWxlLm1hZT4nLCAnLW9tYWUnLCAnPG91dGZpbGUubWFlPic=

> <r_lp_tautomer_probability>
1

> <r_epik_Ionization_Penalty>
0.00225104

> <r_epik_Ionization_Penalty_Charging>
0

> <r_epik_Ionization_Penalty_Neutral>
0.00225104

> <r_epik_State_Penalty>
-0

> <r_epik_Charging_Adjusted_Penalty>
0

> <i_epik_Tot_Q>
0

> <i_epik_Tot_abs_Q>
0

> <r_epik_Metal_State_Penalty>
-0

> <b_epik_Metal_Only>
0

> <s_lp_Force_Field>
OPLS_2005

> <r_lp_Energy>
15.1009

> <b_lp_Chiralities_Consistent>
1

> <s_lp_Variant>
AV-unprocessed.smi:2690-2

> <Gold.Version>
5.8.1

> <Gold.Id.Protein>
6NUR|6NUR_protein|mol2

> <Gold.PLP.Fitness>
42.7608

> <Gold.PLP.PLP>
-37.1919

> <Gold.PLP.part.hbond>
-1.8132

> <Gold.PLP.part.metal>
0.0000

> <Gold.PLP.part.buried>
-3.0686

> <Gold.PLP.part.nonpolar>
-30.7057

> <Gold.PLP.part.repulsive>
0.5092

> <Gold.PLP.ligand.clash>
0.0000

> <Gold.PLP.ligand.torsion>
0.6698

> <Gold.PLP.Chemscore.Hbond>
1.2902

> <Gold.PLP.Chemscore.CHOScore>
1.0000

> <Gold.PLP.Chemscore.Metal>
0.0000

> <Gold.Chemscore.Hbonds>
donor molecule, donor type, donor heavy atom, donor atom, acceptor molecule, acceptor atom, score
      L1  H     6    31       P1  8028  1.00
      L1  H    13    35       P1 10175  0.03
      L1  C    18    43       P1  7957  0.61

> <Gold.PLP.Chemscore.Internal.Correction>
0.0381

> <Gold.Rescore>
     Score         DG    S(hbond)    S(metal)    S(lipo)     H(rot)  DE(clash)    DE(int)     intcor
     12.47     -14.39       0.99        0.00      92.76       2.05       0.13       1.79       ----

> <Gold.Chemscore.Fitness>
12.4665

> <Gold.Chemscore.DG>
-14.3909

> <Gold.Chemscore.ZeroCoef>
-5.4800

> <Gold.Chemscore.Hbond>
0.9917

> <Gold.Chemscore.Metal>
0.0000

> <Gold.Chemscore.Lipo>
92.7633

> <Gold.Chemscore.Internal_Hbond>
0.0000

> <Gold.Chemscore.DEClash>
0.1345

> <Gold.Chemscore.DEInternal>
1.7900

> <Gold.Chemscore.Rot>
2.0526

> <Gold.Chemscore.Internal.Correction>
   9.000000E+99

> <Gold.Chemscore.Hbonds>
donor molecule, donor type, donor heavy atom, donor atom, acceptor molecule, acceptor atom, score
      L1  H     6    31       P1  8028  1.00

> <Gold.Chemscore.Hbond.Weighted>
-3.3122

> <Gold.Chemscore.Metal.Weighted>
-0.0000

> <Gold.Chemscore.Lipo.Weighted>
-10.8533

> <Gold.Chemscore.Internal_Hbond.Weighted>
0.0000

> <Gold.Chemscore.DEClash.Weighted>
0.1345

> <Gold.Chemscore.DEInternal.Weighted>
1.7900

> <Gold.Chemscore.Rot.Weighted>
5.2546

> <Gold.Chemscore.Internal.Correction.Weighted>
   9.000000E+99

> <Gold.Protein.RotatedTorsions>
[ 6907 6896 6895 6894 ] final -153.48 input  -60.11 | X-H torsion
[ 7974 7965 7964 7962 ] final  -79.90 input  175.53 | X-H torsion
[ 8008 7997 7996 7995 ] final  -88.05 input   59.86 | X-H torsion
[ 10167 10162 10161 10158 ] final -131.73 input  -65.29 | X-H torsion
[ 10718 10713 10712 10709 ] final   75.16 input   66.30 | X-H torsion
[ 10763 10752 10751 10750 ] final -156.14 input  -60.55 | X-H torsion
[ 11005 11000 10999 10996 ] final    6.44 input  -57.11 | X-H torsion

> <Gold.Protein.ActiveResidues>
 VAL166  LYS551  ARG553  GLY616  TRP617  ASP618  TYR619  PRO620  LYS621  CYS622 
 ASP623  PHE694  ASN695  SER759  ASP760  ASP761  ALA762  ILE779  LEU786  VAL792 
 PHE793  MET794  SER795  GLU796  ALA797  LYS798  CYS799  TRP800  GLU811  SER814 

> <Gold.Protein.RotatedAtoms>
  151.2432  133.4388  159.2607 H   0  0  0  0  0  0  0  0  0  0  0  0  # atno 6907 bound_to 6896
  151.0686  134.9783  159.8307 H   0  0  0  0  0  0  0  0  0  0  0  0  # atno 6908 bound_to 6896
  152.5409  134.2379  159.8903 H   0  0  0  0  0  0  0  0  0  0  0  0  # atno 6909 bound_to 6896
  145.5671  140.9472  143.1416 H   0  0  0  0  0  0  0  0  0  0  0  0  # atno 7974 bound_to 7965
  154.6703  140.0558  157.0158 H   0  0  0  0  0  0  0  0  0  0  0  0  # atno 8008 bound_to 7997
  155.1098  140.3237  155.4506 H   0  0  0  0  0  0  0  0  0  0  0  0  # atno 8009 bound_to 7997
  156.2654  140.2016  156.6223 H   0  0  0  0  0  0  0  0  0  0  0  0  # atno 8010 bound_to 7997
  139.9159  143.6439  152.2565 H   0  0  0  0  0  0  0  0  0  0  0  0  # atno 10167 bound_to 10162
  157.6623  130.9713  150.1314 H   0  0  0  0  0  0  0  0  0  0  0  0  # atno 10718 bound_to 10713
  154.7735  135.3152  154.8141 H   0  0  0  0  0  0  0  0  0  0  0  0  # atno 10763 bound_to 10752
  153.8870  135.6829  153.4767 H   0  0  0  0  0  0  0  0  0  0  0  0  # atno 10764 bound_to 10752
  153.1353  135.4762  154.9348 H   0  0  0  0  0  0  0  0  0  0  0  0  # atno 10765 bound_to 10752
  140.5595  134.0206  155.7966 H   0  0  0  0  0  0  0  0  0  0  0  0  # atno 11005 bound_to 11000
  144.7455  139.7331  143.7294 LP  0  0  0  0  0  0  0  0  0  0  0  0  # atno 17320 bound_to 7965
  146.1811  139.5003  142.9866 LP  0  0  0  0  0  0  0  0  0  0  0  0  # atno 17321 bound_to 7965
  139.6902  144.7647  151.1451 LP  0  0  0  0  0  0  0  0  0  0  0  0  # atno 17342 bound_to 10162
  140.7674  143.5599  150.9110 LP  0  0  0  0  0  0  0  0  0  0  0  0  # atno 17343 bound_to 10162
  156.2160  130.3670  149.8613 LP  0  0  0  0  0  0  0  0  0  0  0  0  # atno 17370 bound_to 10713
  156.6479  130.8731  151.3526 LP  0  0  0  0  0  0  0  0  0  0  0  0  # atno 17371 bound_to 10713
  141.1123  133.9596  157.2887 LP  0  0  0  0  0  0  0  0  0  0  0  0  # atno 17394 bound_to 11000
  139.9415  135.0190  156.8722 LP  0  0  0  0  0  0  0  0  0  0  0  0  # atno 17395 bound_to 11000

$$$$
