AV-unprocessed.smi:249|AV-procd|sdf|1922|dock8
  -GOLD-   2262021 33D 1   1.00000     0.00000
 Structure written by MMmdl.
 64 67  0  0  0  0  0  0  0  0  2 V2000
  143.3780  132.6728  150.7772 C   0  0  0  0  0  0  0  0  0  0  0  0
  143.9298  133.6443  151.8302 C   0  0  0  0  0  0  0  0  0  0  0  0
  144.7213  132.9504  152.8787 N   0  3  2  0  0  0  0  0  0  0  0  0
  145.5416  133.8692  153.7138 C   0  0  0  0  0  0  0  0  0  0  0  0
  146.1693  133.1264  154.9041 C   0  0  0  0  0  0  0  0  0  0  0  0
  147.0114  131.9226  154.4331 C   0  0  1  0  0  0  0  0  0  0  0  0
  147.6794  131.2136  155.5343 N   0  0  0  0  0  0  0  0  0  0  0  0
  146.8256  130.5619  156.5214 C   0  0  0  0  0  0  0  0  0  0  0  0
  148.7966  130.5097  155.2303 C   0  0  0  0  0  0  0  0  0  0  0  0
  148.7251  129.4688  154.3589 N   0  0  0  0  0  0  0  0  0  0  0  0
  149.8306  128.7917  154.0334 C   0  0  0  0  0  0  0  0  0  0  0  0
  151.0833  128.9903  154.4487 N   0  0  0  0  0  0  0  0  0  0  0  0
  151.1546  130.0273  155.3316 C   0  0  0  0  0  0  0  0  0  0  0  0
  150.0665  130.8236  155.7839 C   0  0  0  0  0  0  0  0  0  0  0  0
  150.5155  131.7735  156.6928 N   0  0  0  0  0  0  0  0  0  0  0  0
  151.8018  131.5641  156.7594 C   0  0  0  0  0  0  0  0  0  0  0  0
  152.2743  130.5560  155.9489 N   0  0  0  0  0  0  0  0  0  0  0  0
  153.6552  130.1316  155.8093 C   0  0  0  0  0  0  0  0  0  0  0  0
  153.9052  129.0800  154.6909 C   0  0  2  0  0  0  0  0  0  0  0  0
  153.5089  127.6797  155.2190 C   0  0  0  0  0  0  0  0  0  0  0  0
  152.8812  126.9084  154.2154 O   0  0  0  0  0  0  0  0  0  0  0  0
  155.3656  129.0936  154.1424 C   0  0  1  0  0  0  0  0  0  0  0  0
  155.8847  130.4609  153.7207 C   0  0  0  0  0  0  0  0  0  0  0  0
  157.3901  130.2450  153.6927 C   0  0  0  0  0  0  0  0  0  0  0  0
  157.6454  129.4058  154.8071 O   0  0  0  0  0  0  0  0  0  0  0  0
  156.4638  128.6841  155.1420 C   0  0  0  0  0  0  0  0  0  0  0  0
  146.1360  131.0116  153.5432 C   0  0  0  0  0  0  0  0  0  0  0  0
  145.4966  131.7805  152.3695 C   0  0  2  0  0  0  0  0  0  0  0  0
  146.5235  132.1493  151.2763 C   0  0  0  0  0  0  0  0  0  0  0  0
  142.8708  133.2192  149.9815 H   0  0  0  0  0  0  0  0  0  0  0  0
  142.6559  131.9751  151.2001 H   0  0  0  0  0  0  0  0  0  0  0  0
  144.1793  132.0924  150.3189 H   0  0  0  0  0  0  0  0  0  0  0  0
  144.5670  134.3640  151.3143 H   0  0  0  0  0  0  0  0  0  0  0  0
  143.1199  134.2162  152.2851 H   0  0  0  0  0  0  0  0  0  0  0  0
  146.3162  134.3396  153.1074 H   0  0  0  0  0  0  0  0  0  0  0  0
  144.9221  134.6781  154.0997 H   0  0  0  0  0  0  0  0  0  0  0  0
  146.7830  133.8226  155.4762 H   0  0  0  0  0  0  0  0  0  0  0  0
  145.3737  132.7941  155.5715 H   0  0  0  0  0  0  0  0  0  0  0  0
  147.8169  132.3099  153.8089 H   0  0  0  0  0  0  0  0  0  0  0  0
  147.4099  130.2468  157.3869 H   0  0  0  0  0  0  0  0  0  0  0  0
  146.3309  129.6842  156.1049 H   0  0  0  0  0  0  0  0  0  0  0  0
  146.0569  131.2505  156.8725 H   0  0  0  0  0  0  0  0  0  0  0  0
  149.6934  127.9799  153.3344 H   0  0  0  0  0  0  0  0  0  0  0  0
  152.4482  132.1584  157.3890 H   0  0  0  0  0  0  0  0  0  0  0  0
  154.2692  131.0148  155.6281 H   0  0  0  0  0  0  0  0  0  0  0  0
  153.9644  129.7407  156.7791 H   0  0  0  0  0  0  0  0  0  0  0  0
  153.2408  129.3013  153.8546 H   0  0  0  0  0  0  0  0  0  0  0  0
  154.3803  127.1113  155.5413 H   0  0  0  0  0  0  0  0  0  0  0  0
  152.8442  127.7635  156.0793 H   0  0  0  0  0  0  0  0  0  0  0  0
  152.8115  127.4326  153.4320 H   0  0  0  0  0  0  0  0  0  0  0  0
  155.4247  128.4359  153.2735 H   0  0  0  0  0  0  0  0  0  0  0  0
  155.5016  130.7892  152.7542 H   0  0  0  0  0  0  0  0  0  0  0  0
  155.6303  131.2151  154.4673 H   0  0  0  0  0  0  0  0  0  0  0  0
  157.6849  129.7249  152.7802 H   0  0  0  0  0  0  0  0  0  0  0  0
  157.9521  131.1771  153.7538 H   0  0  0  0  0  0  0  0  0  0  0  0
  156.1907  128.9497  156.1635 H   0  0  0  0  0  0  0  0  0  0  0  0
  156.6691  127.6148  155.1135 H   0  0  0  0  0  0  0  0  0  0  0  0
  146.7279  130.1801  153.1591 H   0  0  0  0  0  0  0  0  0  0  0  0
  145.3329  130.5702  154.1351 H   0  0  0  0  0  0  0  0  0  0  0  0
  144.7779  131.1004  151.9099 H   0  0  0  0  0  0  0  0  0  0  0  0
  147.0501  131.2600  150.9292 H   0  0  0  0  0  0  0  0  0  0  0  0
  147.2769  132.8520  151.6303 H   0  0  0  0  0  0  0  0  0  0  0  0
  146.0432  132.5921  150.4039 H   0  0  0  0  0  0  0  0  0  0  0  0
  144.0367  132.5514  153.5053 H   0  0  0  0  0  0  0  0  0  0  0  0
  1  2  1  0  0  0  0
  1 30  1  0  0  0  0
  1 31  1  0  0  0  0
  1 32  1  0  0  0  0
  2  3  1  0  0  0  0
  2 33  1  0  0  0  0
  2 34  1  0  0  0  0
  3 28  1  0  0  0  0
  3  4  1  0  0  0  0
  3 64  1  0  0  0  0
  4  5  1  0  0  0  0
  4 35  1  0  0  0  0
  4 36  1  0  0  0  0
  5  6  1  0  0  0  0
  5 37  1  0  0  0  0
  5 38  1  0  0  0  0
  6  7  1  0  0  0  0
  6 27  1  0  0  0  0
  6 39  1  0  0  0  0
  7  8  1  0  0  0  0
  7  9  1  0  0  0  0
  8 40  1  0  0  0  0
  8 41  1  0  0  0  0
  8 42  1  0  0  0  0
  9 14  1  0  0  0  0
  9 10  2  0  0  0  0
 10 11  1  0  0  0  0
 11 12  2  0  0  0  0
 11 43  1  0  0  0  0
 12 13  1  0  0  0  0
 13 17  1  0  0  0  0
 13 14  2  0  0  0  0
 14 15  1  0  0  0  0
 15 16  2  0  0  0  0
 16 17  1  0  0  0  0
 16 44  1  0  0  0  0
 17 18  1  0  0  0  0
 18 19  1  0  0  0  0
 18 45  1  0  0  0  0
 18 46  1  0  0  0  0
 19 20  1  0  0  0  0
 19 22  1  0  0  0  0
 19 47  1  0  0  0  0
 20 21  1  0  0  0  0
 20 48  1  0  0  0  0
 20 49  1  0  0  0  0
 21 50  1  0  0  0  0
 22 26  1  0  0  0  0
 22 23  1  0  0  0  0
 22 51  1  0  0  0  0
 23 24  1  0  0  0  0
 23 52  1  0  0  0  0
 23 53  1  0  0  0  0
 24 25  1  0  0  0  0
 24 54  1  0  0  0  0
 24 55  1  0  0  0  0
 25 26  1  0  0  0  0
 26 56  1  0  0  0  0
 26 57  1  0  0  0  0
 27 28  1  0  0  0  0
 27 58  1  0  0  0  0
 27 59  1  0  0  0  0
 28 29  1  0  0  0  0
 28 60  1  0  0  0  0
 29 61  1  0  0  0  0
 29 62  1  0  0  0  0
 29 63  1  0  0  0  0
M  CHG  1   3   1
M  END
> <s_m_source_file>
AV-unprocessed.smi

> <i_m_source_file_index>
249

> <i_lp_mmshare_version>
43012

> <i_f3d_flags>
0

> <s_epik_input>
W0NIM11bQ0gyXU4xW0NIMl1bQ0gyXVtDQEhdKFtDSDJdW0NASF0xW0NIM10pTihbQ0gzXSljKG5bY0hdbjIpYyhjMjMpbltjSF1uM1tDSDJdW0NASF0oW0NIMl1bT0hdKVtDQEBIXTRbQ0gyXVtDSDJdT1tDSDJdNA==

> <s_epik_cmdline>
J2VwaWtfcHl0aG9uJywgJy1waCcsICc3LjAnLCAnLXRuJywgJzgnLCAnLW1hJywgJzIwMCcsICctbWV0YWxfYmluZGluZycsICctaW1hZScsICc8aW5maWxlLm1hZT4nLCAnLW9tYWUnLCAnPG91dGZpbGUubWFlPic=

> <r_lp_tautomer_probability>
1

> <r_epik_Ionization_Penalty>
0.00294688

> <r_epik_Ionization_Penalty_Charging>
0.00169971

> <r_epik_Ionization_Penalty_Neutral>
0.00124717

> <r_epik_State_Penalty>
-0

> <r_epik_Charging_Adjusted_Penalty>
0.00169971

> <i_epik_Tot_Q>
1

> <i_epik_Tot_abs_Q>
1

> <r_epik_Metal_State_Penalty>
-0

> <b_epik_Metal_Only>
0

> <s_lp_Force_Field>
OPLS_2005

> <r_lp_Energy>
54.0807

> <b_lp_Chiralities_Consistent>
1

> <s_lp_Variant>
AV-unprocessed.smi:249-25

> <Gold.Version>
5.8.1

> <Gold.Id.Protein>
6NUR|6NUR_protein|mol2

> <Gold.PLP.Fitness>
44.3570

> <Gold.PLP.PLP>
-36.8920

> <Gold.PLP.part.hbond>
-2.0000

> <Gold.PLP.part.metal>
0.0000

> <Gold.PLP.part.buried>
-3.0984

> <Gold.PLP.part.nonpolar>
-32.3929

> <Gold.PLP.part.repulsive>
0.1752

> <Gold.PLP.ligand.clash>
0.0000

> <Gold.PLP.ligand.torsion>
1.5058

> <Gold.PLP.Chemscore.Hbond>
2.6080

> <Gold.PLP.Chemscore.CHOScore>
0.6148

> <Gold.PLP.Chemscore.Metal>
0.0000

> <Gold.Chemscore.Hbonds>
donor molecule, donor type, donor heavy atom, donor atom, acceptor molecule, acceptor atom, score
      L1  H     3    64       P1 10957  2.00
      L1  H    21    50       P1 10737  1.00
      L1  C    11    43       P1 10737  0.10

> <Gold.PLP.Chemscore.Internal.Correction>
0.8082

> <Gold.Rescore>
     Score         DG    S(hbond)    S(metal)    S(lipo)     H(rot)  DE(clash)    DE(int)     intcor
      9.55     -12.97       1.76        0.00      77.14       2.90       0.06       3.36       ----

> <Gold.Chemscore.Fitness>
9.5508

> <Gold.Chemscore.DG>
-12.9705

> <Gold.Chemscore.ZeroCoef>
-5.4800

> <Gold.Chemscore.Hbond>
1.7636

> <Gold.Chemscore.Metal>
0.0000

> <Gold.Chemscore.Lipo>
77.1435

> <Gold.Chemscore.Internal_Hbond>
0.0000

> <Gold.Chemscore.DEClash>
0.0637

> <Gold.Chemscore.DEInternal>
3.3560

> <Gold.Chemscore.Rot>
2.9006

> <Gold.Chemscore.Internal.Correction>
   9.000000E+99

> <Gold.Chemscore.Hbonds>
donor molecule, donor type, donor heavy atom, donor atom, acceptor molecule, acceptor atom, score
      L1  H     3    64       P1 10957  0.33
      L1  H    21    50       P1 10737  0.86

> <Gold.Chemscore.Hbond.Weighted>
-5.8904

> <Gold.Chemscore.Metal.Weighted>
-0.0000

> <Gold.Chemscore.Lipo.Weighted>
-9.0258

> <Gold.Chemscore.Internal_Hbond.Weighted>
0.0000

> <Gold.Chemscore.DEClash.Weighted>
0.0637

> <Gold.Chemscore.DEInternal.Weighted>
3.3560

> <Gold.Chemscore.Rot.Weighted>
7.4256

> <Gold.Chemscore.Internal.Correction.Weighted>
   9.000000E+99

> <Gold.Protein.RotatedTorsions>
[ 6907 6896 6895 6894 ] final  -23.31 input  -60.11 | X-H torsion
[ 7974 7965 7964 7962 ] final   75.69 input  175.53 | X-H torsion
[ 8008 7997 7996 7995 ] final -119.53 input   59.86 | X-H torsion
[ 10167 10162 10161 10158 ] final  144.38 input  -65.29 | X-H torsion
[ 10718 10713 10712 10709 ] final  178.35 input   66.30 | X-H torsion
[ 10763 10752 10751 10750 ] final -132.24 input  -60.55 | X-H torsion
[ 11005 11000 10999 10996 ] final    3.35 input  -57.11 | X-H torsion

> <Gold.Protein.ActiveResidues>
 VAL166  LYS551  ARG553  GLY616  TRP617  ASP618  TYR619  PRO620  LYS621  CYS622 
 ASP623  PHE694  ASN695  SER759  ASP760  ASP761  ALA762  ILE779  LEU786  VAL792 
 PHE793  MET794  SER795  GLU796  ALA797  LYS798  CYS799  TRP800  GLU811  SER814 

> <Gold.Protein.RotatedAtoms>
  151.2059  135.0461  159.8891 H   0  0  0  0  0  0  0  0  0  0  0  0  # atno 6907 bound_to 6896
  152.5429  134.0798  159.8241 H   0  0  0  0  0  0  0  0  0  0  0  0  # atno 6908 bound_to 6896
  151.0945  133.5242  159.2645 H   0  0  0  0  0  0  0  0  0  0  0  0  # atno 6909 bound_to 6896
  145.7123  139.2619  143.1643 H   0  0  0  0  0  0  0  0  0  0  0  0  # atno 7974 bound_to 7965
  155.1172  140.0398  157.2740 H   0  0  0  0  0  0  0  0  0  0  0  0  # atno 8008 bound_to 7997
  154.6640  140.2597  155.7052 H   0  0  0  0  0  0  0  0  0  0  0  0  # atno 8009 bound_to 7997
  156.2631  140.2811  156.1124 H   0  0  0  0  0  0  0  0  0  0  0  0  # atno 8010 bound_to 7997
  139.4948  144.5976  151.6549 H   0  0  0  0  0  0  0  0  0  0  0  0  # atno 10167 bound_to 10162
  156.8919  130.9850  151.3048 H   0  0  0  0  0  0  0  0  0  0  0  0  # atno 10718 bound_to 10713
  154.8745  135.3804  154.4377 H   0  0  0  0  0  0  0  0  0  0  0  0  # atno 10763 bound_to 10752
  153.5065  135.7030  153.5809 H   0  0  0  0  0  0  0  0  0  0  0  0  # atno 10764 bound_to 10752
  153.4118  135.3923  155.2021 H   0  0  0  0  0  0  0  0  0  0  0  0  # atno 10765 bound_to 10752
  140.5941  133.9896  155.8102 H   0  0  0  0  0  0  0  0  0  0  0  0  # atno 11005 bound_to 11000
  146.0701  140.7878  142.9692 LP  0  0  0  0  0  0  0  0  0  0  0  0  # atno 17320 bound_to 7965
  144.6938  140.3329  143.7213 LP  0  0  0  0  0  0  0  0  0  0  0  0  # atno 17321 bound_to 7965
  140.5618  144.0256  150.6173 LP  0  0  0  0  0  0  0  0  0  0  0  0  # atno 17342 bound_to 10162
  140.3344  143.3057  152.0653 LP  0  0  0  0  0  0  0  0  0  0  0  0  # atno 17343 bound_to 10162
  157.6078  130.8560  149.8903 LP  0  0  0  0  0  0  0  0  0  0  0  0  # atno 17370 bound_to 10713
  156.0624  130.3697  150.0952 LP  0  0  0  0  0  0  0  0  0  0  0  0  # atno 17371 bound_to 10713
  141.0915  133.9909  157.3229 LP  0  0  0  0  0  0  0  0  0  0  0  0  # atno 17394 bound_to 11000
  139.9261  135.0201  156.8238 LP  0  0  0  0  0  0  0  0  0  0  0  0  # atno 17395 bound_to 11000

$$$$
