AV-unprocessed.smi:158|AV-procd|sdf|1333|dock6
  -GOLD-   2262019 33D 1   1.00000     0.00000
 Structure written by MMmdl.
 31 33  0  0  0  0  0  0  0  0  1 V2000
  152.1612  138.1124  154.4905 N   0  0  0  0  0  0  0  0  0  0  0  0
  151.6561  139.1581  155.1598 C   0  0  0  0  0  0  0  0  0  0  0  0
  150.6610  139.8704  154.5834 N   0  0  0  0  0  0  0  0  0  0  0  0
  150.1302  140.9220  155.2177 C   0  0  0  0  0  0  0  0  0  0  0  0
  148.8681  141.7593  154.3941 Cl  0  0  0  0  0  0  0  0  0  0  0  0
  150.4702  141.3986  156.4192 N   0  0  0  0  0  0  0  0  0  0  0  0
  151.4740  140.6858  157.0088 C   0  0  0  0  0  0  0  0  0  0  0  0
  152.1160  139.5517  156.4403 C   0  0  0  0  0  0  0  0  0  0  0  0
  153.0864  139.0704  157.3068 N   0  0  0  0  0  0  0  0  0  0  0  0
  153.0195  139.8786  158.3296 C   0  0  0  0  0  0  0  0  0  0  0  0
  152.0828  140.8854  158.2365 N   0  0  0  0  0  0  0  0  0  0  0  0
  151.8136  141.9453  159.2675 C   0  0  2  0  0  0  0  0  0  0  0  0
  150.5271  142.4651  159.0834 O   0  0  0  0  0  0  0  0  0  0  0  0
  150.5641  143.7893  158.5338 C   0  0  1  0  0  0  0  0  0  0  0  0
  150.0818  144.7576  159.6347 C   0  0  0  0  0  0  0  0  0  0  0  0
  148.6709  144.7762  159.6714 O   0  0  0  0  0  0  0  0  0  0  0  0
  152.0289  143.9664  158.0963 C   0  0  1  0  0  0  0  0  0  0  0  0
  152.5056  145.2968  158.0430 O   0  0  0  0  0  0  0  0  0  0  0  0
  152.7910  143.1055  159.0839 C   0  0  1  0  0  0  0  0  0  0  0  0
  152.9399  143.7124  160.2632 F   0  0  0  0  0  0  0  0  0  0  0  0
  151.9096  141.4237  160.2204 H   0  0  0  0  0  0  0  0  0  0  0  0
  149.9108  143.8656  157.6633 H   0  0  0  0  0  0  0  0  0  0  0  0
  152.1506  143.5400  157.0998 H   0  0  0  0  0  0  0  0  0  0  0  0
  153.7722  142.7767  158.7393 H   0  0  0  0  0  0  0  0  0  0  0  0
  152.9051  137.5656  154.8999 H   0  0  0  0  0  0  0  0  0  0  0  0
  151.7978  137.8727  153.5795 H   0  0  0  0  0  0  0  0  0  0  0  0
  153.6629  139.7650  159.1900 H   0  0  0  0  0  0  0  0  0  0  0  0
  150.4771  144.4881  160.6141 H   0  0  0  0  0  0  0  0  0  0  0  0
  150.4008  145.7786  159.4268 H   0  0  0  0  0  0  0  0  0  0  0  0
  148.3541  145.1525  158.8646 H   0  0  0  0  0  0  0  0  0  0  0  0
  153.1435  145.3588  157.3484 H   0  0  0  0  0  0  0  0  0  0  0  0
  1  2  1  0  0  0  0
  1 25  1  0  0  0  0
  1 26  1  0  0  0  0
  2  8  1  0  0  0  0
  2  3  2  0  0  0  0
  3  4  1  0  0  0  0
  4  5  1  0  0  0  0
  4  6  2  0  0  0  0
  6  7  1  0  0  0  0
  7 11  1  0  0  0  0
  7  8  2  0  0  0  0
  8  9  1  0  0  0  0
  9 10  2  0  0  0  0
 10 11  1  0  0  0  0
 10 27  1  0  0  0  0
 11 12  1  0  0  0  0
 12 21  1  0  0  0  0
 12 19  1  0  0  0  0
 12 13  1  0  0  0  0
 13 14  1  0  0  0  0
 14 22  1  0  0  0  0
 14 15  1  0  0  0  0
 14 17  1  0  0  0  0
 15 16  1  0  0  0  0
 15 28  1  0  0  0  0
 15 29  1  0  0  0  0
 16 30  1  0  0  0  0
 17 23  1  0  0  0  0
 17 18  1  0  0  0  0
 17 19  1  0  0  0  0
 18 31  1  0  0  0  0
 19 24  1  0  0  0  0
 19 20  1  0  0  0  0
M  END
> <s_m_source_file>
AV-unprocessed.smi

> <i_m_source_file_index>
158

> <i_lp_mmshare_version>
43012

> <i_f3d_flags>
0

> <s_epik_input>
Q2xjKG4xKW5jKFtOSDJdKWMoYzEyKW5bY0hdbjJbQ0BASF0zT1tDQEhdKFtDSDJdW09IXSlbQ0BASF0oW09IXSlbQ0BASF0zRg==

> <s_epik_cmdline>
J2VwaWtfcHl0aG9uJywgJy1waCcsICc3LjAnLCAnLXRuJywgJzgnLCAnLW1hJywgJzIwMCcsICctbWV0YWxfYmluZGluZycsICctaW1hZScsICc8aW5maWxlLm1hZT4nLCAnLW9tYWUnLCAnPG91dGZpbGUubWFlPic=

> <r_lp_tautomer_probability>
1

> <r_epik_Ionization_Penalty>
6.51543e-05

> <r_epik_Ionization_Penalty_Charging>
0

> <r_epik_Ionization_Penalty_Neutral>
6.51543e-05

> <r_epik_State_Penalty>
-0

> <r_epik_Charging_Adjusted_Penalty>
0

> <i_epik_Tot_Q>
0

> <i_epik_Tot_abs_Q>
0

> <r_epik_Metal_State_Penalty>
-0

> <b_epik_Metal_Only>
0

> <s_epik_Chemistry_Notes>
This compound contains an acetal/aminal-like group ( X-CH(R)-Y where X, Y are N, S, or O) that may be acid/base labile, releasing an aldehyde.

> <s_lp_Force_Field>
OPLS_2005

> <r_lp_Energy>
36.1336

> <b_lp_Chiralities_Consistent>
1

> <s_lp_Variant>
AV-unprocessed.smi:158-11

> <Gold.Version>
5.8.1

> <Gold.Id.Protein>
6NUR|6NUR_protein|mol2

> <Gold.PLP.Fitness>
42.2672

> <Gold.PLP.PLP>
-37.0349

> <Gold.PLP.part.hbond>
-4.0000

> <Gold.PLP.part.metal>
0.0000

> <Gold.PLP.part.buried>
-1.4788

> <Gold.PLP.part.nonpolar>
-30.8130

> <Gold.PLP.part.repulsive>
0.3704

> <Gold.PLP.ligand.clash>
0.0000

> <Gold.PLP.ligand.torsion>
0.8375

> <Gold.PLP.Chemscore.Hbond>
2.2975

> <Gold.PLP.Chemscore.CHOScore>
0.0000

> <Gold.PLP.Chemscore.Metal>
0.0000

> <Gold.Chemscore.Hbonds>
donor molecule, donor type, donor heavy atom, donor atom, acceptor molecule, acceptor atom, score
      L1  H    16    30       P1  8029  1.00
      P1  H  7989  7998       L1     3  0.67
      P1  H  7997  8010       L1     9  0.35

> <Gold.PLP.Chemscore.Internal.Correction>
0.0148

> <Gold.Rescore>
     Score         DG    S(hbond)    S(metal)    S(lipo)     H(rot)  DE(clash)    DE(int)     intcor
      3.90      -7.45       1.02        0.00      56.04       3.12       1.32       2.24       ----

> <Gold.Chemscore.Fitness>
3.8999

> <Gold.Chemscore.DG>
-7.4508

> <Gold.Chemscore.ZeroCoef>
-5.4800

> <Gold.Chemscore.Hbond>
1.0207

> <Gold.Chemscore.Metal>
0.0000

> <Gold.Chemscore.Lipo>
56.0389

> <Gold.Chemscore.Internal_Hbond>
0.0000

> <Gold.Chemscore.DEClash>
1.3153

> <Gold.Chemscore.DEInternal>
2.2357

> <Gold.Chemscore.Rot>
3.1230

> <Gold.Chemscore.Internal.Correction>
   9.000000E+99

> <Gold.Chemscore.Hbonds>
donor molecule, donor type, donor heavy atom, donor atom, acceptor molecule, acceptor atom, score
      L1  H    16    30       P1  8029  1.00
      P1  H  7989  7998       L1     3  0.02

> <Gold.Chemscore.Hbond.Weighted>
-3.4092

> <Gold.Chemscore.Metal.Weighted>
-0.0000

> <Gold.Chemscore.Lipo.Weighted>
-6.5566

> <Gold.Chemscore.Internal_Hbond.Weighted>
0.0000

> <Gold.Chemscore.DEClash.Weighted>
1.3153

> <Gold.Chemscore.DEInternal.Weighted>
2.2357

> <Gold.Chemscore.Rot.Weighted>
7.9950

> <Gold.Chemscore.Internal.Correction.Weighted>
   9.000000E+99

> <Gold.Protein.RotatedTorsions>
[ 6907 6896 6895 6894 ] final   67.97 input  -60.11 | X-H torsion
[ 7974 7965 7964 7962 ] final  115.64 input  175.53 | X-H torsion
[ 8008 7997 7996 7995 ] final   62.59 input   59.86 | X-H torsion
[ 10167 10162 10161 10158 ] final -162.29 input  -65.29 | X-H torsion
[ 10718 10713 10712 10709 ] final  158.03 input   66.30 | X-H torsion
[ 10763 10752 10751 10750 ] final -114.53 input  -60.55 | X-H torsion
[ 11005 11000 10999 10996 ] final  137.45 input  -57.11 | X-H torsion

> <Gold.Protein.ActiveResidues>
 VAL166  LYS551  ARG553  GLY616  TRP617  ASP618  TYR619  PRO620  LYS621  CYS622 
 ASP623  PHE694  ASN695  SER759  ASP760  ASP761  ALA762  ILE779  LEU786  VAL792 
 PHE793  MET794  SER795  GLU796  ALA797  LYS798  CYS799  TRP800  GLU811  SER814 

> <Gold.Protein.RotatedAtoms>
  152.4588  134.5230  159.9788 H   0  0  0  0  0  0  0  0  0  0  0  0  # atno 6907 bound_to 6896
  151.5284  133.3447  159.2922 H   0  0  0  0  0  0  0  0  0  0  0  0  # atno 6908 bound_to 6896
  150.8543  134.7907  159.7096 H   0  0  0  0  0  0  0  0  0  0  0  0  # atno 6909 bound_to 6896
  145.1895  139.3007  143.4375 H   0  0  0  0  0  0  0  0  0  0  0  0  # atno 7974 bound_to 7965
  155.6167  140.3495  155.4639 H   0  0  0  0  0  0  0  0  0  0  0  0  # atno 8008 bound_to 7997
  156.0111  140.1233  157.0476 H   0  0  0  0  0  0  0  0  0  0  0  0  # atno 8009 bound_to 7997
  154.4281  140.1081  156.5817 H   0  0  0  0  0  0  0  0  0  0  0  0  # atno 8010 bound_to 7997
  139.6403  144.0272  152.2086 H   0  0  0  0  0  0  0  0  0  0  0  0  # atno 10167 bound_to 10162
  157.1834  131.0638  151.2119 H   0  0  0  0  0  0  0  0  0  0  0  0  # atno 10718 bound_to 10713
  154.8444  135.4414  154.1520 H   0  0  0  0  0  0  0  0  0  0  0  0  # atno 10763 bound_to 10752
  153.2678  135.6942  153.7517 H   0  0  0  0  0  0  0  0  0  0  0  0  # atno 10764 bound_to 10752
  153.6769  135.3409  155.3143 H   0  0  0  0  0  0  0  0  0  0  0  0  # atno 10765 bound_to 10752
  140.0115  134.9437  157.0287 H   0  0  0  0  0  0  0  0  0  0  0  0  # atno 11005 bound_to 11000
  146.3439  140.2103  142.8590 LP  0  0  0  0  0  0  0  0  0  0  0  0  # atno 17320 bound_to 7965
  145.0055  140.8669  143.5256 LP  0  0  0  0  0  0  0  0  0  0  0  0  # atno 17321 bound_to 7965
  139.9960  144.6327  150.7772 LP  0  0  0  0  0  0  0  0  0  0  0  0  # atno 17342 bound_to 10162
  140.7487  143.2927  151.3288 LP  0  0  0  0  0  0  0  0  0  0  0  0  # atno 17343 bound_to 10162
  157.3930  130.7292  149.6711 LP  0  0  0  0  0  0  0  0  0  0  0  0  # atno 17370 bound_to 10713
  155.9721  130.4141  150.4116 LP  0  0  0  0  0  0  0  0  0  0  0  0  # atno 17371 bound_to 10713
  140.4546  134.1546  155.7185 LP  0  0  0  0  0  0  0  0  0  0  0  0  # atno 17394 bound_to 11000
  141.1714  133.8601  157.1559 LP  0  0  0  0  0  0  0  0  0  0  0  0  # atno 17395 bound_to 11000

$$$$
