AV-unprocessed.smi:2710|AV-procd|sdf|10469|dock3
  -GOLD-   2272014513D 1   1.00000     0.00000
 Structure written by MMmdl.
 53 54  0  0  0  0  0  0  0  0  2 V2000
  144.2474  143.2829  156.8700 C   0  0  0  0  0  0  0  0  0  0  0  0
  143.7625  142.4308  155.6854 C   0  0  0  0  0  0  0  0  0  0  0  0
  144.8669  141.9443  154.8072 N   0  3  1  0  0  0  0  0  0  0  0  0
  145.6815  143.0699  154.2651 C   0  0  0  0  0  0  0  0  0  0  0  0
  146.7375  142.5897  153.2574 C   0  0  0  0  0  0  0  0  0  0  0  0
  147.6630  141.5303  153.8653 C   0  0  1  0  0  0  0  0  0  0  0  0
  148.5408  142.1200  154.8777 N   0  0  0  0  0  0  0  0  0  0  0  0
  149.3379  141.4434  155.7178 C   0  0  0  0  0  0  0  0  0  0  0  0
  149.4176  140.2160  155.7436 O   0  0  0  0  0  0  0  0  0  0  0  0
  150.0415  142.2812  156.4979 N   0  0  0  0  0  0  0  0  0  0  0  0
  150.9764  141.9536  157.5159 C   0  0  0  0  0  0  0  0  0  0  0  0
  151.8914  140.9046  157.2954 C   0  0  0  0  0  0  0  0  0  0  0  0
  152.8141  140.5548  158.2157 N   0  0  0  0  0  0  0  0  0  0  0  0
  152.8415  141.2496  159.3606 C   0  0  0  0  0  0  0  0  0  0  0  0
  153.9143  140.8374  160.3848 C   0  0  0  0  0  0  0  0  0  0  0  0
  153.8257  139.3357  160.7527 C   0  0  0  0  0  0  0  0  0  0  0  0
  153.7284  141.6421  161.6869 C   0  0  0  0  0  0  0  0  0  0  0  0
  155.3192  141.0790  159.7950 C   0  0  0  0  0  0  0  0  0  0  0  0
  152.0327  142.2733  159.6640 N   0  0  0  0  0  0  0  0  0  0  0  0
  151.1021  142.6297  158.7533 C   0  0  0  0  0  0  0  0  0  0  0  0
  146.8154  140.3983  154.4611 C   0  0  0  0  0  0  0  0  0  0  0  0
  145.7317  140.8976  155.4452 C   0  0  2  0  0  0  0  0  0  0  0  0
  144.9359  139.6773  155.9533 C   0  0  0  0  0  0  0  0  0  0  0  0
  143.3999  143.7488  157.3735 H   0  0  0  0  0  0  0  0  0  0  0  0
  144.9110  144.0821  156.5387 H   0  0  0  0  0  0  0  0  0  0  0  0
  144.7708  142.6922  157.6212 H   0  0  0  0  0  0  0  0  0  0  0  0
  143.1698  141.5867  156.0412 H   0  0  0  0  0  0  0  0  0  0  0  0
  143.0858  143.0692  155.1220 H   0  0  0  0  0  0  0  0  0  0  0  0
  145.0480  143.7908  153.7516 H   0  0  0  0  0  0  0  0  0  0  0  0
  146.1581  143.6045  155.0883 H   0  0  0  0  0  0  0  0  0  0  0  0
  146.2338  142.1700  152.3854 H   0  0  0  0  0  0  0  0  0  0  0  0
  147.3212  143.4358  152.8923 H   0  0  0  0  0  0  0  0  0  0  0  0
  148.2647  141.1072  153.0591 H   0  0  0  0  0  0  0  0  0  0  0  0
  148.5511  143.1276  154.9361 H   0  0  0  0  0  0  0  0  0  0  0  0
  149.9353  143.2671  156.3077 H   0  0  0  0  0  0  0  0  0  0  0  0
  151.8828  140.3378  156.3759 H   0  0  0  0  0  0  0  0  0  0  0  0
  154.5947  139.0582  161.4745 H   0  0  0  0  0  0  0  0  0  0  0  0
  153.9616  138.6977  159.8785 H   0  0  0  0  0  0  0  0  0  0  0  0
  152.8629  139.0865  161.2011 H   0  0  0  0  0  0  0  0  0  0  0  0
  152.7384  141.4785  162.1141 H   0  0  0  0  0  0  0  0  0  0  0  0
  153.8400  142.7135  161.5178 H   0  0  0  0  0  0  0  0  0  0  0  0
  154.4635  141.3567  162.4400 H   0  0  0  0  0  0  0  0  0  0  0  0
  156.1012  140.7747  160.4914 H   0  0  0  0  0  0  0  0  0  0  0  0
  155.4856  142.1321  159.5657 H   0  0  0  0  0  0  0  0  0  0  0  0
  155.4621  140.5153  158.8722 H   0  0  0  0  0  0  0  0  0  0  0  0
  150.4841  143.4714  159.0245 H   0  0  0  0  0  0  0  0  0  0  0  0
  146.3333  139.8564  153.6458 H   0  0  0  0  0  0  0  0  0  0  0  0
  147.4687  139.6763  154.9534 H   0  0  0  0  0  0  0  0  0  0  0  0
  146.2289  141.3524  156.3035 H   0  0  0  0  0  0  0  0  0  0  0  0
  145.6075  138.8735  156.2571 H   0  0  0  0  0  0  0  0  0  0  0  0
  144.2792  139.2790  155.1791 H   0  0  0  0  0  0  0  0  0  0  0  0
  144.3322  139.9090  156.8300 H   0  0  0  0  0  0  0  0  0  0  0  0
  144.4244  141.4996  154.0154 H   0  0  0  0  0  0  0  0  0  0  0  0
  1  2  1  0  0  0  0
  1 24  1  0  0  0  0
  1 25  1  0  0  0  0
  1 26  1  0  0  0  0
  2  3  1  0  0  0  0
  2 27  1  0  0  0  0
  2 28  1  0  0  0  0
  3 22  1  0  0  0  0
  3  4  1  0  0  0  0
  3 53  1  0  0  0  0
  4  5  1  0  0  0  0
  4 29  1  0  0  0  0
  4 30  1  0  0  0  0
  5  6  1  0  0  0  0
  5 31  1  0  0  0  0
  5 32  1  0  0  0  0
  6  7  1  0  0  0  0
  6 21  1  0  0  0  0
  6 33  1  0  0  0  0
  7  8  1  0  0  0  0
  7 34  1  0  0  0  0
  8  9  2  0  0  0  0
  8 10  1  0  0  0  0
 10 11  1  0  0  0  0
 10 35  1  0  0  0  0
 11 20  1  0  0  0  0
 11 12  2  0  0  0  0
 12 13  1  0  0  0  0
 12 36  1  0  0  0  0
 13 14  2  0  0  0  0
 14 15  1  0  0  0  0
 14 19  1  0  0  0  0
 15 16  1  0  0  0  0
 15 17  1  0  0  0  0
 15 18  1  0  0  0  0
 16 37  1  0  0  0  0
 16 38  1  0  0  0  0
 16 39  1  0  0  0  0
 17 40  1  0  0  0  0
 17 41  1  0  0  0  0
 17 42  1  0  0  0  0
 18 43  1  0  0  0  0
 18 44  1  0  0  0  0
 18 45  1  0  0  0  0
 19 20  2  0  0  0  0
 20 46  1  0  0  0  0
 21 22  1  0  0  0  0
 21 47  1  0  0  0  0
 21 48  1  0  0  0  0
 22 23  1  0  0  0  0
 22 49  1  0  0  0  0
 23 50  1  0  0  0  0
 23 51  1  0  0  0  0
 23 52  1  0  0  0  0
M  CHG  1   3   1
M  END
> <s_m_source_file>
AV-unprocessed.smi

> <i_m_source_file_index>
2710

> <i_lp_mmshare_version>
43012

> <i_f3d_flags>
0

> <s_epik_input>
W0NIM11bQ0gyXU4xW0NIMl1bQ0gyXVtDQEhdKFtDSDJdW0NASF0xW0NIM10pW05IXUMoPU8pW05IXWMyW2NIXW5jKEMoW0NIM10pKFtDSDNdKVtDSDNdKW5bY0hdMg==

> <s_epik_cmdline>
J2VwaWtfcHl0aG9uJywgJy1waCcsICc3LjAnLCAnLXRuJywgJzgnLCAnLW1hJywgJzIwMCcsICctbWV0YWxfYmluZGluZycsICctaW1hZScsICc8aW5maWxlLm1hZT4nLCAnLW9tYWUnLCAnPG91dGZpbGUubWFlPic=

> <r_lp_tautomer_probability>
1

> <r_epik_Ionization_Penalty>
0.00396003

> <r_epik_Ionization_Penalty_Charging>
0.0039379

> <r_epik_Ionization_Penalty_Neutral>
2.21316e-05

> <r_epik_State_Penalty>
0.00281651

> <r_epik_Charging_Adjusted_Penalty>
0.00675441

> <i_epik_Tot_Q>
1

> <i_epik_Tot_abs_Q>
1

> <r_epik_Metal_State_Penalty>
-0

> <b_epik_Metal_Only>
0

> <s_lp_Force_Field>
OPLS_2005

> <r_lp_Energy>
19.7949

> <b_lp_Chiralities_Consistent>
1

> <s_lp_Variant>
AV-unprocessed.smi:2710-6

> <Gold.Version>
5.8.1

> <Gold.Id.Protein>
6NUR|6NUR_protein|mol2

> <Gold.PLP.Fitness>
48.0202

> <Gold.PLP.PLP>
-35.5258

> <Gold.PLP.part.hbond>
-4.0000

> <Gold.PLP.part.metal>
0.0000

> <Gold.PLP.part.buried>
-6.8203

> <Gold.PLP.part.nonpolar>
-24.4758

> <Gold.PLP.part.repulsive>
0.2935

> <Gold.PLP.ligand.clash>
0.0000

> <Gold.PLP.ligand.torsion>
0.5134

> <Gold.PLP.Chemscore.Hbond>
4.4940

> <Gold.PLP.Chemscore.CHOScore>
0.0000

> <Gold.PLP.Chemscore.Metal>
0.0000

> <Gold.Chemscore.Hbonds>
donor molecule, donor type, donor heavy atom, donor atom, acceptor molecule, acceptor atom, score
      L1  H     3    53       P1 10175  1.90
      L1  H     7    34       P1  8028  1.00
      L1  H    10    35       P1  8028  1.00
      P1  H  7997  8009       L1    13  0.48

> <Gold.PLP.Chemscore.Internal.Correction>
0.0392

> <Gold.Rescore>
     Score         DG    S(hbond)    S(metal)    S(lipo)     H(rot)  DE(clash)    DE(int)     intcor
     18.67     -22.55       3.15        0.00      84.70       1.31       0.77       3.11       ----

> <Gold.Chemscore.Fitness>
18.6668

> <Gold.Chemscore.DG>
-22.5496

> <Gold.Chemscore.ZeroCoef>
-5.4800

> <Gold.Chemscore.Hbond>
3.1462

> <Gold.Chemscore.Metal>
0.0000

> <Gold.Chemscore.Lipo>
84.7009

> <Gold.Chemscore.Internal_Hbond>
0.0000

> <Gold.Chemscore.DEClash>
0.7737

> <Gold.Chemscore.DEInternal>
3.1091

> <Gold.Chemscore.Rot>
1.3081

> <Gold.Chemscore.Internal.Correction>
   9.000000E+99

> <Gold.Chemscore.Hbonds>
donor molecule, donor type, donor heavy atom, donor atom, acceptor molecule, acceptor atom, score
      L1  H     3    53       P1 10175  0.21
      L1  H     7    34       P1  8028  0.99
      L1  H    10    35       P1  8028  0.95
      P1  H  7997  8009       L1    13  0.21

> <Gold.Chemscore.Hbond.Weighted>
-10.5084

> <Gold.Chemscore.Metal.Weighted>
-0.0000

> <Gold.Chemscore.Lipo.Weighted>
-9.9100

> <Gold.Chemscore.Internal_Hbond.Weighted>
0.0000

> <Gold.Chemscore.DEClash.Weighted>
0.7737

> <Gold.Chemscore.DEInternal.Weighted>
3.1091

> <Gold.Chemscore.Rot.Weighted>
3.3488

> <Gold.Chemscore.Internal.Correction.Weighted>
   9.000000E+99

> <Gold.Protein.RotatedTorsions>
[ 6907 6896 6895 6894 ] final  106.68 input  -60.11 | X-H torsion
[ 7974 7965 7964 7962 ] final   91.38 input  175.53 | X-H torsion
[ 8008 7997 7996 7995 ] final  155.47 input   59.86 | X-H torsion
[ 10167 10162 10161 10158 ] final   93.68 input  -65.29 | X-H torsion
[ 10718 10713 10712 10709 ] final   60.56 input   66.30 | X-H torsion
[ 10763 10752 10751 10750 ] final  102.38 input  -60.55 | X-H torsion
[ 11005 11000 10999 10996 ] final  -74.31 input  -57.11 | X-H torsion

> <Gold.Protein.ActiveResidues>
 VAL166  LYS551  ARG553  GLY616  TRP617  ASP618  TYR619  PRO620  LYS621  CYS622 
 ASP623  PHE694  ASN695  SER759  ASP760  ASP761  ALA762  ILE779  LEU786  VAL792 
 PHE793  MET794  SER795  GLU796  ALA797  LYS798  CYS799  TRP800  GLU811  SER814 

> <Gold.Protein.RotatedAtoms>
  152.5184  133.9345  159.7596 H   0  0  0  0  0  0  0  0  0  0  0  0  # atno 6907 bound_to 6896
  150.9689  133.6357  159.2748 H   0  0  0  0  0  0  0  0  0  0  0  0  # atno 6908 bound_to 6896
  151.3576  135.0903  159.9476 H   0  0  0  0  0  0  0  0  0  0  0  0  # atno 6909 bound_to 6896
  145.5065  139.2276  143.2748 H   0  0  0  0  0  0  0  0  0  0  0  0  # atno 7974 bound_to 7965
  156.2476  140.1938  156.6806 H   0  0  0  0  0  0  0  0  0  0  0  0  # atno 8008 bound_to 7997
  154.6325  140.0594  156.9775 H   0  0  0  0  0  0  0  0  0  0  0  0  # atno 8009 bound_to 7997
  155.1689  140.3266  155.4399 H   0  0  0  0  0  0  0  0  0  0  0  0  # atno 8010 bound_to 7997
  139.8157  144.6754  150.9583 H   0  0  0  0  0  0  0  0  0  0  0  0  # atno 10167 bound_to 10162
  157.5762  130.8945  149.9351 H   0  0  0  0  0  0  0  0  0  0  0  0  # atno 10718 bound_to 10713
  153.3389  135.4012  155.1555 H   0  0  0  0  0  0  0  0  0  0  0  0  # atno 10763 bound_to 10752
  154.8639  135.3628  154.5372 H   0  0  0  0  0  0  0  0  0  0  0  0  # atno 10764 bound_to 10752
  153.5816  135.7076  153.5520 H   0  0  0  0  0  0  0  0  0  0  0  0  # atno 10765 bound_to 10752
  141.1633  133.6907  156.7345 H   0  0  0  0  0  0  0  0  0  0  0  0  # atno 11005 bound_to 11000
  146.2193  140.5869  142.9024 LP  0  0  0  0  0  0  0  0  0  0  0  0  # atno 17320 bound_to 7965
  144.7751  140.5722  143.6643 LP  0  0  0  0  0  0  0  0  0  0  0  0  # atno 17321 bound_to 7965
  140.7816  143.4141  151.0945 LP  0  0  0  0  0  0  0  0  0  0  0  0  # atno 17342 bound_to 10162
  139.7805  143.8363  152.3136 LP  0  0  0  0  0  0  0  0  0  0  0  0  # atno 17343 bound_to 10162
  156.0806  130.3673  150.0587 LP  0  0  0  0  0  0  0  0  0  0  0  0  # atno 17370 bound_to 10713
  156.8733  130.9532  151.3607 LP  0  0  0  0  0  0  0  0  0  0  0  0  # atno 17371 bound_to 10713
  140.2720  134.8385  157.3856 LP  0  0  0  0  0  0  0  0  0  0  0  0  # atno 17394 bound_to 11000
  140.1513  134.4847  155.7959 LP  0  0  0  0  0  0  0  0  0  0  0  0  # atno 17395 bound_to 11000

$$$$
