AV-unprocessed.smi:2530|AV-procd|sdf|9962|dock1
  -GOLD-   2272014 03D 1   1.00000     0.00000
 Structure written by MMmdl.
 44 46  0  0  0  0  0  0  0  0  1 V2000
  151.8589  145.2995  159.3825 C   0  0  0  0  0  0  0  0  0  0  0  0
  152.0937  143.8033  159.3860 C   0  0  0  0  0  0  0  0  0  0  0  0
  152.7648  143.1921  160.4603 C   0  0  0  0  0  0  0  0  0  0  0  0
  152.9934  141.8046  160.4463 C   0  0  0  0  0  0  0  0  0  0  0  0
  152.5637  141.0105  159.3608 C   0  0  0  0  0  0  0  0  0  0  0  0
  152.8651  139.5212  159.4087 C   0  0  0  0  0  0  0  0  0  0  0  0
  151.8794  141.6223  158.2724 C   0  0  0  0  0  0  0  0  0  0  0  0
  151.4048  140.8589  157.0303 C   0  0  2  0  0  0  0  0  0  0  0  0
  152.4407  140.1854  156.3464 O   0  0  0  0  0  0  0  0  0  0  0  0
  150.5970  141.7202  156.0265 C   0  0  0  0  0  0  0  0  0  0  0  0
  149.5606  140.9509  155.3144 N   0  0  0  0  0  0  0  0  0  0  0  0
  148.2235  141.3538  155.5035 C   0  0  0  0  0  0  0  0  0  0  0  0
  147.2358  140.7045  154.9755 N   0  0  0  0  0  0  0  0  0  0  0  0
  147.4847  139.5704  154.1927 C   0  0  0  0  0  0  0  0  0  0  0  0
  146.3052  138.8273  153.5773 C   0  0  0  0  0  0  0  0  0  0  0  0
  146.1611  137.3242  153.8826 C   0  0  0  0  0  0  0  0  0  0  0  0
  145.7458  137.1383  152.4180 C   0  0  0  0  0  0  0  0  0  0  0  0
  146.4925  138.4404  152.1043 C   0  0  0  0  0  0  0  0  0  0  0  0
  148.7547  139.1690  153.9517 C   0  0  0  0  0  0  0  0  0  0  0  0
  149.8914  139.8803  154.5359 C   0  0  0  0  0  0  0  0  0  0  0  0
  151.0573  139.5297  154.3541 O   0  0  0  0  0  0  0  0  0  0  0  0
  151.6521  143.0175  158.3049 C   0  0  0  0  0  0  0  0  0  0  0  0
  151.8484  145.6969  160.3979 H   0  0  0  0  0  0  0  0  0  0  0  0
  150.9032  145.5396  158.9159 H   0  0  0  0  0  0  0  0  0  0  0  0
  152.6497  145.8012  158.8246 H   0  0  0  0  0  0  0  0  0  0  0  0
  153.1100  143.7840  161.2954 H   0  0  0  0  0  0  0  0  0  0  0  0
  153.5123  141.3513  161.2784 H   0  0  0  0  0  0  0  0  0  0  0  0
  151.9509  138.9502  159.5697 H   0  0  0  0  0  0  0  0  0  0  0  0
  153.5475  139.2835  160.2254 H   0  0  0  0  0  0  0  0  0  0  0  0
  153.3353  139.1801  158.4887 H   0  0  0  0  0  0  0  0  0  0  0  0
  150.7459  140.0621  157.3773 H   0  0  0  0  0  0  0  0  0  0  0  0
  152.4813  140.5195  155.4632 H   0  0  0  0  0  0  0  0  0  0  0  0
  150.1503  142.5716  156.5404 H   0  0  0  0  0  0  0  0  0  0  0  0
  151.2790  142.1739  155.3051 H   0  0  0  0  0  0  0  0  0  0  0  0
  148.0811  142.2355  156.1305 H   0  0  0  0  0  0  0  0  0  0  0  0
  145.3617  139.3539  153.7358 H   0  0  0  0  0  0  0  0  0  0  0  0
  147.0930  136.8039  154.1072 H   0  0  0  0  0  0  0  0  0  0  0  0
  145.3839  137.0807  154.6075 H   0  0  0  0  0  0  0  0  0  0  0  0
  146.1544  136.2501  151.9355 H   0  0  0  0  0  0  0  0  0  0  0  0
  144.6680  137.2219  152.2689 H   0  0  0  0  0  0  0  0  0  0  0  0
  145.9896  139.0961  151.3931 H   0  0  0  0  0  0  0  0  0  0  0  0
  147.5355  138.2717  151.8301 H   0  0  0  0  0  0  0  0  0  0  0  0
  148.9389  138.3037  153.3314 H   0  0  0  0  0  0  0  0  0  0  0  0
  151.1477  143.4984  157.4792 H   0  0  0  0  0  0  0  0  0  0  0  0
  1  2  1  0  0  0  0
  1 23  1  0  0  0  0
  1 24  1  0  0  0  0
  1 25  1  0  0  0  0
  2 22  1  0  0  0  0
  2  3  2  0  0  0  0
  3  4  1  0  0  0  0
  3 26  1  0  0  0  0
  4  5  2  0  0  0  0
  4 27  1  0  0  0  0
  5  6  1  0  0  0  0
  5  7  1  0  0  0  0
  6 28  1  0  0  0  0
  6 29  1  0  0  0  0
  6 30  1  0  0  0  0
  7  8  1  0  0  0  0
  7 22  2  0  0  0  0
  8  9  1  0  0  0  0
  8 10  1  0  0  0  0
  8 31  1  0  0  0  0
  9 32  1  0  0  0  0
 10 11  1  0  0  0  0
 10 33  1  0  0  0  0
 10 34  1  0  0  0  0
 11 20  1  0  0  0  0
 11 12  1  0  0  0  0
 12 13  2  0  0  0  0
 12 35  1  0  0  0  0
 13 14  1  0  0  0  0
 14 15  1  0  0  0  0
 14 19  2  0  0  0  0
 15 18  1  0  0  0  0
 15 16  1  0  0  0  0
 15 36  1  0  0  0  0
 16 17  1  0  0  0  0
 16 37  1  0  0  0  0
 16 38  1  0  0  0  0
 17 18  1  0  0  0  0
 17 39  1  0  0  0  0
 17 40  1  0  0  0  0
 18 41  1  0  0  0  0
 18 42  1  0  0  0  0
 19 20  1  0  0  0  0
 19 43  1  0  0  0  0
 20 21  2  0  0  0  0
 22 44  1  0  0  0  0
M  END
> <s_m_source_file>
AV-unprocessed.smi

> <i_m_source_file_index>
2530

> <i_lp_mmshare_version>
43012

> <i_f3d_flags>
0

> <s_epik_input>
W0NIM11jMVtjSF1bY0hdYyhbQ0gzXSljKFtjSF0xKVtDQEhdKFtPSF0pW0NIMl1uMltjSF1uYyhbY0hdYzI9TylbQ0hdM1tDSDJdW0NIMl1bQ0gyXTM=

> <s_epik_cmdline>
J2VwaWtfcHl0aG9uJywgJy1waCcsICc3LjAnLCAnLXRuJywgJzgnLCAnLW1hJywgJzIwMCcsICctbWV0YWxfYmluZGluZycsICctaW1hZScsICc8aW5maWxlLm1hZT4nLCAnLW9tYWUnLCAnPG91dGZpbGUubWFlPic=

> <r_lp_tautomer_probability>
1

> <r_epik_Ionization_Penalty>
2.57341e-05

> <r_epik_Ionization_Penalty_Charging>
5.39435e-08

> <r_epik_Ionization_Penalty_Neutral>
2.56801e-05

> <r_epik_State_Penalty>
-0

> <r_epik_Charging_Adjusted_Penalty>
5.39435e-08

> <i_epik_Tot_Q>
0

> <i_epik_Tot_abs_Q>
0

> <r_epik_Metal_State_Penalty>
-0

> <b_epik_Metal_Only>
0

> <s_lp_Force_Field>
OPLS_2005

> <r_lp_Energy>
27.4041

> <b_lp_Chiralities_Consistent>
1

> <s_lp_Variant>
AV-unprocessed.smi:2530-1

> <Gold.Version>
5.8.1

> <Gold.Id.Protein>
6NUR|6NUR_protein|mol2

> <Gold.PLP.Fitness>
53.5390

> <Gold.PLP.PLP>
-46.6619

> <Gold.PLP.part.hbond>
-2.0000

> <Gold.PLP.part.metal>
0.0000

> <Gold.PLP.part.buried>
-2.2960

> <Gold.PLP.part.nonpolar>
-42.2883

> <Gold.PLP.part.repulsive>
0.2258

> <Gold.PLP.ligand.clash>
0.0000

> <Gold.PLP.ligand.torsion>
0.5870

> <Gold.PLP.Chemscore.Hbond>
1.5220

> <Gold.PLP.Chemscore.CHOScore>
1.0000

> <Gold.PLP.Chemscore.Metal>
0.0000

> <Gold.Chemscore.Hbonds>
donor molecule, donor type, donor heavy atom, donor atom, acceptor molecule, acceptor atom, score
      P1  H  7989  7998       L1    21  1.00
      P1  H  7997  8009       L1     9  0.73
      L1  C    12    35       P1  8028  0.70

> <Gold.PLP.Chemscore.Internal.Correction>
0.4850

> <Gold.Rescore>
     Score         DG    S(hbond)    S(metal)    S(lipo)     H(rot)  DE(clash)    DE(int)     intcor
     15.34     -19.26       1.52        0.00     117.48       1.97       0.74       3.18       ----

> <Gold.Chemscore.Fitness>
15.3368

> <Gold.Chemscore.DG>
-19.2581

> <Gold.Chemscore.ZeroCoef>
-5.4800

> <Gold.Chemscore.Hbond>
1.5185

> <Gold.Chemscore.Metal>
0.0000

> <Gold.Chemscore.Lipo>
117.4825

> <Gold.Chemscore.Internal_Hbond>
0.0000

> <Gold.Chemscore.DEClash>
0.7422

> <Gold.Chemscore.DEInternal>
3.1791

> <Gold.Chemscore.Rot>
1.9684

> <Gold.Chemscore.Internal.Correction>
   9.000000E+99

> <Gold.Chemscore.Hbonds>
donor molecule, donor type, donor heavy atom, donor atom, acceptor molecule, acceptor atom, score
      P1  H  7989  7998       L1    21  0.26
      P1  H  7997  8009       L1     9  0.12

> <Gold.Chemscore.Hbond.Weighted>
-5.0717

> <Gold.Chemscore.Metal.Weighted>
-0.0000

> <Gold.Chemscore.Lipo.Weighted>
-13.7454

> <Gold.Chemscore.Internal_Hbond.Weighted>
0.0000

> <Gold.Chemscore.DEClash.Weighted>
0.7422

> <Gold.Chemscore.DEInternal.Weighted>
3.1791

> <Gold.Chemscore.Rot.Weighted>
5.0391

> <Gold.Chemscore.Internal.Correction.Weighted>
   9.000000E+99

> <Gold.Protein.RotatedTorsions>
[ 6907 6896 6895 6894 ] final  -55.86 input  -60.11 | X-H torsion
[ 7974 7965 7964 7962 ] final   19.43 input  175.53 | X-H torsion
[ 8008 7997 7996 7995 ] final  176.91 input   59.86 | X-H torsion
[ 10167 10162 10161 10158 ] final  -91.75 input  -65.29 | X-H torsion
[ 10718 10713 10712 10709 ] final   32.59 input   66.30 | X-H torsion
[ 10763 10752 10751 10750 ] final  -16.05 input  -60.55 | X-H torsion
[ 11005 11000 10999 10996 ] final   82.99 input  -57.11 | X-H torsion

> <Gold.Protein.ActiveResidues>
 VAL166  LYS551  ARG553  GLY616  TRP617  ASP618  TYR619  PRO620  LYS621  CYS622 
 ASP623  PHE694  ASN695  SER759  ASP760  ASP761  ALA762  ILE779  LEU786  VAL792 
 PHE793  MET794  SER795  GLU796  ALA797  LYS798  CYS799  TRP800  GLU811  SER814 

> <Gold.Protein.RotatedAtoms>
  150.8215  134.7426  159.6776 H   0  0  0  0  0  0  0  0  0  0  0  0  # atno 6907 bound_to 6896
  152.4330  134.5737  159.9938 H   0  0  0  0  0  0  0  0  0  0  0  0  # atno 6908 bound_to 6896
  151.5920  133.3328  159.3065 H   0  0  0  0  0  0  0  0  0  0  0  0  # atno 6909 bound_to 6896
  146.2149  139.8313  142.8659 H   0  0  0  0  0  0  0  0  0  0  0  0  # atno 7974 bound_to 7965
  156.0713  140.1371  156.9825 H   0  0  0  0  0  0  0  0  0  0  0  0  # atno 8008 bound_to 7997
  154.4533  140.0971  156.6735 H   0  0  0  0  0  0  0  0  0  0  0  0  # atno 8009 bound_to 7997
  155.5223  140.3456  155.4411 H   0  0  0  0  0  0  0  0  0  0  0  0  # atno 8010 bound_to 7997
  140.3418  143.2938  151.9827 H   0  0  0  0  0  0  0  0  0  0  0  0  # atno 10167 bound_to 10162
  157.2871  130.7284  149.6589 H   0  0  0  0  0  0  0  0  0  0  0  0  # atno 10718 bound_to 10713
  153.5526  135.7011  153.5584 H   0  0  0  0  0  0  0  0  0  0  0  0  # atno 10763 bound_to 10752
  153.3501  135.3997  155.1639 H   0  0  0  0  0  0  0  0  0  0  0  0  # atno 10764 bound_to 10752
  154.8659  135.3763  154.5038 H   0  0  0  0  0  0  0  0  0  0  0  0  # atno 10765 bound_to 10752
  139.9045  134.8112  156.2249 H   0  0  0  0  0  0  0  0  0  0  0  0  # atno 11005 bound_to 11000
  145.2994  141.0190  143.3617 LP  0  0  0  0  0  0  0  0  0  0  0  0  # atno 17320 bound_to 7965
  144.9017  139.4640  143.6629 LP  0  0  0  0  0  0  0  0  0  0  0  0  # atno 17321 bound_to 7965
  139.4839  144.6150  151.7362 LP  0  0  0  0  0  0  0  0  0  0  0  0  # atno 17342 bound_to 10162
  140.5302  144.0742  150.6051 LP  0  0  0  0  0  0  0  0  0  0  0  0  # atno 17343 bound_to 10162
  155.9666  130.4320  150.4945 LP  0  0  0  0  0  0  0  0  0  0  0  0  # atno 17370 bound_to 10713
  157.2900  131.0624  151.2140 LP  0  0  0  0  0  0  0  0  0  0  0  0  # atno 17371 bound_to 10713
  141.0382  133.6952  156.1550 LP  0  0  0  0  0  0  0  0  0  0  0  0  # atno 17394 bound_to 11000
  140.6995  134.4579  157.5586 LP  0  0  0  0  0  0  0  0  0  0  0  0  # atno 17395 bound_to 11000

$$$$
