AV-unprocessed.smi:2526|AV-procd|sdf|9940|dock6
  -GOLD-   2272013583D 1   1.00000     0.00000
 Structure written by MMmdl.
 28 29  0  0  0  0  0  0  0  0  1 V2000
  151.7571  138.2719  154.8121 C   0  0  0  0  0  0  0  0  0  0  0  0
  150.6090  139.1173  154.5647 N   0  0  0  0  0  0  0  0  0  0  0  0
  149.3773  138.7683  154.0560 C   0  0  0  0  0  0  0  0  0  0  0  0
  148.6151  139.9037  153.9961 C   0  0  0  0  0  0  0  0  0  0  0  0
  147.1889  140.0874  153.5134 C   0  0  2  0  0  0  0  0  0  0  0  0
  146.3049  140.4308  154.6309 N   0  0  0  0  0  0  0  0  0  0  0  0
  145.5033  139.5878  155.3091 C   0  0  0  0  0  0  0  0  0  0  0  0
  144.8887  139.9544  156.3079 O   0  0  0  0  0  0  0  0  0  0  0  0
  145.3130  138.1506  154.7936 C   0  0  0  0  0  0  0  0  0  0  0  0
  146.3474  137.7120  153.7417 C   0  0  0  0  0  0  0  0  0  0  0  0
  146.6399  138.8519  152.7581 C   0  0  2  0  0  0  0  0  0  0  0  0
  147.5267  138.4071  151.6979 N   0  0  0  0  0  0  0  0  0  0  0  0
  149.4913  140.9052  154.5069 C   0  0  0  0  0  0  0  0  0  0  0  0
  150.6799  140.4337  154.8452 N   0  0  0  0  0  0  0  0  0  0  0  0
  151.5398  137.2476  154.5078 H   0  0  0  0  0  0  0  0  0  0  0  0
  152.0012  138.2818  155.8748 H   0  0  0  0  0  0  0  0  0  0  0  0
  152.6132  138.6359  154.2432 H   0  0  0  0  0  0  0  0  0  0  0  0
  149.1473  137.7508  153.7757 H   0  0  0  0  0  0  0  0  0  0  0  0
  147.1517  140.9358  152.8292 H   0  0  0  0  0  0  0  0  0  0  0  0
  146.3692  141.3787  154.9729 H   0  0  0  0  0  0  0  0  0  0  0  0
  145.3190  137.4572  155.6349 H   0  0  0  0  0  0  0  0  0  0  0  0
  144.3154  138.0974  154.3566 H   0  0  0  0  0  0  0  0  0  0  0  0
  147.2651  137.3915  154.2371 H   0  0  0  0  0  0  0  0  0  0  0  0
  145.9696  136.8399  153.2068 H   0  0  0  0  0  0  0  0  0  0  0  0
  145.6997  139.1316  152.2808 H   0  0  0  0  0  0  0  0  0  0  0  0
  148.2356  139.1067  151.5300 H   0  0  0  0  0  0  0  0  0  0  0  0
  148.0097  137.5683  151.9864 H   0  0  0  0  0  0  0  0  0  0  0  0
  149.2970  141.9594  154.6388 H   0  0  0  0  0  0  0  0  0  0  0  0
  1  2  1  0  0  0  0
  1 15  1  0  0  0  0
  1 16  1  0  0  0  0
  1 17  1  0  0  0  0
  2 14  1  0  0  0  0
  2  3  1  0  0  0  0
  3  4  2  0  0  0  0
  3 18  1  0  0  0  0
  4  5  1  0  0  0  0
  4 13  1  0  0  0  0
  5 11  1  0  0  0  0
  5  6  1  0  0  0  0
  5 19  1  0  0  0  0
  6  7  1  0  0  0  0
  6 20  1  0  0  0  0
  7  8  2  0  0  0  0
  7  9  1  0  0  0  0
  9 10  1  0  0  0  0
  9 21  1  0  0  0  0
  9 22  1  0  0  0  0
 10 11  1  0  0  0  0
 10 23  1  0  0  0  0
 10 24  1  0  0  0  0
 11 12  1  0  0  0  0
 11 25  1  0  0  0  0
 12 26  1  0  0  0  0
 12 27  1  0  0  0  0
 13 14  2  0  0  0  0
 13 28  1  0  0  0  0
M  END
> <s_m_source_file>
AV-unprocessed.smi

> <i_m_source_file_index>
2526

> <i_lp_mmshare_version>
43012

> <i_f3d_flags>
0

> <s_epik_input>
W0NIM11uMVtjSF1jKFtjSF1uMSlbQ0BASF0yW05IXUMoPU8pW0NIMl1bQ0gyXVtDQEhdMltOSDJd

> <s_epik_cmdline>
J2VwaWtfcHl0aG9uJywgJy1waCcsICc3LjAnLCAnLXRuJywgJzgnLCAnLW1hJywgJzIwMCcsICctbWV0YWxfYmluZGluZycsICctaW1hZScsICc8aW5maWxlLm1hZT4nLCAnLW9tYWUnLCAnPG91dGZpbGUubWFlPic=

> <r_lp_tautomer_probability>
1

> <r_epik_Ionization_Penalty>
2.50279

> <r_epik_Ionization_Penalty_Charging>
0

> <r_epik_Ionization_Penalty_Neutral>
2.50279

> <r_epik_State_Penalty>
2.66754

> <r_epik_Charging_Adjusted_Penalty>
2.66754

> <i_epik_Tot_Q>
0

> <i_epik_Tot_abs_Q>
0

> <r_epik_Metal_State_Penalty>
2.66721

> <b_epik_Metal_Only>
0

> <s_lp_Force_Field>
OPLS_2005

> <r_lp_Energy>
9.07017

> <b_lp_Chiralities_Consistent>
1

> <s_lp_Variant>
AV-unprocessed.smi:2526-7

> <Gold.Version>
5.8.1

> <Gold.Id.Protein>
6NUR|6NUR_protein|mol2

> <Gold.PLP.Fitness>
35.0846

> <Gold.PLP.PLP>
-23.5867

> <Gold.PLP.part.hbond>
-4.0000

> <Gold.PLP.part.metal>
0.0000

> <Gold.PLP.part.buried>
-1.0760

> <Gold.PLP.part.nonpolar>
-19.1667

> <Gold.PLP.part.repulsive>
0.1226

> <Gold.PLP.ligand.clash>
0.0000

> <Gold.PLP.ligand.torsion>
0.1849

> <Gold.PLP.Chemscore.Hbond>
2.9500

> <Gold.PLP.Chemscore.CHOScore>
1.0000

> <Gold.PLP.Chemscore.Metal>
0.0000

> <Gold.Chemscore.Hbonds>
donor molecule, donor type, donor heavy atom, donor atom, acceptor molecule, acceptor atom, score
      L1  H    12    26       P1  7957  1.00
      L1  H    12    27       P1  7948  1.00
      P1  H  7989  7998       L1    14  0.85
      L1  C     3    18       P1  7948  1.00

> <Gold.PLP.Chemscore.Internal.Correction>
0.0176

> <Gold.Rescore>
     Score         DG    S(hbond)    S(metal)    S(lipo)     H(rot)  DE(clash)    DE(int)     intcor
     13.82     -14.99       1.98        0.00      46.72       1.00       0.01       1.15       ----

> <Gold.Chemscore.Fitness>
13.8226

> <Gold.Chemscore.DG>
-14.9880

> <Gold.Chemscore.ZeroCoef>
-5.4800

> <Gold.Chemscore.Hbond>
1.9764

> <Gold.Chemscore.Metal>
0.0000

> <Gold.Chemscore.Lipo>
46.7248

> <Gold.Chemscore.Internal_Hbond>
0.0000

> <Gold.Chemscore.DEClash>
0.0137

> <Gold.Chemscore.DEInternal>
1.1517

> <Gold.Chemscore.Rot>
1.0000

> <Gold.Chemscore.Internal.Correction>
   9.000000E+99

> <Gold.Chemscore.Hbonds>
donor molecule, donor type, donor heavy atom, donor atom, acceptor molecule, acceptor atom, score
      L1  H    12    26       P1  7957  0.85
      L1  H    12    27       P1  7948  0.98
      P1  H  7989  7998       L1    14  0.05

> <Gold.Chemscore.Hbond.Weighted>
-6.6012

> <Gold.Chemscore.Metal.Weighted>
-0.0000

> <Gold.Chemscore.Lipo.Weighted>
-5.4668

> <Gold.Chemscore.Internal_Hbond.Weighted>
0.0000

> <Gold.Chemscore.DEClash.Weighted>
0.0137

> <Gold.Chemscore.DEInternal.Weighted>
1.1517

> <Gold.Chemscore.Rot.Weighted>
2.5600

> <Gold.Chemscore.Internal.Correction.Weighted>
   9.000000E+99

> <Gold.Protein.RotatedTorsions>
[ 6907 6896 6895 6894 ] final   58.33 input  -60.11 | X-H torsion
[ 7974 7965 7964 7962 ] final  145.05 input  175.53 | X-H torsion
[ 8008 7997 7996 7995 ] final  -70.18 input   59.86 | X-H torsion
[ 10167 10162 10161 10158 ] final   -1.37 input  -65.29 | X-H torsion
[ 10718 10713 10712 10709 ] final  140.55 input   66.30 | X-H torsion
[ 10763 10752 10751 10750 ] final -163.66 input  -60.55 | X-H torsion
[ 11005 11000 10999 10996 ] final -141.75 input  -57.11 | X-H torsion

> <Gold.Protein.ActiveResidues>
 VAL166  LYS551  ARG553  GLY616  TRP617  ASP618  TYR619  PRO620  LYS621  CYS622 
 ASP623  PHE694  ASN695  SER759  ASP760  ASP761  ALA762  ILE779  LEU786  VAL792 
 PHE793  MET794  SER795  GLU796  ALA797  LYS798  CYS799  TRP800  GLU811  SER814 

> <Gold.Protein.RotatedAtoms>
  152.3814  134.6584  160.0141 H   0  0  0  0  0  0  0  0  0  0  0  0  # atno 6907 bound_to 6896
  151.6846  133.3306  159.3236 H   0  0  0  0  0  0  0  0  0  0  0  0  # atno 6908 bound_to 6896
  150.7750  134.6687  159.6424 H   0  0  0  0  0  0  0  0  0  0  0  0  # atno 6909 bound_to 6896
  144.8785  139.5736  143.5854 H   0  0  0  0  0  0  0  0  0  0  0  0  # atno 7974 bound_to 7965
  154.4993  140.0839  156.7763 H   0  0  0  0  0  0  0  0  0  0  0  0  # atno 8008 bound_to 7997
  155.4041  140.3438  155.4241 H   0  0  0  0  0  0  0  0  0  0  0  0  # atno 8009 bound_to 7997
  156.1435  140.1536  156.8871 H   0  0  0  0  0  0  0  0  0  0  0  0  # atno 8010 bound_to 7997
  140.6807  143.6783  150.8127 H   0  0  0  0  0  0  0  0  0  0  0  0  # atno 10167 bound_to 10162
  157.4020  131.1018  151.0542 H   0  0  0  0  0  0  0  0  0  0  0  0  # atno 10718 bound_to 10713
  154.7101  135.3004  154.9210 H   0  0  0  0  0  0  0  0  0  0  0  0  # atno 10763 bound_to 10752
  154.0114  135.6694  153.4769 H   0  0  0  0  0  0  0  0  0  0  0  0  # atno 10764 bound_to 10752
  153.0748  135.5041  154.8295 H   0  0  0  0  0  0  0  0  0  0  0  0  # atno 10765 bound_to 10752
  140.8293  134.2536  157.4864 H   0  0  0  0  0  0  0  0  0  0  0  0  # atno 11005 bound_to 11000
  146.2979  139.7333  142.9113 LP  0  0  0  0  0  0  0  0  0  0  0  0  # atno 17320 bound_to 7965
  145.3998  141.0383  143.3077 LP  0  0  0  0  0  0  0  0  0  0  0  0  # atno 17321 bound_to 7965
  140.0483  143.5276  152.2686 LP  0  0  0  0  0  0  0  0  0  0  0  0  # atno 17342 bound_to 10162
  139.6128  144.7612  151.2913 LP  0  0  0  0  0  0  0  0  0  0  0  0  # atno 17343 bound_to 10162
  157.1537  130.6195  149.5590 LP  0  0  0  0  0  0  0  0  0  0  0  0  # atno 17370 bound_to 10713
  155.9826  130.4840  150.6889 LP  0  0  0  0  0  0  0  0  0  0  0  0  # atno 17371 bound_to 10713
  139.8705  134.9578  156.4279 LP  0  0  0  0  0  0  0  0  0  0  0  0  # atno 17394 bound_to 11000
  140.9015  133.7776  155.9685 LP  0  0  0  0  0  0  0  0  0  0  0  0  # atno 17395 bound_to 11000

$$$$
