AV-unprocessed.smi:1824|AV-procd|sdf|7393|dock3
  -GOLD-   22720 9 63D 1   1.00000     0.00000
 Structure written by MMmdl.
 44 46  0  0  0  0  0  0  0  0  1 V2000
  153.1515  138.2499  157.1204 C   0  0  0  0  0  0  0  0  0  0  0  0
  152.3992  137.9073  155.8233 C   0  0  2  0  0  0  0  0  0  0  0  0
  151.3285  138.9496  155.4436 C   0  0  0  0  0  0  0  0  0  0  0  0
  150.1454  138.8817  156.2948 N   0  0  0  0  0  0  0  0  0  0  0  0
  149.1573  139.8849  155.8988 C   0  0  0  0  0  0  0  0  0  0  0  0
  149.3195  141.2669  156.5670 C   0  0  2  0  0  0  0  0  0  0  0  0
  148.3047  142.1330  156.0942 O   0  0  0  0  0  0  0  0  0  0  0  0
  150.6904  141.8992  156.2555 C   0  0  0  0  0  0  0  0  0  0  0  0
  151.1324  142.8109  157.2959 N   0  0  0  0  0  0  0  0  0  0  0  0
  151.0416  144.1549  157.2943 C   0  0  0  0  0  0  0  0  0  0  0  0
  151.5147  144.7986  158.3579 N   0  0  0  0  0  0  0  0  0  0  0  0
  151.9663  143.7504  159.1414 C   0  0  0  0  0  0  0  0  0  0  0  0
  152.5831  143.7545  160.4128 C   0  0  0  0  0  0  0  0  0  0  0  0
  152.9635  142.5429  161.0268 C   0  0  0  0  0  0  0  0  0  0  0  0
  153.5534  142.5647  162.2456 F   0  0  0  0  0  0  0  0  0  0  0  0
  152.7331  141.3107  160.3794 C   0  0  0  0  0  0  0  0  0  0  0  0
  153.1007  140.1520  160.9762 F   0  0  0  0  0  0  0  0  0  0  0  0
  152.1206  141.2817  159.1119 C   0  0  0  0  0  0  0  0  0  0  0  0
  151.7427  142.4928  158.5040 C   0  0  0  0  0  0  0  0  0  0  0  0
  149.6127  137.5236  156.2596 C   0  0  0  0  0  0  0  0  0  0  0  0
  150.6604  136.4828  156.6945 C   0  0  1  0  0  0  0  0  0  0  0  0
  150.1336  135.0495  156.5692 C   0  0  0  0  0  0  0  0  0  0  0  0
  151.8208  136.6022  155.8735 O   0  0  0  0  0  0  0  0  0  0  0  0
  153.6781  139.1996  157.0236 H   0  0  0  0  0  0  0  0  0  0  0  0
  153.8915  137.4843  157.3541 H   0  0  0  0  0  0  0  0  0  0  0  0
  152.4795  138.3365  157.9741 H   0  0  0  0  0  0  0  0  0  0  0  0
  153.1403  137.8828  155.0240 H   0  0  0  0  0  0  0  0  0  0  0  0
  151.7630  139.9492  155.4860 H   0  0  0  0  0  0  0  0  0  0  0  0
  151.0352  138.7874  154.4050 H   0  0  0  0  0  0  0  0  0  0  0  0
  149.2563  140.0310  154.8222 H   0  0  0  0  0  0  0  0  0  0  0  0
  148.1450  139.5044  156.0444 H   0  0  0  0  0  0  0  0  0  0  0  0
  149.2179  141.1679  157.6489 H   0  0  0  0  0  0  0  0  0  0  0  0
  148.6996  142.7781  155.5277 H   0  0  0  0  0  0  0  0  0  0  0  0
  151.4481  141.1221  156.1471 H   0  0  0  0  0  0  0  0  0  0  0  0
  150.6576  142.4374  155.3069 H   0  0  0  0  0  0  0  0  0  0  0  0
  150.6012  144.6910  156.4662 H   0  0  0  0  0  0  0  0  0  0  0  0
  152.7645  144.6917  160.9177 H   0  0  0  0  0  0  0  0  0  0  0  0
  151.9418  140.3402  158.6141 H   0  0  0  0  0  0  0  0  0  0  0  0
  148.7495  137.4419  156.9198 H   0  0  0  0  0  0  0  0  0  0  0  0
  149.2605  137.2917  155.2531 H   0  0  0  0  0  0  0  0  0  0  0  0
  150.9348  136.6564  157.7356 H   0  0  0  0  0  0  0  0  0  0  0  0
  149.2497  134.9010  157.1897 H   0  0  0  0  0  0  0  0  0  0  0  0
  150.8874  134.3287  156.8868 H   0  0  0  0  0  0  0  0  0  0  0  0
  149.8630  134.8164  155.5391 H   0  0  0  0  0  0  0  0  0  0  0  0
  1  2  1  0  0  0  0
  1 24  1  0  0  0  0
  1 25  1  0  0  0  0
  1 26  1  0  0  0  0
  2 23  1  0  0  0  0
  2  3  1  0  0  0  0
  2 27  1  0  0  0  0
  3  4  1  0  0  0  0
  3 28  1  0  0  0  0
  3 29  1  0  0  0  0
  4  5  1  0  0  0  0
  4 20  1  0  0  0  0
  5  6  1  0  0  0  0
  5 30  1  0  0  0  0
  5 31  1  0  0  0  0
  6  7  1  0  0  0  0
  6  8  1  0  0  0  0
  6 32  1  0  0  0  0
  7 33  1  0  0  0  0
  8  9  1  0  0  0  0
  8 34  1  0  0  0  0
  8 35  1  0  0  0  0
  9 19  1  0  0  0  0
  9 10  1  0  0  0  0
 10 11  2  0  0  0  0
 10 36  1  0  0  0  0
 11 12  1  0  0  0  0
 12 19  2  0  0  0  0
 12 13  1  0  0  0  0
 13 14  2  0  0  0  0
 13 37  1  0  0  0  0
 14 15  1  0  0  0  0
 14 16  1  0  0  0  0
 16 17  1  0  0  0  0
 16 18  2  0  0  0  0
 18 19  1  0  0  0  0
 18 38  1  0  0  0  0
 20 21  1  0  0  0  0
 20 39  1  0  0  0  0
 20 40  1  0  0  0  0
 21 22  1  0  0  0  0
 21 23  1  0  0  0  0
 21 41  1  0  0  0  0
 22 42  1  0  0  0  0
 22 43  1  0  0  0  0
 22 44  1  0  0  0  0
M  END
> <s_m_source_file>
AV-unprocessed.smi

> <i_m_source_file_index>
1824

> <i_lp_mmshare_version>
43012

> <i_f3d_flags>
0

> <s_epik_input>
W0NIM11bQ0BASF0xW0NIMl1OKFtDSDJdW0NASF0oTzEpW0NIM10pW0NIMl1bQ0BIXShbT0hdKVtDSDJdbihbY0hdbjIpYyhjMjMpW2NIXWMoRiljKEYpW2NIXTM=

> <s_epik_cmdline>
J2VwaWtfcHl0aG9uJywgJy1waCcsICc3LjAnLCAnLXRuJywgJzgnLCAnLW1hJywgJzIwMCcsICctbWV0YWxfYmluZGluZycsICctaW1hZScsICc8aW5maWxlLm1hZT4nLCAnLW9tYWUnLCAnPG91dGZpbGUubWFlPic=

> <r_epik_Ionization_Penalty>
0.273778

> <r_epik_Ionization_Penalty_Charging>
0

> <r_epik_Ionization_Penalty_Neutral>
0.273778

> <r_epik_State_Penalty>
0.246794

> <r_epik_Charging_Adjusted_Penalty>
0.246794

> <i_epik_Tot_Q>
0

> <i_epik_Tot_abs_Q>
0

> <r_epik_Metal_State_Penalty>
0.238234

> <b_epik_Metal_Only>
0

> <s_lp_Force_Field>
OPLS_2005

> <r_lp_Energy>
29.8683

> <b_lp_Chiralities_Consistent>
1

> <s_lp_Variant>
AV-unprocessed.smi:1824-1

> <Gold.Version>
5.8.1

> <Gold.Id.Protein>
6NUR|6NUR_protein|mol2

> <Gold.PLP.Fitness>
54.3148

> <Gold.PLP.PLP>
-47.2438

> <Gold.PLP.part.hbond>
-2.0000

> <Gold.PLP.part.metal>
0.0000

> <Gold.PLP.part.buried>
-4.2646

> <Gold.PLP.part.nonpolar>
-41.0918

> <Gold.PLP.part.repulsive>
0.2348

> <Gold.PLP.ligand.clash>
0.0000

> <Gold.PLP.ligand.torsion>
0.9757

> <Gold.PLP.Chemscore.Hbond>
2.0000

> <Gold.PLP.Chemscore.CHOScore>
1.0000

> <Gold.PLP.Chemscore.Metal>
0.0000

> <Gold.Chemscore.Hbonds>
donor molecule, donor type, donor heavy atom, donor atom, acceptor molecule, acceptor atom, score
      L1  H     7    33       P1  8028  0.66
      P1  H 10752 10765       L1    23  0.35
      L1  C    10    36       P1  8028  0.56

> <Gold.PLP.Chemscore.Internal.Correction>
0.0224

> <Gold.Rescore>
     Score         DG    S(hbond)    S(metal)    S(lipo)     H(rot)  DE(clash)    DE(int)     intcor
     17.42     -19.43       1.79        0.00     117.54       2.26       1.32       0.69       ----

> <Gold.Chemscore.Fitness>
17.4231

> <Gold.Chemscore.DG>
-19.4343

> <Gold.Chemscore.ZeroCoef>
-5.4800

> <Gold.Chemscore.Hbond>
1.7941

> <Gold.Chemscore.Metal>
0.0000

> <Gold.Chemscore.Lipo>
117.5407

> <Gold.Chemscore.Internal_Hbond>
0.0000

> <Gold.Chemscore.DEClash>
1.3181

> <Gold.Chemscore.DEInternal>
0.6931

> <Gold.Chemscore.Rot>
2.2619

> <Gold.Chemscore.Internal.Correction>
   9.000000E+99

> <Gold.Chemscore.Hbonds>
donor molecule, donor type, donor heavy atom, donor atom, acceptor molecule, acceptor atom, score
      L1  H     7    33       P1  8028  0.65
      P1  H 10752 10765       L1    23  0.08

> <Gold.Chemscore.Hbond.Weighted>
-5.9924

> <Gold.Chemscore.Metal.Weighted>
-0.0000

> <Gold.Chemscore.Lipo.Weighted>
-13.7523

> <Gold.Chemscore.Internal_Hbond.Weighted>
0.0000

> <Gold.Chemscore.DEClash.Weighted>
1.3181

> <Gold.Chemscore.DEInternal.Weighted>
0.6931

> <Gold.Chemscore.Rot.Weighted>
5.7904

> <Gold.Chemscore.Internal.Correction.Weighted>
   9.000000E+99

> <Gold.Protein.RotatedTorsions>
[ 6907 6896 6895 6894 ] final   81.37 input  -60.11 | X-H torsion
[ 7974 7965 7964 7962 ] final   80.37 input  175.53 | X-H torsion
[ 8008 7997 7996 7995 ] final -177.76 input   59.86 | X-H torsion
[ 10167 10162 10161 10158 ] final  127.33 input  -65.29 | X-H torsion
[ 10718 10713 10712 10709 ] final   90.45 input   66.30 | X-H torsion
[ 10763 10752 10751 10750 ] final  160.02 input  -60.55 | X-H torsion
[ 11005 11000 10999 10996 ] final  -92.20 input  -57.11 | X-H torsion

> <Gold.Protein.ActiveResidues>
 VAL166  LYS551  ARG553  GLY616  TRP617  ASP618  TYR619  PRO620  LYS621  CYS622 
 ASP623  PHE694  ASN695  SER759  ASP760  ASP761  ALA762  ILE779  LEU786  VAL792 
 PHE793  MET794  SER795  GLU796  ALA797  LYS798  CYS799  TRP800  GLU811  SER814 

> <Gold.Protein.RotatedAtoms>
  152.5266  134.3215  159.9149 H   0  0  0  0  0  0  0  0  0  0  0  0  # atno 6907 bound_to 6896
  151.3164  133.4052  159.2658 H   0  0  0  0  0  0  0  0  0  0  0  0  # atno 6908 bound_to 6896
  150.9995  134.9328  159.8003 H   0  0  0  0  0  0  0  0  0  0  0  0  # atno 6909 bound_to 6896
  145.6521  139.2450  143.1971 H   0  0  0  0  0  0  0  0  0  0  0  0  # atno 7974 bound_to 7965
  156.0108  140.1240  157.0456 H   0  0  0  0  0  0  0  0  0  0  0  0  # atno 8008 bound_to 7997
  154.4275  140.1088  156.5896 H   0  0  0  0  0  0  0  0  0  0  0  0  # atno 8009 bound_to 7997
  155.6082  140.3471  155.4616 H   0  0  0  0  0  0  0  0  0  0  0  0  # atno 8010 bound_to 7997
  139.5584  144.6865  151.4115 H   0  0  0  0  0  0  0  0  0  0  0  0  # atno 10167 bound_to 10162
  157.6959  131.0371  150.3579 H   0  0  0  0  0  0  0  0  0  0  0  0  # atno 10718 bound_to 10713
  154.2409  135.2775  155.2854 H   0  0  0  0  0  0  0  0  0  0  0  0  # atno 10763 bound_to 10752
  154.5545  135.5665  153.6955 H   0  0  0  0  0  0  0  0  0  0  0  0  # atno 10764 bound_to 10752
  153.0000  135.6282  154.2554 H   0  0  0  0  0  0  0  0  0  0  0  0  # atno 10765 bound_to 10752
  141.1527  133.7805  156.9987 H   0  0  0  0  0  0  0  0  0  0  0  0  # atno 11005 bound_to 11000
  146.1195  140.7327  142.9464 LP  0  0  0  0  0  0  0  0  0  0  0  0  # atno 17320 bound_to 7965
  144.7119  140.4069  143.7074 LP  0  0  0  0  0  0  0  0  0  0  0  0  # atno 17321 bound_to 7965
  140.6860  143.7972  150.7187 LP  0  0  0  0  0  0  0  0  0  0  0  0  # atno 17342 bound_to 10162
  140.1440  143.4416  152.2175 LP  0  0  0  0  0  0  0  0  0  0  0  0  # atno 17343 bound_to 10162
  156.4019  130.3917  149.6953 LP  0  0  0  0  0  0  0  0  0  0  0  0  # atno 17370 bound_to 10713
  156.4268  130.7795  151.2814 LP  0  0  0  0  0  0  0  0  0  0  0  0  # atno 17371 bound_to 10713
  140.0954  134.9567  157.1842 LP  0  0  0  0  0  0  0  0  0  0  0  0  # atno 17394 bound_to 11000
  140.3389  134.2726  155.7215 LP  0  0  0  0  0  0  0  0  0  0  0  0  # atno 17395 bound_to 11000

$$$$
