AV-unprocessed.smi:2973|AV-procd|sdf|11339|dock6
  -GOLD-   2272016253D 1   1.00000     0.00000
 Structure written by MMmdl.
 49 51  0  0  0  0  0  0  0  0  1 V2000
  148.9129  141.9351  158.2596 C   0  0  0  0  0  0  0  0  0  0  0  0
  150.2396  142.5211  158.7897 C   0  0  2  0  0  0  0  0  0  0  0  0
  150.2762  144.0479  158.5605 C   0  0  0  0  0  0  0  0  0  0  0  0
  151.5497  144.6868  159.1367 C   0  0  0  0  0  0  0  0  0  0  0  0
  152.8135  144.0306  158.5635 C   0  0  0  0  0  0  0  0  0  0  0  0
  152.7980  142.5116  158.7986 C   0  0  0  0  0  0  0  0  0  0  0  0
  151.5263  141.8493  158.2164 C   0  0  2  0  0  0  0  0  0  0  0  0
  151.5526  141.8628  156.7631 N   0  0  0  0  0  0  0  0  0  0  0  0
  151.5972  140.6357  156.2301 C   0  0  0  0  0  0  0  0  0  0  0  0
  151.6152  140.3866  155.0260 O   0  0  0  0  0  0  0  0  0  0  0  0
  151.6027  139.7384  157.2328 N   0  0  0  0  0  0  0  0  0  0  0  0
  151.6089  138.2804  157.0383 C   0  0  0  0  0  0  0  0  0  0  0  0
  150.2196  137.6180  157.0392 C   0  0  0  0  0  0  0  0  0  0  0  0
  149.4655  137.8135  156.0870 O   0  0  0  0  0  0  0  0  0  0  0  0
  149.8779  136.8530  158.0900 N   0  0  0  0  0  0  0  0  0  0  0  0
  148.5989  136.1764  158.2612 C   0  0  0  0  0  0  0  0  0  0  0  0
  147.6707  136.9640  159.1999 C   0  0  0  0  0  0  0  0  0  0  0  0
  147.5615  136.3227  160.5700 C   0  0  0  0  0  0  0  0  0  0  0  0
  147.2655  134.9490  160.6999 C   0  0  0  0  0  0  0  0  0  0  0  0
  147.1822  134.4002  161.9941 C   0  0  0  0  0  0  0  0  0  0  0  0
  147.3979  135.2413  163.1027 C   0  0  0  0  0  0  0  0  0  0  0  0
  147.6888  136.5999  162.8665 C   0  0  0  0  0  0  0  0  0  0  0  0
  147.7718  137.1361  161.6296 N   0  0  0  0  0  0  0  0  0  0  0  0
  151.5611  140.3410  158.4295 C   0  0  0  0  0  0  0  0  0  0  0  0
  151.5375  139.7989  159.5347 O   0  0  0  0  0  0  0  0  0  0  0  0
  148.8267  142.0409  157.1777 H   0  0  0  0  0  0  0  0  0  0  0  0
  148.0586  142.4446  158.7059 H   0  0  0  0  0  0  0  0  0  0  0  0
  148.8110  140.8774  158.5015 H   0  0  0  0  0  0  0  0  0  0  0  0
  150.2417  142.3628  159.8696 H   0  0  0  0  0  0  0  0  0  0  0  0
  150.2113  144.2650  157.4937 H   0  0  0  0  0  0  0  0  0  0  0  0
  149.4033  144.5132  159.0196 H   0  0  0  0  0  0  0  0  0  0  0  0
  151.5578  145.7560  158.9233 H   0  0  0  0  0  0  0  0  0  0  0  0
  151.5480  144.5885  160.2230 H   0  0  0  0  0  0  0  0  0  0  0  0
  152.8860  144.2412  157.4958 H   0  0  0  0  0  0  0  0  0  0  0  0
  153.7000  144.4678  159.0239 H   0  0  0  0  0  0  0  0  0  0  0  0
  153.6962  142.0668  158.3672 H   0  0  0  0  0  0  0  0  0  0  0  0
  152.8527  142.3215  159.8718 H   0  0  0  0  0  0  0  0  0  0  0  0
  151.5329  142.7168  156.2248 H   0  0  0  0  0  0  0  0  0  0  0  0
  152.1021  138.0388  156.0952 H   0  0  0  0  0  0  0  0  0  0  0  0
  152.2135  137.8046  157.8122 H   0  0  0  0  0  0  0  0  0  0  0  0
  150.5541  136.7396  158.8309 H   0  0  0  0  0  0  0  0  0  0  0  0
  148.1220  136.0202  157.2921 H   0  0  0  0  0  0  0  0  0  0  0  0
  148.7954  135.1866  158.6744 H   0  0  0  0  0  0  0  0  0  0  0  0
  148.0360  137.9856  159.3156 H   0  0  0  0  0  0  0  0  0  0  0  0
  146.6738  137.0437  158.7645 H   0  0  0  0  0  0  0  0  0  0  0  0
  147.1076  134.3290  159.8296 H   0  0  0  0  0  0  0  0  0  0  0  0
  146.9581  133.3530  162.1338 H   0  0  0  0  0  0  0  0  0  0  0  0
  147.3425  134.8547  164.1095 H   0  0  0  0  0  0  0  0  0  0  0  0
  147.8601  137.2735  163.6929 H   0  0  0  0  0  0  0  0  0  0  0  0
  1  2  1  0  0  0  0
  1 26  1  0  0  0  0
  1 27  1  0  0  0  0
  1 28  1  0  0  0  0
  2  7  1  0  0  0  0
  2  3  1  0  0  0  0
  2 29  1  0  0  0  0
  3  4  1  0  0  0  0
  3 30  1  0  0  0  0
  3 31  1  0  0  0  0
  4  5  1  0  0  0  0
  4 32  1  0  0  0  0
  4 33  1  0  0  0  0
  5  6  1  0  0  0  0
  5 34  1  0  0  0  0
  5 35  1  0  0  0  0
  6  7  1  0  0  0  0
  6 36  1  0  0  0  0
  6 37  1  0  0  0  0
  7 24  1  0  0  0  0
  7  8  1  0  0  0  0
  8  9  1  0  0  0  0
  8 38  1  0  0  0  0
  9 10  2  0  0  0  0
  9 11  1  0  0  0  0
 11 12  1  0  0  0  0
 11 24  1  0  0  0  0
 12 13  1  0  0  0  0
 12 39  1  0  0  0  0
 12 40  1  0  0  0  0
 13 14  2  0  0  0  0
 13 15  1  0  0  0  0
 15 16  1  0  0  0  0
 15 41  1  0  0  0  0
 16 17  1  0  0  0  0
 16 42  1  0  0  0  0
 16 43  1  0  0  0  0
 17 18  1  0  0  0  0
 17 44  1  0  0  0  0
 17 45  1  0  0  0  0
 18 23  1  0  0  0  0
 18 19  2  0  0  0  0
 19 20  1  0  0  0  0
 19 46  1  0  0  0  0
 20 21  2  0  0  0  0
 20 47  1  0  0  0  0
 21 22  1  0  0  0  0
 21 48  1  0  0  0  0
 22 23  2  0  0  0  0
 22 49  1  0  0  0  0
 24 25  2  0  0  0  0
M  END
> <s_m_source_file>
AV-unprocessed.smi

> <i_m_source_file_index>
2973

> <i_lp_mmshare_version>
43012

> <i_f3d_flags>
0

> <s_epik_input>
W0NIMl0xW0NIMl1bQ0gyXVtDSDJdW0NAQEhdKFtDSDNdKVtDQF0xMltOSF1DKD1PKU4oQzI9TylbQ0gyXUMoPU8pW05IXVtDSDJdW0NIMl1jM1tjSF1bY0hdW2NIXVtjSF1uMw==

> <s_epik_cmdline>
J2VwaWtfcHl0aG9uJywgJy1waCcsICc3LjAnLCAnLXRuJywgJzgnLCAnLW1hJywgJzIwMCcsICctbWV0YWxfYmluZGluZycsICctaW1hZScsICc8aW5maWxlLm1hZT4nLCAnLW9tYWUnLCAnPG91dGZpbGUubWFlPic=

> <r_lp_tautomer_probability>
1

> <r_epik_Ionization_Penalty>
0.0245152

> <r_epik_Ionization_Penalty_Charging>
0

> <r_epik_Ionization_Penalty_Neutral>
0.0245152

> <r_epik_State_Penalty>
0.0198648

> <r_epik_Charging_Adjusted_Penalty>
0.0198648

> <i_epik_Tot_Q>
0

> <i_epik_Tot_abs_Q>
0

> <r_epik_Metal_State_Penalty>
0.0400162

> <b_epik_Metal_Only>
0

> <s_lp_Force_Field>
OPLS_2005

> <r_lp_Energy>
21.7018

> <b_lp_Chiralities_Consistent>
1

> <s_lp_Variant>
AV-unprocessed.smi:2973-3

> <Gold.Version>
5.8.1

> <Gold.Id.Protein>
6NUR|6NUR_protein|mol2

> <Gold.PLP.Fitness>
46.7043

> <Gold.PLP.PLP>
-41.2873

> <Gold.PLP.part.hbond>
-3.2017

> <Gold.PLP.part.metal>
0.0000

> <Gold.PLP.part.buried>
-0.5157

> <Gold.PLP.part.nonpolar>
-36.2089

> <Gold.PLP.part.repulsive>
0.2747

> <Gold.PLP.ligand.clash>
0.0000

> <Gold.PLP.ligand.torsion>
1.0089

> <Gold.PLP.Chemscore.Hbond>
2.4661

> <Gold.PLP.Chemscore.CHOScore>
0.0000

> <Gold.PLP.Chemscore.Metal>
0.0000

> <Gold.Chemscore.Hbonds>
donor molecule, donor type, donor heavy atom, donor atom, acceptor molecule, acceptor atom, score
      P1  H  6931  6943       L1    23  0.95
      P1  H  6934  6947       L1    23  0.62
      P1  H  7989  7998       L1    10  0.90

> <Gold.PLP.Chemscore.Internal.Correction>
0.0365

> <Gold.Rescore>
     Score         DG    S(hbond)    S(metal)    S(lipo)     H(rot)  DE(clash)    DE(int)     intcor
     16.35     -19.18       1.72        0.00     108.69       1.86       1.80       1.02       ----

> <Gold.Chemscore.Fitness>
16.3507

> <Gold.Chemscore.DG>
-19.1766

> <Gold.Chemscore.ZeroCoef>
-5.4800

> <Gold.Chemscore.Hbond>
1.7154

> <Gold.Chemscore.Metal>
0.0000

> <Gold.Chemscore.Lipo>
108.6902

> <Gold.Chemscore.Internal_Hbond>
0.0000

> <Gold.Chemscore.DEClash>
1.8026

> <Gold.Chemscore.DEInternal>
1.0233

> <Gold.Chemscore.Rot>
1.8553

> <Gold.Chemscore.Internal.Correction>
   9.000000E+99

> <Gold.Chemscore.Hbonds>
donor molecule, donor type, donor heavy atom, donor atom, acceptor molecule, acceptor atom, score
      P1  H  6931  6943       L1    23  0.21
      P1  H  6934  6947       L1    23  0.27
      P1  H  7989  7998       L1    10  0.87

> <Gold.Chemscore.Hbond.Weighted>
-5.7295

> <Gold.Chemscore.Metal.Weighted>
-0.0000

> <Gold.Chemscore.Lipo.Weighted>
-12.7168

> <Gold.Chemscore.Internal_Hbond.Weighted>
0.0000

> <Gold.Chemscore.DEClash.Weighted>
1.8026

> <Gold.Chemscore.DEInternal.Weighted>
1.0233

> <Gold.Chemscore.Rot.Weighted>
4.7497

> <Gold.Chemscore.Internal.Correction.Weighted>
   9.000000E+99

> <Gold.Protein.RotatedTorsions>
[ 6907 6896 6895 6894 ] final   72.39 input  -60.11 | X-H torsion
[ 7974 7965 7964 7962 ] final  178.07 input  175.53 | X-H torsion
[ 8008 7997 7996 7995 ] final  -27.38 input   59.86 | X-H torsion
[ 10167 10162 10161 10158 ] final    2.98 input  -65.29 | X-H torsion
[ 10718 10713 10712 10709 ] final   22.89 input   66.30 | X-H torsion
[ 10763 10752 10751 10750 ] final   67.18 input  -60.55 | X-H torsion
[ 11005 11000 10999 10996 ] final  -84.02 input  -57.11 | X-H torsion

> <Gold.Protein.ActiveResidues>
 VAL166  LYS551  ARG553  GLY616  TRP617  ASP618  TYR619  PRO620  LYS621  CYS622 
 ASP623  PHE694  ASN695  SER759  ASP760  ASP761  ALA762  ILE779  LEU786  VAL792 
 PHE793  MET794  SER795  GLU796  ALA797  LYS798  CYS799  TRP800  GLU811  SER814 

> <Gold.Protein.RotatedAtoms>
  152.4865  134.4578  159.9595 H   0  0  0  0  0  0  0  0  0  0  0  0  # atno 6907 bound_to 6896
  151.4574  133.3595  159.2812 H   0  0  0  0  0  0  0  0  0  0  0  0  # atno 6908 bound_to 6896
  150.8980  134.8415  159.7400 H   0  0  0  0  0  0  0  0  0  0  0  0  # atno 6909 bound_to 6896
  144.7161  140.0342  143.6438 H   0  0  0  0  0  0  0  0  0  0  0  0  # atno 7974 bound_to 7965
  154.4380  140.1874  156.0922 H   0  0  0  0  0  0  0  0  0  0  0  0  # atno 8008 bound_to 7997
  156.0357  140.3325  155.7162 H   0  0  0  0  0  0  0  0  0  0  0  0  # atno 8009 bound_to 7997
  155.5774  140.0618  157.2782 H   0  0  0  0  0  0  0  0  0  0  0  0  # atno 8010 bound_to 7997
  140.6608  143.7308  150.7736 H   0  0  0  0  0  0  0  0  0  0  0  0  # atno 10167 bound_to 10162
  157.1586  130.6707  149.6036 H   0  0  0  0  0  0  0  0  0  0  0  0  # atno 10718 bound_to 10713
  153.0174  135.5293  154.6940 H   0  0  0  0  0  0  0  0  0  0  0  0  # atno 10763 bound_to 10752
  154.6067  135.2874  155.0479 H   0  0  0  0  0  0  0  0  0  0  0  0  # atno 10764 bound_to 10752
  154.1516  135.6562  153.5017 H   0  0  0  0  0  0  0  0  0  0  0  0  # atno 10765 bound_to 10752
  141.1654  133.7324  156.8806 H   0  0  0  0  0  0  0  0  0  0  0  0  # atno 11005 bound_to 11000
  146.0077  139.3144  143.0889 LP  0  0  0  0  0  0  0  0  0  0  0  0  # atno 17320 bound_to 7965
  145.8718  140.9415  143.0646 LP  0  0  0  0  0  0  0  0  0  0  0  0  # atno 17321 bound_to 7965
  140.0976  143.4818  152.2443 LP  0  0  0  0  0  0  0  0  0  0  0  0  # atno 17342 bound_to 10162
  139.5842  144.7524  151.3563 LP  0  0  0  0  0  0  0  0  0  0  0  0  # atno 17343 bound_to 10162
  155.9758  130.4719  150.6482 LP  0  0  0  0  0  0  0  0  0  0  0  0  # atno 17370 bound_to 10713
  157.4154  131.0829  151.1182 LP  0  0  0  0  0  0  0  0  0  0  0  0  # atno 17371 bound_to 10713
  140.1718  134.9095  157.2842 LP  0  0  0  0  0  0  0  0  0  0  0  0  # atno 17394 bound_to 11000
  140.2494  134.3701  155.7448 LP  0  0  0  0  0  0  0  0  0  0  0  0  # atno 17395 bound_to 11000

$$$$
