AV-unprocessed.smi:899|AV-procd|sdf|4088|dock10
  -GOLD-   22720 1573D 1   1.00000     0.00000
 Structure written by MMmdl.
 32 33  0  0  0  0  0  0  0  0  2 V2000
  149.1655  144.6585  160.6458 N   0  0  0  0  0  0  0  0  0  0  0  0
  150.2913  144.7823  160.4088 C   0  0  0  0  0  0  0  0  0  0  0  0
  151.7225  144.9393  160.1080 C   0  0  0  0  0  0  0  0  0  0  0  0
  152.5262  143.7205  160.5117 C   0  0  0  0  0  0  0  0  0  0  0  0
  153.2257  142.9819  159.5377 C   0  0  0  0  0  0  0  0  0  0  0  0
  153.9748  141.8503  159.9127 C   0  0  0  0  0  0  0  0  0  0  0  0
  154.0389  141.4402  161.2603 C   0  0  0  0  0  0  0  0  0  0  0  0
  154.7992  140.3247  161.5388 O   0  0  0  0  0  0  0  0  0  0  0  0
  154.7192  139.7641  162.8421 C   0  0  0  0  0  0  0  0  0  0  0  0
  156.0129  140.0973  163.5993 C   0  0  0  0  0  0  0  0  0  0  0  0
  155.7287  140.6162  164.9436 N   0  0  0  0  0  0  0  0  0  0  0  0
  155.5344  142.0013  165.0790 C   0  0  0  0  0  0  0  0  0  0  0  0
  155.2744  142.5737  166.2705 C   0  0  0  0  0  0  0  0  0  0  0  0
  155.0404  144.2800  166.4071 Cl  0  0  0  0  0  0  0  0  0  0  0  0
  155.1993  141.7077  167.4455 C   0  0  0  0  0  0  0  0  0  0  0  0
  154.9599  142.1972  168.5485 O   0  0  0  0  0  0  0  0  0  0  0  0
  155.4036  140.3703  167.2616 N   0  5  0  0  0  0  0  0  0  0  0  0
  155.6695  139.8071  166.0427 C   0  0  0  0  0  0  0  0  0  0  0  0
  155.8593  138.5986  165.9031 O   0  0  0  0  0  0  0  0  0  0  0  0
  153.3303  142.1871  162.2355 C   0  0  0  0  0  0  0  0  0  0  0  0
  152.5799  143.3188  161.8610 C   0  0  0  0  0  0  0  0  0  0  0  0
  151.8335  145.1167  159.0379 H   0  0  0  0  0  0  0  0  0  0  0  0
  152.0882  145.8256  160.6276 H   0  0  0  0  0  0  0  0  0  0  0  0
  153.1891  143.2814  158.5004 H   0  0  0  0  0  0  0  0  0  0  0  0
  154.5079  141.2909  159.1580 H   0  0  0  0  0  0  0  0  0  0  0  0
  153.8602  140.1734  163.3762 H   0  0  0  0  0  0  0  0  0  0  0  0
  154.5971  138.6816  162.7773 H   0  0  0  0  0  0  0  0  0  0  0  0
  156.6353  139.2040  163.6664 H   0  0  0  0  0  0  0  0  0  0  0  0
  156.6057  140.8151  163.0297 H   0  0  0  0  0  0  0  0  0  0  0  0
  155.6132  142.5661  164.1615 H   0  0  0  0  0  0  0  0  0  0  0  0
  153.3470  141.9126  163.2794 H   0  0  0  0  0  0  0  0  0  0  0  0
  152.0458  143.8786  162.6149 H   0  0  0  0  0  0  0  0  0  0  0  0
  1  2  3  0  0  0  0
  2  3  1  0  0  0  0
  3  4  1  0  0  0  0
  3 22  1  0  0  0  0
  3 23  1  0  0  0  0
  4 21  1  0  0  0  0
  4  5  2  0  0  0  0
  5  6  1  0  0  0  0
  5 24  1  0  0  0  0
  6  7  2  0  0  0  0
  6 25  1  0  0  0  0
  7  8  1  0  0  0  0
  7 20  1  0  0  0  0
  8  9  1  0  0  0  0
  9 10  1  0  0  0  0
  9 26  1  0  0  0  0
  9 27  1  0  0  0  0
 10 11  1  0  0  0  0
 10 28  1  0  0  0  0
 10 29  1  0  0  0  0
 11 18  1  0  0  0  0
 11 12  1  0  0  0  0
 12 13  2  0  0  0  0
 12 30  1  0  0  0  0
 13 14  1  0  0  0  0
 13 15  1  0  0  0  0
 15 16  2  0  0  0  0
 15 17  1  0  0  0  0
 17 18  1  0  0  0  0
 18 19  2  0  0  0  0
 20 21  2  0  0  0  0
 20 31  1  0  0  0  0
 21 32  1  0  0  0  0
M  CHG  1  17  -1
M  END
> <s_m_source_file>
AV-unprocessed.smi

> <i_m_source_file_index>
899

> <i_lp_mmshare_version>
43012

> <i_f3d_flags>
0

> <s_epik_input>
TiNDW0NIMl1jMVtjSF1bY0hdYyhbY0hdW2NIXTEpT1tDSDJdW0NIMl1uMltjSF1jKENsKWMoPU8pW25IXWMyPU8=

> <s_epik_cmdline>
J2VwaWtfcHl0aG9uJywgJy1waCcsICc3LjAnLCAnLXRuJywgJzgnLCAnLW1hJywgJzIwMCcsICctbWV0YWxfYmluZGluZycsICctaW1hZScsICc8aW5maWxlLm1hZT4nLCAnLW9tYWUnLCAnPG91dGZpbGUubWFlPic=

> <r_lp_tautomer_probability>
1

> <r_epik_Ionization_Penalty>
1.54028

> <r_epik_Ionization_Penalty_Charging>
7.31917e-09

> <r_epik_Ionization_Penalty_Neutral>
1.54028

> <r_epik_State_Penalty>
1.63364

> <r_epik_Charging_Adjusted_Penalty>
1.63364

> <i_epik_Tot_Q>
-1

> <i_epik_Tot_abs_Q>
1

> <r_epik_Metal_State_Penalty>
0.00867927

> <b_epik_Metal_Only>
0

> <s_lp_Force_Field>
OPLS_2005

> <r_lp_Energy>
21.9466

> <b_lp_Chiralities_Consistent>
1

> <s_lp_Variant>
AV-unprocessed.smi:899-2

> <Gold.Version>
5.8.1

> <Gold.Id.Protein>
6NUR|6NUR_protein|mol2

> <Gold.PLP.Fitness>
46.7038

> <Gold.PLP.PLP>
-48.1085

> <Gold.PLP.part.hbond>
-0.9112

> <Gold.PLP.part.metal>
0.0000

> <Gold.PLP.part.buried>
-6.2717

> <Gold.PLP.part.nonpolar>
-41.5438

> <Gold.PLP.part.repulsive>
0.4660

> <Gold.PLP.ligand.clash>
0.0000

> <Gold.PLP.ligand.torsion>
1.1288

> <Gold.PLP.Chemscore.Hbond>
0.2795

> <Gold.PLP.Chemscore.CHOScore>
0.0000

> <Gold.PLP.Chemscore.Metal>
0.0000

> <Gold.PLP.Chemscore.Internal.Correction>
0.0144

> <Gold.Rescore>
     Score         DG    S(hbond)    S(metal)    S(lipo)     H(rot)  DE(clash)    DE(int)     intcor
     14.06     -15.23       0.53        0.00     117.35       2.25       0.19       0.98       ----

> <Gold.Chemscore.Fitness>
14.0603

> <Gold.Chemscore.DG>
-15.2309

> <Gold.Chemscore.ZeroCoef>
-5.4800

> <Gold.Chemscore.Hbond>
0.5324

> <Gold.Chemscore.Metal>
0.0000

> <Gold.Chemscore.Lipo>
117.3530

> <Gold.Chemscore.Internal_Hbond>
0.0000

> <Gold.Chemscore.DEClash>
0.1879

> <Gold.Chemscore.DEInternal>
0.9827

> <Gold.Chemscore.Rot>
2.2491

> <Gold.Chemscore.Internal.Correction>
   9.000000E+99

> <Gold.Chemscore.Hbonds>
donor molecule, donor type, donor heavy atom, donor atom, acceptor molecule, acceptor atom, score
      P1  H  6933  6944       L1     1  0.01

> <Gold.Chemscore.Hbond.Weighted>
-1.7782

> <Gold.Chemscore.Metal.Weighted>
-0.0000

> <Gold.Chemscore.Lipo.Weighted>
-13.7303

> <Gold.Chemscore.Internal_Hbond.Weighted>
0.0000

> <Gold.Chemscore.DEClash.Weighted>
0.1879

> <Gold.Chemscore.DEInternal.Weighted>
0.9827

> <Gold.Chemscore.Rot.Weighted>
5.7576

> <Gold.Chemscore.Internal.Correction.Weighted>
   9.000000E+99

> <Gold.Protein.RotatedTorsions>
[ 6907 6896 6895 6894 ] final  -56.91 input  -60.11 | X-H torsion
[ 7974 7965 7964 7962 ] final -159.51 input  175.53 | X-H torsion
[ 8008 7997 7996 7995 ] final  -56.64 input   59.86 | X-H torsion
[ 10167 10162 10161 10158 ] final    6.16 input  -65.29 | X-H torsion
[ 10718 10713 10712 10709 ] final -158.50 input   66.30 | X-H torsion
[ 10763 10752 10751 10750 ] final -134.77 input  -60.55 | X-H torsion
[ 11005 11000 10999 10996 ] final   14.52 input  -57.11 | X-H torsion

> <Gold.Protein.ActiveResidues>
 VAL166  LYS551  ARG553  GLY616  TRP617  ASP618  TYR619  PRO620  LYS621  CYS622 
 ASP623  PHE694  ASN695  SER759  ASP760  ASP761  ALA762  ILE779  LEU786  VAL792 
 PHE793  MET794  SER795  GLU796  ALA797  LYS798  CYS799  TRP800  GLU811  SER814 

> <Gold.Protein.RotatedAtoms>
  150.8129  134.7294  159.6703 H   0  0  0  0  0  0  0  0  0  0  0  0  # atno 6907 bound_to 6896
  152.4249  134.5884  159.9977 H   0  0  0  0  0  0  0  0  0  0  0  0  # atno 6908 bound_to 6896
  151.6089  133.3312  159.3099 H   0  0  0  0  0  0  0  0  0  0  0  0  # atno 6909 bound_to 6896
  144.7462  140.3674  143.6083 H   0  0  0  0  0  0  0  0  0  0  0  0  # atno 7974 bound_to 7965
  154.4237  140.1125  156.5669 H   0  0  0  0  0  0  0  0  0  0  0  0  # atno 8008 bound_to 7997
  155.6253  140.3495  155.4646 H   0  0  0  0  0  0  0  0  0  0  0  0  # atno 8009 bound_to 7997
  155.9992  140.1195  157.0554 H   0  0  0  0  0  0  0  0  0  0  0  0  # atno 8010 bound_to 7997
  140.6443  143.7700  150.7475 H   0  0  0  0  0  0  0  0  0  0  0  0  # atno 10167 bound_to 10162
  156.5550  130.8622  151.2792 H   0  0  0  0  0  0  0  0  0  0  0  0  # atno 10718 bound_to 10713
  154.8714  135.3724  154.4790 H   0  0  0  0  0  0  0  0  0  0  0  0  # atno 10763 bound_to 10752
  153.5445  135.7026  153.5625 H   0  0  0  0  0  0  0  0  0  0  0  0  # atno 10764 bound_to 10752
  153.3772  135.4006  155.1795 H   0  0  0  0  0  0  0  0  0  0  0  0  # atno 10765 bound_to 10752
  140.4686  134.1054  155.7728 H   0  0  0  0  0  0  0  0  0  0  0  0  # atno 11005 bound_to 11000
  145.7113  139.1685  143.2537 LP  0  0  0  0  0  0  0  0  0  0  0  0  # atno 17320 bound_to 7965
  146.1345  140.7142  142.9396 LP  0  0  0  0  0  0  0  0  0  0  0  0  # atno 17321 bound_to 7965
  140.1338  143.4502  152.2237 LP  0  0  0  0  0  0  0  0  0  0  0  0  # atno 17342 bound_to 10162
  139.5653  144.7431  151.4040 LP  0  0  0  0  0  0  0  0  0  0  0  0  # atno 17343 bound_to 10162
  157.7380  130.9806  150.2226 LP  0  0  0  0  0  0  0  0  0  0  0  0  # atno 17370 bound_to 10713
  156.2851  130.3738  149.7897 LP  0  0  0  0  0  0  0  0  0  0  0  0  # atno 17371 bound_to 10713
  141.1588  133.8833  157.1906 LP  0  0  0  0  0  0  0  0  0  0  0  0  # atno 17394 bound_to 11000
  139.9900  135.0068  156.9952 LP  0  0  0  0  0  0  0  0  0  0  0  0  # atno 17395 bound_to 11000

$$$$
