AV-unprocessed.smi:72|AV-procd|sdf|671|dock5
  -GOLD-   2262016573D 1   1.00000     0.00000
 Structure written by MMmdl.
 29 30  0  0  0  0  0  0  0  0  1 V2000
  154.0204  138.4257  155.0160 N   0  0  0  0  0  0  0  0  0  0  0  0
  152.7530  138.6341  154.9748 C   0  0  0  0  0  0  0  0  0  0  0  0
  151.8479  137.9610  154.1401 N   0  0  0  0  0  0  0  0  0  0  0  0
  150.5902  138.2713  154.2089 C   0  0  0  0  0  0  0  0  0  0  0  0
  150.0909  139.2859  155.1244 N   0  0  0  0  0  0  0  0  0  0  0  0
  148.6137  139.6154  155.1828 C   0  0  2  0  0  0  0  0  0  0  0  0
  147.9176  138.6233  154.4933 O   0  0  0  0  0  0  0  0  0  0  0  0
  146.8588  139.2137  153.7554 C   0  0  2  0  0  0  0  0  0  0  0  0
  146.4834  138.2890  152.5866 C   0  0  0  0  0  0  0  0  0  0  0  0
  147.4153  138.4135  151.5338 O   0  0  0  0  0  0  0  0  0  0  0  0
  147.4174  140.5816  153.3456 C   0  0  1  0  0  0  0  0  0  0  0  0
  146.3697  141.5094  153.1452 O   0  0  0  0  0  0  0  0  0  0  0  0
  148.2618  140.9819  154.5498 C   0  0  2  0  0  0  0  0  0  0  0  0
  149.3797  141.7537  154.1487 O   0  0  0  0  0  0  0  0  0  0  0  0
  150.9925  139.9870  155.9613 C   0  0  0  0  0  0  0  0  0  0  0  0
  150.6295  140.8759  156.7310 O   0  0  0  0  0  0  0  0  0  0  0  0
  152.2891  139.6240  155.8523 N   0  0  0  0  0  0  0  0  0  0  0  0
  148.3175  139.5571  156.2309 H   0  0  0  0  0  0  0  0  0  0  0  0
  146.0162  139.3318  154.4400 H   0  0  0  0  0  0  0  0  0  0  0  0
  148.0329  140.4904  152.4492 H   0  0  0  0  0  0  0  0  0  0  0  0
  147.6717  141.5404  155.2781 H   0  0  0  0  0  0  0  0  0  0  0  0
  154.2829  137.7035  154.3612 H   0  0  0  0  0  0  0  0  0  0  0  0
  149.8287  137.7991  153.5865 H   0  0  0  0  0  0  0  0  0  0  0  0
  146.4271  137.2495  152.9102 H   0  0  0  0  0  0  0  0  0  0  0  0
  145.5006  138.5586  152.1993 H   0  0  0  0  0  0  0  0  0  0  0  0
  147.8689  137.5906  151.4347 H   0  0  0  0  0  0  0  0  0  0  0  0
  145.5594  141.0328  153.0521 H   0  0  0  0  0  0  0  0  0  0  0  0
  149.4573  142.4938  154.7309 H   0  0  0  0  0  0  0  0  0  0  0  0
  152.9569  140.1044  156.4373 H   0  0  0  0  0  0  0  0  0  0  0  0
  1  2  2  0  0  0  0
  1 22  1  0  0  0  0
  2 17  1  0  0  0  0
  2  3  1  0  0  0  0
  3  4  2  0  0  0  0
  4  5  1  0  0  0  0
  4 23  1  0  0  0  0
  5  6  1  0  0  0  0
  5 15  1  0  0  0  0
  6 18  1  0  0  0  0
  6 13  1  0  0  0  0
  6  7  1  0  0  0  0
  7  8  1  0  0  0  0
  8 19  1  0  0  0  0
  8  9  1  0  0  0  0
  8 11  1  0  0  0  0
  9 10  1  0  0  0  0
  9 24  1  0  0  0  0
  9 25  1  0  0  0  0
 10 26  1  0  0  0  0
 11 20  1  0  0  0  0
 11 12  1  0  0  0  0
 11 13  1  0  0  0  0
 12 27  1  0  0  0  0
 13 21  1  0  0  0  0
 13 14  1  0  0  0  0
 14 28  1  0  0  0  0
 15 16  2  0  0  0  0
 15 17  1  0  0  0  0
 17 29  1  0  0  0  0
M  END
> <s_m_source_file>
AV-unprocessed.smi

> <i_m_source_file_index>
72

> <i_lp_mmshare_version>
43012

> <i_f3d_flags>
0

> <s_epik_input>
W05IMl1jMW5bY0hdbihjKD1PKW4xKVtDQEBIXTJPW0NASF0oW0NIMl1bT0hdKVtDQEBIXShbT0hdKVtDQEhdMltPSF0=

> <s_epik_cmdline>
J2VwaWtfcHl0aG9uJywgJy1waCcsICc3LjAnLCAnLXRuJywgJzgnLCAnLW1hJywgJzIwMCcsICctbWV0YWxfYmluZGluZycsICctaW1hZScsICc8aW5maWxlLm1hZT4nLCAnLW9tYWUnLCAnPG91dGZpbGUubWFlPic=

> <r_lp_tautomer_probability>
7.17554e-07

> <r_epik_Ionization_Penalty>
0.0066451

> <r_epik_Ionization_Penalty_Charging>
0.00663793

> <r_epik_Ionization_Penalty_Neutral>
7.17052e-06

> <r_epik_State_Penalty>
0.419231

> <r_epik_Charging_Adjusted_Penalty>
0.425868

> <i_epik_Tot_Q>
0

> <i_epik_Tot_abs_Q>
0

> <r_epik_Metal_State_Penalty>
1.44144

> <b_epik_Metal_Only>
0

> <s_epik_Chemistry_Notes>
This compound contains an acetal/aminal-like group ( X-CH(R)-Y where X, Y are N, S, or O) that may be acid/base labile, releasing an aldehyde.

> <s_lp_Force_Field>
OPLS_2005

> <r_lp_Energy>
42.2993

> <b_lp_Chiralities_Consistent>
1

> <s_lp_Variant>
AV-unprocessed.smi:72-9

> <Gold.Version>
5.8.1

> <Gold.Id.Protein>
6NUR|6NUR_protein|mol2

> <Gold.PLP.Fitness>
40.1321

> <Gold.PLP.PLP>
-28.2678

> <Gold.PLP.part.hbond>
-7.2425

> <Gold.PLP.part.metal>
0.0000

> <Gold.PLP.part.buried>
-1.8539

> <Gold.PLP.part.nonpolar>
-19.1973

> <Gold.PLP.part.repulsive>
0.5456

> <Gold.PLP.ligand.clash>
0.0000

> <Gold.PLP.ligand.torsion>
0.4692

> <Gold.PLP.Chemscore.Hbond>
3.2320

> <Gold.PLP.Chemscore.CHOScore>
1.0000

> <Gold.PLP.Chemscore.Metal>
0.0000

> <Gold.Chemscore.Hbonds>
donor molecule, donor type, donor heavy atom, donor atom, acceptor molecule, acceptor atom, score
      L1  H    10    26       P1  7948  1.00
      L1  H    12    27       P1 10175  1.00
      P1  H  7997  8008       L1     1  0.64
      P1  H  8011  8017       L1    14  0.51
      L1  C     4    23       P1  7948  1.00

> <Gold.PLP.Chemscore.Internal.Correction>
0.1066

> <Gold.Rescore>
     Score         DG    S(hbond)    S(metal)    S(lipo)     H(rot)  DE(clash)    DE(int)     intcor
      7.38      -8.39       3.25        0.00      20.97       4.06       0.38       0.62       ----

> <Gold.Chemscore.Fitness>
7.3834

> <Gold.Chemscore.DG>
-8.3851

> <Gold.Chemscore.ZeroCoef>
-5.4800

> <Gold.Chemscore.Hbond>
3.2472

> <Gold.Chemscore.Metal>
0.0000

> <Gold.Chemscore.Lipo>
20.9660

> <Gold.Chemscore.Internal_Hbond>
0.0000

> <Gold.Chemscore.DEClash>
0.3821

> <Gold.Chemscore.DEInternal>
0.6196

> <Gold.Chemscore.Rot>
4.0600

> <Gold.Chemscore.Internal.Correction>
   9.000000E+99

> <Gold.Chemscore.Hbonds>
donor molecule, donor type, donor heavy atom, donor atom, acceptor molecule, acceptor atom, score
      L1  H    10    26       P1  7948  0.99
      L1  H    12    27       P1 10175  0.28
      L1  H    14    28       P1  8028  0.03
      P1  H  7997  8008       L1     1  0.18
      P1  H  8011  8017       L1    14  0.28

> <Gold.Chemscore.Hbond.Weighted>
-10.8457

> <Gold.Chemscore.Metal.Weighted>
-0.0000

> <Gold.Chemscore.Lipo.Weighted>
-2.4530

> <Gold.Chemscore.Internal_Hbond.Weighted>
0.0000

> <Gold.Chemscore.DEClash.Weighted>
0.3821

> <Gold.Chemscore.DEInternal.Weighted>
0.6196

> <Gold.Chemscore.Rot.Weighted>
10.3936

> <Gold.Chemscore.Internal.Correction.Weighted>
   9.000000E+99

> <Gold.Protein.RotatedTorsions>
[ 6907 6896 6895 6894 ] final -109.43 input  -60.11 | X-H torsion
[ 7974 7965 7964 7962 ] final   79.06 input  175.53 | X-H torsion
[ 8008 7997 7996 7995 ] final    3.25 input   59.86 | X-H torsion
[ 10167 10162 10161 10158 ] final  157.59 input  -65.29 | X-H torsion
[ 10718 10713 10712 10709 ] final   13.18 input   66.30 | X-H torsion
[ 10763 10752 10751 10750 ] final   85.20 input  -60.55 | X-H torsion
[ 11005 11000 10999 10996 ] final  105.57 input  -57.11 | X-H torsion

> <Gold.Protein.ActiveResidues>
 VAL166  LYS551  ARG553  GLY616  TRP617  ASP618  TYR619  PRO620  LYS621  CYS622 
 ASP623  PHE694  ASN695  SER759  ASP760  ASP761  ALA762  ILE779  LEU786  VAL792 
 PHE793  MET794  SER795  GLU796  ALA797  LYS798  CYS799  TRP800  GLU811  SER814 

> <Gold.Protein.RotatedAtoms>
  150.7562  133.9530  159.3491 H   0  0  0  0  0  0  0  0  0  0  0  0  # atno 6907 bound_to 6896
  151.7449  135.0844  160.0331 H   0  0  0  0  0  0  0  0  0  0  0  0  # atno 6908 bound_to 6896
  152.3504  133.6136  159.5977 H   0  0  0  0  0  0  0  0  0  0  0  0  # atno 6909 bound_to 6896
  145.6690  139.2492  143.1879 H   0  0  0  0  0  0  0  0  0  0  0  0  # atno 7974 bound_to 7965
  154.7014  140.2674  155.6716 H   0  0  0  0  0  0  0  0  0  0  0  0  # atno 8008 bound_to 7997
  156.2766  140.2771  156.1549 H   0  0  0  0  0  0  0  0  0  0  0  0  # atno 8009 bound_to 7997
  155.0760  140.0372  157.2614 H   0  0  0  0  0  0  0  0  0  0  0  0  # atno 8010 bound_to 7997
  139.4823  144.4903  151.8317 H   0  0  0  0  0  0  0  0  0  0  0  0  # atno 10167 bound_to 10162
  157.0209  130.6154  149.5721 H   0  0  0  0  0  0  0  0  0  0  0  0  # atno 10718 bound_to 10713
  153.1453  135.4626  154.9557 H   0  0  0  0  0  0  0  0  0  0  0  0  # atno 10763 bound_to 10752
  154.7781  135.3179  154.8051 H   0  0  0  0  0  0  0  0  0  0  0  0  # atno 10764 bound_to 10752
  153.8566  135.6916  153.4841 H   0  0  0  0  0  0  0  0  0  0  0  0  # atno 10765 bound_to 10752
  139.8803  134.9340  156.5534 H   0  0  0  0  0  0  0  0  0  0  0  0  # atno 11005 bound_to 11000
  146.1061  140.7485  142.9526 LP  0  0  0  0  0  0  0  0  0  0  0  0  # atno 17320 bound_to 7965
  144.7063  140.3864  143.7115 LP  0  0  0  0  0  0  0  0  0  0  0  0  # atno 17321 bound_to 7965
  140.4387  144.2016  150.5890 LP  0  0  0  0  0  0  0  0  0  0  0  0  # atno 17342 bound_to 10162
  140.4705  143.2415  151.9095 LP  0  0  0  0  0  0  0  0  0  0  0  0  # atno 17343 bound_to 10162
  156.0102  130.5193  150.7964 LP  0  0  0  0  0  0  0  0  0  0  0  0  # atno 17370 bound_to 10713
  157.5250  131.0933  151.0029 LP  0  0  0  0  0  0  0  0  0  0  0  0  # atno 17371 bound_to 10713
  140.8223  133.8344  155.8907 LP  0  0  0  0  0  0  0  0  0  0  0  0  # atno 17394 bound_to 11000
  140.9406  134.1905  157.4800 LP  0  0  0  0  0  0  0  0  0  0  0  0  # atno 17395 bound_to 11000

$$$$
