AV-unprocessed.smi:1410|AV-procd|sdf|5738|dock5
  -GOLD-   22720 5373D 1   1.00000     0.00000
 Structure written by MMmdl.
 40 41  0  0  0  0  0  0  0  0  4 V2000
  142.7064  139.9083  154.8194 N   0  5  0  0  0  0  0  0  0  0  0  0
  143.0638  140.6365  155.8964 C   0  0  0  0  0  0  0  0  0  0  0  0
  142.7975  140.4213  157.0766 O   0  0  0  0  0  0  0  0  0  0  0  0
  143.8964  141.8666  155.5197 C   0  0  0  0  0  0  0  0  0  0  0  0
  145.1465  141.4652  154.8248 N   0  3  2  0  0  0  0  0  0  0  0  0
  146.0449  140.6685  155.6977 C   0  0  0  0  0  0  0  0  0  0  0  0
  147.2558  140.1361  154.9114 C   0  0  0  0  0  0  0  0  0  0  0  0
  148.0374  141.2687  154.2159 C   0  0  2  0  0  0  0  0  0  0  0  0
  148.7545  142.1071  155.1768 N   0  0  0  0  0  0  0  0  0  0  0  0
  149.7756  141.7036  155.9471 C   0  0  0  0  0  0  0  0  0  0  0  0
  150.2226  140.5571  155.9343 O   0  0  0  0  0  0  0  0  0  0  0  0
  150.2165  142.6997  156.7349 N   0  0  0  0  0  0  0  0  0  0  0  0
  151.2696  142.6701  157.6896 C   0  0  0  0  0  0  0  0  0  0  0  0
  151.6690  141.4087  158.1845 C   0  0  0  0  0  0  0  0  0  0  0  0
  152.6993  141.3321  159.1438 C   0  0  0  0  0  0  0  0  0  0  0  0
  153.2885  142.4623  159.5894 N   0  3  0  0  0  0  0  0  0  0  0  0
  152.9311  143.6908  159.1578 C   0  0  0  0  0  0  0  0  0  0  0  0
  151.9071  143.8303  158.1988 C   0  0  0  0  0  0  0  0  0  0  0  0
  147.0720  142.1199  153.3730 C   0  0  0  0  0  0  0  0  0  0  0  0
  145.8622  142.6059  154.1922 C   0  0  0  0  0  0  0  0  0  0  0  0
  143.0860  140.1594  153.8989 H   0  0  0  0  0  0  0  0  0  0  0  0
  143.3161  142.5480  154.8953 H   0  0  0  0  0  0  0  0  0  0  0  0
  144.1287  142.4093  156.4378 H   0  0  0  0  0  0  0  0  0  0  0  0
  146.3749  141.2799  156.5391 H   0  0  0  0  0  0  0  0  0  0  0  0
  145.4953  139.8247  156.1168 H   0  0  0  0  0  0  0  0  0  0  0  0
  147.9083  139.5640  155.5717 H   0  0  0  0  0  0  0  0  0  0  0  0
  146.9036  139.4319  154.1564 H   0  0  0  0  0  0  0  0  0  0  0  0
  148.7738  140.8263  153.5423 H   0  0  0  0  0  0  0  0  0  0  0  0
  148.4552  143.0685  155.2511 H   0  0  0  0  0  0  0  0  0  0  0  0
  149.6953  143.5632  156.6919 H   0  0  0  0  0  0  0  0  0  0  0  0
  151.1973  140.5035  157.8303 H   0  0  0  0  0  0  0  0  0  0  0  0
  153.0652  140.4077  159.5662 H   0  0  0  0  0  0  0  0  0  0  0  0
  153.4666  144.5214  159.5942 H   0  0  0  0  0  0  0  0  0  0  0  0
  151.6240  144.8230  157.8835 H   0  0  0  0  0  0  0  0  0  0  0  0
  147.5972  142.9711  152.9377 H   0  0  0  0  0  0  0  0  0  0  0  0
  146.7130  141.5248  152.5320 H   0  0  0  0  0  0  0  0  0  0  0  0
  145.1888  143.1543  153.5330 H   0  0  0  0  0  0  0  0  0  0  0  0
  146.1839  143.3078  154.9630 H   0  0  0  0  0  0  0  0  0  0  0  0
  144.8524  140.8505  154.0785 H   0  0  0  0  0  0  0  0  0  0  0  0
  154.0313  142.3857  160.2850 H   0  0  0  0  0  0  0  0  0  0  0  0
  1  2  1  0  0  0  0
  1 21  1  0  0  0  0
  2  3  2  0  0  0  0
  2  4  1  0  0  0  0
  4  5  1  0  0  0  0
  4 22  1  0  0  0  0
  4 23  1  0  0  0  0
  5 20  1  0  0  0  0
  5  6  1  0  0  0  0
  5 39  1  0  0  0  0
  6  7  1  0  0  0  0
  6 24  1  0  0  0  0
  6 25  1  0  0  0  0
  7  8  1  0  0  0  0
  7 26  1  0  0  0  0
  7 27  1  0  0  0  0
  8  9  1  0  0  0  0
  8 19  1  0  0  0  0
  8 28  1  0  0  0  0
  9 10  1  0  0  0  0
  9 29  1  0  0  0  0
 10 11  2  0  0  0  0
 10 12  1  0  0  0  0
 12 13  1  0  0  0  0
 12 30  1  0  0  0  0
 13 18  1  0  0  0  0
 13 14  2  0  0  0  0
 14 15  1  0  0  0  0
 14 31  1  0  0  0  0
 15 16  2  0  0  0  0
 15 32  1  0  0  0  0
 16 17  1  0  0  0  0
 16 40  1  0  0  0  0
 17 18  2  0  0  0  0
 17 33  1  0  0  0  0
 18 34  1  0  0  0  0
 19 20  1  0  0  0  0
 19 35  1  0  0  0  0
 19 36  1  0  0  0  0
 20 37  1  0  0  0  0
 20 38  1  0  0  0  0
M  CHG  1   1  -1
M  CHG  1   5   1
M  CHG  1  16   1
M  END
> <s_m_source_file>
AV-unprocessed.smi

> <i_m_source_file_index>
1410

> <i_lp_mmshare_version>
43012

> <i_f3d_flags>
0

> <s_epik_input>
W05IMl1DKD1PKVtDSDJdTjFbQ0gyXVtDSDJdW0NIXShbQ0gyXVtDSDJdMSlbTkhdQyg9TylbTkhdYzJbY0hdW2NIXW5bY0hdW2NIXTI=

> <s_epik_cmdline>
J2VwaWtfcHl0aG9uJywgJy1waCcsICc3LjAnLCAnLXRuJywgJzgnLCAnLW1hJywgJzIwMCcsICctbWV0YWxfYmluZGluZycsICctaW1hZScsICc8aW5maWxlLm1hZT4nLCAnLW9tYWUnLCAnPG91dGZpbGUubWFlPic=

> <r_epik_Ionization_Penalty>
6.84067

> <r_epik_Ionization_Penalty_Charging>
6.84065

> <r_epik_Ionization_Penalty_Neutral>
1.84563e-05

> <r_epik_State_Penalty>
7.68217

> <r_epik_Charging_Adjusted_Penalty>
14.5228

> <i_epik_Tot_Q>
1

> <i_epik_Tot_abs_Q>
3

> <r_epik_Metal_State_Penalty>
3.74331

> <b_epik_Metal_Only>
1

> <s_lp_Force_Field>
OPLS_2005

> <r_lp_Energy>
20.5434

> <b_lp_Chiralities_Consistent>
1

> <s_lp_Variant>
AV-unprocessed.smi:1410-10

> <Gold.Version>
5.8.1

> <Gold.Id.Protein>
6NUR|6NUR_protein|mol2

> <Gold.PLP.Fitness>
46.8112

> <Gold.PLP.PLP>
-32.1687

> <Gold.PLP.part.hbond>
-4.0000

> <Gold.PLP.part.metal>
0.0000

> <Gold.PLP.part.buried>
-6.3996

> <Gold.PLP.part.nonpolar>
-23.1582

> <Gold.PLP.part.repulsive>
0.3318

> <Gold.PLP.ligand.clash>
0.0000

> <Gold.PLP.ligand.torsion>
0.1702

> <Gold.PLP.Chemscore.Hbond>
4.9840

> <Gold.PLP.Chemscore.CHOScore>
0.0000

> <Gold.PLP.Chemscore.Metal>
0.0000

> <Gold.Chemscore.Hbonds>
donor molecule, donor type, donor heavy atom, donor atom, acceptor molecule, acceptor atom, score
      L1  H     1    21       P1 10175  0.98
      L1  H     5    39       P1 10175  1.95
      L1  H     9    29       P1  8028  0.98
      L1  H    12    30       P1  8028  0.94

> <Gold.PLP.Chemscore.Internal.Correction>
0.0310

> <Gold.Rescore>
     Score         DG    S(hbond)    S(metal)    S(lipo)     H(rot)  DE(clash)    DE(int)     intcor
     19.38     -22.25       3.76        0.00      78.83       1.96       1.31       1.56       ----

> <Gold.Chemscore.Fitness>
19.3849

> <Gold.Chemscore.DG>
-22.2492

> <Gold.Chemscore.ZeroCoef>
-5.4800

> <Gold.Chemscore.Hbond>
3.7624

> <Gold.Chemscore.Metal>
0.0000

> <Gold.Chemscore.Lipo>
78.8342

> <Gold.Chemscore.Internal_Hbond>
0.0000

> <Gold.Chemscore.DEClash>
1.3076

> <Gold.Chemscore.DEInternal>
1.5567

> <Gold.Chemscore.Rot>
1.9612

> <Gold.Chemscore.Internal.Correction>
   9.000000E+99

> <Gold.Chemscore.Hbonds>
donor molecule, donor type, donor heavy atom, donor atom, acceptor molecule, acceptor atom, score
      L1  H     1    21       P1 10175  0.91
      L1  H     5    39       P1 10175  0.85
      L1  H     9    29       P1  8028  0.93
      L1  H    12    30       P1  8028  0.91

> <Gold.Chemscore.Hbond.Weighted>
-12.5664

> <Gold.Chemscore.Metal.Weighted>
-0.0000

> <Gold.Chemscore.Lipo.Weighted>
-9.2236

> <Gold.Chemscore.Internal_Hbond.Weighted>
0.0000

> <Gold.Chemscore.DEClash.Weighted>
1.3076

> <Gold.Chemscore.DEInternal.Weighted>
1.5567

> <Gold.Chemscore.Rot.Weighted>
5.0208

> <Gold.Chemscore.Internal.Correction.Weighted>
   9.000000E+99

> <Gold.Protein.RotatedTorsions>
[ 6907 6896 6895 6894 ] final -172.36 input  -60.11 | X-H torsion
[ 7974 7965 7964 7962 ] final   85.35 input  175.53 | X-H torsion
[ 8008 7997 7996 7995 ] final  -19.33 input   59.86 | X-H torsion
[ 10167 10162 10161 10158 ] final  -54.88 input  -65.29 | X-H torsion
[ 10718 10713 10712 10709 ] final   19.46 input   66.30 | X-H torsion
[ 10763 10752 10751 10750 ] final   37.62 input  -60.55 | X-H torsion
[ 11005 11000 10999 10996 ] final -162.37 input  -57.11 | X-H torsion

> <Gold.Protein.ActiveResidues>
 VAL166  LYS551  ARG553  GLY616  TRP617  ASP618  TYR619  PRO620  LYS621  CYS622 
 ASP623  PHE694  ASN695  SER759  ASP760  ASP761  ALA762  ILE779  LEU786  VAL792 
 PHE793  MET794  SER795  GLU796  ALA797  LYS798  CYS799  TRP800  GLU811  SER814 

> <Gold.Protein.RotatedAtoms>
  151.5388  133.3436  159.2931 H   0  0  0  0  0  0  0  0  0  0  0  0  # atno 6907 bound_to 6896
  150.8548  134.7887  159.7048 H   0  0  0  0  0  0  0  0  0  0  0  0  # atno 6908 bound_to 6896
  152.4585  134.5246  159.9844 H   0  0  0  0  0  0  0  0  0  0  0  0  # atno 6909 bound_to 6896
  145.5867  139.2332  143.2322 H   0  0  0  0  0  0  0  0  0  0  0  0  # atno 7974 bound_to 7965
  154.4844  140.2092  155.9688 H   0  0  0  0  0  0  0  0  0  0  0  0  # atno 8008 bound_to 7997
  156.1214  140.3212  155.8183 H   0  0  0  0  0  0  0  0  0  0  0  0  # atno 8009 bound_to 7997
  155.4460  140.0513  157.2996 H   0  0  0  0  0  0  0  0  0  0  0  0  # atno 8010 bound_to 7997
  140.6406  143.2505  151.5001 H   0  0  0  0  0  0  0  0  0  0  0  0  # atno 10167 bound_to 10162
  157.1108  130.6508  149.5897 H   0  0  0  0  0  0  0  0  0  0  0  0  # atno 10718 bound_to 10713
  153.0031  135.6272  154.2173 H   0  0  0  0  0  0  0  0  0  0  0  0  # atno 10763 bound_to 10752
  154.1917  135.2808  155.3021 H   0  0  0  0  0  0  0  0  0  0  0  0  # atno 10764 bound_to 10752
  154.5755  135.5663  153.7194 H   0  0  0  0  0  0  0  0  0  0  0  0  # atno 10765 bound_to 10752
  140.6101  134.4858  157.5214 H   0  0  0  0  0  0  0  0  0  0  0  0  # atno 11005 bound_to 11000
  146.1677  140.6693  142.9248 LP  0  0  0  0  0  0  0  0  0  0  0  0  # atno 17320 bound_to 7965
  144.7370  140.4835  143.6897 LP  0  0  0  0  0  0  0  0  0  0  0  0  # atno 17321 bound_to 7965
  139.5615  144.2145  152.1698 LP  0  0  0  0  0  0  0  0  0  0  0  0  # atno 17342 bound_to 10162
  140.1414  144.5198  150.6741 LP  0  0  0  0  0  0  0  0  0  0  0  0  # atno 17343 bound_to 10162
  155.9851  130.4879  150.7014 LP  0  0  0  0  0  0  0  0  0  0  0  0  # atno 17370 bound_to 10713
  157.4561  131.0878  151.0795 LP  0  0  0  0  0  0  0  0  0  0  0  0  # atno 17371 bound_to 10713
  139.9196  134.8176  156.1254 LP  0  0  0  0  0  0  0  0  0  0  0  0  # atno 17394 bound_to 11000
  141.0814  133.6753  156.2344 LP  0  0  0  0  0  0  0  0  0  0  0  0  # atno 17395 bound_to 11000

$$$$
