AV-unprocessed.smi:3174|AV-procd|sdf|12121|dock9
  -GOLD-   2272017563D 1   1.00000     0.00000
 Structure written by MMmdl.
 32 33  0  0  0  0  0  0  0  0  1 V2000
  150.5074  139.0459  154.5904 C   0  0  0  0  0  0  0  0  0  0  0  0
  150.6963  140.4223  154.8663 O   0  0  0  0  0  0  0  0  0  0  0  0
  151.4432  140.6433  156.0511 C   0  0  0  0  0  0  0  0  0  0  0  0
  151.0313  141.9812  156.6871 C   0  0  0  0  0  0  0  0  0  0  0  0
  151.6832  142.1914  157.9848 N   0  0  0  0  0  0  0  0  0  0  0  0
  152.6157  141.2193  158.3078 N   0  0  0  0  0  0  0  0  0  0  0  0
  153.2737  141.2916  159.4197 C   0  0  0  0  0  0  0  0  0  0  0  0
  154.2858  140.2679  159.8022 C   0  0  0  0  0  0  0  0  0  0  0  0
  154.8161  139.5348  158.9654 O   0  0  0  0  0  0  0  0  0  0  0  0
  154.5713  140.2060  161.1147 N   0  0  0  0  0  0  0  0  0  0  0  0
  155.5016  139.3109  161.7226 C   0  0  0  0  0  0  0  0  0  0  0  0
  154.9529  138.2617  162.6652 C   0  0  0  0  0  0  0  0  0  0  0  0
  155.7195  139.4325  163.2153 C   0  0  0  0  0  0  0  0  0  0  0  0
  153.0478  142.3872  160.3473 C   0  0  0  0  0  0  0  0  0  0  0  0
  152.1369  143.3289  160.0182 C   0  0  0  0  0  0  0  0  0  0  0  0
  151.3814  143.2727  158.7657 C   0  0  0  0  0  0  0  0  0  0  0  0
  150.5511  144.1223  158.4445 O   0  0  0  0  0  0  0  0  0  0  0  0
  149.9318  138.9332  153.6719 H   0  0  0  0  0  0  0  0  0  0  0  0
  149.9586  138.5541  155.3945 H   0  0  0  0  0  0  0  0  0  0  0  0
  151.4620  138.5362  154.4544 H   0  0  0  0  0  0  0  0  0  0  0  0
  151.2495  139.8331  156.7553 H   0  0  0  0  0  0  0  0  0  0  0  0
  152.5131  140.6367  155.8362 H   0  0  0  0  0  0  0  0  0  0  0  0
  151.2305  142.8033  155.9978 H   0  0  0  0  0  0  0  0  0  0  0  0
  149.9496  141.9874  156.8313 H   0  0  0  0  0  0  0  0  0  0  0  0
  154.0894  140.8460  161.7297 H   0  0  0  0  0  0  0  0  0  0  0  0
  156.3715  139.0185  161.1361 H   0  0  0  0  0  0  0  0  0  0  0  0
  153.8778  138.2415  162.8347 H   0  0  0  0  0  0  0  0  0  0  0  0
  155.4435  137.2907  162.6748 H   0  0  0  0  0  0  0  0  0  0  0  0
  156.7232  139.2443  163.5913 H   0  0  0  0  0  0  0  0  0  0  0  0
  155.1559  140.1927  163.7533 H   0  0  0  0  0  0  0  0  0  0  0  0
  153.5911  142.4549  161.2788 H   0  0  0  0  0  0  0  0  0  0  0  0
  151.9595  144.1492  160.6983 H   0  0  0  0  0  0  0  0  0  0  0  0
  1  2  1  0  0  0  0
  1 18  1  0  0  0  0
  1 19  1  0  0  0  0
  1 20  1  0  0  0  0
  2  3  1  0  0  0  0
  3  4  1  0  0  0  0
  3 21  1  0  0  0  0
  3 22  1  0  0  0  0
  4  5  1  0  0  0  0
  4 23  1  0  0  0  0
  4 24  1  0  0  0  0
  5 16  1  0  0  0  0
  5  6  1  0  0  0  0
  6  7  2  0  0  0  0
  7  8  1  0  0  0  0
  7 14  1  0  0  0  0
  8  9  2  0  0  0  0
  8 10  1  0  0  0  0
 10 11  1  0  0  0  0
 10 25  1  0  0  0  0
 11 13  1  0  0  0  0
 11 12  1  0  0  0  0
 11 26  1  0  0  0  0
 12 13  1  0  0  0  0
 12 27  1  0  0  0  0
 12 28  1  0  0  0  0
 13 29  1  0  0  0  0
 13 30  1  0  0  0  0
 14 15  2  0  0  0  0
 14 31  1  0  0  0  0
 15 16  1  0  0  0  0
 15 32  1  0  0  0  0
 16 17  2  0  0  0  0
M  END
> <s_m_source_file>
AV-unprocessed.smi

> <i_m_source_file_index>
3174

> <i_lp_mmshare_version>
43012

> <i_f3d_flags>
0

> <s_epik_input>
W0NIM11PW0NIMl1bQ0gyXW4xbmMoW2NIXVtjSF1jMT1PKUMoPU8pW05IXVtDSF0yW0NIMl1bQ0gyXTI=

> <s_epik_cmdline>
J2VwaWtfcHl0aG9uJywgJy1waCcsICc3LjAnLCAnLXRuJywgJzgnLCAnLW1hJywgJzIwMCcsICctbWV0YWxfYmluZGluZycsICctaW1hZScsICc8aW5maWxlLm1hZT4nLCAnLW9tYWUnLCAnPG91dGZpbGUubWFlPic=

> <r_lp_tautomer_probability>
1

> <r_epik_Ionization_Penalty>
5.63485e-07

> <r_epik_Ionization_Penalty_Charging>
6.67133e-09

> <r_epik_Ionization_Penalty_Neutral>
5.56814e-07

> <r_epik_State_Penalty>
-0

> <r_epik_Charging_Adjusted_Penalty>
6.67133e-09

> <i_epik_Tot_Q>
0

> <i_epik_Tot_abs_Q>
0

> <r_epik_Metal_State_Penalty>
-0

> <b_epik_Metal_Only>
0

> <s_lp_Force_Field>
OPLS_2005

> <r_lp_Energy>
37.1062

> <b_lp_Chiralities_Consistent>
1

> <s_lp_Variant>
AV-unprocessed.smi:3174-1

> <Gold.Version>
5.8.1

> <Gold.Id.Protein>
6NUR|6NUR_protein|mol2

> <Gold.PLP.Fitness>
38.5286

> <Gold.PLP.PLP>
-33.3209

> <Gold.PLP.part.hbond>
-2.0000

> <Gold.PLP.part.metal>
0.0000

> <Gold.PLP.part.buried>
-4.2116

> <Gold.PLP.part.nonpolar>
-26.8567

> <Gold.PLP.part.repulsive>
0.2741

> <Gold.PLP.ligand.clash>
0.0000

> <Gold.PLP.ligand.torsion>
0.4192

> <Gold.PLP.Chemscore.Hbond>
2.0000

> <Gold.PLP.Chemscore.CHOScore>
0.0000

> <Gold.PLP.Chemscore.Metal>
0.0000

> <Gold.Chemscore.Hbonds>
donor molecule, donor type, donor heavy atom, donor atom, acceptor molecule, acceptor atom, score
      P1  H  7989  7998       L1     2  1.00
      P1  H  7997  8008       L1     9  1.00

> <Gold.PLP.Chemscore.Internal.Correction>
0.0460

> <Gold.Rescore>
     Score         DG    S(hbond)    S(metal)    S(lipo)     H(rot)  DE(clash)    DE(int)     intcor
     15.20     -15.81       1.90        0.00      70.83       1.68       0.02       0.60       ----

> <Gold.Chemscore.Fitness>
15.1999

> <Gold.Chemscore.DG>
-15.8132

> <Gold.Chemscore.ZeroCoef>
-5.4800

> <Gold.Chemscore.Hbond>
1.8968

> <Gold.Chemscore.Metal>
0.0000

> <Gold.Chemscore.Lipo>
70.8321

> <Gold.Chemscore.Internal_Hbond>
0.0000

> <Gold.Chemscore.DEClash>
0.0173

> <Gold.Chemscore.DEInternal>
0.5960

> <Gold.Chemscore.Rot>
1.6756

> <Gold.Chemscore.Internal.Correction>
   9.000000E+99

> <Gold.Chemscore.Hbonds>
donor molecule, donor type, donor heavy atom, donor atom, acceptor molecule, acceptor atom, score
      P1  H  7989  7998       L1     2  0.19
      P1  H  7997  8008       L1     9  1.00

> <Gold.Chemscore.Hbond.Weighted>
-6.3353

> <Gold.Chemscore.Metal.Weighted>
-0.0000

> <Gold.Chemscore.Lipo.Weighted>
-8.2874

> <Gold.Chemscore.Internal_Hbond.Weighted>
0.0000

> <Gold.Chemscore.DEClash.Weighted>
0.0173

> <Gold.Chemscore.DEInternal.Weighted>
0.5960

> <Gold.Chemscore.Rot.Weighted>
4.2894

> <Gold.Chemscore.Internal.Correction.Weighted>
   9.000000E+99

> <Gold.Protein.RotatedTorsions>
[ 6907 6896 6895 6894 ] final -134.38 input  -60.11 | X-H torsion
[ 7974 7965 7964 7962 ] final   92.96 input  175.53 | X-H torsion
[ 8008 7997 7996 7995 ] final -130.79 input   59.86 | X-H torsion
[ 10167 10162 10161 10158 ] final -179.84 input  -65.29 | X-H torsion
[ 10718 10713 10712 10709 ] final   37.54 input   66.30 | X-H torsion
[ 10763 10752 10751 10750 ] final   83.77 input  -60.55 | X-H torsion
[ 11005 11000 10999 10996 ] final -131.15 input  -57.11 | X-H torsion

> <Gold.Protein.ActiveResidues>
 VAL166  LYS551  ARG553  GLY616  TRP617  ASP618  TYR619  PRO620  LYS621  CYS622 
 ASP623  PHE694  ASN695  SER759  ASP760  ASP761  ALA762  ILE779  LEU786  VAL792 
 PHE793  MET794  SER795  GLU796  ALA797  LYS798  CYS799  TRP800  GLU811  SER814 

> <Gold.Protein.RotatedAtoms>
  150.9851  133.6205  159.2716 H   0  0  0  0  0  0  0  0  0  0  0  0  # atno 6907 bound_to 6896
  151.3446  135.0870  159.9392 H   0  0  0  0  0  0  0  0  0  0  0  0  # atno 6908 bound_to 6896
  152.5228  133.9456  159.7702 H   0  0  0  0  0  0  0  0  0  0  0  0  # atno 6909 bound_to 6896
  145.4853  139.2277  143.2860 H   0  0  0  0  0  0  0  0  0  0  0  0  # atno 7974 bound_to 7965
  155.3016  140.0453  157.3030 H   0  0  0  0  0  0  0  0  0  0  0  0  # atno 8008 bound_to 7997
  154.5484  140.2309  155.8493 H   0  0  0  0  0  0  0  0  0  0  0  0  # atno 8009 bound_to 7997
  156.1944  140.3042  155.9405 H   0  0  0  0  0  0  0  0  0  0  0  0  # atno 8010 bound_to 7997
  139.5368  144.2474  152.0812 H   0  0  0  0  0  0  0  0  0  0  0  0  # atno 10167 bound_to 10162
  157.3482  130.7584  149.6959 H   0  0  0  0  0  0  0  0  0  0  0  0  # atno 10718 bound_to 10713
  153.1321  135.4679  154.9365 H   0  0  0  0  0  0  0  0  0  0  0  0  # atno 10763 bound_to 10752
  154.7673  135.3148  154.8263 H   0  0  0  0  0  0  0  0  0  0  0  0  # atno 10764 bound_to 10752
  153.8803  135.6895  153.4821 H   0  0  0  0  0  0  0  0  0  0  0  0  # atno 10765 bound_to 10752
  140.9284  134.1352  157.4256 H   0  0  0  0  0  0  0  0  0  0  0  0  # atno 11005 bound_to 11000
  146.2317  140.5642  142.8972 LP  0  0  0  0  0  0  0  0  0  0  0  0  # atno 17320 bound_to 7965
  144.7865  140.5947  143.6570 LP  0  0  0  0  0  0  0  0  0  0  0  0  # atno 17321 bound_to 7965
  140.1946  144.4718  150.6462 LP  0  0  0  0  0  0  0  0  0  0  0  0  # atno 17342 bound_to 10162
  140.6579  143.2243  151.5925 LP  0  0  0  0  0  0  0  0  0  0  0  0  # atno 17343 bound_to 10162
  155.9717  130.4148  150.4151 LP  0  0  0  0  0  0  0  0  0  0  0  0  # atno 17370 bound_to 10713
  157.2210  131.0482  151.2547 LP  0  0  0  0  0  0  0  0  0  0  0  0  # atno 17371 bound_to 10713
  139.8790  134.9996  156.5965 LP  0  0  0  0  0  0  0  0  0  0  0  0  # atno 17394 bound_to 11000
  140.7896  133.8593  155.8635 LP  0  0  0  0  0  0  0  0  0  0  0  0  # atno 17395 bound_to 11000

$$$$
