AV-unprocessed.smi:3245|AV-procd|sdf|12408|dock3
  -GOLD-   2272018283D 1   1.00000     0.00000
 Structure written by MMmdl.
 34 35  0  0  0  0  0  0  0  0  2 V2000
  154.6773  140.4849  160.8078 C   0  0  0  0  0  0  0  0  0  0  0  0
  153.6226  141.2631  160.0026 C   0  0  2  0  0  0  0  0  0  0  0  0
  153.0787  142.4976  160.7608 C   0  0  0  0  0  0  0  0  0  0  0  0
  152.5425  143.5155  159.8754 N   0  0  0  0  0  0  0  0  0  0  0  0
  151.9671  144.7238  160.2083 C   0  0  0  0  0  0  0  0  0  0  0  0
  151.6029  145.3349  159.0428 C   0  0  0  0  0  0  0  0  0  0  0  0
  151.9960  144.4077  158.0377 C   0  0  0  0  0  0  0  0  0  0  0  0
  152.5545  143.3180  158.5391 N   0  0  0  0  0  0  0  0  0  0  0  0
  152.5373  140.3390  159.6981 N   0  0  0  0  0  0  0  0  0  0  0  0
  152.3544  140.1528  158.2651 C   0  0  0  0  0  0  0  0  0  0  0  0
  151.1943  139.1772  157.9978 C   0  0  0  0  0  0  0  0  0  0  0  0
  151.3365  138.4881  156.7088 N   0  0  0  0  0  0  0  0  0  0  0  0
  151.3166  139.1053  155.5232 C   0  0  0  0  0  0  0  0  0  0  0  0
  151.1897  140.3095  155.2997 O   0  0  0  0  0  0  0  0  0  0  0  0
  151.4767  138.0487  154.4554 C   0  0  0  0  0  0  0  0  0  0  0  0
  151.5784  136.8357  155.2341 N   0  5  0  0  0  0  0  0  0  0  0  0
  151.4857  137.1588  156.5457 C   0  0  0  0  0  0  0  0  0  0  0  0
  151.5262  136.3793  157.4972 O   0  0  0  0  0  0  0  0  0  0  0  0
  155.5597  141.0942  161.0036 H   0  0  0  0  0  0  0  0  0  0  0  0
  155.0131  139.6006  160.2653 H   0  0  0  0  0  0  0  0  0  0  0  0
  154.2807  140.1557  161.7691 H   0  0  0  0  0  0  0  0  0  0  0  0
  154.0879  141.5820  159.0688 H   0  0  0  0  0  0  0  0  0  0  0  0
  152.2887  142.2175  161.4577 H   0  0  0  0  0  0  0  0  0  0  0  0
  153.8723  142.9497  161.3578 H   0  0  0  0  0  0  0  0  0  0  0  0
  151.8677  145.0445  161.2348 H   0  0  0  0  0  0  0  0  0  0  0  0
  151.1264  146.2968  158.9258 H   0  0  0  0  0  0  0  0  0  0  0  0
  151.8908  144.4920  156.9661 H   0  0  0  0  0  0  0  0  0  0  0  0
  152.7257  139.4419  160.1222 H   0  0  0  0  0  0  0  0  0  0  0  0
  152.1686  141.1018  157.7637 H   0  0  0  0  0  0  0  0  0  0  0  0
  153.2737  139.7432  157.8452 H   0  0  0  0  0  0  0  0  0  0  0  0
  151.1708  138.4278  158.7904 H   0  0  0  0  0  0  0  0  0  0  0  0
  150.2370  139.6965  158.0656 H   0  0  0  0  0  0  0  0  0  0  0  0
  150.6136  138.0614  153.7890 H   0  0  0  0  0  0  0  0  0  0  0  0
  152.3664  138.2548  153.8596 H   0  0  0  0  0  0  0  0  0  0  0  0
  1  2  1  0  0  0  0
  1 19  1  0  0  0  0
  1 20  1  0  0  0  0
  1 21  1  0  0  0  0
  2  3  1  0  0  0  0
  2  9  1  0  0  0  0
  2 22  1  0  0  0  0
  3  4  1  0  0  0  0
  3 23  1  0  0  0  0
  3 24  1  0  0  0  0
  4  8  1  0  0  0  0
  4  5  1  0  0  0  0
  5  6  2  0  0  0  0
  5 25  1  0  0  0  0
  6  7  1  0  0  0  0
  6 26  1  0  0  0  0
  7  8  2  0  0  0  0
  7 27  1  0  0  0  0
  9 10  1  0  0  0  0
  9 28  1  0  0  0  0
 10 11  1  0  0  0  0
 10 29  1  0  0  0  0
 10 30  1  0  0  0  0
 11 12  1  0  0  0  0
 11 31  1  0  0  0  0
 11 32  1  0  0  0  0
 12 17  1  0  0  0  0
 12 13  1  0  0  0  0
 13 14  2  0  0  0  0
 13 15  1  0  0  0  0
 15 16  1  0  0  0  0
 15 33  1  0  0  0  0
 15 34  1  0  0  0  0
 16 17  1  0  0  0  0
 17 18  2  0  0  0  0
M  CHG  1  16  -1
M  END
> <s_m_source_file>
AV-unprocessed.smi

> <i_m_source_file_index>
3245

> <i_lp_mmshare_version>
43012

> <i_f3d_flags>
0

> <s_epik_input>
bjFbY0hdW2NIXVtjSF1uMVtDSDJdW0NAQEhdKFtDSDNdKVtOSF1bQ0gyXVtDSDJdTjJDKD1PKVtDSDJdW05IXUMyPU8=

> <s_epik_cmdline>
J2VwaWtfcHl0aG9uJywgJy1waCcsICc3LjAnLCAnLXRuJywgJzgnLCAnLW1hJywgJzIwMCcsICctbWV0YWxfYmluZGluZycsICctaW1hZScsICc8aW5maWxlLm1hZT4nLCAnLW9tYWUnLCAnPG91dGZpbGUubWFlPic=

> <r_lp_tautomer_probability>
1

> <r_epik_Ionization_Penalty>
8.62027

> <r_epik_Ionization_Penalty_Charging>
6.28132

> <r_epik_Ionization_Penalty_Neutral>
2.33895

> <r_epik_State_Penalty>
8.57043

> <r_epik_Charging_Adjusted_Penalty>
14.8517

> <i_epik_Tot_Q>
-1

> <i_epik_Tot_abs_Q>
1

> <r_epik_Metal_State_Penalty>
4.56785

> <b_epik_Metal_Only>
1

> <s_lp_Force_Field>
OPLS_2005

> <r_lp_Energy>
21.0374

> <b_lp_Chiralities_Consistent>
1

> <s_lp_Variant>
AV-unprocessed.smi:3245-7

> <Gold.Version>
5.8.1

> <Gold.Id.Protein>
6NUR|6NUR_protein|mol2

> <Gold.PLP.Fitness>
49.2567

> <Gold.PLP.PLP>
-42.6022

> <Gold.PLP.part.hbond>
-2.0000

> <Gold.PLP.part.metal>
0.0000

> <Gold.PLP.part.buried>
-6.7041

> <Gold.PLP.part.nonpolar>
-34.5911

> <Gold.PLP.part.repulsive>
0.1146

> <Gold.PLP.ligand.clash>
0.0000

> <Gold.PLP.ligand.torsion>
1.1658

> <Gold.PLP.Chemscore.Hbond>
2.9600

> <Gold.PLP.Chemscore.CHOScore>
0.0000

> <Gold.PLP.Chemscore.Metal>
0.0000

> <Gold.Chemscore.Hbonds>
donor molecule, donor type, donor heavy atom, donor atom, acceptor molecule, acceptor atom, score
      P1  H  7989  7998       L1    14  1.00
      P1  H 10752 10765       L1    16  2.00

> <Gold.PLP.Chemscore.Internal.Correction>
0.1061

> <Gold.Rescore>
     Score         DG    S(hbond)    S(metal)    S(lipo)     H(rot)  DE(clash)    DE(int)     intcor
     14.32     -15.55       1.89        0.00      88.53       2.58       0.00       1.22       ----

> <Gold.Chemscore.Fitness>
14.3219

> <Gold.Chemscore.DG>
-15.5459

> <Gold.Chemscore.ZeroCoef>
-5.4800

> <Gold.Chemscore.Hbond>
1.8908

> <Gold.Chemscore.Metal>
0.0000

> <Gold.Chemscore.Lipo>
88.5303

> <Gold.Chemscore.Internal_Hbond>
0.0000

> <Gold.Chemscore.DEClash>
0.0009

> <Gold.Chemscore.DEInternal>
1.2231

> <Gold.Chemscore.Rot>
2.5811

> <Gold.Chemscore.Internal.Correction>
   9.000000E+99

> <Gold.Chemscore.Hbonds>
donor molecule, donor type, donor heavy atom, donor atom, acceptor molecule, acceptor atom, score
      P1  H  7989  7998       L1    14  0.88
      P1  H 10752 10765       L1    16  0.80

> <Gold.Chemscore.Hbond.Weighted>
-6.3154

> <Gold.Chemscore.Metal.Weighted>
-0.0000

> <Gold.Chemscore.Lipo.Weighted>
-10.3580

> <Gold.Chemscore.Internal_Hbond.Weighted>
0.0000

> <Gold.Chemscore.DEClash.Weighted>
0.0009

> <Gold.Chemscore.DEInternal.Weighted>
1.2231

> <Gold.Chemscore.Rot.Weighted>
6.6076

> <Gold.Chemscore.Internal.Correction.Weighted>
   9.000000E+99

> <Gold.Protein.RotatedTorsions>
[ 6907 6896 6895 6894 ] final  -13.78 input  -60.11 | X-H torsion
[ 7974 7965 7964 7962 ] final  -98.59 input  175.53 | X-H torsion
[ 8008 7997 7996 7995 ] final  143.87 input   59.86 | X-H torsion
[ 10167 10162 10161 10158 ] final  151.29 input  -65.29 | X-H torsion
[ 10718 10713 10712 10709 ] final  -45.35 input   66.30 | X-H torsion
[ 10763 10752 10751 10750 ] final  174.04 input  -60.55 | X-H torsion
[ 11005 11000 10999 10996 ] final  -51.54 input  -57.11 | X-H torsion

> <Gold.Protein.ActiveResidues>
 VAL166  LYS551  ARG553  GLY616  TRP617  ASP618  TYR619  PRO620  LYS621  CYS622 
 ASP623  PHE694  ASN695  SER759  ASP760  ASP761  ALA762  ILE779  LEU786  VAL792 
 PHE793  MET794  SER795  GLU796  ALA797  LYS798  CYS799  TRP800  GLU811  SER814 

> <Gold.Protein.RotatedAtoms>
  151.3497  135.0881  159.9398 H   0  0  0  0  0  0  0  0  0  0  0  0  # atno 6907 bound_to 6896
  152.5190  133.9365  159.7616 H   0  0  0  0  0  0  0  0  0  0  0  0  # atno 6908 bound_to 6896
  150.9738  133.6262  159.2763 H   0  0  0  0  0  0  0  0  0  0  0  0  # atno 6909 bound_to 6896
  145.3186  140.9416  143.2729 H   0  0  0  0  0  0  0  0  0  0  0  0  # atno 7974 bound_to 7965
  156.2921  140.2251  156.4961 H   0  0  0  0  0  0  0  0  0  0  0  0  # atno 8008 bound_to 7997
  154.7729  140.0465  157.1087 H   0  0  0  0  0  0  0  0  0  0  0  0  # atno 8009 bound_to 7997
  154.9852  140.3083  155.4933 H   0  0  0  0  0  0  0  0  0  0  0  0  # atno 8010 bound_to 7997
  139.4842  144.5453  151.7495 H   0  0  0  0  0  0  0  0  0  0  0  0  # atno 10167 bound_to 10162
  156.2292  130.4171  149.8896 H   0  0  0  0  0  0  0  0  0  0  0  0  # atno 10718 bound_to 10713
  154.4484  135.2764  155.1798 H   0  0  0  0  0  0  0  0  0  0  0  0  # atno 10763 bound_to 10752
  154.3636  135.6124  153.5707 H   0  0  0  0  0  0  0  0  0  0  0  0  # atno 10764 bound_to 10752
  152.9845  135.5840  154.4824 H   0  0  0  0  0  0  0  0  0  0  0  0  # atno 10765 bound_to 10752
  141.0876  133.6639  156.3892 H   0  0  0  0  0  0  0  0  0  0  0  0  # atno 11005 bound_to 11000
  144.8958  139.4714  143.6656 LP  0  0  0  0  0  0  0  0  0  0  0  0  # atno 17320 bound_to 7965
  146.3091  139.7683  142.9033 LP  0  0  0  0  0  0  0  0  0  0  0  0  # atno 17321 bound_to 7965
  140.4998  144.1186  150.5968 LP  0  0  0  0  0  0  0  0  0  0  0  0  # atno 17342 bound_to 10162
  140.4075  143.2673  151.9873 LP  0  0  0  0  0  0  0  0  0  0  0  0  # atno 17343 bound_to 10162
  156.6516  130.8746  151.3532 LP  0  0  0  0  0  0  0  0  0  0  0  0  # atno 17370 bound_to 10713
  157.7125  130.9457  150.1138 LP  0  0  0  0  0  0  0  0  0  0  0  0  # atno 17371 bound_to 10713
  140.5327  134.6197  157.5355 LP  0  0  0  0  0  0  0  0  0  0  0  0  # atno 17394 bound_to 11000
  139.9697  134.7314  156.0067 LP  0  0  0  0  0  0  0  0  0  0  0  0  # atno 17395 bound_to 11000

$$$$
