AV-unprocessed.smi:2884|AV-procd|sdf|11084|dock6
  -GOLD-   2272015553D 1   1.00000     0.00000
 Structure written by MMmdl.
 42 43  0  0  0  0  0  0  0  0  3 V2000
  146.8687  134.4865  161.7690 C   0  0  0  0  0  0  0  0  0  0  0  0
  147.9800  134.0517  160.8051 C   0  0  0  0  0  0  0  0  0  0  0  0
  147.7008  134.4598  159.3537 C   0  0  0  0  0  0  0  0  0  0  0  0
  148.8709  134.1975  158.5859 O   0  0  0  0  0  0  0  0  0  0  0  0
  148.7862  134.1216  157.1571 C   0  0  0  0  0  0  0  0  0  0  0  0
  148.2877  135.5398  156.7814 C   0  0  0  0  0  0  0  0  0  0  0  0
  149.2792  136.5697  157.0687 N   0  0  0  0  0  0  0  0  0  0  0  0
  150.2080  137.1706  156.2275 C   0  0  0  0  0  0  0  0  0  0  0  0
  150.3268  136.8340  154.8498 C   0  0  0  0  0  0  0  0  0  0  0  0
  151.2350  137.4391  154.0909 N   0  3  0  0  0  0  0  0  0  0  0  0
  152.0596  138.3605  154.5365 N   0  5  0  0  0  0  0  0  0  0  0  0
  152.0450  138.7741  155.8386 C   0  0  0  0  0  0  0  0  0  0  0  0
  152.8046  139.6335  156.2813 O   0  0  0  0  0  0  0  0  0  0  0  0
  151.0513  138.1262  156.7145 C   0  0  0  0  0  0  0  0  0  0  0  0
  150.9873  138.6002  158.3803 Cl  0  0  0  0  0  0  0  0  0  0  0  0
  150.1539  133.7908  156.4955 C   0  0  0  0  0  0  0  0  0  0  0  0
  150.0484  133.6538  154.9661 C   0  0  0  0  0  0  0  0  0  0  0  0
  149.0007  132.5994  154.5758 C   0  0  0  0  0  0  0  0  0  0  0  0
  147.6320  132.9038  155.2053 C   0  0  0  0  0  0  0  0  0  0  0  0
  147.7384  133.0584  156.7343 C   0  0  0  0  0  0  0  0  0  0  0  0
  151.2635  137.1438  153.1025 H   0  0  0  0  0  0  0  0  0  0  0  0
  147.1084  134.1995  162.7929 H   0  0  0  0  0  0  0  0  0  0  0  0
  145.9159  134.0238  161.5094 H   0  0  0  0  0  0  0  0  0  0  0  0
  146.7318  135.5679  161.7499 H   0  0  0  0  0  0  0  0  0  0  0  0
  148.9215  134.4977  161.1266 H   0  0  0  0  0  0  0  0  0  0  0  0
  148.1162  132.9714  160.8635 H   0  0  0  0  0  0  0  0  0  0  0  0
  146.8405  133.9007  158.9894 H   0  0  0  0  0  0  0  0  0  0  0  0
  147.4469  135.5186  159.3262 H   0  0  0  0  0  0  0  0  0  0  0  0
  147.9783  135.5829  155.7400 H   0  0  0  0  0  0  0  0  0  0  0  0
  147.3964  135.7765  157.3632 H   0  0  0  0  0  0  0  0  0  0  0  0
  149.3913  136.7595  158.0550 H   0  0  0  0  0  0  0  0  0  0  0  0
  149.7026  136.0942  154.3666 H   0  0  0  0  0  0  0  0  0  0  0  0
  150.9034  134.5390  156.7544 H   0  0  0  0  0  0  0  0  0  0  0  0
  150.5364  132.8424  156.8699 H   0  0  0  0  0  0  0  0  0  0  0  0
  149.7928  134.6123  154.5163 H   0  0  0  0  0  0  0  0  0  0  0  0
  151.0194  133.3766  154.5549 H   0  0  0  0  0  0  0  0  0  0  0  0
  148.9088  132.5495  153.4905 H   0  0  0  0  0  0  0  0  0  0  0  0
  149.3385  131.6148  154.9018 H   0  0  0  0  0  0  0  0  0  0  0  0
  147.2137  133.8069  154.7610 H   0  0  0  0  0  0  0  0  0  0  0  0
  146.9332  132.1015  154.9665 H   0  0  0  0  0  0  0  0  0  0  0  0
  148.0047  132.0828  157.1387 H   0  0  0  0  0  0  0  0  0  0  0  0
  146.7615  133.3038  157.1523 H   0  0  0  0  0  0  0  0  0  0  0  0
  1  2  1  0  0  0  0
  1 22  1  0  0  0  0
  1 23  1  0  0  0  0
  1 24  1  0  0  0  0
  2  3  1  0  0  0  0
  2 25  1  0  0  0  0
  2 26  1  0  0  0  0
  3  4  1  0  0  0  0
  3 27  1  0  0  0  0
  3 28  1  0  0  0  0
  4  5  1  0  0  0  0
  5 20  1  0  0  0  0
  5  6  1  0  0  0  0
  5 16  1  0  0  0  0
  6 29  1  0  0  0  0
  6 30  1  0  0  0  0
  6  7  1  0  0  0  0
  7  8  1  0  0  0  0
  7 31  1  0  0  0  0
  8 14  2  0  0  0  0
  8  9  1  0  0  0  0
  9 32  1  0  0  0  0
  9 10  2  0  0  0  0
 10 11  1  0  0  0  0
 10 21  1  0  0  0  0
 11 12  1  0  0  0  0
 12 13  2  0  0  0  0
 12 14  1  0  0  0  0
 14 15  1  0  0  0  0
 16 17  1  0  0  0  0
 16 33  1  0  0  0  0
 16 34  1  0  0  0  0
 17 18  1  0  0  0  0
 17 35  1  0  0  0  0
 17 36  1  0  0  0  0
 18 19  1  0  0  0  0
 18 37  1  0  0  0  0
 18 38  1  0  0  0  0
 19 20  1  0  0  0  0
 19 39  1  0  0  0  0
 19 40  1  0  0  0  0
 20 41  1  0  0  0  0
 20 42  1  0  0  0  0
M  CHG  1  10   1
M  CHG  1  11  -1
M  END
> <s_m_source_file>
AV-unprocessed.smi

> <i_m_source_file_index>
2884

> <i_lp_mmshare_version>
43012

> <i_f3d_flags>
0

> <s_epik_input>
W0NIMl0xW0NIMl1bQ0gyXVtDSDJdW0NIMl1DMShPW0NIMl1bQ0gyXVtDSDNdKVtDSDJdW05IXWMyW2NIXW5bbkhdYyg9TyljMkNs

> <s_epik_cmdline>
J2VwaWtfcHl0aG9uJywgJy1waCcsICc3LjAnLCAnLXRuJywgJzgnLCAnLW1hJywgJzIwMCcsICctbWV0YWxfYmluZGluZycsICctaW1hZScsICc8aW5maWxlLm1hZT4nLCAnLW9tYWUnLCAnPG91dGZpbGUubWFlPic=

> <r_lp_tautomer_probability>
0.0138196

> <r_epik_Ionization_Penalty>
2.73941

> <r_epik_Ionization_Penalty_Charging>
2.73941

> <r_epik_Ionization_Penalty_Neutral>
1.09968e-06

> <r_epik_State_Penalty>
2.7044

> <r_epik_Charging_Adjusted_Penalty>
5.44381

> <i_epik_Tot_Q>
0

> <i_epik_Tot_abs_Q>
2

> <r_epik_Metal_State_Penalty>
2.9982

> <b_epik_Metal_Only>
0

> <s_lp_Force_Field>
OPLS_2005

> <r_lp_Energy>
38.2513

> <b_lp_Chiralities_Consistent>
1

> <s_lp_Variant>
AV-unprocessed.smi:2884-2

> <Gold.Version>
5.8.1

> <Gold.Id.Protein>
6NUR|6NUR_protein|mol2

> <Gold.PLP.Fitness>
33.3788

> <Gold.PLP.PLP>
-21.9427

> <Gold.PLP.part.hbond>
-3.0156

> <Gold.PLP.part.metal>
0.0000

> <Gold.PLP.part.buried>
-4.5815

> <Gold.PLP.part.nonpolar>
-14.3059

> <Gold.PLP.part.repulsive>
0.2557

> <Gold.PLP.ligand.clash>
0.0000

> <Gold.PLP.ligand.torsion>
0.2901

> <Gold.PLP.Chemscore.Hbond>
4.0000

> <Gold.PLP.Chemscore.CHOScore>
0.0000

> <Gold.PLP.Chemscore.Metal>
0.0000

> <Gold.Chemscore.Hbonds>
donor molecule, donor type, donor heavy atom, donor atom, acceptor molecule, acceptor atom, score
      L1  H    10    21       P1  7949  2.00
      P1  H  6896  6907       L1     4  1.00
      P1  H  7997  8010       L1    13  1.00

> <Gold.PLP.Chemscore.Internal.Correction>
0.0163

> <Gold.Rescore>
     Score         DG    S(hbond)    S(metal)    S(lipo)     H(rot)  DE(clash)    DE(int)     intcor
     16.87     -17.19       2.87        0.00      56.84       1.77       0.02       0.30       ----

> <Gold.Chemscore.Fitness>
16.8675

> <Gold.Chemscore.DG>
-17.1868

> <Gold.Chemscore.ZeroCoef>
-5.4800

> <Gold.Chemscore.Hbond>
2.8678

> <Gold.Chemscore.Metal>
0.0000

> <Gold.Chemscore.Lipo>
56.8368

> <Gold.Chemscore.Internal_Hbond>
0.0000

> <Gold.Chemscore.DEClash>
0.0234

> <Gold.Chemscore.DEInternal>
0.2958

> <Gold.Chemscore.Rot>
1.7663

> <Gold.Chemscore.Internal.Correction>
   9.000000E+99

> <Gold.Chemscore.Hbonds>
donor molecule, donor type, donor heavy atom, donor atom, acceptor molecule, acceptor atom, score
      L1  H    10    21       P1  7949  0.63
      P1  H  6896  6907       L1     4  0.93
      P1  H  7997  8010       L1    13  0.99

> <Gold.Chemscore.Hbond.Weighted>
-9.5785

> <Gold.Chemscore.Metal.Weighted>
-0.0000

> <Gold.Chemscore.Lipo.Weighted>
-6.6499

> <Gold.Chemscore.Internal_Hbond.Weighted>
0.0000

> <Gold.Chemscore.DEClash.Weighted>
0.0234

> <Gold.Chemscore.DEInternal.Weighted>
0.2958

> <Gold.Chemscore.Rot.Weighted>
4.5216

> <Gold.Chemscore.Internal.Correction.Weighted>
   9.000000E+99

> <Gold.Protein.RotatedTorsions>
[ 6907 6896 6895 6894 ] final  -92.79 input  -60.11 | X-H torsion
[ 7974 7965 7964 7962 ] final   -1.71 input  175.53 | X-H torsion
[ 8008 7997 7996 7995 ] final   80.19 input   59.86 | X-H torsion
[ 10167 10162 10161 10158 ] final  -26.58 input  -65.29 | X-H torsion
[ 10718 10713 10712 10709 ] final    1.50 input   66.30 | X-H torsion
[ 10763 10752 10751 10750 ] final  163.63 input  -60.55 | X-H torsion
[ 11005 11000 10999 10996 ] final   81.10 input  -57.11 | X-H torsion

> <Gold.Protein.ActiveResidues>
 VAL166  LYS551  ARG553  GLY616  TRP617  ASP618  TYR619  PRO620  LYS621  CYS622 
 ASP623  PHE694  ASN695  SER759  ASP760  ASP761  ALA762  ILE779  LEU786  VAL792 
 PHE793  MET794  SER795  GLU796  ALA797  LYS798  CYS799  TRP800  GLU811  SER814 

> <Gold.Protein.RotatedAtoms>
  150.6912  134.2068  159.4343 H   0  0  0  0  0  0  0  0  0  0  0  0  # atno 6907 bound_to 6896
  152.0031  134.9915  160.0575 H   0  0  0  0  0  0  0  0  0  0  0  0  # atno 6908 bound_to 6896
  152.1559  133.4516  159.4874 H   0  0  0  0  0  0  0  0  0  0  0  0  # atno 6909 bound_to 6896
  146.2414  140.1461  142.8334 H   0  0  0  0  0  0  0  0  0  0  0  0  # atno 7974 bound_to 7965
  155.8800  140.3444  155.5881 H   0  0  0  0  0  0  0  0  0  0  0  0  # atno 8008 bound_to 7997
  155.7730  140.0848  157.2117 H   0  0  0  0  0  0  0  0  0  0  0  0  # atno 8009 bound_to 7997
  154.4024  140.1515  156.2951 H   0  0  0  0  0  0  0  0  0  0  0  0  # atno 8010 bound_to 7997
  140.7282  143.4166  151.1019 H   0  0  0  0  0  0  0  0  0  0  0  0  # atno 10167 bound_to 10162
  156.8491  130.5547  149.5671 H   0  0  0  0  0  0  0  0  0  0  0  0  # atno 10718 bound_to 10713
  154.2966  135.2760  155.2630 H   0  0  0  0  0  0  0  0  0  0  0  0  # atno 10763 bound_to 10752
  154.5085  135.5789  153.6590 H   0  0  0  0  0  0  0  0  0  0  0  0  # atno 10764 bound_to 10752
  152.9906  135.6175  154.3134 H   0  0  0  0  0  0  0  0  0  0  0  0  # atno 10765 bound_to 10752
  139.9110  134.7971  156.1996 H   0  0  0  0  0  0  0  0  0  0  0  0  # atno 11005 bound_to 11000
  145.0206  140.8790  143.5169 LP  0  0  0  0  0  0  0  0  0  0  0  0  # atno 17320 bound_to 7965
  145.1509  139.2515  143.5441 LP  0  0  0  0  0  0  0  0  0  0  0  0  # atno 17321 bound_to 7965
  139.7806  143.8361  152.3137 LP  0  0  0  0  0  0  0  0  0  0  0  0  # atno 17342 bound_to 10162
  139.8311  144.7253  150.9450 LP  0  0  0  0  0  0  0  0  0  0  0  0  # atno 17343 bound_to 10162
  156.0838  130.5842  150.9611 LP  0  0  0  0  0  0  0  0  0  0  0  0  # atno 17370 bound_to 10713
  157.6313  131.0921  150.8435 LP  0  0  0  0  0  0  0  0  0  0  0  0  # atno 17371 bound_to 10713
  141.0533  133.6878  156.1812 LP  0  0  0  0  0  0  0  0  0  0  0  0  # atno 17394 bound_to 11000
  140.6777  134.4801  157.5588 LP  0  0  0  0  0  0  0  0  0  0  0  0  # atno 17395 bound_to 11000

$$$$
