AV-unprocessed.smi:1458|AV-procd|sdf|5922|dock1
  -GOLD-   22720 6 03D 1   1.00000     0.00000
 Structure written by MMmdl.
 46 47  0  0  0  0  0  0  0  0  1 V2000
  146.6967  133.0568  151.4369 C   0  0  0  0  0  0  0  0  0  0  0  0
  147.3858  133.5104  152.5886 O   0  0  0  0  0  0  0  0  0  0  0  0
  148.6214  132.8415  152.7831 C   0  0  0  0  0  0  0  0  0  0  0  0
  149.2792  133.3600  154.0669 C   0  0  0  0  0  0  0  0  0  0  0  0
  149.4714  134.8024  153.9998 N   0  0  0  0  0  0  0  0  0  0  0  0
  149.9343  135.5529  155.0072 C   0  0  0  0  0  0  0  0  0  0  0  0
  150.2596  135.0912  156.1007 O   0  0  0  0  0  0  0  0  0  0  0  0
  149.9739  136.8519  154.6644 N   0  0  0  0  0  0  0  0  0  0  0  0
  150.3654  137.9674  155.4533 C   0  0  0  0  0  0  0  0  0  0  0  0
  150.3036  139.2449  154.8647 C   0  0  0  0  0  0  0  0  0  0  0  0
  150.6914  140.3699  155.6159 C   0  0  0  0  0  0  0  0  0  0  0  0
  151.1399  140.1907  156.9454 C   0  0  0  0  0  0  0  0  0  0  0  0
  151.5214  141.3062  157.7221 N   0  0  0  0  0  0  0  0  0  0  0  0
  150.5243  142.3677  157.8330 C   0  0  0  0  0  0  0  0  0  0  0  0
  151.1463  143.6551  158.4085 C   0  0  2  0  0  0  0  0  0  0  0  0
  152.0162  144.4209  157.3958 C   0  0  0  0  0  0  0  0  0  0  0  0
  151.8507  143.3670  159.6182 O   0  0  0  0  0  0  0  0  0  0  0  0
  152.8620  142.3676  159.4967 C   0  0  1  0  0  0  0  0  0  0  0  0
  153.5073  142.1782  160.8734 C   0  0  0  0  0  0  0  0  0  0  0  0
  152.2389  141.0622  158.9704 C   0  0  0  0  0  0  0  0  0  0  0  0
  151.2224  138.9581  157.5036 N   0  0  0  0  0  0  0  0  0  0  0  0
  150.8485  137.8812  156.7804 C   0  0  0  0  0  0  0  0  0  0  0  0
  145.7588  133.6023  151.3333 H   0  0  0  0  0  0  0  0  0  0  0  0
  146.4614  131.9944  151.5110 H   0  0  0  0  0  0  0  0  0  0  0  0
  147.2851  133.2238  150.5339 H   0  0  0  0  0  0  0  0  0  0  0  0
  148.4476  131.7678  152.8697 H   0  0  0  0  0  0  0  0  0  0  0  0
  149.2809  132.9976  151.9277 H   0  0  0  0  0  0  0  0  0  0  0  0
  148.6663  133.1001  154.9315 H   0  0  0  0  0  0  0  0  0  0  0  0
  150.2496  132.8812  154.2047 H   0  0  0  0  0  0  0  0  0  0  0  0
  149.2176  135.2581  153.1355 H   0  0  0  0  0  0  0  0  0  0  0  0
  149.6145  137.0769  153.7485 H   0  0  0  0  0  0  0  0  0  0  0  0
  149.9592  139.3669  153.8480 H   0  0  0  0  0  0  0  0  0  0  0  0
  150.6516  141.3488  155.1624 H   0  0  0  0  0  0  0  0  0  0  0  0
  150.0534  142.5919  156.8770 H   0  0  0  0  0  0  0  0  0  0  0  0
  149.7308  142.0190  158.4952 H   0  0  0  0  0  0  0  0  0  0  0  0
  150.3289  144.3211  158.6861 H   0  0  0  0  0  0  0  0  0  0  0  0
  151.4195  144.7448  156.5429 H   0  0  0  0  0  0  0  0  0  0  0  0
  152.8312  143.8120  157.0053 H   0  0  0  0  0  0  0  0  0  0  0  0
  152.4504  145.3111  157.8510 H   0  0  0  0  0  0  0  0  0  0  0  0
  153.6341  142.7081  158.8066 H   0  0  0  0  0  0  0  0  0  0  0  0
  154.2965  141.4270  160.8372 H   0  0  0  0  0  0  0  0  0  0  0  0
  152.7726  141.8571  161.6125 H   0  0  0  0  0  0  0  0  0  0  0  0
  153.9503  143.1094  161.2275 H   0  0  0  0  0  0  0  0  0  0  0  0
  151.5465  140.6504  159.7064 H   0  0  0  0  0  0  0  0  0  0  0  0
  153.0273  140.3245  158.8153 H   0  0  0  0  0  0  0  0  0  0  0  0
  150.9641  136.9378  157.2899 H   0  0  0  0  0  0  0  0  0  0  0  0
  1  2  1  0  0  0  0
  1 23  1  0  0  0  0
  1 24  1  0  0  0  0
  1 25  1  0  0  0  0
  2  3  1  0  0  0  0
  3  4  1  0  0  0  0
  3 26  1  0  0  0  0
  3 27  1  0  0  0  0
  4  5  1  0  0  0  0
  4 28  1  0  0  0  0
  4 29  1  0  0  0  0
  5  6  1  0  0  0  0
  5 30  1  0  0  0  0
  6  7  2  0  0  0  0
  6  8  1  0  0  0  0
  8  9  1  0  0  0  0
  8 31  1  0  0  0  0
  9 22  1  0  0  0  0
  9 10  2  0  0  0  0
 10 11  1  0  0  0  0
 10 32  1  0  0  0  0
 11 12  2  0  0  0  0
 11 33  1  0  0  0  0
 12 13  1  0  0  0  0
 12 21  1  0  0  0  0
 13 20  1  0  0  0  0
 13 14  1  0  0  0  0
 14 15  1  0  0  0  0
 14 34  1  0  0  0  0
 14 35  1  0  0  0  0
 15 16  1  0  0  0  0
 15 17  1  0  0  0  0
 15 36  1  0  0  0  0
 16 37  1  0  0  0  0
 16 38  1  0  0  0  0
 16 39  1  0  0  0  0
 17 18  1  0  0  0  0
 18 19  1  0  0  0  0
 18 20  1  0  0  0  0
 18 40  1  0  0  0  0
 19 41  1  0  0  0  0
 19 42  1  0  0  0  0
 19 43  1  0  0  0  0
 20 44  1  0  0  0  0
 20 45  1  0  0  0  0
 21 22  2  0  0  0  0
 22 46  1  0  0  0  0
M  END
> <s_m_source_file>
AV-unprocessed.smi

> <i_m_source_file_index>
1458

> <i_lp_mmshare_version>
43012

> <i_f3d_flags>
0

> <s_epik_input>
W0NIM11PW0NIMl1bQ0gyXVtOSF1DKD1PKVtOSF1jMVtjSF1bY0hdYyhuW2NIXTEpTjJbQ0gyXVtDQEBIXShbQ0gzXSlPW0NAQEhdKFtDSDNdKVtDSDJdMg==

> <s_epik_cmdline>
J2VwaWtfcHl0aG9uJywgJy1waCcsICc3LjAnLCAnLXRuJywgJzgnLCAnLW1hJywgJzIwMCcsICctbWV0YWxfYmluZGluZycsICctaW1hZScsICc8aW5maWxlLm1hZT4nLCAnLW9tYWUnLCAnPG91dGZpbGUubWFlPic=

> <r_lp_tautomer_probability>
1

> <r_epik_Ionization_Penalty>
0.00266072

> <r_epik_Ionization_Penalty_Charging>
0

> <r_epik_Ionization_Penalty_Neutral>
0.00266072

> <r_epik_State_Penalty>
0.00182795

> <r_epik_Charging_Adjusted_Penalty>
0.00182795

> <i_epik_Tot_Q>
0

> <i_epik_Tot_abs_Q>
0

> <r_epik_Metal_State_Penalty>
-0

> <b_epik_Metal_Only>
0

> <s_lp_Force_Field>
OPLS_2005

> <r_lp_Energy>
22.687

> <b_lp_Chiralities_Consistent>
1

> <s_lp_Variant>
AV-unprocessed.smi:1458-2

> <Gold.Version>
5.8.1

> <Gold.Id.Protein>
6NUR|6NUR_protein|mol2

> <Gold.PLP.Fitness>
43.7853

> <Gold.PLP.PLP>
-38.9252

> <Gold.PLP.part.hbond>
-2.0000

> <Gold.PLP.part.metal>
0.0000

> <Gold.PLP.part.buried>
-5.5132

> <Gold.PLP.part.nonpolar>
-31.8181

> <Gold.PLP.part.repulsive>
0.2544

> <Gold.PLP.ligand.clash>
0.0000

> <Gold.PLP.ligand.torsion>
0.1902

> <Gold.PLP.Chemscore.Hbond>
1.6292

> <Gold.PLP.Chemscore.CHOScore>
0.0000

> <Gold.PLP.Chemscore.Metal>
0.0000

> <Gold.Chemscore.Hbonds>
donor molecule, donor type, donor heavy atom, donor atom, acceptor molecule, acceptor atom, score
      L1  H     5    30       P1  7948  0.80
      L1  H     8    31       P1  7948  0.64

> <Gold.PLP.Chemscore.Internal.Correction>
0.3530

> <Gold.Rescore>
     Score         DG    S(hbond)    S(metal)    S(lipo)     H(rot)  DE(clash)    DE(int)     intcor
     15.69     -18.55       1.70        0.00      98.77       1.62       1.42       1.43       ----

> <Gold.Chemscore.Fitness>
15.6940

> <Gold.Chemscore.DG>
-18.5491

> <Gold.Chemscore.ZeroCoef>
-5.4800

> <Gold.Chemscore.Hbond>
1.6951

> <Gold.Chemscore.Metal>
0.0000

> <Gold.Chemscore.Lipo>
98.7692

> <Gold.Chemscore.Internal_Hbond>
0.0000

> <Gold.Chemscore.DEClash>
1.4243

> <Gold.Chemscore.DEInternal>
1.4308

> <Gold.Chemscore.Rot>
1.6206

> <Gold.Chemscore.Internal.Correction>
   9.000000E+99

> <Gold.Chemscore.Hbonds>
donor molecule, donor type, donor heavy atom, donor atom, acceptor molecule, acceptor atom, score
      L1  H     5    30       P1  7948  0.12
      L1  H     8    31       P1  7948  0.52

> <Gold.Chemscore.Hbond.Weighted>
-5.6618

> <Gold.Chemscore.Metal.Weighted>
-0.0000

> <Gold.Chemscore.Lipo.Weighted>
-11.5560

> <Gold.Chemscore.Internal_Hbond.Weighted>
0.0000

> <Gold.Chemscore.DEClash.Weighted>
1.4243

> <Gold.Chemscore.DEInternal.Weighted>
1.4308

> <Gold.Chemscore.Rot.Weighted>
4.1486

> <Gold.Chemscore.Internal.Correction.Weighted>
   9.000000E+99

> <Gold.Protein.RotatedTorsions>
[ 6907 6896 6895 6894 ] final   -1.52 input  -60.11 | X-H torsion
[ 7974 7965 7964 7962 ] final  -74.93 input  175.53 | X-H torsion
[ 8008 7997 7996 7995 ] final  -21.88 input   59.86 | X-H torsion
[ 10167 10162 10161 10158 ] final    3.77 input  -65.29 | X-H torsion
[ 10718 10713 10712 10709 ] final -142.04 input   66.30 | X-H torsion
[ 10763 10752 10751 10750 ] final  122.24 input  -60.55 | X-H torsion
[ 11005 11000 10999 10996 ] final -164.05 input  -57.11 | X-H torsion

> <Gold.Protein.ActiveResidues>
 VAL166  LYS551  ARG553  GLY616  TRP617  ASP618  TYR619  PRO620  LYS621  CYS622 
 ASP623  PHE694  ASN695  SER759  ASP760  ASP761  ALA762  ILE779  LEU786  VAL792 
 PHE793  MET794  SER795  GLU796  ALA797  LYS798  CYS799  TRP800  GLU811  SER814 

> <Gold.Protein.RotatedAtoms>
  151.5447  135.1068  159.9934 H   0  0  0  0  0  0  0  0  0  0  0  0  # atno 6907 bound_to 6896
  152.4519  133.7642  159.6774 H   0  0  0  0  0  0  0  0  0  0  0  0  # atno 6908 bound_to 6896
  150.8450  133.7809  159.3071 H   0  0  0  0  0  0  0  0  0  0  0  0  # atno 6909 bound_to 6896
  145.6326  140.9333  143.1078 H   0  0  0  0  0  0  0  0  0  0  0  0  # atno 7974 bound_to 7965
  154.4678  140.2023  156.0072 H   0  0  0  0  0  0  0  0  0  0  0  0  # atno 8008 bound_to 7997
  156.0958  140.3251  155.7847 H   0  0  0  0  0  0  0  0  0  0  0  0  # atno 8009 bound_to 7997
  155.4880  140.0544  157.2948 H   0  0  0  0  0  0  0  0  0  0  0  0  # atno 8010 bound_to 7997
  140.6569  143.7405  150.7669 H   0  0  0  0  0  0  0  0  0  0  0  0  # atno 10167 bound_to 10162
  156.3412  130.7638  151.1775 H   0  0  0  0  0  0  0  0  0  0  0  0  # atno 10718 bound_to 10713
  153.6266  135.3403  155.3028 H   0  0  0  0  0  0  0  0  0  0  0  0  # atno 10763 bound_to 10752
  154.8589  135.4286  154.2150 H   0  0  0  0  0  0  0  0  0  0  0  0  # atno 10764 bound_to 10752
  153.3036  135.7026  153.7254 H   0  0  0  0  0  0  0  0  0  0  0  0  # atno 10765 bound_to 10752
  140.5912  134.5042  157.5193 H   0  0  0  0  0  0  0  0  0  0  0  0  # atno 11005 bound_to 11000
  144.7188  139.8103  143.7389 LP  0  0  0  0  0  0  0  0  0  0  0  0  # atno 17320 bound_to 7965
  146.1344  139.4387  143.0148 LP  0  0  0  0  0  0  0  0  0  0  0  0  # atno 17321 bound_to 7965
  140.1066  143.4738  152.2394 LP  0  0  0  0  0  0  0  0  0  0  0  0  # atno 17342 bound_to 10162
  139.5793  144.7503  151.3681 LP  0  0  0  0  0  0  0  0  0  0  0  0  # atno 17343 bound_to 10162
  157.7447  131.0454  150.4841 LP  0  0  0  0  0  0  0  0  0  0  0  0  # atno 17370 bound_to 10713
  156.5021  130.4119  149.6347 LP  0  0  0  0  0  0  0  0  0  0  0  0  # atno 17371 bound_to 10713
  139.9273  134.8031  156.1031 LP  0  0  0  0  0  0  0  0  0  0  0  0  # atno 17394 bound_to 11000
  141.0933  133.6705  156.2589 LP  0  0  0  0  0  0  0  0  0  0  0  0  # atno 17395 bound_to 11000

$$$$
