AV-unprocessed.smi:2123|AV-procd|sdf|8649|dock9
  -GOLD-   2272011393D 1   1.00000     0.00000
 Structure written by MMmdl.
 47 48  0  0  0  0  0  0  0  0  1 V2000
  150.8733  145.2180  159.3797 C   0  0  0  0  0  0  0  0  0  0  0  0
  151.9350  144.7836  160.7817 S   0  0  0  0  0  0  0  0  0  0  0  0
  152.1906  143.0246  160.4264 C   0  0  0  0  0  0  0  0  0  0  0  0
  151.9108  142.7024  158.9487 C   0  0  0  0  0  0  0  0  0  0  0  0
  152.1456  141.2320  158.5873 C   0  0  0  0  0  0  0  0  0  0  0  0
  152.7327  140.4759  159.3620 O   0  0  0  0  0  0  0  0  0  0  0  0
  151.6754  140.8405  157.3929 N   0  0  0  0  0  0  0  0  0  0  0  0
  151.7868  139.4942  156.8424 C   0  0  0  0  0  0  0  0  0  0  0  0
  150.8967  138.4932  157.5567 C   0  0  0  0  0  0  0  0  0  0  0  0
  149.4993  138.6639  157.5947 C   0  0  0  0  0  0  0  0  0  0  0  0
  148.7139  137.7107  158.2709 C   0  0  0  0  0  0  0  0  0  0  0  0
  149.3472  136.6053  158.8884 C   0  0  0  0  0  0  0  0  0  0  0  0
  148.5815  135.6403  159.5785 N   0  0  0  0  0  0  0  0  0  0  0  0
  147.6351  134.8332  158.8112 C   0  0  0  0  0  0  0  0  0  0  0  0
  147.1457  133.6240  159.6317 C   0  0  1  0  0  0  0  0  0  0  0  0
  148.1891  132.4979  159.7457 C   0  0  0  0  0  0  0  0  0  0  0  0
  146.6723  134.0535  160.9100 O   0  0  0  0  0  0  0  0  0  0  0  0
  147.6188  134.7940  161.6796 C   0  0  2  0  0  0  0  0  0  0  0  0
  146.9558  135.1734  163.0079 C   0  0  0  0  0  0  0  0  0  0  0  0
  148.0722  136.0342  160.8881 C   0  0  0  0  0  0  0  0  0  0  0  0
  150.6939  136.4480  158.8492 N   0  0  0  0  0  0  0  0  0  0  0  0
  151.4424  137.3652  158.2015 C   0  0  0  0  0  0  0  0  0  0  0  0
  150.6037  146.2732  159.4244 H   0  0  0  0  0  0  0  0  0  0  0  0
  149.9585  144.6256  159.3966 H   0  0  0  0  0  0  0  0  0  0  0  0
  151.3909  145.0320  158.4385 H   0  0  0  0  0  0  0  0  0  0  0  0
  153.2180  142.7659  160.6864 H   0  0  0  0  0  0  0  0  0  0  0  0
  151.5356  142.4414  161.0748 H   0  0  0  0  0  0  0  0  0  0  0  0
  150.8775  142.9580  158.7103 H   0  0  0  0  0  0  0  0  0  0  0  0
  152.5434  143.3200  158.3101 H   0  0  0  0  0  0  0  0  0  0  0  0
  151.2045  141.5278  156.8224 H   0  0  0  0  0  0  0  0  0  0  0  0
  151.5555  139.4913  155.7757 H   0  0  0  0  0  0  0  0  0  0  0  0
  152.8265  139.1766  156.9264 H   0  0  0  0  0  0  0  0  0  0  0  0
  149.0330  139.5141  157.1193 H   0  0  0  0  0  0  0  0  0  0  0  0
  147.6442  137.8477  158.3221 H   0  0  0  0  0  0  0  0  0  0  0  0
  146.7849  135.4596  158.5379 H   0  0  0  0  0  0  0  0  0  0  0  0
  148.0888  134.4836  157.8828 H   0  0  0  0  0  0  0  0  0  0  0  0
  146.2835  133.2015  159.1151 H   0  0  0  0  0  0  0  0  0  0  0  0
  148.4321  132.0967  158.7616 H   0  0  0  0  0  0  0  0  0  0  0  0
  147.8085  131.6756  160.3518 H   0  0  0  0  0  0  0  0  0  0  0  0
  149.1219  132.8406  160.1927 H   0  0  0  0  0  0  0  0  0  0  0  0
  148.4824  134.1670  161.9027 H   0  0  0  0  0  0  0  0  0  0  0  0
  147.6426  135.7317  163.6445 H   0  0  0  0  0  0  0  0  0  0  0  0
  146.6450  134.2834  163.5557 H   0  0  0  0  0  0  0  0  0  0  0  0
  146.0719  135.7907  162.8453 H   0  0  0  0  0  0  0  0  0  0  0  0
  148.8185  136.5736  161.4691 H   0  0  0  0  0  0  0  0  0  0  0  0
  147.2326  136.7155  160.7439 H   0  0  0  0  0  0  0  0  0  0  0  0
  152.5084  137.1927  158.2020 H   0  0  0  0  0  0  0  0  0  0  0  0
  1  2  1  0  0  0  0
  1 23  1  0  0  0  0
  1 24  1  0  0  0  0
  1 25  1  0  0  0  0
  2  3  1  0  0  0  0
  3  4  1  0  0  0  0
  3 26  1  0  0  0  0
  3 27  1  0  0  0  0
  4  5  1  0  0  0  0
  4 28  1  0  0  0  0
  4 29  1  0  0  0  0
  5  6  2  0  0  0  0
  5  7  1  0  0  0  0
  7  8  1  0  0  0  0
  7 30  1  0  0  0  0
  8  9  1  0  0  0  0
  8 31  1  0  0  0  0
  8 32  1  0  0  0  0
  9 22  1  0  0  0  0
  9 10  2  0  0  0  0
 10 11  1  0  0  0  0
 10 33  1  0  0  0  0
 11 12  2  0  0  0  0
 11 34  1  0  0  0  0
 12 13  1  0  0  0  0
 12 21  1  0  0  0  0
 13 20  1  0  0  0  0
 13 14  1  0  0  0  0
 14 15  1  0  0  0  0
 14 35  1  0  0  0  0
 14 36  1  0  0  0  0
 15 16  1  0  0  0  0
 15 17  1  0  0  0  0
 15 37  1  0  0  0  0
 16 38  1  0  0  0  0
 16 39  1  0  0  0  0
 16 40  1  0  0  0  0
 17 18  1  0  0  0  0
 18 19  1  0  0  0  0
 18 20  1  0  0  0  0
 18 41  1  0  0  0  0
 19 42  1  0  0  0  0
 19 43  1  0  0  0  0
 19 44  1  0  0  0  0
 20 45  1  0  0  0  0
 20 46  1  0  0  0  0
 21 22  2  0  0  0  0
 22 47  1  0  0  0  0
M  END
> <s_m_source_file>
AV-unprocessed.smi

> <i_m_source_file_index>
2123

> <i_lp_mmshare_version>
43012

> <i_f3d_flags>
0

> <s_epik_input>
W0NIM11TW0NIMl1bQ0gyXUMoPU8pW05IXVtDSDJdYzFbY0hdW2NIXWMobltjSF0xKU4yW0NIMl1bQ0BASF0oW0NIM10pT1tDQEBIXShbQ0gzXSlbQ0gyXTI=

> <s_epik_cmdline>
J2VwaWtfcHl0aG9uJywgJy1waCcsICc3LjAnLCAnLXRuJywgJzgnLCAnLW1hJywgJzIwMCcsICctbWV0YWxfYmluZGluZycsICctaW1hZScsICc8aW5maWxlLm1hZT4nLCAnLW9tYWUnLCAnPG91dGZpbGUubWFlPic=

> <r_lp_tautomer_probability>
1

> <r_epik_Ionization_Penalty>
0.00642497

> <r_epik_Ionization_Penalty_Charging>
0

> <r_epik_Ionization_Penalty_Neutral>
0.00642497

> <r_epik_State_Penalty>
0.0047515

> <r_epik_Charging_Adjusted_Penalty>
0.0047515

> <i_epik_Tot_Q>
0

> <i_epik_Tot_abs_Q>
0

> <r_epik_Metal_State_Penalty>
-0

> <b_epik_Metal_Only>
0

> <s_lp_Force_Field>
OPLS_2005

> <r_lp_Energy>
17.9077

> <b_lp_Chiralities_Consistent>
1

> <s_lp_Variant>
AV-unprocessed.smi:2123-3

> <Gold.Version>
5.8.1

> <Gold.Id.Protein>
6NUR|6NUR_protein|mol2

> <Gold.PLP.Fitness>
38.5558

> <Gold.PLP.PLP>
-36.4654

> <Gold.PLP.part.hbond>
-1.3669

> <Gold.PLP.part.metal>
0.0000

> <Gold.PLP.part.buried>
-6.3767

> <Gold.PLP.part.nonpolar>
-29.4755

> <Gold.PLP.part.repulsive>
0.0964

> <Gold.PLP.ligand.clash>
0.0000

> <Gold.PLP.ligand.torsion>
0.6845

> <Gold.PLP.Chemscore.Hbond>
1.0000

> <Gold.PLP.Chemscore.CHOScore>
0.0000

> <Gold.PLP.Chemscore.Metal>
0.0000

> <Gold.Chemscore.Hbonds>
donor molecule, donor type, donor heavy atom, donor atom, acceptor molecule, acceptor atom, score
      P1  H  6896  6909       L1    21  1.00

> <Gold.PLP.Chemscore.Internal.Correction>
0.4594

> <Gold.Rescore>
     Score         DG    S(hbond)    S(metal)    S(lipo)     H(rot)  DE(clash)    DE(int)     intcor
     14.67     -15.72       0.84        0.00     100.77       1.70       0.11       0.93       ----

> <Gold.Chemscore.Fitness>
14.6727

> <Gold.Chemscore.DG>
-15.7192

> <Gold.Chemscore.ZeroCoef>
-5.4800

> <Gold.Chemscore.Hbond>
0.8426

> <Gold.Chemscore.Metal>
0.0000

> <Gold.Chemscore.Lipo>
100.7664

> <Gold.Chemscore.Internal_Hbond>
0.0000

> <Gold.Chemscore.DEClash>
0.1125

> <Gold.Chemscore.DEInternal>
0.9340

> <Gold.Chemscore.Rot>
1.7049

> <Gold.Chemscore.Internal.Correction>
   9.000000E+99

> <Gold.Chemscore.Hbonds>
donor molecule, donor type, donor heavy atom, donor atom, acceptor molecule, acceptor atom, score
      P1  H  6896  6909       L1    21  0.70

> <Gold.Chemscore.Hbond.Weighted>
-2.8142

> <Gold.Chemscore.Metal.Weighted>
-0.0000

> <Gold.Chemscore.Lipo.Weighted>
-11.7897

> <Gold.Chemscore.Internal_Hbond.Weighted>
0.0000

> <Gold.Chemscore.DEClash.Weighted>
0.1125

> <Gold.Chemscore.DEInternal.Weighted>
0.9340

> <Gold.Chemscore.Rot.Weighted>
4.3647

> <Gold.Chemscore.Internal.Correction.Weighted>
   9.000000E+99

> <Gold.Protein.RotatedTorsions>
[ 6907 6896 6895 6894 ] final   94.34 input  -60.11 | X-H torsion
[ 7974 7965 7964 7962 ] final -168.77 input  175.53 | X-H torsion
[ 8008 7997 7996 7995 ] final  129.35 input   59.86 | X-H torsion
[ 10167 10162 10161 10158 ] final   67.93 input  -65.29 | X-H torsion
[ 10718 10713 10712 10709 ] final  -32.90 input   66.30 | X-H torsion
[ 10763 10752 10751 10750 ] final   24.82 input  -60.55 | X-H torsion
[ 11005 11000 10999 10996 ] final   56.75 input  -57.11 | X-H torsion

> <Gold.Protein.ActiveResidues>
 VAL166  LYS551  ARG553  GLY616  TRP617  ASP618  TYR619  PRO620  LYS621  CYS622 
 ASP623  PHE694  ASN695  SER759  ASP760  ASP761  ALA762  ILE779  LEU786  VAL792 
 PHE793  MET794  SER795  GLU796  ALA797  LYS798  CYS799  TRP800  GLU811  SER814 

> <Gold.Protein.RotatedAtoms>
  152.5450  134.1209  159.8397 H   0  0  0  0  0  0  0  0  0  0  0  0  # atno 6907 bound_to 6896
  151.1265  133.5060  159.2608 H   0  0  0  0  0  0  0  0  0  0  0  0  # atno 6908 bound_to 6896
  151.1722  135.0333  159.8811 H   0  0  0  0  0  0  0  0  0  0  0  0  # atno 6909 bound_to 6896
  144.7197  140.2321  143.6302 H   0  0  0  0  0  0  0  0  0  0  0  0  # atno 7974 bound_to 7965
  156.2934  140.2622  156.2585 H   0  0  0  0  0  0  0  0  0  0  0  0  # atno 8008 bound_to 7997
  154.9812  140.0390  157.2297 H   0  0  0  0  0  0  0  0  0  0  0  0  # atno 8009 bound_to 7997
  154.7770  140.2788  155.6098 H   0  0  0  0  0  0  0  0  0  0  0  0  # atno 8010 bound_to 7997
  140.0842  144.5045  150.7142 H   0  0  0  0  0  0  0  0  0  0  0  0  # atno 10167 bound_to 10162
  156.3692  130.4336  149.7559 H   0  0  0  0  0  0  0  0  0  0  0  0  # atno 10718 bound_to 10713
  153.0736  135.6597  154.0194 H   0  0  0  0  0  0  0  0  0  0  0  0  # atno 10763 bound_to 10752
  153.9834  135.2953  155.3419 H   0  0  0  0  0  0  0  0  0  0  0  0  # atno 10764 bound_to 10752
  154.7117  135.5202  153.8747 H   0  0  0  0  0  0  0  0  0  0  0  0  # atno 10765 bound_to 10752
  140.0505  134.5744  155.9270 H   0  0  0  0  0  0  0  0  0  0  0  0  # atno 11005 bound_to 11000
  145.8401  139.2125  143.1833 LP  0  0  0  0  0  0  0  0  0  0  0  0  # atno 17320 bound_to 7965
  146.0354  140.8217  142.9855 LP  0  0  0  0  0  0  0  0  0  0  0  0  # atno 17321 bound_to 7965
  140.7062  143.2470  151.4718 LP  0  0  0  0  0  0  0  0  0  0  0  0  # atno 17342 bound_to 10162
  139.5762  144.1814  152.1906 LP  0  0  0  0  0  0  0  0  0  0  0  0  # atno 17343 bound_to 10162
  156.4693  130.7989  151.3007 LP  0  0  0  0  0  0  0  0  0  0  0  0  # atno 17370 bound_to 10713
  157.7482  131.0041  150.3062 LP  0  0  0  0  0  0  0  0  0  0  0  0  # atno 17371 bound_to 10713
  141.1928  133.6576  156.5518 LP  0  0  0  0  0  0  0  0  0  0  0  0  # atno 17394 bound_to 11000
  140.3925  134.7428  157.4730 LP  0  0  0  0  0  0  0  0  0  0  0  0  # atno 17395 bound_to 11000

$$$$
