AV-unprocessed.smi:776|AV-procd|sdf|3700|dock4
  -GOLD-   22720 1123D 1   1.00000     0.00000
 Structure written by MMmdl.
 44 45  0  0  0  0  0  0  0  0  1 V2000
  146.1837  140.5007  154.8574 C   0  0  0  0  0  0  0  0  0  0  0  0
  147.2724  140.3526  153.7839 C   0  0  0  0  0  0  0  0  0  0  0  0
  147.0704  139.1203  152.8888 C   0  0  0  0  0  0  0  0  0  0  0  0
  148.6487  140.3972  154.3745 C   0  0  0  0  0  0  0  0  0  0  0  0
  149.5336  141.3198  154.0106 N   0  0  0  0  0  0  0  0  0  0  0  0
  150.6674  141.0014  154.7712 O   0  0  0  0  0  0  0  0  0  0  0  0
  150.3208  139.9261  155.5181 C   0  0  0  0  0  0  0  0  0  0  0  0
  151.3449  139.3081  156.4097 C   0  0  0  0  0  0  0  0  0  0  0  0
  150.9919  139.4577  157.8982 C   0  0  0  0  0  0  0  0  0  0  0  0
  151.8187  140.4686  158.5470 N   0  0  0  0  0  0  0  0  0  0  0  0
  151.5412  141.7826  158.5957 C   0  0  0  0  0  0  0  0  0  0  0  0
  150.5494  142.2639  158.0478 O   0  0  0  0  0  0  0  0  0  0  0  0
  152.5163  142.5198  159.1862 N   0  0  0  0  0  0  0  0  0  0  0  0
  153.3163  141.9718  160.2973 C   0  0  0  0  0  0  0  0  0  0  0  0
  152.6590  142.3675  161.6345 C   0  0  0  0  0  0  0  0  0  0  0  0
  152.4975  143.8951  161.7440 C   0  0  0  0  0  0  0  0  0  0  0  0
  151.8422  144.4946  160.4853 C   0  0  0  0  0  0  0  0  0  0  0  0
  152.5547  143.9991  159.2098 C   0  0  2  0  0  0  0  0  0  0  0  0
  152.0366  144.6966  157.9340 C   0  0  0  0  0  0  0  0  0  0  0  0
  149.0810  139.4957  155.2994 N   0  0  0  0  0  0  0  0  0  0  0  0
  146.3140  141.4247  155.4217 H   0  0  0  0  0  0  0  0  0  0  0  0
  146.2065  139.6709  155.5647 H   0  0  0  0  0  0  0  0  0  0  0  0
  145.1909  140.5260  154.4080 H   0  0  0  0  0  0  0  0  0  0  0  0
  147.1789  141.2222  153.1317 H   0  0  0  0  0  0  0  0  0  0  0  0
  147.8142  139.0877  152.0921 H   0  0  0  0  0  0  0  0  0  0  0  0
  146.0858  139.1329  152.4208 H   0  0  0  0  0  0  0  0  0  0  0  0
  147.1528  138.1956  153.4609 H   0  0  0  0  0  0  0  0  0  0  0  0
  151.4401  138.2532  156.1502 H   0  0  0  0  0  0  0  0  0  0  0  0
  152.3102  139.7702  156.1989 H   0  0  0  0  0  0  0  0  0  0  0  0
  149.9352  139.7029  158.0186 H   0  0  0  0  0  0  0  0  0  0  0  0
  151.1517  138.5106  158.4143 H   0  0  0  0  0  0  0  0  0  0  0  0
  152.6729  140.1503  158.9810 H   0  0  0  0  0  0  0  0  0  0  0  0
  153.4282  140.8877  160.2559 H   0  0  0  0  0  0  0  0  0  0  0  0
  154.3317  142.3673  160.2470 H   0  0  0  0  0  0  0  0  0  0  0  0
  151.6810  141.8911  161.7152 H   0  0  0  0  0  0  0  0  0  0  0  0
  153.2530  141.9957  162.4698 H   0  0  0  0  0  0  0  0  0  0  0  0
  151.9173  144.1515  162.6309 H   0  0  0  0  0  0  0  0  0  0  0  0
  153.4812  144.3461  161.8797 H   0  0  0  0  0  0  0  0  0  0  0  0
  150.7874  144.2178  160.4515 H   0  0  0  0  0  0  0  0  0  0  0  0
  151.8748  145.5833  160.5390 H   0  0  0  0  0  0  0  0  0  0  0  0
  153.6053  144.2863  159.2826 H   0  0  0  0  0  0  0  0  0  0  0  0
  152.2983  145.7548  157.9469 H   0  0  0  0  0  0  0  0  0  0  0  0
  150.9522  144.6450  157.8392 H   0  0  0  0  0  0  0  0  0  0  0  0
  152.4805  144.2634  157.0371 H   0  0  0  0  0  0  0  0  0  0  0  0
  1  2  1  0  0  0  0
  1 21  1  0  0  0  0
  1 22  1  0  0  0  0
  1 23  1  0  0  0  0
  2  3  1  0  0  0  0
  2  4  1  0  0  0  0
  2 24  1  0  0  0  0
  3 25  1  0  0  0  0
  3 26  1  0  0  0  0
  3 27  1  0  0  0  0
  4 20  1  0  0  0  0
  4  5  2  0  0  0  0
  5  6  1  0  0  0  0
  6  7  1  0  0  0  0
  7  8  1  0  0  0  0
  7 20  2  0  0  0  0
  8  9  1  0  0  0  0
  8 28  1  0  0  0  0
  8 29  1  0  0  0  0
  9 10  1  0  0  0  0
  9 30  1  0  0  0  0
  9 31  1  0  0  0  0
 10 11  1  0  0  0  0
 10 32  1  0  0  0  0
 11 12  2  0  0  0  0
 11 13  1  0  0  0  0
 13 18  1  0  0  0  0
 13 14  1  0  0  0  0
 14 15  1  0  0  0  0
 14 33  1  0  0  0  0
 14 34  1  0  0  0  0
 15 16  1  0  0  0  0
 15 35  1  0  0  0  0
 15 36  1  0  0  0  0
 16 17  1  0  0  0  0
 16 37  1  0  0  0  0
 16 38  1  0  0  0  0
 17 18  1  0  0  0  0
 17 39  1  0  0  0  0
 17 40  1  0  0  0  0
 18 19  1  0  0  0  0
 18 41  1  0  0  0  0
 19 42  1  0  0  0  0
 19 43  1  0  0  0  0
 19 44  1  0  0  0  0
M  END
> <s_m_source_file>
AV-unprocessed.smi

> <i_m_source_file_index>
776

> <i_lp_mmshare_version>
43012

> <i_f3d_flags>
0

> <s_epik_input>
W0NIM11bQ0hdKFtDSDNdKWMxbm9jKG4xKVtDSDJdW0NIMl1bTkhdQyg9TylOMltDSDJdW0NIMl1bQ0gyXVtDSDJdW0NASF0yW0NIM10=

> <s_epik_cmdline>
J2VwaWtfcHl0aG9uJywgJy1waCcsICc3LjAnLCAnLXRuJywgJzgnLCAnLW1hJywgJzIwMCcsICctbWV0YWxfYmluZGluZycsICctaW1hZScsICc8aW5maWxlLm1hZT4nLCAnLW9tYWUnLCAnPG91dGZpbGUubWFlPic=

> <r_lp_tautomer_probability>
1

> <r_epik_Ionization_Penalty>
6.23032e-05

> <r_epik_Ionization_Penalty_Charging>
0

> <r_epik_Ionization_Penalty_Neutral>
6.23032e-05

> <r_epik_State_Penalty>
-0

> <r_epik_Charging_Adjusted_Penalty>
0

> <i_epik_Tot_Q>
0

> <i_epik_Tot_abs_Q>
0

> <r_epik_Metal_State_Penalty>
-0

> <b_epik_Metal_Only>
0

> <s_lp_Force_Field>
OPLS_2005

> <r_lp_Energy>
25.3462

> <b_lp_Chiralities_Consistent>
1

> <s_lp_Variant>
AV-unprocessed.smi:776-2

> <Gold.Version>
5.8.1

> <Gold.Id.Protein>
6NUR|6NUR_protein|mol2

> <Gold.PLP.Fitness>
46.7767

> <Gold.PLP.PLP>
-44.1635

> <Gold.PLP.part.hbond>
-2.6334

> <Gold.PLP.part.metal>
0.0000

> <Gold.PLP.part.buried>
-2.7581

> <Gold.PLP.part.nonpolar>
-38.0025

> <Gold.PLP.part.repulsive>
0.5672

> <Gold.PLP.ligand.clash>
0.0000

> <Gold.PLP.ligand.torsion>
0.8386

> <Gold.PLP.Chemscore.Hbond>
1.2576

> <Gold.PLP.Chemscore.CHOScore>
0.0000

> <Gold.PLP.Chemscore.Metal>
0.0000

> <Gold.Chemscore.Hbonds>
donor molecule, donor type, donor heavy atom, donor atom, acceptor molecule, acceptor atom, score
      P1  H  7989  7998       L1     6  0.49
      P1  H  8011  8017       L1     5  0.75

> <Gold.PLP.Chemscore.Internal.Correction>
0.5175

> <Gold.Rescore>
     Score         DG    S(hbond)    S(metal)    S(lipo)     H(rot)  DE(clash)    DE(int)     intcor
     12.59     -15.99       0.88        0.00     100.65       1.65       1.25       2.15       ----

> <Gold.Chemscore.Fitness>
12.5861

> <Gold.Chemscore.DG>
-15.9859

> <Gold.Chemscore.ZeroCoef>
-5.4800

> <Gold.Chemscore.Hbond>
0.8823

> <Gold.Chemscore.Metal>
0.0000

> <Gold.Chemscore.Lipo>
100.6460

> <Gold.Chemscore.Internal_Hbond>
0.0000

> <Gold.Chemscore.DEClash>
1.2494

> <Gold.Chemscore.DEInternal>
2.1504

> <Gold.Chemscore.Rot>
1.6470

> <Gold.Chemscore.Internal.Correction>
   9.000000E+99

> <Gold.Chemscore.Hbonds>
donor molecule, donor type, donor heavy atom, donor atom, acceptor molecule, acceptor atom, score
      P1  H  7989  7998       L1     6  0.05
      P1  H  8011  8017       L1     5  0.69

> <Gold.Chemscore.Hbond.Weighted>
-2.9467

> <Gold.Chemscore.Metal.Weighted>
-0.0000

> <Gold.Chemscore.Lipo.Weighted>
-11.7756

> <Gold.Chemscore.Internal_Hbond.Weighted>
0.0000

> <Gold.Chemscore.DEClash.Weighted>
1.2494

> <Gold.Chemscore.DEInternal.Weighted>
2.1504

> <Gold.Chemscore.Rot.Weighted>
4.2164

> <Gold.Chemscore.Internal.Correction.Weighted>
   9.000000E+99

> <Gold.Protein.RotatedTorsions>
[ 6907 6896 6895 6894 ] final   -8.77 input  -60.11 | X-H torsion
[ 7974 7965 7964 7962 ] final   15.35 input  175.53 | X-H torsion
[ 8008 7997 7996 7995 ] final  -51.49 input   59.86 | X-H torsion
[ 10167 10162 10161 10158 ] final  167.94 input  -65.29 | X-H torsion
[ 10718 10713 10712 10709 ] final  -32.56 input   66.30 | X-H torsion
[ 10763 10752 10751 10750 ] final   12.20 input  -60.55 | X-H torsion
[ 11005 11000 10999 10996 ] final -163.00 input  -57.11 | X-H torsion

> <Gold.Protein.ActiveResidues>
 VAL166  LYS551  ARG553  GLY616  TRP617  ASP618  TYR619  PRO620  LYS621  CYS622 
 ASP623  PHE694  ASN695  SER759  ASP760  ASP761  ALA762  ILE779  LEU786  VAL792 
 PHE793  MET794  SER795  GLU796  ALA797  LYS798  CYS799  TRP800  GLU811  SER814 

> <Gold.Protein.RotatedAtoms>
  151.4283  135.1006  159.9634 H   0  0  0  0  0  0  0  0  0  0  0  0  # atno 6907 bound_to 6896
  152.4965  133.8642  159.7276 H   0  0  0  0  0  0  0  0  0  0  0  0  # atno 6908 bound_to 6896
  150.9173  133.6865  159.2868 H   0  0  0  0  0  0  0  0  0  0  0  0  # atno 6909 bound_to 6896
  146.2281  139.8907  142.8555 H   0  0  0  0  0  0  0  0  0  0  0  0  # atno 7974 bound_to 7965
  154.4084  140.1246  156.4838 H   0  0  0  0  0  0  0  0  0  0  0  0  # atno 8008 bound_to 7997
  155.7058  140.3494  155.4933 H   0  0  0  0  0  0  0  0  0  0  0  0  # atno 8009 bound_to 7997
  155.9344  140.1075  157.1096 H   0  0  0  0  0  0  0  0  0  0  0  0  # atno 8010 bound_to 7997
  139.4956  144.3868  151.9561 H   0  0  0  0  0  0  0  0  0  0  0  0  # atno 10167 bound_to 10162
  156.3735  130.4343  149.7526 H   0  0  0  0  0  0  0  0  0  0  0  0  # atno 10718 bound_to 10713
  153.1847  135.6833  153.8431 H   0  0  0  0  0  0  0  0  0  0  0  0  # atno 10763 bound_to 10752
  153.7751  135.3190  155.3359 H   0  0  0  0  0  0  0  0  0  0  0  0  # atno 10764 bound_to 10752
  154.8081  135.4735  154.0541 H   0  0  0  0  0  0  0  0  0  0  0  0  # atno 10765 bound_to 10752
  140.6029  134.4928  157.5207 H   0  0  0  0  0  0  0  0  0  0  0  0  # atno 11005 bound_to 11000
  145.2421  141.0013  143.3930 LP  0  0  0  0  0  0  0  0  0  0  0  0  # atno 17320 bound_to 7965
  144.9444  139.4153  143.6433 LP  0  0  0  0  0  0  0  0  0  0  0  0  # atno 17321 bound_to 7965
  140.3305  144.3322  150.5988 LP  0  0  0  0  0  0  0  0  0  0  0  0  # atno 17342 bound_to 10162
  140.5649  143.2187  151.7701 LP  0  0  0  0  0  0  0  0  0  0  0  0  # atno 17343 bound_to 10162
  156.4645  130.7967  151.2987 LP  0  0  0  0  0  0  0  0  0  0  0  0  # atno 17370 bound_to 10713
  157.7486  131.0055  150.3117 LP  0  0  0  0  0  0  0  0  0  0  0  0  # atno 17371 bound_to 10713
  139.9224  134.8122  156.1169 LP  0  0  0  0  0  0  0  0  0  0  0  0  # atno 17394 bound_to 11000
  141.0860  133.6734  156.2437 LP  0  0  0  0  0  0  0  0  0  0  0  0  # atno 17395 bound_to 11000

$$$$
