AV-unprocessed.smi:2059|AV-procd|sdf|8352|dock6
  -GOLD-   2272011 23D 1   1.00000     0.00000
 Structure written by MMmdl.
 29 30  0  0  0  0  0  0  0  0  2 V2000
  152.9801  142.4171  161.0677 C   0  0  0  0  0  0  0  0  0  0  0  0
  152.2641  142.4415  159.7609 C   0  0  0  0  0  0  0  0  0  0  0  0
  152.0197  141.4856  158.8158 C   0  0  0  0  0  0  0  0  0  0  0  0
  151.2863  142.1892  157.8224 C   0  0  0  0  0  0  0  0  0  0  0  0
  150.8418  141.5101  156.6515 N   0  0  0  0  0  0  0  0  0  0  0  0
  151.3409  140.4431  155.9907 C   0  0  0  0  0  0  0  0  0  0  0  0
  152.3669  139.9597  156.4803 O   0  0  0  0  0  0  0  0  0  0  0  0
  150.6872  140.0060  154.8752 N   0  5  0  0  0  0  0  0  0  0  0  0
  149.2707  140.2338  154.5799 C   0  0  2  0  0  0  0  0  0  0  0  0
  149.0083  141.7234  154.2836 C   0  0  0  0  0  0  0  0  0  0  0  0
  147.4940  141.9745  154.3287 C   0  0  0  0  0  0  0  0  0  0  0  0
  146.8305  140.8003  155.5728 S   0  0  0  0  0  0  0  0  0  0  0  0
  146.5489  141.5180  156.8260 O   0  0  0  0  0  0  0  0  0  0  0  0
  145.7997  139.9640  154.9376 O   0  0  0  0  0  0  0  0  0  0  0  0
  148.3800  139.8351  155.7671 C   0  0  0  0  0  0  0  0  0  0  0  0
  151.0984  143.4624  158.1414 N   0  0  0  0  0  0  0  0  0  0  0  0
  151.7233  143.6304  159.3824 O   0  0  0  0  0  0  0  0  0  0  0  0
  153.4805  141.4608  161.2202 H   0  0  0  0  0  0  0  0  0  0  0  0
  152.2836  142.5702  161.8920 H   0  0  0  0  0  0  0  0  0  0  0  0
  153.7343  143.2032  161.1099 H   0  0  0  0  0  0  0  0  0  0  0  0
  152.3199  140.4484  158.8328 H   0  0  0  0  0  0  0  0  0  0  0  0
  150.0012  141.8922  156.2446 H   0  0  0  0  0  0  0  0  0  0  0  0
  148.9408  139.6682  153.7068 H   0  0  0  0  0  0  0  0  0  0  0  0
  149.4854  142.3355  155.0511 H   0  0  0  0  0  0  0  0  0  0  0  0
  149.4331  142.0269  153.3262 H   0  0  0  0  0  0  0  0  0  0  0  0
  147.2450  142.9982  154.6075 H   0  0  0  0  0  0  0  0  0  0  0  0
  147.0269  141.7534  153.3678 H   0  0  0  0  0  0  0  0  0  0  0  0
  148.1607  138.7676  155.7933 H   0  0  0  0  0  0  0  0  0  0  0  0
  148.8333  140.1218  156.7167 H   0  0  0  0  0  0  0  0  0  0  0  0
  1  2  1  0  0  0  0
  1 18  1  0  0  0  0
  1 19  1  0  0  0  0
  1 20  1  0  0  0  0
  2 17  1  0  0  0  0
  2  3  2  0  0  0  0
  3  4  1  0  0  0  0
  3 21  1  0  0  0  0
  4  5  1  0  0  0  0
  4 16  2  0  0  0  0
  5  6  1  0  0  0  0
  5 22  1  0  0  0  0
  6  7  2  0  0  0  0
  6  8  1  0  0  0  0
  8  9  1  0  0  0  0
  9 15  1  0  0  0  0
  9 10  1  0  0  0  0
  9 23  1  0  0  0  0
 10 11  1  0  0  0  0
 10 24  1  0  0  0  0
 10 25  1  0  0  0  0
 11 12  1  0  0  0  0
 11 26  1  0  0  0  0
 11 27  1  0  0  0  0
 12 13  2  0  0  0  0
 12 14  2  0  0  0  0
 12 15  1  0  0  0  0
 15 28  1  0  0  0  0
 15 29  1  0  0  0  0
 16 17  1  0  0  0  0
M  CHG  1   8  -1
M  END
> <s_m_source_file>
AV-unprocessed.smi

> <i_m_source_file_index>
2059

> <i_lp_mmshare_version>
43012

> <i_f3d_flags>
0

> <s_epik_input>
W0NIM11jMVtjSF1jKG5vMSlbTkhdQyg9TylbTkhdW0NAQEhdKFtDSDJdMilbQ0gyXVtDSDJdUzIoPU8pPU8=

> <s_epik_cmdline>
J2VwaWtfcHl0aG9uJywgJy1waCcsICc3LjAnLCAnLXRuJywgJzgnLCAnLW1hJywgJzIwMCcsICctbWV0YWxfYmluZGluZycsICctaW1hZScsICc8aW5maWxlLm1hZT4nLCAnLW9tYWUnLCAnPG91dGZpbGUubWFlPic=

> <r_lp_tautomer_probability>
1

> <r_epik_Ionization_Penalty>
6.6071

> <r_epik_Ionization_Penalty_Charging>
6.60709

> <r_epik_Ionization_Penalty_Neutral>
5.42629e-06

> <r_epik_State_Penalty>
6.6352

> <r_epik_Charging_Adjusted_Penalty>
13.2423

> <i_epik_Tot_Q>
-1

> <i_epik_Tot_abs_Q>
1

> <r_epik_Metal_State_Penalty>
2.57602

> <b_epik_Metal_Only>
1

> <s_lp_Force_Field>
OPLS_2005

> <r_lp_Energy>
11.3724

> <b_lp_Chiralities_Consistent>
1

> <s_lp_Variant>
AV-unprocessed.smi:2059-5

> <Gold.Version>
5.8.1

> <Gold.Id.Protein>
6NUR|6NUR_protein|mol2

> <Gold.PLP.Fitness>
32.8320

> <Gold.PLP.PLP>
-27.5614

> <Gold.PLP.part.hbond>
-2.0000

> <Gold.PLP.part.metal>
0.0000

> <Gold.PLP.part.buried>
-3.6571

> <Gold.PLP.part.nonpolar>
-22.9503

> <Gold.PLP.part.repulsive>
0.4215

> <Gold.PLP.ligand.clash>
0.0000

> <Gold.PLP.ligand.torsion>
0.3659

> <Gold.PLP.Chemscore.Hbond>
2.0000

> <Gold.PLP.Chemscore.CHOScore>
0.0000

> <Gold.PLP.Chemscore.Metal>
0.0000

> <Gold.Chemscore.Hbonds>
donor molecule, donor type, donor heavy atom, donor atom, acceptor molecule, acceptor atom, score
      P1  H  7989  7998       L1     8  1.00
      P1  H  7997  8008       L1     7  1.00

> <Gold.PLP.Chemscore.Internal.Correction>
0.0023

> <Gold.Rescore>
     Score         DG    S(hbond)    S(metal)    S(lipo)     H(rot)  DE(clash)    DE(int)     intcor
     10.76     -13.60       1.33        0.00      53.39       1.00       0.05       2.78       ----

> <Gold.Chemscore.Fitness>
10.7588

> <Gold.Chemscore.DG>
-13.5970

> <Gold.Chemscore.ZeroCoef>
-5.4800

> <Gold.Chemscore.Hbond>
1.3265

> <Gold.Chemscore.Metal>
0.0000

> <Gold.Chemscore.Lipo>
53.3884

> <Gold.Chemscore.Internal_Hbond>
0.0000

> <Gold.Chemscore.DEClash>
0.0545

> <Gold.Chemscore.DEInternal>
2.7837

> <Gold.Chemscore.Rot>
1.0000

> <Gold.Chemscore.Internal.Correction>
   9.000000E+99

> <Gold.Chemscore.Hbonds>
donor molecule, donor type, donor heavy atom, donor atom, acceptor molecule, acceptor atom, score
      P1  H  7989  7998       L1     8  0.17
      P1  H  7997  8008       L1     7  0.98

> <Gold.Chemscore.Hbond.Weighted>
-4.4306

> <Gold.Chemscore.Metal.Weighted>
-0.0000

> <Gold.Chemscore.Lipo.Weighted>
-6.2464

> <Gold.Chemscore.Internal_Hbond.Weighted>
0.0000

> <Gold.Chemscore.DEClash.Weighted>
0.0545

> <Gold.Chemscore.DEInternal.Weighted>
2.7837

> <Gold.Chemscore.Rot.Weighted>
2.5600

> <Gold.Chemscore.Internal.Correction.Weighted>
   9.000000E+99

> <Gold.Protein.RotatedTorsions>
[ 6907 6896 6895 6894 ] final   42.72 input  -60.11 | X-H torsion
[ 7974 7965 7964 7962 ] final  -79.38 input  175.53 | X-H torsion
[ 8008 7997 7996 7995 ] final  -42.94 input   59.86 | X-H torsion
[ 10167 10162 10161 10158 ] final   83.71 input  -65.29 | X-H torsion
[ 10718 10713 10712 10709 ] final   75.90 input   66.30 | X-H torsion
[ 10763 10752 10751 10750 ] final   92.78 input  -60.55 | X-H torsion
[ 11005 11000 10999 10996 ] final  -24.03 input  -57.11 | X-H torsion

> <Gold.Protein.ActiveResidues>
 VAL166  LYS551  ARG553  GLY616  TRP617  ASP618  TYR619  PRO620  LYS621  CYS622 
 ASP623  PHE694  ASN695  SER759  ASP760  ASP761  ALA762  ILE779  LEU786  VAL792 
 PHE793  MET794  SER795  GLU796  ALA797  LYS798  CYS799  TRP800  GLU811  SER814 

> <Gold.Protein.RotatedAtoms>
  152.2114  134.8498  160.0496 H   0  0  0  0  0  0  0  0  0  0  0  0  # atno 6907 bound_to 6896
  151.9315  133.3607  159.3940 H   0  0  0  0  0  0  0  0  0  0  0  0  # atno 6908 bound_to 6896
  150.6977  134.4458  159.5357 H   0  0  0  0  0  0  0  0  0  0  0  0  # atno 6909 bound_to 6896
  145.5740  140.9461  143.1380 H   0  0  0  0  0  0  0  0  0  0  0  0  # atno 7974 bound_to 7965
  154.3997  140.1460  156.3437 H   0  0  0  0  0  0  0  0  0  0  0  0  # atno 8008 bound_to 7997
  155.8333  140.3465  155.5564 H   0  0  0  0  0  0  0  0  0  0  0  0  # atno 8009 bound_to 7997
  155.8165  140.0891  157.1864 H   0  0  0  0  0  0  0  0  0  0  0  0  # atno 8010 bound_to 7997
  139.9155  144.6245  150.8493 H   0  0  0  0  0  0  0  0  0  0  0  0  # atno 10167 bound_to 10162
  157.6652  130.9748  150.1419 H   0  0  0  0  0  0  0  0  0  0  0  0  # atno 10718 bound_to 10713
  153.2229  135.4349  155.0509 H   0  0  0  0  0  0  0  0  0  0  0  0  # atno 10763 bound_to 10752
  154.8259  135.3360  154.6900 H   0  0  0  0  0  0  0  0  0  0  0  0  # atno 10764 bound_to 10752
  153.7331  135.7009  153.5040 H   0  0  0  0  0  0  0  0  0  0  0  0  # atno 10765 bound_to 10752
  140.8807  133.7656  156.0298 H   0  0  0  0  0  0  0  0  0  0  0  0  # atno 11005 bound_to 11000
  144.7424  139.7411  143.7305 LP  0  0  0  0  0  0  0  0  0  0  0  0  # atno 17320 bound_to 7965
  146.1764  139.4936  142.9895 LP  0  0  0  0  0  0  0  0  0  0  0  0  # atno 17321 bound_to 7965
  140.7675  143.3334  151.2361 LP  0  0  0  0  0  0  0  0  0  0  0  0  # atno 17342 bound_to 10162
  139.6906  143.9699  152.2857 LP  0  0  0  0  0  0  0  0  0  0  0  0  # atno 17343 bound_to 10162
  156.2240  130.3676  149.8522 LP  0  0  0  0  0  0  0  0  0  0  0  0  # atno 17370 bound_to 10713
  156.6368  130.8688  151.3506 LP  0  0  0  0  0  0  0  0  0  0  0  0  # atno 17371 bound_to 10713
  140.8465  134.3005  157.5293 LP  0  0  0  0  0  0  0  0  0  0  0  0  # atno 17394 bound_to 11000
  139.8719  134.9444  156.3881 LP  0  0  0  0  0  0  0  0  0  0  0  0  # atno 17395 bound_to 11000

$$$$
