AV-unprocessed.smi:1958|AV-procd|sdf|7910|dock3
  -GOLD-   2272010 73D 1   1.00000     0.00000
 Structure written by MMmdl.
 47 48  0  0  0  0  0  0  0  0  3 V2000
  146.4898  132.3763  149.2795 C   0  0  0  0  0  0  0  0  0  0  0  0
  145.7972  132.5667  150.5007 O   0  0  0  0  0  0  0  0  0  0  0  0
  146.5686  132.1868  151.6278 C   0  0  0  0  0  0  0  0  0  0  0  0
  146.6016  130.6534  151.7096 C   0  0  0  0  0  0  0  0  0  0  0  0
  147.6652  130.1798  152.6009 N   0  0  0  0  0  0  0  0  0  0  0  0
  148.2001  131.1645  153.4134 N   0  0  0  0  0  0  0  0  0  0  0  0
  149.1637  130.8861  154.2317 C   0  0  0  0  0  0  0  0  0  0  0  0
  149.7803  131.9429  155.0927 C   0  0  0  0  0  0  0  0  0  0  0  0
  150.7820  131.6067  155.7370 O   0  0  0  0  0  0  0  0  0  0  0  0
  149.2113  133.1862  155.0850 N   0  5  0  0  0  0  0  0  0  0  0  0
  149.9337  134.4544  154.9499 C   0  0  0  0  0  0  0  0  0  0  0  0
  149.0058  135.6550  155.2786 C   0  0  2  0  0  0  0  0  0  0  0  0
  147.5835  135.5425  154.6759 C   0  0  0  0  0  0  0  0  0  0  0  0
  149.6911  136.9584  155.0000 N   0  3  0  0  0  0  0  0  0  0  0  0
  148.9339  138.1979  155.3272 C   0  0  0  0  0  0  0  0  0  0  0  0
  149.6886  139.4262  154.7988 C   0  0  0  0  0  0  0  0  0  0  0  0
  150.9878  139.4639  155.3775 O   0  0  0  0  0  0  0  0  0  0  0  0
  151.7604  138.3208  155.0306 C   0  0  0  0  0  0  0  0  0  0  0  0
  151.0696  137.0439  155.5407 C   0  0  0  0  0  0  0  0  0  0  0  0
  149.6897  129.5312  154.3204 C   0  0  0  0  0  0  0  0  0  0  0  0
  149.1502  128.5788  153.5287 C   0  0  0  0  0  0  0  0  0  0  0  0
  148.0655  128.8730  152.5918 C   0  0  0  0  0  0  0  0  0  0  0  0
  147.5594  128.0227  151.8598 O   0  0  0  0  0  0  0  0  0  0  0  0
  145.8542  132.6774  148.4468 H   0  0  0  0  0  0  0  0  0  0  0  0
  146.7583  131.3289  149.1373 H   0  0  0  0  0  0  0  0  0  0  0  0
  147.3983  132.9788  149.2437 H   0  0  0  0  0  0  0  0  0  0  0  0
  147.5822  132.5802  151.5363 H   0  0  0  0  0  0  0  0  0  0  0  0
  146.1316  132.6078  152.5348 H   0  0  0  0  0  0  0  0  0  0  0  0
  145.6334  130.2761  152.0430 H   0  0  0  0  0  0  0  0  0  0  0  0
  146.7439  130.2415  150.7086 H   0  0  0  0  0  0  0  0  0  0  0  0
  150.8022  134.4858  155.6077 H   0  0  0  0  0  0  0  0  0  0  0  0
  150.3334  134.5997  153.9452 H   0  0  0  0  0  0  0  0  0  0  0  0
  148.8587  135.5948  156.3579 H   0  0  0  0  0  0  0  0  0  0  0  0
  147.0742  134.6375  155.0118 H   0  0  0  0  0  0  0  0  0  0  0  0
  147.5847  135.5261  153.5847 H   0  0  0  0  0  0  0  0  0  0  0  0
  146.9628  136.3814  154.9921 H   0  0  0  0  0  0  0  0  0  0  0  0
  147.9386  138.1716  154.8840 H   0  0  0  0  0  0  0  0  0  0  0  0
  148.8044  138.2895  156.4062 H   0  0  0  0  0  0  0  0  0  0  0  0
  149.7575  139.4032  153.7100 H   0  0  0  0  0  0  0  0  0  0  0  0
  149.1553  140.3384  155.0660 H   0  0  0  0  0  0  0  0  0  0  0  0
  151.9004  138.2794  153.9492 H   0  0  0  0  0  0  0  0  0  0  0  0
  152.7508  138.4155  155.4760 H   0  0  0  0  0  0  0  0  0  0  0  0
  151.0359  137.0386  156.6313 H   0  0  0  0  0  0  0  0  0  0  0  0
  151.6491  136.1739  155.2297 H   0  0  0  0  0  0  0  0  0  0  0  0
  150.4867  129.2781  155.0040 H   0  0  0  0  0  0  0  0  0  0  0  0
  149.5293  127.5691  153.5882 H   0  0  0  0  0  0  0  0  0  0  0  0
  149.7973  136.9645  153.9950 H   0  0  0  0  0  0  0  0  0  0  0  0
  1  2  1  0  0  0  0
  1 24  1  0  0  0  0
  1 25  1  0  0  0  0
  1 26  1  0  0  0  0
  2  3  1  0  0  0  0
  3  4  1  0  0  0  0
  3 27  1  0  0  0  0
  3 28  1  0  0  0  0
  4  5  1  0  0  0  0
  4 29  1  0  0  0  0
  4 30  1  0  0  0  0
  5 22  1  0  0  0  0
  5  6  1  0  0  0  0
  6  7  2  0  0  0  0
  7  8  1  0  0  0  0
  7 20  1  0  0  0  0
  8  9  2  0  0  0  0
  8 10  1  0  0  0  0
 10 11  1  0  0  0  0
 11 12  1  0  0  0  0
 11 31  1  0  0  0  0
 11 32  1  0  0  0  0
 12 13  1  0  0  0  0
 12 14  1  0  0  0  0
 12 33  1  0  0  0  0
 13 34  1  0  0  0  0
 13 35  1  0  0  0  0
 13 36  1  0  0  0  0
 14 19  1  0  0  0  0
 14 15  1  0  0  0  0
 14 47  1  0  0  0  0
 15 16  1  0  0  0  0
 15 37  1  0  0  0  0
 15 38  1  0  0  0  0
 16 17  1  0  0  0  0
 16 39  1  0  0  0  0
 16 40  1  0  0  0  0
 17 18  1  0  0  0  0
 18 19  1  0  0  0  0
 18 41  1  0  0  0  0
 18 42  1  0  0  0  0
 19 43  1  0  0  0  0
 19 44  1  0  0  0  0
 20 21  2  0  0  0  0
 20 45  1  0  0  0  0
 21 22  1  0  0  0  0
 21 46  1  0  0  0  0
 22 23  2  0  0  0  0
M  CHG  1  10  -1
M  CHG  1  14   1
M  END
> <s_m_source_file>
AV-unprocessed.smi

> <i_m_source_file_index>
1958

> <i_lp_mmshare_version>
43012

> <i_f3d_flags>
0

> <s_epik_input>
W0NIM11PW0NIMl1bQ0gyXW4xbmMoW2NIXVtjSF1jMT1PKUMoPU8pW05IXVtDSDJdW0NASF0oW0NIM10pTjJbQ0gyXVtDSDJdT1tDSDJdW0NIMl0y

> <s_epik_cmdline>
J2VwaWtfcHl0aG9uJywgJy1waCcsICc3LjAnLCAnLXRuJywgJzgnLCAnLW1hJywgJzIwMCcsICctbWV0YWxfYmluZGluZycsICctaW1hZScsICc8aW5maWxlLm1hZT4nLCAnLW9tYWUnLCAnPG91dGZpbGUubWFlPic=

> <r_lp_tautomer_probability>
1

> <r_epik_Ionization_Penalty>
6.89388

> <r_epik_Ionization_Penalty_Charging>
6.89388

> <r_epik_Ionization_Penalty_Neutral>
1.08445e-11

> <r_epik_State_Penalty>
7.53214

> <r_epik_Charging_Adjusted_Penalty>
14.426

> <i_epik_Tot_Q>
0

> <i_epik_Tot_abs_Q>
2

> <r_epik_Metal_State_Penalty>
3.44743

> <b_epik_Metal_Only>
1

> <s_lp_Force_Field>
OPLS_2005

> <r_lp_Energy>
42.3217

> <b_lp_Chiralities_Consistent>
1

> <s_lp_Variant>
AV-unprocessed.smi:1958-5

> <Gold.Version>
5.8.1

> <Gold.Id.Protein>
6NUR|6NUR_protein|mol2

> <Gold.PLP.Fitness>
42.7251

> <Gold.PLP.PLP>
-35.0602

> <Gold.PLP.part.hbond>
-2.0000

> <Gold.PLP.part.metal>
0.0000

> <Gold.PLP.part.buried>
-5.4592

> <Gold.PLP.part.nonpolar>
-28.2121

> <Gold.PLP.part.repulsive>
0.3822

> <Gold.PLP.ligand.clash>
0.0000

> <Gold.PLP.ligand.torsion>
0.9150

> <Gold.PLP.Chemscore.Hbond>
3.0000

> <Gold.PLP.Chemscore.CHOScore>
0.0000

> <Gold.PLP.Chemscore.Metal>
0.0000

> <Gold.Chemscore.Hbonds>
donor molecule, donor type, donor heavy atom, donor atom, acceptor molecule, acceptor atom, score
      L1  H    14    47       P1  7948  0.25

> <Gold.PLP.Chemscore.Internal.Correction>
0.4948

> <Gold.Rescore>
     Score         DG    S(hbond)    S(metal)    S(lipo)     H(rot)  DE(clash)    DE(int)     intcor
     10.89     -12.24       0.99        0.00      74.73       2.07       0.08       1.27       ----

> <Gold.Chemscore.Fitness>
10.8931

> <Gold.Chemscore.DG>
-12.2352

> <Gold.Chemscore.ZeroCoef>
-5.4800

> <Gold.Chemscore.Hbond>
0.9892

> <Gold.Chemscore.Metal>
0.0000

> <Gold.Chemscore.Lipo>
74.7321

> <Gold.Chemscore.Internal_Hbond>
0.0000

> <Gold.Chemscore.DEClash>
0.0753

> <Gold.Chemscore.DEInternal>
1.2668

> <Gold.Chemscore.Rot>
2.0673

> <Gold.Chemscore.Internal.Correction>
   9.000000E+99

> <Gold.Chemscore.Hbonds>
donor molecule, donor type, donor heavy atom, donor atom, acceptor molecule, acceptor atom, score
      L1  H    14    47       P1  7948  0.10

> <Gold.Chemscore.Hbond.Weighted>
-3.3039

> <Gold.Chemscore.Metal.Weighted>
-0.0000

> <Gold.Chemscore.Lipo.Weighted>
-8.7437

> <Gold.Chemscore.Internal_Hbond.Weighted>
0.0000

> <Gold.Chemscore.DEClash.Weighted>
0.0753

> <Gold.Chemscore.DEInternal.Weighted>
1.2668

> <Gold.Chemscore.Rot.Weighted>
5.2923

> <Gold.Chemscore.Internal.Correction.Weighted>
   9.000000E+99

> <Gold.Protein.RotatedTorsions>
[ 6907 6896 6895 6894 ] final -131.57 input  -60.11 | X-H torsion
[ 7974 7965 7964 7962 ] final -160.05 input  175.53 | X-H torsion
[ 8008 7997 7996 7995 ] final   49.32 input   59.86 | X-H torsion
[ 10167 10162 10161 10158 ] final  127.84 input  -65.29 | X-H torsion
[ 10718 10713 10712 10709 ] final   30.66 input   66.30 | X-H torsion
[ 10763 10752 10751 10750 ] final -131.80 input  -60.55 | X-H torsion
[ 11005 11000 10999 10996 ] final  -56.14 input  -57.11 | X-H torsion

> <Gold.Protein.ActiveResidues>
 VAL166  LYS551  ARG553  GLY616  TRP617  ASP618  TYR619  PRO620  LYS621  CYS622 
 ASP623  PHE694  ASN695  SER759  ASP760  ASP761  ALA762  ILE779  LEU786  VAL792 
 PHE793  MET794  SER795  GLU796  ALA797  LYS798  CYS799  TRP800  GLU811  SER814 

> <Gold.Protein.RotatedAtoms>
  150.9524  133.6534  159.2769 H   0  0  0  0  0  0  0  0  0  0  0  0  # atno 6907 bound_to 6896
  151.3885  135.0951  159.9528 H   0  0  0  0  0  0  0  0  0  0  0  0  # atno 6908 bound_to 6896
  152.5115  133.9044  159.7511 H   0  0  0  0  0  0  0  0  0  0  0  0  # atno 6909 bound_to 6896
  144.7441  140.3597  143.6098 H   0  0  0  0  0  0  0  0  0  0  0  0  # atno 7974 bound_to 7965
  155.4003  140.3437  155.4256 H   0  0  0  0  0  0  0  0  0  0  0  0  # atno 8008 bound_to 7997
  156.1507  140.1570  156.8806 H   0  0  0  0  0  0  0  0  0  0  0  0  # atno 8009 bound_to 7997
  154.5050  140.0804  156.7857 H   0  0  0  0  0  0  0  0  0  0  0  0  # atno 8010 bound_to 7997
  139.5557  144.6847  151.4188 H   0  0  0  0  0  0  0  0  0  0  0  0  # atno 10167 bound_to 10162
  157.2624  130.7168  149.6461 H   0  0  0  0  0  0  0  0  0  0  0  0  # atno 10718 bound_to 10713
  154.8748  135.3818  154.4306 H   0  0  0  0  0  0  0  0  0  0  0  0  # atno 10763 bound_to 10752
  153.5000  135.7030  153.5842 H   0  0  0  0  0  0  0  0  0  0  0  0  # atno 10764 bound_to 10752
  153.4178  135.3909  155.2058 H   0  0  0  0  0  0  0  0  0  0  0  0  # atno 10765 bound_to 10752
  141.1106  133.6611  156.4575 H   0  0  0  0  0  0  0  0  0  0  0  0  # atno 11005 bound_to 11000
  145.7190  139.1704  143.2495 LP  0  0  0  0  0  0  0  0  0  0  0  0  # atno 17320 bound_to 7965
  146.1291  140.7209  142.9421 LP  0  0  0  0  0  0  0  0  0  0  0  0  # atno 17321 bound_to 7965
  140.6830  143.8039  150.7147 LP  0  0  0  0  0  0  0  0  0  0  0  0  # atno 17342 bound_to 10162
  140.1498  143.4368  152.2139 LP  0  0  0  0  0  0  0  0  0  0  0  0  # atno 17343 bound_to 10162
  155.9664  130.4393  150.5254 LP  0  0  0  0  0  0  0  0  0  0  0  0  # atno 17370 bound_to 10713
  157.3161  131.0673  151.1966 LP  0  0  0  0  0  0  0  0  0  0  0  0  # atno 17371 bound_to 10713
  140.4784  134.6688  157.5160 LP  0  0  0  0  0  0  0  0  0  0  0  0  # atno 17394 bound_to 11000
  139.9999  134.6853  155.9548 LP  0  0  0  0  0  0  0  0  0  0  0  0  # atno 17395 bound_to 11000

$$$$
