AV-unprocessed.smi:287|AV-procd|sdf|2198|dock6
  -GOLD-   2262022 03D 1   1.00000     0.00000
 Structure written by MMmdl.
 55 58  0  0  0  0  0  0  0  0  1 V2000
  152.1095  144.6987  158.9894 C   0  0  0  0  0  0  0  0  0  0  0  0
  152.4316  143.2583  159.1932 C   0  0  0  0  0  0  0  0  0  0  0  0
  152.1160  142.1160  158.5175 C   0  0  0  0  0  0  0  0  0  0  0  0
  152.7370  141.0294  159.2032 C   0  0  0  0  0  0  0  0  0  0  0  0
  152.6616  139.5586  158.8166 C   0  0  2  0  0  0  0  0  0  0  0  0
  153.6192  138.7424  159.6998 C   0  0  0  0  0  0  0  0  0  0  0  0
  153.0811  139.3223  157.4863 O   0  0  0  0  0  0  0  0  0  0  0  0
  151.2281  138.9876  158.9179 C   0  0  0  0  0  0  0  0  0  0  0  0
  151.1725  137.5490  158.6901 N   0  0  0  0  0  0  0  0  0  0  0  0
  150.0701  136.9695  158.1707 C   0  0  0  0  0  0  0  0  0  0  0  0
  148.9226  137.6764  158.3052 N   0  0  0  0  0  0  0  0  0  0  0  0
  147.7737  137.1918  157.8261 C   0  0  0  0  0  0  0  0  0  0  0  0
  147.5561  136.0410  157.1872 N   0  0  0  0  0  0  0  0  0  0  0  0
  148.7080  135.3232  157.0469 C   0  0  0  0  0  0  0  0  0  0  0  0
  150.0000  135.7097  157.5046 C   0  0  0  0  0  0  0  0  0  0  0  0
  150.9168  134.7187  157.1697 N   0  0  0  0  0  0  0  0  0  0  0  0
  150.2067  133.8109  156.5568 C   0  0  0  0  0  0  0  0  0  0  0  0
  148.8645  134.0988  156.4345 N   0  0  0  0  0  0  0  0  0  0  0  0
  147.7692  133.2966  155.7932 C   0  0  2  0  0  0  0  0  0  0  0  0
  148.2143  131.9797  155.6914 O   0  0  0  0  0  0  0  0  0  0  0  0
  148.6317  131.6626  154.3599 C   0  0  1  0  0  0  0  0  0  0  0  0
  147.7052  130.5256  153.8788 C   0  0  0  0  0  0  0  0  0  0  0  0
  148.2376  129.9378  152.7109 O   0  0  0  0  0  0  0  0  0  0  0  0
  148.5175  132.9883  153.5757 C   0  0  1  0  0  0  0  0  0  0  0  0
  148.1181  132.8246  152.2288 O   0  0  0  0  0  0  0  0  0  0  0  0
  147.4811  133.7715  154.3620 C   0  0  2  0  0  0  0  0  0  0  0  0
  147.6386  135.1662  154.1731 O   0  0  0  0  0  0  0  0  0  0  0  0
  153.3744  141.6097  160.2730 C   0  0  0  0  0  0  0  0  0  0  0  0
  154.1889  141.0780  161.4056 C   0  0  0  0  0  0  0  0  0  0  0  0
  153.1997  142.9607  160.2710 O   0  0  0  0  0  0  0  0  0  0  0  0
  146.9220  133.3827  156.4744 H   0  0  0  0  0  0  0  0  0  0  0  0
  149.6686  131.3235  154.3545 H   0  0  0  0  0  0  0  0  0  0  0  0
  149.4784  133.5050  153.6016 H   0  0  0  0  0  0  0  0  0  0  0  0
  146.4695  133.4593  154.0982 H   0  0  0  0  0  0  0  0  0  0  0  0
  151.6050  144.8531  158.0354 H   0  0  0  0  0  0  0  0  0  0  0  0
  153.0172  145.3027  158.9924 H   0  0  0  0  0  0  0  0  0  0  0  0
  151.4553  145.0640  159.7811 H   0  0  0  0  0  0  0  0  0  0  0  0
  151.5125  142.0651  157.6232 H   0  0  0  0  0  0  0  0  0  0  0  0
  153.3565  138.8333  160.7545 H   0  0  0  0  0  0  0  0  0  0  0  0
  154.6497  139.0831  159.5882 H   0  0  0  0  0  0  0  0  0  0  0  0
  153.5928  137.6817  159.4463 H   0  0  0  0  0  0  0  0  0  0  0  0
  152.9929  138.3995  157.3036 H   0  0  0  0  0  0  0  0  0  0  0  0
  150.7796  139.2363  159.8807 H   0  0  0  0  0  0  0  0  0  0  0  0
  150.6140  139.4608  158.1505 H   0  0  0  0  0  0  0  0  0  0  0  0
  152.0308  137.0466  158.8664 H   0  0  0  0  0  0  0  0  0  0  0  0
  146.9051  137.8160  157.9749 H   0  0  0  0  0  0  0  0  0  0  0  0
  150.6518  132.9039  156.1760 H   0  0  0  0  0  0  0  0  0  0  0  0
  147.5619  129.7707  154.6526 H   0  0  0  0  0  0  0  0  0  0  0  0
  146.7205  130.9058  153.6078 H   0  0  0  0  0  0  0  0  0  0  0  0
  148.5258  130.6269  152.1323 H   0  0  0  0  0  0  0  0  0  0  0  0
  148.5949  132.0937  151.8654 H   0  0  0  0  0  0  0  0  0  0  0  0
  147.9641  135.3150  153.2982 H   0  0  0  0  0  0  0  0  0  0  0  0
  153.6621  140.2703  161.9137 H   0  0  0  0  0  0  0  0  0  0  0  0
  154.3986  141.8554  162.1408 H   0  0  0  0  0  0  0  0  0  0  0  0
  155.1417  140.6890  161.0465 H   0  0  0  0  0  0  0  0  0  0  0  0
  1  2  1  0  0  0  0
  1 35  1  0  0  0  0
  1 36  1  0  0  0  0
  1 37  1  0  0  0  0
  2 30  1  0  0  0  0
  2  3  2  0  0  0  0
  3  4  1  0  0  0  0
  3 38  1  0  0  0  0
  4  5  1  0  0  0  0
  4 28  2  0  0  0  0
  5  6  1  0  0  0  0
  5  7  1  0  0  0  0
  5  8  1  0  0  0  0
  6 39  1  0  0  0  0
  6 40  1  0  0  0  0
  6 41  1  0  0  0  0
  7 42  1  0  0  0  0
  8  9  1  0  0  0  0
  8 43  1  0  0  0  0
  8 44  1  0  0  0  0
  9 10  1  0  0  0  0
  9 45  1  0  0  0  0
 10 15  1  0  0  0  0
 10 11  2  0  0  0  0
 11 12  1  0  0  0  0
 12 13  2  0  0  0  0
 12 46  1  0  0  0  0
 13 14  1  0  0  0  0
 14 18  1  0  0  0  0
 14 15  2  0  0  0  0
 15 16  1  0  0  0  0
 16 17  2  0  0  0  0
 17 18  1  0  0  0  0
 17 47  1  0  0  0  0
 18 19  1  0  0  0  0
 19 31  1  0  0  0  0
 19 26  1  0  0  0  0
 19 20  1  0  0  0  0
 20 21  1  0  0  0  0
 21 32  1  0  0  0  0
 21 22  1  0  0  0  0
 21 24  1  0  0  0  0
 22 23  1  0  0  0  0
 22 48  1  0  0  0  0
 22 49  1  0  0  0  0
 23 50  1  0  0  0  0
 24 33  1  0  0  0  0
 24 25  1  0  0  0  0
 24 26  1  0  0  0  0
 25 51  1  0  0  0  0
 26 34  1  0  0  0  0
 26 27  1  0  0  0  0
 27 52  1  0  0  0  0
 28 29  1  0  0  0  0
 28 30  1  0  0  0  0
 29 53  1  0  0  0  0
 29 54  1  0  0  0  0
 29 55  1  0  0  0  0
M  END
> <s_m_source_file>
AV-unprocessed.smi

> <i_m_source_file_index>
287

> <i_lp_mmshare_version>
43012

> <i_f3d_flags>
0

> <s_epik_input>
W0NIM11jMVtjSF1jKGMobzEpW0NIM10pW0NAQF0oW0NIM10pKFtPSF0pW0NIMl1bTkhdYyhuW2NIXW4yKWMoYzIzKW5bY0hdbjNbQ0BASF00T1tDQEhdKFtDSDJdW09IXSlbQ0BASF0oW09IXSlbQ0BIXTRbT0hd

> <s_epik_cmdline>
J2VwaWtfcHl0aG9uJywgJy1waCcsICc3LjAnLCAnLXRuJywgJzgnLCAnLW1hJywgJzIwMCcsICctbWV0YWxfYmluZGluZycsICctaW1hZScsICc8aW5maWxlLm1hZT4nLCAnLW9tYWUnLCAnPG91dGZpbGUubWFlPic=

> <r_lp_tautomer_probability>
1

> <r_epik_Ionization_Penalty>
0.000992612

> <r_epik_Ionization_Penalty_Charging>
0

> <r_epik_Ionization_Penalty_Neutral>
0.000992612

> <r_epik_State_Penalty>
-0

> <r_epik_Charging_Adjusted_Penalty>
0

> <i_epik_Tot_Q>
0

> <i_epik_Tot_abs_Q>
0

> <r_epik_Metal_State_Penalty>
-0

> <b_epik_Metal_Only>
0

> <s_epik_Chemistry_Notes>
This compound contains an acetal/aminal-like group ( X-CH(R)-Y where X, Y are N, S, or O) that may be acid/base labile, releasing an aldehyde.

> <s_lp_Force_Field>
OPLS_2005

> <r_lp_Energy>
45.8493

> <b_lp_Chiralities_Consistent>
1

> <s_lp_Variant>
AV-unprocessed.smi:287-22

> <Gold.Version>
5.8.1

> <Gold.Id.Protein>
6NUR|6NUR_protein|mol2

> <Gold.PLP.Fitness>
49.9739

> <Gold.PLP.PLP>
-42.4546

> <Gold.PLP.part.hbond>
-5.0000

> <Gold.PLP.part.metal>
0.0000

> <Gold.PLP.part.buried>
-5.7233

> <Gold.PLP.part.nonpolar>
-31.4619

> <Gold.PLP.part.repulsive>
0.1216

> <Gold.PLP.ligand.clash>
1.7236

> <Gold.PLP.ligand.torsion>
1.1490

> <Gold.PLP.Chemscore.Hbond>
3.7941

> <Gold.PLP.Chemscore.CHOScore>
0.0000

> <Gold.PLP.Chemscore.Metal>
0.0000

> <Gold.Chemscore.Hbonds>
donor molecule, donor type, donor heavy atom, donor atom, acceptor molecule, acceptor atom, score
      L1  H    23    50       P1 10747  0.75
      L1  H    25    51       P1 10747  0.98
      L1  H    27    52       P1  7948  1.00
      P1  H  6896  6908       L1    16  0.07
      P1  H  7997  8008       L1     7  1.00

> <Gold.PLP.Chemscore.Internal.Correction>
0.1586

> <Gold.Rescore>
     Score         DG    S(hbond)    S(metal)    S(lipo)     H(rot)  DE(clash)    DE(int)     intcor
     13.72     -16.01       3.78        0.00      97.35       5.27       0.00       2.29       ----

> <Gold.Chemscore.Fitness>
13.7235

> <Gold.Chemscore.DG>
-16.0131

> <Gold.Chemscore.ZeroCoef>
-5.4800

> <Gold.Chemscore.Hbond>
3.7805

> <Gold.Chemscore.Metal>
0.0000

> <Gold.Chemscore.Lipo>
97.3520

> <Gold.Chemscore.Internal_Hbond>
0.0000

> <Gold.Chemscore.DEClash>
0.0000

> <Gold.Chemscore.DEInternal>
2.2896

> <Gold.Chemscore.Rot>
5.2672

> <Gold.Chemscore.Internal.Correction>
   9.000000E+99

> <Gold.Chemscore.Hbonds>
donor molecule, donor type, donor heavy atom, donor atom, acceptor molecule, acceptor atom, score
      L1  H    23    50       P1 10747  0.65
      L1  H    25    51       P1 10747  0.87
      L1  H    27    52       P1  7948  0.98
      P1  H  7997  8008       L1     7  0.85

> <Gold.Chemscore.Hbond.Weighted>
-12.6269

> <Gold.Chemscore.Metal.Weighted>
-0.0000

> <Gold.Chemscore.Lipo.Weighted>
-11.3902

> <Gold.Chemscore.Internal_Hbond.Weighted>
0.0000

> <Gold.Chemscore.DEClash.Weighted>
0.0000

> <Gold.Chemscore.DEInternal.Weighted>
2.2896

> <Gold.Chemscore.Rot.Weighted>
13.4839

> <Gold.Chemscore.Internal.Correction.Weighted>
   9.000000E+99

> <Gold.Protein.RotatedTorsions>
[ 6907 6896 6895 6894 ] final  113.92 input  -60.11 | X-H torsion
[ 7974 7965 7964 7962 ] final  -88.00 input  175.53 | X-H torsion
[ 8008 7997 7996 7995 ] final  -85.00 input   59.86 | X-H torsion
[ 10167 10162 10161 10158 ] final  -55.65 input  -65.29 | X-H torsion
[ 10718 10713 10712 10709 ] final -155.24 input   66.30 | X-H torsion
[ 10763 10752 10751 10750 ] final   30.70 input  -60.55 | X-H torsion
[ 11005 11000 10999 10996 ] final -100.03 input  -57.11 | X-H torsion

> <Gold.Protein.ActiveResidues>
 VAL166  LYS551  ARG553  GLY616  TRP617  ASP618  TYR619  PRO620  LYS621  CYS622 
 ASP623  PHE694  ASN695  SER759  ASP760  ASP761  ALA762  ILE779  LEU786  VAL792 
 PHE793  MET794  SER795  GLU796  ALA797  LYS798  CYS799  TRP800  GLU811  SER814 

> <Gold.Protein.RotatedAtoms>
  152.4832  133.8308  159.7101 H   0  0  0  0  0  0  0  0  0  0  0  0  # atno 6907 bound_to 6896
  150.8898  133.7248  159.2914 H   0  0  0  0  0  0  0  0  0  0  0  0  # atno 6908 bound_to 6896
  151.4725  135.1050  159.9807 H   0  0  0  0  0  0  0  0  0  0  0  0  # atno 6909 bound_to 6896
  145.4590  140.9561  143.1980 H   0  0  0  0  0  0  0  0  0  0  0  0  # atno 7974 bound_to 7965
  154.6359  140.0597  156.9788 H   0  0  0  0  0  0  0  0  0  0  0  0  # atno 8008 bound_to 7997
  155.1592  140.3281  155.4396 H   0  0  0  0  0  0  0  0  0  0  0  0  # atno 8009 bound_to 7997
  156.2507  140.1933  156.6700 H   0  0  0  0  0  0  0  0  0  0  0  0  # atno 8010 bound_to 7997
  140.6362  143.2483  151.5111 H   0  0  0  0  0  0  0  0  0  0  0  0  # atno 10167 bound_to 10162
  156.5102  130.8431  151.2643 H   0  0  0  0  0  0  0  0  0  0  0  0  # atno 10718 bound_to 10713
  153.0357  135.6457  154.1085 H   0  0  0  0  0  0  0  0  0  0  0  0  # atno 10763 bound_to 10752
  154.0800  135.2874  155.3294 H   0  0  0  0  0  0  0  0  0  0  0  0  # atno 10764 bound_to 10752
  154.6536  135.5417  153.7996 H   0  0  0  0  0  0  0  0  0  0  0  0  # atno 10765 bound_to 10752
  141.1286  133.8367  157.1050 H   0  0  0  0  0  0  0  0  0  0  0  0  # atno 11005 bound_to 11000
  144.8014  139.6133  143.7070 LP  0  0  0  0  0  0  0  0  0  0  0  0  # atno 17320 bound_to 7965
  146.2462  139.6102  142.9458 LP  0  0  0  0  0  0  0  0  0  0  0  0  # atno 17321 bound_to 7965
  139.5573  144.2244  152.1633 LP  0  0  0  0  0  0  0  0  0  0  0  0  # atno 17342 bound_to 10162
  140.1502  144.5122  150.6692 LP  0  0  0  0  0  0  0  0  0  0  0  0  # atno 17343 bound_to 10162
  157.7451  130.9952  150.2736 LP  0  0  0  0  0  0  0  0  0  0  0  0  # atno 17370 bound_to 10713
  156.3248  130.3791  149.7543 LP  0  0  0  0  0  0  0  0  0  0  0  0  # atno 17371 bound_to 10713
  140.0310  134.9901  157.0780 LP  0  0  0  0  0  0  0  0  0  0  0  0  # atno 17394 bound_to 11000
  140.4285  134.1805  155.7167 LP  0  0  0  0  0  0  0  0  0  0  0  0  # atno 17395 bound_to 11000

$$$$
