AV-unprocessed.smi:72|AV-procd|sdf|678|dock7
  -GOLD-   2262016583D 1   1.00000     0.00000
 Structure written by MMmdl.
 29 30  0  0  0  0  0  0  0  0  1 V2000
  152.9196  138.4791  157.1495 N   0  0  0  0  0  0  0  0  0  0  0  0
  151.9891  138.9991  156.4313 C   0  0  0  0  0  0  0  0  0  0  0  0
  151.5175  138.4797  155.2159 N   0  0  0  0  0  0  0  0  0  0  0  0
  150.5797  139.1198  154.5881 C   0  0  0  0  0  0  0  0  0  0  0  0
  150.0074  140.3547  155.1002 N   0  0  0  0  0  0  0  0  0  0  0  0
  148.9158  141.0762  154.3441 C   0  0  1  0  0  0  0  0  0  0  0  0
  148.5335  140.2943  153.2514 O   0  0  0  0  0  0  0  0  0  0  0  0
  147.1141  140.2773  153.1460 C   0  0  1  0  0  0  0  0  0  0  0  0
  146.6646  139.0047  152.4120 C   0  0  0  0  0  0  0  0  0  0  0  0
  146.7981  139.1757  151.0173 O   0  0  0  0  0  0  0  0  0  0  0  0
  146.6774  140.3262  154.6114 C   0  0  2  0  0  0  0  0  0  0  0  0
  145.3310  140.7297  154.7776 O   0  0  0  0  0  0  0  0  0  0  0  0
  147.6823  141.2910  155.2357 C   0  0  2  0  0  0  0  0  0  0  0  0
  147.2505  142.6381  155.1814 O   0  0  0  0  0  0  0  0  0  0  0  0
  150.4490  140.8762  156.3403 C   0  0  0  0  0  0  0  0  0  0  0  0
  149.9707  141.8935  156.8414 O   0  0  0  0  0  0  0  0  0  0  0  0
  151.4313  140.1766  156.9489 N   0  0  0  0  0  0  0  0  0  0  0  0
  149.3486  142.0035  153.9655 H   0  0  0  0  0  0  0  0  0  0  0  0
  146.7765  141.1785  152.6296 H   0  0  0  0  0  0  0  0  0  0  0  0
  146.8054  139.3407  155.0617 H   0  0  0  0  0  0  0  0  0  0  0  0
  147.8946  141.0367  156.2751 H   0  0  0  0  0  0  0  0  0  0  0  0
  153.2737  137.6380  156.7183 H   0  0  0  0  0  0  0  0  0  0  0  0
  150.1597  138.7743  153.6426 H   0  0  0  0  0  0  0  0  0  0  0  0
  147.2308  138.1340  152.7445 H   0  0  0  0  0  0  0  0  0  0  0  0
  145.6125  138.8048  152.6169 H   0  0  0  0  0  0  0  0  0  0  0  0
  147.7008  139.3779  150.8242 H   0  0  0  0  0  0  0  0  0  0  0  0
  144.8663  140.5633  153.9719 H   0  0  0  0  0  0  0  0  0  0  0  0
  147.9678  143.1939  155.4455 H   0  0  0  0  0  0  0  0  0  0  0  0
  151.7729  140.5271  157.8317 H   0  0  0  0  0  0  0  0  0  0  0  0
  1  2  2  0  0  0  0
  1 22  1  0  0  0  0
  2 17  1  0  0  0  0
  2  3  1  0  0  0  0
  3  4  2  0  0  0  0
  4  5  1  0  0  0  0
  4 23  1  0  0  0  0
  5  6  1  0  0  0  0
  5 15  1  0  0  0  0
  6 18  1  0  0  0  0
  6 13  1  0  0  0  0
  6  7  1  0  0  0  0
  7  8  1  0  0  0  0
  8 19  1  0  0  0  0
  8  9  1  0  0  0  0
  8 11  1  0  0  0  0
  9 10  1  0  0  0  0
  9 24  1  0  0  0  0
  9 25  1  0  0  0  0
 10 26  1  0  0  0  0
 11 20  1  0  0  0  0
 11 12  1  0  0  0  0
 11 13  1  0  0  0  0
 12 27  1  0  0  0  0
 13 21  1  0  0  0  0
 13 14  1  0  0  0  0
 14 28  1  0  0  0  0
 15 16  2  0  0  0  0
 15 17  1  0  0  0  0
 17 29  1  0  0  0  0
M  END
> <s_m_source_file>
AV-unprocessed.smi

> <i_m_source_file_index>
72

> <i_lp_mmshare_version>
43012

> <i_f3d_flags>
0

> <s_epik_input>
W05IMl1jMW5bY0hdbihjKD1PKW4xKVtDQEBIXTJPW0NASF0oW0NIMl1bT0hdKVtDQEBIXShbT0hdKVtDQEhdMltPSF0=

> <s_epik_cmdline>
J2VwaWtfcHl0aG9uJywgJy1waCcsICc3LjAnLCAnLXRuJywgJzgnLCAnLW1hJywgJzIwMCcsICctbWV0YWxfYmluZGluZycsICctaW1hZScsICc8aW5maWxlLm1hZT4nLCAnLW9tYWUnLCAnPG91dGZpbGUubWFlPic=

> <r_lp_tautomer_probability>
7.17554e-07

> <r_epik_Ionization_Penalty>
0.0066451

> <r_epik_Ionization_Penalty_Charging>
0.00663793

> <r_epik_Ionization_Penalty_Neutral>
7.17052e-06

> <r_epik_State_Penalty>
0.419231

> <r_epik_Charging_Adjusted_Penalty>
0.425868

> <i_epik_Tot_Q>
0

> <i_epik_Tot_abs_Q>
0

> <r_epik_Metal_State_Penalty>
1.44144

> <b_epik_Metal_Only>
0

> <s_epik_Chemistry_Notes>
This compound contains an acetal/aminal-like group ( X-CH(R)-Y where X, Y are N, S, or O) that may be acid/base labile, releasing an aldehyde.

> <s_lp_Force_Field>
OPLS_2005

> <r_lp_Energy>
43.4665

> <b_lp_Chiralities_Consistent>
1

> <s_lp_Variant>
AV-unprocessed.smi:72-16

> <Gold.Version>
5.8.1

> <Gold.Id.Protein>
6NUR|6NUR_protein|mol2

> <Gold.PLP.Fitness>
38.3246

> <Gold.PLP.PLP>
-24.5464

> <Gold.PLP.part.hbond>
-5.4629

> <Gold.PLP.part.metal>
0.0000

> <Gold.PLP.part.buried>
-1.0855

> <Gold.PLP.part.nonpolar>
-21.4376

> <Gold.PLP.part.repulsive>
5.3961

> <Gold.PLP.ligand.clash>
0.0000

> <Gold.PLP.ligand.torsion>
0.2312

> <Gold.PLP.Chemscore.Hbond>
3.9600

> <Gold.PLP.Chemscore.CHOScore>
0.7822

> <Gold.PLP.Chemscore.Metal>
0.0000

> <Gold.Chemscore.Hbonds>
donor molecule, donor type, donor heavy atom, donor atom, acceptor molecule, acceptor atom, score
      L1  H    10    26       P1  7957  1.00
      L1  H    12    27       P1 10175  1.00
      L1  H    14    28       P1  8028  1.00
      P1  H  7997  8009       L1     1  0.47
      L1  C     4    23       P1  7957  0.26

> <Gold.PLP.Chemscore.Internal.Correction>
0.0140

> <Gold.Rescore>
     Score         DG    S(hbond)    S(metal)    S(lipo)     H(rot)  DE(clash)    DE(int)     intcor
      4.02      -6.19       2.51        0.00      23.34       4.06       1.82       0.34       ----

> <Gold.Chemscore.Fitness>
4.0190

> <Gold.Chemscore.DG>
-6.1858

> <Gold.Chemscore.ZeroCoef>
-5.4800

> <Gold.Chemscore.Hbond>
2.5057

> <Gold.Chemscore.Metal>
0.0000

> <Gold.Chemscore.Lipo>
23.3375

> <Gold.Chemscore.Internal_Hbond>
0.0000

> <Gold.Chemscore.DEClash>
1.8230

> <Gold.Chemscore.DEInternal>
0.3438

> <Gold.Chemscore.Rot>
4.0600

> <Gold.Chemscore.Internal.Correction>
   9.000000E+99

> <Gold.Chemscore.Hbonds>
donor molecule, donor type, donor heavy atom, donor atom, acceptor molecule, acceptor atom, score
      L1  H    10    26       P1  7957  0.43
      L1  H    12    27       P1 10175  1.00
      L1  H    14    28       P1  8028  0.69
      P1  H  7997  8009       L1     1  0.07

> <Gold.Chemscore.Hbond.Weighted>
-8.3689

> <Gold.Chemscore.Metal.Weighted>
-0.0000

> <Gold.Chemscore.Lipo.Weighted>
-2.7305

> <Gold.Chemscore.Internal_Hbond.Weighted>
0.0000

> <Gold.Chemscore.DEClash.Weighted>
1.8230

> <Gold.Chemscore.DEInternal.Weighted>
0.3438

> <Gold.Chemscore.Rot.Weighted>
10.3936

> <Gold.Chemscore.Internal.Correction.Weighted>
   9.000000E+99

> <Gold.Protein.RotatedTorsions>
[ 6907 6896 6895 6894 ] final  -85.12 input  -60.11 | X-H torsion
[ 7974 7965 7964 7962 ] final  -69.52 input  175.53 | X-H torsion
[ 8008 7997 7996 7995 ] final  159.56 input   59.86 | X-H torsion
[ 10167 10162 10161 10158 ] final    0.06 input  -65.29 | X-H torsion
[ 10718 10713 10712 10709 ] final  -42.72 input   66.30 | X-H torsion
[ 10763 10752 10751 10750 ] final  -32.83 input  -60.55 | X-H torsion
[ 11005 11000 10999 10996 ] final  -85.82 input  -57.11 | X-H torsion

> <Gold.Protein.ActiveResidues>
 VAL166  LYS551  ARG553  GLY616  TRP617  ASP618  TYR619  PRO620  LYS621  CYS622 
 ASP623  PHE694  ASN695  SER759  ASP760  ASP761  ALA762  ILE779  LEU786  VAL792 
 PHE793  MET794  SER795  GLU796  ALA797  LYS798  CYS799  TRP800  GLU811  SER814 

> <Gold.Protein.RotatedAtoms>
  150.6872  134.3254  159.4803 H   0  0  0  0  0  0  0  0  0  0  0  0  # atno 6907 bound_to 6896
  152.1124  134.9262  160.0575 H   0  0  0  0  0  0  0  0  0  0  0  0  # atno 6908 bound_to 6896
  152.0499  133.3980  159.4409 H   0  0  0  0  0  0  0  0  0  0  0  0  # atno 6909 bound_to 6896
  145.7027  140.9110  143.0722 H   0  0  0  0  0  0  0  0  0  0  0  0  # atno 7974 bound_to 7965
  156.2231  140.1828  156.7429 H   0  0  0  0  0  0  0  0  0  0  0  0  # atno 8008 bound_to 7997
  154.5897  140.0653  156.9249 H   0  0  0  0  0  0  0  0  0  0  0  0  # atno 8009 bound_to 7997
  155.2358  140.3318  155.4300 H   0  0  0  0  0  0  0  0  0  0  0  0  # atno 8010 bound_to 7997
  140.6746  143.6953  150.7994 H   0  0  0  0  0  0  0  0  0  0  0  0  # atno 10167 bound_to 10162
  156.2566  130.4193  149.8589 H   0  0  0  0  0  0  0  0  0  0  0  0  # atno 10718 bound_to 10713
  153.8202  135.6875  153.4828 H   0  0  0  0  0  0  0  0  0  0  0  0  # atno 10763 bound_to 10752
  153.1574  135.4593  154.9721 H   0  0  0  0  0  0  0  0  0  0  0  0  # atno 10764 bound_to 10752
  154.7931  135.3309  154.7675 H   0  0  0  0  0  0  0  0  0  0  0  0  # atno 10765 bound_to 10752
  141.1637  133.7420  156.9071 H   0  0  0  0  0  0  0  0  0  0  0  0  # atno 11005 bound_to 11000
  144.6964  139.8969  143.7456 LP  0  0  0  0  0  0  0  0  0  0  0  0  # atno 17320 bound_to 7965
  146.0783  139.3771  143.0480 LP  0  0  0  0  0  0  0  0  0  0  0  0  # atno 17321 bound_to 7965
  140.0644  143.5122  152.2611 LP  0  0  0  0  0  0  0  0  0  0  0  0  # atno 17342 bound_to 10162
  139.6031  144.7588  151.3125 LP  0  0  0  0  0  0  0  0  0  0  0  0  # atno 17343 bound_to 10162
  156.6119  130.8590  151.3456 LP  0  0  0  0  0  0  0  0  0  0  0  0  # atno 17370 bound_to 10713
  157.7235  130.9590  150.1536 LP  0  0  0  0  0  0  0  0  0  0  0  0  # atno 17371 bound_to 10713
  140.1543  134.9209  157.2633 LP  0  0  0  0  0  0  0  0  0  0  0  0  # atno 17394 bound_to 11000
  140.2686  134.3487  155.7381 LP  0  0  0  0  0  0  0  0  0  0  0  0  # atno 17395 bound_to 11000

$$$$
