AV-unprocessed.smi:2655|AV-procd|sdf|10304|dock5
  -GOLD-   2272014323D 1   1.00000     0.00000
 Structure written by MMmdl.
 33 34  0  0  0  0  0  0  0  0  2 V2000
  149.9864  141.2877  155.7331 C   0  0  0  0  0  0  0  0  0  0  0  0
  150.1404  139.9745  155.0206 C   0  0  0  0  0  0  0  0  0  0  0  0
  149.2333  139.6238  154.1138 N   0  0  0  0  0  0  0  0  0  0  0  0
  149.6477  138.4208  153.6737 N   0  0  0  0  0  0  0  0  0  0  0  0
  150.8031  138.0249  154.2975 C   0  0  0  0  0  0  0  0  0  0  0  0
  151.3893  136.8342  153.9993 O   0  0  0  0  0  0  0  0  0  0  0  0
  151.1725  138.9976  155.1801 C   0  0  0  0  0  0  0  0  0  0  0  0
  152.3645  139.0369  156.0986 C   0  0  0  0  0  0  0  0  0  0  0  0
  151.9407  139.0477  157.5732 C   0  0  0  0  0  0  0  0  0  0  0  0
  151.1775  137.8492  157.8963 N   0  0  0  0  0  0  0  0  0  0  0  0
  150.0169  137.8296  158.5654 C   0  0  0  0  0  0  0  0  0  0  0  0
  149.5150  138.8871  158.9536 O   0  0  0  0  0  0  0  0  0  0  0  0
  149.5102  136.5872  158.7430 N   0  5  0  0  0  0  0  0  0  0  0  0
  148.7523  136.3130  159.8160 C   0  0  0  0  0  0  0  0  0  0  0  0
  148.1944  135.0474  160.1457 C   0  0  0  0  0  0  0  0  0  0  0  0
  147.5372  135.2916  161.3180 C   0  0  0  0  0  0  0  0  0  0  0  0
  146.7292  134.4267  162.2243 C   0  0  0  0  0  0  0  0  0  0  0  0
  147.6874  136.5938  161.6808 O   0  0  0  0  0  0  0  0  0  0  0  0
  148.4716  137.2392  160.7173 N   0  0  0  0  0  0  0  0  0  0  0  0
  150.5569  141.3053  156.6617 H   0  0  0  0  0  0  0  0  0  0  0  0
  148.9437  141.4814  155.9866 H   0  0  0  0  0  0  0  0  0  0  0  0
  150.3380  142.1117  155.1122 H   0  0  0  0  0  0  0  0  0  0  0  0
  149.1420  137.9043  152.9681 H   0  0  0  0  0  0  0  0  0  0  0  0
  152.9750  139.9169  155.8926 H   0  0  0  0  0  0  0  0  0  0  0  0
  153.0141  138.1797  155.9183 H   0  0  0  0  0  0  0  0  0  0  0  0
  152.8214  139.1013  158.2151 H   0  0  0  0  0  0  0  0  0  0  0  0
  151.3320  139.9284  157.7836 H   0  0  0  0  0  0  0  0  0  0  0  0
  151.5578  136.9644  157.5934 H   0  0  0  0  0  0  0  0  0  0  0  0
  148.2630  134.1145  159.6064 H   0  0  0  0  0  0  0  0  0  0  0  0
  147.3290  133.5989  162.6024 H   0  0  0  0  0  0  0  0  0  0  0  0
  145.8717  134.0104  161.6954 H   0  0  0  0  0  0  0  0  0  0  0  0
  146.3567  134.9915  163.0792 H   0  0  0  0  0  0  0  0  0  0  0  0
  150.9686  136.4882  153.2277 H   0  0  0  0  0  0  0  0  0  0  0  0
  1 20  1  0  0  0  0
  1 21  1  0  0  0  0
  1 22  1  0  0  0  0
  1  2  1  0  0  0  0
  2  7  1  0  0  0  0
  2  3  2  0  0  0  0
  3  4  1  0  0  0  0
  4 23  1  0  0  0  0
  4  5  1  0  0  0  0
  5  7  2  0  0  0  0
  5  6  1  0  0  0  0
  6 33  1  0  0  0  0
  7  8  1  0  0  0  0
  8  9  1  0  0  0  0
  8 24  1  0  0  0  0
  8 25  1  0  0  0  0
  9 10  1  0  0  0  0
  9 26  1  0  0  0  0
  9 27  1  0  0  0  0
 10 11  1  0  0  0  0
 10 28  1  0  0  0  0
 11 12  2  0  0  0  0
 11 13  1  0  0  0  0
 13 14  1  0  0  0  0
 14 19  2  0  0  0  0
 14 15  1  0  0  0  0
 15 16  2  0  0  0  0
 15 29  1  0  0  0  0
 16 17  1  0  0  0  0
 16 18  1  0  0  0  0
 17 30  1  0  0  0  0
 17 31  1  0  0  0  0
 17 32  1  0  0  0  0
 18 19  1  0  0  0  0
M  CHG  1  13  -1
M  END
> <s_m_source_file>
AV-unprocessed.smi

> <i_m_source_file_index>
2655

> <i_lp_mmshare_version>
43012

> <i_f3d_flags>
0

> <s_epik_input>
W0NIM11DMT1OW05IXUMoPU8pW0NASF0xW0NIMl1bQ0gyXVtOSF1DKD1PKVtOSF1jMltjSF1jKFtDSDNdKW9uMg==

> <s_epik_cmdline>
J2VwaWtfcHl0aG9uJywgJy1waCcsICc3LjAnLCAnLXRuJywgJzgnLCAnLW1hJywgJzIwMCcsICctbWV0YWxfYmluZGluZycsICctaW1hZScsICc8aW5maWxlLm1hZT4nLCAnLW9tYWUnLCAnPG91dGZpbGUubWFlPic=

> <r_lp_tautomer_probability>
0.0227396

> <r_epik_Ionization_Penalty>
10.1454

> <r_epik_Ionization_Penalty_Charging>
6.5559

> <r_epik_Ionization_Penalty_Neutral>
3.58948

> <r_epik_State_Penalty>
8.16616

> <r_epik_Charging_Adjusted_Penalty>
14.7221

> <i_epik_Tot_Q>
-1

> <i_epik_Tot_abs_Q>
1

> <r_epik_Metal_State_Penalty>
5.48631

> <b_epik_Metal_Only>
1

> <s_lp_Force_Field>
OPLS_2005

> <r_lp_Energy>
-4.29972

> <b_lp_Chiralities_Consistent>
1

> <s_lp_Variant>
AV-unprocessed.smi:2655-7

> <Gold.Version>
5.8.1

> <Gold.Id.Protein>
6NUR|6NUR_protein|mol2

> <Gold.PLP.Fitness>
43.5173

> <Gold.PLP.PLP>
-33.4324

> <Gold.PLP.part.hbond>
-8.4993

> <Gold.PLP.part.metal>
0.0000

> <Gold.PLP.part.buried>
-3.4469

> <Gold.PLP.part.nonpolar>
-23.0691

> <Gold.PLP.part.repulsive>
1.2212

> <Gold.PLP.ligand.clash>
0.0000

> <Gold.PLP.ligand.torsion>
0.2653

> <Gold.PLP.Chemscore.Hbond>
3.5201

> <Gold.PLP.Chemscore.CHOScore>
0.0000

> <Gold.PLP.Chemscore.Metal>
0.0000

> <Gold.Chemscore.Hbonds>
donor molecule, donor type, donor heavy atom, donor atom, acceptor molecule, acceptor atom, score
      L1  H     4    23       P1  7948  0.96
      L1  H     6    33       P1  7949  0.84
      P1  H  6931  6943       L1    19  0.40
      P1  H  6934  6947       L1    19  0.15
      P1  H 10752 10765       L1     6  1.00

> <Gold.PLP.Chemscore.Internal.Correction>
0.0551

> <Gold.Rescore>
     Score         DG    S(hbond)    S(metal)    S(lipo)     H(rot)  DE(clash)    DE(int)     intcor
     11.52     -13.39       2.54        0.00      49.69       2.49       0.01       1.86       ----

> <Gold.Chemscore.Fitness>
11.5168

> <Gold.Chemscore.DG>
-13.3940

> <Gold.Chemscore.ZeroCoef>
-5.4800

> <Gold.Chemscore.Hbond>
2.5389

> <Gold.Chemscore.Metal>
0.0000

> <Gold.Chemscore.Lipo>
49.6945

> <Gold.Chemscore.Internal_Hbond>
0.0000

> <Gold.Chemscore.DEClash>
0.0149

> <Gold.Chemscore.DEInternal>
1.8624

> <Gold.Chemscore.Rot>
2.4922

> <Gold.Chemscore.Internal.Correction>
   9.000000E+99

> <Gold.Chemscore.Hbonds>
donor molecule, donor type, donor heavy atom, donor atom, acceptor molecule, acceptor atom, score
      L1  H     4    23       P1  7948  0.89
      L1  H     6    33       P1  7949  0.16
      P1  H  6931  6943       L1    19  0.02
      P1  H  6934  6947       L1    19  0.01
      P1  H 10752 10765       L1     6  0.44

> <Gold.Chemscore.Hbond.Weighted>
-8.4798

> <Gold.Chemscore.Metal.Weighted>
-0.0000

> <Gold.Chemscore.Lipo.Weighted>
-5.8143

> <Gold.Chemscore.Internal_Hbond.Weighted>
0.0000

> <Gold.Chemscore.DEClash.Weighted>
0.0149

> <Gold.Chemscore.DEInternal.Weighted>
1.8624

> <Gold.Chemscore.Rot.Weighted>
6.3800

> <Gold.Chemscore.Internal.Correction.Weighted>
   9.000000E+99

> <Gold.Protein.RotatedTorsions>
[ 6907 6896 6895 6894 ] final  104.14 input  -60.11 | X-H torsion
[ 7974 7965 7964 7962 ] final  144.64 input  175.53 | X-H torsion
[ 8008 7997 7996 7995 ] final  128.88 input   59.86 | X-H torsion
[ 10167 10162 10161 10158 ] final  111.44 input  -65.29 | X-H torsion
[ 10718 10713 10712 10709 ] final  -65.46 input   66.30 | X-H torsion
[ 10763 10752 10751 10750 ] final  160.00 input  -60.55 | X-H torsion
[ 11005 11000 10999 10996 ] final  103.28 input  -57.11 | X-H torsion

> <Gold.Protein.ActiveResidues>
 VAL166  LYS551  ARG553  GLY616  TRP617  ASP618  TYR619  PRO620  LYS621  CYS622 
 ASP623  PHE694  ASN695  SER759  ASP760  ASP761  ALA762  ILE779  LEU786  VAL792 
 PHE793  MET794  SER795  GLU796  ALA797  LYS798  CYS799  TRP800  GLU811  SER814 

> <Gold.Protein.RotatedAtoms>
  152.5274  133.9722  159.7766 H   0  0  0  0  0  0  0  0  0  0  0  0  # atno 6907 bound_to 6896
  150.9991  133.6065  159.2704 H   0  0  0  0  0  0  0  0  0  0  0  0  # atno 6908 bound_to 6896
  151.3181  135.0818  159.9349 H   0  0  0  0  0  0  0  0  0  0  0  0  # atno 6909 bound_to 6896
  144.8819  139.5686  143.5839 H   0  0  0  0  0  0  0  0  0  0  0  0  # atno 7974 bound_to 7965
  156.2924  140.2634  156.2507 H   0  0  0  0  0  0  0  0  0  0  0  0  # atno 8008 bound_to 7997
  154.9885  140.0389  157.2327 H   0  0  0  0  0  0  0  0  0  0  0  0  # atno 8009 bound_to 7997
  154.7707  140.2777  155.6145 H   0  0  0  0  0  0  0  0  0  0  0  0  # atno 8010 bound_to 7997
  139.6611  144.7128  151.1863 H   0  0  0  0  0  0  0  0  0  0  0  0  # atno 10167 bound_to 10162
  156.0668  130.4247  150.1568 H   0  0  0  0  0  0  0  0  0  0  0  0  # atno 10718 bound_to 10713
  154.2405  135.2775  155.2855 H   0  0  0  0  0  0  0  0  0  0  0  0  # atno 10763 bound_to 10752
  154.5549  135.5664  153.6958 H   0  0  0  0  0  0  0  0  0  0  0  0  # atno 10764 bound_to 10752
  153.0001  135.6283  154.2549 H   0  0  0  0  0  0  0  0  0  0  0  0  # atno 10765 bound_to 10752
  139.8783  134.9257  156.5186 H   0  0  0  0  0  0  0  0  0  0  0  0  # atno 11005 bound_to 11000
  146.3000  139.7396  142.9098 LP  0  0  0  0  0  0  0  0  0  0  0  0  # atno 17320 bound_to 7965
  145.3939  141.0376  143.3109 LP  0  0  0  0  0  0  0  0  0  0  0  0  # atno 17321 bound_to 7965
  140.7580  143.5993  150.8716 LP  0  0  0  0  0  0  0  0  0  0  0  0  # atno 17342 bound_to 10162
  139.9650  143.6121  152.2991 LP  0  0  0  0  0  0  0  0  0  0  0  0  # atno 17343 bound_to 10162
  156.9626  130.9810  151.3476 LP  0  0  0  0  0  0  0  0  0  0  0  0  # atno 17370 bound_to 10713
  157.5714  130.8313  149.8397 LP  0  0  0  0  0  0  0  0  0  0  0  0  # atno 17371 bound_to 10713
  140.8467  133.8163  155.9128 LP  0  0  0  0  0  0  0  0  0  0  0  0  # atno 17394 bound_to 11000
  140.9184  134.2172  157.4942 LP  0  0  0  0  0  0  0  0  0  0  0  0  # atno 17395 bound_to 11000

$$$$
