AV-unprocessed.smi:2881|AV-procd|sdf|11055|dock4
  -GOLD-   2272015523D 1   1.00000     0.00000
 Structure written by MMmdl.
 40 42  0  0  0  0  0  0  0  0  1 V2000
  147.0717  138.9435  152.8570 C   0  0  0  0  0  0  0  0  0  0  0  0
  148.2370  139.3800  153.6781 C   0  0  0  0  0  0  0  0  0  0  0  0
  148.9695  138.7265  154.6285 C   0  0  0  0  0  0  0  0  0  0  0  0
  149.9467  139.6816  155.0409 C   0  0  0  0  0  0  0  0  0  0  0  0
  151.0256  139.5187  156.0780 C   0  0  0  0  0  0  0  0  0  0  0  0
  150.7187  140.3807  157.3030 C   0  0  0  0  0  0  0  0  0  0  0  0
  149.7494  140.1163  158.0138 O   0  0  0  0  0  0  0  0  0  0  0  0
  151.5536  141.4055  157.5362 N   0  0  0  0  0  0  0  0  0  0  0  0
  151.4641  142.3314  158.6626 C   0  0  2  0  0  0  0  0  0  0  0  0
  150.8510  143.6750  158.2097 C   0  0  1  0  0  0  0  0  0  0  0  0
  150.4164  144.4663  159.4565 C   0  0  0  0  0  0  0  0  0  0  0  0
  151.7645  144.9048  160.0588 C   0  0  0  0  0  0  0  0  0  0  0  0
  152.7943  144.3002  159.0797 C   0  0  2  0  0  0  0  0  0  0  0  0
  152.0699  144.4707  157.7506 C   0  0  0  0  0  0  0  0  0  0  0  0
  152.8595  142.7578  159.1896 C   0  0  1  0  0  0  0  0  0  0  0  0
  153.2178  142.2216  160.5893 C   0  0  0  0  0  0  0  0  0  0  0  0
  153.6015  140.8660  160.5090 O   0  0  0  0  0  0  0  0  0  0  0  0
  149.8230  140.8359  154.4005 N   0  0  0  0  0  0  0  0  0  0  0  0
  148.7810  140.6389  153.5723 N   0  0  0  0  0  0  0  0  0  0  0  0
  148.4552  141.3645  152.9496 H   0  0  0  0  0  0  0  0  0  0  0  0
  146.9169  137.8678  152.9419 H   0  0  0  0  0  0  0  0  0  0  0  0
  147.2276  139.1791  151.8039 H   0  0  0  0  0  0  0  0  0  0  0  0
  146.1593  139.4425  153.1846 H   0  0  0  0  0  0  0  0  0  0  0  0
  148.8313  137.7142  154.9786 H   0  0  0  0  0  0  0  0  0  0  0  0
  151.1136  138.4776  156.3924 H   0  0  0  0  0  0  0  0  0  0  0  0
  151.9947  139.7970  155.6618 H   0  0  0  0  0  0  0  0  0  0  0  0
  152.3195  141.5463  156.8936 H   0  0  0  0  0  0  0  0  0  0  0  0
  150.8496  141.8930  159.4515 H   0  0  0  0  0  0  0  0  0  0  0  0
  150.0574  143.5746  157.4680 H   0  0  0  0  0  0  0  0  0  0  0  0
  149.8214  145.3365  159.1770 H   0  0  0  0  0  0  0  0  0  0  0  0
  149.8246  143.8661  160.1486 H   0  0  0  0  0  0  0  0  0  0  0  0
  151.8378  145.9932  160.0627 H   0  0  0  0  0  0  0  0  0  0  0  0
  151.8965  144.5694  161.0867 H   0  0  0  0  0  0  0  0  0  0  0  0
  153.7725  144.7795  159.1271 H   0  0  0  0  0  0  0  0  0  0  0  0
  152.5938  144.0165  156.9077 H   0  0  0  0  0  0  0  0  0  0  0  0
  151.8427  145.5107  157.5095 H   0  0  0  0  0  0  0  0  0  0  0  0
  153.6339  142.4246  158.4951 H   0  0  0  0  0  0  0  0  0  0  0  0
  154.0488  142.7876  161.0106 H   0  0  0  0  0  0  0  0  0  0  0  0
  152.3791  142.3089  161.2799 H   0  0  0  0  0  0  0  0  0  0  0  0
  154.4378  140.8141  160.0720 H   0  0  0  0  0  0  0  0  0  0  0  0
  1  2  1  0  0  0  0
  1 21  1  0  0  0  0
  1 22  1  0  0  0  0
  1 23  1  0  0  0  0
  2 19  1  0  0  0  0
  2  3  2  0  0  0  0
  3  4  1  0  0  0  0
  3 24  1  0  0  0  0
  4  5  1  0  0  0  0
  4 18  2  0  0  0  0
  5  6  1  0  0  0  0
  5 25  1  0  0  0  0
  5 26  1  0  0  0  0
  6  7  2  0  0  0  0
  6  8  1  0  0  0  0
  8  9  1  0  0  0  0
  8 27  1  0  0  0  0
  9 15  1  0  0  0  0
  9 10  1  0  0  0  0
  9 28  1  0  0  0  0
 10 14  1  0  0  0  0
 10 11  1  0  0  0  0
 10 29  1  0  0  0  0
 11 12  1  0  0  0  0
 11 30  1  0  0  0  0
 11 31  1  0  0  0  0
 12 13  1  0  0  0  0
 12 32  1  0  0  0  0
 12 33  1  0  0  0  0
 13 14  1  0  0  0  0
 13 15  1  0  0  0  0
 13 34  1  0  0  0  0
 14 35  1  0  0  0  0
 14 36  1  0  0  0  0
 15 16  1  0  0  0  0
 15 37  1  0  0  0  0
 16 17  1  0  0  0  0
 16 38  1  0  0  0  0
 16 39  1  0  0  0  0
 17 40  1  0  0  0  0
 18 19  1  0  0  0  0
 19 20  1  0  0  0  0
M  END
> <s_m_source_file>
AV-unprocessed.smi

> <i_m_source_file_index>
2881

> <i_lp_mmshare_version>
43012

> <i_f3d_flags>
0

> <s_epik_input>
W0NIM11jMVtjSF1jKG5bbkhdMSlbQ0gyXUMoPU8pW05IXVtDQEhdKFtDQEBIXTIzKVtDQEhdKFtDSDJdW09IXSlbQ0BASF0oW0NIMl0zKVtDSDJdW0NIMl0y

> <s_epik_cmdline>
J2VwaWtfcHl0aG9uJywgJy1waCcsICc3LjAnLCAnLXRuJywgJzgnLCAnLW1hJywgJzIwMCcsICctbWV0YWxfYmluZGluZycsICctaW1hZScsICc8aW5maWxlLm1hZT4nLCAnLW9tYWUnLCAnPG91dGZpbGUubWFlPic=

> <r_lp_tautomer_probability>
0.5

> <r_epik_Ionization_Penalty>
9.4349e-05

> <r_epik_Ionization_Penalty_Charging>
0

> <r_epik_Ionization_Penalty_Neutral>
9.4349e-05

> <r_epik_State_Penalty>
0.41068

> <r_epik_Charging_Adjusted_Penalty>
0.41068

> <i_epik_Tot_Q>
0

> <i_epik_Tot_abs_Q>
0

> <r_epik_Metal_State_Penalty>
0.4107

> <b_epik_Metal_Only>
0

> <s_lp_Force_Field>
OPLS_2005

> <r_lp_Energy>
47.7549

> <b_lp_Chiralities_Consistent>
1

> <s_lp_Variant>
AV-unprocessed.smi:2881-1

> <Gold.Version>
5.8.1

> <Gold.Id.Protein>
6NUR|6NUR_protein|mol2

> <Gold.PLP.Fitness>
42.3078

> <Gold.PLP.PLP>
-41.4109

> <Gold.PLP.part.hbond>
-2.0000

> <Gold.PLP.part.metal>
0.0000

> <Gold.PLP.part.buried>
-5.1059

> <Gold.PLP.part.nonpolar>
-34.9661

> <Gold.PLP.part.repulsive>
0.3767

> <Gold.PLP.ligand.clash>
0.0000

> <Gold.PLP.ligand.torsion>
0.5500

> <Gold.PLP.Chemscore.Hbond>
0.6560

> <Gold.PLP.Chemscore.CHOScore>
0.0000

> <Gold.PLP.Chemscore.Metal>
0.0000

> <Gold.Chemscore.Hbonds>
donor molecule, donor type, donor heavy atom, donor atom, acceptor molecule, acceptor atom, score
      P1  H  7989  7998       L1    18  0.66

> <Gold.PLP.Chemscore.Internal.Correction>
0.0289

> <Gold.Rescore>
     Score         DG    S(hbond)    S(metal)    S(lipo)     H(rot)  DE(clash)    DE(int)     intcor
     18.08     -19.22       1.88        0.00     113.64       2.28       0.35       0.79       ----

> <Gold.Chemscore.Fitness>
18.0794

> <Gold.Chemscore.DG>
-19.2240

> <Gold.Chemscore.ZeroCoef>
-5.4800

> <Gold.Chemscore.Hbond>
1.8784

> <Gold.Chemscore.Metal>
0.0000

> <Gold.Chemscore.Lipo>
113.6366

> <Gold.Chemscore.Internal_Hbond>
0.0000

> <Gold.Chemscore.DEClash>
0.3519

> <Gold.Chemscore.DEInternal>
0.7926

> <Gold.Chemscore.Rot>
2.2755

> <Gold.Chemscore.Internal.Correction>
   9.000000E+99

> <Gold.Chemscore.Hbonds>
donor molecule, donor type, donor heavy atom, donor atom, acceptor molecule, acceptor atom, score
      P1  H  7989  7998       L1    18  0.14

> <Gold.Chemscore.Hbond.Weighted>
-6.2737

> <Gold.Chemscore.Metal.Weighted>
-0.0000

> <Gold.Chemscore.Lipo.Weighted>
-13.2955

> <Gold.Chemscore.Internal_Hbond.Weighted>
0.0000

> <Gold.Chemscore.DEClash.Weighted>
0.3519

> <Gold.Chemscore.DEInternal.Weighted>
0.7926

> <Gold.Chemscore.Rot.Weighted>
5.8252

> <Gold.Chemscore.Internal.Correction.Weighted>
   9.000000E+99

> <Gold.Protein.RotatedTorsions>
[ 6907 6896 6895 6894 ] final  167.64 input  -60.11 | X-H torsion
[ 7974 7965 7964 7962 ] final   77.78 input  175.53 | X-H torsion
[ 8008 7997 7996 7995 ] final -101.71 input   59.86 | X-H torsion
[ 10167 10162 10161 10158 ] final  121.12 input  -65.29 | X-H torsion
[ 10718 10713 10712 10709 ] final  -60.36 input   66.30 | X-H torsion
[ 10763 10752 10751 10750 ] final   33.49 input  -60.55 | X-H torsion
[ 11005 11000 10999 10996 ] final  -42.57 input  -57.11 | X-H torsion

> <Gold.Protein.ActiveResidues>
 VAL166  LYS551  ARG553  GLY616  TRP617  ASP618  TYR619  PRO620  LYS621  CYS622 
 ASP623  PHE694  ASN695  SER759  ASP760  ASP761  ALA762  ILE779  LEU786  VAL792 
 PHE793  MET794  SER795  GLU796  ALA797  LYS798  CYS799  TRP800  GLU811  SER814 

> <Gold.Protein.RotatedAtoms>
  151.8601  133.3455  159.3700 H   0  0  0  0  0  0  0  0  0  0  0  0  # atno 6907 bound_to 6896
  150.7181  134.5215  159.5665 H   0  0  0  0  0  0  0  0  0  0  0  0  # atno 6908 bound_to 6896
  152.2726  134.7916  160.0462 H   0  0  0  0  0  0  0  0  0  0  0  0  # atno 6909 bound_to 6896
  145.6856  139.2537  143.1789 H   0  0  0  0  0  0  0  0  0  0  0  0  # atno 7974 bound_to 7965
  154.8464  140.0433  157.1575 H   0  0  0  0  0  0  0  0  0  0  0  0  # atno 8008 bound_to 7997
  154.8991  140.2997  155.5307 H   0  0  0  0  0  0  0  0  0  0  0  0  # atno 8009 bound_to 7997
  156.2994  140.2379  156.4016 H   0  0  0  0  0  0  0  0  0  0  0  0  # atno 8010 bound_to 7997
  139.5939  144.7035  151.3223 H   0  0  0  0  0  0  0  0  0  0  0  0  # atno 10167 bound_to 10162
  156.0996  130.4188  150.0843 H   0  0  0  0  0  0  0  0  0  0  0  0  # atno 10718 bound_to 10713
  153.0210  135.6386  154.1519 H   0  0  0  0  0  0  0  0  0  0  0  0  # atno 10763 bound_to 10752
  154.1253  135.2844  155.3200 H   0  0  0  0  0  0  0  0  0  0  0  0  # atno 10764 bound_to 10752
  154.6234  135.5517  153.7662 H   0  0  0  0  0  0  0  0  0  0  0  0  # atno 10765 bound_to 10752
  141.0324  133.6814  156.2612 H   0  0  0  0  0  0  0  0  0  0  0  0  # atno 11005 bound_to 11000
  146.0926  140.7637  142.9587 LP  0  0  0  0  0  0  0  0  0  0  0  0  # atno 17320 bound_to 7965
  144.7012  140.3662  143.7154 LP  0  0  0  0  0  0  0  0  0  0  0  0  # atno 17321 bound_to 7965
  140.7196  143.7172  150.7723 LP  0  0  0  0  0  0  0  0  0  0  0  0  # atno 17342 bound_to 10162
  140.0734  143.5039  152.2568 LP  0  0  0  0  0  0  0  0  0  0  0  0  # atno 17343 bound_to 10162
  156.8833  130.9564  151.3597 LP  0  0  0  0  0  0  0  0  0  0  0  0  # atno 17370 bound_to 10713
  157.6164  130.8622  149.9035 LP  0  0  0  0  0  0  0  0  0  0  0  0  # atno 17371 bound_to 10713
  140.6382  134.5193  157.5567 LP  0  0  0  0  0  0  0  0  0  0  0  0  # atno 17394 bound_to 11000
  139.9217  134.8135  156.1191 LP  0  0  0  0  0  0  0  0  0  0  0  0  # atno 17395 bound_to 11000

$$$$
