AV-unprocessed.smi:3348|AV-procd|sdf|12921|dock1
  -GOLD-   2272019343D 1   1.00000     0.00000
 Structure written by MMmdl.
 47 48  0  0  0  0  0  0  0  0  2 V2000
  145.8164  135.5408  152.7490 C   0  0  0  0  0  0  0  0  0  0  0  0
  145.3775  136.5062  151.6360 C   0  0  2  0  0  0  0  0  0  0  0  0
  144.9719  135.7317  150.3669 C   0  0  0  0  0  0  0  0  0  0  0  0
  145.0424  134.2929  150.5518 N   0  0  0  0  0  0  0  0  0  0  0  0
  144.0097  133.3788  150.5481 C   0  0  0  0  0  0  0  0  0  0  0  0
  144.5581  132.1458  150.7555 C   0  0  0  0  0  0  0  0  0  0  0  0
  145.9509  132.4107  150.8774 C   0  0  0  0  0  0  0  0  0  0  0  0
  146.2382  133.6967  150.7519 N   0  0  0  0  0  0  0  0  0  0  0  0
  146.4569  137.4706  151.3250 N   0  3  0  0  0  0  0  0  0  0  0  0
  146.5291  138.6449  152.2188 C   0  0  0  0  0  0  0  0  0  0  0  0
  147.3356  138.3218  153.4802 C   0  0  0  0  0  0  0  0  0  0  0  0
  148.2633  139.3737  153.7011 O   0  0  0  0  0  0  0  0  0  0  0  0
  149.2505  139.0953  154.6868 C   0  0  1  0  0  0  0  0  0  0  0  0
  150.3606  138.2119  154.0776 C   0  0  0  0  0  0  0  0  0  0  0  0
  151.5170  137.9967  155.0649 C   0  0  0  0  0  0  0  0  0  0  0  0
  152.0888  139.3378  155.5441 C   0  0  0  0  0  0  0  0  0  0  0  0
  150.9900  140.2175  156.1591 C   0  0  0  0  0  0  0  0  0  0  0  0
  149.8228  140.4449  155.1774 C   0  0  2  0  0  0  0  0  0  0  0  0
  148.7378  141.3236  155.8215 C   0  0  0  0  0  0  0  0  0  0  0  0
  145.0262  134.8260  152.9798 H   0  0  0  0  0  0  0  0  0  0  0  0
  146.0512  136.0683  153.6734 H   0  0  0  0  0  0  0  0  0  0  0  0
  146.6999  134.9729  152.4555 H   0  0  0  0  0  0  0  0  0  0  0  0
  144.5038  137.0603  151.9835 H   0  0  0  0  0  0  0  0  0  0  0  0
  143.9632  136.0027  150.0500 H   0  0  0  0  0  0  0  0  0  0  0  0
  145.6358  135.9922  149.5413 H   0  0  0  0  0  0  0  0  0  0  0  0
  142.9823  133.6779  150.3996 H   0  0  0  0  0  0  0  0  0  0  0  0
  144.0426  131.1985  150.8134 H   0  0  0  0  0  0  0  0  0  0  0  0
  146.7553  131.7112  151.0508 H   0  0  0  0  0  0  0  0  0  0  0  0
  147.3431  136.9858  151.3395 H   0  0  0  0  0  0  0  0  0  0  0  0
  147.0081  139.4639  151.6813 H   0  0  0  0  0  0  0  0  0  0  0  0
  145.5297  138.9816  152.4940 H   0  0  0  0  0  0  0  0  0  0  0  0
  146.6707  138.2033  154.3375 H   0  0  0  0  0  0  0  0  0  0  0  0
  147.8619  137.3777  153.3407 H   0  0  0  0  0  0  0  0  0  0  0  0
  148.7994  138.5821  155.5384 H   0  0  0  0  0  0  0  0  0  0  0  0
  149.9625  137.2425  153.7794 H   0  0  0  0  0  0  0  0  0  0  0  0
  150.7428  138.6802  153.1694 H   0  0  0  0  0  0  0  0  0  0  0  0
  151.1652  137.4202  155.9214 H   0  0  0  0  0  0  0  0  0  0  0  0
  152.3028  137.4051  154.5943 H   0  0  0  0  0  0  0  0  0  0  0  0
  152.8800  139.1659  156.2744 H   0  0  0  0  0  0  0  0  0  0  0  0
  152.5499  139.8605  154.7054 H   0  0  0  0  0  0  0  0  0  0  0  0
  150.6188  139.7481  157.0713 H   0  0  0  0  0  0  0  0  0  0  0  0
  151.4179  141.1751  156.4580 H   0  0  0  0  0  0  0  0  0  0  0  0
  150.2147  140.9825  154.3124 H   0  0  0  0  0  0  0  0  0  0  0  0
  148.2902  140.8310  156.6850 H   0  0  0  0  0  0  0  0  0  0  0  0
  147.9382  141.5509  155.1161 H   0  0  0  0  0  0  0  0  0  0  0  0
  149.1533  142.2734  156.1590 H   0  0  0  0  0  0  0  0  0  0  0  0
  146.2980  137.8142  150.3878 H   0  0  0  0  0  0  0  0  0  0  0  0
  1  2  1  0  0  0  0
  1 20  1  0  0  0  0
  1 21  1  0  0  0  0
  1 22  1  0  0  0  0
  2  3  1  0  0  0  0
  2  9  1  0  0  0  0
  2 23  1  0  0  0  0
  3  4  1  0  0  0  0
  3 24  1  0  0  0  0
  3 25  1  0  0  0  0
  4  8  1  0  0  0  0
  4  5  1  0  0  0  0
  5  6  2  0  0  0  0
  5 26  1  0  0  0  0
  6  7  1  0  0  0  0
  6 27  1  0  0  0  0
  7  8  2  0  0  0  0
  7 28  1  0  0  0  0
  9 10  1  0  0  0  0
  9 29  1  0  0  0  0
  9 47  1  0  0  0  0
 10 11  1  0  0  0  0
 10 30  1  0  0  0  0
 10 31  1  0  0  0  0
 11 12  1  0  0  0  0
 11 32  1  0  0  0  0
 11 33  1  0  0  0  0
 12 13  1  0  0  0  0
 13 18  1  0  0  0  0
 13 14  1  0  0  0  0
 13 34  1  0  0  0  0
 14 15  1  0  0  0  0
 14 35  1  0  0  0  0
 14 36  1  0  0  0  0
 15 16  1  0  0  0  0
 15 37  1  0  0  0  0
 15 38  1  0  0  0  0
 16 17  1  0  0  0  0
 16 39  1  0  0  0  0
 16 40  1  0  0  0  0
 17 18  1  0  0  0  0
 17 41  1  0  0  0  0
 17 42  1  0  0  0  0
 18 19  1  0  0  0  0
 18 43  1  0  0  0  0
 19 44  1  0  0  0  0
 19 45  1  0  0  0  0
 19 46  1  0  0  0  0
M  CHG  1   9   1
M  END
> <s_m_source_file>
AV-unprocessed.smi

> <i_m_source_file_index>
3348

> <i_lp_mmshare_version>
43012

> <i_f3d_flags>
0

> <s_epik_input>
bjFbY0hdW2NIXVtjSF1uMVtDSDJdW0NAQEhdKFtDSDNdKVtOSF1bQ0gyXVtDSDJdT1tDQEBIXTJbQ0gyXVtDSDJdW0NIMl1bQ0gyXVtDQEhdMltDSDNd

> <s_epik_cmdline>
J2VwaWtfcHl0aG9uJywgJy1waCcsICc3LjAnLCAnLXRuJywgJzgnLCAnLW1hJywgJzIwMCcsICctbWV0YWxfYmluZGluZycsICctaW1hZScsICc8aW5maWxlLm1hZT4nLCAnLW9tYWUnLCAnPG91dGZpbGUubWFlPic=

> <r_lp_tautomer_probability>
1

> <r_epik_Ionization_Penalty>
0.00925088

> <r_epik_Ionization_Penalty_Charging>
0.00924645

> <r_epik_Ionization_Penalty_Neutral>
4.42413e-06

> <r_epik_State_Penalty>
0.0070118

> <r_epik_Charging_Adjusted_Penalty>
0.0162583

> <i_epik_Tot_Q>
1

> <i_epik_Tot_abs_Q>
1

> <r_epik_Metal_State_Penalty>
0.00701222

> <b_epik_Metal_Only>
0

> <s_lp_Force_Field>
OPLS_2005

> <r_lp_Energy>
15.6253

> <b_lp_Chiralities_Consistent>
1

> <s_lp_Variant>
AV-unprocessed.smi:3348-7

> <Gold.Version>
5.8.1

> <Gold.Id.Protein>
6NUR|6NUR_protein|mol2

> <Gold.PLP.Fitness>
47.4761

> <Gold.PLP.PLP>
-38.6638

> <Gold.PLP.part.hbond>
-1.4007

> <Gold.PLP.part.metal>
0.0000

> <Gold.PLP.part.buried>
-2.1952

> <Gold.PLP.part.nonpolar>
-37.1393

> <Gold.PLP.part.repulsive>
2.2217

> <Gold.PLP.ligand.clash>
0.0000

> <Gold.PLP.ligand.torsion>
1.7360

> <Gold.PLP.Chemscore.Hbond>
2.0000

> <Gold.PLP.Chemscore.CHOScore>
2.0000

> <Gold.PLP.Chemscore.Metal>
0.0000

> <Gold.Chemscore.Hbonds>
donor molecule, donor type, donor heavy atom, donor atom, acceptor molecule, acceptor atom, score
      L1  H     9    29       P1  7948  2.00
      L1  C     5    26       P1 10186  1.00
      L1  C     7    28       P1 10747  1.00

> <Gold.PLP.Chemscore.Internal.Correction>
0.2843

> <Gold.Rescore>
     Score         DG    S(hbond)    S(metal)    S(lipo)     H(rot)  DE(clash)    DE(int)     intcor
     12.60     -16.24       1.00        0.00     103.20       1.82       0.39       3.25       ----

> <Gold.Chemscore.Fitness>
12.5991

> <Gold.Chemscore.DG>
-16.2444

> <Gold.Chemscore.ZeroCoef>
-5.4800

> <Gold.Chemscore.Hbond>
0.9998

> <Gold.Chemscore.Metal>
0.0000

> <Gold.Chemscore.Lipo>
103.2027

> <Gold.Chemscore.Internal_Hbond>
0.0000

> <Gold.Chemscore.DEClash>
0.3949

> <Gold.Chemscore.DEInternal>
3.2504

> <Gold.Chemscore.Rot>
1.8163

> <Gold.Chemscore.Internal.Correction>
   9.000000E+99

> <Gold.Chemscore.Hbonds>
donor molecule, donor type, donor heavy atom, donor atom, acceptor molecule, acceptor atom, score
      L1  H     9    29       P1  7948  1.00

> <Gold.Chemscore.Hbond.Weighted>
-3.3395

> <Gold.Chemscore.Metal.Weighted>
-0.0000

> <Gold.Chemscore.Lipo.Weighted>
-12.0747

> <Gold.Chemscore.Internal_Hbond.Weighted>
0.0000

> <Gold.Chemscore.DEClash.Weighted>
0.3949

> <Gold.Chemscore.DEInternal.Weighted>
3.2504

> <Gold.Chemscore.Rot.Weighted>
4.6497

> <Gold.Chemscore.Internal.Correction.Weighted>
   9.000000E+99

> <Gold.Protein.RotatedTorsions>
[ 6907 6896 6895 6894 ] final   63.95 input  -60.11 | X-H torsion
[ 7974 7965 7964 7962 ] final  -88.39 input  175.53 | X-H torsion
[ 8008 7997 7996 7995 ] final -129.83 input   59.86 | X-H torsion
[ 10167 10162 10161 10158 ] final   37.34 input  -65.29 | X-H torsion
[ 10718 10713 10712 10709 ] final  -51.34 input   66.30 | X-H torsion
[ 10763 10752 10751 10750 ] final   28.10 input  -60.55 | X-H torsion
[ 11005 11000 10999 10996 ] final -162.95 input  -57.11 | X-H torsion

> <Gold.Protein.ActiveResidues>
 VAL166  LYS551  ARG553  GLY616  TRP617  ASP618  TYR619  PRO620  LYS621  CYS622 
 ASP623  PHE694  ASN695  SER759  ASP760  ASP761  ALA762  ILE779  LEU786  VAL792 
 PHE793  MET794  SER795  GLU796  ALA797  LYS798  CYS799  TRP800  GLU811  SER814 

> <Gold.Protein.RotatedAtoms>
  152.4294  134.5807  159.9946 H   0  0  0  0  0  0  0  0  0  0  0  0  # atno 6907 bound_to 6896
  151.5934  133.3358  159.3040 H   0  0  0  0  0  0  0  0  0  0  0  0  # atno 6908 bound_to 6896
  150.8185  134.7417  159.6816 H   0  0  0  0  0  0  0  0  0  0  0  0  # atno 6909 bound_to 6896
  145.4537  140.9561  143.2008 H   0  0  0  0  0  0  0  0  0  0  0  0  # atno 7974 bound_to 7965
  155.2857  140.0446  157.3019 H   0  0  0  0  0  0  0  0  0  0  0  0  # atno 8008 bound_to 7997
  154.5570  140.2335  155.8362 H   0  0  0  0  0  0  0  0  0  0  0  0  # atno 8009 bound_to 7997
  156.2016  140.3024  155.9545 H   0  0  0  0  0  0  0  0  0  0  0  0  # atno 8010 bound_to 7997
  140.4042  144.1682  150.6135 H   0  0  0  0  0  0  0  0  0  0  0  0  # atno 10167 bound_to 10162
  156.1719  130.4149  149.9634 H   0  0  0  0  0  0  0  0  0  0  0  0  # atno 10718 bound_to 10713
  153.0513  135.6521  154.0687 H   0  0  0  0  0  0  0  0  0  0  0  0  # atno 10763 bound_to 10752
  154.0374  135.2906  155.3361 H   0  0  0  0  0  0  0  0  0  0  0  0  # atno 10764 bound_to 10752
  154.6803  135.5322  153.8321 H   0  0  0  0  0  0  0  0  0  0  0  0  # atno 10765 bound_to 10752
  140.6036  134.4922  157.5208 H   0  0  0  0  0  0  0  0  0  0  0  0  # atno 11005 bound_to 11000
  144.8045  139.6077  143.7057 LP  0  0  0  0  0  0  0  0  0  0  0  0  # atno 17320 bound_to 7965
  146.2490  139.6159  142.9440 LP  0  0  0  0  0  0  0  0  0  0  0  0  # atno 17321 bound_to 7965
  140.4707  143.2414  151.9093 LP  0  0  0  0  0  0  0  0  0  0  0  0  # atno 17342 bound_to 10162
  139.4784  144.5372  151.8581 LP  0  0  0  0  0  0  0  0  0  0  0  0  # atno 17343 bound_to 10162
  156.7432  130.9087  151.3633 LP  0  0  0  0  0  0  0  0  0  0  0  0  # atno 17370 bound_to 10713
  157.6809  130.9138  150.0264 LP  0  0  0  0  0  0  0  0  0  0  0  0  # atno 17371 bound_to 10713
  139.9222  134.8126  156.1177 LP  0  0  0  0  0  0  0  0  0  0  0  0  # atno 17394 bound_to 11000
  141.0856  133.6736  156.2428 LP  0  0  0  0  0  0  0  0  0  0  0  0  # atno 17395 bound_to 11000

$$$$
