AV-unprocessed.smi:1978|AV-procd|sdf|8012|dock1
  -GOLD-   2272010203D 1   1.00000     0.00000
 Structure written by MMmdl.
 44 45  0  0  0  0  0  0  0  0  3 V2000
  151.5110  144.8148  160.7702 C   0  0  0  0  0  0  0  0  0  0  0  0
  151.2122  143.6440  159.8982 C   0  0  0  0  0  0  0  0  0  0  0  0
  151.2899  143.4452  158.5487 C   0  0  0  0  0  0  0  0  0  0  0  0
  150.8516  142.1027  158.3960 C   0  0  0  0  0  0  0  0  0  0  0  0
  150.7863  141.5047  157.1097 N   0  0  0  0  0  0  0  0  0  0  0  0
  150.5005  140.2302  156.7857 C   0  0  0  0  0  0  0  0  0  0  0  0
  150.2406  139.4040  157.6687 O   0  0  0  0  0  0  0  0  0  0  0  0
  150.5397  140.0211  155.4414 N   0  5  0  0  0  0  0  0  0  0  0  0
  149.8399  138.9400  154.7476 C   0  0  0  0  0  0  0  0  0  0  0  0
  148.5021  139.4517  154.1462 C   0  0  2  0  0  0  0  0  0  0  0  0
  147.7089  140.4089  155.0730 C   0  0  0  0  0  0  0  0  0  0  0  0
  147.6712  138.3024  153.6438 N   0  3  1  0  0  0  0  0  0  0  0  0
  147.2647  137.3304  154.7096 C   0  0  0  0  0  0  0  0  0  0  0  0
  146.6568  136.0537  154.1177 C   0  0  0  0  0  0  0  0  0  0  0  0
  145.4347  136.4014  153.2692 C   0  0  0  0  0  0  0  0  0  0  0  0
  145.8411  137.4013  152.1844 C   0  0  0  0  0  0  0  0  0  0  0  0
  146.5082  138.6709  152.7644 C   0  0  2  0  0  0  0  0  0  0  0  0
  146.8860  139.5867  151.5790 C   0  0  0  0  0  0  0  0  0  0  0  0
  150.5396  141.5327  159.5507 N   0  0  0  0  0  0  0  0  0  0  0  0
  150.7691  142.5173  160.5188 O   0  0  0  0  0  0  0  0  0  0  0  0
  151.6683  145.7141  160.1745 H   0  0  0  0  0  0  0  0  0  0  0  0
  152.4105  144.6371  161.3595 H   0  0  0  0  0  0  0  0  0  0  0  0
  150.6870  145.0055  161.4580 H   0  0  0  0  0  0  0  0  0  0  0  0
  151.6065  144.1487  157.7931 H   0  0  0  0  0  0  0  0  0  0  0  0
  150.9745  142.1210  156.3334 H   0  0  0  0  0  0  0  0  0  0  0  0
  150.4445  138.5345  153.9347 H   0  0  0  0  0  0  0  0  0  0  0  0
  149.6382  138.0986  155.4110 H   0  0  0  0  0  0  0  0  0  0  0  0
  148.8113  140.0573  153.3004 H   0  0  0  0  0  0  0  0  0  0  0  0
  148.2688  141.3203  155.2898 H   0  0  0  0  0  0  0  0  0  0  0  0
  147.4500  139.9561  156.0316 H   0  0  0  0  0  0  0  0  0  0  0  0
  146.7803  140.7247  154.5971 H   0  0  0  0  0  0  0  0  0  0  0  0
  148.1182  137.0493  155.3266 H   0  0  0  0  0  0  0  0  0  0  0  0
  146.5355  137.7925  155.3765 H   0  0  0  0  0  0  0  0  0  0  0  0
  147.3997  135.5331  153.5119 H   0  0  0  0  0  0  0  0  0  0  0  0
  146.3712  135.3708  154.9182 H   0  0  0  0  0  0  0  0  0  0  0  0
  145.0181  135.5006  152.8175 H   0  0  0  0  0  0  0  0  0  0  0  0
  144.6520  136.8300  153.8967 H   0  0  0  0  0  0  0  0  0  0  0  0
  146.5255  136.9141  151.4881 H   0  0  0  0  0  0  0  0  0  0  0  0
  144.9585  137.6736  151.6042 H   0  0  0  0  0  0  0  0  0  0  0  0
  145.7737  139.1941  153.3783 H   0  0  0  0  0  0  0  0  0  0  0  0
  146.0723  139.6431  150.8553 H   0  0  0  0  0  0  0  0  0  0  0  0
  147.7657  139.2153  151.0520 H   0  0  0  0  0  0  0  0  0  0  0  0
  147.0760  140.6146  151.8849 H   0  0  0  0  0  0  0  0  0  0  0  0
  148.2990  137.7952  153.0362 H   0  0  0  0  0  0  0  0  0  0  0  0
  1  2  1  0  0  0  0
  1 21  1  0  0  0  0
  1 22  1  0  0  0  0
  1 23  1  0  0  0  0
  2 20  1  0  0  0  0
  2  3  2  0  0  0  0
  3  4  1  0  0  0  0
  3 24  1  0  0  0  0
  4  5  1  0  0  0  0
  4 19  2  0  0  0  0
  5  6  1  0  0  0  0
  5 25  1  0  0  0  0
  6  7  2  0  0  0  0
  6  8  1  0  0  0  0
  8  9  1  0  0  0  0
  9 10  1  0  0  0  0
  9 26  1  0  0  0  0
  9 27  1  0  0  0  0
 10 11  1  0  0  0  0
 10 12  1  0  0  0  0
 10 28  1  0  0  0  0
 11 29  1  0  0  0  0
 11 30  1  0  0  0  0
 11 31  1  0  0  0  0
 12 17  1  0  0  0  0
 12 13  1  0  0  0  0
 12 44  1  0  0  0  0
 13 14  1  0  0  0  0
 13 32  1  0  0  0  0
 13 33  1  0  0  0  0
 14 15  1  0  0  0  0
 14 34  1  0  0  0  0
 14 35  1  0  0  0  0
 15 16  1  0  0  0  0
 15 36  1  0  0  0  0
 15 37  1  0  0  0  0
 16 17  1  0  0  0  0
 16 38  1  0  0  0  0
 16 39  1  0  0  0  0
 17 18  1  0  0  0  0
 17 40  1  0  0  0  0
 18 41  1  0  0  0  0
 18 42  1  0  0  0  0
 18 43  1  0  0  0  0
 19 20  1  0  0  0  0
M  CHG  1   8  -1
M  CHG  1  12   1
M  END
> <s_m_source_file>
AV-unprocessed.smi

> <i_m_source_file_index>
1978

> <i_lp_mmshare_version>
43012

> <i_f3d_flags>
0

> <s_epik_input>
W0NIM11jMVtjSF1jKG5vMSlbTkhdQyg9TylbTkhdW0NIMl1bQ0BIXShbQ0gzXSlOMltDSDJdW0NIMl1bQ0gyXVtDSDJdW0NASF0yW0NIM10=

> <s_epik_cmdline>
J2VwaWtfcHl0aG9uJywgJy1waCcsICc3LjAnLCAnLXRuJywgJzgnLCAnLW1hJywgJzIwMCcsICctbWV0YWxfYmluZGluZycsICctaW1hZScsICc8aW5maWxlLm1hZT4nLCAnLW9tYWUnLCAnPG91dGZpbGUubWFlPic=

> <r_epik_Ionization_Penalty>
6.7666

> <r_epik_Ionization_Penalty_Charging>
6.7666

> <r_epik_Ionization_Penalty_Neutral>
5.77131e-06

> <r_epik_State_Penalty>
6.79217

> <r_epik_Charging_Adjusted_Penalty>
13.5588

> <i_epik_Tot_Q>
0

> <i_epik_Tot_abs_Q>
2

> <r_epik_Metal_State_Penalty>
2.72569

> <b_epik_Metal_Only>
1

> <s_lp_Force_Field>
OPLS_2005

> <r_lp_Energy>
22.8368

> <b_lp_Chiralities_Consistent>
1

> <s_lp_Variant>
AV-unprocessed.smi:1978-21

> <Gold.Version>
5.8.1

> <Gold.Id.Protein>
6NUR|6NUR_protein|mol2

> <Gold.PLP.Fitness>
44.0873

> <Gold.PLP.PLP>
-35.7124

> <Gold.PLP.part.hbond>
-2.0699

> <Gold.PLP.part.metal>
0.0000

> <Gold.PLP.part.buried>
-0.7827

> <Gold.PLP.part.nonpolar>
-33.1246

> <Gold.PLP.part.repulsive>
0.2256

> <Gold.PLP.ligand.clash>
0.0000

> <Gold.PLP.ligand.torsion>
0.4483

> <Gold.PLP.Chemscore.Hbond>
3.0000

> <Gold.PLP.Chemscore.CHOScore>
0.0000

> <Gold.PLP.Chemscore.Metal>
0.0000

> <Gold.Chemscore.Hbonds>
donor molecule, donor type, donor heavy atom, donor atom, acceptor molecule, acceptor atom, score
      L1  H    12    44       P1  7948  1.92
      P1  H  7989  7998       L1     8  0.09

> <Gold.PLP.Chemscore.Internal.Correction>
0.2714

> <Gold.Rescore>
     Score         DG    S(hbond)    S(metal)    S(lipo)     H(rot)  DE(clash)    DE(int)     intcor
     15.30     -17.68       1.90        0.00      83.22       1.52       0.65       1.73       ----

> <Gold.Chemscore.Fitness>
15.2992

> <Gold.Chemscore.DG>
-17.6795

> <Gold.Chemscore.ZeroCoef>
-5.4800

> <Gold.Chemscore.Hbond>
1.9016

> <Gold.Chemscore.Metal>
0.0000

> <Gold.Chemscore.Lipo>
83.2213

> <Gold.Chemscore.Internal_Hbond>
0.0000

> <Gold.Chemscore.DEClash>
0.6504

> <Gold.Chemscore.DEInternal>
1.7299

> <Gold.Chemscore.Rot>
1.5190

> <Gold.Chemscore.Internal.Correction>
   9.000000E+99

> <Gold.Chemscore.Hbonds>
donor molecule, donor type, donor heavy atom, donor atom, acceptor molecule, acceptor atom, score
      L1  H    12    44       P1  7948  0.89
      P1  H  7989  7998       L1     8  0.02

> <Gold.Chemscore.Hbond.Weighted>
-6.3512

> <Gold.Chemscore.Metal.Weighted>
-0.0000

> <Gold.Chemscore.Lipo.Weighted>
-9.7369

> <Gold.Chemscore.Internal_Hbond.Weighted>
0.0000

> <Gold.Chemscore.DEClash.Weighted>
0.6504

> <Gold.Chemscore.DEInternal.Weighted>
1.7299

> <Gold.Chemscore.Rot.Weighted>
3.8886

> <Gold.Chemscore.Internal.Correction.Weighted>
   9.000000E+99

> <Gold.Protein.RotatedTorsions>
[ 6907 6896 6895 6894 ] final  111.16 input  -60.11 | X-H torsion
[ 7974 7965 7964 7962 ] final   83.91 input  175.53 | X-H torsion
[ 8008 7997 7996 7995 ] final -143.16 input   59.86 | X-H torsion
[ 10167 10162 10161 10158 ] final  -20.20 input  -65.29 | X-H torsion
[ 10718 10713 10712 10709 ] final -109.31 input   66.30 | X-H torsion
[ 10763 10752 10751 10750 ] final   61.26 input  -60.55 | X-H torsion
[ 11005 11000 10999 10996 ] final  179.87 input  -57.11 | X-H torsion

> <Gold.Protein.ActiveResidues>
 VAL166  LYS551  ARG553  GLY616  TRP617  ASP618  TYR619  PRO620  LYS621  CYS622 
 ASP623  PHE694  ASN695  SER759  ASP760  ASP761  ALA762  ILE779  LEU786  VAL792 
 PHE793  MET794  SER795  GLU796  ALA797  LYS798  CYS799  TRP800  GLU811  SER814 

> <Gold.Protein.RotatedAtoms>
  152.4983  133.8697  159.7291 H   0  0  0  0  0  0  0  0  0  0  0  0  # atno 6907 bound_to 6896
  150.9187  133.6899  159.2844 H   0  0  0  0  0  0  0  0  0  0  0  0  # atno 6908 bound_to 6896
  151.4283  135.1011  159.9687 H   0  0  0  0  0  0  0  0  0  0  0  0  # atno 6909 bound_to 6896
  145.6057  139.2360  143.2220 H   0  0  0  0  0  0  0  0  0  0  0  0  # atno 7974 bound_to 7965
  155.5060  140.0579  157.2931 H   0  0  0  0  0  0  0  0  0  0  0  0  # atno 8008 bound_to 7997
  154.4569  140.1977  156.0303 H   0  0  0  0  0  0  0  0  0  0  0  0  # atno 8009 bound_to 7997
  156.0816  140.3246  155.7705 H   0  0  0  0  0  0  0  0  0  0  0  0  # atno 8010 bound_to 7997
  140.7274  143.4746  151.0200 H   0  0  0  0  0  0  0  0  0  0  0  0  # atno 10167 bound_to 10162
  156.0530  130.5757  150.8082 H   0  0  0  0  0  0  0  0  0  0  0  0  # atno 10718 bound_to 10713
  152.9945  135.5507  154.6006 H   0  0  0  0  0  0  0  0  0  0  0  0  # atno 10763 bound_to 10752
  154.5348  135.2816  155.1150 H   0  0  0  0  0  0  0  0  0  0  0  0  # atno 10764 bound_to 10752
  154.2451  135.6409  153.5273 H   0  0  0  0  0  0  0  0  0  0  0  0  # atno 10765 bound_to 10752
  140.4110  134.6692  157.4614 H   0  0  0  0  0  0  0  0  0  0  0  0  # atno 11005 bound_to 11000
  146.1542  140.6881  142.9307 LP  0  0  0  0  0  0  0  0  0  0  0  0  # atno 17320 bound_to 7965
  144.7291  140.4616  143.6951 LP  0  0  0  0  0  0  0  0  0  0  0  0  # atno 17321 bound_to 7965
  139.8440  143.7526  152.3179 LP  0  0  0  0  0  0  0  0  0  0  0  0  # atno 17342 bound_to 10162
  139.7685  144.7484  151.0259 LP  0  0  0  0  0  0  0  0  0  0  0  0  # atno 17343 bound_to 10162
  157.5474  131.0943  150.9743 LP  0  0  0  0  0  0  0  0  0  0  0  0  # atno 17370 bound_to 10713
  157.0011  130.5600  149.5311 LP  0  0  0  0  0  0  0  0  0  0  0  0  # atno 17371 bound_to 10713
  140.0268  134.6466  155.9162 LP  0  0  0  0  0  0  0  0  0  0  0  0  # atno 17394 bound_to 11000
  141.1821  133.6548  156.5063 LP  0  0  0  0  0  0  0  0  0  0  0  0  # atno 17395 bound_to 11000

$$$$
