AV-unprocessed.smi:2505|AV-procd|sdf|9857|dock1
  -GOLD-   2272013483D 1   1.00000     0.00000
 Structure written by MMmdl.
 48 52  0  0  0  0  0  0  0  0  1 V2000
  145.8484  138.2237  154.3712 O   0  0  0  0  0  0  0  0  0  0  0  0
  146.6762  137.7288  153.6098 C   0  0  0  0  0  0  0  0  0  0  0  0
  147.9896  138.0252  153.6028 N   0  0  0  0  0  0  0  0  0  0  0  0
  148.6986  138.9565  154.4063 C   0  0  0  0  0  0  0  0  0  0  0  0
  148.1774  139.6235  155.5423 C   0  0  0  0  0  0  0  0  0  0  0  0
  148.9142  140.5145  156.2408 N   0  0  0  0  0  0  0  0  0  0  0  0
  150.1545  140.7505  155.8046 C   0  0  0  0  0  0  0  0  0  0  0  0
  150.9762  141.7138  156.6036 C   0  0  0  0  0  0  0  0  0  0  0  0
  151.4474  141.3597  157.9996 C   0  0  0  0  0  0  0  0  0  0  0  0
  150.3909  142.4127  157.8141 C   0  0  0  0  0  0  0  0  0  0  0  0
  150.7518  140.1794  154.7550 N   0  0  0  0  0  0  0  0  0  0  0  0
  150.0224  139.2886  154.0504 C   0  0  0  0  0  0  0  0  0  0  0  0
  146.3245  136.7951  152.7089 N   0  0  0  0  0  0  0  0  0  0  0  0
  144.9863  136.2539  152.4632 C   0  0  2  0  0  0  0  0  0  0  0  0
  144.3126  135.7727  153.7589 C   0  0  1  0  0  0  0  0  0  0  0  0
  143.0804  136.4705  154.2672 C   0  0  0  0  0  0  0  0  0  0  0  0
  141.9460  135.6037  153.7142 C   0  0  0  0  0  0  0  0  0  0  0  0
  142.5252  134.9226  152.6036 O   0  0  0  0  0  0  0  0  0  0  0  0
  143.8522  134.5547  152.9728 C   0  0  1  0  0  0  0  0  0  0  0  0
  144.9598  134.8015  151.9268 C   0  0  0  0  0  0  0  0  0  0  0  0
  144.5982  134.5574  150.4637 C   0  0  0  0  0  0  0  0  0  0  0  0
  144.9387  133.0961  150.1535 C   0  0  0  0  0  0  0  0  0  0  0  0
  145.9472  132.6674  151.2245 C   0  0  0  0  0  0  0  0  0  0  0  0
  146.2019  133.9175  152.0689 C   0  0  0  0  0  0  0  0  0  0  0  0
  148.5563  137.4858  152.9646 H   0  0  0  0  0  0  0  0  0  0  0  0
  147.1708  139.4748  155.8996 H   0  0  0  0  0  0  0  0  0  0  0  0
  151.6531  142.2802  155.9667 H   0  0  0  0  0  0  0  0  0  0  0  0
  151.1333  140.4045  158.4160 H   0  0  0  0  0  0  0  0  0  0  0  0
  152.4420  141.6907  158.2911 H   0  0  0  0  0  0  0  0  0  0  0  0
  150.6778  143.4486  157.9822 H   0  0  0  0  0  0  0  0  0  0  0  0
  149.3742  142.1572  158.1063 H   0  0  0  0  0  0  0  0  0  0  0  0
  150.5023  138.8362  153.1948 H   0  0  0  0  0  0  0  0  0  0  0  0
  147.0683  136.4043  152.1486 H   0  0  0  0  0  0  0  0  0  0  0  0
  144.3306  136.9163  151.8932 H   0  0  0  0  0  0  0  0  0  0  0  0
  145.0332  135.4988  154.5317 H   0  0  0  0  0  0  0  0  0  0  0  0
  143.0483  136.5272  155.3555 H   0  0  0  0  0  0  0  0  0  0  0  0
  143.0187  137.4864  153.8754 H   0  0  0  0  0  0  0  0  0  0  0  0
  141.6294  134.8685  154.4556 H   0  0  0  0  0  0  0  0  0  0  0  0
  141.0743  136.1877  153.4187 H   0  0  0  0  0  0  0  0  0  0  0  0
  143.9086  133.6161  153.5262 H   0  0  0  0  0  0  0  0  0  0  0  0
  143.5534  134.7774  150.2432 H   0  0  0  0  0  0  0  0  0  0  0  0
  145.1931  135.2068  149.8211 H   0  0  0  0  0  0  0  0  0  0  0  0
  144.0442  132.4752  150.2167 H   0  0  0  0  0  0  0  0  0  0  0  0
  145.3425  132.9887  149.1463 H   0  0  0  0  0  0  0  0  0  0  0  0
  145.5147  131.8802  151.8432 H   0  0  0  0  0  0  0  0  0  0  0  0
  146.8695  132.2779  150.7922 H   0  0  0  0  0  0  0  0  0  0  0  0
  147.0821  134.4279  151.6763 H   0  0  0  0  0  0  0  0  0  0  0  0
  146.4207  133.6626  153.1065 H   0  0  0  0  0  0  0  0  0  0  0  0
  1  2  2  0  0  0  0
  2  3  1  0  0  0  0
  2 13  1  0  0  0  0
  3  4  1  0  0  0  0
  3 25  1  0  0  0  0
  4 12  1  0  0  0  0
  4  5  2  0  0  0  0
  5  6  1  0  0  0  0
  5 26  1  0  0  0  0
  6  7  2  0  0  0  0
  7  8  1  0  0  0  0
  7 11  1  0  0  0  0
  8 10  1  0  0  0  0
  8  9  1  0  0  0  0
  8 27  1  0  0  0  0
  9 10  1  0  0  0  0
  9 28  1  0  0  0  0
  9 29  1  0  0  0  0
 10 30  1  0  0  0  0
 10 31  1  0  0  0  0
 11 12  2  0  0  0  0
 12 32  1  0  0  0  0
 13 14  1  0  0  0  0
 13 33  1  0  0  0  0
 14 20  1  0  0  0  0
 14 15  1  0  0  0  0
 14 34  1  0  0  0  0
 15 19  1  0  0  0  0
 15 16  1  0  0  0  0
 15 35  1  0  0  0  0
 16 17  1  0  0  0  0
 16 36  1  0  0  0  0
 16 37  1  0  0  0  0
 17 18  1  0  0  0  0
 17 38  1  0  0  0  0
 17 39  1  0  0  0  0
 18 19  1  0  0  0  0
 19 20  1  0  0  0  0
 19 40  1  0  0  0  0
 20 24  1  0  0  0  0
 20 21  1  0  0  0  0
 21 22  1  0  0  0  0
 21 41  1  0  0  0  0
 21 42  1  0  0  0  0
 22 23  1  0  0  0  0
 22 43  1  0  0  0  0
 22 44  1  0  0  0  0
 23 24  1  0  0  0  0
 23 45  1  0  0  0  0
 23 46  1  0  0  0  0
 24 47  1  0  0  0  0
 24 48  1  0  0  0  0
M  END
> <s_m_source_file>
AV-unprocessed.smi

> <i_m_source_file_index>
2505

> <i_lp_mmshare_version>
43012

> <i_f3d_flags>
0

> <s_epik_input>
W0NIMl0xW0NIMl1bQ0hdMWMobltjSF0yKW5bY0hdYzJbTkhdQyg9TylbTkhdW0NAQEhdM1tDQEBIXShbQ0gyXVtDSDJdTzQpW0NASF00QzM1W0NIMl1bQ0gyXVtDSDJdW0NIMl01

> <s_epik_cmdline>
J2VwaWtfcHl0aG9uJywgJy1waCcsICc3LjAnLCAnLXRuJywgJzgnLCAnLW1hJywgJzIwMCcsICctbWV0YWxfYmluZGluZycsICctaW1hZScsICc8aW5maWxlLm1hZT4nLCAnLW9tYWUnLCAnPG91dGZpbGUubWFlPic=

> <r_lp_tautomer_probability>
1

> <r_epik_Ionization_Penalty>
2.6075e-05

> <r_epik_Ionization_Penalty_Charging>
0

> <r_epik_Ionization_Penalty_Neutral>
2.6075e-05

> <r_epik_State_Penalty>
-0

> <r_epik_Charging_Adjusted_Penalty>
0

> <i_epik_Tot_Q>
0

> <i_epik_Tot_abs_Q>
0

> <r_epik_Metal_State_Penalty>
-0

> <b_epik_Metal_Only>
0

> <s_lp_Force_Field>
OPLS_2005

> <r_lp_Energy>
63.1454

> <b_lp_Chiralities_Consistent>
1

> <s_lp_Variant>
AV-unprocessed.smi:2505-5

> <Gold.Version>
5.8.1

> <Gold.Id.Protein>
6NUR|6NUR_protein|mol2

> <Gold.PLP.Fitness>
44.1194

> <Gold.PLP.PLP>
-33.9368

> <Gold.PLP.part.hbond>
-3.0000

> <Gold.PLP.part.metal>
0.0000

> <Gold.PLP.part.buried>
-5.0294

> <Gold.PLP.part.nonpolar>
-26.1258

> <Gold.PLP.part.repulsive>
0.4706

> <Gold.PLP.ligand.clash>
0.0000

> <Gold.PLP.ligand.torsion>
0.3401

> <Gold.PLP.Chemscore.Hbond>
2.9760

> <Gold.PLP.Chemscore.CHOScore>
0.5429

> <Gold.PLP.Chemscore.Metal>
0.0000

> <Gold.Chemscore.Hbonds>
donor molecule, donor type, donor heavy atom, donor atom, acceptor molecule, acceptor atom, score
      L1  H     3    25       P1  7948  1.00
      L1  H    13    33       P1  7948  0.98
      P1  H  7989  7998       L1    11  0.95
      L1  C    12    32       P1  7957  0.55

> <Gold.PLP.Chemscore.Internal.Correction>
0.3061

> <Gold.Rescore>
     Score         DG    S(hbond)    S(metal)    S(lipo)     H(rot)  DE(clash)    DE(int)     intcor
     17.82     -20.58       2.43        0.00      85.36       1.17       0.28       2.48       ----

> <Gold.Chemscore.Fitness>
17.8225

> <Gold.Chemscore.DG>
-20.5811

> <Gold.Chemscore.ZeroCoef>
-5.4800

> <Gold.Chemscore.Hbond>
2.4313

> <Gold.Chemscore.Metal>
0.0000

> <Gold.Chemscore.Lipo>
85.3600

> <Gold.Chemscore.Internal_Hbond>
0.0000

> <Gold.Chemscore.DEClash>
0.2805

> <Gold.Chemscore.DEInternal>
2.4781

> <Gold.Chemscore.Rot>
1.1744

> <Gold.Chemscore.Internal.Correction>
   9.000000E+99

> <Gold.Chemscore.Hbonds>
donor molecule, donor type, donor heavy atom, donor atom, acceptor molecule, acceptor atom, score
      L1  H     3    25       P1  7948  0.99
      L1  H    13    33       P1  7948  0.93
      P1  H  7989  7998       L1    11  0.22

> <Gold.Chemscore.Hbond.Weighted>
-8.1204

> <Gold.Chemscore.Metal.Weighted>
-0.0000

> <Gold.Chemscore.Lipo.Weighted>
-9.9871

> <Gold.Chemscore.Internal_Hbond.Weighted>
0.0000

> <Gold.Chemscore.DEClash.Weighted>
0.2805

> <Gold.Chemscore.DEInternal.Weighted>
2.4781

> <Gold.Chemscore.Rot.Weighted>
3.0064

> <Gold.Chemscore.Internal.Correction.Weighted>
   9.000000E+99

> <Gold.Protein.RotatedTorsions>
[ 6907 6896 6895 6894 ] final   14.16 input  -60.11 | X-H torsion
[ 7974 7965 7964 7962 ] final   -4.07 input  175.53 | X-H torsion
[ 8008 7997 7996 7995 ] final  -66.61 input   59.86 | X-H torsion
[ 10167 10162 10161 10158 ] final  132.97 input  -65.29 | X-H torsion
[ 10718 10713 10712 10709 ] final  -43.58 input   66.30 | X-H torsion
[ 10763 10752 10751 10750 ] final -169.69 input  -60.55 | X-H torsion
[ 11005 11000 10999 10996 ] final  -77.69 input  -57.11 | X-H torsion

> <Gold.Protein.ActiveResidues>
 VAL166  LYS551  ARG553  GLY616  TRP617  ASP618  TYR619  PRO620  LYS621  CYS622 
 ASP623  PHE694  ASN695  SER759  ASP760  ASP761  ALA762  ILE779  LEU786  VAL792 
 PHE793  MET794  SER795  GLU796  ALA797  LYS798  CYS799  TRP800  GLU811  SER814 

> <Gold.Protein.RotatedAtoms>
  151.7979  135.0717  160.0395 H   0  0  0  0  0  0  0  0  0  0  0  0  # atno 6907 bound_to 6896
  152.3110  133.5748  159.5689 H   0  0  0  0  0  0  0  0  0  0  0  0  # atno 6908 bound_to 6896
  150.7320  134.0068  159.3698 H   0  0  0  0  0  0  0  0  0  0  0  0  # atno 6909 bound_to 6896
  146.2379  140.1816  142.8332 H   0  0  0  0  0  0  0  0  0  0  0  0  # atno 7974 bound_to 7965
  154.4745  140.0909  156.7228 H   0  0  0  0  0  0  0  0  0  0  0  0  # atno 8008 bound_to 7997
  155.4633  140.3462  155.4297 H   0  0  0  0  0  0  0  0  0  0  0  0  # atno 8009 bound_to 7997
  156.1094  140.1443  156.9347 H   0  0  0  0  0  0  0  0  0  0  0  0  # atno 8010 bound_to 7997
  139.5316  144.6637  151.4929 H   0  0  0  0  0  0  0  0  0  0  0  0  # atno 10167 bound_to 10162
  156.2475  130.4185  149.8688 H   0  0  0  0  0  0  0  0  0  0  0  0  # atno 10718 bound_to 10713
  154.6496  135.2909  155.0004 H   0  0  0  0  0  0  0  0  0  0  0  0  # atno 10763 bound_to 10752
  154.1102  135.6564  153.4887 H   0  0  0  0  0  0  0  0  0  0  0  0  # atno 10764 bound_to 10752
  153.0369  135.5263  154.7398 H   0  0  0  0  0  0  0  0  0  0  0  0  # atno 10765 bound_to 10752
  141.1661  133.7032  156.7858 H   0  0  0  0  0  0  0  0  0  0  0  0  # atno 11005 bound_to 11000
  144.9930  140.8564  143.5328 LP  0  0  0  0  0  0  0  0  0  0  0  0  # atno 17320 bound_to 7965
  145.1824  139.2344  143.5285 LP  0  0  0  0  0  0  0  0  0  0  0  0  # atno 17321 bound_to 7965
  140.6498  143.8719  150.6774 LP  0  0  0  0  0  0  0  0  0  0  0  0  # atno 17342 bound_to 10162
  140.2080  143.3906  152.1740 LP  0  0  0  0  0  0  0  0  0  0  0  0  # atno 17343 bound_to 10162
  156.6248  130.8641  151.3483 LP  0  0  0  0  0  0  0  0  0  0  0  0  # atno 17370 bound_to 10713
  157.7201  130.9547  150.1405 LP  0  0  0  0  0  0  0  0  0  0  0  0  # atno 17371 bound_to 10713
  140.2361  134.8649  157.3526 LP  0  0  0  0  0  0  0  0  0  0  0  0  # atno 17394 bound_to 11000
  140.1842  134.4451  155.7753 LP  0  0  0  0  0  0  0  0  0  0  0  0  # atno 17395 bound_to 11000

$$$$
