AV-unprocessed.smi:2329|AV-procd|sdf|9309|dock6
  -GOLD-   2272012523D 1   1.00000     0.00000
 Structure written by MMmdl.
 45 48  0  0  0  0  0  0  0  0  1 V2000
  152.8196  141.4553  161.6111 C   0  0  0  0  0  0  0  0  0  0  0  0
  152.1683  142.6268  160.9060 C   0  0  0  0  0  0  0  0  0  0  0  0
  152.0807  143.8888  161.5259 C   0  0  0  0  0  0  0  0  0  0  0  0
  151.4630  144.9343  160.8165 C   0  0  0  0  0  0  0  0  0  0  0  0
  150.9622  144.6768  159.5261 C   0  0  0  0  0  0  0  0  0  0  0  0
  151.0916  143.3817  158.9764 C   0  0  0  0  0  0  0  0  0  0  0  0
  150.5473  143.2256  157.6755 N   0  0  0  0  0  0  0  0  0  0  0  0
  150.5205  142.1214  156.9042 C   0  0  0  0  0  0  0  0  0  0  0  0
  151.0844  141.0624  157.1738 O   0  0  0  0  0  0  0  0  0  0  0  0
  149.8147  142.2668  155.7692 N   0  0  0  0  0  0  0  0  0  0  0  0
  149.5900  141.2685  154.7223 C   0  0  1  0  0  0  0  0  0  0  0  0
  149.4815  139.8538  155.2931 C   0  0  2  0  0  0  0  0  0  0  0  0
  150.3299  138.6344  155.2187 C   0  0  0  0  0  0  0  0  0  0  0  0
  149.2110  137.6127  154.8837 C   0  0  0  0  0  0  0  0  0  0  0  0
  148.0328  138.3990  154.5828 O   0  0  0  0  0  0  0  0  0  0  0  0
  148.5558  139.6262  154.1169 C   0  0  1  0  0  0  0  0  0  0  0  0
  148.0768  141.0784  154.3123 C   0  0  0  0  0  0  0  0  0  0  0  0
  146.9581  141.3541  155.3326 C   0  0  0  0  0  0  0  0  0  0  0  0
  146.3233  142.6858  154.9445 C   0  0  0  0  0  0  0  0  0  0  0  0
  146.4232  142.7271  153.4237 C   0  0  0  0  0  0  0  0  0  0  0  0
  147.5952  141.8101  153.0527 C   0  0  0  0  0  0  0  0  0  0  0  0
  151.6888  142.3796  159.6680 N   0  0  0  0  0  0  0  0  0  0  0  0
  153.0919  141.7115  162.6353 H   0  0  0  0  0  0  0  0  0  0  0  0
  153.7238  141.1514  161.0829 H   0  0  0  0  0  0  0  0  0  0  0  0
  152.1383  140.6046  161.6438 H   0  0  0  0  0  0  0  0  0  0  0  0
  152.4747  144.0542  162.5178 H   0  0  0  0  0  0  0  0  0  0  0  0
  151.3739  145.9177  161.2539 H   0  0  0  0  0  0  0  0  0  0  0  0
  150.4839  145.4687  158.9679 H   0  0  0  0  0  0  0  0  0  0  0  0
  150.0708  144.0347  157.3058 H   0  0  0  0  0  0  0  0  0  0  0  0
  149.4064  143.1759  155.6053 H   0  0  0  0  0  0  0  0  0  0  0  0
  150.2846  141.3369  153.8797 H   0  0  0  0  0  0  0  0  0  0  0  0
  148.9474  139.8675  156.2483 H   0  0  0  0  0  0  0  0  0  0  0  0
  151.0730  138.7032  154.4230 H   0  0  0  0  0  0  0  0  0  0  0  0
  150.8340  138.4106  156.1592 H   0  0  0  0  0  0  0  0  0  0  0  0
  149.4890  137.0002  154.0250 H   0  0  0  0  0  0  0  0  0  0  0  0
  149.0019  136.9469  155.7213 H   0  0  0  0  0  0  0  0  0  0  0  0
  149.0746  139.4879  153.1611 H   0  0  0  0  0  0  0  0  0  0  0  0
  146.2055  140.5665  155.2759 H   0  0  0  0  0  0  0  0  0  0  0  0
  147.3034  141.3827  156.3660 H   0  0  0  0  0  0  0  0  0  0  0  0
  145.2976  142.7826  155.3017 H   0  0  0  0  0  0  0  0  0  0  0  0
  146.9001  143.5066  155.3715 H   0  0  0  0  0  0  0  0  0  0  0  0
  145.5034  142.3399  152.9840 H   0  0  0  0  0  0  0  0  0  0  0  0
  146.5612  143.7438  153.0537 H   0  0  0  0  0  0  0  0  0  0  0  0
  148.4009  142.3920  152.6058 H   0  0  0  0  0  0  0  0  0  0  0  0
  147.2759  141.1009  152.2881 H   0  0  0  0  0  0  0  0  0  0  0  0
  1  2  1  0  0  0  0
  1 23  1  0  0  0  0
  1 24  1  0  0  0  0
  1 25  1  0  0  0  0
  2 22  1  0  0  0  0
  2  3  2  0  0  0  0
  3  4  1  0  0  0  0
  3 26  1  0  0  0  0
  4  5  2  0  0  0  0
  4 27  1  0  0  0  0
  5  6  1  0  0  0  0
  5 28  1  0  0  0  0
  6  7  1  0  0  0  0
  6 22  2  0  0  0  0
  7  8  1  0  0  0  0
  7 29  1  0  0  0  0
  8  9  2  0  0  0  0
  8 10  1  0  0  0  0
 10 11  1  0  0  0  0
 10 30  1  0  0  0  0
 11 17  1  0  0  0  0
 11 12  1  0  0  0  0
 11 31  1  0  0  0  0
 12 16  1  0  0  0  0
 12 13  1  0  0  0  0
 12 32  1  0  0  0  0
 13 14  1  0  0  0  0
 13 33  1  0  0  0  0
 13 34  1  0  0  0  0
 14 15  1  0  0  0  0
 14 35  1  0  0  0  0
 14 36  1  0  0  0  0
 15 16  1  0  0  0  0
 16 17  1  0  0  0  0
 16 37  1  0  0  0  0
 17 21  1  0  0  0  0
 17 18  1  0  0  0  0
 18 19  1  0  0  0  0
 18 38  1  0  0  0  0
 18 39  1  0  0  0  0
 19 20  1  0  0  0  0
 19 40  1  0  0  0  0
 19 41  1  0  0  0  0
 20 21  1  0  0  0  0
 20 42  1  0  0  0  0
 20 43  1  0  0  0  0
 21 44  1  0  0  0  0
 21 45  1  0  0  0  0
M  END
> <s_m_source_file>
AV-unprocessed.smi

> <i_m_source_file_index>
2329

> <i_lp_mmshare_version>
43012

> <i_f3d_flags>
0

> <s_epik_input>
W0NIM11jMVtjSF1bY0hdW2NIXWMobjEpW05IXUMoPU8pW05IXVtDQEBIXTJbQ0BASF0oW0NIMl1bQ0gyXU8zKVtDQEhdM0MyNFtDSDJdW0NIMl1bQ0gyXVtDSDJdNA==

> <s_epik_cmdline>
J2VwaWtfcHl0aG9uJywgJy1waCcsICc3LjAnLCAnLXRuJywgJzgnLCAnLW1hJywgJzIwMCcsICctbWV0YWxfYmluZGluZycsICctaW1hZScsICc8aW5maWxlLm1hZT4nLCAnLW9tYWUnLCAnPG91dGZpbGUubWFlPic=

> <r_lp_tautomer_probability>
1

> <r_epik_Ionization_Penalty>
8.97002e-05

> <r_epik_Ionization_Penalty_Charging>
0

> <r_epik_Ionization_Penalty_Neutral>
8.97002e-05

> <r_epik_State_Penalty>
-0

> <r_epik_Charging_Adjusted_Penalty>
0

> <i_epik_Tot_Q>
0

> <i_epik_Tot_abs_Q>
0

> <r_epik_Metal_State_Penalty>
-0

> <b_epik_Metal_Only>
0

> <s_lp_Force_Field>
OPLS_2005

> <r_lp_Energy>
86.4026

> <b_lp_Chiralities_Consistent>
1

> <s_lp_Variant>
AV-unprocessed.smi:2329-8

> <Gold.Version>
5.8.1

> <Gold.Id.Protein>
6NUR|6NUR_protein|mol2

> <Gold.PLP.Fitness>
49.7403

> <Gold.PLP.PLP>
-44.3306

> <Gold.PLP.part.hbond>
-2.0000

> <Gold.PLP.part.metal>
0.0000

> <Gold.PLP.part.buried>
-5.1053

> <Gold.PLP.part.nonpolar>
-36.7925

> <Gold.PLP.part.repulsive>
0.3300

> <Gold.PLP.ligand.clash>
0.0000

> <Gold.PLP.ligand.torsion>
0.2192

> <Gold.PLP.Chemscore.Hbond>
1.8564

> <Gold.PLP.Chemscore.CHOScore>
0.0000

> <Gold.PLP.Chemscore.Metal>
0.0000

> <Gold.Chemscore.Hbonds>
donor molecule, donor type, donor heavy atom, donor atom, acceptor molecule, acceptor atom, score
      L1  H     7    29       P1  8028  0.70
      L1  H    10    30       P1  8028  1.00

> <Gold.PLP.Chemscore.Internal.Correction>
0.2787

> <Gold.Rescore>
     Score         DG    S(hbond)    S(metal)    S(lipo)     H(rot)  DE(clash)    DE(int)     intcor
     19.38     -22.94       1.94        0.00     115.69       1.00       0.51       3.05       ----

> <Gold.Chemscore.Fitness>
19.3794

> <Gold.Chemscore.DG>
-22.9368

> <Gold.Chemscore.ZeroCoef>
-5.4800

> <Gold.Chemscore.Hbond>
1.9405

> <Gold.Chemscore.Metal>
0.0000

> <Gold.Chemscore.Lipo>
115.6895

> <Gold.Chemscore.Internal_Hbond>
0.0000

> <Gold.Chemscore.DEClash>
0.5053

> <Gold.Chemscore.DEInternal>
3.0522

> <Gold.Chemscore.Rot>
1.0000

> <Gold.Chemscore.Internal.Correction>
   9.000000E+99

> <Gold.Chemscore.Hbonds>
donor molecule, donor type, donor heavy atom, donor atom, acceptor molecule, acceptor atom, score
      L1  H     7    29       P1  8028  0.52
      L1  H    10    30       P1  8028  0.99

> <Gold.Chemscore.Hbond.Weighted>
-6.4812

> <Gold.Chemscore.Metal.Weighted>
-0.0000

> <Gold.Chemscore.Lipo.Weighted>
-13.5357

> <Gold.Chemscore.Internal_Hbond.Weighted>
0.0000

> <Gold.Chemscore.DEClash.Weighted>
0.5053

> <Gold.Chemscore.DEInternal.Weighted>
3.0522

> <Gold.Chemscore.Rot.Weighted>
2.5600

> <Gold.Chemscore.Internal.Correction.Weighted>
   9.000000E+99

> <Gold.Protein.RotatedTorsions>
[ 6907 6896 6895 6894 ] final   73.49 input  -60.11 | X-H torsion
[ 7974 7965 7964 7962 ] final  132.24 input  175.53 | X-H torsion
[ 8008 7997 7996 7995 ] final   10.08 input   59.86 | X-H torsion
[ 10167 10162 10161 10158 ] final   28.94 input  -65.29 | X-H torsion
[ 10718 10713 10712 10709 ] final -161.45 input   66.30 | X-H torsion
[ 10763 10752 10751 10750 ] final   20.80 input  -60.55 | X-H torsion
[ 11005 11000 10999 10996 ] final  131.89 input  -57.11 | X-H torsion

> <Gold.Protein.ActiveResidues>
 VAL166  LYS551  ARG553  GLY616  TRP617  ASP618  TYR619  PRO620  LYS621  CYS622 
 ASP623  PHE694  ASN695  SER759  ASP760  ASP761  ALA762  ILE779  LEU786  VAL792 
 PHE793  MET794  SER795  GLU796  ALA797  LYS798  CYS799  TRP800  GLU811  SER814 

> <Gold.Protein.RotatedAtoms>
  152.4926  134.4414  159.9544 H   0  0  0  0  0  0  0  0  0  0  0  0  # atno 6907 bound_to 6896
  151.4399  133.3640  159.2788 H   0  0  0  0  0  0  0  0  0  0  0  0  # atno 6908 bound_to 6896
  150.9095  134.8535  159.7475 H   0  0  0  0  0  0  0  0  0  0  0  0  # atno 6909 bound_to 6896
  144.9989  139.4331  143.5302 H   0  0  0  0  0  0  0  0  0  0  0  0  # atno 7974 bound_to 7965
  154.7887  140.2832  155.6008 H   0  0  0  0  0  0  0  0  0  0  0  0  # atno 8008 bound_to 7997
  156.2961  140.2609  156.2657 H   0  0  0  0  0  0  0  0  0  0  0  0  # atno 8009 bound_to 7997
  154.9697  140.0376  157.2218 H   0  0  0  0  0  0  0  0  0  0  0  0  # atno 8010 bound_to 7997
  140.4809  144.0618  150.6265 H   0  0  0  0  0  0  0  0  0  0  0  0  # atno 10167 bound_to 10162
  156.5964  130.8792  151.2903 H   0  0  0  0  0  0  0  0  0  0  0  0  # atno 10718 bound_to 10713
  153.1047  135.6681  153.9608 H   0  0  0  0  0  0  0  0  0  0  0  0  # atno 10763 bound_to 10752
  153.9168  135.3019  155.3449 H   0  0  0  0  0  0  0  0  0  0  0  0  # atno 10764 bound_to 10752
  154.7468  135.5053  153.9295 H   0  0  0  0  0  0  0  0  0  0  0  0  # atno 10765 bound_to 10752
  139.9757  134.9564  156.9504 H   0  0  0  0  0  0  0  0  0  0  0  0  # atno 11005 bound_to 11000
  146.3448  139.9366  142.8746 LP  0  0  0  0  0  0  0  0  0  0  0  0  # atno 17320 bound_to 7965
  145.2180  140.9923  143.4062 LP  0  0  0  0  0  0  0  0  0  0  0  0  # atno 17321 bound_to 7965
  140.3859  143.2778  152.0116 LP  0  0  0  0  0  0  0  0  0  0  0  0  # atno 17342 bound_to 10162
  139.4833  144.6117  151.7422 LP  0  0  0  0  0  0  0  0  0  0  0  0  # atno 17343 bound_to 10162
  157.7291  130.9666  150.1770 LP  0  0  0  0  0  0  0  0  0  0  0  0  # atno 17370 bound_to 10713
  156.2506  130.3700  149.8236 LP  0  0  0  0  0  0  0  0  0  0  0  0  # atno 17371 bound_to 10713
  140.5199  134.0918  155.7289 LP  0  0  0  0  0  0  0  0  0  0  0  0  # atno 17394 bound_to 11000
  141.1434  133.9097  157.2272 LP  0  0  0  0  0  0  0  0  0  0  0  0  # atno 17395 bound_to 11000

$$$$
