AV-unprocessed.smi:2640|AV-procd|sdf|10269|dock5
  -GOLD-   2272014283D 1   1.00000     0.00000
 Structure written by MMmdl.
 42 43  0  0  0  0  0  0  0  0  2 V2000
  146.7105  140.0486  154.2959 O   0  0  0  0  0  0  0  0  0  0  0  0
  147.0702  139.1776  153.5028 C   0  0  0  0  0  0  0  0  0  0  0  0
  146.1088  138.6450  152.4395 C   0  0  0  0  0  0  0  0  0  0  0  0
  146.8084  137.8827  151.3853 N   0  3  0  0  0  0  0  0  0  0  0  0
  145.9272  136.9976  150.6000 C   0  0  0  0  0  0  0  0  0  0  0  0
  145.1662  136.0242  151.5117 C   0  0  0  0  0  0  0  0  0  0  0  0
  145.2616  134.6562  151.0393 N   0  0  0  0  0  0  0  0  0  0  0  0
  144.2427  133.7969  150.6839 C   0  0  0  0  0  0  0  0  0  0  0  0
  144.8194  132.6212  150.2969 C   0  0  0  0  0  0  0  0  0  0  0  0
  146.2137  132.8625  150.4478 C   0  0  0  0  0  0  0  0  0  0  0  0
  146.4750  134.0824  150.8899 N   0  0  0  0  0  0  0  0  0  0  0  0
  148.2967  138.6311  153.5135 N   0  0  0  0  0  0  0  0  0  0  0  0
  149.3814  138.9871  154.4320 C   0  0  1  0  0  0  0  0  0  0  0  0
  150.6908  138.4053  153.8511 C   0  0  0  0  0  0  0  0  0  0  0  0
  151.8030  138.2096  154.8959 C   0  0  0  0  0  0  0  0  0  0  0  0
  152.3358  139.5050  155.5260 C   0  0  0  0  0  0  0  0  0  0  0  0
  151.2763  140.2867  156.3210 C   0  0  0  0  0  0  0  0  0  0  0  0
  150.3763  141.0315  155.4505 N   0  0  0  0  0  0  0  0  0  0  0  0
  149.5165  140.5236  154.5546 C   0  0  0  0  0  0  0  0  0  0  0  0
  148.8486  141.2716  153.8405 O   0  0  0  0  0  0  0  0  0  0  0  0
  145.3621  138.0045  152.9114 H   0  0  0  0  0  0  0  0  0  0  0  0
  145.5821  139.4886  151.9918 H   0  0  0  0  0  0  0  0  0  0  0  0
  147.2496  138.5412  150.7589 H   0  0  0  0  0  0  0  0  0  0  0  0
  145.2257  137.6087  150.0306 H   0  0  0  0  0  0  0  0  0  0  0  0
  146.5289  136.4403  149.8806 H   0  0  0  0  0  0  0  0  0  0  0  0
  145.5614  136.0680  152.5276 H   0  0  0  0  0  0  0  0  0  0  0  0
  144.1113  136.2968  151.5694 H   0  0  0  0  0  0  0  0  0  0  0  0
  143.2039  134.0888  150.7355 H   0  0  0  0  0  0  0  0  0  0  0  0
  144.3215  131.7254  149.9561 H   0  0  0  0  0  0  0  0  0  0  0  0
  147.0375  132.1928  150.2494 H   0  0  0  0  0  0  0  0  0  0  0  0
  148.5072  137.9253  152.8227 H   0  0  0  0  0  0  0  0  0  0  0  0
  149.1766  138.5489  155.4108 H   0  0  0  0  0  0  0  0  0  0  0  0
  150.4836  137.4241  153.4210 H   0  0  0  0  0  0  0  0  0  0  0  0
  151.0555  139.0146  153.0220 H   0  0  0  0  0  0  0  0  0  0  0  0
  151.4477  137.5431  155.6827 H   0  0  0  0  0  0  0  0  0  0  0  0
  152.6359  137.6893  154.4219 H   0  0  0  0  0  0  0  0  0  0  0  0
  153.1493  139.2414  156.2028 H   0  0  0  0  0  0  0  0  0  0  0  0
  152.7796  140.1428  154.7603 H   0  0  0  0  0  0  0  0  0  0  0  0
  150.7127  139.6285  156.9835 H   0  0  0  0  0  0  0  0  0  0  0  0
  151.7751  141.0135  156.9625 H   0  0  0  0  0  0  0  0  0  0  0  0
  150.4319  142.0380  155.5123 H   0  0  0  0  0  0  0  0  0  0  0  0
  147.5277  137.3235  151.8214 H   0  0  0  0  0  0  0  0  0  0  0  0
  1  2  2  0  0  0  0
  2  3  1  0  0  0  0
  2 12  1  0  0  0  0
  3  4  1  0  0  0  0
  3 21  1  0  0  0  0
  3 22  1  0  0  0  0
  4  5  1  0  0  0  0
  4 23  1  0  0  0  0
  4 42  1  0  0  0  0
  5  6  1  0  0  0  0
  5 24  1  0  0  0  0
  5 25  1  0  0  0  0
  6  7  1  0  0  0  0
  6 26  1  0  0  0  0
  6 27  1  0  0  0  0
  7 11  1  0  0  0  0
  7  8  1  0  0  0  0
  8  9  2  0  0  0  0
  8 28  1  0  0  0  0
  9 10  1  0  0  0  0
  9 29  1  0  0  0  0
 10 11  2  0  0  0  0
 10 30  1  0  0  0  0
 12 13  1  0  0  0  0
 12 31  1  0  0  0  0
 13 19  1  0  0  0  0
 13 14  1  0  0  0  0
 13 32  1  0  0  0  0
 14 15  1  0  0  0  0
 14 33  1  0  0  0  0
 14 34  1  0  0  0  0
 15 16  1  0  0  0  0
 15 35  1  0  0  0  0
 15 36  1  0  0  0  0
 16 17  1  0  0  0  0
 16 37  1  0  0  0  0
 16 38  1  0  0  0  0
 17 18  1  0  0  0  0
 17 39  1  0  0  0  0
 17 40  1  0  0  0  0
 18 19  1  0  0  0  0
 18 41  1  0  0  0  0
 19 20  2  0  0  0  0
M  CHG  1   4   1
M  END
> <s_m_source_file>
AV-unprocessed.smi

> <i_m_source_file_index>
2640

> <i_lp_mmshare_version>
43012

> <i_f3d_flags>
0

> <s_epik_input>
Tz1DMVtOSF1bQ0gyXVtDSDJdW0NIMl1bQ0gyXVtDQEhdMVtOSF1DKD1PKVtDSDJdW05IXVtDSDJdW0NIMl1uMltjSF1bY0hdW2NIXW4y

> <s_epik_cmdline>
J2VwaWtfcHl0aG9uJywgJy1waCcsICc3LjAnLCAnLXRuJywgJzgnLCAnLW1hJywgJzIwMCcsICctbWV0YWxfYmluZGluZycsICctaW1hZScsICc8aW5maWxlLm1hZT4nLCAnLW9tYWUnLCAnPG91dGZpbGUubWFlPic=

> <r_lp_tautomer_probability>
1

> <r_epik_Ionization_Penalty>
0.245908

> <r_epik_Ionization_Penalty_Charging>
0.245903

> <r_epik_Ionization_Penalty_Neutral>
5.38378e-06

> <r_epik_State_Penalty>
0.237496

> <r_epik_Charging_Adjusted_Penalty>
0.483398

> <i_epik_Tot_Q>
1

> <i_epik_Tot_abs_Q>
1

> <r_epik_Metal_State_Penalty>
0.237698

> <b_epik_Metal_Only>
0

> <s_lp_Force_Field>
OPLS_2005

> <r_lp_Energy>
9.28835

> <b_lp_Chiralities_Consistent>
1

> <s_lp_Variant>
AV-unprocessed.smi:2640-2

> <Gold.Version>
5.8.1

> <Gold.Id.Protein>
6NUR|6NUR_protein|mol2

> <Gold.PLP.Fitness>
53.5109

> <Gold.PLP.PLP>
-37.5202

> <Gold.PLP.part.hbond>
-4.1304

> <Gold.PLP.part.metal>
0.0000

> <Gold.PLP.part.buried>
-0.8849

> <Gold.PLP.part.nonpolar>
-34.8381

> <Gold.PLP.part.repulsive>
3.4774

> <Gold.PLP.ligand.clash>
0.0000

> <Gold.PLP.ligand.torsion>
0.8061

> <Gold.PLP.Chemscore.Hbond>
3.8480

> <Gold.PLP.Chemscore.CHOScore>
2.0000

> <Gold.PLP.Chemscore.Metal>
0.0000

> <Gold.Chemscore.Hbonds>
donor molecule, donor type, donor heavy atom, donor atom, acceptor molecule, acceptor atom, score
      L1  H     4    42       P1  7948  2.00
      L1  H    12    31       P1  7948  1.00
      P1  H  8011  8017       L1    20  0.65
      L1  C     8    28       P1 10186  1.00
      L1  C    10    30       P1 10747  1.00

> <Gold.PLP.Chemscore.Internal.Correction>
0.0588

> <Gold.Rescore>
     Score         DG    S(hbond)    S(metal)    S(lipo)     H(rot)  DE(clash)    DE(int)     intcor
     10.80     -17.64       2.69        0.00      80.57       2.45       2.19       4.65       ----

> <Gold.Chemscore.Fitness>
10.8004

> <Gold.Chemscore.DG>
-17.6409

> <Gold.Chemscore.ZeroCoef>
-5.4800

> <Gold.Chemscore.Hbond>
2.6937

> <Gold.Chemscore.Metal>
0.0000

> <Gold.Chemscore.Lipo>
80.5655

> <Gold.Chemscore.Internal_Hbond>
0.0000

> <Gold.Chemscore.DEClash>
2.1914

> <Gold.Chemscore.DEInternal>
4.6491

> <Gold.Chemscore.Rot>
2.4462

> <Gold.Chemscore.Internal.Correction>
   9.000000E+99

> <Gold.Chemscore.Hbonds>
donor molecule, donor type, donor heavy atom, donor atom, acceptor molecule, acceptor atom, score
      L1  H     4    42       P1  7948  0.98
      L1  H    12    31       P1  7948  0.98
      P1  H  8011  8017       L1    20  0.63

> <Gold.Chemscore.Hbond.Weighted>
-8.9970

> <Gold.Chemscore.Metal.Weighted>
-0.0000

> <Gold.Chemscore.Lipo.Weighted>
-9.4262

> <Gold.Chemscore.Internal_Hbond.Weighted>
0.0000

> <Gold.Chemscore.DEClash.Weighted>
2.1914

> <Gold.Chemscore.DEInternal.Weighted>
4.6491

> <Gold.Chemscore.Rot.Weighted>
6.2623

> <Gold.Chemscore.Internal.Correction.Weighted>
   9.000000E+99

> <Gold.Protein.RotatedTorsions>
[ 6907 6896 6895 6894 ] final  168.69 input  -60.11 | X-H torsion
[ 7974 7965 7964 7962 ] final  -98.70 input  175.53 | X-H torsion
[ 8008 7997 7996 7995 ] final -134.63 input   59.86 | X-H torsion
[ 10167 10162 10161 10158 ] final -175.42 input  -65.29 | X-H torsion
[ 10718 10713 10712 10709 ] final -134.56 input   66.30 | X-H torsion
[ 10763 10752 10751 10750 ] final  -24.22 input  -60.55 | X-H torsion
[ 11005 11000 10999 10996 ] final  -74.38 input  -57.11 | X-H torsion

> <Gold.Protein.ActiveResidues>
 VAL166  LYS551  ARG553  GLY616  TRP617  ASP618  TYR619  PRO620  LYS621  CYS622 
 ASP623  PHE694  ASN695  SER759  ASP760  ASP761  ALA762  ILE779  LEU786  VAL792 
 PHE793  MET794  SER795  GLU796  ALA797  LYS798  CYS799  TRP800  GLU811  SER814 

> <Gold.Protein.RotatedAtoms>
  151.8436  133.3428  159.3650 H   0  0  0  0  0  0  0  0  0  0  0  0  # atno 6907 bound_to 6896
  150.7227  134.5367  159.5736 H   0  0  0  0  0  0  0  0  0  0  0  0  # atno 6908 bound_to 6896
  152.2846  134.7791  160.0441 H   0  0  0  0  0  0  0  0  0  0  0  0  # atno 6909 bound_to 6896
  145.3172  140.9413  143.2736 H   0  0  0  0  0  0  0  0  0  0  0  0  # atno 7974 bound_to 7965
  155.3652  140.0485  157.3046 H   0  0  0  0  0  0  0  0  0  0  0  0  # atno 8008 bound_to 7997
  154.5158  140.2207  155.9033 H   0  0  0  0  0  0  0  0  0  0  0  0  # atno 8009 bound_to 7997
  156.1634  140.3111  155.8853 H   0  0  0  0  0  0  0  0  0  0  0  0  # atno 8010 bound_to 7997
  139.5582  144.1936  152.1194 H   0  0  0  0  0  0  0  0  0  0  0  0  # atno 10167 bound_to 10162
  156.2568  130.7186  151.1105 H   0  0  0  0  0  0  0  0  0  0  0  0  # atno 10718 bound_to 10713
  153.6803  135.6967  153.5120 H   0  0  0  0  0  0  0  0  0  0  0  0  # atno 10763 bound_to 10752
  153.2490  135.4281  155.0777 H   0  0  0  0  0  0  0  0  0  0  0  0  # atno 10764 bound_to 10752
  154.8402  135.3526  154.6346 H   0  0  0  0  0  0  0  0  0  0  0  0  # atno 10765 bound_to 10752
  141.1634  133.6909  156.7355 H   0  0  0  0  0  0  0  0  0  0  0  0  # atno 11005 bound_to 11000
  144.8968  139.4701  143.6651 LP  0  0  0  0  0  0  0  0  0  0  0  0  # atno 17320 bound_to 7965
  146.3096  139.7699  142.9030 LP  0  0  0  0  0  0  0  0  0  0  0  0  # atno 17321 bound_to 7965
  140.1445  144.5172  150.6724 LP  0  0  0  0  0  0  0  0  0  0  0  0  # atno 17342 bound_to 10162
  140.6858  143.2349  151.5264 LP  0  0  0  0  0  0  0  0  0  0  0  0  # atno 17343 bound_to 10162
  157.7235  131.0665  150.6032 LP  0  0  0  0  0  0  0  0  0  0  0  0  # atno 17370 bound_to 10713
  156.6116  130.4381  149.5856 LP  0  0  0  0  0  0  0  0  0  0  0  0  # atno 17371 bound_to 10713
  140.2713  134.8390  157.3849 LP  0  0  0  0  0  0  0  0  0  0  0  0  # atno 17394 bound_to 11000
  140.1519  134.4839  155.7955 LP  0  0  0  0  0  0  0  0  0  0  0  0  # atno 17395 bound_to 11000

$$$$
