AV-unprocessed.smi:2078|AV-procd|sdf|8465|dock9
  -GOLD-   2272011163D 1   1.00000     0.00000
 Structure written by MMmdl.
 42 43  0  0  0  0  0  0  0  0  2 V2000
  137.0617  137.6682  154.5223 C   0  0  0  0  0  0  0  0  0  0  0  0
  138.4282  138.1881  154.2344 C   0  0  0  0  0  0  0  0  0  0  0  0
  139.5314  137.6338  153.6481 C   0  0  0  0  0  0  0  0  0  0  0  0
  140.4808  138.6891  153.6931 C   0  0  0  0  0  0  0  0  0  0  0  0
  141.7858  138.5199  153.1635 N   0  0  0  0  0  0  0  0  0  0  0  0
  142.4482  137.3648  152.9814 C   0  0  0  0  0  0  0  0  0  0  0  0
  141.9975  136.2428  153.2150 O   0  0  0  0  0  0  0  0  0  0  0  0
  143.6854  137.5758  152.5090 N   0  0  0  0  0  0  0  0  0  0  0  0
  144.6478  136.5210  152.2119 C   0  0  0  0  0  0  0  0  0  0  0  0
  143.9882  135.3445  151.4652 C   0  0  0  0  0  0  0  0  0  0  0  0
  144.9056  134.1877  151.3147 N   0  3  1  0  0  0  0  0  0  0  0  0
  145.8334  134.0507  152.4669 C   0  0  0  0  0  0  0  0  0  0  0  0
  146.8704  132.9446  152.2147 C   0  0  0  0  0  0  0  0  0  0  0  0
  146.1862  131.6079  151.8938 C   0  0  0  0  0  0  0  0  0  0  0  0
  145.1747  131.7590  150.7424 C   0  0  2  0  0  0  0  0  0  0  0  0
  145.8505  131.9064  149.3678 C   0  0  0  0  0  0  0  0  0  0  0  0
  144.1921  132.9114  151.0350 C   0  0  0  0  0  0  0  0  0  0  0  0
  140.0017  139.7866  154.2583 N   0  0  0  0  0  0  0  0  0  0  0  0
  138.6839  139.4710  154.6085 O   0  0  0  0  0  0  0  0  0  0  0  0
  136.9594  136.6347  154.1910 H   0  0  0  0  0  0  0  0  0  0  0  0
  136.3066  138.2638  154.0090 H   0  0  0  0  0  0  0  0  0  0  0  0
  136.8517  137.7035  155.5913 H   0  0  0  0  0  0  0  0  0  0  0  0
  139.6369  136.6358  153.2497 H   0  0  0  0  0  0  0  0  0  0  0  0
  142.2721  139.3695  152.9176 H   0  0  0  0  0  0  0  0  0  0  0  0
  143.9779  138.5272  152.3382 H   0  0  0  0  0  0  0  0  0  0  0  0
  145.4745  136.9469  151.6428 H   0  0  0  0  0  0  0  0  0  0  0  0
  145.0697  136.1713  153.1544 H   0  0  0  0  0  0  0  0  0  0  0  0
  143.1087  135.0390  152.0340 H   0  0  0  0  0  0  0  0  0  0  0  0
  143.6253  135.6488  150.4822 H   0  0  0  0  0  0  0  0  0  0  0  0
  146.3550  134.9933  152.6377 H   0  0  0  0  0  0  0  0  0  0  0  0
  145.2628  133.8353  153.3718 H   0  0  0  0  0  0  0  0  0  0  0  0
  147.5255  133.2351  151.3930 H   0  0  0  0  0  0  0  0  0  0  0  0
  147.5107  132.8311  153.0900 H   0  0  0  0  0  0  0  0  0  0  0  0
  146.9303  130.8478  151.6536 H   0  0  0  0  0  0  0  0  0  0  0  0
  145.6648  131.2533  152.7839 H   0  0  0  0  0  0  0  0  0  0  0  0
  144.5929  130.8372  150.6996 H   0  0  0  0  0  0  0  0  0  0  0  0
  146.4453  132.8173  149.3012 H   0  0  0  0  0  0  0  0  0  0  0  0
  145.1081  131.9401  148.5699 H   0  0  0  0  0  0  0  0  0  0  0  0
  146.5108  131.0630  149.1636 H   0  0  0  0  0  0  0  0  0  0  0  0
  143.5723  132.6556  151.8960 H   0  0  0  0  0  0  0  0  0  0  0  0
  143.5112  133.0258  150.1922 H   0  0  0  0  0  0  0  0  0  0  0  0
  145.4843  134.3849  150.5108 H   0  0  0  0  0  0  0  0  0  0  0  0
  1  2  1  0  0  0  0
  1 20  1  0  0  0  0
  1 21  1  0  0  0  0
  1 22  1  0  0  0  0
  2 19  1  0  0  0  0
  2  3  2  0  0  0  0
  3  4  1  0  0  0  0
  3 23  1  0  0  0  0
  4  5  1  0  0  0  0
  4 18  2  0  0  0  0
  5  6  1  0  0  0  0
  5 24  1  0  0  0  0
  6  7  2  0  0  0  0
  6  8  1  0  0  0  0
  8  9  1  0  0  0  0
  8 25  1  0  0  0  0
  9 10  1  0  0  0  0
  9 26  1  0  0  0  0
  9 27  1  0  0  0  0
 10 11  1  0  0  0  0
 10 28  1  0  0  0  0
 10 29  1  0  0  0  0
 11 17  1  0  0  0  0
 11 12  1  0  0  0  0
 11 42  1  0  0  0  0
 12 13  1  0  0  0  0
 12 30  1  0  0  0  0
 12 31  1  0  0  0  0
 13 14  1  0  0  0  0
 13 32  1  0  0  0  0
 13 33  1  0  0  0  0
 14 15  1  0  0  0  0
 14 34  1  0  0  0  0
 14 35  1  0  0  0  0
 15 16  1  0  0  0  0
 15 17  1  0  0  0  0
 15 36  1  0  0  0  0
 16 37  1  0  0  0  0
 16 38  1  0  0  0  0
 16 39  1  0  0  0  0
 17 40  1  0  0  0  0
 17 41  1  0  0  0  0
 18 19  1  0  0  0  0
M  CHG  1  11   1
M  END
> <s_m_source_file>
AV-unprocessed.smi

> <i_m_source_file_index>
2078

> <i_lp_mmshare_version>
43012

> <i_f3d_flags>
0

> <s_epik_input>
W0NIM11jMVtjSF1jKG5vMSlbTkhdQyg9TylbTkhdW0NIMl1bQ0gyXU4yW0NIMl1bQ0gyXVtDSDJdW0NAQEhdKFtDSDNdKVtDSDJdMg==

> <s_epik_cmdline>
J2VwaWtfcHl0aG9uJywgJy1waCcsICc3LjAnLCAnLXRuJywgJzgnLCAnLW1hJywgJzIwMCcsICctbWV0YWxfYmluZGluZycsICctaW1hZScsICc8aW5maWxlLm1hZT4nLCAnLW9tYWUnLCAnPG91dGZpbGUubWFlPic=

> <r_epik_Ionization_Penalty>
0.00216453

> <r_epik_Ionization_Penalty_Charging>
0.00212879

> <r_epik_Ionization_Penalty_Neutral>
3.57418e-05

> <r_epik_State_Penalty>
0.00146033

> <r_epik_Charging_Adjusted_Penalty>
0.00358912

> <i_epik_Tot_Q>
1

> <i_epik_Tot_abs_Q>
1

> <r_epik_Metal_State_Penalty>
0.0215827

> <b_epik_Metal_Only>
0

> <s_lp_Force_Field>
OPLS_2005

> <r_lp_Energy>
15.3695

> <b_lp_Chiralities_Consistent>
1

> <s_lp_Variant>
AV-unprocessed.smi:2078-3

> <Gold.Version>
5.8.1

> <Gold.Id.Protein>
6NUR|6NUR_protein|mol2

> <Gold.PLP.Fitness>
40.4604

> <Gold.PLP.PLP>
-35.4116

> <Gold.PLP.part.hbond>
-3.1923

> <Gold.PLP.part.metal>
0.0000

> <Gold.PLP.part.buried>
-6.5671

> <Gold.PLP.part.nonpolar>
-26.6895

> <Gold.PLP.part.repulsive>
0.4498

> <Gold.PLP.ligand.clash>
0.0000

> <Gold.PLP.ligand.torsion>
0.4836

> <Gold.PLP.Chemscore.Hbond>
2.0000

> <Gold.PLP.Chemscore.CHOScore>
0.0000

> <Gold.PLP.Chemscore.Metal>
0.0000

> <Gold.Chemscore.Hbonds>
donor molecule, donor type, donor heavy atom, donor atom, acceptor molecule, acceptor atom, score
      L1  H     5    24       P1 10175  1.00
      L1  H     8    25       P1 10175  1.00

> <Gold.PLP.Chemscore.Internal.Correction>
0.0162

> <Gold.Rescore>
     Score         DG    S(hbond)    S(metal)    S(lipo)     H(rot)  DE(clash)    DE(int)     intcor
     14.39     -17.54       1.90        0.00      83.09       1.57       0.07       3.09       ----

> <Gold.Chemscore.Fitness>
14.3907

> <Gold.Chemscore.DG>
-17.5447

> <Gold.Chemscore.ZeroCoef>
-5.4800

> <Gold.Chemscore.Hbond>
1.9046

> <Gold.Chemscore.Metal>
0.0000

> <Gold.Chemscore.Lipo>
83.0929

> <Gold.Chemscore.Internal_Hbond>
0.0000

> <Gold.Chemscore.DEClash>
0.0689

> <Gold.Chemscore.DEInternal>
3.0851

> <Gold.Chemscore.Rot>
1.5697

> <Gold.Chemscore.Internal.Correction>
   9.000000E+99

> <Gold.Chemscore.Hbonds>
donor molecule, donor type, donor heavy atom, donor atom, acceptor molecule, acceptor atom, score
      L1  H     5    24       P1 10175  0.94
      L1  H     8    25       P1 10175  0.94

> <Gold.Chemscore.Hbond.Weighted>
-6.3613

> <Gold.Chemscore.Metal.Weighted>
-0.0000

> <Gold.Chemscore.Lipo.Weighted>
-9.7219

> <Gold.Chemscore.Internal_Hbond.Weighted>
0.0000

> <Gold.Chemscore.DEClash.Weighted>
0.0689

> <Gold.Chemscore.DEInternal.Weighted>
3.0851

> <Gold.Chemscore.Rot.Weighted>
4.0185

> <Gold.Chemscore.Internal.Correction.Weighted>
   9.000000E+99

> <Gold.Protein.RotatedTorsions>
[ 6907 6896 6895 6894 ] final   92.63 input  -60.11 | X-H torsion
[ 7974 7965 7964 7962 ] final  -73.88 input  175.53 | X-H torsion
[ 8008 7997 7996 7995 ] final   22.87 input   59.86 | X-H torsion
[ 10167 10162 10161 10158 ] final  102.30 input  -65.29 | X-H torsion
[ 10718 10713 10712 10709 ] final  150.07 input   66.30 | X-H torsion
[ 10763 10752 10751 10750 ] final    8.58 input  -60.55 | X-H torsion
[ 11005 11000 10999 10996 ] final   -1.00 input  -57.11 | X-H torsion

> <Gold.Protein.ActiveResidues>
 VAL166  LYS551  ARG553  GLY616  TRP617  ASP618  TYR619  PRO620  LYS621  CYS622 
 ASP623  PHE694  ASN695  SER759  ASP760  ASP761  ALA762  ILE779  LEU786  VAL792 
 PHE793  MET794  SER795  GLU796  ALA797  LYS798  CYS799  TRP800  GLU811  SER814 

> <Gold.Protein.RotatedAtoms>
  152.5453  134.1473  159.8503 H   0  0  0  0  0  0  0  0  0  0  0  0  # atno 6907 bound_to 6896
  151.1503  133.4905  159.2603 H   0  0  0  0  0  0  0  0  0  0  0  0  # atno 6908 bound_to 6896
  151.1479  135.0223  159.8710 H   0  0  0  0  0  0  0  0  0  0  0  0  # atno 6909 bound_to 6896
  145.6463  140.9296  143.1008 H   0  0  0  0  0  0  0  0  0  0  0  0  # atno 7974 bound_to 7965
  154.9723  140.3091  155.4982 H   0  0  0  0  0  0  0  0  0  0  0  0  # atno 8008 bound_to 7997
  156.2964  140.2281  156.4756 H   0  0  0  0  0  0  0  0  0  0  0  0  # atno 8009 bound_to 7997
  154.7865  140.0442  157.1156 H   0  0  0  0  0  0  0  0  0  0  0  0  # atno 8010 bound_to 7997
  139.7362  144.7023  151.0645 H   0  0  0  0  0  0  0  0  0  0  0  0  # atno 10167 bound_to 10162
  157.2882  131.0848  151.1482 H   0  0  0  0  0  0  0  0  0  0  0  0  # atno 10718 bound_to 10713
  153.2235  135.6884  153.7972 H   0  0  0  0  0  0  0  0  0  0  0  0  # atno 10763 bound_to 10752
  153.7162  135.3274  155.3258 H   0  0  0  0  0  0  0  0  0  0  0  0  # atno 10764 bound_to 10752
  154.8281  135.4602  154.1092 H   0  0  0  0  0  0  0  0  0  0  0  0  # atno 10765 bound_to 10752
  140.6425  133.9477  155.8334 H   0  0  0  0  0  0  0  0  0  0  0  0  # atno 11005 bound_to 11000
  144.7139  139.8270  143.7405 LP  0  0  0  0  0  0  0  0  0  0  0  0  # atno 17320 bound_to 7965
  146.1240  139.4262  143.0211 LP  0  0  0  0  0  0  0  0  0  0  0  0  # atno 17321 bound_to 7965
  140.7779  143.4981  150.9806 LP  0  0  0  0  0  0  0  0  0  0  0  0  # atno 17342 bound_to 10162
  139.8669  143.7242  152.3169 LP  0  0  0  0  0  0  0  0  0  0  0  0  # atno 17343 bound_to 10162
  157.2889  130.6786  149.6104 LP  0  0  0  0  0  0  0  0  0  0  0  0  # atno 17370 bound_to 10713
  155.9666  130.4427  150.5391 LP  0  0  0  0  0  0  0  0  0  0  0  0  # atno 17371 bound_to 10713
  141.0596  134.0365  157.3676 LP  0  0  0  0  0  0  0  0  0  0  0  0  # atno 17394 bound_to 11000
  139.9075  135.0183  156.7550 LP  0  0  0  0  0  0  0  0  0  0  0  0  # atno 17395 bound_to 11000

$$$$
