AV-unprocessed.smi:1525|AV-procd|sdf|6141|dock6
  -GOLD-   22720 6283D 1   1.00000     0.00000
 Structure written by MMmdl.
 48 50  0  0  0  0  0  0  0  0  1 V2000
  151.2164  135.0412  155.5988 O   0  0  0  0  0  0  0  0  0  0  0  0
  150.5349  135.4566  154.6619 C   0  0  0  0  0  0  0  0  0  0  0  0
  150.5225  136.7366  154.2632 N   0  0  0  0  0  0  0  0  0  0  0  0
  151.2662  137.8238  154.8922 C   0  0  0  0  0  0  0  0  0  0  0  0
  150.4891  139.1538  154.8281 C   0  0  0  0  0  0  0  0  0  0  0  0
  150.4542  139.9248  156.0710 N   0  0  0  0  0  0  0  0  0  0  0  0
  151.7414  139.9404  156.7625 C   0  0  0  0  0  0  0  0  0  0  0  0
  151.6786  140.7570  158.0647 C   0  0  0  0  0  0  0  0  0  0  0  0
  151.2412  142.0816  157.7776 O   0  0  0  0  0  0  0  0  0  0  0  0
  149.9700  142.1133  157.1365 C   0  0  0  0  0  0  0  0  0  0  0  0
  150.0298  141.2992  155.8321 C   0  0  0  0  0  0  0  0  0  0  0  0
  149.6976  134.7126  153.9198 N   0  0  0  0  0  0  0  0  0  0  0  0
  149.3533  133.3385  154.0724 C   0  0  0  0  0  0  0  0  0  0  0  0
  150.0616  132.4791  154.9487 C   0  0  0  0  0  0  0  0  0  0  0  0
  149.6581  131.1392  155.0777 C   0  0  0  0  0  0  0  0  0  0  0  0
  148.5594  130.7005  154.3211 C   0  0  0  0  0  0  0  0  0  0  0  0
  147.8886  131.4980  153.4665 N   0  0  0  0  0  0  0  0  0  0  0  0
  148.2749  132.7895  153.3199 C   0  0  0  0  0  0  0  0  0  0  0  0
  147.5488  133.5705  152.3913 N   0  0  0  0  0  0  0  0  0  0  0  0
  147.1000  132.9275  151.1599 C   0  0  0  0  0  0  0  0  0  0  0  0
  145.7214  133.5159  150.8409 C   0  0  0  0  0  0  0  0  0  0  0  0
  145.7088  134.8374  151.6024 C   0  0  0  0  0  0  0  0  0  0  0  0
  146.5225  134.5017  152.8486 C   0  0  0  0  0  0  0  0  0  0  0  0
  149.9299  136.9849  153.4848 H   0  0  0  0  0  0  0  0  0  0  0  0
  151.5571  137.5702  155.9119 H   0  0  0  0  0  0  0  0  0  0  0  0
  152.1998  137.9358  154.3407 H   0  0  0  0  0  0  0  0  0  0  0  0
  150.9048  139.7722  154.0313 H   0  0  0  0  0  0  0  0  0  0  0  0
  149.4674  138.9257  154.5210 H   0  0  0  0  0  0  0  0  0  0  0  0
  152.0586  138.9267  157.0031 H   0  0  0  0  0  0  0  0  0  0  0  0
  152.5081  140.3600  156.1095 H   0  0  0  0  0  0  0  0  0  0  0  0
  151.0008  140.2889  158.7804 H   0  0  0  0  0  0  0  0  0  0  0  0
  152.6615  140.7990  158.5342 H   0  0  0  0  0  0  0  0  0  0  0  0
  149.2068  141.7136  157.8061 H   0  0  0  0  0  0  0  0  0  0  0  0
  149.7020  143.1488  156.9262 H   0  0  0  0  0  0  0  0  0  0  0  0
  150.7158  141.7832  155.1351 H   0  0  0  0  0  0  0  0  0  0  0  0
  149.0469  141.3068  155.3596 H   0  0  0  0  0  0  0  0  0  0  0  0
  149.1505  135.2163  153.2374 H   0  0  0  0  0  0  0  0  0  0  0  0
  150.9114  132.8195  155.5194 H   0  0  0  0  0  0  0  0  0  0  0  0
  150.1774  130.4656  155.7434 H   0  0  0  0  0  0  0  0  0  0  0  0
  148.2143  129.6802  154.3969 H   0  0  0  0  0  0  0  0  0  0  0  0
  147.8004  133.1726  150.3614 H   0  0  0  0  0  0  0  0  0  0  0  0
  147.0583  131.8415  151.2534 H   0  0  0  0  0  0  0  0  0  0  0  0
  145.5501  133.6382  149.7714 H   0  0  0  0  0  0  0  0  0  0  0  0
  144.9427  132.8608  151.2340 H   0  0  0  0  0  0  0  0  0  0  0  0
  146.2162  135.6079  151.0205 H   0  0  0  0  0  0  0  0  0  0  0  0
  144.7033  135.1905  151.8329 H   0  0  0  0  0  0  0  0  0  0  0  0
  145.8723  134.0327  153.5883 H   0  0  0  0  0  0  0  0  0  0  0  0
  146.9652  135.3923  153.2951 H   0  0  0  0  0  0  0  0  0  0  0  0
  1  2  2  0  0  0  0
  2  3  1  0  0  0  0
  2 12  1  0  0  0  0
  3  4  1  0  0  0  0
  3 24  1  0  0  0  0
  4  5  1  0  0  0  0
  4 25  1  0  0  0  0
  4 26  1  0  0  0  0
  5  6  1  0  0  0  0
  5 27  1  0  0  0  0
  5 28  1  0  0  0  0
  6 11  1  0  0  0  0
  6  7  1  0  0  0  0
  7  8  1  0  0  0  0
  7 29  1  0  0  0  0
  7 30  1  0  0  0  0
  8  9  1  0  0  0  0
  8 31  1  0  0  0  0
  8 32  1  0  0  0  0
  9 10  1  0  0  0  0
 10 11  1  0  0  0  0
 10 33  1  0  0  0  0
 10 34  1  0  0  0  0
 11 35  1  0  0  0  0
 11 36  1  0  0  0  0
 12 13  1  0  0  0  0
 12 37  1  0  0  0  0
 13 18  1  0  0  0  0
 13 14  2  0  0  0  0
 14 15  1  0  0  0  0
 14 38  1  0  0  0  0
 15 16  2  0  0  0  0
 15 39  1  0  0  0  0
 16 17  1  0  0  0  0
 16 40  1  0  0  0  0
 17 18  2  0  0  0  0
 18 19  1  0  0  0  0
 19 23  1  0  0  0  0
 19 20  1  0  0  0  0
 20 21  1  0  0  0  0
 20 41  1  0  0  0  0
 20 42  1  0  0  0  0
 21 22  1  0  0  0  0
 21 43  1  0  0  0  0
 21 44  1  0  0  0  0
 22 23  1  0  0  0  0
 22 45  1  0  0  0  0
 22 46  1  0  0  0  0
 23 47  1  0  0  0  0
 23 48  1  0  0  0  0
M  END
> <s_m_source_file>
AV-unprocessed.smi

> <i_m_source_file_index>
1525

> <i_lp_mmshare_version>
43012

> <i_f3d_flags>
0

> <s_epik_input>
W0NIMl0xW0NIMl1PW0NIMl1bQ0gyXU4xW0NIMl1bQ0gyXVtOSF1DKD1PKVtOSF1jMltjSF1bY0hdW2NIXW5jMk4zW0NIMl1bQ0gyXVtDSDJdW0NIMl0z

> <s_epik_cmdline>
J2VwaWtfcHl0aG9uJywgJy1waCcsICc3LjAnLCAnLXRuJywgJzgnLCAnLW1hJywgJzIwMCcsICctbWV0YWxfYmluZGluZycsICctaW1hZScsICc8aW5maWxlLm1hZT4nLCAnLW9tYWUnLCAnPG91dGZpbGUubWFlPic=

> <r_lp_tautomer_probability>
1

> <r_epik_Ionization_Penalty>
0.363951

> <r_epik_Ionization_Penalty_Charging>
0

> <r_epik_Ionization_Penalty_Neutral>
0.363951

> <r_epik_State_Penalty>
0.349372

> <r_epik_Charging_Adjusted_Penalty>
0.349372

> <i_epik_Tot_Q>
0

> <i_epik_Tot_abs_Q>
0

> <r_epik_Metal_State_Penalty>
0.33306

> <b_epik_Metal_Only>
0

> <s_lp_Force_Field>
OPLS_2005

> <r_lp_Energy>
53.9404

> <b_lp_Chiralities_Consistent>
1

> <s_lp_Variant>
AV-unprocessed.smi:1525-1

> <Gold.Version>
5.8.1

> <Gold.Id.Protein>
6NUR|6NUR_protein|mol2

> <Gold.PLP.Fitness>
41.9247

> <Gold.PLP.PLP>
-35.8841

> <Gold.PLP.part.hbond>
-4.4876

> <Gold.PLP.part.metal>
0.0000

> <Gold.PLP.part.buried>
-1.3705

> <Gold.PLP.part.nonpolar>
-31.8063

> <Gold.PLP.part.repulsive>
0.7270

> <Gold.PLP.ligand.clash>
0.0000

> <Gold.PLP.ligand.torsion>
1.2568

> <Gold.PLP.Chemscore.Hbond>
2.7200

> <Gold.PLP.Chemscore.CHOScore>
0.0000

> <Gold.PLP.Chemscore.Metal>
0.0000

> <Gold.Chemscore.Hbonds>
donor molecule, donor type, donor heavy atom, donor atom, acceptor molecule, acceptor atom, score
      L1  H     3    24       P1  7948  0.86
      L1  H    12    37       P1  7948  0.90
      P1  H 10752 10763       L1     1  0.85

> <Gold.PLP.Chemscore.Internal.Correction>
0.3942

> <Gold.Rescore>
     Score         DG    S(hbond)    S(metal)    S(lipo)     H(rot)  DE(clash)    DE(int)     intcor
     13.73     -16.35       1.78        0.00      77.05       1.60       0.17       2.45       ----

> <Gold.Chemscore.Fitness>
13.7307

> <Gold.Chemscore.DG>
-16.3451

> <Gold.Chemscore.ZeroCoef>
-5.4800

> <Gold.Chemscore.Hbond>
1.7802

> <Gold.Chemscore.Metal>
0.0000

> <Gold.Chemscore.Lipo>
77.0488

> <Gold.Chemscore.Internal_Hbond>
0.0000

> <Gold.Chemscore.DEClash>
0.1680

> <Gold.Chemscore.DEInternal>
2.4464

> <Gold.Chemscore.Rot>
1.5998

> <Gold.Chemscore.Internal.Correction>
   9.000000E+99

> <Gold.Chemscore.Hbonds>
donor molecule, donor type, donor heavy atom, donor atom, acceptor molecule, acceptor atom, score
      L1  H     3    24       P1  7948  0.28
      L1  H    12    37       P1  7948  0.17
      P1  H 10752 10763       L1     1  0.16

> <Gold.Chemscore.Hbond.Weighted>
-5.9460

> <Gold.Chemscore.Metal.Weighted>
-0.0000

> <Gold.Chemscore.Lipo.Weighted>
-9.0147

> <Gold.Chemscore.Internal_Hbond.Weighted>
0.0000

> <Gold.Chemscore.DEClash.Weighted>
0.1680

> <Gold.Chemscore.DEInternal.Weighted>
2.4464

> <Gold.Chemscore.Rot.Weighted>
4.0956

> <Gold.Chemscore.Internal.Correction.Weighted>
   9.000000E+99

> <Gold.Protein.RotatedTorsions>
[ 6907 6896 6895 6894 ] final  -28.41 input  -60.11 | X-H torsion
[ 7974 7965 7964 7962 ] final   93.49 input  175.53 | X-H torsion
[ 8008 7997 7996 7995 ] final -123.16 input   59.86 | X-H torsion
[ 10167 10162 10161 10158 ] final  149.33 input  -65.29 | X-H torsion
[ 10718 10713 10712 10709 ] final    4.56 input   66.30 | X-H torsion
[ 10763 10752 10751 10750 ] final   75.76 input  -60.55 | X-H torsion
[ 11005 11000 10999 10996 ] final   85.18 input  -57.11 | X-H torsion

> <Gold.Protein.ActiveResidues>
 VAL166  LYS551  ARG553  GLY616  TRP617  ASP618  TYR619  PRO620  LYS621  CYS622 
 ASP623  PHE694  ASN695  SER759  ASP760  ASP761  ALA762  ILE779  LEU786  VAL792 
 PHE793  MET794  SER795  GLU796  ALA797  LYS798  CYS799  TRP800  GLU811  SER814 

> <Gold.Protein.RotatedAtoms>
  151.1334  135.0142  159.8592 H   0  0  0  0  0  0  0  0  0  0  0  0  # atno 6907 bound_to 6896
  152.5451  134.1584  159.8557 H   0  0  0  0  0  0  0  0  0  0  0  0  # atno 6908 bound_to 6896
  151.1652  133.4774  159.2627 H   0  0  0  0  0  0  0  0  0  0  0  0  # atno 6909 bound_to 6896
  145.4783  139.2279  143.2897 H   0  0  0  0  0  0  0  0  0  0  0  0  # atno 7974 bound_to 7965
  155.1759  140.0409  157.2872 H   0  0  0  0  0  0  0  0  0  0  0  0  # atno 8008 bound_to 7997
  154.6237  140.2507  155.7491 H   0  0  0  0  0  0  0  0  0  0  0  0  # atno 8009 bound_to 7997
  156.2447  140.2889  156.0556 H   0  0  0  0  0  0  0  0  0  0  0  0  # atno 8010 bound_to 7997
  139.4863  144.5610  151.7231 H   0  0  0  0  0  0  0  0  0  0  0  0  # atno 10167 bound_to 10162
  156.8944  130.5699  149.5649 H   0  0  0  0  0  0  0  0  0  0  0  0  # atno 10718 bound_to 10713
  153.0677  135.4976  154.8237 H   0  0  0  0  0  0  0  0  0  0  0  0  # atno 10763 bound_to 10752
  154.6978  135.2996  154.9388 H   0  0  0  0  0  0  0  0  0  0  0  0  # atno 10764 bound_to 10752
  154.0122  135.6753  153.4819 H   0  0  0  0  0  0  0  0  0  0  0  0  # atno 10765 bound_to 10752
  139.8979  134.8269  156.2547 H   0  0  0  0  0  0  0  0  0  0  0  0  # atno 11005 bound_to 11000
  146.2356  140.5567  142.8956 LP  0  0  0  0  0  0  0  0  0  0  0  0  # atno 17320 bound_to 7965
  144.7904  140.6021  143.6545 LP  0  0  0  0  0  0  0  0  0  0  0  0  # atno 17321 bound_to 7965
  140.5180  144.0923  150.6014 LP  0  0  0  0  0  0  0  0  0  0  0  0  # atno 17342 bound_to 10162
  140.3871  143.2772  152.0103 LP  0  0  0  0  0  0  0  0  0  0  0  0  # atno 17343 bound_to 10162
  156.0613  130.5665  150.9198 LP  0  0  0  0  0  0  0  0  0  0  0  0  # atno 17370 bound_to 10713
  157.6064  131.0939  150.8872 LP  0  0  0  0  0  0  0  0  0  0  0  0  # atno 17371 bound_to 10713
  141.0201  133.7046  156.1254 LP  0  0  0  0  0  0  0  0  0  0  0  0  # atno 17394 bound_to 11000
  140.7246  134.4321  157.5572 LP  0  0  0  0  0  0  0  0  0  0  0  0  # atno 17395 bound_to 11000

$$$$
