AV-unprocessed.smi:72|AV-procd|sdf|664|dock4
  -GOLD-   2262016563D 1   1.00000     0.00000
 Structure written by MMmdl.
 29 30  0  0  0  0  0  0  0  0  1 V2000
  151.5251  137.0630  159.4182 N   0  0  0  0  0  0  0  0  0  0  0  0
  151.0888  137.6389  158.3553 C   0  0  0  0  0  0  0  0  0  0  0  0
  149.7463  137.6817  157.9499 N   0  0  0  0  0  0  0  0  0  0  0  0
  149.4472  138.3009  156.8497 C   0  0  0  0  0  0  0  0  0  0  0  0
  150.4578  138.9476  156.0244 N   0  0  0  0  0  0  0  0  0  0  0  0
  150.1088  139.6743  154.7388 C   0  0  1  0  0  0  0  0  0  0  0  0
  149.0117  139.0532  154.1281 O   0  0  0  0  0  0  0  0  0  0  0  0
  147.8921  139.9308  154.1484 C   0  0  2  0  0  0  0  0  0  0  0  0
  146.8778  139.5474  153.0558 C   0  0  0  0  0  0  0  0  0  0  0  0
  147.5036  138.9797  151.9237 O   0  0  0  0  0  0  0  0  0  0  0  0
  148.5184  141.3232  154.0666 C   0  0  1  0  0  0  0  0  0  0  0  0
  147.6417  142.3542  154.4813 O   0  0  0  0  0  0  0  0  0  0  0  0
  149.7481  141.1665  154.9569 C   0  0  1  0  0  0  0  0  0  0  0  0
  149.4764  141.4920  156.3124 O   0  0  0  0  0  0  0  0  0  0  0  0
  151.8152  138.9212  156.4252 C   0  0  0  0  0  0  0  0  0  0  0  0
  152.7047  139.4708  155.7757 O   0  0  0  0  0  0  0  0  0  0  0  0
  152.0728  138.2597  157.5741 N   0  0  0  0  0  0  0  0  0  0  0  0
  150.9655  139.5349  154.0773 H   0  0  0  0  0  0  0  0  0  0  0  0
  147.4113  139.8133  155.1211 H   0  0  0  0  0  0  0  0  0  0  0  0
  148.8518  141.5317  153.0496 H   0  0  0  0  0  0  0  0  0  0  0  0
  150.5707  141.7947  154.6139 H   0  0  0  0  0  0  0  0  0  0  0  0
  152.5260  137.1689  159.4939 H   0  0  0  0  0  0  0  0  0  0  0  0
  148.4243  138.3745  156.4814 H   0  0  0  0  0  0  0  0  0  0  0  0
  146.1346  138.8541  153.4502 H   0  0  0  0  0  0  0  0  0  0  0  0
  146.3399  140.4369  152.7269 H   0  0  0  0  0  0  0  0  0  0  0  0
  148.3948  139.2920  151.8841 H   0  0  0  0  0  0  0  0  0  0  0  0
  148.1578  143.0593  154.8408 H   0  0  0  0  0  0  0  0  0  0  0  0
  148.8017  142.1531  156.3320 H   0  0  0  0  0  0  0  0  0  0  0  0
  153.0329  138.2214  157.8834 H   0  0  0  0  0  0  0  0  0  0  0  0
  1  2  2  0  0  0  0
  1 22  1  0  0  0  0
  2 17  1  0  0  0  0
  2  3  1  0  0  0  0
  3  4  2  0  0  0  0
  4  5  1  0  0  0  0
  4 23  1  0  0  0  0
  5  6  1  0  0  0  0
  5 15  1  0  0  0  0
  6 18  1  0  0  0  0
  6 13  1  0  0  0  0
  6  7  1  0  0  0  0
  7  8  1  0  0  0  0
  8 19  1  0  0  0  0
  8  9  1  0  0  0  0
  8 11  1  0  0  0  0
  9 10  1  0  0  0  0
  9 24  1  0  0  0  0
  9 25  1  0  0  0  0
 10 26  1  0  0  0  0
 11 20  1  0  0  0  0
 11 12  1  0  0  0  0
 11 13  1  0  0  0  0
 12 27  1  0  0  0  0
 13 21  1  0  0  0  0
 13 14  1  0  0  0  0
 14 28  1  0  0  0  0
 15 16  2  0  0  0  0
 15 17  1  0  0  0  0
 17 29  1  0  0  0  0
M  END
> <s_m_source_file>
AV-unprocessed.smi

> <i_m_source_file_index>
72

> <i_lp_mmshare_version>
43012

> <i_f3d_flags>
0

> <s_epik_input>
W05IMl1jMW5bY0hdbihjKD1PKW4xKVtDQEBIXTJPW0NASF0oW0NIMl1bT0hdKVtDQEBIXShbT0hdKVtDQEhdMltPSF0=

> <s_epik_cmdline>
J2VwaWtfcHl0aG9uJywgJy1waCcsICc3LjAnLCAnLXRuJywgJzgnLCAnLW1hJywgJzIwMCcsICctbWV0YWxfYmluZGluZycsICctaW1hZScsICc8aW5maWxlLm1hZT4nLCAnLW9tYWUnLCAnPG91dGZpbGUubWFlPic=

> <r_lp_tautomer_probability>
7.17554e-07

> <r_epik_Ionization_Penalty>
0.0066451

> <r_epik_Ionization_Penalty_Charging>
0.00663793

> <r_epik_Ionization_Penalty_Neutral>
7.17052e-06

> <r_epik_State_Penalty>
0.419231

> <r_epik_Charging_Adjusted_Penalty>
0.425868

> <i_epik_Tot_Q>
0

> <i_epik_Tot_abs_Q>
0

> <r_epik_Metal_State_Penalty>
1.44144

> <b_epik_Metal_Only>
0

> <s_epik_Chemistry_Notes>
This compound contains an acetal/aminal-like group ( X-CH(R)-Y where X, Y are N, S, or O) that may be acid/base labile, releasing an aldehyde.

> <s_lp_Force_Field>
OPLS_2005

> <r_lp_Energy>
49.4302

> <b_lp_Chiralities_Consistent>
1

> <s_lp_Variant>
AV-unprocessed.smi:72-2

> <Gold.Version>
5.8.1

> <Gold.Id.Protein>
6NUR|6NUR_protein|mol2

> <Gold.PLP.Fitness>
33.7247

> <Gold.PLP.PLP>
-23.8398

> <Gold.PLP.part.hbond>
-4.8299

> <Gold.PLP.part.metal>
0.0000

> <Gold.PLP.part.buried>
-3.4237

> <Gold.PLP.part.nonpolar>
-15.2559

> <Gold.PLP.part.repulsive>
0.2743

> <Gold.PLP.ligand.clash>
0.0000

> <Gold.PLP.ligand.torsion>
1.0861

> <Gold.PLP.Chemscore.Hbond>
4.0029

> <Gold.PLP.Chemscore.CHOScore>
0.0000

> <Gold.PLP.Chemscore.Metal>
0.0000

> <Gold.Chemscore.Hbonds>
donor molecule, donor type, donor heavy atom, donor atom, acceptor molecule, acceptor atom, score
      L1  H    10    26       P1  7957  1.00
      L1  H    12    27       P1  8028  1.00
      P1  H  6896  6908       L1     1  0.60
      P1  H  7997  8008       L1    16  1.00

> <Gold.PLP.Chemscore.Internal.Correction>
0.0484

> <Gold.Rescore>
     Score         DG    S(hbond)    S(metal)    S(lipo)     H(rot)  DE(clash)    DE(int)     intcor
     10.14     -11.05       3.86        0.00      26.21       4.06       0.05       0.85       ----

> <Gold.Chemscore.Fitness>
10.1412

> <Gold.Chemscore.DG>
-11.0456

> <Gold.Chemscore.ZeroCoef>
-5.4800

> <Gold.Chemscore.Hbond>
3.8602

> <Gold.Chemscore.Metal>
0.0000

> <Gold.Chemscore.Lipo>
26.2077

> <Gold.Chemscore.Internal_Hbond>
0.0000

> <Gold.Chemscore.DEClash>
0.0515

> <Gold.Chemscore.DEInternal>
0.8529

> <Gold.Chemscore.Rot>
4.0600

> <Gold.Chemscore.Internal.Correction>
   9.000000E+99

> <Gold.Chemscore.Hbonds>
donor molecule, donor type, donor heavy atom, donor atom, acceptor molecule, acceptor atom, score
      L1  H    10    26       P1  7957  0.93
      L1  H    12    27       P1  8028  0.96
      P1  H  6896  6908       L1     1  0.04
      P1  H  7997  8008       L1    16  1.00

> <Gold.Chemscore.Hbond.Weighted>
-12.8929

> <Gold.Chemscore.Metal.Weighted>
-0.0000

> <Gold.Chemscore.Lipo.Weighted>
-3.0663

> <Gold.Chemscore.Internal_Hbond.Weighted>
0.0000

> <Gold.Chemscore.DEClash.Weighted>
0.0515

> <Gold.Chemscore.DEInternal.Weighted>
0.8529

> <Gold.Chemscore.Rot.Weighted>
10.3936

> <Gold.Chemscore.Internal.Correction.Weighted>
   9.000000E+99

> <Gold.Protein.RotatedTorsions>
[ 6907 6896 6895 6894 ] final -117.14 input  -60.11 | X-H torsion
[ 7974 7965 7964 7962 ] final -111.90 input  175.53 | X-H torsion
[ 8008 7997 7996 7995 ] final  -22.38 input   59.86 | X-H torsion
[ 10167 10162 10161 10158 ] final  145.43 input  -65.29 | X-H torsion
[ 10718 10713 10712 10709 ] final -154.41 input   66.30 | X-H torsion
[ 10763 10752 10751 10750 ] final   57.40 input  -60.55 | X-H torsion
[ 11005 11000 10999 10996 ] final  177.82 input  -57.11 | X-H torsion

> <Gold.Protein.ActiveResidues>
 VAL166  LYS551  ARG553  GLY616  TRP617  ASP618  TYR619  PRO620  LYS621  CYS622 
 ASP623  PHE694  ASN695  SER759  ASP760  ASP761  ALA762  ILE779  LEU786  VAL792 
 PHE793  MET794  SER795  GLU796  ALA797  LYS798  CYS799  TRP800  GLU811  SER814 

> <Gold.Protein.RotatedAtoms>
  150.8112  133.8418  159.3181 H   0  0  0  0  0  0  0  0  0  0  0  0  # atno 6907 bound_to 6896
  151.6203  135.1031  160.0110 H   0  0  0  0  0  0  0  0  0  0  0  0  # atno 6908 bound_to 6896
  152.4204  133.7066  159.6511 H   0  0  0  0  0  0  0  0  0  0  0  0  # atno 6909 bound_to 6896
  145.1505  140.8826  143.3649 H   0  0  0  0  0  0  0  0  0  0  0  0  # atno 7974 bound_to 7965
  154.4648  140.2009  156.0148 H   0  0  0  0  0  0  0  0  0  0  0  0  # atno 8008 bound_to 7997
  156.0906  140.3258  155.7782 H   0  0  0  0  0  0  0  0  0  0  0  0  # atno 8009 bound_to 7997
  155.4962  140.0550  157.2937 H   0  0  0  0  0  0  0  0  0  0  0  0  # atno 8010 bound_to 7997
  139.4926  144.5902  151.6696 H   0  0  0  0  0  0  0  0  0  0  0  0  # atno 10167 bound_to 10162
  156.4989  130.8382  151.2601 H   0  0  0  0  0  0  0  0  0  0  0  0  # atno 10718 bound_to 10713
  152.9849  135.5643  154.5384 H   0  0  0  0  0  0  0  0  0  0  0  0  # atno 10763 bound_to 10752
  154.4843  135.2790  155.1548 H   0  0  0  0  0  0  0  0  0  0  0  0  # atno 10764 bound_to 10752
  154.3044  135.6301  153.5491 H   0  0  0  0  0  0  0  0  0  0  0  0  # atno 10765 bound_to 10752
  140.3883  134.6885  157.4492 H   0  0  0  0  0  0  0  0  0  0  0  0  # atno 11005 bound_to 11000
  145.0436  139.3240  143.5964 LP  0  0  0  0  0  0  0  0  0  0  0  0  # atno 17320 bound_to 7965
  146.3495  139.9818  142.8695 LP  0  0  0  0  0  0  0  0  0  0  0  0  # atno 17321 bound_to 7965
  140.5527  144.0399  150.6134 LP  0  0  0  0  0  0  0  0  0  0  0  0  # atno 17342 bound_to 10162
  140.3458  143.2992  152.0540 LP  0  0  0  0  0  0  0  0  0  0  0  0  # atno 17343 bound_to 10162
  157.7465  130.9988  150.2867 LP  0  0  0  0  0  0  0  0  0  0  0  0  # atno 17370 bound_to 10713
  156.3352  130.3806  149.7456 LP  0  0  0  0  0  0  0  0  0  0  0  0  # atno 17371 bound_to 10713
  140.0426  134.6246  155.8962 LP  0  0  0  0  0  0  0  0  0  0  0  0  # atno 17394 bound_to 11000
  141.1900  133.6567  156.5391 LP  0  0  0  0  0  0  0  0  0  0  0  0  # atno 17395 bound_to 11000

$$$$
