AV-unprocessed.smi:37|AV-procd|sdf|326|dock4
  -GOLD-   2262016153D 1   1.00000     0.00000
 Structure written by MMmdl.
 43 44  0  0  0  0  0  0  0  0  2 V2000
  147.9480  125.4124  150.5421 C   0  0  0  0  0  0  0  0  0  0  0  0
  148.3893  126.8364  150.9061 C   0  0  0  0  0  0  0  0  0  0  0  0
  147.4030  127.5211  151.8491 C   0  0  0  0  0  0  0  0  0  0  0  0
  147.1037  127.0252  152.9357 O   0  0  0  0  0  0  0  0  0  0  0  0
  146.9291  128.6739  151.3526 O   0  0  0  0  0  0  0  0  0  0  0  0
  145.9002  129.3640  152.0412 C   0  0  0  0  0  0  0  0  0  0  0  0
  146.5309  130.3210  153.0608 C   0  0  1  0  0  0  0  0  0  0  0  0
  147.8639  130.6584  152.6947 O   0  0  0  0  0  0  0  0  0  0  0  0
  148.2025  131.9081  153.2246 C   0  0  2  0  0  0  0  0  0  0  0  0
  149.3264  131.7538  154.2247 N   0  0  0  0  0  0  0  0  0  0  0  0
  149.9558  130.5351  154.4202 C   0  0  0  0  0  0  0  0  0  0  0  0
  150.9600  130.4039  155.3108 C   0  0  0  0  0  0  0  0  0  0  0  0
  151.5489  129.2080  155.4837 F   0  0  0  0  0  0  0  0  0  0  0  0
  151.3982  131.5647  156.0838 C   0  0  0  0  0  0  0  0  0  0  0  0
  152.3187  131.4399  156.8901 O   0  0  0  0  0  0  0  0  0  0  0  0
  150.7571  132.7508  155.8729 N   0  5  0  0  0  0  0  0  0  0  0  0
  149.7368  132.8877  154.9764 C   0  0  0  0  0  0  0  0  0  0  0  0
  149.1424  133.9492  154.7868 O   0  0  0  0  0  0  0  0  0  0  0  0
  146.9225  132.5171  153.8380 C   0  0  2  0  0  0  0  0  0  0  0  0
  146.7840  132.2677  155.8175 Br  0  0  0  0  0  0  0  0  0  0  0  0
  145.8375  131.6801  153.1828 C   0  0  1  0  0  0  0  0  0  0  0  0
  145.5203  132.1836  151.8888 O   0  0  0  0  0  0  0  0  0  0  0  0
  144.8290  133.3295  151.7531 C   0  0  0  0  0  0  0  0  0  0  0  0
  144.4308  134.0461  152.6716 O   0  0  0  0  0  0  0  0  0  0  0  0
  144.5771  133.6950  150.2919 C   0  0  0  0  0  0  0  0  0  0  0  0
  143.7939  132.6050  149.5470 C   0  0  0  0  0  0  0  0  0  0  0  0
  148.6566  124.9570  149.8505 H   0  0  0  0  0  0  0  0  0  0  0  0
  146.9699  125.4125  150.0597 H   0  0  0  0  0  0  0  0  0  0  0  0
  147.8902  124.7725  151.4235 H   0  0  0  0  0  0  0  0  0  0  0  0
  149.3713  126.8144  151.3792 H   0  0  0  0  0  0  0  0  0  0  0  0
  148.4874  127.4366  150.0011 H   0  0  0  0  0  0  0  0  0  0  0  0
  145.2656  129.9103  151.3415 H   0  0  0  0  0  0  0  0  0  0  0  0
  145.2726  128.6355  152.5565 H   0  0  0  0  0  0  0  0  0  0  0  0
  146.5500  129.8497  154.0450 H   0  0  0  0  0  0  0  0  0  0  0  0
  148.6101  132.5019  152.4046 H   0  0  0  0  0  0  0  0  0  0  0  0
  149.6423  129.6649  153.8635 H   0  0  0  0  0  0  0  0  0  0  0  0
  146.8550  133.5849  153.6270 H   0  0  0  0  0  0  0  0  0  0  0  0
  144.9369  131.6121  153.7954 H   0  0  0  0  0  0  0  0  0  0  0  0
  144.0267  134.6355  150.2543 H   0  0  0  0  0  0  0  0  0  0  0  0
  145.5352  133.8694  149.8016 H   0  0  0  0  0  0  0  0  0  0  0  0
  143.5850  132.9147  148.5230 H   0  0  0  0  0  0  0  0  0  0  0  0
  142.8385  132.4014  150.0319 H   0  0  0  0  0  0  0  0  0  0  0  0
  144.3540  131.6703  149.5004 H   0  0  0  0  0  0  0  0  0  0  0  0
  1  2  1  0  0  0  0
  1 27  1  0  0  0  0
  1 28  1  0  0  0  0
  1 29  1  0  0  0  0
  2  3  1  0  0  0  0
  2 30  1  0  0  0  0
  2 31  1  0  0  0  0
  3  4  2  0  0  0  0
  3  5  1  0  0  0  0
  5  6  1  0  0  0  0
  6  7  1  0  0  0  0
  6 32  1  0  0  0  0
  6 33  1  0  0  0  0
  7 21  1  0  0  0  0
  7  8  1  0  0  0  0
  7 34  1  0  0  0  0
  8  9  1  0  0  0  0
  9 10  1  0  0  0  0
  9 19  1  0  0  0  0
  9 35  1  0  0  0  0
 10 17  1  0  0  0  0
 10 11  1  0  0  0  0
 11 12  2  0  0  0  0
 11 36  1  0  0  0  0
 12 13  1  0  0  0  0
 12 14  1  0  0  0  0
 14 15  2  0  0  0  0
 14 16  1  0  0  0  0
 16 17  1  0  0  0  0
 17 18  2  0  0  0  0
 19 20  1  0  0  0  0
 19 21  1  0  0  0  0
 19 37  1  0  0  0  0
 21 22  1  0  0  0  0
 21 38  1  0  0  0  0
 22 23  1  0  0  0  0
 23 24  2  0  0  0  0
 23 25  1  0  0  0  0
 25 26  1  0  0  0  0
 25 39  1  0  0  0  0
 25 40  1  0  0  0  0
 26 41  1  0  0  0  0
 26 42  1  0  0  0  0
 26 43  1  0  0  0  0
M  CHG  1  16  -1
M  END
> <s_m_source_file>
AV-unprocessed.smi

> <i_m_source_file_index>
37

> <i_lp_mmshare_version>
43012

> <i_f3d_flags>
0

> <s_epik_input>
W0NIM11bQ0gyXUMoPU8pT1tDSDJdW0NAQEhdMU9bQ0BASF0objJbY0hdYyhGKWMoPU8pW25IXWMyPU8pW0NAQEhdKEJyKVtDQEhdMU9DKD1PKVtDSDJdW0NIM10=

> <s_epik_cmdline>
J2VwaWtfcHl0aG9uJywgJy1waCcsICc3LjAnLCAnLXRuJywgJzgnLCAnLW1hJywgJzIwMCcsICctbWV0YWxfYmluZGluZycsICctaW1hZScsICc8aW5maWxlLm1hZT4nLCAnLW9tYWUnLCAnPG91dGZpbGUubWFlPic=

> <r_epik_Ionization_Penalty>
1.08158

> <r_epik_Ionization_Penalty_Charging>
9.05154e-09

> <r_epik_Ionization_Penalty_Neutral>
1.08158

> <r_epik_State_Penalty>
1.13706

> <r_epik_Charging_Adjusted_Penalty>
1.13706

> <i_epik_Tot_Q>
-1

> <i_epik_Tot_abs_Q>
1

> <r_epik_Metal_State_Penalty>
0.00343535

> <b_epik_Metal_Only>
0

> <s_epik_Chemistry_Notes>
This compound has an ester and may undergo hydrolysis at high or low pH. This compound contains an acetal/aminal-like group ( X-CH(R)-Y where X, Y are N, S, or O) that may be acid/base labile, releasing an aldehyde.

> <s_lp_Force_Field>
OPLS_2005

> <r_lp_Energy>
32.8467

> <b_lp_Chiralities_Consistent>
1

> <s_lp_Variant>
AV-unprocessed.smi:37-24

> <Gold.Version>
5.8.1

> <Gold.Id.Protein>
6NUR|6NUR_protein|mol2

> <Gold.PLP.Fitness>
40.8909

> <Gold.PLP.PLP>
-42.4307

> <Gold.PLP.part.hbond>
-0.1179

> <Gold.PLP.part.metal>
0.0000

> <Gold.PLP.part.buried>
-8.8149

> <Gold.PLP.part.nonpolar>
-37.7087

> <Gold.PLP.part.repulsive>
4.8834

> <Gold.PLP.ligand.clash>
0.0000

> <Gold.PLP.ligand.torsion>
0.8700

> <Gold.PLP.Chemscore.Hbond>
0.0000

> <Gold.PLP.Chemscore.CHOScore>
0.0000

> <Gold.PLP.Chemscore.Metal>
0.0000

> <Gold.PLP.Chemscore.Internal.Correction>
0.2002

> <Gold.Rescore>
     Score         DG    S(hbond)    S(metal)    S(lipo)     H(rot)  DE(clash)    DE(int)     intcor
      4.93      -6.91       0.81        0.00      60.47       3.27       0.01       1.97       ----

> <Gold.Chemscore.Fitness>
4.9252

> <Gold.Chemscore.DG>
-6.9052

> <Gold.Chemscore.ZeroCoef>
-5.4800

> <Gold.Chemscore.Hbond>
0.8125

> <Gold.Chemscore.Metal>
0.0000

> <Gold.Chemscore.Lipo>
60.4693

> <Gold.Chemscore.Internal_Hbond>
0.0000

> <Gold.Chemscore.DEClash>
0.0064

> <Gold.Chemscore.DEInternal>
1.9736

> <Gold.Chemscore.Rot>
3.2669

> <Gold.Chemscore.Internal.Correction>
   9.000000E+99

> <Gold.Chemscore.Hbond.Weighted>
-2.7136

> <Gold.Chemscore.Metal.Weighted>
-0.0000

> <Gold.Chemscore.Lipo.Weighted>
-7.0749

> <Gold.Chemscore.Internal_Hbond.Weighted>
0.0000

> <Gold.Chemscore.DEClash.Weighted>
0.0064

> <Gold.Chemscore.DEInternal.Weighted>
1.9736

> <Gold.Chemscore.Rot.Weighted>
8.3634

> <Gold.Chemscore.Internal.Correction.Weighted>
   9.000000E+99

> <Gold.Protein.RotatedTorsions>
[ 6907 6896 6895 6894 ] final  154.69 input  -60.11 | X-H torsion
[ 7974 7965 7964 7962 ] final -136.59 input  175.53 | X-H torsion
[ 8008 7997 7996 7995 ] final  -31.85 input   59.86 | X-H torsion
[ 10167 10162 10161 10158 ] final  106.14 input  -65.29 | X-H torsion
[ 10718 10713 10712 10709 ] final  -11.37 input   66.30 | X-H torsion
[ 10763 10752 10751 10750 ] final  -95.53 input  -60.55 | X-H torsion
[ 11005 11000 10999 10996 ] final   64.95 input  -57.11 | X-H torsion

> <Gold.Protein.ActiveResidues>
 VAL166  LYS551  ARG553  GLY616  TRP617  ASP618  TYR619  PRO620  LYS621  CYS622 
 ASP623  PHE694  ASN695  SER759  ASP760  ASP761  ALA762  ILE779  LEU786  VAL792 
 PHE793  MET794  SER795  GLU796  ALA797  LYS798  CYS799  TRP800  GLU811  SER814 

> <Gold.Protein.RotatedAtoms>
  152.0548  133.4035  159.4392 H   0  0  0  0  0  0  0  0  0  0  0  0  # atno 6907 bound_to 6896
  150.6868  134.3266  159.4818 H   0  0  0  0  0  0  0  0  0  0  0  0  # atno 6908 bound_to 6896
  152.1081  134.9294  160.0618 H   0  0  0  0  0  0  0  0  0  0  0  0  # atno 6909 bound_to 6896
  144.8914  140.6647  143.5143 H   0  0  0  0  0  0  0  0  0  0  0  0  # atno 7974 bound_to 7965
  154.4200  140.1753  156.1632 H   0  0  0  0  0  0  0  0  0  0  0  0  # atno 8008 bound_to 7997
  155.9821  140.3376  155.6648 H   0  0  0  0  0  0  0  0  0  0  0  0  # atno 8009 bound_to 7997
  155.6486  140.0688  157.2585 H   0  0  0  0  0  0  0  0  0  0  0  0  # atno 8010 bound_to 7997
  139.7034  144.7090  151.1147 H   0  0  0  0  0  0  0  0  0  0  0  0  # atno 10167 bound_to 10162
  156.6600  130.4979  149.6033 H   0  0  0  0  0  0  0  0  0  0  0  0  # atno 10718 bound_to 10713
  154.7156  135.5117  153.8733 H   0  0  0  0  0  0  0  0  0  0  0  0  # atno 10763 bound_to 10752
  153.0818  135.6633  154.0039 H   0  0  0  0  0  0  0  0  0  0  0  0  # atno 10764 bound_to 10752
  153.9872  135.3023  155.3394 H   0  0  0  0  0  0  0  0  0  0  0  0  # atno 10765 bound_to 10752
  139.9926  134.6568  156.0065 H   0  0  0  0  0  0  0  0  0  0  0  0  # atno 11005 bound_to 11000
  145.3776  139.1644  143.4298 LP  0  0  0  0  0  0  0  0  0  0  0  0  # atno 17320 bound_to 7965
  146.3056  140.3854  142.8688 LP  0  0  0  0  0  0  0  0  0  0  0  0  # atno 17321 bound_to 7965
  140.7715  143.5392  150.9332 LP  0  0  0  0  0  0  0  0  0  0  0  0  # atno 17342 bound_to 10162
  139.9075  143.6761  152.3121 LP  0  0  0  0  0  0  0  0  0  0  0  0  # atno 17343 bound_to 10162
  156.2018  130.6624  151.1175 LP  0  0  0  0  0  0  0  0  0  0  0  0  # atno 17370 bound_to 10713
  157.7113  131.0733  150.6491 LP  0  0  0  0  0  0  0  0  0  0  0  0  # atno 17371 bound_to 10713
  141.1578  133.6541  156.4219 LP  0  0  0  0  0  0  0  0  0  0  0  0  # atno 17394 bound_to 11000
  140.4879  134.6603  157.5198 LP  0  0  0  0  0  0  0  0  0  0  0  0  # atno 17395 bound_to 11000

$$$$
