AV-unprocessed.smi:3241|AV-procd|sdf|12387|dock4
  -GOLD-   2272018253D 1   1.00000     0.00000
 Structure written by MMmdl.
 44 45  0  0  0  0  0  0  0  0  2 V2000
  153.7907  140.6137  159.6555 C   0  0  0  0  0  0  0  0  0  0  0  0
  153.4597  142.0944  159.9021 C   0  0  2  0  0  0  0  0  0  0  0  0
  152.8418  142.3205  161.2965 C   0  0  0  0  0  0  0  0  0  0  0  0
  152.5433  143.8077  161.5449 C   0  0  0  0  0  0  0  0  0  0  0  0
  151.6420  144.3880  160.4442 C   0  0  0  0  0  0  0  0  0  0  0  0
  152.2511  144.1665  159.0497 C   0  0  0  0  0  0  0  0  0  0  0  0
  152.5591  142.6773  158.7908 C   0  0  2  0  0  0  0  0  0  0  0  0
  151.3469  141.9327  158.7561 O   0  0  0  0  0  0  0  0  0  0  0  0
  150.9408  141.5300  157.4577 C   0  0  0  0  0  0  0  0  0  0  0  0
  149.4153  141.3944  157.4489 C   0  0  0  0  0  0  0  0  0  0  0  0
  148.8674  141.7469  156.1249 N   0  3  0  0  0  0  0  0  0  0  0  0
  149.6817  141.2825  154.9843 C   0  0  0  0  0  0  0  0  0  0  0  0
  149.3665  139.8222  154.6214 C   0  0  0  0  0  0  0  0  0  0  0  0
  150.5501  138.9809  154.6300 N   0  0  0  0  0  0  0  0  0  0  0  0
  150.6419  137.6262  154.3889 C   0  0  0  0  0  0  0  0  0  0  0  0
  151.9583  137.2821  154.5047 C   0  0  0  0  0  0  0  0  0  0  0  0
  152.6030  138.5097  154.8241 C   0  0  0  0  0  0  0  0  0  0  0  0
  151.7578  139.5254  154.8950 N   0  0  0  0  0  0  0  0  0  0  0  0
  152.8956  139.9915  159.6888 H   0  0  0  0  0  0  0  0  0  0  0  0
  154.4834  140.2369  160.4083 H   0  0  0  0  0  0  0  0  0  0  0  0
  154.2568  140.4733  158.6800 H   0  0  0  0  0  0  0  0  0  0  0  0
  154.4049  142.6386  159.8735 H   0  0  0  0  0  0  0  0  0  0  0  0
  151.9220  141.7422  161.3940 H   0  0  0  0  0  0  0  0  0  0  0  0
  153.5188  141.9521  162.0681 H   0  0  0  0  0  0  0  0  0  0  0  0
  152.0694  143.9339  162.5186 H   0  0  0  0  0  0  0  0  0  0  0  0
  153.4792  144.3662  161.5822 H   0  0  0  0  0  0  0  0  0  0  0  0
  150.6576  143.9208  160.4938 H   0  0  0  0  0  0  0  0  0  0  0  0
  151.4858  145.4533  160.6164 H   0  0  0  0  0  0  0  0  0  0  0  0
  151.5819  144.5603  158.2851 H   0  0  0  0  0  0  0  0  0  0  0  0
  153.1738  144.7423  158.9681 H   0  0  0  0  0  0  0  0  0  0  0  0
  153.0871  142.5785  157.8404 H   0  0  0  0  0  0  0  0  0  0  0  0
  151.2519  142.2670  156.7168 H   0  0  0  0  0  0  0  0  0  0  0  0
  151.4037  140.5785  157.1913 H   0  0  0  0  0  0  0  0  0  0  0  0
  149.1250  140.3751  157.7068 H   0  0  0  0  0  0  0  0  0  0  0  0
  148.9851  142.0548  158.2029 H   0  0  0  0  0  0  0  0  0  0  0  0
  147.9428  141.3491  156.0380 H   0  0  0  0  0  0  0  0  0  0  0  0
  149.4802  141.9203  154.1228 H   0  0  0  0  0  0  0  0  0  0  0  0
  150.7401  141.3926  155.2238 H   0  0  0  0  0  0  0  0  0  0  0  0
  148.6275  139.4064  155.3084 H   0  0  0  0  0  0  0  0  0  0  0  0
  148.9244  139.7765  153.6255 H   0  0  0  0  0  0  0  0  0  0  0  0
  149.7740  137.0265  154.1574 H   0  0  0  0  0  0  0  0  0  0  0  0
  152.3950  136.3020  154.3819 H   0  0  0  0  0  0  0  0  0  0  0  0
  153.6523  138.6921  155.0037 H   0  0  0  0  0  0  0  0  0  0  0  0
  148.7867  142.7527  156.0743 H   0  0  0  0  0  0  0  0  0  0  0  0
  1  2  1  0  0  0  0
  1 19  1  0  0  0  0
  1 20  1  0  0  0  0
  1 21  1  0  0  0  0
  2  7  1  0  0  0  0
  2  3  1  0  0  0  0
  2 22  1  0  0  0  0
  3  4  1  0  0  0  0
  3 23  1  0  0  0  0
  3 24  1  0  0  0  0
  4  5  1  0  0  0  0
  4 25  1  0  0  0  0
  4 26  1  0  0  0  0
  5  6  1  0  0  0  0
  5 27  1  0  0  0  0
  5 28  1  0  0  0  0
  6  7  1  0  0  0  0
  6 29  1  0  0  0  0
  6 30  1  0  0  0  0
  7  8  1  0  0  0  0
  7 31  1  0  0  0  0
  8  9  1  0  0  0  0
  9 10  1  0  0  0  0
  9 32  1  0  0  0  0
  9 33  1  0  0  0  0
 10 11  1  0  0  0  0
 10 34  1  0  0  0  0
 10 35  1  0  0  0  0
 11 12  1  0  0  0  0
 11 36  1  0  0  0  0
 11 44  1  0  0  0  0
 12 13  1  0  0  0  0
 12 37  1  0  0  0  0
 12 38  1  0  0  0  0
 13 14  1  0  0  0  0
 13 39  1  0  0  0  0
 13 40  1  0  0  0  0
 14 18  1  0  0  0  0
 14 15  1  0  0  0  0
 15 16  2  0  0  0  0
 15 41  1  0  0  0  0
 16 17  1  0  0  0  0
 16 42  1  0  0  0  0
 17 18  2  0  0  0  0
 17 43  1  0  0  0  0
M  CHG  1  11   1
M  END
> <s_m_source_file>
AV-unprocessed.smi

> <i_m_source_file_index>
3241

> <i_lp_mmshare_version>
43012

> <i_f3d_flags>
0

> <s_epik_input>
W0NIM11bQ0BASF0xW0NIMl1bQ0gyXVtDSDJdW0NIMl1bQ0BIXTFPW0NIMl1bQ0gyXVtOSF1bQ0gyXVtDSDJdbjJbY0hdW2NIXVtjSF1uMg==

> <s_epik_cmdline>
J2VwaWtfcHl0aG9uJywgJy1waCcsICc3LjAnLCAnLXRuJywgJzgnLCAnLW1hJywgJzIwMCcsICctbWV0YWxfYmluZGluZycsICctaW1hZScsICc8aW5maWxlLm1hZT4nLCAnLW9tYWUnLCAnPG91dGZpbGUubWFlPic=

> <r_lp_tautomer_probability>
1

> <r_epik_Ionization_Penalty>
0.00924946

> <r_epik_Ionization_Penalty_Charging>
0.00924645

> <r_epik_Ionization_Penalty_Neutral>
3.00629e-06

> <r_epik_State_Penalty>
0.0070118

> <r_epik_Charging_Adjusted_Penalty>
0.0162583

> <i_epik_Tot_Q>
1

> <i_epik_Tot_abs_Q>
1

> <r_epik_Metal_State_Penalty>
0.00702523

> <b_epik_Metal_Only>
0

> <s_lp_Force_Field>
OPLS_2005

> <r_lp_Energy>
14.6648

> <b_lp_Chiralities_Consistent>
1

> <s_lp_Variant>
AV-unprocessed.smi:3241-3

> <Gold.Version>
5.8.1

> <Gold.Id.Protein>
6NUR|6NUR_protein|mol2

> <Gold.PLP.Fitness>
58.2693

> <Gold.PLP.PLP>
-49.5372

> <Gold.PLP.part.hbond>
-1.9930

> <Gold.PLP.part.metal>
0.0000

> <Gold.PLP.part.buried>
-2.5413

> <Gold.PLP.part.nonpolar>
-43.8254

> <Gold.PLP.part.repulsive>
0.1993

> <Gold.PLP.ligand.clash>
0.0000

> <Gold.PLP.ligand.torsion>
1.6444

> <Gold.PLP.Chemscore.Hbond>
3.0000

> <Gold.PLP.Chemscore.CHOScore>
0.9587

> <Gold.PLP.Chemscore.Metal>
0.0000

> <Gold.Chemscore.Hbonds>
donor molecule, donor type, donor heavy atom, donor atom, acceptor molecule, acceptor atom, score
      L1  H    11    44       P1  8028  2.00
      P1  H  7989  7998       L1    18  0.75
      L1  C    15    41       P1  7948  0.94

> <Gold.PLP.Chemscore.Internal.Correction>
0.1449

> <Gold.Rescore>
     Score         DG    S(hbond)    S(metal)    S(lipo)     H(rot)  DE(clash)    DE(int)     intcor
     18.74     -20.41       1.71        0.00     120.08       1.89       0.13       1.54       ----

> <Gold.Chemscore.Fitness>
18.7371

> <Gold.Chemscore.DG>
-20.4058

> <Gold.Chemscore.ZeroCoef>
-5.4800

> <Gold.Chemscore.Hbond>
1.7117

> <Gold.Chemscore.Metal>
0.0000

> <Gold.Chemscore.Lipo>
120.0756

> <Gold.Chemscore.Internal_Hbond>
0.0000

> <Gold.Chemscore.DEClash>
0.1257

> <Gold.Chemscore.DEInternal>
1.5430

> <Gold.Chemscore.Rot>
1.8906

> <Gold.Chemscore.Internal.Correction>
   9.000000E+99

> <Gold.Chemscore.Hbonds>
donor molecule, donor type, donor heavy atom, donor atom, acceptor molecule, acceptor atom, score
      L1  H    11    44       P1  8028  0.95
      P1  H  7989  7998       L1    18  0.09

> <Gold.Chemscore.Hbond.Weighted>
-5.7170

> <Gold.Chemscore.Metal.Weighted>
-0.0000

> <Gold.Chemscore.Lipo.Weighted>
-14.0488

> <Gold.Chemscore.Internal_Hbond.Weighted>
0.0000

> <Gold.Chemscore.DEClash.Weighted>
0.1257

> <Gold.Chemscore.DEInternal.Weighted>
1.5430

> <Gold.Chemscore.Rot.Weighted>
4.8400

> <Gold.Chemscore.Internal.Correction.Weighted>
   9.000000E+99

> <Gold.Protein.RotatedTorsions>
[ 6907 6896 6895 6894 ] final  -28.82 input  -60.11 | X-H torsion
[ 7974 7965 7964 7962 ] final  -38.33 input  175.53 | X-H torsion
[ 8008 7997 7996 7995 ] final   27.21 input   59.86 | X-H torsion
[ 10167 10162 10161 10158 ] final   99.06 input  -65.29 | X-H torsion
[ 10718 10713 10712 10709 ] final  145.45 input   66.30 | X-H torsion
[ 10763 10752 10751 10750 ] final  121.79 input  -60.55 | X-H torsion
[ 11005 11000 10999 10996 ] final   35.61 input  -57.11 | X-H torsion

> <Gold.Protein.ActiveResidues>
 VAL166  LYS551  ARG553  GLY616  TRP617  ASP618  TYR619  PRO620  LYS621  CYS622 
 ASP623  PHE694  ASN695  SER759  ASP760  ASP761  ALA762  ILE779  LEU786  VAL792 
 PHE793  MET794  SER795  GLU796  ALA797  LYS798  CYS799  TRP800  GLU811  SER814 

> <Gold.Protein.RotatedAtoms>
  151.1277  135.0113  159.8567 H   0  0  0  0  0  0  0  0  0  0  0  0  # atno 6907 bound_to 6896
  152.5450  134.1647  159.8582 H   0  0  0  0  0  0  0  0  0  0  0  0  # atno 6908 bound_to 6896
  151.1711  133.4739  159.2627 H   0  0  0  0  0  0  0  0  0  0  0  0  # atno 6909 bound_to 6896
  146.0496  140.6500  142.9048 H   0  0  0  0  0  0  0  0  0  0  0  0  # atno 7974 bound_to 7965
  155.0393  140.3167  155.4730 H   0  0  0  0  0  0  0  0  0  0  0  0  # atno 8008 bound_to 7997
  156.2858  140.2166  156.5460 H   0  0  0  0  0  0  0  0  0  0  0  0  # atno 8009 bound_to 7997
  154.7303  140.0482  157.0708 H   0  0  0  0  0  0  0  0  0  0  0  0  # atno 8010 bound_to 7997
  139.7652  144.6941  151.0235 H   0  0  0  0  0  0  0  0  0  0  0  0  # atno 10167 bound_to 10162
  157.3451  131.0942  151.1048 H   0  0  0  0  0  0  0  0  0  0  0  0  # atno 10718 bound_to 10713
  153.6197  135.3415  155.3006 H   0  0  0  0  0  0  0  0  0  0  0  0  # atno 10763 bound_to 10752
  154.8602  135.4270  154.2221 H   0  0  0  0  0  0  0  0  0  0  0  0  # atno 10764 bound_to 10752
  153.3091  135.7030  153.7205 H   0  0  0  0  0  0  0  0  0  0  0  0  # atno 10765 bound_to 10752
  140.2409  134.3416  155.7926 H   0  0  0  0  0  0  0  0  0  0  0  0  # atno 11005 bound_to 11000
  144.7115  140.4057  143.7076 LP  0  0  0  0  0  0  0  0  0  0  0  0  # atno 17320 bound_to 7965
  145.6748  139.1606  143.2734 LP  0  0  0  0  0  0  0  0  0  0  0  0  # atno 17321 bound_to 7965
  140.7810  143.4651  151.0224 LP  0  0  0  0  0  0  0  0  0  0  0  0  # atno 17342 bound_to 10162
  139.8336  143.7658  152.3180 LP  0  0  0  0  0  0  0  0  0  0  0  0  # atno 17343 bound_to 10162
  157.2245  130.6497  149.5824 LP  0  0  0  0  0  0  0  0  0  0  0  0  # atno 17370 bound_to 10713
  155.9713  130.4618  150.6124 LP  0  0  0  0  0  0  0  0  0  0  0  0  # atno 17371 bound_to 10713
  141.2210  133.7298  156.8883 LP  0  0  0  0  0  0  0  0  0  0  0  0  # atno 17394 bound_to 11000
  140.1654  134.9136  157.2768 LP  0  0  0  0  0  0  0  0  0  0  0  0  # atno 17395 bound_to 11000

$$$$
