AV-unprocessed.smi:1740|AV-procd|sdf|7013|dock8
  -GOLD-   22720 8233D 1   1.00000     0.00000
 Structure written by MMmdl.
 51 53  0  0  0  0  0  0  0  0  3 V2000
  147.8677  133.9058  154.2005 N   0  5  0  0  0  0  0  0  0  0  0  0
  148.9396  134.5178  154.7425 C   0  0  0  0  0  0  0  0  0  0  0  0
  150.1047  134.1277  154.7578 O   0  0  0  0  0  0  0  0  0  0  0  0
  148.5784  135.8542  155.4002 C   0  0  0  0  0  0  0  0  0  0  0  0
  149.3275  136.9744  154.7747 N   0  3  2  0  0  0  0  0  0  0  0  0
  150.7586  136.9842  155.1707 C   0  0  0  0  0  0  0  0  0  0  0  0
  151.5433  138.0668  154.4077 C   0  0  0  0  0  0  0  0  0  0  0  0
  150.9197  139.4641  154.5887 C   0  0  2  0  0  0  0  0  0  0  0  0
  151.0913  139.9545  155.9555 N   0  0  0  0  0  0  0  0  0  0  0  0
  152.1683  139.7513  156.7271 C   0  0  0  0  0  0  0  0  0  0  0  0
  153.1668  139.1379  156.3520 O   0  0  0  0  0  0  0  0  0  0  0  0
  152.0017  140.3105  157.9372 N   0  0  0  0  0  0  0  0  0  0  0  0
  152.9025  140.3558  159.0404 C   0  0  0  0  0  0  0  0  0  0  0  0
  153.7652  139.2772  159.3580 C   0  0  0  0  0  0  0  0  0  0  0  0
  154.5833  139.3604  160.4979 C   0  0  0  0  0  0  0  0  0  0  0  0
  154.4999  140.5141  161.2942 C   0  0  0  0  0  0  0  0  0  0  0  0
  153.6761  141.5431  161.0141 N   0  0  0  0  0  0  0  0  0  0  0  0
  152.8924  141.4845  159.9095 C   0  0  0  0  0  0  0  0  0  0  0  0
  152.0599  142.5986  159.6559 N   0  0  0  0  0  0  0  0  0  0  0  0
  152.2043  143.2726  158.3687 C   0  0  0  0  0  0  0  0  0  0  0  0
  152.0079  144.7685  158.6374 C   0  0  0  0  0  0  0  0  0  0  0  0
  151.2470  144.8019  159.9592 C   0  0  0  0  0  0  0  0  0  0  0  0
  151.8206  143.5946  160.6950 C   0  0  0  0  0  0  0  0  0  0  0  0
  149.4273  139.4107  154.2208 C   0  0  0  0  0  0  0  0  0  0  0  0
  148.6846  138.2996  154.9856 C   0  0  0  0  0  0  0  0  0  0  0  0
  147.9998  133.3449  153.3499 H   0  0  0  0  0  0  0  0  0  0  0  0
  147.5040  136.0350  155.3396 H   0  0  0  0  0  0  0  0  0  0  0  0
  148.8213  135.7801  156.4618 H   0  0  0  0  0  0  0  0  0  0  0  0
  150.8385  137.1431  156.2473 H   0  0  0  0  0  0  0  0  0  0  0  0
  151.2028  136.0104  154.9618 H   0  0  0  0  0  0  0  0  0  0  0  0
  152.5864  138.0678  154.7265 H   0  0  0  0  0  0  0  0  0  0  0  0
  151.5537  137.8156  153.3463 H   0  0  0  0  0  0  0  0  0  0  0  0
  151.4119  140.1629  153.9096 H   0  0  0  0  0  0  0  0  0  0  0  0
  150.3252  140.4819  156.3477 H   0  0  0  0  0  0  0  0  0  0  0  0
  151.1524  140.8417  158.0625 H   0  0  0  0  0  0  0  0  0  0  0  0
  153.8011  138.3766  158.7657 H   0  0  0  0  0  0  0  0  0  0  0  0
  155.2492  138.5523  160.7620 H   0  0  0  0  0  0  0  0  0  0  0  0
  155.1056  140.6116  162.1829 H   0  0  0  0  0  0  0  0  0  0  0  0
  153.1727  143.0744  157.9071 H   0  0  0  0  0  0  0  0  0  0  0  0
  151.4279  142.9122  157.6936 H   0  0  0  0  0  0  0  0  0  0  0  0
  152.9792  145.2487  158.7632 H   0  0  0  0  0  0  0  0  0  0  0  0
  151.4832  145.2794  157.8300 H   0  0  0  0  0  0  0  0  0  0  0  0
  151.3792  145.7354  160.5067 H   0  0  0  0  0  0  0  0  0  0  0  0
  150.1804  144.6589  159.7799 H   0  0  0  0  0  0  0  0  0  0  0  0
  151.1342  143.2191  161.4544 H   0  0  0  0  0  0  0  0  0  0  0  0
  152.7525  143.8794  161.1853 H   0  0  0  0  0  0  0  0  0  0  0  0
  148.9560  140.3759  154.4100 H   0  0  0  0  0  0  0  0  0  0  0  0
  149.3286  139.2308  153.1492 H   0  0  0  0  0  0  0  0  0  0  0  0
  147.6481  138.2721  154.6481 H   0  0  0  0  0  0  0  0  0  0  0  0
  148.6589  138.5264  156.0525 H   0  0  0  0  0  0  0  0  0  0  0  0
  149.3055  136.7882  153.7814 H   0  0  0  0  0  0  0  0  0  0  0  0
  1  2  1  0  0  0  0
  1 26  1  0  0  0  0
  2  3  2  0  0  0  0
  2  4  1  0  0  0  0
  4  5  1  0  0  0  0
  4 27  1  0  0  0  0
  4 28  1  0  0  0  0
  5 25  1  0  0  0  0
  5  6  1  0  0  0  0
  5 51  1  0  0  0  0
  6  7  1  0  0  0  0
  6 29  1  0  0  0  0
  6 30  1  0  0  0  0
  7  8  1  0  0  0  0
  7 31  1  0  0  0  0
  7 32  1  0  0  0  0
  8  9  1  0  0  0  0
  8 24  1  0  0  0  0
  8 33  1  0  0  0  0
  9 10  1  0  0  0  0
  9 34  1  0  0  0  0
 10 11  2  0  0  0  0
 10 12  1  0  0  0  0
 12 13  1  0  0  0  0
 12 35  1  0  0  0  0
 13 18  1  0  0  0  0
 13 14  2  0  0  0  0
 14 15  1  0  0  0  0
 14 36  1  0  0  0  0
 15 16  2  0  0  0  0
 15 37  1  0  0  0  0
 16 17  1  0  0  0  0
 16 38  1  0  0  0  0
 17 18  2  0  0  0  0
 18 19  1  0  0  0  0
 19 23  1  0  0  0  0
 19 20  1  0  0  0  0
 20 21  1  0  0  0  0
 20 39  1  0  0  0  0
 20 40  1  0  0  0  0
 21 22  1  0  0  0  0
 21 41  1  0  0  0  0
 21 42  1  0  0  0  0
 22 23  1  0  0  0  0
 22 43  1  0  0  0  0
 22 44  1  0  0  0  0
 23 45  1  0  0  0  0
 23 46  1  0  0  0  0
 24 25  1  0  0  0  0
 24 47  1  0  0  0  0
 24 48  1  0  0  0  0
 25 49  1  0  0  0  0
 25 50  1  0  0  0  0
M  CHG  1   1  -1
M  CHG  1   5   1
M  END
> <s_m_source_file>
AV-unprocessed.smi

> <i_m_source_file_index>
1740

> <i_lp_mmshare_version>
43012

> <i_f3d_flags>
0

> <s_epik_input>
W05IMl1DKD1PKVtDSDJdTjFbQ0gyXVtDSDJdW0NIXShbQ0gyXVtDSDJdMSlbTkhdQyg9TylbTkhdYzJbY0hdW2NIXVtjSF1uYzJOM1tDSDJdW0NIMl1bQ0gyXVtDSDJdMw==

> <s_epik_cmdline>
J2VwaWtfcHl0aG9uJywgJy1waCcsICc3LjAnLCAnLXRuJywgJzgnLCAnLW1hJywgJzIwMCcsICctbWV0YWxfYmluZGluZycsICctaW1hZScsICc8aW5maWxlLm1hZT4nLCAnLW9tYWUnLCAnPG91dGZpbGUubWFlPic=

> <r_lp_tautomer_probability>
1

> <r_epik_Ionization_Penalty>
5.80652

> <r_epik_Ionization_Penalty_Charging>
5.7288

> <r_epik_Ionization_Penalty_Neutral>
0.0777157

> <r_epik_State_Penalty>
6.60246

> <r_epik_Charging_Adjusted_Penalty>
12.3313

> <i_epik_Tot_Q>
0

> <i_epik_Tot_abs_Q>
2

> <r_epik_Metal_State_Penalty>
2.64988

> <b_epik_Metal_Only>
1

> <s_lp_Force_Field>
OPLS_2005

> <r_lp_Energy>
35.9305

> <b_lp_Chiralities_Consistent>
1

> <s_lp_Variant>
AV-unprocessed.smi:1740-8

> <Gold.Version>
5.8.1

> <Gold.Id.Protein>
6NUR|6NUR_protein|mol2

> <Gold.PLP.Fitness>
51.3475

> <Gold.PLP.PLP>
-43.8233

> <Gold.PLP.part.hbond>
-1.8928

> <Gold.PLP.part.metal>
0.0000

> <Gold.PLP.part.buried>
-4.3935

> <Gold.PLP.part.nonpolar>
-37.6942

> <Gold.PLP.part.repulsive>
0.3217

> <Gold.PLP.ligand.clash>
0.0000

> <Gold.PLP.ligand.torsion>
0.8993

> <Gold.PLP.Chemscore.Hbond>
3.0000

> <Gold.PLP.Chemscore.CHOScore>
0.0000

> <Gold.PLP.Chemscore.Metal>
0.0000

> <Gold.Chemscore.Hbonds>
donor molecule, donor type, donor heavy atom, donor atom, acceptor molecule, acceptor atom, score
      L1  H     5    51       P1  7948  2.00
      P1  H  7997  8009       L1    11  0.99

> <Gold.PLP.Chemscore.Internal.Correction>
0.3228

> <Gold.Rescore>
     Score         DG    S(hbond)    S(metal)    S(lipo)     H(rot)  DE(clash)    DE(int)     intcor
     13.57     -17.89       1.68        0.00     105.21       2.16       0.05       4.27       ----

> <Gold.Chemscore.Fitness>
13.5660

> <Gold.Chemscore.DG>
-17.8856

> <Gold.Chemscore.ZeroCoef>
-5.4800

> <Gold.Chemscore.Hbond>
1.6815

> <Gold.Chemscore.Metal>
0.0000

> <Gold.Chemscore.Lipo>
105.2080

> <Gold.Chemscore.Internal_Hbond>
0.0000

> <Gold.Chemscore.DEClash>
0.0492

> <Gold.Chemscore.DEInternal>
4.2704

> <Gold.Chemscore.Rot>
2.1562

> <Gold.Chemscore.Internal.Correction>
   9.000000E+99

> <Gold.Chemscore.Hbonds>
donor molecule, donor type, donor heavy atom, donor atom, acceptor molecule, acceptor atom, score
      L1  H     5    51       P1  7948  0.92
      P1  H  7997  8009       L1    11  0.64

> <Gold.Chemscore.Hbond.Weighted>
-5.6161

> <Gold.Chemscore.Metal.Weighted>
-0.0000

> <Gold.Chemscore.Lipo.Weighted>
-12.3093

> <Gold.Chemscore.Internal_Hbond.Weighted>
0.0000

> <Gold.Chemscore.DEClash.Weighted>
0.0492

> <Gold.Chemscore.DEInternal.Weighted>
4.2704

> <Gold.Chemscore.Rot.Weighted>
5.5198

> <Gold.Chemscore.Internal.Correction.Weighted>
   9.000000E+99

> <Gold.Protein.RotatedTorsions>
[ 6907 6896 6895 6894 ] final  148.89 input  -60.11 | X-H torsion
[ 7974 7965 7964 7962 ] final  -34.39 input  175.53 | X-H torsion
[ 8008 7997 7996 7995 ] final -159.79 input   59.86 | X-H torsion
[ 10167 10162 10161 10158 ] final -138.23 input  -65.29 | X-H torsion
[ 10718 10713 10712 10709 ] final  -57.60 input   66.30 | X-H torsion
[ 10763 10752 10751 10750 ] final -170.69 input  -60.55 | X-H torsion
[ 11005 11000 10999 10996 ] final  -22.85 input  -57.11 | X-H torsion

> <Gold.Protein.ActiveResidues>
 VAL166  LYS551  ARG553  GLY616  TRP617  ASP618  TYR619  PRO620  LYS621  CYS622 
 ASP623  PHE694  ASN695  SER759  ASP760  ASP761  ALA762  ILE779  LEU786  VAL792 
 PHE793  MET794  SER795  GLU796  ALA797  LYS798  CYS799  TRP800  GLU811  SER814 

> <Gold.Protein.RotatedAtoms>
  152.1354  133.4432  159.4740 H   0  0  0  0  0  0  0  0  0  0  0  0  # atno 6907 bound_to 6896
  150.6881  134.2370  159.4466 H   0  0  0  0  0  0  0  0  0  0  0  0  # atno 6908 bound_to 6896
  152.0257  134.9796  160.0622 H   0  0  0  0  0  0  0  0  0  0  0  0  # atno 6909 bound_to 6896
  146.0833  140.6033  142.8898 H   0  0  0  0  0  0  0  0  0  0  0  0  # atno 7974 bound_to 7965
  155.7678  140.0848  157.2123 H   0  0  0  0  0  0  0  0  0  0  0  0  # atno 8008 bound_to 7997
  154.3998  140.1531  156.2963 H   0  0  0  0  0  0  0  0  0  0  0  0  # atno 8009 bound_to 7997
  155.8777  140.3422  155.5868 H   0  0  0  0  0  0  0  0  0  0  0  0  # atno 8010 bound_to 7997
  139.8499  143.7213  152.2658 H   0  0  0  0  0  0  0  0  0  0  0  0  # atno 10167 bound_to 10162
  156.1198  130.4167  150.0463 H   0  0  0  0  0  0  0  0  0  0  0  0  # atno 10718 bound_to 10713
  154.6387  135.2896  155.0130 H   0  0  0  0  0  0  0  0  0  0  0  0  # atno 10763 bound_to 10752
  154.1264  135.6540  153.4917 H   0  0  0  0  0  0  0  0  0  0  0  0  # atno 10764 bound_to 10752
  153.0315  135.5300  154.7245 H   0  0  0  0  0  0  0  0  0  0  0  0  # atno 10765 bound_to 10752
  140.8696  133.7730  156.0170 H   0  0  0  0  0  0  0  0  0  0  0  0  # atno 11005 bound_to 11000
  144.7308  140.4665  143.6939 LP  0  0  0  0  0  0  0  0  0  0  0  0  # atno 17320 bound_to 7965
  145.6177  139.1520  143.3040 LP  0  0  0  0  0  0  0  0  0  0  0  0  # atno 17321 bound_to 7965
  139.7476  144.7543  151.0556 LP  0  0  0  0  0  0  0  0  0  0  0  0  # atno 17342 bound_to 10162
  140.7789  143.4898  150.9908 LP  0  0  0  0  0  0  0  0  0  0  0  0  # atno 17343 bound_to 10162
  156.8404  130.9424  151.3632 LP  0  0  0  0  0  0  0  0  0  0  0  0  # atno 17370 bound_to 10713
  157.6381  130.8783  149.9397 LP  0  0  0  0  0  0  0  0  0  0  0  0  # atno 17371 bound_to 10713
  140.8589  134.2864  157.5243 LP  0  0  0  0  0  0  0  0  0  0  0  0  # atno 17394 bound_to 11000
  139.8711  134.9507  156.4064 LP  0  0  0  0  0  0  0  0  0  0  0  0  # atno 17395 bound_to 11000

$$$$
