AV-unprocessed.smi:2228|AV-procd|sdf|9025|dock1
  -GOLD-   2272012233D 1   1.00000     0.00000
 Structure written by MMmdl.
 40 41  0  0  0  0  0  0  0  0  1 V2000
  152.9620  137.0898  157.7478 C   0  0  0  0  0  0  0  0  0  0  0  0
  152.2411  138.1475  157.1350 O   0  0  0  0  0  0  0  0  0  0  0  0
  151.7366  137.8175  155.8469 C   0  0  2  0  0  0  0  0  0  0  0  0
  151.3125  139.0725  155.0870 C   0  0  0  0  0  0  0  0  0  0  0  0
  150.4088  138.5407  153.9753 C   0  0  0  0  0  0  0  0  0  0  0  0
  149.7157  137.3016  154.5611 C   0  0  0  0  0  0  0  0  0  0  0  0
  150.4714  136.9376  155.8548 C   0  0  2  0  0  0  0  0  0  0  0  0
  149.6353  137.2242  157.0218 N   0  0  0  0  0  0  0  0  0  0  0  0
  149.4065  136.3938  158.0492 C   0  0  0  0  0  0  0  0  0  0  0  0
  149.8746  135.2574  158.1257 O   0  0  0  0  0  0  0  0  0  0  0  0
  148.6091  136.9691  158.9662 N   0  0  0  0  0  0  0  0  0  0  0  0
  148.1708  136.4360  160.2074 C   0  0  0  0  0  0  0  0  0  0  0  0
  148.1930  135.0260  160.2947 C   0  0  0  0  0  0  0  0  0  0  0  0
  147.7728  134.3969  161.4838 C   0  0  0  0  0  0  0  0  0  0  0  0
  147.7906  132.8871  161.5985 C   0  0  0  0  0  0  0  0  0  0  0  0
  147.3393  135.1990  162.5569 C   0  0  0  0  0  0  0  0  0  0  0  0
  147.3464  136.5972  162.3865 C   0  0  0  0  0  0  0  0  0  0  0  0
  146.8926  137.5197  163.4982 C   0  0  0  0  0  0  0  0  0  0  0  0
  147.7507  137.1986  161.2473 N   0  0  0  0  0  0  0  0  0  0  0  0
  153.3066  137.4068  158.7318 H   0  0  0  0  0  0  0  0  0  0  0  0
  153.8378  136.8168  157.1578 H   0  0  0  0  0  0  0  0  0  0  0  0
  152.3427  136.2027  157.8809 H   0  0  0  0  0  0  0  0  0  0  0  0
  152.5145  137.3246  155.2598 H   0  0  0  0  0  0  0  0  0  0  0  0
  150.7401  139.7296  155.7434 H   0  0  0  0  0  0  0  0  0  0  0  0
  152.1618  139.6395  154.7048 H   0  0  0  0  0  0  0  0  0  0  0  0
  149.6971  139.2906  153.6292 H   0  0  0  0  0  0  0  0  0  0  0  0
  151.0185  138.2471  153.1198 H   0  0  0  0  0  0  0  0  0  0  0  0
  148.6610  137.5038  154.7548 H   0  0  0  0  0  0  0  0  0  0  0  0
  149.7514  136.4786  153.8464 H   0  0  0  0  0  0  0  0  0  0  0  0
  150.7584  135.8849  155.8370 H   0  0  0  0  0  0  0  0  0  0  0  0
  149.2106  138.1395  157.0528 H   0  0  0  0  0  0  0  0  0  0  0  0
  148.2872  137.9025  158.7575 H   0  0  0  0  0  0  0  0  0  0  0  0
  148.5289  134.4295  159.4586 H   0  0  0  0  0  0  0  0  0  0  0  0
  147.3489  132.5555  162.5386 H   0  0  0  0  0  0  0  0  0  0  0  0
  148.8154  132.5178  161.5526 H   0  0  0  0  0  0  0  0  0  0  0  0
  147.2256  132.4387  160.7807 H   0  0  0  0  0  0  0  0  0  0  0  0
  147.0103  134.7552  163.4852 H   0  0  0  0  0  0  0  0  0  0  0  0
  146.4215  136.9609  164.3074 H   0  0  0  0  0  0  0  0  0  0  0  0
  146.1700  138.2447  163.1221 H   0  0  0  0  0  0  0  0  0  0  0  0
  147.7440  138.0636  163.9080 H   0  0  0  0  0  0  0  0  0  0  0  0
  1  2  1  0  0  0  0
  1 20  1  0  0  0  0
  1 21  1  0  0  0  0
  1 22  1  0  0  0  0
  2  3  1  0  0  0  0
  3  7  1  0  0  0  0
  3  4  1  0  0  0  0
  3 23  1  0  0  0  0
  4  5  1  0  0  0  0
  4 24  1  0  0  0  0
  4 25  1  0  0  0  0
  5  6  1  0  0  0  0
  5 26  1  0  0  0  0
  5 27  1  0  0  0  0
  6  7  1  0  0  0  0
  6 28  1  0  0  0  0
  6 29  1  0  0  0  0
  7  8  1  0  0  0  0
  7 30  1  0  0  0  0
  8  9  1  0  0  0  0
  8 31  1  0  0  0  0
  9 10  2  0  0  0  0
  9 11  1  0  0  0  0
 11 12  1  0  0  0  0
 11 32  1  0  0  0  0
 12 19  1  0  0  0  0
 12 13  2  0  0  0  0
 13 14  1  0  0  0  0
 13 33  1  0  0  0  0
 14 15  1  0  0  0  0
 14 16  2  0  0  0  0
 15 34  1  0  0  0  0
 15 35  1  0  0  0  0
 15 36  1  0  0  0  0
 16 17  1  0  0  0  0
 16 37  1  0  0  0  0
 17 18  1  0  0  0  0
 17 19  2  0  0  0  0
 18 38  1  0  0  0  0
 18 39  1  0  0  0  0
 18 40  1  0  0  0  0
M  END
> <s_m_source_file>
AV-unprocessed.smi

> <i_m_source_file_index>
2228

> <i_lp_mmshare_version>
43012

> <i_f3d_flags>
0

> <s_epik_input>
W0NIM11PW0NAQEhdMVtDSDJdW0NIMl1bQ0gyXVtDQEhdMVtOSF1DKD1PKVtOSF1jMltjSF1jKFtDSDNdKVtjSF1jKG4yKVtDSDNd

> <s_epik_cmdline>
J2VwaWtfcHl0aG9uJywgJy1waCcsICc3LjAnLCAnLXRuJywgJzgnLCAnLW1hJywgJzIwMCcsICctbWV0YWxfYmluZGluZycsICctaW1hZScsICc8aW5maWxlLm1hZT4nLCAnLW9tYWUnLCAnPG91dGZpbGUubWFlPic=

> <r_lp_tautomer_probability>
1

> <r_epik_Ionization_Penalty>
0.000275391

> <r_epik_Ionization_Penalty_Charging>
0

> <r_epik_Ionization_Penalty_Neutral>
0.000275391

> <r_epik_State_Penalty>
-0

> <r_epik_Charging_Adjusted_Penalty>
0

> <i_epik_Tot_Q>
0

> <i_epik_Tot_abs_Q>
0

> <r_epik_Metal_State_Penalty>
-0

> <b_epik_Metal_Only>
0

> <s_lp_Force_Field>
OPLS_2005

> <r_lp_Energy>
22.5383

> <b_lp_Chiralities_Consistent>
1

> <s_lp_Variant>
AV-unprocessed.smi:2228-3

> <Gold.Version>
5.8.1

> <Gold.Id.Protein>
6NUR|6NUR_protein|mol2

> <Gold.PLP.Fitness>
38.7210

> <Gold.PLP.PLP>
-31.4118

> <Gold.PLP.part.hbond>
-2.9271

> <Gold.PLP.part.metal>
0.0000

> <Gold.PLP.part.buried>
-2.2435

> <Gold.PLP.part.nonpolar>
-26.2630

> <Gold.PLP.part.repulsive>
0.2044

> <Gold.PLP.ligand.clash>
0.0000

> <Gold.PLP.ligand.torsion>
0.3355

> <Gold.PLP.Chemscore.Hbond>
2.6552

> <Gold.PLP.Chemscore.CHOScore>
0.0000

> <Gold.PLP.Chemscore.Metal>
0.0000

> <Gold.Chemscore.Hbonds>
donor molecule, donor type, donor heavy atom, donor atom, acceptor molecule, acceptor atom, score
      P1  H  6896  6909       L1    10  0.93
      P1  H  6931  6943       L1    19  0.98
      P1  H  6934  6947       L1    19  0.82

> <Gold.PLP.Chemscore.Internal.Correction>
0.0146

> <Gold.Rescore>
     Score         DG    S(hbond)    S(metal)    S(lipo)     H(rot)  DE(clash)    DE(int)     intcor
     16.34     -19.40       2.20        0.00      82.83       1.21       1.35       1.72       ----

> <Gold.Chemscore.Fitness>
16.3357

> <Gold.Chemscore.DG>
-19.4046

> <Gold.Chemscore.ZeroCoef>
-5.4800

> <Gold.Chemscore.Hbond>
2.1965

> <Gold.Chemscore.Metal>
0.0000

> <Gold.Chemscore.Lipo>
82.8289

> <Gold.Chemscore.Internal_Hbond>
0.0000

> <Gold.Chemscore.DEClash>
1.3505

> <Gold.Chemscore.DEInternal>
1.7184

> <Gold.Chemscore.Rot>
1.2119

> <Gold.Chemscore.Internal.Correction>
   9.000000E+99

> <Gold.Chemscore.Hbonds>
donor molecule, donor type, donor heavy atom, donor atom, acceptor molecule, acceptor atom, score
      P1  H  6896  6909       L1    10  0.90
      P1  H  6931  6943       L1    19  0.20
      P1  H  6934  6947       L1    19  0.76

> <Gold.Chemscore.Hbond.Weighted>
-7.3362

> <Gold.Chemscore.Metal.Weighted>
-0.0000

> <Gold.Chemscore.Lipo.Weighted>
-9.6910

> <Gold.Chemscore.Internal_Hbond.Weighted>
0.0000

> <Gold.Chemscore.DEClash.Weighted>
1.3505

> <Gold.Chemscore.DEInternal.Weighted>
1.7184

> <Gold.Chemscore.Rot.Weighted>
3.1026

> <Gold.Chemscore.Internal.Correction.Weighted>
   9.000000E+99

> <Gold.Protein.RotatedTorsions>
[ 6907 6896 6895 6894 ] final   32.65 input  -60.11 | X-H torsion
[ 7974 7965 7964 7962 ] final  -86.49 input  175.53 | X-H torsion
[ 8008 7997 7996 7995 ] final   72.99 input   59.86 | X-H torsion
[ 10167 10162 10161 10158 ] final  135.00 input  -65.29 | X-H torsion
[ 10718 10713 10712 10709 ] final   43.02 input   66.30 | X-H torsion
[ 10763 10752 10751 10750 ] final  102.54 input  -60.55 | X-H torsion
[ 11005 11000 10999 10996 ] final  -64.07 input  -57.11 | X-H torsion

> <Gold.Protein.ActiveResidues>
 VAL166  LYS551  ARG553  GLY616  TRP617  ASP618  TYR619  PRO620  LYS621  CYS622 
 ASP623  PHE694  ASN695  SER759  ASP760  ASP761  ALA762  ILE779  LEU786  VAL792 
 PHE793  MET794  SER795  GLU796  ALA797  LYS798  CYS799  TRP800  GLU811  SER814 

> <Gold.Protein.RotatedAtoms>
  152.0775  134.9493  160.0573 H   0  0  0  0  0  0  0  0  0  0  0  0  # atno 6907 bound_to 6896
  152.0795  133.4141  159.4503 H   0  0  0  0  0  0  0  0  0  0  0  0  # atno 6908 bound_to 6896
  150.6836  134.2918  159.4713 H   0  0  0  0  0  0  0  0  0  0  0  0  # atno 6909 bound_to 6896
  145.4791  140.9557  143.1874 H   0  0  0  0  0  0  0  0  0  0  0  0  # atno 7974 bound_to 7965
  155.7771  140.3483  155.5277 H   0  0  0  0  0  0  0  0  0  0  0  0  # atno 8008 bound_to 7997
  155.8765  140.0995  157.1535 H   0  0  0  0  0  0  0  0  0  0  0  0  # atno 8009 bound_to 7997
  154.4021  140.1330  156.4131 H   0  0  0  0  0  0  0  0  0  0  0  0  # atno 8010 bound_to 7997
  139.5234  144.6539  151.5221 H   0  0  0  0  0  0  0  0  0  0  0  0  # atno 10167 bound_to 10162
  157.4113  130.7916  149.7433 H   0  0  0  0  0  0  0  0  0  0  0  0  # atno 10718 bound_to 10713
  153.3409  135.4007  155.1571 H   0  0  0  0  0  0  0  0  0  0  0  0  # atno 10763 bound_to 10752
  154.8643  135.3633  154.5347 H   0  0  0  0  0  0  0  0  0  0  0  0  # atno 10764 bound_to 10752
  153.5792  135.7077  153.5530 H   0  0  0  0  0  0  0  0  0  0  0  0  # atno 10765 bound_to 10752
  141.1413  133.6660  156.5777 H   0  0  0  0  0  0  0  0  0  0  0  0  # atno 11005 bound_to 11000
  144.7899  139.6349  143.7118 LP  0  0  0  0  0  0  0  0  0  0  0  0  # atno 17320 bound_to 7965
  146.2351  139.5890  142.9529 LP  0  0  0  0  0  0  0  0  0  0  0  0  # atno 17321 bound_to 7965
  140.6356  143.8991  150.6644 LP  0  0  0  0  0  0  0  0  0  0  0  0  # atno 17342 bound_to 10162
  140.2309  143.3736  152.1566 LP  0  0  0  0  0  0  0  0  0  0  0  0  # atno 17343 bound_to 10162
  155.9851  130.3985  150.3276 LP  0  0  0  0  0  0  0  0  0  0  0  0  # atno 17370 bound_to 10713
  157.1414  131.0297  151.2926 LP  0  0  0  0  0  0  0  0  0  0  0  0  # atno 17371 bound_to 10713
  140.3862  134.7480  157.4693 LP  0  0  0  0  0  0  0  0  0  0  0  0  # atno 17394 bound_to 11000
  140.0600  134.6009  155.8760 LP  0  0  0  0  0  0  0  0  0  0  0  0  # atno 17395 bound_to 11000

$$$$
