AV-unprocessed.smi:213|AV-procd|sdf|1637|dock9
  -GOLD-   2262020 03D 1   1.00000     0.00000
 Structure written by MMmdl.
 59 62  0  0  0  0  0  0  0  0  2 V2000
  152.3119  139.9261  155.6071 C   0  0  0  0  0  0  0  0  0  0  0  0
  151.4692  140.8236  156.5277 C   0  0  2  0  0  0  0  0  0  0  0  0
  152.2213  141.1458  157.8421 C   0  0  0  0  0  0  0  0  0  0  0  0
  151.6861  142.3419  158.5409 N   0  3  0  0  0  0  0  0  0  0  0  0
  152.3251  142.5833  159.8544 C   0  0  0  0  0  0  0  0  0  0  0  0
  151.6466  143.7700  160.5593 C   0  0  0  0  0  0  0  0  0  0  0  0
  151.7220  144.9239  159.7306 O   0  0  0  0  0  0  0  0  0  0  0  0
  151.0505  144.7360  158.4908 C   0  0  0  0  0  0  0  0  0  0  0  0
  151.7043  143.5772  157.7197 C   0  0  0  0  0  0  0  0  0  0  0  0
  150.1349  140.2509  156.7634 N   0  0  0  0  0  0  0  0  0  0  0  0
  149.0904  140.4178  155.7534 C   0  0  0  0  0  0  0  0  0  0  0  0
  150.0875  139.1171  157.5121 C   0  0  0  0  0  0  0  0  0  0  0  0
  151.2486  138.5518  157.9398 N   0  0  0  0  0  0  0  0  0  0  0  0
  151.2255  137.4684  158.7208 C   0  0  0  0  0  0  0  0  0  0  0  0
  150.1698  136.8031  159.1907 N   0  0  0  0  0  0  0  0  0  0  0  0
  149.0014  137.3512  158.7516 C   0  0  0  0  0  0  0  0  0  0  0  0
  148.8710  138.4988  157.9189 C   0  0  0  0  0  0  0  0  0  0  0  0
  147.5266  138.7635  157.6870 N   0  0  0  0  0  0  0  0  0  0  0  0
  146.8985  137.8303  158.3477 C   0  0  0  0  0  0  0  0  0  0  0  0
  147.7071  136.9326  159.0075 N   0  0  0  0  0  0  0  0  0  0  0  0
  147.2671  135.8017  159.8093 C   0  0  0  0  0  0  0  0  0  0  0  0
  146.3007  136.1707  160.9587 C   0  0  2  0  0  0  0  0  0  0  0  0
  146.9394  137.0776  161.8348 O   0  0  0  0  0  0  0  0  0  0  0  0
  145.7309  134.9578  161.7356 C   0  0  1  0  0  0  0  0  0  0  0  0
  144.3266  135.0733  162.3492 C   0  0  0  0  0  0  0  0  0  0  0  0
  143.8322  133.6337  162.3857 C   0  0  0  0  0  0  0  0  0  0  0  0
  144.8755  132.8476  161.5868 C   0  0  0  0  0  0  0  0  0  0  0  0
  145.6184  133.8310  160.8817 O   0  0  0  0  0  0  0  0  0  0  0  0
  153.2516  140.4131  155.3457 H   0  0  0  0  0  0  0  0  0  0  0  0
  151.7837  139.7156  154.6766 H   0  0  0  0  0  0  0  0  0  0  0  0
  152.5604  138.9742  156.0761 H   0  0  0  0  0  0  0  0  0  0  0  0
  151.3588  141.7601  155.9852 H   0  0  0  0  0  0  0  0  0  0  0  0
  152.1485  140.2823  158.5045 H   0  0  0  0  0  0  0  0  0  0  0  0
  153.2856  141.2877  157.6487 H   0  0  0  0  0  0  0  0  0  0  0  0
  152.2424  141.6922  160.4779 H   0  0  0  0  0  0  0  0  0  0  0  0
  153.3886  142.7835  159.7153 H   0  0  0  0  0  0  0  0  0  0  0  0
  150.6049  143.5409  160.7906 H   0  0  0  0  0  0  0  0  0  0  0  0
  152.1453  143.9806  161.5055 H   0  0  0  0  0  0  0  0  0  0  0  0
  149.9907  144.5418  158.6622 H   0  0  0  0  0  0  0  0  0  0  0  0
  151.1148  145.6565  157.9105 H   0  0  0  0  0  0  0  0  0  0  0  0
  152.7334  143.8325  157.4623 H   0  0  0  0  0  0  0  0  0  0  0  0
  151.1695  143.4248  156.7831 H   0  0  0  0  0  0  0  0  0  0  0  0
  148.1152  140.1368  156.1534 H   0  0  0  0  0  0  0  0  0  0  0  0
  149.2920  139.8001  154.8778 H   0  0  0  0  0  0  0  0  0  0  0  0
  149.0175  141.4547  155.4279 H   0  0  0  0  0  0  0  0  0  0  0  0
  152.1901  137.0838  159.0182 H   0  0  0  0  0  0  0  0  0  0  0  0
  145.8202  137.7638  158.3622 H   0  0  0  0  0  0  0  0  0  0  0  0
  146.8113  135.0630  159.1485 H   0  0  0  0  0  0  0  0  0  0  0  0
  148.1547  135.3246  160.2266 H   0  0  0  0  0  0  0  0  0  0  0  0
  145.4649  136.7075  160.5083 H   0  0  0  0  0  0  0  0  0  0  0  0
  146.6258  136.9151  162.7116 H   0  0  0  0  0  0  0  0  0  0  0  0
  146.4399  134.6797  162.5182 H   0  0  0  0  0  0  0  0  0  0  0  0
  144.3365  135.5290  163.3386 H   0  0  0  0  0  0  0  0  0  0  0  0
  143.6543  135.6609  161.7244 H   0  0  0  0  0  0  0  0  0  0  0  0
  143.7554  133.2553  163.4056 H   0  0  0  0  0  0  0  0  0  0  0  0
  142.8459  133.5579  161.9265 H   0  0  0  0  0  0  0  0  0  0  0  0
  145.5452  132.3084  162.2584 H   0  0  0  0  0  0  0  0  0  0  0  0
  144.4257  132.1263  160.9043 H   0  0  0  0  0  0  0  0  0  0  0  0
  150.7165  142.1380  158.7397 H   0  0  0  0  0  0  0  0  0  0  0  0
  1  2  1  0  0  0  0
  1 29  1  0  0  0  0
  1 30  1  0  0  0  0
  1 31  1  0  0  0  0
  2  3  1  0  0  0  0
  2 10  1  0  0  0  0
  2 32  1  0  0  0  0
  3  4  1  0  0  0  0
  3 33  1  0  0  0  0
  3 34  1  0  0  0  0
  4  9  1  0  0  0  0
  4  5  1  0  0  0  0
  4 59  1  0  0  0  0
  5  6  1  0  0  0  0
  5 35  1  0  0  0  0
  5 36  1  0  0  0  0
  6  7  1  0  0  0  0
  6 37  1  0  0  0  0
  6 38  1  0  0  0  0
  7  8  1  0  0  0  0
  8  9  1  0  0  0  0
  8 39  1  0  0  0  0
  8 40  1  0  0  0  0
  9 41  1  0  0  0  0
  9 42  1  0  0  0  0
 10 11  1  0  0  0  0
 10 12  1  0  0  0  0
 11 43  1  0  0  0  0
 11 44  1  0  0  0  0
 11 45  1  0  0  0  0
 12 17  1  0  0  0  0
 12 13  2  0  0  0  0
 13 14  1  0  0  0  0
 14 15  2  0  0  0  0
 14 46  1  0  0  0  0
 15 16  1  0  0  0  0
 16 20  1  0  0  0  0
 16 17  2  0  0  0  0
 17 18  1  0  0  0  0
 18 19  2  0  0  0  0
 19 20  1  0  0  0  0
 19 47  1  0  0  0  0
 20 21  1  0  0  0  0
 21 22  1  0  0  0  0
 21 48  1  0  0  0  0
 21 49  1  0  0  0  0
 22 23  1  0  0  0  0
 22 24  1  0  0  0  0
 22 50  1  0  0  0  0
 23 51  1  0  0  0  0
 24 28  1  0  0  0  0
 24 25  1  0  0  0  0
 24 52  1  0  0  0  0
 25 26  1  0  0  0  0
 25 53  1  0  0  0  0
 25 54  1  0  0  0  0
 26 27  1  0  0  0  0
 26 55  1  0  0  0  0
 26 56  1  0  0  0  0
 27 28  1  0  0  0  0
 27 57  1  0  0  0  0
 27 58  1  0  0  0  0
M  CHG  1   4   1
M  END
> <s_m_source_file>
AV-unprocessed.smi

> <i_m_source_file_index>
213

> <i_lp_mmshare_version>
43012

> <i_f3d_flags>
0

> <s_epik_input>
W0NIMl0xW0NIMl1PW0NIMl1bQ0gyXU4xW0NIMl1bQ0BASF0oW0NIM10pTihbQ0gzXSljKG5bY0hdbjIpYyhjMjMpbltjSF1uM1tDSDJdW0NASF0oW09IXSlbQ0BASF00W0NIMl1bQ0gyXVtDSDJdTzQ=

> <s_epik_cmdline>
J2VwaWtfcHl0aG9uJywgJy1waCcsICc3LjAnLCAnLXRuJywgJzgnLCAnLW1hJywgJzIwMCcsICctbWV0YWxfYmluZGluZycsICctaW1hZScsICc8aW5maWxlLm1hZT4nLCAnLW9tYWUnLCAnPG91dGZpbGUubWFlPic=

> <r_lp_tautomer_probability>
1

> <r_epik_Ionization_Penalty>
0.399679

> <r_epik_Ionization_Penalty_Charging>
0.399433

> <r_epik_Ionization_Penalty_Neutral>
0.000246213

> <r_epik_State_Penalty>
0.286032

> <r_epik_Charging_Adjusted_Penalty>
0.685465

> <i_epik_Tot_Q>
1

> <i_epik_Tot_abs_Q>
1

> <r_epik_Metal_State_Penalty>
0.286072

> <b_epik_Metal_Only>
0

> <s_lp_Force_Field>
OPLS_2005

> <r_lp_Energy>
48.2471

> <b_lp_Chiralities_Consistent>
1

> <s_lp_Variant>
AV-unprocessed.smi:213-5

> <Gold.Version>
5.8.1

> <Gold.Id.Protein>
6NUR|6NUR_protein|mol2

> <Gold.PLP.Fitness>
47.6064

> <Gold.PLP.PLP>
-42.4414

> <Gold.PLP.part.hbond>
-3.0000

> <Gold.PLP.part.metal>
0.0000

> <Gold.PLP.part.buried>
-5.5719

> <Gold.PLP.part.nonpolar>
-32.4321

> <Gold.PLP.part.repulsive>
0.1452

> <Gold.PLP.ligand.clash>
0.0000

> <Gold.PLP.ligand.torsion>
1.4303

> <Gold.PLP.Chemscore.Hbond>
2.3195

> <Gold.PLP.Chemscore.CHOScore>
0.0000

> <Gold.PLP.Chemscore.Metal>
0.0000

> <Gold.Chemscore.Hbonds>
donor molecule, donor type, donor heavy atom, donor atom, acceptor molecule, acceptor atom, score
      P1  H  6896  6908       L1    15  0.91
      P1  H  6931  6943       L1    23  0.08
      P1  H  6934  6947       L1    23  0.65

> <Gold.PLP.Chemscore.Internal.Correction>
1.0672

> <Gold.Rescore>
     Score         DG    S(hbond)    S(metal)    S(lipo)     H(rot)  DE(clash)    DE(int)     intcor
     12.20     -17.66       1.81        0.00     114.33       2.83       0.91       4.55       ----

> <Gold.Chemscore.Fitness>
12.2007

> <Gold.Chemscore.DG>
-17.6551

> <Gold.Chemscore.ZeroCoef>
-5.4800

> <Gold.Chemscore.Hbond>
1.8059

> <Gold.Chemscore.Metal>
0.0000

> <Gold.Chemscore.Lipo>
114.3279

> <Gold.Chemscore.Internal_Hbond>
0.0000

> <Gold.Chemscore.DEClash>
0.9082

> <Gold.Chemscore.DEInternal>
4.5463

> <Gold.Chemscore.Rot>
2.8254

> <Gold.Chemscore.Internal.Correction>
   9.000000E+99

> <Gold.Chemscore.Hbonds>
donor molecule, donor type, donor heavy atom, donor atom, acceptor molecule, acceptor atom, score
      P1  H  6896  6908       L1    15  0.35
      P1  H  6931  6943       L1    23  0.08
      P1  H  6934  6947       L1    23  0.52

> <Gold.Chemscore.Hbond.Weighted>
-6.0317

> <Gold.Chemscore.Metal.Weighted>
-0.0000

> <Gold.Chemscore.Lipo.Weighted>
-13.3764

> <Gold.Chemscore.Internal_Hbond.Weighted>
0.0000

> <Gold.Chemscore.DEClash.Weighted>
0.9082

> <Gold.Chemscore.DEInternal.Weighted>
4.5463

> <Gold.Chemscore.Rot.Weighted>
7.2330

> <Gold.Chemscore.Internal.Correction.Weighted>
   9.000000E+99

> <Gold.Protein.RotatedTorsions>
[ 6907 6896 6895 6894 ] final -157.63 input  -60.11 | X-H torsion
[ 7974 7965 7964 7962 ] final  -61.19 input  175.53 | X-H torsion
[ 8008 7997 7996 7995 ] final  -89.02 input   59.86 | X-H torsion
[ 10167 10162 10161 10158 ] final -161.79 input  -65.29 | X-H torsion
[ 10718 10713 10712 10709 ] final  -62.56 input   66.30 | X-H torsion
[ 10763 10752 10751 10750 ] final   89.33 input  -60.55 | X-H torsion
[ 11005 11000 10999 10996 ] final -125.12 input  -57.11 | X-H torsion

> <Gold.Protein.ActiveResidues>
 VAL166  LYS551  ARG553  GLY616  TRP617  ASP618  TYR619  PRO620  LYS621  CYS622 
 ASP623  PHE694  ASN695  SER759  ASP760  ASP761  ALA762  ILE779  LEU786  VAL792 
 PHE793  MET794  SER795  GLU796  ALA797  LYS798  CYS799  TRP800  GLU811  SER814 

> <Gold.Protein.RotatedAtoms>
  151.3058  133.4102  159.2642 H   0  0  0  0  0  0  0  0  0  0  0  0  # atno 6907 bound_to 6896
  151.0156  134.9431  159.8041 H   0  0  0  0  0  0  0  0  0  0  0  0  # atno 6908 bound_to 6896
  152.5312  134.3022  159.9135 H   0  0  0  0  0  0  0  0  0  0  0  0  # atno 6909 bound_to 6896
  145.8064  140.8625  143.0205 H   0  0  0  0  0  0  0  0  0  0  0  0  # atno 7974 bound_to 7965
  154.6817  140.0546  157.0272 H   0  0  0  0  0  0  0  0  0  0  0  0  # atno 8008 bound_to 7997
  155.0943  140.3222  155.4546 H   0  0  0  0  0  0  0  0  0  0  0  0  # atno 8009 bound_to 7997
  156.2696  140.2042  156.6069 H   0  0  0  0  0  0  0  0  0  0  0  0  # atno 8010 bound_to 7997
  139.6439  144.0208  152.2113 H   0  0  0  0  0  0  0  0  0  0  0  0  # atno 10167 bound_to 10162
  156.0847  130.4210  150.1153 H   0  0  0  0  0  0  0  0  0  0  0  0  # atno 10718 bound_to 10713
  153.1860  135.4474  155.0089 H   0  0  0  0  0  0  0  0  0  0  0  0  # atno 10763 bound_to 10752
  154.8060  135.3275  154.7432 H   0  0  0  0  0  0  0  0  0  0  0  0  # atno 10764 bound_to 10752
  153.7891  135.6971  153.4930 H   0  0  0  0  0  0  0  0  0  0  0  0  # atno 10765 bound_to 10752
  140.9787  134.0704  157.3790 H   0  0  0  0  0  0  0  0  0  0  0  0  # atno 11005 bound_to 11000
  144.6762  140.0332  143.7482 LP  0  0  0  0  0  0  0  0  0  0  0  0  # atno 17320 bound_to 7965
  145.9824  139.2951  143.1034 LP  0  0  0  0  0  0  0  0  0  0  0  0  # atno 17321 bound_to 7965
  139.9905  144.6365  150.7819 LP  0  0  0  0  0  0  0  0  0  0  0  0  # atno 17342 bound_to 10162
  140.7505  143.2956  151.3214 LP  0  0  0  0  0  0  0  0  0  0  0  0  # atno 17343 bound_to 10162
  156.9176  130.9672  151.3553 LP  0  0  0  0  0  0  0  0  0  0  0  0  # atno 17370 bound_to 10713
  157.5977  130.8489  149.8754 LP  0  0  0  0  0  0  0  0  0  0  0  0  # atno 17371 bound_to 10713
  139.8941  135.0134  156.6933 LP  0  0  0  0  0  0  0  0  0  0  0  0  # atno 17394 bound_to 11000
  140.7220  133.9133  155.8153 LP  0  0  0  0  0  0  0  0  0  0  0  0  # atno 17395 bound_to 11000

$$$$
