AV-unprocessed.smi:3156|AV-procd|sdf|12033|dock2
  -GOLD-   2272017453D 1   1.00000     0.00000
 Structure written by MMmdl.
 41 42  0  0  0  0  0  0  0  0  2 V2000
  149.6127  140.0686  154.4738 C   0  0  0  0  0  0  0  0  0  0  0  0
  148.9157  141.4364  154.6352 C   0  0  2  0  0  0  0  0  0  0  0  0
  149.3244  142.0687  155.9107 N   0  3  0  0  0  0  0  0  0  0  0  0
  150.6902  141.7416  156.3722 C   0  0  0  0  0  0  0  0  0  0  0  0
  151.0360  142.5139  157.6531 C   0  0  2  0  0  0  0  0  0  0  0  0
  151.5658  143.9280  157.3445 C   0  0  0  0  0  0  0  0  0  0  0  0
  151.9991  144.6356  158.6337 C   0  0  0  0  0  0  0  0  0  0  0  0
  152.9857  143.7505  159.4018 C   0  0  0  0  0  0  0  0  0  0  0  0
  152.3954  142.3466  159.6057 C   0  0  0  0  0  0  0  0  0  0  0  0
  152.0445  141.7808  158.3464 O   0  0  0  0  0  0  0  0  0  0  0  0
  147.3673  141.3365  154.5740 C   0  0  1  0  0  0  0  0  0  0  0  0
  146.7107  142.6395  154.0770 C   0  0  0  0  0  0  0  0  0  0  0  0
  146.9159  140.2108  153.7648 N   0  0  0  0  0  0  0  0  0  0  0  0
  147.1285  139.9863  152.4200 C   0  0  0  0  0  0  0  0  0  0  0  0
  146.5157  138.8088  152.1002 C   0  0  0  0  0  0  0  0  0  0  0  0
  145.9506  138.3759  153.3319 C   0  0  0  0  0  0  0  0  0  0  0  0
  146.1913  139.2157  154.3257 N   0  0  0  0  0  0  0  0  0  0  0  0
  149.3849  139.6076  153.5128 H   0  0  0  0  0  0  0  0  0  0  0  0
  149.3036  139.3734  155.2551 H   0  0  0  0  0  0  0  0  0  0  0  0
  150.6975  140.1573  154.5219 H   0  0  0  0  0  0  0  0  0  0  0  0
  149.2409  142.0816  153.8172 H   0  0  0  0  0  0  0  0  0  0  0  0
  149.2856  143.0696  155.7819 H   0  0  0  0  0  0  0  0  0  0  0  0
  150.7897  140.6707  156.5486 H   0  0  0  0  0  0  0  0  0  0  0  0
  151.3952  142.0042  155.5825 H   0  0  0  0  0  0  0  0  0  0  0  0
  150.1441  142.5898  158.2784 H   0  0  0  0  0  0  0  0  0  0  0  0
  152.4151  143.8628  156.6628 H   0  0  0  0  0  0  0  0  0  0  0  0
  150.8017  144.5169  156.8361 H   0  0  0  0  0  0  0  0  0  0  0  0
  152.4512  145.6011  158.4053 H   0  0  0  0  0  0  0  0  0  0  0  0
  151.1253  144.8368  159.2549 H   0  0  0  0  0  0  0  0  0  0  0  0
  153.9209  143.6744  158.8453 H   0  0  0  0  0  0  0  0  0  0  0  0
  153.2299  144.2024  160.3637 H   0  0  0  0  0  0  0  0  0  0  0  0
  153.1268  141.6998  160.0907 H   0  0  0  0  0  0  0  0  0  0  0  0
  151.5211  142.3818  160.2571 H   0  0  0  0  0  0  0  0  0  0  0  0
  147.0041  141.1529  155.5868 H   0  0  0  0  0  0  0  0  0  0  0  0
  146.9245  143.4763  154.7419 H   0  0  0  0  0  0  0  0  0  0  0  0
  145.6262  142.5360  154.0278 H   0  0  0  0  0  0  0  0  0  0  0  0
  147.0622  142.9107  153.0809 H   0  0  0  0  0  0  0  0  0  0  0  0
  147.6896  140.6766  151.8073 H   0  0  0  0  0  0  0  0  0  0  0  0
  146.4778  138.3288  151.1336 H   0  0  0  0  0  0  0  0  0  0  0  0
  145.3758  137.4833  153.5316 H   0  0  0  0  0  0  0  0  0  0  0  0
  148.6616  141.8137  156.6292 H   0  0  0  0  0  0  0  0  0  0  0  0
  1  2  1  0  0  0  0
  1 18  1  0  0  0  0
  1 19  1  0  0  0  0
  1 20  1  0  0  0  0
  2  3  1  0  0  0  0
  2 11  1  0  0  0  0
  2 21  1  0  0  0  0
  3  4  1  0  0  0  0
  3 22  1  0  0  0  0
  3 41  1  0  0  0  0
  4  5  1  0  0  0  0
  4 23  1  0  0  0  0
  4 24  1  0  0  0  0
  5 10  1  0  0  0  0
  5  6  1  0  0  0  0
  5 25  1  0  0  0  0
  6  7  1  0  0  0  0
  6 26  1  0  0  0  0
  6 27  1  0  0  0  0
  7  8  1  0  0  0  0
  7 28  1  0  0  0  0
  7 29  1  0  0  0  0
  8  9  1  0  0  0  0
  8 30  1  0  0  0  0
  8 31  1  0  0  0  0
  9 10  1  0  0  0  0
  9 32  1  0  0  0  0
  9 33  1  0  0  0  0
 11 12  1  0  0  0  0
 11 13  1  0  0  0  0
 11 34  1  0  0  0  0
 12 35  1  0  0  0  0
 12 36  1  0  0  0  0
 12 37  1  0  0  0  0
 13 17  1  0  0  0  0
 13 14  1  0  0  0  0
 14 15  2  0  0  0  0
 14 38  1  0  0  0  0
 15 16  1  0  0  0  0
 15 39  1  0  0  0  0
 16 17  2  0  0  0  0
 16 40  1  0  0  0  0
M  CHG  1   3   1
M  END
> <s_m_source_file>
AV-unprocessed.smi

> <i_m_source_file_index>
3156

> <i_lp_mmshare_version>
43012

> <i_f3d_flags>
0

> <s_epik_input>
bjFbY0hdW2NIXVtjSF1uMVtDQEBIXShbQ0gzXSlbQ0BIXShbQ0gzXSlbTkhdW0NIMl1bQ0BASF0yW0NIMl1bQ0gyXVtDSDJdW0NIMl1PMg==

> <s_epik_cmdline>
J2VwaWtfcHl0aG9uJywgJy1waCcsICc3LjAnLCAnLXRuJywgJzgnLCAnLW1hJywgJzIwMCcsICctbWV0YWxfYmluZGluZycsICctaW1hZScsICc8aW5maWxlLm1hZT4nLCAnLW9tYWUnLCAnPG91dGZpbGUubWFlPic=

> <r_lp_tautomer_probability>
1

> <r_epik_Ionization_Penalty>
0.00658015

> <r_epik_Ionization_Penalty_Charging>
0.00656881

> <r_epik_Ionization_Penalty_Neutral>
1.13431e-05

> <r_epik_State_Penalty>
0.0048654

> <r_epik_Charging_Adjusted_Penalty>
0.0114342

> <i_epik_Tot_Q>
1

> <i_epik_Tot_abs_Q>
1

> <r_epik_Metal_State_Penalty>
-0

> <b_epik_Metal_Only>
0

> <s_lp_Force_Field>
OPLS_2005

> <r_lp_Energy>
17.6132

> <b_lp_Chiralities_Consistent>
1

> <s_lp_Variant>
AV-unprocessed.smi:3156-5

> <Gold.Version>
5.8.1

> <Gold.Id.Protein>
6NUR|6NUR_protein|mol2

> <Gold.PLP.Fitness>
47.1878

> <Gold.PLP.PLP>
-41.3760

> <Gold.PLP.part.hbond>
-1.0000

> <Gold.PLP.part.metal>
0.0000

> <Gold.PLP.part.buried>
-1.0902

> <Gold.PLP.part.nonpolar>
-40.5566

> <Gold.PLP.part.repulsive>
0.2224

> <Gold.PLP.ligand.clash>
0.0000

> <Gold.PLP.ligand.torsion>
1.2666

> <Gold.PLP.Chemscore.Hbond>
2.0000

> <Gold.PLP.Chemscore.CHOScore>
0.7565

> <Gold.PLP.Chemscore.Metal>
0.0000

> <Gold.Chemscore.Hbonds>
donor molecule, donor type, donor heavy atom, donor atom, acceptor molecule, acceptor atom, score
      L1  H     3    22       P1  8028  2.00
      L1  C    14    38       P1  7957  0.75

> <Gold.PLP.Chemscore.Internal.Correction>
0.0756

> <Gold.Rescore>
     Score         DG    S(hbond)    S(metal)    S(lipo)     H(rot)  DE(clash)    DE(int)     intcor
     16.39     -17.77       1.00        0.00     111.38       1.59       0.29       1.10       ----

> <Gold.Chemscore.Fitness>
16.3859

> <Gold.Chemscore.DG>
-17.7708

> <Gold.Chemscore.ZeroCoef>
-5.4800

> <Gold.Chemscore.Hbond>
0.9999

> <Gold.Chemscore.Metal>
0.0000

> <Gold.Chemscore.Lipo>
111.3785

> <Gold.Chemscore.Internal_Hbond>
0.0000

> <Gold.Chemscore.DEClash>
0.2888

> <Gold.Chemscore.DEInternal>
1.0961

> <Gold.Chemscore.Rot>
1.5938

> <Gold.Chemscore.Internal.Correction>
   9.000000E+99

> <Gold.Chemscore.Hbonds>
donor molecule, donor type, donor heavy atom, donor atom, acceptor molecule, acceptor atom, score
      L1  H     3    22       P1  8028  1.00

> <Gold.Chemscore.Hbond.Weighted>
-3.3398

> <Gold.Chemscore.Metal.Weighted>
-0.0000

> <Gold.Chemscore.Lipo.Weighted>
-13.0313

> <Gold.Chemscore.Internal_Hbond.Weighted>
0.0000

> <Gold.Chemscore.DEClash.Weighted>
0.2888

> <Gold.Chemscore.DEInternal.Weighted>
1.0961

> <Gold.Chemscore.Rot.Weighted>
4.0802

> <Gold.Chemscore.Internal.Correction.Weighted>
   9.000000E+99

> <Gold.Protein.RotatedTorsions>
[ 6907 6896 6895 6894 ] final  107.39 input  -60.11 | X-H torsion
[ 7974 7965 7964 7962 ] final -156.79 input  175.53 | X-H torsion
[ 8008 7997 7996 7995 ] final   51.24 input   59.86 | X-H torsion
[ 10167 10162 10161 10158 ] final -173.39 input  -65.29 | X-H torsion
[ 10718 10713 10712 10709 ] final  162.50 input   66.30 | X-H torsion
[ 10763 10752 10751 10750 ] final  -90.66 input  -60.55 | X-H torsion
[ 11005 11000 10999 10996 ] final  -59.03 input  -57.11 | X-H torsion

> <Gold.Protein.ActiveResidues>
 VAL166  LYS551  ARG553  GLY616  TRP617  ASP618  TYR619  PRO620  LYS621  CYS622 
 ASP623  PHE694  ASN695  SER759  ASP760  ASP761  ALA762  ILE779  LEU786  VAL792 
 PHE793  MET794  SER795  GLU796  ALA797  LYS798  CYS799  TRP800  GLU811  SER814 

> <Gold.Protein.RotatedAtoms>
  152.5156  133.9242  159.7548 H   0  0  0  0  0  0  0  0  0  0  0  0  # atno 6907 bound_to 6896
  150.9607  133.6440  159.2762 H   0  0  0  0  0  0  0  0  0  0  0  0  # atno 6908 bound_to 6896
  151.3686  135.0923  159.9511 H   0  0  0  0  0  0  0  0  0  0  0  0  # atno 6909 bound_to 6896
  144.7577  140.4060  143.6000 H   0  0  0  0  0  0  0  0  0  0  0  0  # atno 7974 bound_to 7965
  155.4320  140.3451  155.4281 H   0  0  0  0  0  0  0  0  0  0  0  0  # atno 8008 bound_to 7997
  156.1330  140.1520  156.9067 H   0  0  0  0  0  0  0  0  0  0  0  0  # atno 8009 bound_to 7997
  154.4910  140.0841  156.7573 H   0  0  0  0  0  0  0  0  0  0  0  0  # atno 8010 bound_to 7997
  139.5691  144.1684  152.1357 H   0  0  0  0  0  0  0  0  0  0  0  0  # atno 10167 bound_to 10162
  157.1217  131.0494  151.2412 H   0  0  0  0  0  0  0  0  0  0  0  0  # atno 10718 bound_to 10713
  154.6680  135.5296  153.8102 H   0  0  0  0  0  0  0  0  0  0  0  0  # atno 10763 bound_to 10752
  153.0483  135.6522  154.0768 H   0  0  0  0  0  0  0  0  0  0  0  0  # atno 10764 bound_to 10752
  154.0670  135.2957  155.3295 H   0  0  0  0  0  0  0  0  0  0  0  0  # atno 10765 bound_to 10752
  141.1231  133.6614  156.5010 H   0  0  0  0  0  0  0  0  0  0  0  0  # atno 11005 bound_to 11000
  145.6724  139.1602  143.2747 LP  0  0  0  0  0  0  0  0  0  0  0  0  # atno 17320 bound_to 7965
  146.1606  140.6794  142.9279 LP  0  0  0  0  0  0  0  0  0  0  0  0  # atno 17321 bound_to 7965
  140.1213  144.5371  150.6861 LP  0  0  0  0  0  0  0  0  0  0  0  0  # atno 17342 bound_to 10162
  140.6975  143.2413  151.4958 LP  0  0  0  0  0  0  0  0  0  0  0  0  # atno 17343 bound_to 10162
  157.4470  130.7577  149.7118 LP  0  0  0  0  0  0  0  0  0  0  0  0  # atno 17370 bound_to 10713
  155.9827  130.4007  150.3402 LP  0  0  0  0  0  0  0  0  0  0  0  0  # atno 17371 bound_to 10713
  140.4446  134.6984  157.5009 LP  0  0  0  0  0  0  0  0  0  0  0  0  # atno 17394 bound_to 11000
  140.0206  134.6553  155.9245 LP  0  0  0  0  0  0  0  0  0  0  0  0  # atno 17395 bound_to 11000

$$$$
