AV-unprocessed.smi:102|AV-procd|sdf|965|dock4
  -GOLD-   2262017513D 1   1.00000     0.00000
 Structure written by MMmdl.
 43 44  0  0  0  0  0  0  0  0  2 V2000
  153.0913  130.6072  156.4684 C   0  0  0  0  0  0  0  0  0  0  0  0
  151.9837  131.5625  156.8946 C   0  0  0  0  0  0  0  0  0  0  0  0
  152.2037  132.4919  157.6714 O   0  0  0  0  0  0  0  0  0  0  0  0
  150.8009  131.2644  156.3357 O   0  0  0  0  0  0  0  0  0  0  0  0
  149.6848  132.1078  156.5676 C   0  0  0  0  0  0  0  0  0  0  0  0
  149.5527  133.1120  155.4123 C   0  0  2  0  0  0  0  0  0  0  0  0
  150.5539  134.1130  155.5350 O   0  0  0  0  0  0  0  0  0  0  0  0
  150.0579  135.1592  156.3065 C   0  0  1  0  0  0  0  0  0  0  0  0
  150.7502  136.4388  155.9103 N   0  0  0  0  0  0  0  0  0  0  0  0
  150.0353  137.4726  155.3307 C   0  0  0  0  0  0  0  0  0  0  0  0
  150.6343  138.6335  154.9961 C   0  0  0  0  0  0  0  0  0  0  0  0
  149.9154  139.6206  154.4344 F   0  0  0  0  0  0  0  0  0  0  0  0
  152.0622  138.8107  155.2541 C   0  0  0  0  0  0  0  0  0  0  0  0
  152.6057  139.8672  154.9366 O   0  0  0  0  0  0  0  0  0  0  0  0
  152.7358  137.7824  155.8471 N   0  5  0  0  0  0  0  0  0  0  0  0
  152.1317  136.6085  156.1957 C   0  0  0  0  0  0  0  0  0  0  0  0
  152.7250  135.6868  156.7559 O   0  0  0  0  0  0  0  0  0  0  0  0
  148.5587  135.2553  156.0253 C   0  0  2  0  0  0  0  0  0  0  0  0
  147.8498  135.5200  157.2274 O   0  0  0  0  0  0  0  0  0  0  0  0
  148.2563  134.9688  158.3828 C   0  0  0  0  0  0  0  0  0  0  0  0
  147.9029  135.8255  159.5911 C   0  0  0  0  0  0  0  0  0  0  0  0
  148.8568  133.9009  158.5053 O   0  0  0  0  0  0  0  0  0  0  0  0
  148.2203  133.8776  155.4628 C   0  0  1  0  0  0  0  0  0  0  0  0
  147.6541  134.0353  154.1679 O   0  0  0  0  0  0  0  0  0  0  0  0
  147.5060  132.9733  153.3578 C   0  0  0  0  0  0  0  0  0  0  0  0
  146.8030  133.3304  152.0549 C   0  0  0  0  0  0  0  0  0  0  0  0
  147.8833  131.8248  153.5909 O   0  0  0  0  0  0  0  0  0  0  0  0
  152.7005  129.8153  155.8289 H   0  0  0  0  0  0  0  0  0  0  0  0
  153.5502  130.1482  157.3440 H   0  0  0  0  0  0  0  0  0  0  0  0
  153.8617  131.1465  155.9173 H   0  0  0  0  0  0  0  0  0  0  0  0
  148.7857  131.4918  156.6197 H   0  0  0  0  0  0  0  0  0  0  0  0
  149.7836  132.6216  157.5248 H   0  0  0  0  0  0  0  0  0  0  0  0
  149.6705  132.5866  154.4637 H   0  0  0  0  0  0  0  0  0  0  0  0
  150.3043  134.9595  157.3512 H   0  0  0  0  0  0  0  0  0  0  0  0
  148.9775  137.3587  155.1459 H   0  0  0  0  0  0  0  0  0  0  0  0
  148.3921  136.0332  155.2776 H   0  0  0  0  0  0  0  0  0  0  0  0
  146.9237  136.2862  159.4592 H   0  0  0  0  0  0  0  0  0  0  0  0
  148.6432  136.6143  159.7242 H   0  0  0  0  0  0  0  0  0  0  0  0
  147.8776  135.2170  160.4952 H   0  0  0  0  0  0  0  0  0  0  0  0
  147.5111  133.3694  156.1184 H   0  0  0  0  0  0  0  0  0  0  0  0
  145.9864  134.0284  152.2401 H   0  0  0  0  0  0  0  0  0  0  0  0
  146.3919  132.4366  151.5853 H   0  0  0  0  0  0  0  0  0  0  0  0
  147.5056  133.7935  151.3623 H   0  0  0  0  0  0  0  0  0  0  0  0
  1  2  1  0  0  0  0
  1 28  1  0  0  0  0
  1 29  1  0  0  0  0
  1 30  1  0  0  0  0
  2  3  2  0  0  0  0
  2  4  1  0  0  0  0
  4  5  1  0  0  0  0
  5  6  1  0  0  0  0
  5 31  1  0  0  0  0
  5 32  1  0  0  0  0
  6 23  1  0  0  0  0
  6  7  1  0  0  0  0
  6 33  1  0  0  0  0
  7  8  1  0  0  0  0
  8  9  1  0  0  0  0
  8 18  1  0  0  0  0
  8 34  1  0  0  0  0
  9 16  1  0  0  0  0
  9 10  1  0  0  0  0
 10 11  2  0  0  0  0
 10 35  1  0  0  0  0
 11 12  1  0  0  0  0
 11 13  1  0  0  0  0
 13 14  2  0  0  0  0
 13 15  1  0  0  0  0
 15 16  1  0  0  0  0
 16 17  2  0  0  0  0
 18 19  1  0  0  0  0
 18 23  1  0  0  0  0
 18 36  1  0  0  0  0
 19 20  1  0  0  0  0
 20 21  1  0  0  0  0
 20 22  2  0  0  0  0
 21 37  1  0  0  0  0
 21 38  1  0  0  0  0
 21 39  1  0  0  0  0
 23 24  1  0  0  0  0
 23 40  1  0  0  0  0
 24 25  1  0  0  0  0
 25 26  1  0  0  0  0
 25 27  2  0  0  0  0
 26 41  1  0  0  0  0
 26 42  1  0  0  0  0
 26 43  1  0  0  0  0
M  CHG  1  15  -1
M  END
> <s_m_source_file>
AV-unprocessed.smi

> <i_m_source_file_index>
102

> <i_lp_mmshare_version>
43012

> <i_f3d_flags>
0

> <s_epik_input>
W0NIM11DKD1PKU9bQ0gyXVtDQEBIXTFPW0NASF0oW0NAQEhdKE9DKD1PKVtDSDNdKVtDQEhdMU9DKD1PKVtDSDNdKW4yW2NIXWMoRiljKD1PKVtuSF1jMj1P

> <s_epik_cmdline>
J2VwaWtfcHl0aG9uJywgJy1waCcsICc3LjAnLCAnLXRuJywgJzgnLCAnLW1hJywgJzIwMCcsICctbWV0YWxfYmluZGluZycsICctaW1hZScsICc8aW5maWxlLm1hZT4nLCAnLW9tYWUnLCAnPG91dGZpbGUubWFlPic=

> <r_epik_Ionization_Penalty>
1.40304

> <r_epik_Ionization_Penalty_Charging>
1.43915e-08

> <r_epik_Ionization_Penalty_Neutral>
1.40304

> <r_epik_State_Penalty>
1.48536

> <r_epik_Charging_Adjusted_Penalty>
1.48536

> <i_epik_Tot_Q>
-1

> <i_epik_Tot_abs_Q>
1

> <r_epik_Metal_State_Penalty>
0.00663881

> <b_epik_Metal_Only>
0

> <s_epik_Chemistry_Notes>
This compound has an ester and may undergo hydrolysis at high or low pH. This compound contains an acetal/aminal-like group ( X-CH(R)-Y where X, Y are N, S, or O) that may be acid/base labile, releasing an aldehyde.

> <s_lp_Force_Field>
OPLS_2005

> <r_lp_Energy>
22.1455

> <b_lp_Chiralities_Consistent>
1

> <s_lp_Variant>
AV-unprocessed.smi:102-21

> <Gold.Version>
5.8.1

> <Gold.Id.Protein>
6NUR|6NUR_protein|mol2

> <Gold.PLP.Fitness>
41.2025

> <Gold.PLP.PLP>
-30.5354

> <Gold.PLP.part.hbond>
-5.5569

> <Gold.PLP.part.metal>
0.0000

> <Gold.PLP.part.buried>
-1.9366

> <Gold.PLP.part.nonpolar>
-23.8161

> <Gold.PLP.part.repulsive>
0.2827

> <Gold.PLP.ligand.clash>
0.0000

> <Gold.PLP.ligand.torsion>
1.0492

> <Gold.PLP.Chemscore.Hbond>
4.2240

> <Gold.PLP.Chemscore.CHOScore>
0.0000

> <Gold.PLP.Chemscore.Metal>
0.0000

> <Gold.Chemscore.Hbonds>
donor molecule, donor type, donor heavy atom, donor atom, acceptor molecule, acceptor atom, score
      P1  H  6896  6907       L1     3  0.96
      P1  H  6896  6908       L1    22  0.89
      P1  H  7989  7998       L1    14  0.54
      P1  H  7997  8008       L1    14  0.80
      P1  H 10752 10764       L1    17  0.71

> <Gold.PLP.Chemscore.Internal.Correction>
0.0935

> <Gold.Rescore>
     Score         DG    S(hbond)    S(metal)    S(lipo)     H(rot)  DE(clash)    DE(int)     intcor
      5.16     -11.65       3.56        0.00      38.52       4.00       0.01       6.47       ----

> <Gold.Chemscore.Fitness>
5.1628

> <Gold.Chemscore.DG>
-11.6457

> <Gold.Chemscore.ZeroCoef>
-5.4800

> <Gold.Chemscore.Hbond>
3.5587

> <Gold.Chemscore.Metal>
0.0000

> <Gold.Chemscore.Lipo>
38.5222

> <Gold.Chemscore.Internal_Hbond>
0.0000

> <Gold.Chemscore.DEClash>
0.0115

> <Gold.Chemscore.DEInternal>
6.4714

> <Gold.Chemscore.Rot>
3.9951

> <Gold.Chemscore.Internal.Correction>
   9.000000E+99

> <Gold.Chemscore.Hbonds>
donor molecule, donor type, donor heavy atom, donor atom, acceptor molecule, acceptor atom, score
      P1  H  6896  6907       L1     3  0.92
      P1  H  6896  6908       L1    22  0.45
      P1  H  7989  7998       L1    14  0.48
      P1  H  7997  8008       L1    14  0.73
      P1  H 10752 10764       L1    17  0.09

> <Gold.Chemscore.Hbond.Weighted>
-11.8861

> <Gold.Chemscore.Metal.Weighted>
-0.0000

> <Gold.Chemscore.Lipo.Weighted>
-4.5071

> <Gold.Chemscore.Internal_Hbond.Weighted>
0.0000

> <Gold.Chemscore.DEClash.Weighted>
0.0115

> <Gold.Chemscore.DEInternal.Weighted>
6.4714

> <Gold.Chemscore.Rot.Weighted>
10.2274

> <Gold.Chemscore.Internal.Correction.Weighted>
   9.000000E+99

> <Gold.Protein.RotatedTorsions>
[ 6907 6896 6895 6894 ] final  158.49 input  -60.11 | X-H torsion
[ 7974 7965 7964 7962 ] final -145.72 input  175.53 | X-H torsion
[ 8008 7997 7996 7995 ] final  -10.77 input   59.86 | X-H torsion
[ 10167 10162 10161 10158 ] final   77.61 input  -65.29 | X-H torsion
[ 10718 10713 10712 10709 ] final  -99.64 input   66.30 | X-H torsion
[ 10763 10752 10751 10750 ] final   14.81 input  -60.55 | X-H torsion
[ 11005 11000 10999 10996 ] final  -88.44 input  -57.11 | X-H torsion

> <Gold.Protein.ActiveResidues>
 VAL166  LYS551  ARG553  GLY616  TRP617  ASP618  TYR619  PRO620  LYS621  CYS622 
 ASP623  PHE694  ASN695  SER759  ASP760  ASP761  ALA762  ILE779  LEU786  VAL792 
 PHE793  MET794  SER795  GLU796  ALA797  LYS798  CYS799  TRP800  GLU811  SER814 

> <Gold.Protein.RotatedAtoms>
  151.9996  133.3820  159.4176 H   0  0  0  0  0  0  0  0  0  0  0  0  # atno 6907 bound_to 6896
  150.6911  134.3848  159.5059 H   0  0  0  0  0  0  0  0  0  0  0  0  # atno 6908 bound_to 6896
  152.1594  134.8924  160.0593 H   0  0  0  0  0  0  0  0  0  0  0  0  # atno 6909 bound_to 6896
  144.8208  140.5548  143.5579 H   0  0  0  0  0  0  0  0  0  0  0  0  # atno 7974 bound_to 7965
  154.5525  140.2320  155.8463 H   0  0  0  0  0  0  0  0  0  0  0  0  # atno 8008 bound_to 7997
  156.1959  140.3065  155.9387 H   0  0  0  0  0  0  0  0  0  0  0  0  # atno 8009 bound_to 7997
  155.3044  140.0432  157.3022 H   0  0  0  0  0  0  0  0  0  0  0  0  # atno 8010 bound_to 7997
  139.9797  144.5835  150.7911 H   0  0  0  0  0  0  0  0  0  0  0  0  # atno 10167 bound_to 10162
  156.0140  130.5291  150.6700 H   0  0  0  0  0  0  0  0  0  0  0  0  # atno 10718 bound_to 10713
  153.1586  135.6792  153.8776 H   0  0  0  0  0  0  0  0  0  0  0  0  # atno 10763 bound_to 10752
  153.8179  135.3134  155.3408 H   0  0  0  0  0  0  0  0  0  0  0  0  # atno 10764 bound_to 10752
  154.7916  135.4831  154.0153 H   0  0  0  0  0  0  0  0  0  0  0  0  # atno 10765 bound_to 10752
  141.1601  133.7570  156.9452 H   0  0  0  0  0  0  0  0  0  0  0  0  # atno 11005 bound_to 11000
  145.5109  139.1479  143.3605 LP  0  0  0  0  0  0  0  0  0  0  0  0  # atno 17320 bound_to 7965
  146.2513  140.5250  142.8892 LP  0  0  0  0  0  0  0  0  0  0  0  0  # atno 17321 bound_to 7965
  140.7493  143.2937  151.3263 LP  0  0  0  0  0  0  0  0  0  0  0  0  # atno 17342 bound_to 10162
  139.6419  144.0524  152.2561 LP  0  0  0  0  0  0  0  0  0  0  0  0  # atno 17343 bound_to 10162
  157.4424  131.0863  151.0930 LP  0  0  0  0  0  0  0  0  0  0  0  0  # atno 17370 bound_to 10713
  157.1470  130.6167  149.5571 LP  0  0  0  0  0  0  0  0  0  0  0  0  # atno 17371 bound_to 10713
  140.1295  134.9365  157.2316 LP  0  0  0  0  0  0  0  0  0  0  0  0  # atno 17394 bound_to 11000
  140.2971  134.3174  155.7299 LP  0  0  0  0  0  0  0  0  0  0  0  0  # atno 17395 bound_to 11000

$$$$
