AV-unprocessed.smi:107|AV-procd|sdf|1016|dock8
  -GOLD-   2262018 13D 1   1.00000     0.00000
 Structure written by MMmdl.
 31 32  0  0  0  0  0  0  0  0  1 V2000
  151.2641  142.6560  157.5495 C   0  0  0  0  0  0  0  0  0  0  0  0
  151.0421  141.4916  156.5986 C   0  0  0  0  0  0  0  0  0  0  0  0
  150.0984  141.5188  155.6232 C   0  0  0  0  0  0  0  0  0  0  0  0
  149.8690  140.4717  154.7417 N   0  0  0  0  0  0  0  0  0  0  0  0
  148.7987  140.5755  153.6782 C   0  0  1  0  0  0  0  0  0  0  0  0
  147.8096  139.4102  153.7832 C   0  0  0  0  0  0  0  0  0  0  0  0
  146.5878  140.0746  154.3896 C   0  0  2  0  0  0  0  0  0  0  0  0
  145.4013  139.4274  153.9772 O   0  0  0  0  0  0  0  0  0  0  0  0
  146.6903  141.5044  153.8528 C   0  0  1  0  0  0  0  0  0  0  0  0
  145.9556  142.5400  154.7172 C   0  0  0  0  0  0  0  0  0  0  0  0
  144.5659  142.2939  154.6876 O   0  0  0  0  0  0  0  0  0  0  0  0
  148.0912  141.7627  153.8762 O   0  0  0  0  0  0  0  0  0  0  0  0
  150.6418  139.2961  154.8501 C   0  0  0  0  0  0  0  0  0  0  0  0
  150.4859  138.3175  154.1208 O   0  0  0  0  0  0  0  0  0  0  0  0
  151.6141  139.2693  155.8486 N   0  0  0  0  0  0  0  0  0  0  0  0
  151.8818  140.3007  156.7521 C   0  0  0  0  0  0  0  0  0  0  0  0
  152.7689  140.1573  157.5918 O   0  0  0  0  0  0  0  0  0  0  0  0
  152.1709  138.4310  155.9277 H   0  0  0  0  0  0  0  0  0  0  0  0
  150.5942  143.4884  157.3331 H   0  0  0  0  0  0  0  0  0  0  0  0
  152.2882  143.0223  157.4716 H   0  0  0  0  0  0  0  0  0  0  0  0
  151.0887  142.3448  158.5799 H   0  0  0  0  0  0  0  0  0  0  0  0
  149.4927  142.4078  155.5308 H   0  0  0  0  0  0  0  0  0  0  0  0
  149.2940  140.6272  152.7078 H   0  0  0  0  0  0  0  0  0  0  0  0
  147.6032  139.0486  152.7747 H   0  0  0  0  0  0  0  0  0  0  0  0
  148.2021  138.5846  154.3789 H   0  0  0  0  0  0  0  0  0  0  0  0
  146.6562  140.0633  155.4780 H   0  0  0  0  0  0  0  0  0  0  0  0
  145.0028  139.9378  153.2887 H   0  0  0  0  0  0  0  0  0  0  0  0
  146.3425  141.5321  152.8179 H   0  0  0  0  0  0  0  0  0  0  0  0
  146.2789  142.4602  155.7555 H   0  0  0  0  0  0  0  0  0  0  0  0
  146.1707  143.5571  154.3878 H   0  0  0  0  0  0  0  0  0  0  0  0
  144.4060  141.5358  154.1466 H   0  0  0  0  0  0  0  0  0  0  0  0
  1  2  1  0  0  0  0
  1 19  1  0  0  0  0
  1 20  1  0  0  0  0
  1 21  1  0  0  0  0
  2 16  1  0  0  0  0
  2  3  2  0  0  0  0
  3  4  1  0  0  0  0
  3 22  1  0  0  0  0
  4  5  1  0  0  0  0
  4 13  1  0  0  0  0
  5 12  1  0  0  0  0
  5  6  1  0  0  0  0
  5 23  1  0  0  0  0
  6  7  1  0  0  0  0
  6 24  1  0  0  0  0
  6 25  1  0  0  0  0
  7  8  1  0  0  0  0
  7  9  1  0  0  0  0
  7 26  1  0  0  0  0
  8 27  1  0  0  0  0
  9 10  1  0  0  0  0
  9 12  1  0  0  0  0
  9 28  1  0  0  0  0
 10 11  1  0  0  0  0
 10 29  1  0  0  0  0
 10 30  1  0  0  0  0
 11 31  1  0  0  0  0
 13 14  2  0  0  0  0
 13 15  1  0  0  0  0
 15 18  1  0  0  0  0
 15 16  1  0  0  0  0
 16 17  2  0  0  0  0
M  END
> <s_m_source_file>
AV-unprocessed.smi

> <i_m_source_file_index>
107

> <i_lp_mmshare_version>
43012

> <i_f3d_flags>
0

> <s_epik_input>
Tz1jMVtuSF1jKD1PKW4oW2NIXWMxW0NIM10pW0NAQEhdMltDSDJdW0NAQEhdKFtPSF0pW0NASF0oTzIpW0NIMl1bT0hd

> <s_epik_cmdline>
J2VwaWtfcHl0aG9uJywgJy1waCcsICc3LjAnLCAnLXRuJywgJzgnLCAnLW1hJywgJzIwMCcsICctbWV0YWxfYmluZGluZycsICctaW1hZScsICc8aW5maWxlLm1hZT4nLCAnLW9tYWUnLCAnPG91dGZpbGUubWFlPic=

> <r_lp_tautomer_probability>
0.999537

> <r_epik_Ionization_Penalty>
0.00121888

> <r_epik_Ionization_Penalty_Charging>
0.00121876

> <r_epik_Ionization_Penalty_Neutral>
1.19946e-07

> <r_epik_State_Penalty>
0.000805124

> <r_epik_Charging_Adjusted_Penalty>
0.00202389

> <i_epik_Tot_Q>
0

> <i_epik_Tot_abs_Q>
0

> <r_epik_Metal_State_Penalty>
0.662472

> <b_epik_Metal_Only>
0

> <s_epik_Chemistry_Notes>
This compound contains an acetal/aminal-like group ( X-CH(R)-Y where X, Y are N, S, or O) that may be acid/base labile, releasing an aldehyde.

> <s_lp_Force_Field>
OPLS_2005

> <r_lp_Energy>
24.9253

> <b_lp_Chiralities_Consistent>
1

> <s_lp_Variant>
AV-unprocessed.smi:107-4

> <Gold.Version>
5.8.1

> <Gold.Id.Protein>
6NUR|6NUR_protein|mol2

> <Gold.PLP.Fitness>
39.4844

> <Gold.PLP.PLP>
-27.7319

> <Gold.PLP.part.hbond>
-4.3518

> <Gold.PLP.part.metal>
0.0000

> <Gold.PLP.part.buried>
1.7869

> <Gold.PLP.part.nonpolar>
-25.2594

> <Gold.PLP.part.repulsive>
0.5285

> <Gold.PLP.ligand.clash>
0.0000

> <Gold.PLP.ligand.torsion>
0.0663

> <Gold.PLP.Chemscore.Hbond>
2.9588

> <Gold.PLP.Chemscore.CHOScore>
1.0000

> <Gold.PLP.Chemscore.Metal>
0.0000

> <Gold.Chemscore.Hbonds>
donor molecule, donor type, donor heavy atom, donor atom, acceptor molecule, acceptor atom, score
      L1  H     8    27       P1 10175  1.00
      L1  H    11    31       P1 10175  0.89
      P1  H  7997  8008       L1    17  1.00
      L1  C     3    22       P1  8028  1.00

> <Gold.PLP.Chemscore.Internal.Correction>
0.0089

> <Gold.Rescore>
     Score         DG    S(hbond)    S(metal)    S(lipo)     H(rot)  DE(clash)    DE(int)     intcor
      9.49     -12.07       2.61        0.00      41.42       2.73       1.32       1.26       ----

> <Gold.Chemscore.Fitness>
9.4918

> <Gold.Chemscore.DG>
-12.0743

> <Gold.Chemscore.ZeroCoef>
-5.4800

> <Gold.Chemscore.Hbond>
2.6124

> <Gold.Chemscore.Metal>
0.0000

> <Gold.Chemscore.Lipo>
41.4152

> <Gold.Chemscore.Internal_Hbond>
0.0000

> <Gold.Chemscore.DEClash>
1.3202

> <Gold.Chemscore.DEInternal>
1.2623

> <Gold.Chemscore.Rot>
2.7253

> <Gold.Chemscore.Internal.Correction>
   9.000000E+99

> <Gold.Chemscore.Hbonds>
donor molecule, donor type, donor heavy atom, donor atom, acceptor molecule, acceptor atom, score
      L1  H     8    27       P1 10175  0.95
      L1  H    11    31       P1 10175  0.22
      P1  H  7997  8008       L1    17  0.81

> <Gold.Chemscore.Hbond.Weighted>
-8.7255

> <Gold.Chemscore.Metal.Weighted>
-0.0000

> <Gold.Chemscore.Lipo.Weighted>
-4.8456

> <Gold.Chemscore.Internal_Hbond.Weighted>
0.0000

> <Gold.Chemscore.DEClash.Weighted>
1.3202

> <Gold.Chemscore.DEInternal.Weighted>
1.2623

> <Gold.Chemscore.Rot.Weighted>
6.9769

> <Gold.Chemscore.Internal.Correction.Weighted>
   9.000000E+99

> <Gold.Protein.RotatedTorsions>
[ 6907 6896 6895 6894 ] final   20.03 input  -60.11 | X-H torsion
[ 7974 7965 7964 7962 ] final  137.93 input  175.53 | X-H torsion
[ 8008 7997 7996 7995 ] final  -72.37 input   59.86 | X-H torsion
[ 10167 10162 10161 10158 ] final  169.71 input  -65.29 | X-H torsion
[ 10718 10713 10712 10709 ] final  169.30 input   66.30 | X-H torsion
[ 10763 10752 10751 10750 ] final -145.49 input  -60.55 | X-H torsion
[ 11005 11000 10999 10996 ] final    2.39 input  -57.11 | X-H torsion

> <Gold.Protein.ActiveResidues>
 VAL166  LYS551  ARG553  GLY616  TRP617  ASP618  TYR619  PRO620  LYS621  CYS622 
 ASP623  PHE694  ASN695  SER759  ASP760  ASP761  ALA762  ILE779  LEU786  VAL792 
 PHE793  MET794  SER795  GLU796  ALA797  LYS798  CYS799  TRP800  GLU811  SER814 

> <Gold.Protein.RotatedAtoms>
  151.8901  135.0420  160.0496 H   0  0  0  0  0  0  0  0  0  0  0  0  # atno 6907 bound_to 6896
  152.2443  133.5157  159.5296 H   0  0  0  0  0  0  0  0  0  0  0  0  # atno 6908 bound_to 6896
  150.7063  134.0963  159.3992 H   0  0  0  0  0  0  0  0  0  0  0  0  # atno 6909 bound_to 6896
  144.9421  139.4919  143.5567 H   0  0  0  0  0  0  0  0  0  0  0  0  # atno 7974 bound_to 7965
  154.5161  140.0798  156.8083 H   0  0  0  0  0  0  0  0  0  0  0  0  # atno 8008 bound_to 7997
  155.3678  140.3421  155.4224 H   0  0  0  0  0  0  0  0  0  0  0  0  # atno 8009 bound_to 7997
  156.1629  140.1594  156.8569 H   0  0  0  0  0  0  0  0  0  0  0  0  # atno 8010 bound_to 7997
  139.4999  144.3676  151.9759 H   0  0  0  0  0  0  0  0  0  0  0  0  # atno 10167 bound_to 10162
  157.0247  131.0242  151.2763 H   0  0  0  0  0  0  0  0  0  0  0  0  # atno 10718 bound_to 10713
  154.8381  135.3412  154.6512 H   0  0  0  0  0  0  0  0  0  0  0  0  # atno 10763 bound_to 10752
  153.7125  135.6963  153.5038 H   0  0  0  0  0  0  0  0  0  0  0  0  # atno 10764 bound_to 10752
  153.2441  135.4375  155.0682 H   0  0  0  0  0  0  0  0  0  0  0  0  # atno 10765 bound_to 10752
  140.6048  133.9802  155.8149 H   0  0  0  0  0  0  0  0  0  0  0  0  # atno 11005 bound_to 11000
  146.3289  139.8447  142.8884 LP  0  0  0  0  0  0  0  0  0  0  0  0  # atno 17320 bound_to 7965
  145.2975  141.0185  143.3627 LP  0  0  0  0  0  0  0  0  0  0  0  0  # atno 17321 bound_to 7965
  140.3112  144.3535  150.6033 LP  0  0  0  0  0  0  0  0  0  0  0  0  # atno 17342 bound_to 10162
  140.5797  143.2173  151.7451 LP  0  0  0  0  0  0  0  0  0  0  0  0  # atno 17343 bound_to 10162
  157.5223  130.8006  149.7823 LP  0  0  0  0  0  0  0  0  0  0  0  0  # atno 17370 bound_to 10713
  156.0090  130.3842  150.2330 LP  0  0  0  0  0  0  0  0  0  0  0  0  # atno 17371 bound_to 10713
  141.0848  134.0007  157.3331 LP  0  0  0  0  0  0  0  0  0  0  0  0  # atno 17394 bound_to 11000
  139.9217  135.0200  156.8088 LP  0  0  0  0  0  0  0  0  0  0  0  0  # atno 17395 bound_to 11000

$$$$
