AV-unprocessed.smi:2294|AV-procd|sdf|9216|dock1
  -GOLD-   2272012433D 1   1.00000     0.00000
 Structure written by MMmdl.
 34 35  0  0  0  0  0  0  0  0  1 V2000
  152.8988  143.1578  162.1769 C   0  0  0  0  0  0  0  0  0  0  0  0
  152.4819  142.6210  160.8192 C   0  0  0  0  0  0  0  0  0  0  0  0
  151.4161  143.2876  160.2081 N   0  0  0  0  0  0  0  0  0  0  0  0
  150.9929  142.8998  159.0497 C   0  0  0  0  0  0  0  0  0  0  0  0
  151.5787  141.8163  158.3734 N   0  0  0  0  0  0  0  0  0  0  0  0
  151.0002  141.4753  157.0621 C   0  0  0  0  0  0  0  0  0  0  0  0
  149.5937  140.8475  157.1850 C   0  0  2  0  0  0  0  0  0  0  0  0
  149.7264  139.4944  157.5753 O   0  0  0  0  0  0  0  0  0  0  0  0
  148.8275  140.9798  155.8746 C   0  0  0  0  0  0  0  0  0  0  0  0
  147.6208  141.7139  155.8196 C   0  0  0  0  0  0  0  0  0  0  0  0
  146.9093  141.8260  154.6096 C   0  0  0  0  0  0  0  0  0  0  0  0
  147.3960  141.2015  153.4459 C   0  0  0  0  0  0  0  0  0  0  0  0
  148.5925  140.4615  153.4946 C   0  0  0  0  0  0  0  0  0  0  0  0
  149.3058  140.3476  154.7040 C   0  0  0  0  0  0  0  0  0  0  0  0
  150.4499  139.6224  154.7339 F   0  0  0  0  0  0  0  0  0  0  0  0
  152.6200  141.1091  158.9000 C   0  0  0  0  0  0  0  0  0  0  0  0
  153.1264  140.1579  158.3023 O   0  0  0  0  0  0  0  0  0  0  0  0
  153.0905  141.5615  160.2196 C   0  0  0  0  0  0  0  0  0  0  0  0
  154.2539  140.7964  160.8389 C   0  0  0  0  0  0  0  0  0  0  0  0
  152.7859  142.3898  162.9425 H   0  0  0  0  0  0  0  0  0  0  0  0
  152.2898  144.0140  162.4695 H   0  0  0  0  0  0  0  0  0  0  0  0
  153.9397  143.4812  162.1573 H   0  0  0  0  0  0  0  0  0  0  0  0
  150.1607  143.3809  158.5322 H   0  0  0  0  0  0  0  0  0  0  0  0
  150.9297  142.3920  156.4724 H   0  0  0  0  0  0  0  0  0  0  0  0
  151.6586  140.8327  156.4743 H   0  0  0  0  0  0  0  0  0  0  0  0
  149.0258  141.3504  157.9685 H   0  0  0  0  0  0  0  0  0  0  0  0
  150.6409  139.2590  157.5360 H   0  0  0  0  0  0  0  0  0  0  0  0
  147.2330  142.1925  156.7070 H   0  0  0  0  0  0  0  0  0  0  0  0
  145.9889  142.3901  154.5752 H   0  0  0  0  0  0  0  0  0  0  0  0
  146.8502  141.2871  152.5177 H   0  0  0  0  0  0  0  0  0  0  0  0
  148.9635  139.9780  152.6029 H   0  0  0  0  0  0  0  0  0  0  0  0
  155.1258  140.8447  160.1861 H   0  0  0  0  0  0  0  0  0  0  0  0
  153.9872  139.7471  160.9703 H   0  0  0  0  0  0  0  0  0  0  0  0
  154.5526  141.1820  161.8122 H   0  0  0  0  0  0  0  0  0  0  0  0
  1  2  1  0  0  0  0
  1 20  1  0  0  0  0
  1 21  1  0  0  0  0
  1 22  1  0  0  0  0
  2 18  2  0  0  0  0
  2  3  1  0  0  0  0
  3  4  2  0  0  0  0
  4  5  1  0  0  0  0
  4 23  1  0  0  0  0
  5  6  1  0  0  0  0
  5 16  1  0  0  0  0
  6  7  1  0  0  0  0
  6 24  1  0  0  0  0
  6 25  1  0  0  0  0
  7  8  1  0  0  0  0
  7  9  1  0  0  0  0
  7 26  1  0  0  0  0
  8 27  1  0  0  0  0
  9 14  1  0  0  0  0
  9 10  2  0  0  0  0
 10 11  1  0  0  0  0
 10 28  1  0  0  0  0
 11 12  2  0  0  0  0
 11 29  1  0  0  0  0
 12 13  1  0  0  0  0
 12 30  1  0  0  0  0
 13 14  2  0  0  0  0
 13 31  1  0  0  0  0
 14 15  1  0  0  0  0
 16 17  2  0  0  0  0
 16 18  1  0  0  0  0
 18 19  1  0  0  0  0
 19 32  1  0  0  0  0
 19 33  1  0  0  0  0
 19 34  1  0  0  0  0
M  END
> <s_m_source_file>
AV-unprocessed.smi

> <i_m_source_file_index>
2294

> <i_lp_mmshare_version>
43012

> <i_f3d_flags>
0

> <s_epik_input>
W0NIM11jMW5bY0hdbihjKD1PKWMxW0NIM10pW0NIMl1bQ0BIXShbT0hdKWMyW2NIXVtjSF1bY0hdW2NIXWMyRg==

> <s_epik_cmdline>
J2VwaWtfcHl0aG9uJywgJy1waCcsICc3LjAnLCAnLXRuJywgJzgnLCAnLW1hJywgJzIwMCcsICctbWV0YWxfYmluZGluZycsICctaW1hZScsICc8aW5maWxlLm1hZT4nLCAnLW9tYWUnLCAnPG91dGZpbGUubWFlPic=

> <r_lp_tautomer_probability>
1

> <r_epik_Ionization_Penalty>
5.07259e-05

> <r_epik_Ionization_Penalty_Charging>
7.56727e-08

> <r_epik_Ionization_Penalty_Neutral>
5.06502e-05

> <r_epik_State_Penalty>
-0

> <r_epik_Charging_Adjusted_Penalty>
7.56727e-08

> <i_epik_Tot_Q>
0

> <i_epik_Tot_abs_Q>
0

> <r_epik_Metal_State_Penalty>
-0

> <b_epik_Metal_Only>
0

> <s_lp_Force_Field>
OPLS_2005

> <r_lp_Energy>
20.4384

> <b_lp_Chiralities_Consistent>
1

> <s_lp_Variant>
AV-unprocessed.smi:2294-1

> <Gold.Version>
5.8.1

> <Gold.Id.Protein>
6NUR|6NUR_protein|mol2

> <Gold.PLP.Fitness>
41.0639

> <Gold.PLP.PLP>
-38.6597

> <Gold.PLP.part.hbond>
-1.3321

> <Gold.PLP.part.metal>
0.0000

> <Gold.PLP.part.buried>
-0.0743

> <Gold.PLP.part.nonpolar>
-35.8654

> <Gold.PLP.part.repulsive>
0.0536

> <Gold.PLP.ligand.clash>
0.0000

> <Gold.PLP.ligand.torsion>
0.2928

> <Gold.PLP.Chemscore.Hbond>
0.9920

> <Gold.PLP.Chemscore.CHOScore>
0.0000

> <Gold.PLP.Chemscore.Metal>
0.0000

> <Gold.Chemscore.Hbonds>
donor molecule, donor type, donor heavy atom, donor atom, acceptor molecule, acceptor atom, score
      P1  H  7997  8010       L1    17  0.99

> <Gold.PLP.Chemscore.Internal.Correction>
0.0138

> <Gold.Rescore>
     Score         DG    S(hbond)    S(metal)    S(lipo)     H(rot)  DE(clash)    DE(int)     intcor
     10.77     -13.90       0.95        0.00      89.10       2.02       1.53       1.60       ----

> <Gold.Chemscore.Fitness>
10.7685

> <Gold.Chemscore.DG>
-13.8971

> <Gold.Chemscore.ZeroCoef>
-5.4800

> <Gold.Chemscore.Hbond>
0.9459

> <Gold.Chemscore.Metal>
0.0000

> <Gold.Chemscore.Lipo>
89.0961

> <Gold.Chemscore.Internal_Hbond>
0.0000

> <Gold.Chemscore.DEClash>
1.5252

> <Gold.Chemscore.DEInternal>
1.6034

> <Gold.Chemscore.Rot>
2.0181

> <Gold.Chemscore.Internal.Correction>
   9.000000E+99

> <Gold.Chemscore.Hbonds>
donor molecule, donor type, donor heavy atom, donor atom, acceptor molecule, acceptor atom, score
      P1  H  7997  8010       L1    17  0.93

> <Gold.Chemscore.Hbond.Weighted>
-3.1592

> <Gold.Chemscore.Metal.Weighted>
-0.0000

> <Gold.Chemscore.Lipo.Weighted>
-10.4242

> <Gold.Chemscore.Internal_Hbond.Weighted>
0.0000

> <Gold.Chemscore.DEClash.Weighted>
1.5252

> <Gold.Chemscore.DEInternal.Weighted>
1.6034

> <Gold.Chemscore.Rot.Weighted>
5.1663

> <Gold.Chemscore.Internal.Correction.Weighted>
   9.000000E+99

> <Gold.Protein.RotatedTorsions>
[ 6907 6896 6895 6894 ] final  -49.47 input  -60.11 | X-H torsion
[ 7974 7965 7964 7962 ] final  143.32 input  175.53 | X-H torsion
[ 8008 7997 7996 7995 ] final   37.50 input   59.86 | X-H torsion
[ 10167 10162 10161 10158 ] final  152.81 input  -65.29 | X-H torsion
[ 10718 10713 10712 10709 ] final -141.69 input   66.30 | X-H torsion
[ 10763 10752 10751 10750 ] final  -33.70 input  -60.55 | X-H torsion
[ 11005 11000 10999 10996 ] final  -17.60 input  -57.11 | X-H torsion

> <Gold.Protein.ActiveResidues>
 VAL166  LYS551  ARG553  GLY616  TRP617  ASP618  TYR619  PRO620  LYS621  CYS622 
 ASP623  PHE694  ASN695  SER759  ASP760  ASP761  ALA762  ILE779  LEU786  VAL792 
 PHE793  MET794  SER795  GLU796  ALA797  LYS798  CYS799  TRP800  GLU811  SER814 

> <Gold.Protein.RotatedAtoms>
  150.8802  134.8192  159.7219 H   0  0  0  0  0  0  0  0  0  0  0  0  # atno 6907 bound_to 6896
  152.4773  134.4808  159.9675 H   0  0  0  0  0  0  0  0  0  0  0  0  # atno 6908 bound_to 6896
  151.4884  133.3492  159.2885 H   0  0  0  0  0  0  0  0  0  0  0  0  # atno 6909 bound_to 6896
  144.8931  139.5529  143.5789 H   0  0  0  0  0  0  0  0  0  0  0  0  # atno 7974 bound_to 7965
  155.2047  140.3318  155.4338 H   0  0  0  0  0  0  0  0  0  0  0  0  # atno 8008 bound_to 7997
  156.2393  140.1887  156.7081 H   0  0  0  0  0  0  0  0  0  0  0  0  # atno 8009 bound_to 7997
  154.6118  140.0608  156.9489 H   0  0  0  0  0  0  0  0  0  0  0  0  # atno 8010 bound_to 7997
  139.4830  144.5326  151.7698 H   0  0  0  0  0  0  0  0  0  0  0  0  # atno 10167 bound_to 10162
  156.3371  130.7617  151.1746 H   0  0  0  0  0  0  0  0  0  0  0  0  # atno 10718 bound_to 10713
  153.8345  135.6863  153.4810 H   0  0  0  0  0  0  0  0  0  0  0  0  # atno 10763 bound_to 10752
  153.1490  135.4626  154.9607 H   0  0  0  0  0  0  0  0  0  0  0  0  # atno 10764 bound_to 10752
  154.7872  135.3289  154.7805 H   0  0  0  0  0  0  0  0  0  0  0  0  # atno 10765 bound_to 10752
  140.8184  133.8087  155.9634 H   0  0  0  0  0  0  0  0  0  0  0  0  # atno 11005 bound_to 11000
  146.3065  139.7599  142.9052 LP  0  0  0  0  0  0  0  0  0  0  0  0  # atno 17320 bound_to 7965
  145.3748  141.0348  143.3211 LP  0  0  0  0  0  0  0  0  0  0  0  0  # atno 17321 bound_to 7965
  140.4854  144.1388  150.5940 LP  0  0  0  0  0  0  0  0  0  0  0  0  # atno 17342 bound_to 10162
  140.4231  143.2602  151.9691 LP  0  0  0  0  0  0  0  0  0  0  0  0  # atno 17343 bound_to 10162
  157.7440  131.0465  150.4897 LP  0  0  0  0  0  0  0  0  0  0  0  0  # atno 17370 bound_to 10713
  156.5071  130.4130  149.6321 LP  0  0  0  0  0  0  0  0  0  0  0  0  # atno 17371 bound_to 10713
  140.9124  134.2243  157.4977 LP  0  0  0  0  0  0  0  0  0  0  0  0  # atno 17394 bound_to 11000
  139.8710  134.9756  156.4890 LP  0  0  0  0  0  0  0  0  0  0  0  0  # atno 17395 bound_to 11000

$$$$
