AV-unprocessed.smi:3111|AV-procd|sdf|11834|dock4
  -GOLD-   2272017203D 1   1.00000     0.00000
 Structure written by MMmdl.
 30 30  0  0  0  0  0  0  0  0  2 V2000
  148.7691  132.9786  152.7496 C   0  0  0  0  0  0  0  0  0  0  0  0
  148.2955  134.1627  153.4497 N   0  0  0  0  0  0  0  0  0  0  0  0
  147.4215  134.1387  154.4654 C   0  0  0  0  0  0  0  0  0  0  0  0
  146.9390  133.0976  154.9139 O   0  0  0  0  0  0  0  0  0  0  0  0
  147.0578  135.4984  155.0754 C   0  0  0  0  0  0  0  0  0  0  0  0
  147.7392  136.6136  154.4220 N   0  0  0  0  0  0  0  0  0  0  0  0
  147.5901  137.9076  154.7482 C   0  0  0  0  0  0  0  0  0  0  0  0
  146.8232  138.2953  155.6304 O   0  0  0  0  0  0  0  0  0  0  0  0
  148.4305  138.9157  153.9496 C   0  0  2  0  0  0  0  0  0  0  0  0
  149.9444  138.7139  154.1522 C   0  0  0  0  0  0  0  0  0  0  0  0
  148.0182  140.2957  154.2548 N   0  0  0  0  0  0  0  0  0  0  0  0
  146.7547  140.8203  154.1461 C   0  0  0  0  0  0  0  0  0  0  0  0
  146.8361  142.1302  154.5429 C   0  0  0  0  0  0  0  0  0  0  0  0
  148.1438  142.3521  154.8812 N   0  3  0  0  0  0  0  0  0  0  0  0
  148.8606  141.2372  154.7075 C   0  0  0  0  0  0  0  0  0  0  0  0
  149.4278  133.2687  151.9307 H   0  0  0  0  0  0  0  0  0  0  0  0
  147.9354  132.4126  152.3315 H   0  0  0  0  0  0  0  0  0  0  0  0
  149.3286  132.3288  153.4238 H   0  0  0  0  0  0  0  0  0  0  0  0
  148.6518  135.0557  153.1408 H   0  0  0  0  0  0  0  0  0  0  0  0
  145.9827  135.6464  154.9729 H   0  0  0  0  0  0  0  0  0  0  0  0
  147.2737  135.5000  156.1455 H   0  0  0  0  0  0  0  0  0  0  0  0
  148.3933  136.3785  153.6897 H   0  0  0  0  0  0  0  0  0  0  0  0
  148.2209  138.7541  152.8906 H   0  0  0  0  0  0  0  0  0  0  0  0
  150.2434  137.6984  153.8896 H   0  0  0  0  0  0  0  0  0  0  0  0
  150.2481  138.8902  155.1847 H   0  0  0  0  0  0  0  0  0  0  0  0
  150.5151  139.3948  153.5200 H   0  0  0  0  0  0  0  0  0  0  0  0
  145.9117  140.2382  153.8025 H   0  0  0  0  0  0  0  0  0  0  0  0
  146.0811  142.9001  154.6093 H   0  0  0  0  0  0  0  0  0  0  0  0
  149.9129  141.1197  154.8982 H   0  0  0  0  0  0  0  0  0  0  0  0
  148.5172  143.2313  155.2165 H   0  0  0  0  0  0  0  0  0  0  0  0
  1  2  1  0  0  0  0
  1 16  1  0  0  0  0
  1 17  1  0  0  0  0
  1 18  1  0  0  0  0
  2  3  1  0  0  0  0
  2 19  1  0  0  0  0
  3  4  2  0  0  0  0
  3  5  1  0  0  0  0
  5  6  1  0  0  0  0
  5 20  1  0  0  0  0
  5 21  1  0  0  0  0
  6  7  1  0  0  0  0
  6 22  1  0  0  0  0
  7  8  2  0  0  0  0
  7  9  1  0  0  0  0
  9 10  1  0  0  0  0
  9 11  1  0  0  0  0
  9 23  1  0  0  0  0
 10 24  1  0  0  0  0
 10 25  1  0  0  0  0
 10 26  1  0  0  0  0
 11 15  1  0  0  0  0
 11 12  1  0  0  0  0
 12 13  2  0  0  0  0
 12 27  1  0  0  0  0
 13 14  1  0  0  0  0
 13 28  1  0  0  0  0
 14 15  2  0  0  0  0
 14 30  1  0  0  0  0
 15 29  1  0  0  0  0
M  CHG  1  14   1
M  END
> <s_m_source_file>
AV-unprocessed.smi

> <i_m_source_file_index>
3111

> <i_lp_mmshare_version>
43012

> <i_f3d_flags>
0

> <s_epik_input>
W0NIM11bTkhdQyg9TylbQ0gyXVtOSF1DKD1PKVtDQEhdKFtDSDNdKW4xW2NIXVtjSF1uW2NIXTE=

> <s_epik_cmdline>
J2VwaWtfcHl0aG9uJywgJy1waCcsICc3LjAnLCAnLXRuJywgJzgnLCAnLW1hJywgJzIwMCcsICctbWV0YWxfYmluZGluZycsICctaW1hZScsICc8aW5maWxlLm1hZT4nLCAnLW9tYWUnLCAnPG91dGZpbGUubWFlPic=

> <r_lp_tautomer_probability>
1

> <r_epik_Ionization_Penalty>
0.581414

> <r_epik_Ionization_Penalty_Charging>
0

> <r_epik_Ionization_Penalty_Neutral>
0.581414

> <r_epik_State_Penalty>
0.594207

> <r_epik_Charging_Adjusted_Penalty>
0.594207

> <i_epik_Tot_Q>
1

> <i_epik_Tot_abs_Q>
1

> <r_epik_Metal_State_Penalty>
0.784638

> <b_epik_Metal_Only>
0

> <s_lp_Force_Field>
OPLS_2005

> <r_lp_Energy>
6.41512

> <b_lp_Chiralities_Consistent>
1

> <s_lp_Variant>
AV-unprocessed.smi:3111-3

> <Gold.Version>
5.8.1

> <Gold.Id.Protein>
6NUR|6NUR_protein|mol2

> <Gold.PLP.Fitness>
38.4885

> <Gold.PLP.PLP>
-23.6426

> <Gold.PLP.part.hbond>
-3.0000

> <Gold.PLP.part.metal>
0.0000

> <Gold.PLP.part.buried>
-1.7254

> <Gold.PLP.part.nonpolar>
-19.1236

> <Gold.PLP.part.repulsive>
0.2956

> <Gold.PLP.ligand.clash>
0.0000

> <Gold.PLP.ligand.torsion>
0.1068

> <Gold.PLP.Chemscore.Hbond>
3.9920

> <Gold.PLP.Chemscore.CHOScore>
1.0000

> <Gold.PLP.Chemscore.Metal>
0.0000

> <Gold.Chemscore.Hbonds>
donor molecule, donor type, donor heavy atom, donor atom, acceptor molecule, acceptor atom, score
      L1  H     2    19       P1  7948  0.99
      L1  H     6    22       P1  7948  1.00
      L1  H    14    30       P1  8028  2.00
      L1  C    12    27       P1 10175  0.82

> <Gold.PLP.Chemscore.Internal.Correction>
0.0835

> <Gold.Rescore>
     Score         DG    S(hbond)    S(metal)    S(lipo)     H(rot)  DE(clash)    DE(int)     intcor
     13.00     -13.50       2.96        0.00      35.11       2.33       0.07       0.44       ----

> <Gold.Chemscore.Fitness>
13.0008

> <Gold.Chemscore.DG>
-13.5046

> <Gold.Chemscore.ZeroCoef>
-5.4800

> <Gold.Chemscore.Hbond>
2.9595

> <Gold.Chemscore.Metal>
0.0000

> <Gold.Chemscore.Lipo>
35.1078

> <Gold.Chemscore.Internal_Hbond>
0.0000

> <Gold.Chemscore.DEClash>
0.0666

> <Gold.Chemscore.DEInternal>
0.4372

> <Gold.Chemscore.Rot>
2.3311

> <Gold.Chemscore.Internal.Correction>
   9.000000E+99

> <Gold.Chemscore.Hbonds>
donor molecule, donor type, donor heavy atom, donor atom, acceptor molecule, acceptor atom, score
      L1  H     2    19       P1  7948  0.57
      L1  H     6    22       P1  7948  0.98
      L1  H    14    30       P1  8028  0.97

> <Gold.Chemscore.Hbond.Weighted>
-9.8846

> <Gold.Chemscore.Metal.Weighted>
-0.0000

> <Gold.Chemscore.Lipo.Weighted>
-4.1076

> <Gold.Chemscore.Internal_Hbond.Weighted>
0.0000

> <Gold.Chemscore.DEClash.Weighted>
0.0666

> <Gold.Chemscore.DEInternal.Weighted>
0.4372

> <Gold.Chemscore.Rot.Weighted>
5.9676

> <Gold.Chemscore.Internal.Correction.Weighted>
   9.000000E+99

> <Gold.Protein.RotatedTorsions>
[ 6907 6896 6895 6894 ] final  -59.24 input  -60.11 | X-H torsion
[ 7974 7965 7964 7962 ] final   17.58 input  175.53 | X-H torsion
[ 8008 7997 7996 7995 ] final -129.18 input   59.86 | X-H torsion
[ 10167 10162 10161 10158 ] final  -81.55 input  -65.29 | X-H torsion
[ 10718 10713 10712 10709 ] final -123.39 input   66.30 | X-H torsion
[ 10763 10752 10751 10750 ] final  -58.63 input  -60.55 | X-H torsion
[ 11005 11000 10999 10996 ] final  -71.47 input  -57.11 | X-H torsion

> <Gold.Protein.ActiveResidues>
 VAL166  LYS551  ARG553  GLY616  TRP617  ASP618  TYR619  PRO620  LYS621  CYS622 
 ASP623  PHE694  ASN695  SER759  ASP760  ASP761  ALA762  ILE779  LEU786  VAL792 
 PHE793  MET794  SER795  GLU796  ALA797  LYS798  CYS799  TRP800  GLU811  SER814 

> <Gold.Protein.RotatedAtoms>
  150.7945  134.6994  159.6541 H   0  0  0  0  0  0  0  0  0  0  0  0  # atno 6907 bound_to 6896
  152.4056  134.6210  160.0060 H   0  0  0  0  0  0  0  0  0  0  0  0  # atno 6908 bound_to 6896
  151.6468  133.3286  159.3179 H   0  0  0  0  0  0  0  0  0  0  0  0  # atno 6909 bound_to 6896
  146.2214  139.8582  142.8610 H   0  0  0  0  0  0  0  0  0  0  0  0  # atno 7974 bound_to 7965
  155.2749  140.0441  157.3010 H   0  0  0  0  0  0  0  0  0  0  0  0  # atno 8008 bound_to 7997
  154.5631  140.2352  155.8273 H   0  0  0  0  0  0  0  0  0  0  0  0  # atno 8009 bound_to 7997
  156.2063  140.3011  155.9642 H   0  0  0  0  0  0  0  0  0  0  0  0  # atno 8010 bound_to 7997
  140.4402  143.2517  151.8637 H   0  0  0  0  0  0  0  0  0  0  0  0  # atno 10167 bound_to 10162
  156.1498  130.6526  150.9896 H   0  0  0  0  0  0  0  0  0  0  0  0  # atno 10718 bound_to 10713
  154.2411  135.6343  153.5207 H   0  0  0  0  0  0  0  0  0  0  0  0  # atno 10763 bound_to 10752
  152.9930  135.5542  154.5909 H   0  0  0  0  0  0  0  0  0  0  0  0  # atno 10764 bound_to 10752
  154.5415  135.2895  155.1066 H   0  0  0  0  0  0  0  0  0  0  0  0  # atno 10765 bound_to 10752
  141.1593  133.6818  156.6910 H   0  0  0  0  0  0  0  0  0  0  0  0  # atno 11005 bound_to 11000
  145.2732  141.0115  143.3760 LP  0  0  0  0  0  0  0  0  0  0  0  0  # atno 17320 bound_to 7965
  144.9207  139.4415  143.6542 LP  0  0  0  0  0  0  0  0  0  0  0  0  # atno 17321 bound_to 7965
  139.4789  144.5238  151.8764 LP  0  0  0  0  0  0  0  0  0  0  0  0  # atno 17342 bound_to 10162
  140.4327  144.2093  150.5888 LP  0  0  0  0  0  0  0  0  0  0  0  0  # atno 17343 bound_to 10162
  157.6647  131.0874  150.7756 LP  0  0  0  0  0  0  0  0  0  0  0  0  # atno 17370 bound_to 10713
  156.7825  130.4864  149.5398 LP  0  0  0  0  0  0  0  0  0  0  0  0  # atno 17371 bound_to 10713
  140.3030  134.8148  157.4113 LP  0  0  0  0  0  0  0  0  0  0  0  0  # atno 17394 bound_to 11000
  140.1245  134.5176  155.8156 LP  0  0  0  0  0  0  0  0  0  0  0  0  # atno 17395 bound_to 11000

$$$$
