AV-unprocessed.smi:2858|AV-procd|sdf|11001|dock1
  -GOLD-   2272015453D 1   1.00000     0.00000
 Structure written by MMmdl.
 39 40  0  0  0  0  0  0  0  0  1 V2000
  143.1092  143.6630  156.3315 O   0  0  0  0  0  0  0  0  0  0  0  0
  143.9857  143.6482  155.4703 C   0  0  0  0  0  0  0  0  0  0  0  0
  145.0595  142.5463  155.4898 C   0  0  0  0  0  0  0  0  0  0  0  0
  146.2365  142.7903  154.6204 N   0  0  0  0  0  0  0  0  0  0  0  0
  147.0536  141.5758  154.5468 C   0  0  0  0  0  0  0  0  0  0  0  0
  148.1807  141.6610  153.4982 C   0  0  0  0  0  0  0  0  0  0  0  0
  149.5807  141.4147  154.0890 C   0  0  0  0  0  0  0  0  0  0  0  0
  149.8452  142.2897  155.2254 N   0  0  0  0  0  0  0  0  0  0  0  0
  150.6717  142.0036  156.2420 C   0  0  0  0  0  0  0  0  0  0  0  0
  151.3124  140.9549  156.3206 O   0  0  0  0  0  0  0  0  0  0  0  0
  150.7020  143.0034  157.1411 N   0  0  0  0  0  0  0  0  0  0  0  0
  151.4353  143.0707  158.3561 C   0  0  0  0  0  0  0  0  0  0  0  0
  151.2607  144.2627  159.0954 C   0  0  0  0  0  0  0  0  0  0  0  0
  151.9424  144.4269  160.3167 C   0  0  0  0  0  0  0  0  0  0  0  0
  152.7817  143.3933  160.7689 C   0  0  0  0  0  0  0  0  0  0  0  0
  152.9004  142.2394  159.9725 C   0  0  0  0  0  0  0  0  0  0  0  0
  152.2485  142.0804  158.8013 N   0  0  0  0  0  0  0  0  0  0  0  0
  145.8118  143.2743  153.3050 C   0  0  0  0  0  0  0  0  0  0  0  0
  145.0754  144.6163  153.4732 C   0  0  0  0  0  0  0  0  0  0  0  0
  144.0246  144.5546  154.4824 N   0  0  0  0  0  0  0  0  0  0  0  0
  145.3943  142.4020  156.5180 H   0  0  0  0  0  0  0  0  0  0  0  0
  144.5670  141.6209  155.1856 H   0  0  0  0  0  0  0  0  0  0  0  0
  147.5174  141.3921  155.5174 H   0  0  0  0  0  0  0  0  0  0  0  0
  146.4169  140.7126  154.3453 H   0  0  0  0  0  0  0  0  0  0  0  0
  147.9848  140.9053  152.7366 H   0  0  0  0  0  0  0  0  0  0  0  0
  148.1585  142.6127  152.9693 H   0  0  0  0  0  0  0  0  0  0  0  0
  149.6649  140.3849  154.4361 H   0  0  0  0  0  0  0  0  0  0  0  0
  150.3484  141.5471  153.3247 H   0  0  0  0  0  0  0  0  0  0  0  0
  149.3594  143.1744  155.2402 H   0  0  0  0  0  0  0  0  0  0  0  0
  150.1275  143.8073  156.9367 H   0  0  0  0  0  0  0  0  0  0  0  0
  150.6109  145.0466  158.7340 H   0  0  0  0  0  0  0  0  0  0  0  0
  151.8222  145.3304  160.8960 H   0  0  0  0  0  0  0  0  0  0  0  0
  153.3202  143.4821  161.7007 H   0  0  0  0  0  0  0  0  0  0  0  0
  153.5348  141.4225  160.2829 H   0  0  0  0  0  0  0  0  0  0  0  0
  146.6624  143.4281  152.6430 H   0  0  0  0  0  0  0  0  0  0  0  0
  145.1630  142.5389  152.8259 H   0  0  0  0  0  0  0  0  0  0  0  0
  145.7817  145.3941  153.7664 H   0  0  0  0  0  0  0  0  0  0  0  0
  144.6401  144.9284  152.5237 H   0  0  0  0  0  0  0  0  0  0  0  0
  143.3086  145.2661  154.4541 H   0  0  0  0  0  0  0  0  0  0  0  0
  1  2  2  0  0  0  0
  2 20  1  0  0  0  0
  2  3  1  0  0  0  0
  3  4  1  0  0  0  0
  3 21  1  0  0  0  0
  3 22  1  0  0  0  0
  4  5  1  0  0  0  0
  4 18  1  0  0  0  0
  5  6  1  0  0  0  0
  5 23  1  0  0  0  0
  5 24  1  0  0  0  0
  6  7  1  0  0  0  0
  6 25  1  0  0  0  0
  6 26  1  0  0  0  0
  7  8  1  0  0  0  0
  7 27  1  0  0  0  0
  7 28  1  0  0  0  0
  8  9  1  0  0  0  0
  8 29  1  0  0  0  0
  9 10  2  0  0  0  0
  9 11  1  0  0  0  0
 11 12  1  0  0  0  0
 11 30  1  0  0  0  0
 12 17  1  0  0  0  0
 12 13  2  0  0  0  0
 13 14  1  0  0  0  0
 13 31  1  0  0  0  0
 14 15  2  0  0  0  0
 14 32  1  0  0  0  0
 15 16  1  0  0  0  0
 15 33  1  0  0  0  0
 16 17  2  0  0  0  0
 16 34  1  0  0  0  0
 18 19  1  0  0  0  0
 18 35  1  0  0  0  0
 18 36  1  0  0  0  0
 19 20  1  0  0  0  0
 19 37  1  0  0  0  0
 19 38  1  0  0  0  0
 20 39  1  0  0  0  0
M  END
> <s_m_source_file>
AV-unprocessed.smi

> <i_m_source_file_index>
2858

> <i_lp_mmshare_version>
43012

> <i_f3d_flags>
0

> <s_epik_input>
Tz1DMVtDSDJdTihbQ0gyXVtDSDJdW05IXTEpW0NIMl1bQ0gyXVtDSDJdW05IXUMoPU8pW05IXWMyW2NIXVtjSF1bY0hdW2NIXW4y

> <s_epik_cmdline>
J2VwaWtfcHl0aG9uJywgJy1waCcsICc3LjAnLCAnLXRuJywgJzgnLCAnLW1hJywgJzIwMCcsICctbWV0YWxfYmluZGluZycsICctaW1hZScsICc8aW5maWxlLm1hZT4nLCAnLW9tYWUnLCAnPG91dGZpbGUubWFlPic=

> <r_epik_Ionization_Penalty>
1.05093

> <r_epik_Ionization_Penalty_Charging>
0

> <r_epik_Ionization_Penalty_Neutral>
1.05093

> <r_epik_State_Penalty>
1.10373

> <r_epik_Charging_Adjusted_Penalty>
1.10373

> <i_epik_Tot_Q>
0

> <i_epik_Tot_abs_Q>
0

> <r_epik_Metal_State_Penalty>
1.17671

> <b_epik_Metal_Only>
0

> <s_lp_Force_Field>
OPLS_2005

> <r_lp_Energy>
22.2327

> <b_lp_Chiralities_Consistent>
1

> <s_lp_Variant>
AV-unprocessed.smi:2858-3

> <Gold.Version>
5.8.1

> <Gold.Id.Protein>
6NUR|6NUR_protein|mol2

> <Gold.PLP.Fitness>
46.0031

> <Gold.PLP.PLP>
-41.2197

> <Gold.PLP.part.hbond>
-2.0000

> <Gold.PLP.part.metal>
0.0000

> <Gold.PLP.part.buried>
-8.6453

> <Gold.PLP.part.nonpolar>
-31.7597

> <Gold.PLP.part.repulsive>
0.5000

> <Gold.PLP.ligand.clash>
0.0000

> <Gold.PLP.ligand.torsion>
0.6256

> <Gold.PLP.Chemscore.Hbond>
1.9920

> <Gold.PLP.Chemscore.CHOScore>
0.0000

> <Gold.PLP.Chemscore.Metal>
0.0000

> <Gold.Chemscore.Hbonds>
donor molecule, donor type, donor heavy atom, donor atom, acceptor molecule, acceptor atom, score
      L1  H     8    29       P1  8028  1.00
      L1  H    11    30       P1  8028  0.98

> <Gold.PLP.Chemscore.Internal.Correction>
0.0586

> <Gold.Rescore>
     Score         DG    S(hbond)    S(metal)    S(lipo)     H(rot)  DE(clash)    DE(int)     intcor
     15.26     -17.19       1.97        0.00      88.06       2.02       0.06       1.87       ----

> <Gold.Chemscore.Fitness>
15.2607

> <Gold.Chemscore.DG>
-17.1899

> <Gold.Chemscore.ZeroCoef>
-5.4800

> <Gold.Chemscore.Hbond>
1.9704

> <Gold.Chemscore.Metal>
0.0000

> <Gold.Chemscore.Lipo>
88.0605

> <Gold.Chemscore.Internal_Hbond>
0.0000

> <Gold.Chemscore.DEClash>
0.0624

> <Gold.Chemscore.DEInternal>
1.8668

> <Gold.Chemscore.Rot>
2.0213

> <Gold.Chemscore.Internal.Correction>
   9.000000E+99

> <Gold.Chemscore.Hbonds>
donor molecule, donor type, donor heavy atom, donor atom, acceptor molecule, acceptor atom, score
      L1  H     8    29       P1  8028  1.00
      L1  H    11    30       P1  8028  0.90

> <Gold.Chemscore.Hbond.Weighted>
-6.5813

> <Gold.Chemscore.Metal.Weighted>
-0.0000

> <Gold.Chemscore.Lipo.Weighted>
-10.3031

> <Gold.Chemscore.Internal_Hbond.Weighted>
0.0000

> <Gold.Chemscore.DEClash.Weighted>
0.0624

> <Gold.Chemscore.DEInternal.Weighted>
1.8668

> <Gold.Chemscore.Rot.Weighted>
5.1744

> <Gold.Chemscore.Internal.Correction.Weighted>
   9.000000E+99

> <Gold.Protein.RotatedTorsions>
[ 6907 6896 6895 6894 ] final  104.69 input  -60.11 | X-H torsion
[ 7974 7965 7964 7962 ] final -168.39 input  175.53 | X-H torsion
[ 8008 7997 7996 7995 ] final  163.92 input   59.86 | X-H torsion
[ 10167 10162 10161 10158 ] final   60.35 input  -65.29 | X-H torsion
[ 10718 10713 10712 10709 ] final  131.75 input   66.30 | X-H torsion
[ 10763 10752 10751 10750 ] final   26.68 input  -60.55 | X-H torsion
[ 11005 11000 10999 10996 ] final  -32.06 input  -57.11 | X-H torsion

> <Gold.Protein.ActiveResidues>
 VAL166  LYS551  ARG553  GLY616  TRP617  ASP618  TYR619  PRO620  LYS621  CYS622 
 ASP623  PHE694  ASN695  SER759  ASP760  ASP761  ALA762  ILE779  LEU786  VAL792 
 PHE793  MET794  SER795  GLU796  ALA797  LYS798  CYS799  TRP800  GLU811  SER814 

> <Gold.Protein.RotatedAtoms>
  152.5256  133.9639  159.7729 H   0  0  0  0  0  0  0  0  0  0  0  0  # atno 6907 bound_to 6896
  150.9924  133.6128  159.2713 H   0  0  0  0  0  0  0  0  0  0  0  0  # atno 6908 bound_to 6896
  151.3267  135.0838  159.9377 H   0  0  0  0  0  0  0  0  0  0  0  0  # atno 6909 bound_to 6896
  144.7204  140.2377  143.6295 H   0  0  0  0  0  0  0  0  0  0  0  0  # atno 7974 bound_to 7965
  156.1920  140.1710  156.8073 H   0  0  0  0  0  0  0  0  0  0  0  0  # atno 8008 bound_to 7997
  154.5483  140.0723  156.8657 H   0  0  0  0  0  0  0  0  0  0  0  0  # atno 8009 bound_to 7997
  155.3079  140.3365  155.4247 H   0  0  0  0  0  0  0  0  0  0  0  0  # atno 8010 bound_to 7997
  140.1665  144.4319  150.6683 H   0  0  0  0  0  0  0  0  0  0  0  0  # atno 10167 bound_to 10162
  157.4938  131.1091  150.9521 H   0  0  0  0  0  0  0  0  0  0  0  0  # atno 10718 bound_to 10713
  153.0606  135.6555  154.0471 H   0  0  0  0  0  0  0  0  0  0  0  0  # atno 10763 bound_to 10752
  154.0140  135.2926  155.3390 H   0  0  0  0  0  0  0  0  0  0  0  0  # atno 10764 bound_to 10752
  154.6943  135.5270  153.8504 H   0  0  0  0  0  0  0  0  0  0  0  0  # atno 10765 bound_to 10752
  140.9520  133.7215  156.1235 H   0  0  0  0  0  0  0  0  0  0  0  0  # atno 11005 bound_to 11000
  145.8349  139.2103  143.1861 LP  0  0  0  0  0  0  0  0  0  0  0  0  # atno 17320 bound_to 7965
  146.0398  140.8176  142.9834 LP  0  0  0  0  0  0  0  0  0  0  0  0  # atno 17321 bound_to 7965
  140.6609  143.2252  151.5857 LP  0  0  0  0  0  0  0  0  0  0  0  0  # atno 17342 bound_to 10162
  139.5357  144.2788  152.1246 LP  0  0  0  0  0  0  0  0  0  0  0  0  # atno 17343 bound_to 10162
  157.0214  130.5675  149.5332 LP  0  0  0  0  0  0  0  0  0  0  0  0  # atno 17370 bound_to 10713
  156.0188  130.5283  150.8215 LP  0  0  0  0  0  0  0  0  0  0  0  0  # atno 17371 bound_to 10713
  140.7588  134.3962  157.5529 LP  0  0  0  0  0  0  0  0  0  0  0  0  # atno 17394 bound_to 11000
  139.8850  134.8948  156.2666 LP  0  0  0  0  0  0  0  0  0  0  0  0  # atno 17395 bound_to 11000

$$$$
