AV-unprocessed.smi:701|AV-procd|sdf|3412|dock1
  -GOLD-   22720 0393D 1   1.00000     0.00000
 Structure written by MMmdl.
 48 50  0  0  0  0  0  0  0  0  2 V2000
  152.7063  142.9510  161.8304 C   0  0  0  0  0  0  0  0  0  0  0  0
  152.8054  143.1564  160.3174 C   0  0  0  0  0  0  0  0  0  0  0  0
  152.0931  142.1163  159.6693 O   0  0  0  0  0  0  0  0  0  0  0  0
  151.6737  142.4604  158.3545 C   0  0  2  0  0  0  0  0  0  0  0  0
  150.6748  143.6248  158.3544 C   0  0  0  0  0  0  0  0  0  0  0  0
  149.5789  142.5668  158.4880 C   0  0  1  0  0  0  0  0  0  0  0  0
  148.3991  142.8842  157.6950 N   0  0  0  0  0  0  0  0  0  0  0  0
  147.1328  142.6283  158.0594 C   0  0  0  0  0  0  0  0  0  0  0  0
  146.8389  142.1420  159.1508 O   0  0  0  0  0  0  0  0  0  0  0  0
  146.0143  142.9480  157.0522 C   0  0  0  0  0  0  0  0  0  0  0  0
  144.8289  143.6007  157.6384 N   0  0  0  0  0  0  0  0  0  0  0  0
  145.0008  144.8749  158.2076 C   0  0  0  0  0  0  0  0  0  0  0  0
  143.9721  145.5581  158.7442 C   0  0  0  0  0  0  0  0  0  0  0  0
  142.6505  144.9435  158.7250 C   0  0  0  0  0  0  0  0  0  0  0  0
  141.6988  145.5545  159.2066 O   0  0  0  0  0  0  0  0  0  0  0  0
  142.5350  143.7046  158.1637 N   0  5  0  0  0  0  0  0  0  0  0  0
  143.5898  143.0216  157.6209 C   0  0  0  0  0  0  0  0  0  0  0  0
  143.4609  141.9093  157.1093 O   0  0  0  0  0  0  0  0  0  0  0  0
  150.5380  141.5410  157.8291 C   0  0  0  0  0  0  0  0  0  0  0  0
  150.4775  140.1133  158.4005 C   0  0  0  0  0  0  0  0  0  0  0  0
  151.6181  139.2196  157.8863 C   0  0  0  0  0  0  0  0  0  0  0  0
  151.6016  139.1309  156.3548 C   0  0  0  0  0  0  0  0  0  0  0  0
  151.5989  140.5259  155.7161 C   0  0  0  0  0  0  0  0  0  0  0  0
  150.4700  141.4004  156.2892 C   0  0  0  0  0  0  0  0  0  0  0  0
  153.2443  143.7333  162.3663 H   0  0  0  0  0  0  0  0  0  0  0  0
  153.1316  141.9908  162.1232 H   0  0  0  0  0  0  0  0  0  0  0  0
  151.6673  142.9729  162.1600 H   0  0  0  0  0  0  0  0  0  0  0  0
  152.3943  144.1298  160.0470 H   0  0  0  0  0  0  0  0  0  0  0  0
  153.8514  143.1424  160.0079 H   0  0  0  0  0  0  0  0  0  0  0  0
  152.5027  142.5801  157.6554 H   0  0  0  0  0  0  0  0  0  0  0  0
  150.7490  144.3068  159.2016 H   0  0  0  0  0  0  0  0  0  0  0  0
  150.6539  144.1647  157.4060 H   0  0  0  0  0  0  0  0  0  0  0  0
  149.3669  142.3385  159.5352 H   0  0  0  0  0  0  0  0  0  0  0  0
  148.5547  143.2804  156.7789 H   0  0  0  0  0  0  0  0  0  0  0  0
  146.4298  143.5700  156.2575 H   0  0  0  0  0  0  0  0  0  0  0  0
  145.7270  142.0175  156.5613 H   0  0  0  0  0  0  0  0  0  0  0  0
  146.0092  145.2610  158.1746 H   0  0  0  0  0  0  0  0  0  0  0  0
  144.1206  146.5376  159.1742 H   0  0  0  0  0  0  0  0  0  0  0  0
  150.5032  140.1321  159.4903 H   0  0  0  0  0  0  0  0  0  0  0  0
  149.5216  139.6538  158.1456 H   0  0  0  0  0  0  0  0  0  0  0  0
  152.5758  139.6195  158.2216 H   0  0  0  0  0  0  0  0  0  0  0  0
  151.5318  138.2216  158.3165 H   0  0  0  0  0  0  0  0  0  0  0  0
  152.4595  138.5579  156.0017 H   0  0  0  0  0  0  0  0  0  0  0  0
  150.7125  138.5863  156.0346 H   0  0  0  0  0  0  0  0  0  0  0  0
  152.5625  141.0068  155.8850 H   0  0  0  0  0  0  0  0  0  0  0  0
  151.4862  140.4371  154.6351 H   0  0  0  0  0  0  0  0  0  0  0  0
  149.5134  140.9663  155.9955 H   0  0  0  0  0  0  0  0  0  0  0  0
  150.5053  142.3777  155.8066 H   0  0  0  0  0  0  0  0  0  0  0  0
  1  2  1  0  0  0  0
  1 25  1  0  0  0  0
  1 26  1  0  0  0  0
  1 27  1  0  0  0  0
  2  3  1  0  0  0  0
  2 28  1  0  0  0  0
  2 29  1  0  0  0  0
  3  4  1  0  0  0  0
  4 19  1  0  0  0  0
  4  5  1  0  0  0  0
  4 30  1  0  0  0  0
  5  6  1  0  0  0  0
  5 31  1  0  0  0  0
  5 32  1  0  0  0  0
  6  7  1  0  0  0  0
  6 19  1  0  0  0  0
  6 33  1  0  0  0  0
  7  8  1  0  0  0  0
  7 34  1  0  0  0  0
  8  9  2  0  0  0  0
  8 10  1  0  0  0  0
 10 11  1  0  0  0  0
 10 35  1  0  0  0  0
 10 36  1  0  0  0  0
 11 17  1  0  0  0  0
 11 12  1  0  0  0  0
 12 13  2  0  0  0  0
 12 37  1  0  0  0  0
 13 14  1  0  0  0  0
 13 38  1  0  0  0  0
 14 15  2  0  0  0  0
 14 16  1  0  0  0  0
 16 17  1  0  0  0  0
 17 18  2  0  0  0  0
 19 24  1  0  0  0  0
 19 20  1  0  0  0  0
 20 21  1  0  0  0  0
 20 39  1  0  0  0  0
 20 40  1  0  0  0  0
 21 22  1  0  0  0  0
 21 41  1  0  0  0  0
 21 42  1  0  0  0  0
 22 23  1  0  0  0  0
 22 43  1  0  0  0  0
 22 44  1  0  0  0  0
 23 24  1  0  0  0  0
 23 45  1  0  0  0  0
 23 46  1  0  0  0  0
 24 47  1  0  0  0  0
 24 48  1  0  0  0  0
M  CHG  1  16  -1
M  END
> <s_m_source_file>
AV-unprocessed.smi

> <i_m_source_file_index>
701

> <i_lp_mmshare_version>
43012

> <i_f3d_flags>
0

> <s_epik_input>
W0NIMl0xW0NIMl1bQ0gyXVtDSDJdW0NIMl1DMTJbQ0BIXShPW0NIMl1bQ0gzXSlbQ0gyXVtDQEhdMltOSF1DKD1PKVtDSDJdbjNbY0hdW2NIXWMoPU8pW25IXWMzPU8=

> <s_epik_cmdline>
J2VwaWtfcHl0aG9uJywgJy1waCcsICc3LjAnLCAnLXRuJywgJzgnLCAnLW1hJywgJzIwMCcsICctbWV0YWxfYmluZGluZycsICctaW1hZScsICc8aW5maWxlLm1hZT4nLCAnLW9tYWUnLCAnPG91dGZpbGUubWFlPic=

> <r_lp_tautomer_probability>
0.999537

> <r_epik_Ionization_Penalty>
3.12423

> <r_epik_Ionization_Penalty_Charging>
2.92877e-08

> <r_epik_Ionization_Penalty_Neutral>
3.12423

> <r_epik_State_Penalty>
3.12332

> <r_epik_Charging_Adjusted_Penalty>
3.12332

> <i_epik_Tot_Q>
-1

> <i_epik_Tot_abs_Q>
1

> <r_epik_Metal_State_Penalty>
0.463873

> <b_epik_Metal_Only>
1

> <s_lp_Force_Field>
OPLS_2005

> <r_lp_Energy>
34.5124

> <b_lp_Chiralities_Consistent>
1

> <s_lp_Variant>
AV-unprocessed.smi:701-5

> <Gold.Version>
5.8.1

> <Gold.Id.Protein>
6NUR|6NUR_protein|mol2

> <Gold.PLP.Fitness>
39.7724

> <Gold.PLP.PLP>
-32.1733

> <Gold.PLP.part.hbond>
-2.7376

> <Gold.PLP.part.metal>
0.0000

> <Gold.PLP.part.buried>
-2.7154

> <Gold.PLP.part.nonpolar>
-26.2808

> <Gold.PLP.part.repulsive>
0.1272

> <Gold.PLP.ligand.clash>
0.0000

> <Gold.PLP.ligand.torsion>
0.6081

> <Gold.PLP.Chemscore.Hbond>
1.8000

> <Gold.PLP.Chemscore.CHOScore>
1.0000

> <Gold.PLP.Chemscore.Metal>
0.0000

> <Gold.Chemscore.Hbonds>
donor molecule, donor type, donor heavy atom, donor atom, acceptor molecule, acceptor atom, score
      L1  H     7    34       P1  8028  1.00
      P1  H  6934  6946       L1     9  0.80
      L1  C    12    37       P1  8029  1.00

> <Gold.PLP.Chemscore.Internal.Correction>
0.4153

> <Gold.Rescore>
     Score         DG    S(hbond)    S(metal)    S(lipo)     H(rot)  DE(clash)    DE(int)     intcor
     14.33     -14.93       1.35        0.00      86.99       2.04       0.05       0.55       ----

> <Gold.Chemscore.Fitness>
14.3255

> <Gold.Chemscore.DG>
-14.9277

> <Gold.Chemscore.ZeroCoef>
-5.4800

> <Gold.Chemscore.Hbond>
1.3450

> <Gold.Chemscore.Metal>
0.0000

> <Gold.Chemscore.Lipo>
86.9869

> <Gold.Chemscore.Internal_Hbond>
0.0000

> <Gold.Chemscore.DEClash>
0.0501

> <Gold.Chemscore.DEInternal>
0.5521

> <Gold.Chemscore.Rot>
2.0399

> <Gold.Chemscore.Internal.Correction>
   9.000000E+99

> <Gold.Chemscore.Hbonds>
donor molecule, donor type, donor heavy atom, donor atom, acceptor molecule, acceptor atom, score
      L1  H     7    34       P1  8028  0.48
      P1  H  6934  6946       L1     9  0.76

> <Gold.Chemscore.Hbond.Weighted>
-4.4923

> <Gold.Chemscore.Metal.Weighted>
-0.0000

> <Gold.Chemscore.Lipo.Weighted>
-10.1775

> <Gold.Chemscore.Internal_Hbond.Weighted>
0.0000

> <Gold.Chemscore.DEClash.Weighted>
0.0501

> <Gold.Chemscore.DEInternal.Weighted>
0.5521

> <Gold.Chemscore.Rot.Weighted>
5.2222

> <Gold.Chemscore.Internal.Correction.Weighted>
   9.000000E+99

> <Gold.Protein.RotatedTorsions>
[ 6907 6896 6895 6894 ] final   -1.09 input  -60.11 | X-H torsion
[ 7974 7965 7964 7962 ] final  116.98 input  175.53 | X-H torsion
[ 8008 7997 7996 7995 ] final  113.56 input   59.86 | X-H torsion
[ 10167 10162 10161 10158 ] final -141.61 input  -65.29 | X-H torsion
[ 10718 10713 10712 10709 ] final   54.70 input   66.30 | X-H torsion
[ 10763 10752 10751 10750 ] final   20.32 input  -60.55 | X-H torsion
[ 11005 11000 10999 10996 ] final -130.00 input  -57.11 | X-H torsion

> <Gold.Protein.ActiveResidues>
 VAL166  LYS551  ARG553  GLY616  TRP617  ASP618  TYR619  PRO620  LYS621  CYS622 
 ASP623  PHE694  ASN695  SER759  ASP760  ASP761  ALA762  ILE779  LEU786  VAL792 
 PHE793  MET794  SER795  GLU796  ALA797  LYS798  CYS799  TRP800  GLU811  SER814 

> <Gold.Protein.RotatedAtoms>
  151.5517  135.1067  159.9950 H   0  0  0  0  0  0  0  0  0  0  0  0  # atno 6907 bound_to 6896
  152.4488  133.7585  159.6744 H   0  0  0  0  0  0  0  0  0  0  0  0  # atno 6908 bound_to 6896
  150.8411  133.7867  159.3085 H   0  0  0  0  0  0  0  0  0  0  0  0  # atno 6909 bound_to 6896
  145.1730  139.3091  143.4458 H   0  0  0  0  0  0  0  0  0  0  0  0  # atno 7974 bound_to 7965
  156.2266  140.2977  156.0082 H   0  0  0  0  0  0  0  0  0  0  0  0  # atno 8008 bound_to 7997
  155.2340  140.0420  157.2983 H   0  0  0  0  0  0  0  0  0  0  0  0  # atno 8009 bound_to 7997
  154.5925  140.2405  155.7909 H   0  0  0  0  0  0  0  0  0  0  0  0  # atno 8010 bound_to 7997
  139.8168  143.7628  152.2665 H   0  0  0  0  0  0  0  0  0  0  0  0  # atno 10167 bound_to 10162
  157.5280  130.8610  149.8648 H   0  0  0  0  0  0  0  0  0  0  0  0  # atno 10718 bound_to 10713
  153.1087  135.6691  153.9539 H   0  0  0  0  0  0  0  0  0  0  0  0  # atno 10763 bound_to 10752
  153.9089  135.3027  155.3450 H   0  0  0  0  0  0  0  0  0  0  0  0  # atno 10764 bound_to 10752
  154.7508  135.5036  153.9362 H   0  0  0  0  0  0  0  0  0  0  0  0  # atno 10765 bound_to 10752
  140.9383  134.1227  157.4173 H   0  0  0  0  0  0  0  0  0  0  0  0  # atno 11005 bound_to 11000
  146.3465  140.1882  142.8589 LP  0  0  0  0  0  0  0  0  0  0  0  0  # atno 17320 bound_to 7965
  145.0214  140.8796  143.5165 LP  0  0  0  0  0  0  0  0  0  0  0  0  # atno 17321 bound_to 7965
  139.7794  144.7450  151.0110 LP  0  0  0  0  0  0  0  0  0  0  0  0  # atno 17342 bound_to 10162
  140.7815  143.4559  151.0347 LP  0  0  0  0  0  0  0  0  0  0  0  0  # atno 17343 bound_to 10162
  156.0401  130.3741  150.1458 LP  0  0  0  0  0  0  0  0  0  0  0  0  # atno 17370 bound_to 10713
  156.9643  130.9815  151.3472 LP  0  0  0  0  0  0  0  0  0  0  0  0  # atno 17371 bound_to 10713
  139.8814  135.0028  156.6150 LP  0  0  0  0  0  0  0  0  0  0  0  0  # atno 17394 bound_to 11000
  140.7768  133.8693  155.8536 LP  0  0  0  0  0  0  0  0  0  0  0  0  # atno 17395 bound_to 11000

$$$$
