AV-unprocessed.smi:255|AV-procd|sdf|1956|dock8
  -GOLD-   2262021 93D 1   1.00000     0.00000
 Structure written by MMmdl.
 44 47  0  0  0  0  0  0  0  0  1 V2000
  150.6035  142.9784  158.4020 O   0  0  0  0  0  0  0  0  0  0  0  0
  150.4109  141.5806  158.3681 C   0  0  0  0  0  0  0  0  0  0  0  0
  150.5509  141.0646  156.9194 C   0  0  1  0  0  0  0  0  0  0  0  0
  151.9831  141.0146  156.3852 C   0  0  0  0  0  0  0  0  0  0  0  0
  151.8281  140.1493  155.1343 C   0  0  1  0  0  0  0  0  0  0  0  0
  152.9062  139.3942  154.9245 F   0  0  0  0  0  0  0  0  0  0  0  0
  150.5661  139.3047  155.3814 C   0  0  0  0  0  0  0  0  0  0  0  0
  150.0069  139.7291  156.6651 N   0  0  0  0  0  0  0  0  0  0  0  0
  150.1131  138.8235  157.6695 C   0  0  0  0  0  0  0  0  0  0  0  0
  151.3125  138.5807  158.2632 N   0  0  0  0  0  0  0  0  0  0  0  0
  151.3975  137.6967  159.2620 C   0  0  0  0  0  0  0  0  0  0  0  0
  150.4276  136.9639  159.8133 N   0  0  0  0  0  0  0  0  0  0  0  0
  149.2224  137.2122  159.2245 C   0  0  0  0  0  0  0  0  0  0  0  0
  148.9808  138.1172  158.1537 C   0  0  0  0  0  0  0  0  0  0  0  0
  147.6353  138.1039  157.8104 N   0  0  0  0  0  0  0  0  0  0  0  0
  147.1096  137.2357  158.6312 C   0  0  0  0  0  0  0  0  0  0  0  0
  147.9883  136.6597  159.5216 N   0  0  0  0  0  0  0  0  0  0  0  0
  147.6732  135.6663  160.5364 C   0  0  0  0  0  0  0  0  0  0  0  0
  146.7301  136.1825  161.6533 C   0  0  2  0  0  0  0  0  0  0  0  0
  147.2973  137.3219  162.2710 O   0  0  0  0  0  0  0  0  0  0  0  0
  146.4564  135.1204  162.7055 C   0  0  0  0  0  0  0  0  0  0  0  0
  145.2942  134.3349  162.1016 C   0  0  0  0  0  0  0  0  0  0  0  0
  144.5929  135.2516  161.2664 O   0  0  0  0  0  0  0  0  0  0  0  0
  145.3005  136.4849  161.1857 C   0  0  0  0  0  0  0  0  0  0  0  0
  149.9752  141.7366  156.2806 H   0  0  0  0  0  0  0  0  0  0  0  0
  151.6928  140.7733  154.2504 H   0  0  0  0  0  0  0  0  0  0  0  0
  150.1993  143.3555  157.6358 H   0  0  0  0  0  0  0  0  0  0  0  0
  151.1327  141.1078  159.0352 H   0  0  0  0  0  0  0  0  0  0  0  0
  149.4150  141.3659  158.7567 H   0  0  0  0  0  0  0  0  0  0  0  0
  152.3925  142.0012  156.1671 H   0  0  0  0  0  0  0  0  0  0  0  0
  152.6406  140.5282  157.1072 H   0  0  0  0  0  0  0  0  0  0  0  0
  149.8288  139.4883  154.5992 H   0  0  0  0  0  0  0  0  0  0  0  0
  150.7896  138.2369  155.3571 H   0  0  0  0  0  0  0  0  0  0  0  0
  152.3836  137.5581  159.6801 H   0  0  0  0  0  0  0  0  0  0  0  0
  146.0569  136.9934  158.6130 H   0  0  0  0  0  0  0  0  0  0  0  0
  147.2325  134.8043  160.0343 H   0  0  0  0  0  0  0  0  0  0  0  0
  148.6107  135.3161  160.9703 H   0  0  0  0  0  0  0  0  0  0  0  0
  147.0711  137.3106  163.1884 H   0  0  0  0  0  0  0  0  0  0  0  0
  147.3217  134.4970  162.9338 H   0  0  0  0  0  0  0  0  0  0  0  0
  146.1257  135.5829  163.6372 H   0  0  0  0  0  0  0  0  0  0  0  0
  145.6628  133.5143  161.4854 H   0  0  0  0  0  0  0  0  0  0  0  0
  144.6398  133.9142  162.8653 H   0  0  0  0  0  0  0  0  0  0  0  0
  144.8153  137.1798  161.8734 H   0  0  0  0  0  0  0  0  0  0  0  0
  145.2385  136.9233  160.1907 H   0  0  0  0  0  0  0  0  0  0  0  0
  1  2  1  0  0  0  0
  1 27  1  0  0  0  0
  2  3  1  0  0  0  0
  2 28  1  0  0  0  0
  2 29  1  0  0  0  0
  3 25  1  0  0  0  0
  3  8  1  0  0  0  0
  3  4  1  0  0  0  0
  4  5  1  0  0  0  0
  4 30  1  0  0  0  0
  4 31  1  0  0  0  0
  5 26  1  0  0  0  0
  5  6  1  0  0  0  0
  5  7  1  0  0  0  0
  7  8  1  0  0  0  0
  7 32  1  0  0  0  0
  7 33  1  0  0  0  0
  8  9  1  0  0  0  0
  9 14  1  0  0  0  0
  9 10  2  0  0  0  0
 10 11  1  0  0  0  0
 11 12  2  0  0  0  0
 11 34  1  0  0  0  0
 12 13  1  0  0  0  0
 13 17  1  0  0  0  0
 13 14  2  0  0  0  0
 14 15  1  0  0  0  0
 15 16  2  0  0  0  0
 16 17  1  0  0  0  0
 16 35  1  0  0  0  0
 17 18  1  0  0  0  0
 18 19  1  0  0  0  0
 18 36  1  0  0  0  0
 18 37  1  0  0  0  0
 19 24  1  0  0  0  0
 19 20  1  0  0  0  0
 19 21  1  0  0  0  0
 20 38  1  0  0  0  0
 21 22  1  0  0  0  0
 21 39  1  0  0  0  0
 21 40  1  0  0  0  0
 22 23  1  0  0  0  0
 22 41  1  0  0  0  0
 22 42  1  0  0  0  0
 23 24  1  0  0  0  0
 24 43  1  0  0  0  0
 24 44  1  0  0  0  0
M  END
> <s_m_source_file>
AV-unprocessed.smi

> <i_m_source_file_index>
255

> <i_lp_mmshare_version>
43012

> <i_f3d_flags>
0

> <s_epik_input>
W09IXVtDSDJdW0NAQEhdMVtDSDJdW0NASF0oRilbQ0gyXU4xYyhuW2NIXW4yKWMoYzIzKW5bY0hdbjNbQ0gyXVtDQEBdNChbT0hdKVtDSDJdW0NIMl1PW0NIMl00

> <s_epik_cmdline>
J2VwaWtfcHl0aG9uJywgJy1waCcsICc3LjAnLCAnLXRuJywgJzgnLCAnLW1hJywgJzIwMCcsICctbWV0YWxfYmluZGluZycsICctaW1hZScsICc8aW5maWxlLm1hZT4nLCAnLW9tYWUnLCAnPG91dGZpbGUubWFlPic=

> <r_lp_tautomer_probability>
1

> <r_epik_Ionization_Penalty>
0.0058098

> <r_epik_Ionization_Penalty_Charging>
0

> <r_epik_Ionization_Penalty_Neutral>
0.0058098

> <r_epik_State_Penalty>
0.00411166

> <r_epik_Charging_Adjusted_Penalty>
0.00411166

> <i_epik_Tot_Q>
0

> <i_epik_Tot_abs_Q>
0

> <r_epik_Metal_State_Penalty>
-0

> <b_epik_Metal_Only>
0

> <s_lp_Force_Field>
OPLS_2005

> <r_lp_Energy>
54.0655

> <b_lp_Chiralities_Consistent>
1

> <s_lp_Variant>
AV-unprocessed.smi:255-8

> <Gold.Version>
5.8.1

> <Gold.Id.Protein>
6NUR|6NUR_protein|mol2

> <Gold.PLP.Fitness>
42.4540

> <Gold.PLP.PLP>
-34.7654

> <Gold.PLP.part.hbond>
-4.4438

> <Gold.PLP.part.metal>
0.0000

> <Gold.PLP.part.buried>
-1.9481

> <Gold.PLP.part.nonpolar>
-28.6551

> <Gold.PLP.part.repulsive>
0.0000

> <Gold.PLP.ligand.clash>
0.0000

> <Gold.PLP.ligand.torsion>
0.3565

> <Gold.PLP.Chemscore.Hbond>
2.7742

> <Gold.PLP.Chemscore.CHOScore>
0.0000

> <Gold.PLP.Chemscore.Metal>
0.0000

> <Gold.Chemscore.Hbonds>
donor molecule, donor type, donor heavy atom, donor atom, acceptor molecule, acceptor atom, score
      P1  H  6896  6907       L1    12  1.00
      P1  H  6931  6943       L1    20  0.77
      P1  H  6934  6947       L1    20  0.42

> <Gold.PLP.Chemscore.Internal.Correction>
0.0791

> <Gold.Rescore>
     Score         DG    S(hbond)    S(metal)    S(lipo)     H(rot)  DE(clash)    DE(int)     intcor
      9.61     -11.45       1.85        0.00      70.91       3.33       1.40       0.43       ----

> <Gold.Chemscore.Fitness>
9.6147

> <Gold.Chemscore.DG>
-11.4522

> <Gold.Chemscore.ZeroCoef>
-5.4800

> <Gold.Chemscore.Hbond>
1.8543

> <Gold.Chemscore.Metal>
0.0000

> <Gold.Chemscore.Lipo>
70.9126

> <Gold.Chemscore.Internal_Hbond>
0.0000

> <Gold.Chemscore.DEClash>
1.4032

> <Gold.Chemscore.DEInternal>
0.4344

> <Gold.Chemscore.Rot>
3.3273

> <Gold.Chemscore.Internal.Correction>
   9.000000E+99

> <Gold.Chemscore.Hbonds>
donor molecule, donor type, donor heavy atom, donor atom, acceptor molecule, acceptor atom, score
      P1  H  6896  6907       L1    12  0.38
      P1  H  6931  6943       L1    20  0.61
      P1  H  6934  6947       L1    20  0.32

> <Gold.Chemscore.Hbond.Weighted>
-6.1934

> <Gold.Chemscore.Metal.Weighted>
-0.0000

> <Gold.Chemscore.Lipo.Weighted>
-8.2968

> <Gold.Chemscore.Internal_Hbond.Weighted>
0.0000

> <Gold.Chemscore.DEClash.Weighted>
1.4032

> <Gold.Chemscore.DEInternal.Weighted>
0.4344

> <Gold.Chemscore.Rot.Weighted>
8.5179

> <Gold.Chemscore.Internal.Correction.Weighted>
   9.000000E+99

> <Gold.Protein.RotatedTorsions>
[ 6907 6896 6895 6894 ] final  -18.81 input  -60.11 | X-H torsion
[ 7974 7965 7964 7962 ] final -131.91 input  175.53 | X-H torsion
[ 8008 7997 7996 7995 ] final   65.18 input   59.86 | X-H torsion
[ 10167 10162 10161 10158 ] final   36.81 input  -65.29 | X-H torsion
[ 10718 10713 10712 10709 ] final   68.65 input   66.30 | X-H torsion
[ 10763 10752 10751 10750 ] final   34.50 input  -60.55 | X-H torsion
[ 11005 11000 10999 10996 ] final  176.90 input  -57.11 | X-H torsion

> <Gold.Protein.ActiveResidues>
 VAL166  LYS551  ARG553  GLY616  TRP617  ASP618  TYR619  PRO620  LYS621  CYS622 
 ASP623  PHE694  ASN695  SER759  ASP760  ASP761  ALA762  ILE779  LEU786  VAL792 
 PHE793  MET794  SER795  GLU796  ALA797  LYS798  CYS799  TRP800  GLU811  SER814 

> <Gold.Protein.RotatedAtoms>
  151.2725  135.0689  159.9139 H   0  0  0  0  0  0  0  0  0  0  0  0  # atno 6907 bound_to 6896
  152.5348  134.0116  159.7951 H   0  0  0  0  0  0  0  0  0  0  0  0  # atno 6908 bound_to 6896
  151.0356  133.5701  159.2687 H   0  0  0  0  0  0  0  0  0  0  0  0  # atno 6909 bound_to 6896
  144.9334  140.7156  143.4891 H   0  0  0  0  0  0  0  0  0  0  0  0  # atno 7974 bound_to 7965
  155.6578  140.3497  155.4771 H   0  0  0  0  0  0  0  0  0  0  0  0  # atno 8008 bound_to 7997
  155.9794  140.1171  157.0763 H   0  0  0  0  0  0  0  0  0  0  0  0  # atno 8009 bound_to 7997
  154.4187  140.1141  156.5401 H   0  0  0  0  0  0  0  0  0  0  0  0  # atno 8010 bound_to 7997
  140.4092  144.1616  150.6138 H   0  0  0  0  0  0  0  0  0  0  0  0  # atno 10167 bound_to 10162
  157.6301  130.9385  150.0406 H   0  0  0  0  0  0  0  0  0  0  0  0  # atno 10718 bound_to 10713
  153.0161  135.6358  154.1679 H   0  0  0  0  0  0  0  0  0  0  0  0  # atno 10763 bound_to 10752
  154.1418  135.2834  155.3160 H   0  0  0  0  0  0  0  0  0  0  0  0  # atno 10764 bound_to 10752
  154.6119  135.5553  153.7543 H   0  0  0  0  0  0  0  0  0  0  0  0  # atno 10765 bound_to 10752
  140.3782  134.6970  157.4434 H   0  0  0  0  0  0  0  0  0  0  0  0  # atno 11005 bound_to 11000
  145.3105  139.1820  143.4641 LP  0  0  0  0  0  0  0  0  0  0  0  0  # atno 17320 bound_to 7965
  146.3257  140.3108  142.8626 LP  0  0  0  0  0  0  0  0  0  0  0  0  # atno 17321 bound_to 7965
  140.4656  143.2432  151.9160 LP  0  0  0  0  0  0  0  0  0  0  0  0  # atno 17342 bound_to 10162
  139.4783  144.5423  151.8510 LP  0  0  0  0  0  0  0  0  0  0  0  0  # atno 17343 bound_to 10162
  156.1499  130.3642  149.9453 LP  0  0  0  0  0  0  0  0  0  0  0  0  # atno 17370 bound_to 10713
  156.7475  130.9103  151.3635 LP  0  0  0  0  0  0  0  0  0  0  0  0  # atno 17371 bound_to 10713
  140.0499  134.6146  155.8875 LP  0  0  0  0  0  0  0  0  0  0  0  0  # atno 17394 bound_to 11000
  141.1932  133.6578  156.5538 LP  0  0  0  0  0  0  0  0  0  0  0  0  # atno 17395 bound_to 11000

$$$$
