AV-unprocessed.smi:2869|AV-procd|sdf|11028|dock2
  -GOLD-   2272015493D 1   1.00000     0.00000
 Structure written by MMmdl.
 49 51  0  0  0  0  0  0  0  0  1 V2000
  148.2283  136.9375  160.5804 N   0  0  0  0  0  0  0  0  0  0  0  0
  148.7219  136.7996  159.5427 C   0  0  0  0  0  0  0  0  0  0  0  0
  149.3096  136.6083  158.2581 C   0  0  0  0  0  0  0  0  0  0  0  0
  149.4756  135.3792  157.7279 C   0  0  0  0  0  0  0  0  0  0  0  0
  150.0311  135.1779  156.4832 N   0  0  0  0  0  0  0  0  0  0  0  0
  150.3256  133.8578  156.0009 C   0  0  0  0  0  0  0  0  0  0  0  0
  149.9029  133.4352  154.6071 C   0  0  0  0  0  0  0  0  0  0  0  0
  149.1890  132.8768  155.8138 C   0  0  0  0  0  0  0  0  0  0  0  0
  150.5315  136.2718  155.7432 C   0  0  0  0  0  0  0  0  0  0  0  0
  151.1043  136.1034  154.6637 O   0  0  0  0  0  0  0  0  0  0  0  0
  150.3576  137.5701  156.2810 N   0  0  0  0  0  0  0  0  0  0  0  0
  150.8239  138.7336  155.4946 C   0  0  0  0  0  0  0  0  0  0  0  0
  151.7822  139.6535  156.2664 C   0  0  0  0  0  0  0  0  0  0  0  0
  152.9908  139.4190  156.3127 O   0  0  0  0  0  0  0  0  0  0  0  0
  151.2132  140.7091  156.8688 N   0  0  0  0  0  0  0  0  0  0  0  0
  151.9119  141.7305  157.6495 C   0  0  0  0  0  0  0  0  0  0  0  0
  152.0076  141.2113  159.1029 C   0  0  0  0  0  0  0  0  0  0  0  0
  153.2215  141.6672  159.9415 C   0  0  0  0  0  0  0  0  0  0  0  0
  153.4564  143.1779  160.1220 C   0  0  0  0  0  0  0  0  0  0  0  0
  152.1825  144.0104  160.3521 C   0  0  0  0  0  0  0  0  0  0  0  0
  151.8160  144.9398  159.1826 C   0  0  0  0  0  0  0  0  0  0  0  0
  151.9290  144.3493  157.7629 C   0  0  0  0  0  0  0  0  0  0  0  0
  151.1303  143.0627  157.4941 C   0  0  0  0  0  0  0  0  0  0  0  0
  149.7352  137.8039  157.5340 C   0  0  0  0  0  0  0  0  0  0  0  0
  149.5776  138.9491  157.9610 O   0  0  0  0  0  0  0  0  0  0  0  0
  149.1544  134.5173  158.2951 H   0  0  0  0  0  0  0  0  0  0  0  0
  151.2620  133.4333  156.3590 H   0  0  0  0  0  0  0  0  0  0  0  0
  149.3566  134.1500  153.9944 H   0  0  0  0  0  0  0  0  0  0  0  0
  150.5688  132.7690  154.0625 H   0  0  0  0  0  0  0  0  0  0  0  0
  149.3765  131.8368  156.0725 H   0  0  0  0  0  0  0  0  0  0  0  0
  148.1739  133.2256  155.9951 H   0  0  0  0  0  0  0  0  0  0  0  0
  151.3184  138.4071  154.5783 H   0  0  0  0  0  0  0  0  0  0  0  0
  149.9846  139.3332  155.1390 H   0  0  0  0  0  0  0  0  0  0  0  0
  150.2140  140.8191  156.7756 H   0  0  0  0  0  0  0  0  0  0  0  0
  152.9214  141.8401  157.2489 H   0  0  0  0  0  0  0  0  0  0  0  0
  151.0749  141.4122  159.6293 H   0  0  0  0  0  0  0  0  0  0  0  0
  152.0694  140.1218  159.0789 H   0  0  0  0  0  0  0  0  0  0  0  0
  153.1152  141.2232  160.9320 H   0  0  0  0  0  0  0  0  0  0  0  0
  154.1278  141.2258  159.5253 H   0  0  0  0  0  0  0  0  0  0  0  0
  154.1156  143.3081  160.9813 H   0  0  0  0  0  0  0  0  0  0  0  0
  154.0336  143.5672  159.2847 H   0  0  0  0  0  0  0  0  0  0  0  0
  151.3357  143.3737  160.6034 H   0  0  0  0  0  0  0  0  0  0  0  0
  152.3249  144.6314  161.2374 H   0  0  0  0  0  0  0  0  0  0  0  0
  150.8023  145.3110  159.3382 H   0  0  0  0  0  0  0  0  0  0  0  0
  152.4585  145.8197  159.2273 H   0  0  0  0  0  0  0  0  0  0  0  0
  151.5579  145.1160  157.0816 H   0  0  0  0  0  0  0  0  0  0  0  0
  152.9698  144.2128  157.4712 H   0  0  0  0  0  0  0  0  0  0  0  0
  150.7962  143.1343  156.4576 H   0  0  0  0  0  0  0  0  0  0  0  0
  150.2125  143.0488  158.0831 H   0  0  0  0  0  0  0  0  0  0  0  0
  1  2  3  0  0  0  0
  2  3  1  0  0  0  0
  3 24  1  0  0  0  0
  3  4  2  0  0  0  0
  4  5  1  0  0  0  0
  4 26  1  0  0  0  0
  5  6  1  0  0  0  0
  5  9  1  0  0  0  0
  6  8  1  0  0  0  0
  6  7  1  0  0  0  0
  6 27  1  0  0  0  0
  7  8  1  0  0  0  0
  7 28  1  0  0  0  0
  7 29  1  0  0  0  0
  8 30  1  0  0  0  0
  8 31  1  0  0  0  0
  9 10  2  0  0  0  0
  9 11  1  0  0  0  0
 11 12  1  0  0  0  0
 11 24  1  0  0  0  0
 12 13  1  0  0  0  0
 12 32  1  0  0  0  0
 12 33  1  0  0  0  0
 13 14  2  0  0  0  0
 13 15  1  0  0  0  0
 15 16  1  0  0  0  0
 15 34  1  0  0  0  0
 16 23  1  0  0  0  0
 16 17  1  0  0  0  0
 16 35  1  0  0  0  0
 17 18  1  0  0  0  0
 17 36  1  0  0  0  0
 17 37  1  0  0  0  0
 18 19  1  0  0  0  0
 18 38  1  0  0  0  0
 18 39  1  0  0  0  0
 19 20  1  0  0  0  0
 19 40  1  0  0  0  0
 19 41  1  0  0  0  0
 20 21  1  0  0  0  0
 20 42  1  0  0  0  0
 20 43  1  0  0  0  0
 21 22  1  0  0  0  0
 21 44  1  0  0  0  0
 21 45  1  0  0  0  0
 22 23  1  0  0  0  0
 22 46  1  0  0  0  0
 22 47  1  0  0  0  0
 23 48  1  0  0  0  0
 23 49  1  0  0  0  0
 24 25  2  0  0  0  0
M  END
> <s_m_source_file>
AV-unprocessed.smi

> <i_m_source_file_index>
2869

> <i_lp_mmshare_version>
43012

> <i_f3d_flags>
0

> <s_epik_input>
TiNDYzFbY0hdbihbQ0hdMltDSDJdW0NIMl0yKWMoPU8pbihjMT1PKVtDSDJdQyg9TylbTkhdW0NIXTNbQ0gyXVtDSDJdW0NIMl1bQ0gyXVtDSDJdW0NIMl1bQ0gyXTM=

> <s_epik_cmdline>
J2VwaWtfcHl0aG9uJywgJy1waCcsICc3LjAnLCAnLXRuJywgJzgnLCAnLW1hJywgJzIwMCcsICctbWV0YWxfYmluZGluZycsICctaW1hZScsICc8aW5maWxlLm1hZT4nLCAnLW9tYWUnLCAnPG91dGZpbGUubWFlPic=

> <r_lp_tautomer_probability>
1

> <r_epik_Ionization_Penalty>
2.03018e-08

> <r_epik_Ionization_Penalty_Charging>
8.701e-11

> <r_epik_Ionization_Penalty_Neutral>
2.02148e-08

> <r_epik_State_Penalty>
-0

> <r_epik_Charging_Adjusted_Penalty>
8.701e-11

> <i_epik_Tot_Q>
0

> <i_epik_Tot_abs_Q>
0

> <r_epik_Metal_State_Penalty>
-0

> <b_epik_Metal_Only>
0

> <s_lp_Force_Field>
OPLS_2005

> <r_lp_Energy>
47.5685

> <b_lp_Chiralities_Consistent>
1

> <s_lp_Variant>
AV-unprocessed.smi:2869-1

> <Gold.Version>
5.8.1

> <Gold.Id.Protein>
6NUR|6NUR_protein|mol2

> <Gold.PLP.Fitness>
53.5868

> <Gold.PLP.PLP>
-44.5929

> <Gold.PLP.part.hbond>
-4.0000

> <Gold.PLP.part.metal>
0.0000

> <Gold.PLP.part.buried>
-7.4156

> <Gold.PLP.part.nonpolar>
-33.3722

> <Gold.PLP.part.repulsive>
0.2634

> <Gold.PLP.ligand.clash>
0.0000

> <Gold.PLP.ligand.torsion>
0.8525

> <Gold.PLP.Chemscore.Hbond>
3.4899

> <Gold.PLP.Chemscore.CHOScore>
0.0000

> <Gold.PLP.Chemscore.Metal>
0.0000

> <Gold.Chemscore.Hbonds>
donor molecule, donor type, donor heavy atom, donor atom, acceptor molecule, acceptor atom, score
      P1  H  6931  6943       L1     1  0.88
      P1  H  6934  6947       L1     1  0.14
      P1  H  7997  8010       L1    14  1.00
      P1  H 10752 10765       L1    10  1.00

> <Gold.PLP.Chemscore.Internal.Correction>
0.2290

> <Gold.Rescore>
     Score         DG    S(hbond)    S(metal)    S(lipo)     H(rot)  DE(clash)    DE(int)     intcor
     19.52     -23.78       2.93        0.00     109.53       1.68       0.00       4.26       ----

> <Gold.Chemscore.Fitness>
19.5160

> <Gold.Chemscore.DG>
-23.7805

> <Gold.Chemscore.ZeroCoef>
-5.4800

> <Gold.Chemscore.Hbond>
2.9320

> <Gold.Chemscore.Metal>
0.0000

> <Gold.Chemscore.Lipo>
109.5316

> <Gold.Chemscore.Internal_Hbond>
0.0000

> <Gold.Chemscore.DEClash>
0.0000

> <Gold.Chemscore.DEInternal>
4.2645

> <Gold.Chemscore.Rot>
1.6826

> <Gold.Chemscore.Internal.Correction>
   9.000000E+99

> <Gold.Chemscore.Hbonds>
donor molecule, donor type, donor heavy atom, donor atom, acceptor molecule, acceptor atom, score
      P1  H  6931  6943       L1     1  0.78
      P1  H  6934  6947       L1     1  0.14
      P1  H  7997  8010       L1    14  0.93
      P1  H 10752 10765       L1    10  0.89

> <Gold.Chemscore.Hbond.Weighted>
-9.7929

> <Gold.Chemscore.Metal.Weighted>
-0.0000

> <Gold.Chemscore.Lipo.Weighted>
-12.8152

> <Gold.Chemscore.Internal_Hbond.Weighted>
0.0000

> <Gold.Chemscore.DEClash.Weighted>
0.0000

> <Gold.Chemscore.DEInternal.Weighted>
4.2645

> <Gold.Chemscore.Rot.Weighted>
4.3076

> <Gold.Chemscore.Internal.Correction.Weighted>
   9.000000E+99

> <Gold.Protein.RotatedTorsions>
[ 6907 6896 6895 6894 ] final   39.34 input  -60.11 | X-H torsion
[ 7974 7965 7964 7962 ] final -175.86 input  175.53 | X-H torsion
[ 8008 7997 7996 7995 ] final   65.62 input   59.86 | X-H torsion
[ 10167 10162 10161 10158 ] final  108.93 input  -65.29 | X-H torsion
[ 10718 10713 10712 10709 ] final  -31.43 input   66.30 | X-H torsion
[ 10763 10752 10751 10750 ] final -168.96 input  -60.55 | X-H torsion
[ 11005 11000 10999 10996 ] final   95.64 input  -57.11 | X-H torsion

> <Gold.Protein.ActiveResidues>
 VAL166  LYS551  ARG553  GLY616  TRP617  ASP618  TYR619  PRO620  LYS621  CYS622 
 ASP623  PHE694  ASN695  SER759  ASP760  ASP761  ALA762  ILE779  LEU786  VAL792 
 PHE793  MET794  SER795  GLU796  ALA797  LYS798  CYS799  TRP800  GLU811  SER814 

> <Gold.Protein.RotatedAtoms>
  152.1682  134.8856  160.0536 H   0  0  0  0  0  0  0  0  0  0  0  0  # atno 6907 bound_to 6896
  151.9826  133.3758  159.4121 H   0  0  0  0  0  0  0  0  0  0  0  0  # atno 6908 bound_to 6896
  150.6898  134.3945  159.5135 H   0  0  0  0  0  0  0  0  0  0  0  0  # atno 6909 bound_to 6896
  144.7127  140.1257  143.6402 H   0  0  0  0  0  0  0  0  0  0  0  0  # atno 7974 bound_to 7965
  155.6646  140.3497  155.4795 H   0  0  0  0  0  0  0  0  0  0  0  0  # atno 8008 bound_to 7997
  155.9740  140.1161  157.0810 H   0  0  0  0  0  0  0  0  0  0  0  0  # atno 8009 bound_to 7997
  154.4173  140.1151  156.5331 H   0  0  0  0  0  0  0  0  0  0  0  0  # atno 8010 bound_to 7997
  139.6807  144.7118  151.1521 H   0  0  0  0  0  0  0  0  0  0  0  0  # atno 10167 bound_to 10162
  156.3874  130.4366  149.7421 H   0  0  0  0  0  0  0  0  0  0  0  0  # atno 10718 bound_to 10713
  154.6573  135.2920  154.9911 H   0  0  0  0  0  0  0  0  0  0  0  0  # atno 10763 bound_to 10752
  154.0983  135.6580  153.4868 H   0  0  0  0  0  0  0  0  0  0  0  0  # atno 10764 bound_to 10752
  153.0410  135.5236  154.7508 H   0  0  0  0  0  0  0  0  0  0  0  0  # atno 10765 bound_to 10752
  139.8787  134.8909  156.4041 H   0  0  0  0  0  0  0  0  0  0  0  0  # atno 11005 bound_to 11000
  145.9331  139.2619  143.1313 LP  0  0  0  0  0  0  0  0  0  0  0  0  # atno 17320 bound_to 7965
  145.9502  140.8915  143.0263 LP  0  0  0  0  0  0  0  0  0  0  0  0  # atno 17321 bound_to 7965
  140.7651  143.5704  150.9002 LP  0  0  0  0  0  0  0  0  0  0  0  0  # atno 17342 bound_to 10162
  139.9375  143.6420  152.3061 LP  0  0  0  0  0  0  0  0  0  0  0  0  # atno 17343 bound_to 10162
  156.4488  130.7897  151.2918 LP  0  0  0  0  0  0  0  0  0  0  0  0  # atno 17370 bound_to 10713
  157.7497  131.0102  150.3296 LP  0  0  0  0  0  0  0  0  0  0  0  0  # atno 17371 bound_to 10713
  140.9246  133.7621  155.9949 LP  0  0  0  0  0  0  0  0  0  0  0  0  # atno 17394 bound_to 11000
  140.8400  134.3077  157.5317 LP  0  0  0  0  0  0  0  0  0  0  0  0  # atno 17395 bound_to 11000

$$$$
