AV-unprocessed.smi:921|AV-procd|sdf|4170|dock6
  -GOLD-   22720 2 73D 1   1.00000     0.00000
 Structure written by MMmdl.
 39 41  0  0  0  0  0  0  0  0  1 V2000
  154.2710  136.9638  158.7256 N   0  0  0  0  0  0  0  0  0  0  0  0
  154.0290  138.2627  158.9228 C   0  0  0  0  0  0  0  0  0  0  0  0
  154.9117  139.1136  158.8318 O   0  0  0  0  0  0  0  0  0  0  0  0
  152.5888  138.6621  159.2684 C   0  0  0  0  0  0  0  0  0  0  0  0
  152.4244  140.1533  159.1031 C   0  0  0  0  0  0  0  0  0  0  0  0
  153.0577  141.0247  159.8954 N   0  0  0  0  0  0  0  0  0  0  0  0
  152.6428  142.2473  159.4095 C   0  0  0  0  0  0  0  0  0  0  0  0
  152.9755  143.5591  159.8171 C   0  0  0  0  0  0  0  0  0  0  0  0
  152.4158  144.6740  159.1597 C   0  0  0  0  0  0  0  0  0  0  0  0
  151.5162  144.4936  158.0893 C   0  0  0  0  0  0  0  0  0  0  0  0
  151.1703  143.1948  157.6693 C   0  0  0  0  0  0  0  0  0  0  0  0
  151.7338  142.0850  158.3280 C   0  0  0  0  0  0  0  0  0  0  0  0
  151.6046  140.7086  158.1693 N   0  0  0  0  0  0  0  0  0  0  0  0
  150.7448  140.0582  157.1880 C   0  0  0  0  0  0  0  0  0  0  0  0
  150.8749  140.6726  155.7797 C   0  0  1  0  0  0  0  0  0  0  0  0
  152.0057  140.1499  155.1132 O   0  0  0  0  0  0  0  0  0  0  0  0
  149.5970  140.4962  154.9714 C   0  0  0  0  0  0  0  0  0  0  0  0
  148.7575  141.6090  154.7469 C   0  0  0  0  0  0  0  0  0  0  0  0
  147.5687  141.4668  154.0059 C   0  0  0  0  0  0  0  0  0  0  0  0
  146.7704  142.5400  153.7957 F   0  0  0  0  0  0  0  0  0  0  0  0
  147.2097  140.2097  153.4846 C   0  0  0  0  0  0  0  0  0  0  0  0
  148.0393  139.0944  153.7077 C   0  0  0  0  0  0  0  0  0  0  0  0
  149.2287  139.2336  154.4497 C   0  0  0  0  0  0  0  0  0  0  0  0
  150.0092  138.1465  154.6596 F   0  0  0  0  0  0  0  0  0  0  0  0
  155.2072  136.6574  158.5045 H   0  0  0  0  0  0  0  0  0  0  0  0
  153.5209  136.2927  158.8064 H   0  0  0  0  0  0  0  0  0  0  0  0
  151.9196  138.1023  158.6182 H   0  0  0  0  0  0  0  0  0  0  0  0
  152.3446  138.3880  160.2955 H   0  0  0  0  0  0  0  0  0  0  0  0
  153.6635  143.7070  160.6362 H   0  0  0  0  0  0  0  0  0  0  0  0
  152.6779  145.6723  159.4784 H   0  0  0  0  0  0  0  0  0  0  0  0
  151.0914  145.3525  157.5908 H   0  0  0  0  0  0  0  0  0  0  0  0
  150.4812  143.0538  156.8500 H   0  0  0  0  0  0  0  0  0  0  0  0
  150.9328  138.9858  157.1798 H   0  0  0  0  0  0  0  0  0  0  0  0
  149.7149  140.1642  157.5311 H   0  0  0  0  0  0  0  0  0  0  0  0
  151.0594  141.7418  155.8914 H   0  0  0  0  0  0  0  0  0  0  0  0
  152.7819  140.4115  155.5844 H   0  0  0  0  0  0  0  0  0  0  0  0
  149.0214  142.5786  155.1435 H   0  0  0  0  0  0  0  0  0  0  0  0
  146.2980  140.1006  152.9159 H   0  0  0  0  0  0  0  0  0  0  0  0
  147.7626  138.1292  153.3103 H   0  0  0  0  0  0  0  0  0  0  0  0
  1  2  1  0  0  0  0
  1 25  1  0  0  0  0
  1 26  1  0  0  0  0
  2  3  2  0  0  0  0
  2  4  1  0  0  0  0
  4  5  1  0  0  0  0
  4 27  1  0  0  0  0
  4 28  1  0  0  0  0
  5 13  1  0  0  0  0
  5  6  2  0  0  0  0
  6  7  1  0  0  0  0
  7 12  2  0  0  0  0
  7  8  1  0  0  0  0
  8  9  2  0  0  0  0
  8 29  1  0  0  0  0
  9 10  1  0  0  0  0
  9 30  1  0  0  0  0
 10 11  2  0  0  0  0
 10 31  1  0  0  0  0
 11 12  1  0  0  0  0
 11 32  1  0  0  0  0
 12 13  1  0  0  0  0
 13 14  1  0  0  0  0
 14 15  1  0  0  0  0
 14 33  1  0  0  0  0
 14 34  1  0  0  0  0
 15 16  1  0  0  0  0
 15 17  1  0  0  0  0
 15 35  1  0  0  0  0
 16 36  1  0  0  0  0
 17 23  1  0  0  0  0
 17 18  2  0  0  0  0
 18 19  1  0  0  0  0
 18 37  1  0  0  0  0
 19 20  1  0  0  0  0
 19 21  2  0  0  0  0
 21 22  1  0  0  0  0
 21 38  1  0  0  0  0
 22 23  2  0  0  0  0
 22 39  1  0  0  0  0
 23 24  1  0  0  0  0
M  END
> <s_m_source_file>
AV-unprocessed.smi

> <i_m_source_file_index>
921

> <i_lp_mmshare_version>
43012

> <i_f3d_flags>
0

> <s_epik_input>
W2NIXTFbY0hdW2NIXVtjSF1jKGMxMiluKGMobjIpW0NIMl1DKD1PKVtOSDJdKVtDSDJdW0NASF0oW09IXSljM1tjSF1jKEYpW2NIXVtjSF1jM0Y=

> <s_epik_cmdline>
J2VwaWtfcHl0aG9uJywgJy1waCcsICc3LjAnLCAnLXRuJywgJzgnLCAnLW1hJywgJzIwMCcsICctbWV0YWxfYmluZGluZycsICctaW1hZScsICc8aW5maWxlLm1hZT4nLCAnLW9tYWUnLCAnPG91dGZpbGUubWFlPic=

> <r_epik_Ionization_Penalty>
0.0366909

> <r_epik_Ionization_Penalty_Charging>
0

> <r_epik_Ionization_Penalty_Neutral>
0.0366909

> <r_epik_State_Penalty>
0.0306642

> <r_epik_Charging_Adjusted_Penalty>
0.0306642

> <i_epik_Tot_Q>
0

> <i_epik_Tot_abs_Q>
0

> <r_epik_Metal_State_Penalty>
0.028853

> <b_epik_Metal_Only>
0

> <s_lp_Force_Field>
OPLS_2005

> <r_lp_Energy>
12.6205

> <b_lp_Chiralities_Consistent>
1

> <s_lp_Variant>
AV-unprocessed.smi:921-2

> <Gold.Version>
5.8.1

> <Gold.Id.Protein>
6NUR|6NUR_protein|mol2

> <Gold.PLP.Fitness>
56.6619

> <Gold.PLP.PLP>
-52.8583

> <Gold.PLP.part.hbond>
-2.0000

> <Gold.PLP.part.metal>
0.0000

> <Gold.PLP.part.buried>
-5.4137

> <Gold.PLP.part.nonpolar>
-45.9826

> <Gold.PLP.part.repulsive>
0.1048

> <Gold.PLP.ligand.clash>
0.0000

> <Gold.PLP.ligand.torsion>
0.8699

> <Gold.PLP.Chemscore.Hbond>
1.8160

> <Gold.PLP.Chemscore.CHOScore>
0.0000

> <Gold.PLP.Chemscore.Metal>
0.0000

> <Gold.Chemscore.Hbonds>
donor molecule, donor type, donor heavy atom, donor atom, acceptor molecule, acceptor atom, score
      P1  H  7989  7998       L1    16  0.67
      P1  H  7997  8008       L1     3  1.00

> <Gold.PLP.Chemscore.Internal.Correction>
0.0954

> <Gold.Rescore>
     Score         DG    S(hbond)    S(metal)    S(lipo)     H(rot)  DE(clash)    DE(int)     intcor
     13.79     -17.18       1.55        0.00     123.75       3.11       0.01       3.38       ----

> <Gold.Chemscore.Fitness>
13.7948

> <Gold.Chemscore.DG>
-17.1834

> <Gold.Chemscore.ZeroCoef>
-5.4800

> <Gold.Chemscore.Hbond>
1.5543

> <Gold.Chemscore.Metal>
0.0000

> <Gold.Chemscore.Lipo>
123.7513

> <Gold.Chemscore.Internal_Hbond>
0.0000

> <Gold.Chemscore.DEClash>
0.0071

> <Gold.Chemscore.DEInternal>
3.3815

> <Gold.Chemscore.Rot>
3.1121

> <Gold.Chemscore.Internal.Correction>
   9.000000E+99

> <Gold.Chemscore.Hbonds>
donor molecule, donor type, donor heavy atom, donor atom, acceptor molecule, acceptor atom, score
      P1  H  7989  7998       L1    16  0.11
      P1  H  7997  8008       L1     3  1.00

> <Gold.Chemscore.Hbond.Weighted>
-5.1915

> <Gold.Chemscore.Metal.Weighted>
-0.0000

> <Gold.Chemscore.Lipo.Weighted>
-14.4789

> <Gold.Chemscore.Internal_Hbond.Weighted>
0.0000

> <Gold.Chemscore.DEClash.Weighted>
0.0071

> <Gold.Chemscore.DEInternal.Weighted>
3.3815

> <Gold.Chemscore.Rot.Weighted>
7.9670

> <Gold.Chemscore.Internal.Correction.Weighted>
   9.000000E+99

> <Gold.Protein.RotatedTorsions>
[ 6907 6896 6895 6894 ] final   57.73 input  -60.11 | X-H torsion
[ 7974 7965 7964 7962 ] final -117.39 input  175.53 | X-H torsion
[ 8008 7997 7996 7995 ] final -128.41 input   59.86 | X-H torsion
[ 10167 10162 10161 10158 ] final  -29.89 input  -65.29 | X-H torsion
[ 10718 10713 10712 10709 ] final    2.42 input   66.30 | X-H torsion
[ 10763 10752 10751 10750 ] final   82.71 input  -60.55 | X-H torsion
[ 11005 11000 10999 10996 ] final  -94.42 input  -57.11 | X-H torsion

> <Gold.Protein.ActiveResidues>
 VAL166  LYS551  ARG553  GLY616  TRP617  ASP618  TYR619  PRO620  LYS621  CYS622 
 ASP623  PHE694  ASN695  SER759  ASP760  ASP761  ALA762  ILE779  LEU786  VAL792 
 PHE793  MET794  SER795  GLU796  ALA797  LYS798  CYS799  TRP800  GLU811  SER814 

> <Gold.Protein.RotatedAtoms>
  152.3758  134.6665  160.0159 H   0  0  0  0  0  0  0  0  0  0  0  0  # atno 6907 bound_to 6896
  151.6944  133.3305  159.3259 H   0  0  0  0  0  0  0  0  0  0  0  0  # atno 6908 bound_to 6896
  150.7709  134.6606  159.6382 H   0  0  0  0  0  0  0  0  0  0  0  0  # atno 6909 bound_to 6896
  145.0858  140.8456  143.4012 H   0  0  0  0  0  0  0  0  0  0  0  0  # atno 7974 bound_to 7965
  155.2623  140.0436  157.2998 H   0  0  0  0  0  0  0  0  0  0  0  0  # atno 8008 bound_to 7997
  154.5703  140.2372  155.8171 H   0  0  0  0  0  0  0  0  0  0  0  0  # atno 8009 bound_to 7997
  156.2117  140.2997  155.9756 H   0  0  0  0  0  0  0  0  0  0  0  0  # atno 8010 bound_to 7997
  140.7255  143.3892  151.1460 H   0  0  0  0  0  0  0  0  0  0  0  0  # atno 10167 bound_to 10162
  156.8628  130.5592  149.5662 H   0  0  0  0  0  0  0  0  0  0  0  0  # atno 10718 bound_to 10713
  153.1226  135.4718  154.9220 H   0  0  0  0  0  0  0  0  0  0  0  0  # atno 10763 bound_to 10752
  154.7590  135.3126  154.8417 H   0  0  0  0  0  0  0  0  0  0  0  0  # atno 10764 bound_to 10752
  153.8978  135.6878  153.4810 H   0  0  0  0  0  0  0  0  0  0  0  0  # atno 10765 bound_to 10752
  141.1471  133.7955  157.0296 H   0  0  0  0  0  0  0  0  0  0  0  0  # atno 11005 bound_to 11000
  145.1124  139.2748  143.5630 LP  0  0  0  0  0  0  0  0  0  0  0  0  # atno 17320 bound_to 7965
  146.3531  140.0724  142.8622 LP  0  0  0  0  0  0  0  0  0  0  0  0  # atno 17321 bound_to 7965
  139.7495  143.8801  152.3073 LP  0  0  0  0  0  0  0  0  0  0  0  0  # atno 17342 bound_to 10162
  139.8649  144.7098  150.9055 LP  0  0  0  0  0  0  0  0  0  0  0  0  # atno 17343 bound_to 10162
  156.0768  130.5788  150.9488 LP  0  0  0  0  0  0  0  0  0  0  0  0  # atno 17370 bound_to 10713
  157.6240  131.0927  150.8568 LP  0  0  0  0  0  0  0  0  0  0  0  0  # atno 17371 bound_to 10713
  140.0763  134.9674  157.1550 LP  0  0  0  0  0  0  0  0  0  0  0  0  # atno 17394 bound_to 11000
  140.3640  134.2463  155.7184 LP  0  0  0  0  0  0  0  0  0  0  0  0  # atno 17395 bound_to 11000

$$$$
