AV-unprocessed.smi:1643|AV-procd|sdf|6574|dock2
  -GOLD-   22720 7263D 1   1.00000     0.00000
 Structure written by MMmdl.
 54 56  0  0  0  0  0  0  0  0  2 V2000
  143.0347  139.7865  155.6673 C   0  0  0  0  0  0  0  0  0  0  0  0
  142.9859  141.2890  155.3773 C   0  0  0  0  0  0  0  0  0  0  0  0
  142.0569  141.7150  154.6915 O   0  0  0  0  0  0  0  0  0  0  0  0
  143.9499  142.0966  155.8844 N   0  0  0  0  0  0  0  0  0  0  0  0
  143.8913  143.5565  155.7191 C   0  0  0  0  0  0  0  0  0  0  0  0
  144.8009  144.0571  154.5730 C   0  0  0  0  0  0  0  0  0  0  0  0
  145.7751  143.0130  153.9799 C   0  0  0  0  0  0  0  0  0  0  0  0
  146.8166  142.4984  154.9193 N   0  3  2  0  0  0  0  0  0  0  0  0
  147.4633  141.2470  154.4377 C   0  0  0  0  0  0  0  0  0  0  0  0
  148.5745  140.7406  155.3787 C   0  0  1  0  0  0  0  0  0  0  0  0
  148.9367  139.4274  154.9959 O   0  0  0  0  0  0  0  0  0  0  0  0
  149.8203  141.6461  155.3361 C   0  0  0  0  0  0  0  0  0  0  0  0
  150.8036  141.2789  156.3392 N   0  0  0  0  0  0  0  0  0  0  0  0
  151.6552  140.2359  156.3041 C   0  0  0  0  0  0  0  0  0  0  0  0
  152.4755  140.0849  157.3399 N   0  0  0  0  0  0  0  0  0  0  0  0
  152.1171  141.1569  158.1390 C   0  0  0  0  0  0  0  0  0  0  0  0
  152.6117  141.5711  159.3950 C   0  0  0  0  0  0  0  0  0  0  0  0
  152.0887  142.7153  160.0386 C   0  0  0  0  0  0  0  0  0  0  0  0
  152.6489  143.1236  161.3897 C   0  0  0  0  0  0  0  0  0  0  0  0
  151.0539  143.4657  159.4242 C   0  0  0  0  0  0  0  0  0  0  0  0
  150.4761  144.6983  160.0973 C   0  0  0  0  0  0  0  0  0  0  0  0
  150.5490  143.0666  158.1691 C   0  0  0  0  0  0  0  0  0  0  0  0
  151.0765  141.9251  157.5400 C   0  0  0  0  0  0  0  0  0  0  0  0
  146.4230  142.4125  156.3556 C   0  0  0  0  0  0  0  0  0  0  0  0
  145.1238  141.6129  156.6329 C   0  0  0  0  0  0  0  0  0  0  0  0
  143.1559  139.5967  156.7342 H   0  0  0  0  0  0  0  0  0  0  0  0
  143.8566  139.3169  155.1266 H   0  0  0  0  0  0  0  0  0  0  0  0
  142.1093  139.3050  155.3491 H   0  0  0  0  0  0  0  0  0  0  0  0
  142.8708  143.9082  155.5577 H   0  0  0  0  0  0  0  0  0  0  0  0
  144.1815  144.0283  156.6585 H   0  0  0  0  0  0  0  0  0  0  0  0
  144.1601  144.4074  153.7630 H   0  0  0  0  0  0  0  0  0  0  0  0
  145.3550  144.9364  154.9032 H   0  0  0  0  0  0  0  0  0  0  0  0
  145.2064  142.1823  153.5595 H   0  0  0  0  0  0  0  0  0  0  0  0
  146.2844  143.4744  153.1342 H   0  0  0  0  0  0  0  0  0  0  0  0
  146.7175  140.4577  154.3314 H   0  0  0  0  0  0  0  0  0  0  0  0
  147.8648  141.4180  153.4376 H   0  0  0  0  0  0  0  0  0  0  0  0
  148.2128  140.7088  156.4057 H   0  0  0  0  0  0  0  0  0  0  0  0
  148.4129  139.1718  154.2517 H   0  0  0  0  0  0  0  0  0  0  0  0
  150.2900  141.6095  154.3520 H   0  0  0  0  0  0  0  0  0  0  0  0
  149.5368  142.6852  155.5084 H   0  0  0  0  0  0  0  0  0  0  0  0
  151.6717  139.5457  155.4732 H   0  0  0  0  0  0  0  0  0  0  0  0
  153.3998  140.9994  159.8629 H   0  0  0  0  0  0  0  0  0  0  0  0
  153.0306  144.1443  161.3541 H   0  0  0  0  0  0  0  0  0  0  0  0
  153.4689  142.4724  161.6943 H   0  0  0  0  0  0  0  0  0  0  0  0
  151.8745  143.0690  162.1552 H   0  0  0  0  0  0  0  0  0  0  0  0
  149.6793  145.1415  159.4994 H   0  0  0  0  0  0  0  0  0  0  0  0
  151.2490  145.4545  160.2374 H   0  0  0  0  0  0  0  0  0  0  0  0
  150.0600  144.4428  161.0722 H   0  0  0  0  0  0  0  0  0  0  0  0
  149.7617  143.6295  157.6903 H   0  0  0  0  0  0  0  0  0  0  0  0
  147.2403  141.9740  156.9292 H   0  0  0  0  0  0  0  0  0  0  0  0
  146.3435  143.4248  156.7516 H   0  0  0  0  0  0  0  0  0  0  0  0
  144.8906  141.6550  157.6976 H   0  0  0  0  0  0  0  0  0  0  0  0
  145.3389  140.5679  156.4128 H   0  0  0  0  0  0  0  0  0  0  0  0
  147.5516  143.1917  154.9089 H   0  0  0  0  0  0  0  0  0  0  0  0
  1  2  1  0  0  0  0
  1 26  1  0  0  0  0
  1 27  1  0  0  0  0
  1 28  1  0  0  0  0
  2  3  2  0  0  0  0
  2  4  1  0  0  0  0
  4 25  1  0  0  0  0
  4  5  1  0  0  0  0
  5  6  1  0  0  0  0
  5 29  1  0  0  0  0
  5 30  1  0  0  0  0
  6  7  1  0  0  0  0
  6 31  1  0  0  0  0
  6 32  1  0  0  0  0
  7  8  1  0  0  0  0
  7 33  1  0  0  0  0
  7 34  1  0  0  0  0
  8  9  1  0  0  0  0
  8 24  1  0  0  0  0
  8 54  1  0  0  0  0
  9 10  1  0  0  0  0
  9 35  1  0  0  0  0
  9 36  1  0  0  0  0
 10 11  1  0  0  0  0
 10 12  1  0  0  0  0
 10 37  1  0  0  0  0
 11 38  1  0  0  0  0
 12 13  1  0  0  0  0
 12 39  1  0  0  0  0
 12 40  1  0  0  0  0
 13 23  1  0  0  0  0
 13 14  1  0  0  0  0
 14 15  2  0  0  0  0
 14 41  1  0  0  0  0
 15 16  1  0  0  0  0
 16 23  2  0  0  0  0
 16 17  1  0  0  0  0
 17 18  2  0  0  0  0
 17 42  1  0  0  0  0
 18 19  1  0  0  0  0
 18 20  1  0  0  0  0
 19 43  1  0  0  0  0
 19 44  1  0  0  0  0
 19 45  1  0  0  0  0
 20 21  1  0  0  0  0
 20 22  2  0  0  0  0
 21 46  1  0  0  0  0
 21 47  1  0  0  0  0
 21 48  1  0  0  0  0
 22 23  1  0  0  0  0
 22 49  1  0  0  0  0
 24 25  1  0  0  0  0
 24 50  1  0  0  0  0
 24 51  1  0  0  0  0
 25 52  1  0  0  0  0
 25 53  1  0  0  0  0
M  CHG  1   8   1
M  END
> <s_m_source_file>
AV-unprocessed.smi

> <i_m_source_file_index>
1643

> <i_lp_mmshare_version>
43012

> <i_f3d_flags>
0

> <s_epik_input>
W0NIM11DKD1PKU4xW0NIMl1bQ0gyXVtDSDJdTihbQ0gyXVtDSDJdMSlbQ0gyXVtDQEhdKFtPSF0pW0NIMl1uKFtjSF1uMiljKGMyMylbY0hdYyhbQ0gzXSljKFtjSF0zKVtDSDNd

> <s_epik_cmdline>
J2VwaWtfcHl0aG9uJywgJy1waCcsICc3LjAnLCAnLXRuJywgJzgnLCAnLW1hJywgJzIwMCcsICctbWV0YWxfYmluZGluZycsICctaW1hZScsICc8aW5maWxlLm1hZT4nLCAnLW9tYWUnLCAnPG91dGZpbGUubWFlPic=

> <r_epik_Ionization_Penalty>
0.189467

> <r_epik_Ionization_Penalty_Charging>
0.101761

> <r_epik_Ionization_Penalty_Neutral>
0.0877056

> <r_epik_State_Penalty>
0.170758

> <r_epik_Charging_Adjusted_Penalty>
0.272519

> <i_epik_Tot_Q>
1

> <i_epik_Tot_abs_Q>
1

> <r_epik_Metal_State_Penalty>
0.0948013

> <b_epik_Metal_Only>
0

> <s_lp_Force_Field>
OPLS_2005

> <r_lp_Energy>
48.7512

> <b_lp_Chiralities_Consistent>
1

> <s_lp_Variant>
AV-unprocessed.smi:1643-3

> <Gold.Version>
5.8.1

> <Gold.Id.Protein>
6NUR|6NUR_protein|mol2

> <Gold.PLP.Fitness>
52.0349

> <Gold.PLP.PLP>
-43.5288

> <Gold.PLP.part.hbond>
-2.0000

> <Gold.PLP.part.metal>
0.0000

> <Gold.PLP.part.buried>
-7.1521

> <Gold.PLP.part.nonpolar>
-35.4399

> <Gold.PLP.part.repulsive>
1.3629

> <Gold.PLP.ligand.clash>
0.0000

> <Gold.PLP.ligand.torsion>
0.3431

> <Gold.PLP.Chemscore.Hbond>
3.0000

> <Gold.PLP.Chemscore.CHOScore>
0.0000

> <Gold.PLP.Chemscore.Metal>
0.0000

> <Gold.Chemscore.Hbonds>
donor molecule, donor type, donor heavy atom, donor atom, acceptor molecule, acceptor atom, score
      L1  H     8    54       P1  8028  1.56
      P1  H  7997  8009       L1    15  1.00

> <Gold.PLP.Chemscore.Internal.Correction>
0.1922

> <Gold.Rescore>
     Score         DG    S(hbond)    S(metal)    S(lipo)     H(rot)  DE(clash)    DE(int)     intcor
     16.88     -17.39       1.26        0.00     112.21       2.12       0.10       0.41       ----

> <Gold.Chemscore.Fitness>
16.8755

> <Gold.Chemscore.DG>
-17.3875

> <Gold.Chemscore.ZeroCoef>
-5.4800

> <Gold.Chemscore.Hbond>
1.2576

> <Gold.Chemscore.Metal>
0.0000

> <Gold.Chemscore.Lipo>
112.2092

> <Gold.Chemscore.Internal_Hbond>
0.0000

> <Gold.Chemscore.DEClash>
0.0988

> <Gold.Chemscore.DEInternal>
0.4132

> <Gold.Chemscore.Rot>
2.1178

> <Gold.Chemscore.Internal.Correction>
   9.000000E+99

> <Gold.Chemscore.Hbonds>
donor molecule, donor type, donor heavy atom, donor atom, acceptor molecule, acceptor atom, score
      L1  H     8    54       P1  8028  0.30
      P1  H  7997  8009       L1    15  0.60

> <Gold.Chemscore.Hbond.Weighted>
-4.2005

> <Gold.Chemscore.Metal.Weighted>
-0.0000

> <Gold.Chemscore.Lipo.Weighted>
-13.1285

> <Gold.Chemscore.Internal_Hbond.Weighted>
0.0000

> <Gold.Chemscore.DEClash.Weighted>
0.0988

> <Gold.Chemscore.DEInternal.Weighted>
0.4132

> <Gold.Chemscore.Rot.Weighted>
5.4215

> <Gold.Chemscore.Internal.Correction.Weighted>
   9.000000E+99

> <Gold.Protein.RotatedTorsions>
[ 6907 6896 6895 6894 ] final  -17.46 input  -60.11 | X-H torsion
[ 7974 7965 7964 7962 ] final   80.32 input  175.53 | X-H torsion
[ 8008 7997 7996 7995 ] final  179.12 input   59.86 | X-H torsion
[ 10167 10162 10161 10158 ] final   -0.48 input  -65.29 | X-H torsion
[ 10718 10713 10712 10709 ] final   69.73 input   66.30 | X-H torsion
[ 10763 10752 10751 10750 ] final    9.24 input  -60.55 | X-H torsion
[ 11005 11000 10999 10996 ] final  173.57 input  -57.11 | X-H torsion

> <Gold.Protein.ActiveResidues>
 VAL166  LYS551  ARG553  GLY616  TRP617  ASP618  TYR619  PRO620  LYS621  CYS622 
 ASP623  PHE694  ASN695  SER759  ASP760  ASP761  ALA762  ILE779  LEU786  VAL792 
 PHE793  MET794  SER795  GLU796  ALA797  LYS798  CYS799  TRP800  GLU811  SER814 

> <Gold.Protein.RotatedAtoms>
  151.2930  135.0747  159.9210 H   0  0  0  0  0  0  0  0  0  0  0  0  # atno 6907 bound_to 6896
  152.5312  133.9912  159.7862 H   0  0  0  0  0  0  0  0  0  0  0  0  # atno 6908 bound_to 6896
  151.0185  133.5847  159.2704 H   0  0  0  0  0  0  0  0  0  0  0  0  # atno 6909 bound_to 6896
  145.6527  139.2451  143.1967 H   0  0  0  0  0  0  0  0  0  0  0  0  # atno 7974 bound_to 7965
  156.0469  140.1316  157.0093 H   0  0  0  0  0  0  0  0  0  0  0  0  # atno 8008 bound_to 7997
  154.4417  140.1019  156.6390 H   0  0  0  0  0  0  0  0  0  0  0  0  # atno 8009 bound_to 7997
  155.5582  140.3464  155.4487 H   0  0  0  0  0  0  0  0  0  0  0  0  # atno 8010 bound_to 7997
  140.6769  143.6890  150.8043 H   0  0  0  0  0  0  0  0  0  0  0  0  # atno 10167 bound_to 10162
  157.6362  130.9441  150.0554 H   0  0  0  0  0  0  0  0  0  0  0  0  # atno 10718 bound_to 10713
  153.2162  135.6875  153.8054 H   0  0  0  0  0  0  0  0  0  0  0  0  # atno 10763 bound_to 10752
  153.7269  135.3258  155.3279 H   0  0  0  0  0  0  0  0  0  0  0  0  # atno 10764 bound_to 10752
  154.8247  135.4626  154.0990 H   0  0  0  0  0  0  0  0  0  0  0  0  # atno 10765 bound_to 10752
  140.3420  134.7268  157.4208 H   0  0  0  0  0  0  0  0  0  0  0  0  # atno 11005 bound_to 11000
  146.1190  140.7333  142.9467 LP  0  0  0  0  0  0  0  0  0  0  0  0  # atno 17320 bound_to 7965
  144.7117  140.4061  143.7076 LP  0  0  0  0  0  0  0  0  0  0  0  0  # atno 17321 bound_to 7965
  140.0584  143.5179  152.2640 LP  0  0  0  0  0  0  0  0  0  0  0  0  # atno 17342 bound_to 10162
  139.6067  144.7598  151.3046 LP  0  0  0  0  0  0  0  0  0  0  0  0  # atno 17343 bound_to 10162
  156.1603  130.3644  149.9309 LP  0  0  0  0  0  0  0  0  0  0  0  0  # atno 17370 bound_to 10713
  156.7309  130.9043  151.3625 LP  0  0  0  0  0  0  0  0  0  0  0  0  # atno 17371 bound_to 10713
  140.0773  134.5779  155.8577 LP  0  0  0  0  0  0  0  0  0  0  0  0  # atno 17394 bound_to 11000
  141.2036  133.6633  156.6072 LP  0  0  0  0  0  0  0  0  0  0  0  0  # atno 17395 bound_to 11000

$$$$
