AV-unprocessed.smi:1423|AV-procd|sdf|5797|dock5
  -GOLD-   22720 5443D 1   1.00000     0.00000
 Structure written by MMmdl.
 43 44  0  0  0  0  0  0  0  0  3 V2000
  151.8162  145.5230  159.9061 C   0  0  0  0  0  0  0  0  0  0  0  0
  152.4253  144.2369  159.9348 O   0  0  0  0  0  0  0  0  0  0  0  0
  151.8104  143.2056  159.2547 C   0  0  0  0  0  0  0  0  0  0  0  0
  152.2130  141.8834  159.5277 C   0  0  0  0  0  0  0  0  0  0  0  0
  151.5927  140.8249  158.8368 C   0  0  0  0  0  0  0  0  0  0  0  0
  150.5781  141.1232  157.8952 C   0  0  0  0  0  0  0  0  0  0  0  0
  149.8857  140.1539  157.1184 N   0  0  0  0  0  0  0  0  0  0  0  0
  150.0201  138.8163  157.1186 C   0  0  0  0  0  0  0  0  0  0  0  0
  150.7719  138.1730  157.8503 O   0  0  0  0  0  0  0  0  0  0  0  0
  149.2090  138.2486  156.2143 N   0  0  0  0  0  0  0  0  0  0  0  0
  149.1124  136.8148  155.9550 C   0  0  2  0  0  0  0  0  0  0  0  0
  150.3115  136.3286  155.1203 C   0  0  0  0  0  0  0  0  0  0  0  0
  150.1667  134.8432  154.7510 C   0  0  0  0  0  0  0  0  0  0  0  0
  148.8891  134.5922  154.0325 N   0  3  1  0  0  0  0  0  0  0  0  0
  148.7624  133.2010  153.5281 C   0  0  0  0  0  0  0  0  0  0  0  0
  147.4237  133.0029  152.8085 C   0  0  0  0  0  0  0  0  0  0  0  0
  147.5743  132.8431  151.4780 N   0  5  0  0  0  0  0  0  0  0  0  0
  146.3791  133.0039  153.4557 O   0  0  0  0  0  0  0  0  0  0  0  0
  147.7152  135.0152  154.8365 C   0  0  0  0  0  0  0  0  0  0  0  0
  147.8054  136.5051  155.2073 C   0  0  0  0  0  0  0  0  0  0  0  0
  150.2560  142.4810  157.6891 C   0  0  0  0  0  0  0  0  0  0  0  0
  150.8471  143.5003  158.3472 N   0  0  0  0  0  0  0  0  0  0  0  0
  152.4208  146.2210  160.4850 H   0  0  0  0  0  0  0  0  0  0  0  0
  150.8194  145.5028  160.3489 H   0  0  0  0  0  0  0  0  0  0  0  0
  151.7487  145.9100  158.8882 H   0  0  0  0  0  0  0  0  0  0  0  0
  152.9889  141.6840  160.2520 H   0  0  0  0  0  0  0  0  0  0  0  0
  151.9188  139.8167  159.0365 H   0  0  0  0  0  0  0  0  0  0  0  0
  149.1750  140.5255  156.5052 H   0  0  0  0  0  0  0  0  0  0  0  0
  148.6206  138.8525  155.6589 H   0  0  0  0  0  0  0  0  0  0  0  0
  149.0978  136.2773  156.9054 H   0  0  0  0  0  0  0  0  0  0  0  0
  150.3934  136.9208  154.2074 H   0  0  0  0  0  0  0  0  0  0  0  0
  151.2409  136.4791  155.6705 H   0  0  0  0  0  0  0  0  0  0  0  0
  151.0127  134.5470  154.1301 H   0  0  0  0  0  0  0  0  0  0  0  0
  150.2063  134.2279  155.6510 H   0  0  0  0  0  0  0  0  0  0  0  0
  149.5962  132.9578  152.8674 H   0  0  0  0  0  0  0  0  0  0  0  0
  148.8038  132.4903  154.3554 H   0  0  0  0  0  0  0  0  0  0  0  0
  148.0997  132.0290  151.1363 H   0  0  0  0  0  0  0  0  0  0  0  0
  146.7999  134.8438  154.2689 H   0  0  0  0  0  0  0  0  0  0  0  0
  147.6503  134.4033  155.7378 H   0  0  0  0  0  0  0  0  0  0  0  0
  146.9479  136.7839  155.8207 H   0  0  0  0  0  0  0  0  0  0  0  0
  147.7452  137.1063  154.2987 H   0  0  0  0  0  0  0  0  0  0  0  0
  149.4971  142.7613  156.9729 H   0  0  0  0  0  0  0  0  0  0  0  0
  148.8942  135.1732  153.2053 H   0  0  0  0  0  0  0  0  0  0  0  0
  1  2  1  0  0  0  0
  1 23  1  0  0  0  0
  1 24  1  0  0  0  0
  1 25  1  0  0  0  0
  2  3  1  0  0  0  0
  3 22  1  0  0  0  0
  3  4  2  0  0  0  0
  4  5  1  0  0  0  0
  4 26  1  0  0  0  0
  5  6  2  0  0  0  0
  5 27  1  0  0  0  0
  6  7  1  0  0  0  0
  6 21  1  0  0  0  0
  7  8  1  0  0  0  0
  7 28  1  0  0  0  0
  8  9  2  0  0  0  0
  8 10  1  0  0  0  0
 10 11  1  0  0  0  0
 10 29  1  0  0  0  0
 11 20  1  0  0  0  0
 11 12  1  0  0  0  0
 11 30  1  0  0  0  0
 12 13  1  0  0  0  0
 12 31  1  0  0  0  0
 12 32  1  0  0  0  0
 13 14  1  0  0  0  0
 13 33  1  0  0  0  0
 13 34  1  0  0  0  0
 14 15  1  0  0  0  0
 14 19  1  0  0  0  0
 14 43  1  0  0  0  0
 15 16  1  0  0  0  0
 15 35  1  0  0  0  0
 15 36  1  0  0  0  0
 16 17  1  0  0  0  0
 16 18  2  0  0  0  0
 17 37  1  0  0  0  0
 19 20  1  0  0  0  0
 19 38  1  0  0  0  0
 19 39  1  0  0  0  0
 20 40  1  0  0  0  0
 20 41  1  0  0  0  0
 21 22  2  0  0  0  0
 21 42  1  0  0  0  0
M  CHG  1  14   1
M  CHG  1  17  -1
M  END
> <s_m_source_file>
AV-unprocessed.smi

> <i_m_source_file_index>
1423

> <i_lp_mmshare_version>
43012

> <i_f3d_flags>
0

> <s_epik_input>
W0NIM11PYzFbY0hdW2NIXWMoW2NIXW4xKVtOSF1DKD1PKVtOSF1bQ0hdMltDSDJdW0NIMl1OKFtDSDJdW0NIMl0yKVtDSDJdQyg9TylbTkgyXQ==

> <s_epik_cmdline>
J2VwaWtfcHl0aG9uJywgJy1waCcsICc3LjAnLCAnLXRuJywgJzgnLCAnLW1hJywgJzIwMCcsICctbWV0YWxfYmluZGluZycsICctaW1hZScsICc8aW5maWxlLm1hZT4nLCAnLW9tYWUnLCAnPG91dGZpbGUubWFlPic=

> <r_lp_tautomer_probability>
1

> <r_epik_Ionization_Penalty>
5.72888

> <r_epik_Ionization_Penalty_Charging>
5.7288

> <r_epik_Ionization_Penalty_Neutral>
7.8452e-05

> <r_epik_State_Penalty>
6.54882

> <r_epik_Charging_Adjusted_Penalty>
12.2776

> <i_epik_Tot_Q>
0

> <i_epik_Tot_abs_Q>
2

> <r_epik_Metal_State_Penalty>
2.51301

> <b_epik_Metal_Only>
1

> <s_lp_Force_Field>
OPLS_2005

> <r_lp_Energy>
10.9641

> <b_lp_Chiralities_Consistent>
1

> <s_lp_Variant>
AV-unprocessed.smi:1423-4

> <Gold.Version>
5.8.1

> <Gold.Id.Protein>
6NUR|6NUR_protein|mol2

> <Gold.PLP.Fitness>
42.3679

> <Gold.PLP.PLP>
-31.3828

> <Gold.PLP.part.hbond>
-2.0000

> <Gold.PLP.part.metal>
0.0000

> <Gold.PLP.part.buried>
-5.5920

> <Gold.PLP.part.nonpolar>
-23.8314

> <Gold.PLP.part.repulsive>
0.2762

> <Gold.PLP.ligand.clash>
0.0000

> <Gold.PLP.ligand.torsion>
0.5243

> <Gold.PLP.Chemscore.Hbond>
3.0000

> <Gold.PLP.Chemscore.CHOScore>
1.0000

> <Gold.PLP.Chemscore.Metal>
0.0000

> <Gold.Chemscore.Hbonds>
donor molecule, donor type, donor heavy atom, donor atom, acceptor molecule, acceptor atom, score
      L1  H    14    43       P1  7948  2.00
      L1  H    17    37       P1 10747  1.00
      L1  C    21    42       P1  8028  1.00

> <Gold.PLP.Chemscore.Internal.Correction>
0.0337

> <Gold.Rescore>
     Score         DG    S(hbond)    S(metal)    S(lipo)     H(rot)  DE(clash)    DE(int)     intcor
      9.46     -12.71       1.73        0.00      62.44       2.29       0.04       3.21       ----

> <Gold.Chemscore.Fitness>
9.4610

> <Gold.Chemscore.DG>
-12.7139

> <Gold.Chemscore.ZeroCoef>
-5.4800

> <Gold.Chemscore.Hbond>
1.7333

> <Gold.Chemscore.Metal>
0.0000

> <Gold.Chemscore.Lipo>
62.4400

> <Gold.Chemscore.Internal_Hbond>
0.0000

> <Gold.Chemscore.DEClash>
0.0446

> <Gold.Chemscore.DEInternal>
3.2083

> <Gold.Chemscore.Rot>
2.2894

> <Gold.Chemscore.Internal.Correction>
   9.000000E+99

> <Gold.Chemscore.Hbonds>
donor molecule, donor type, donor heavy atom, donor atom, acceptor molecule, acceptor atom, score
      L1  H    14    43       P1  7948  0.45
      L1  H    17    37       P1 10747  1.00

> <Gold.Chemscore.Hbond.Weighted>
-5.7892

> <Gold.Chemscore.Metal.Weighted>
-0.0000

> <Gold.Chemscore.Lipo.Weighted>
-7.3055

> <Gold.Chemscore.Internal_Hbond.Weighted>
0.0000

> <Gold.Chemscore.DEClash.Weighted>
0.0446

> <Gold.Chemscore.DEInternal.Weighted>
3.2083

> <Gold.Chemscore.Rot.Weighted>
5.8608

> <Gold.Chemscore.Internal.Correction.Weighted>
   9.000000E+99

> <Gold.Protein.RotatedTorsions>
[ 6907 6896 6895 6894 ] final  148.15 input  -60.11 | X-H torsion
[ 7974 7965 7964 7962 ] final   66.28 input  175.53 | X-H torsion
[ 8008 7997 7996 7995 ] final  165.71 input   59.86 | X-H torsion
[ 10167 10162 10161 10158 ] final  121.91 input  -65.29 | X-H torsion
[ 10718 10713 10712 10709 ] final  105.91 input   66.30 | X-H torsion
[ 10763 10752 10751 10750 ] final -111.42 input  -60.55 | X-H torsion
[ 11005 11000 10999 10996 ] final  -55.39 input  -57.11 | X-H torsion

> <Gold.Protein.ActiveResidues>
 VAL166  LYS551  ARG553  GLY616  TRP617  ASP618  TYR619  PRO620  LYS621  CYS622 
 ASP623  PHE694  ASN695  SER759  ASP760  ASP761  ALA762  ILE779  LEU786  VAL792 
 PHE793  MET794  SER795  GLU796  ALA797  LYS798  CYS799  TRP800  GLU811  SER814 

> <Gold.Protein.RotatedAtoms>
  152.1453  133.4489  159.4786 H   0  0  0  0  0  0  0  0  0  0  0  0  # atno 6907 bound_to 6896
  150.6890  134.2255  159.4422 H   0  0  0  0  0  0  0  0  0  0  0  0  # atno 6908 bound_to 6896
  152.0148  134.9855  160.0620 H   0  0  0  0  0  0  0  0  0  0  0  0  # atno 6909 bound_to 6896
  145.8284  139.3125  143.1002 H   0  0  0  0  0  0  0  0  0  0  0  0  # atno 7974 bound_to 7965
  156.1778  140.1663  156.8330 H   0  0  0  0  0  0  0  0  0  0  0  0  # atno 8008 bound_to 7997
  154.5326  140.0753  156.8405 H   0  0  0  0  0  0  0  0  0  0  0  0  # atno 8009 bound_to 7997
  155.3375  140.3382  155.4241 H   0  0  0  0  0  0  0  0  0  0  0  0  # atno 8010 bound_to 7997
  139.5891  144.7018  151.3335 H   0  0  0  0  0  0  0  0  0  0  0  0  # atno 10167 bound_to 10162
  157.6688  131.0838  150.5927 H   0  0  0  0  0  0  0  0  0  0  0  0  # atno 10718 bound_to 10713
  154.8299  135.4528  154.1036 H   0  0  0  0  0  0  0  0  0  0  0  0  # atno 10763 bound_to 10752
  153.2318  135.6906  153.7888 H   0  0  0  0  0  0  0  0  0  0  0  0  # atno 10764 bound_to 10752
  153.7268  135.3333  155.3254 H   0  0  0  0  0  0  0  0  0  0  0  0  # atno 10765 bound_to 10752
  141.1071  133.6612  156.4463 H   0  0  0  0  0  0  0  0  0  0  0  0  # atno 11005 bound_to 11000
  145.9598  140.8844  143.0217 LP  0  0  0  0  0  0  0  0  0  0  0  0  # atno 17320 bound_to 7965
  144.6741  140.1796  143.7407 LP  0  0  0  0  0  0  0  0  0  0  0  0  # atno 17321 bound_to 7965
  140.7157  143.7272  150.7651 LP  0  0  0  0  0  0  0  0  0  0  0  0  # atno 17342 bound_to 10162
  140.0824  143.4956  152.2523 LP  0  0  0  0  0  0  0  0  0  0  0  0  # atno 17343 bound_to 10162
  156.6228  130.4410  149.5816 LP  0  0  0  0  0  0  0  0  0  0  0  0  # atno 17370 bound_to 10713
  156.2342  130.6813  151.1494 LP  0  0  0  0  0  0  0  0  0  0  0  0  # atno 17371 bound_to 10713
  140.4872  134.6609  157.5196 LP  0  0  0  0  0  0  0  0  0  0  0  0  # atno 17394 bound_to 11000
  139.9947  134.6930  155.9630 LP  0  0  0  0  0  0  0  0  0  0  0  0  # atno 17395 bound_to 11000

$$$$
