AV-unprocessed.smi:1295|AV-procd|sdf|5407|dock5
  -GOLD-   22720 4563D 1   1.00000     0.00000
 Structure written by MMmdl.
 43 44  0  0  0  0  0  0  0  0  1 V2000
  151.2896  143.1832  157.2465 C   0  0  0  0  0  0  0  0  0  0  0  0
  151.0002  141.8715  156.5494 C   0  0  0  0  0  0  0  0  0  0  0  0
  149.9209  141.9284  155.6835 N   0  0  0  0  0  0  0  0  0  0  0  0
  149.5817  140.7773  154.9949 C   0  0  0  0  0  0  0  0  0  0  0  0
  148.3999  140.9302  154.0534 C   0  0  0  0  0  0  0  0  0  0  0  0
  150.2806  139.6262  155.1637 C   0  0  0  0  0  0  0  0  0  0  0  0
  149.9524  138.3404  154.4027 C   0  0  0  0  0  0  0  0  0  0  0  0
  149.6601  137.1152  155.2723 C   0  0  0  0  0  0  0  0  0  0  0  0
  149.9267  137.1341  156.4732 O   0  0  0  0  0  0  0  0  0  0  0  0
  149.1015  136.0666  154.6495 N   0  0  0  0  0  0  0  0  0  0  0  0
  148.6238  134.8349  155.2734 C   0  0  2  0  0  0  0  0  0  0  0  0
  149.4690  133.6343  154.8021 C   0  0  0  0  0  0  0  0  0  0  0  0
  149.2252  133.2993  153.3202 C   0  0  0  0  0  0  0  0  0  0  0  0
  147.7320  133.0735  153.0401 C   0  0  0  0  0  0  0  0  0  0  0  0
  146.8908  134.2813  153.4822 C   0  0  0  0  0  0  0  0  0  0  0  0
  147.1199  134.6194  154.9702 C   0  0  2  0  0  0  0  0  0  0  0  0
  146.2467  135.8059  155.4156 C   0  0  0  0  0  0  0  0  0  0  0  0
  151.4280  139.6280  156.1023 C   0  0  0  0  0  0  0  0  0  0  0  0
  152.1115  138.6219  156.2855 O   0  0  0  0  0  0  0  0  0  0  0  0
  151.7302  140.8221  156.7763 N   0  0  0  0  0  0  0  0  0  0  0  0
  149.3752  142.7637  155.5271 H   0  0  0  0  0  0  0  0  0  0  0  0
  152.0704  143.0617  157.9984 H   0  0  0  0  0  0  0  0  0  0  0  0
  150.3942  143.5572  157.7442 H   0  0  0  0  0  0  0  0  0  0  0  0
  151.6239  143.9294  156.5248 H   0  0  0  0  0  0  0  0  0  0  0  0
  147.5940  140.2545  154.3397 H   0  0  0  0  0  0  0  0  0  0  0  0
  148.6961  140.7003  153.0296 H   0  0  0  0  0  0  0  0  0  0  0  0
  148.0046  141.9468  154.0660 H   0  0  0  0  0  0  0  0  0  0  0  0
  150.7923  138.1032  153.7492 H   0  0  0  0  0  0  0  0  0  0  0  0
  149.1096  138.4907  153.7275 H   0  0  0  0  0  0  0  0  0  0  0  0
  148.9417  136.1501  153.6560 H   0  0  0  0  0  0  0  0  0  0  0  0
  148.7338  134.9164  156.3561 H   0  0  0  0  0  0  0  0  0  0  0  0
  150.5288  133.8288  154.9720 H   0  0  0  0  0  0  0  0  0  0  0  0
  149.2207  132.7626  155.4087 H   0  0  0  0  0  0  0  0  0  0  0  0
  149.5973  134.1092  152.6914 H   0  0  0  0  0  0  0  0  0  0  0  0
  149.7929  132.4107  153.0434 H   0  0  0  0  0  0  0  0  0  0  0  0
  147.5783  132.8828  151.9776 H   0  0  0  0  0  0  0  0  0  0  0  0
  147.3929  132.1805  153.5664 H   0  0  0  0  0  0  0  0  0  0  0  0
  147.1375  135.1440  152.8612 H   0  0  0  0  0  0  0  0  0  0  0  0
  145.8351  134.0712  153.3070 H   0  0  0  0  0  0  0  0  0  0  0  0
  146.7972  133.7548  155.5522 H   0  0  0  0  0  0  0  0  0  0  0  0
  146.4506  136.7016  154.8277 H   0  0  0  0  0  0  0  0  0  0  0  0
  146.4205  136.0495  156.4640 H   0  0  0  0  0  0  0  0  0  0  0  0
  145.1873  135.5744  155.3027 H   0  0  0  0  0  0  0  0  0  0  0  0
  1 22  1  0  0  0  0
  1 23  1  0  0  0  0
  1 24  1  0  0  0  0
  1  2  1  0  0  0  0
  2  3  1  0  0  0  0
  2 20  2  0  0  0  0
  3  4  1  0  0  0  0
  3 21  1  0  0  0  0
  4  6  2  0  0  0  0
  4  5  1  0  0  0  0
  5 25  1  0  0  0  0
  5 26  1  0  0  0  0
  5 27  1  0  0  0  0
  6 18  1  0  0  0  0
  6  7  1  0  0  0  0
  7  8  1  0  0  0  0
  7 28  1  0  0  0  0
  7 29  1  0  0  0  0
  8  9  2  0  0  0  0
  8 10  1  0  0  0  0
 10 11  1  0  0  0  0
 10 30  1  0  0  0  0
 11 16  1  0  0  0  0
 11 12  1  0  0  0  0
 11 31  1  0  0  0  0
 12 13  1  0  0  0  0
 12 32  1  0  0  0  0
 12 33  1  0  0  0  0
 13 14  1  0  0  0  0
 13 34  1  0  0  0  0
 13 35  1  0  0  0  0
 14 15  1  0  0  0  0
 14 36  1  0  0  0  0
 14 37  1  0  0  0  0
 15 16  1  0  0  0  0
 15 38  1  0  0  0  0
 15 39  1  0  0  0  0
 16 17  1  0  0  0  0
 16 40  1  0  0  0  0
 17 41  1  0  0  0  0
 17 42  1  0  0  0  0
 17 43  1  0  0  0  0
 18 19  2  0  0  0  0
 18 20  1  0  0  0  0
M  END
> <s_m_source_file>
AV-unprocessed.smi

> <i_m_source_file_index>
1295

> <i_lp_mmshare_version>
43012

> <i_f3d_flags>
0

> <s_epik_input>
W0NIM11jMW5jKFtDSDNdKWMoYyg9TylbbkhdMSlbQ0gyXUMoPU8pW05IXVtDQEBIXTJbQ0gyXVtDSDJdW0NIMl1bQ0gyXVtDQEhdMltDSDNd

> <s_epik_cmdline>
J2VwaWtfcHl0aG9uJywgJy1waCcsICc3LjAnLCAnLXRuJywgJzgnLCAnLW1hJywgJzIwMCcsICctbWV0YWxfYmluZGluZycsICctaW1hZScsICc8aW5maWxlLm1hZT4nLCAnLW9tYWUnLCAnPG91dGZpbGUubWFlPic=

> <r_lp_tautomer_probability>
0.156392

> <r_epik_Ionization_Penalty>
0.0136057

> <r_epik_Ionization_Penalty_Charging>
0.0134742

> <r_epik_Ionization_Penalty_Neutral>
0.000131572

> <r_epik_State_Penalty>
1.15342

> <r_epik_Charging_Adjusted_Penalty>
1.16689

> <i_epik_Tot_Q>
0

> <i_epik_Tot_abs_Q>
0

> <r_epik_Metal_State_Penalty>
1.31351

> <b_epik_Metal_Only>
0

> <s_lp_Force_Field>
OPLS_2005

> <r_lp_Energy>
13.3466

> <b_lp_Chiralities_Consistent>
1

> <s_lp_Variant>
AV-unprocessed.smi:1295-7

> <Gold.Version>
5.8.1

> <Gold.Id.Protein>
6NUR|6NUR_protein|mol2

> <Gold.PLP.Fitness>
36.1429

> <Gold.PLP.PLP>
-30.4866

> <Gold.PLP.part.hbond>
-2.0000

> <Gold.PLP.part.metal>
0.0000

> <Gold.PLP.part.buried>
-2.6379

> <Gold.PLP.part.nonpolar>
-25.8375

> <Gold.PLP.part.repulsive>
0.1623

> <Gold.PLP.ligand.clash>
0.0000

> <Gold.PLP.ligand.torsion>
0.1762

> <Gold.PLP.Chemscore.Hbond>
2.0000

> <Gold.PLP.Chemscore.CHOScore>
0.0000

> <Gold.PLP.Chemscore.Metal>
0.0000

> <Gold.Chemscore.Hbonds>
donor molecule, donor type, donor heavy atom, donor atom, acceptor molecule, acceptor atom, score
      L1  H     3    21       P1  8028  1.00
      L1  H    10    30       P1  7948  1.00

> <Gold.PLP.Chemscore.Internal.Correction>
0.0087

> <Gold.Rescore>
     Score         DG    S(hbond)    S(metal)    S(lipo)     H(rot)  DE(clash)    DE(int)     intcor
     12.33     -15.93       1.96        0.00      65.90       1.48       0.02       3.58       ----

> <Gold.Chemscore.Fitness>
12.3331

> <Gold.Chemscore.DG>
-15.9329

> <Gold.Chemscore.ZeroCoef>
-5.4800

> <Gold.Chemscore.Hbond>
1.9556

> <Gold.Chemscore.Metal>
0.0000

> <Gold.Chemscore.Lipo>
65.8996

> <Gold.Chemscore.Internal_Hbond>
0.0000

> <Gold.Chemscore.DEClash>
0.0219

> <Gold.Chemscore.DEInternal>
3.5779

> <Gold.Chemscore.Rot>
1.4801

> <Gold.Chemscore.Internal.Correction>
   9.000000E+99

> <Gold.Chemscore.Hbonds>
donor molecule, donor type, donor heavy atom, donor atom, acceptor molecule, acceptor atom, score
      L1  H     3    21       P1  8028  0.94
      L1  H    10    30       P1  7948  0.99

> <Gold.Chemscore.Hbond.Weighted>
-6.5318

> <Gold.Chemscore.Metal.Weighted>
-0.0000

> <Gold.Chemscore.Lipo.Weighted>
-7.7102

> <Gold.Chemscore.Internal_Hbond.Weighted>
0.0000

> <Gold.Chemscore.DEClash.Weighted>
0.0219

> <Gold.Chemscore.DEInternal.Weighted>
3.5779

> <Gold.Chemscore.Rot.Weighted>
3.7891

> <Gold.Chemscore.Internal.Correction.Weighted>
   9.000000E+99

> <Gold.Protein.RotatedTorsions>
[ 6907 6896 6895 6894 ] final  -30.36 input  -60.11 | X-H torsion
[ 7974 7965 7964 7962 ] final   52.85 input  175.53 | X-H torsion
[ 8008 7997 7996 7995 ] final -158.04 input   59.86 | X-H torsion
[ 10167 10162 10161 10158 ] final  -88.19 input  -65.29 | X-H torsion
[ 10718 10713 10712 10709 ] final   11.35 input   66.30 | X-H torsion
[ 10763 10752 10751 10750 ] final -122.32 input  -60.55 | X-H torsion
[ 11005 11000 10999 10996 ] final -149.33 input  -57.11 | X-H torsion

> <Gold.Protein.ActiveResidues>
 VAL166  LYS551  ARG553  GLY616  TRP617  ASP618  TYR619  PRO620  LYS621  CYS622 
 ASP623  PHE694  ASN695  SER759  ASP760  ASP761  ALA762  ILE779  LEU786  VAL792 
 PHE793  MET794  SER795  GLU796  ALA797  LYS798  CYS799  TRP800  GLU811  SER814 

> <Gold.Protein.RotatedAtoms>
  151.1066  135.0003  159.8473 H   0  0  0  0  0  0  0  0  0  0  0  0  # atno 6907 bound_to 6896
  152.5440  134.1886  159.8675 H   0  0  0  0  0  0  0  0  0  0  0  0  # atno 6908 bound_to 6896
  151.1933  133.4609  159.2628 H   0  0  0  0  0  0  0  0  0  0  0  0  # atno 6909 bound_to 6896
  145.9771  139.4205  143.0154 H   0  0  0  0  0  0  0  0  0  0  0  0  # atno 7974 bound_to 7965
  155.7415  140.0815  157.2243 H   0  0  0  0  0  0  0  0  0  0  0  0  # atno 8008 bound_to 7997
  154.4021  140.1577  156.2677 H   0  0  0  0  0  0  0  0  0  0  0  0  # atno 8009 bound_to 7997
  155.9016  140.3409  155.6033 H   0  0  0  0  0  0  0  0  0  0  0  0  # atno 8010 bound_to 7997
  140.3771  143.2766  151.9429 H   0  0  0  0  0  0  0  0  0  0  0  0  # atno 10167 bound_to 10162
  156.9943  130.6055  149.5689 H   0  0  0  0  0  0  0  0  0  0  0  0  # atno 10718 bound_to 10713
  154.8687  135.4137  154.2762 H   0  0  0  0  0  0  0  0  0  0  0  0  # atno 10763 bound_to 10752
  153.3663  135.7005  153.6678 H   0  0  0  0  0  0  0  0  0  0  0  0  # atno 10764 bound_to 10752
  153.5558  135.3620  155.2751 H   0  0  0  0  0  0  0  0  0  0  0  0  # atno 10765 bound_to 10752
  140.7519  134.3397  157.5124 H   0  0  0  0  0  0  0  0  0  0  0  0  # atno 11005 bound_to 11000
  145.7823  140.9851  143.1093 LP  0  0  0  0  0  0  0  0  0  0  0  0  # atno 17320 bound_to 7965
  144.6851  139.9579  143.7479 LP  0  0  0  0  0  0  0  0  0  0  0  0  # atno 17321 bound_to 7965
  139.4798  144.5853  151.7864 LP  0  0  0  0  0  0  0  0  0  0  0  0  # atno 17342 bound_to 10162
  140.4975  144.1219  150.5963 LP  0  0  0  0  0  0  0  0  0  0  0  0  # atno 17343 bound_to 10162
  156.0195  130.5290  150.8234 LP  0  0  0  0  0  0  0  0  0  0  0  0  # atno 17370 bound_to 10713
  157.5436  131.0941  150.9794 LP  0  0  0  0  0  0  0  0  0  0  0  0  # atno 17371 bound_to 10713
  139.8786  134.9147  156.3114 LP  0  0  0  0  0  0  0  0  0  0  0  0  # atno 17394 bound_to 11000
  140.9743  133.7307  156.0579 LP  0  0  0  0  0  0  0  0  0  0  0  0  # atno 17395 bound_to 11000

$$$$
