AV-unprocessed.smi:2442|AV-procd|sdf|9624|dock3
  -GOLD-   2272013253D 1   1.00000     0.00000
 Structure written by MMmdl.
 46 47  0  0  0  0  0  0  0  0  1 V2000
  150.4273  134.6355  155.1499 C   0  0  0  0  0  0  0  0  0  0  0  0
  151.2195  135.8013  155.3132 O   0  0  0  0  0  0  0  0  0  0  0  0
  150.6113  136.8163  156.1068 C   0  0  1  0  0  0  0  0  0  0  0  0
  151.6703  137.5579  156.9504 C   0  0  0  0  0  0  0  0  0  0  0  0
  152.6547  138.3462  156.0707 C   0  0  0  0  0  0  0  0  0  0  0  0
  151.9141  139.3216  155.1434 C   0  0  0  0  0  0  0  0  0  0  0  0
  150.8667  138.5901  154.2894 C   0  0  0  0  0  0  0  0  0  0  0  0
  149.8752  137.8013  155.1669 C   0  0  1  0  0  0  0  0  0  0  0  0
  148.9089  137.1058  154.3204 N   0  0  0  0  0  0  0  0  0  0  0  0
  147.7045  136.6727  154.7168 C   0  0  0  0  0  0  0  0  0  0  0  0
  147.2568  136.8214  155.8544 O   0  0  0  0  0  0  0  0  0  0  0  0
  147.0492  136.0481  153.7286 N   0  0  0  0  0  0  0  0  0  0  0  0
  145.7305  135.4415  153.8650 C   0  0  0  0  0  0  0  0  0  0  0  0
  145.7947  133.9158  153.6849 C   0  0  0  0  0  0  0  0  0  0  0  0
  145.5014  133.4948  152.2539 C   0  0  0  0  0  0  0  0  0  0  0  0
  146.4741  132.7769  151.5269 C   0  0  0  0  0  0  0  0  0  0  0  0
  146.1869  132.3995  150.2005 C   0  0  0  0  0  0  0  0  0  0  0  0
  145.0230  132.6896  149.5832 N   0  0  0  0  0  0  0  0  0  0  0  0
  144.0946  133.3780  150.2802 C   0  0  0  0  0  0  0  0  0  0  0  0
  144.2770  133.8075  151.6128 C   0  0  0  0  0  0  0  0  0  0  0  0
  143.1736  134.5796  152.3147 C   0  0  0  0  0  0  0  0  0  0  0  0
  150.9590  133.9221  154.5206 H   0  0  0  0  0  0  0  0  0  0  0  0
  149.4802  134.8682  154.6614 H   0  0  0  0  0  0  0  0  0  0  0  0
  150.2201  134.1480  156.1022 H   0  0  0  0  0  0  0  0  0  0  0  0
  149.8786  136.3643  156.7777 H   0  0  0  0  0  0  0  0  0  0  0  0
  151.1647  138.2498  157.6250 H   0  0  0  0  0  0  0  0  0  0  0  0
  152.2154  136.8646  157.5899 H   0  0  0  0  0  0  0  0  0  0  0  0
  153.3573  138.8935  156.6997 H   0  0  0  0  0  0  0  0  0  0  0  0
  153.2498  137.6533  155.4743 H   0  0  0  0  0  0  0  0  0  0  0  0
  151.4253  140.0931  155.7396 H   0  0  0  0  0  0  0  0  0  0  0  0
  152.6276  139.8349  154.4980 H   0  0  0  0  0  0  0  0  0  0  0  0
  150.3293  139.3129  153.6746 H   0  0  0  0  0  0  0  0  0  0  0  0
  151.3721  137.9136  153.5988 H   0  0  0  0  0  0  0  0  0  0  0  0
  149.3316  138.5222  155.7809 H   0  0  0  0  0  0  0  0  0  0  0  0
  149.1883  136.9285  153.3667 H   0  0  0  0  0  0  0  0  0  0  0  0
  147.4981  135.9735  152.8274 H   0  0  0  0  0  0  0  0  0  0  0  0
  145.3038  135.6972  154.8362 H   0  0  0  0  0  0  0  0  0  0  0  0
  145.0707  135.8781  153.1149 H   0  0  0  0  0  0  0  0  0  0  0  0
  146.7865  133.5555  153.9617 H   0  0  0  0  0  0  0  0  0  0  0  0
  145.1024  133.4195  154.3648 H   0  0  0  0  0  0  0  0  0  0  0  0
  147.4237  132.5208  151.9734 H   0  0  0  0  0  0  0  0  0  0  0  0
  146.9125  131.8497  149.6193 H   0  0  0  0  0  0  0  0  0  0  0  0
  143.1758  133.5931  149.7546 H   0  0  0  0  0  0  0  0  0  0  0  0
  142.3721  134.8395  151.6225 H   0  0  0  0  0  0  0  0  0  0  0  0
  143.5582  135.5059  152.7413 H   0  0  0  0  0  0  0  0  0  0  0  0
  142.7435  133.9805  153.1175 H   0  0  0  0  0  0  0  0  0  0  0  0
  1  2  1  0  0  0  0
  1 22  1  0  0  0  0
  1 23  1  0  0  0  0
  1 24  1  0  0  0  0
  2  3  1  0  0  0  0
  3  8  1  0  0  0  0
  3  4  1  0  0  0  0
  3 25  1  0  0  0  0
  4  5  1  0  0  0  0
  4 26  1  0  0  0  0
  4 27  1  0  0  0  0
  5  6  1  0  0  0  0
  5 28  1  0  0  0  0
  5 29  1  0  0  0  0
  6  7  1  0  0  0  0
  6 30  1  0  0  0  0
  6 31  1  0  0  0  0
  7  8  1  0  0  0  0
  7 32  1  0  0  0  0
  7 33  1  0  0  0  0
  8  9  1  0  0  0  0
  8 34  1  0  0  0  0
  9 10  1  0  0  0  0
  9 35  1  0  0  0  0
 10 11  2  0  0  0  0
 10 12  1  0  0  0  0
 12 13  1  0  0  0  0
 12 36  1  0  0  0  0
 13 14  1  0  0  0  0
 13 37  1  0  0  0  0
 13 38  1  0  0  0  0
 14 15  1  0  0  0  0
 14 39  1  0  0  0  0
 14 40  1  0  0  0  0
 15 20  1  0  0  0  0
 15 16  2  0  0  0  0
 16 17  1  0  0  0  0
 16 41  1  0  0  0  0
 17 18  2  0  0  0  0
 17 42  1  0  0  0  0
 18 19  1  0  0  0  0
 19 20  2  0  0  0  0
 19 43  1  0  0  0  0
 20 21  1  0  0  0  0
 21 44  1  0  0  0  0
 21 45  1  0  0  0  0
 21 46  1  0  0  0  0
M  END
> <s_m_source_file>
AV-unprocessed.smi

> <i_m_source_file_index>
2442

> <i_lp_mmshare_version>
43012

> <i_f3d_flags>
0

> <s_epik_input>
W0NIM11PW0NAQEhdMVtDSDJdW0NIMl1bQ0gyXVtDSDJdW0NASF0xW05IXUMoPU8pW05IXVtDSDJdW0NIMl1jMltjSF1bY0hdbltjSF1jMltDSDNd

> <s_epik_cmdline>
J2VwaWtfcHl0aG9uJywgJy1waCcsICc3LjAnLCAnLXRuJywgJzgnLCAnLW1hJywgJzIwMCcsICctbWV0YWxfYmluZGluZycsICctaW1hZScsICc8aW5maWxlLm1hZT4nLCAnLW9tYWUnLCAnPG91dGZpbGUubWFlPic=

> <r_epik_Ionization_Penalty>
0.106136

> <r_epik_Ionization_Penalty_Charging>
0

> <r_epik_Ionization_Penalty_Neutral>
0.106136

> <r_epik_State_Penalty>
0.0959393

> <r_epik_Charging_Adjusted_Penalty>
0.0959393

> <i_epik_Tot_Q>
0

> <i_epik_Tot_abs_Q>
0

> <r_epik_Metal_State_Penalty>
0.0812517

> <b_epik_Metal_Only>
0

> <s_lp_Force_Field>
OPLS_2005

> <r_lp_Energy>
9.97505

> <b_lp_Chiralities_Consistent>
1

> <s_lp_Variant>
AV-unprocessed.smi:2442-2

> <Gold.Version>
5.8.1

> <Gold.Id.Protein>
6NUR|6NUR_protein|mol2

> <Gold.PLP.Fitness>
43.1890

> <Gold.PLP.PLP>
-30.1514

> <Gold.PLP.part.hbond>
-3.0000

> <Gold.PLP.part.metal>
0.0000

> <Gold.PLP.part.buried>
-4.0392

> <Gold.PLP.part.nonpolar>
-23.5407

> <Gold.PLP.part.repulsive>
0.6186

> <Gold.PLP.ligand.clash>
0.0000

> <Gold.PLP.ligand.torsion>
0.9734

> <Gold.PLP.Chemscore.Hbond>
2.9760

> <Gold.PLP.Chemscore.CHOScore>
2.0000

> <Gold.PLP.Chemscore.Metal>
0.0000

> <Gold.Chemscore.Hbonds>
donor molecule, donor type, donor heavy atom, donor atom, acceptor molecule, acceptor atom, score
      L1  H     9    35       P1  7948  1.00
      L1  H    12    36       P1  7948  0.98
      P1  H 10752 10765       L1     2  1.00
      L1  C    17    42       P1 10747  1.00
      L1  C    19    43       P1 10186  1.00

> <Gold.PLP.Chemscore.Internal.Correction>
0.0564

> <Gold.Rescore>
     Score         DG    S(hbond)    S(metal)    S(lipo)     H(rot)  DE(clash)    DE(int)     intcor
     19.23     -20.30       2.84        0.00      81.46       1.64       0.00       1.07       ----

> <Gold.Chemscore.Fitness>
19.2322

> <Gold.Chemscore.DG>
-20.3013

> <Gold.Chemscore.ZeroCoef>
-5.4800

> <Gold.Chemscore.Hbond>
2.8393

> <Gold.Chemscore.Metal>
0.0000

> <Gold.Chemscore.Lipo>
81.4644

> <Gold.Chemscore.Internal_Hbond>
0.0000

> <Gold.Chemscore.DEClash>
0.0000

> <Gold.Chemscore.DEInternal>
1.0691

> <Gold.Chemscore.Rot>
1.6380

> <Gold.Chemscore.Internal.Correction>
   9.000000E+99

> <Gold.Chemscore.Hbonds>
donor molecule, donor type, donor heavy atom, donor atom, acceptor molecule, acceptor atom, score
      L1  H     9    35       P1  7948  0.96
      L1  H    12    36       P1  7948  0.92
      P1  H 10752 10765       L1     2  0.82

> <Gold.Chemscore.Hbond.Weighted>
-9.4833

> <Gold.Chemscore.Metal.Weighted>
-0.0000

> <Gold.Chemscore.Lipo.Weighted>
-9.5313

> <Gold.Chemscore.Internal_Hbond.Weighted>
0.0000

> <Gold.Chemscore.DEClash.Weighted>
0.0000

> <Gold.Chemscore.DEInternal.Weighted>
1.0691

> <Gold.Chemscore.Rot.Weighted>
4.1934

> <Gold.Chemscore.Internal.Correction.Weighted>
   9.000000E+99

> <Gold.Protein.RotatedTorsions>
[ 6907 6896 6895 6894 ] final   18.32 input  -60.11 | X-H torsion
[ 7974 7965 7964 7962 ] final  -43.24 input  175.53 | X-H torsion
[ 8008 7997 7996 7995 ] final  102.57 input   59.86 | X-H torsion
[ 10167 10162 10161 10158 ] final  116.79 input  -65.29 | X-H torsion
[ 10718 10713 10712 10709 ] final  154.37 input   66.30 | X-H torsion
[ 10763 10752 10751 10750 ] final  179.24 input  -60.55 | X-H torsion
[ 11005 11000 10999 10996 ] final  147.24 input  -57.11 | X-H torsion

> <Gold.Protein.ActiveResidues>
 VAL166  LYS551  ARG553  GLY616  TRP617  ASP618  TYR619  PRO620  LYS621  CYS622 
 ASP623  PHE694  ASN695  SER759  ASP760  ASP761  ALA762  ILE779  LEU786  VAL792 
 PHE793  MET794  SER795  GLU796  ALA797  LYS798  CYS799  TRP800  GLU811  SER814 

> <Gold.Protein.RotatedAtoms>
  151.8635  135.0515  160.0471 H   0  0  0  0  0  0  0  0  0  0  0  0  # atno 6907 bound_to 6896
  152.2644  133.5322  159.5410 H   0  0  0  0  0  0  0  0  0  0  0  0  # atno 6908 bound_to 6896
  150.7128  134.0700  159.3903 H   0  0  0  0  0  0  0  0  0  0  0  0  # atno 6909 bound_to 6896
  146.0038  140.7044  142.9257 H   0  0  0  0  0  0  0  0  0  0  0  0  # atno 7974 bound_to 7965
  156.1405  140.3179  155.8488 H   0  0  0  0  0  0  0  0  0  0  0  0  # atno 8008 bound_to 7997
  155.4163  140.0509  157.3045 H   0  0  0  0  0  0  0  0  0  0  0  0  # atno 8009 bound_to 7997
  154.4972  140.2115  155.9434 H   0  0  0  0  0  0  0  0  0  0  0  0  # atno 8010 bound_to 7997
  139.6223  144.7103  151.2608 H   0  0  0  0  0  0  0  0  0  0  0  0  # atno 10167 bound_to 10162
  157.2325  131.0742  151.1844 H   0  0  0  0  0  0  0  0  0  0  0  0  # atno 10718 bound_to 10713
  154.5180  135.2792  155.1286 H   0  0  0  0  0  0  0  0  0  0  0  0  # atno 10763 bound_to 10752
  154.2855  135.6277  153.5368 H   0  0  0  0  0  0  0  0  0  0  0  0  # atno 10764 bound_to 10752
  152.9931  135.5661  154.5662 H   0  0  0  0  0  0  0  0  0  0  0  0  # atno 10765 bound_to 10752
  140.0859  134.9069  157.1575 H   0  0  0  0  0  0  0  0  0  0  0  0  # atno 11005 bound_to 11000
  144.6928  140.3279  143.7221 LP  0  0  0  0  0  0  0  0  0  0  0  0  # atno 17320 bound_to 7965
  145.7447  139.1775  143.2356 LP  0  0  0  0  0  0  0  0  0  0  0  0  # atno 17321 bound_to 7965
  140.7389  143.6632  150.8145 LP  0  0  0  0  0  0  0  0  0  0  0  0  # atno 17342 bound_to 10162
  140.0245  143.5508  152.2786 LP  0  0  0  0  0  0  0  0  0  0  0  0  # atno 17343 bound_to 10162
  157.3463  130.7059  149.6413 LP  0  0  0  0  0  0  0  0  0  0  0  0  # atno 17370 bound_to 10713
  155.9674  130.4265  150.4703 LP  0  0  0  0  0  0  0  0  0  0  0  0  # atno 17371 bound_to 10713
  140.3421  134.2693  155.7210 LP  0  0  0  0  0  0  0  0  0  0  0  0  # atno 17394 bound_to 11000
  141.2062  133.7839  157.0188 LP  0  0  0  0  0  0  0  0  0  0  0  0  # atno 17395 bound_to 11000

$$$$
