AV-unprocessed.smi:3228|AV-procd|sdf|12320|dock3
  -GOLD-   2272018163D 1   1.00000     0.00000
 Structure written by MMmdl.
 31 32  0  0  0  0  0  0  0  0  1 V2000
  145.5740  138.7285  152.9077 O   0  0  0  0  0  0  0  0  0  0  0  0
  146.5733  138.0612  152.6384 C   0  0  0  0  0  0  0  0  0  0  0  0
  146.5240  136.8812  152.0037 N   0  0  0  0  0  0  0  0  0  0  0  0
  145.3015  136.2256  151.5510 C   0  0  0  0  0  0  0  0  0  0  0  0
  145.5847  134.8500  150.9103 C   0  0  1  0  0  0  0  0  0  0  0  0
  146.2784  133.8349  151.8287 C   0  0  0  0  0  0  0  0  0  0  0  0
  145.9439  132.4512  151.2504 C   0  0  0  0  0  0  0  0  0  0  0  0
  144.8618  132.6714  150.1812 C   0  0  0  0  0  0  0  0  0  0  0  0
  144.3507  134.1012  150.3856 C   0  0  1  0  0  0  0  0  0  0  0  0
  143.3065  134.0845  151.3414 O   0  0  0  0  0  0  0  0  0  0  0  0
  147.8401  138.4057  152.9293 N   0  0  0  0  0  0  0  0  0  0  0  0
  148.3010  139.5692  153.5998 C   0  0  0  0  0  0  0  0  0  0  0  0
  147.6161  140.7164  153.6794 N   0  0  0  0  0  0  0  0  0  0  0  0
  148.3086  141.6920  154.4008 C   0  0  0  0  0  0  0  0  0  0  0  0
  149.5277  141.2671  154.8676 C   0  0  0  0  0  0  0  0  0  0  0  0
  149.8566  139.6154  154.4165 S   0  0  0  0  0  0  0  0  0  0  0  0
  147.3925  136.3997  151.8217 H   0  0  0  0  0  0  0  0  0  0  0  0
  144.6477  136.1162  152.4165 H   0  0  0  0  0  0  0  0  0  0  0  0
  144.7740  136.8695  150.8456 H   0  0  0  0  0  0  0  0  0  0  0  0
  146.2395  135.0066  150.0509 H   0  0  0  0  0  0  0  0  0  0  0  0
  147.3536  134.0065  151.8911 H   0  0  0  0  0  0  0  0  0  0  0  0
  145.8766  133.9112  152.8398 H   0  0  0  0  0  0  0  0  0  0  0  0
  146.8249  131.9818  150.8117 H   0  0  0  0  0  0  0  0  0  0  0  0
  145.5823  131.7908  152.0393 H   0  0  0  0  0  0  0  0  0  0  0  0
  145.3198  132.5954  149.1940 H   0  0  0  0  0  0  0  0  0  0  0  0
  144.0686  131.9237  150.2240 H   0  0  0  0  0  0  0  0  0  0  0  0
  143.9733  134.5345  149.4587 H   0  0  0  0  0  0  0  0  0  0  0  0
  142.4830  134.1773  150.8872 H   0  0  0  0  0  0  0  0  0  0  0  0
  148.5592  137.7598  152.6389 H   0  0  0  0  0  0  0  0  0  0  0  0
  147.8586  142.6648  154.5341 H   0  0  0  0  0  0  0  0  0  0  0  0
  150.2489  141.8241  155.4471 H   0  0  0  0  0  0  0  0  0  0  0  0
  1  2  2  0  0  0  0
  2  3  1  0  0  0  0
  2 11  1  0  0  0  0
  3  4  1  0  0  0  0
  3 17  1  0  0  0  0
  4  5  1  0  0  0  0
  4 18  1  0  0  0  0
  4 19  1  0  0  0  0
  5  9  1  0  0  0  0
  5  6  1  0  0  0  0
  5 20  1  0  0  0  0
  6  7  1  0  0  0  0
  6 21  1  0  0  0  0
  6 22  1  0  0  0  0
  7  8  1  0  0  0  0
  7 23  1  0  0  0  0
  7 24  1  0  0  0  0
  8  9  1  0  0  0  0
  8 25  1  0  0  0  0
  8 26  1  0  0  0  0
  9 10  1  0  0  0  0
  9 27  1  0  0  0  0
 10 28  1  0  0  0  0
 11 12  1  0  0  0  0
 11 29  1  0  0  0  0
 12 16  1  0  0  0  0
 12 13  2  0  0  0  0
 13 14  1  0  0  0  0
 14 15  2  0  0  0  0
 14 30  1  0  0  0  0
 15 16  1  0  0  0  0
 15 31  1  0  0  0  0
M  END
> <s_m_source_file>
AV-unprocessed.smi

> <i_m_source_file_index>
3228

> <i_lp_mmshare_version>
43012

> <i_f3d_flags>
0

> <s_epik_input>
czFbY0hdW2NIXW5jMVtOSF1DKD1PKVtOSF1bQ0gyXVtDQEBIXTJbQ0gyXVtDSDJdW0NIMl1bQ0BIXTJbT0hd

> <s_epik_cmdline>
J2VwaWtfcHl0aG9uJywgJy1waCcsICc3LjAnLCAnLXRuJywgJzgnLCAnLW1hJywgJzIwMCcsICctbWV0YWxfYmluZGluZycsICctaW1hZScsICc8aW5maWxlLm1hZT4nLCAnLW9tYWUnLCAnPG91dGZpbGUubWFlPic=

> <r_lp_tautomer_probability>
0.999

> <r_epik_Ionization_Penalty>
0.000399498

> <r_epik_Ionization_Penalty_Charging>
0

> <r_epik_Ionization_Penalty_Neutral>
0.000399498

> <r_epik_State_Penalty>
0.000177984

> <r_epik_Charging_Adjusted_Penalty>
0.000177984

> <i_epik_Tot_Q>
0

> <i_epik_Tot_abs_Q>
0

> <r_epik_Metal_State_Penalty>
0.0060793

> <b_epik_Metal_Only>
0

> <s_lp_Force_Field>
OPLS_2005

> <r_lp_Energy>
23.3764

> <b_lp_Chiralities_Consistent>
1

> <s_lp_Variant>
AV-unprocessed.smi:3228-2

> <Gold.Version>
5.8.1

> <Gold.Id.Protein>
6NUR|6NUR_protein|mol2

> <Gold.PLP.Fitness>
39.2330

> <Gold.PLP.PLP>
-27.6205

> <Gold.PLP.part.hbond>
-3.8904

> <Gold.PLP.part.metal>
0.0000

> <Gold.PLP.part.buried>
-1.2365

> <Gold.PLP.part.nonpolar>
-26.4138

> <Gold.PLP.part.repulsive>
3.8203

> <Gold.PLP.ligand.clash>
0.0000

> <Gold.PLP.ligand.torsion>
0.1170

> <Gold.PLP.Chemscore.Hbond>
2.9760

> <Gold.PLP.Chemscore.CHOScore>
0.9722

> <Gold.PLP.Chemscore.Metal>
0.0000

> <Gold.Chemscore.Hbonds>
donor molecule, donor type, donor heavy atom, donor atom, acceptor molecule, acceptor atom, score
      L1  H     3    17       P1  7948  1.00
      L1  H    10    28       P1 10186  1.00
      L1  H    11    29       P1  7948  0.96
      L1  C    14    30       P1  8028  0.98

> <Gold.PLP.Chemscore.Internal.Correction>
0.0018

> <Gold.Rescore>
     Score         DG    S(hbond)    S(metal)    S(lipo)     H(rot)  DE(clash)    DE(int)     intcor
     13.67     -16.66       2.63        0.00      61.46       1.88       1.69       1.30       ----

> <Gold.Chemscore.Fitness>
13.6692

> <Gold.Chemscore.DG>
-16.6610

> <Gold.Chemscore.ZeroCoef>
-5.4800

> <Gold.Chemscore.Hbond>
2.6344

> <Gold.Chemscore.Metal>
0.0000

> <Gold.Chemscore.Lipo>
61.4626

> <Gold.Chemscore.Internal_Hbond>
0.0000

> <Gold.Chemscore.DEClash>
1.6947

> <Gold.Chemscore.DEInternal>
1.2971

> <Gold.Chemscore.Rot>
1.8786

> <Gold.Chemscore.Internal.Correction>
   9.000000E+99

> <Gold.Chemscore.Hbonds>
donor molecule, donor type, donor heavy atom, donor atom, acceptor molecule, acceptor atom, score
      L1  H     3    17       P1  7948  0.93
      L1  H    10    28       P1 10186  0.34
      L1  H    11    29       P1  7948  0.92

> <Gold.Chemscore.Hbond.Weighted>
-8.7990

> <Gold.Chemscore.Metal.Weighted>
-0.0000

> <Gold.Chemscore.Lipo.Weighted>
-7.1911

> <Gold.Chemscore.Internal_Hbond.Weighted>
0.0000

> <Gold.Chemscore.DEClash.Weighted>
1.6947

> <Gold.Chemscore.DEInternal.Weighted>
1.2971

> <Gold.Chemscore.Rot.Weighted>
4.8091

> <Gold.Chemscore.Internal.Correction.Weighted>
   9.000000E+99

> <Gold.Protein.RotatedTorsions>
[ 6907 6896 6895 6894 ] final   68.32 input  -60.11 | X-H torsion
[ 7974 7965 7964 7962 ] final  103.85 input  175.53 | X-H torsion
[ 8008 7997 7996 7995 ] final  -12.24 input   59.86 | X-H torsion
[ 10167 10162 10161 10158 ] final   75.88 input  -65.29 | X-H torsion
[ 10718 10713 10712 10709 ] final  128.78 input   66.30 | X-H torsion
[ 10763 10752 10751 10750 ] final -151.50 input  -60.55 | X-H torsion
[ 11005 11000 10999 10996 ] final -164.52 input  -57.11 | X-H torsion

> <Gold.Protein.ActiveResidues>
 VAL166  LYS551  ARG553  GLY616  TRP617  ASP618  TYR619  PRO620  LYS621  CYS622 
 ASP623  PHE694  ASN695  SER759  ASP760  ASP761  ALA762  ILE779  LEU786  VAL792 
 PHE793  MET794  SER795  GLU796  ALA797  LYS798  CYS799  TRP800  GLU811  SER814 

> <Gold.Protein.RotatedAtoms>
  152.4612  134.5180  159.9773 H   0  0  0  0  0  0  0  0  0  0  0  0  # atno 6907 bound_to 6896
  151.5228  133.3457  159.2912 H   0  0  0  0  0  0  0  0  0  0  0  0  # atno 6908 bound_to 6896
  150.8576  134.7948  159.7120 H   0  0  0  0  0  0  0  0  0  0  0  0  # atno 6909 bound_to 6896
  145.3404  139.2463  143.3612 H   0  0  0  0  0  0  0  0  0  0  0  0  # atno 7974 bound_to 7965
  154.5395  140.2281  155.8666 H   0  0  0  0  0  0  0  0  0  0  0  0  # atno 8008 bound_to 7997
  156.1844  140.3092  155.9173 H   0  0  0  0  0  0  0  0  0  0  0  0  # atno 8009 bound_to 7997
  155.3287  140.0444  157.3032 H   0  0  0  0  0  0  0  0  0  0  0  0  # atno 8010 bound_to 7997
  139.9982  144.5706  150.7759 H   0  0  0  0  0  0  0  0  0  0  0  0  # atno 10167 bound_to 10162
  157.5214  131.1098  150.9148 H   0  0  0  0  0  0  0  0  0  0  0  0  # atno 10718 bound_to 10713
  154.8054  135.3258  154.7445 H   0  0  0  0  0  0  0  0  0  0  0  0  # atno 10763 bound_to 10752
  153.8105  135.6896  153.4846 H   0  0  0  0  0  0  0  0  0  0  0  0  # atno 10764 bound_to 10752
  153.1796  135.4592  154.9955 H   0  0  0  0  0  0  0  0  0  0  0  0  # atno 10765 bound_to 10752
  140.5859  134.5094  157.5186 H   0  0  0  0  0  0  0  0  0  0  0  0  # atno 11005 bound_to 11000
  146.3009  140.4001  142.8704 LP  0  0  0  0  0  0  0  0  0  0  0  0  # atno 17320 bound_to 7965
  144.8794  140.7380  143.5996 LP  0  0  0  0  0  0  0  0  0  0  0  0  # atno 17321 bound_to 7965
  140.7429  143.2838  151.3521 LP  0  0  0  0  0  0  0  0  0  0  0  0  # atno 17342 bound_to 10162
  139.6291  144.0757  152.2460 LP  0  0  0  0  0  0  0  0  0  0  0  0  # atno 17343 bound_to 10162
  156.9757  130.5508  149.5293 LP  0  0  0  0  0  0  0  0  0  0  0  0  # atno 17370 bound_to 10713
  156.0356  130.5444  150.8645 LP  0  0  0  0  0  0  0  0  0  0  0  0  # atno 17371 bound_to 10713
  139.9296  134.7990  156.0969 LP  0  0  0  0  0  0  0  0  0  0  0  0  # atno 17394 bound_to 11000
  141.0966  133.6693  156.2659 LP  0  0  0  0  0  0  0  0  0  0  0  0  # atno 17395 bound_to 11000

$$$$
