AV-unprocessed.smi:112|AV-procd|sdf|1089|dock7
  -GOLD-   2262018193D 1   1.00000     0.00000
 Structure written by MMmdl.
 54 57  0  0  0  0  0  0  0  0  3 V2000
  147.1445  139.7943  152.9111 C   0  0  0  0  0  0  0  0  0  0  0  0
  147.5242  140.3655  154.2687 C   0  0  0  0  0  0  0  0  0  0  0  0
  146.6444  140.4287  155.2948 C   0  0  0  0  0  0  0  0  0  0  0  0
  146.9596  140.9376  156.5435 N   0  0  0  0  0  0  0  0  0  0  0  0
  145.9574  140.9881  157.6800 C   0  0  2  0  0  0  0  0  0  0  0  0
  145.4748  139.5815  158.0592 C   0  0  0  0  0  0  0  0  0  0  0  0
  144.0186  139.8415  158.3755 C   0  0  2  0  0  0  0  0  0  0  0  0
  143.2399  138.6630  158.3173 O   0  0  0  0  0  0  0  0  0  0  0  0
  143.6416  140.9124  157.3439 C   0  0  2  0  0  0  0  0  0  0  0  0
  143.3328  140.3724  155.9295 C   0  0  0  0  0  0  0  0  0  0  0  0
  143.1574  141.4486  155.0330 O   0  0  0  0  0  0  0  0  0  0  0  0
  144.8233  141.7159  157.2929 O   0  0  0  0  0  0  0  0  0  0  0  0
  148.2478  141.4621  156.7729 C   0  0  0  0  0  0  0  0  0  0  0  0
  148.5446  141.9440  157.8688 O   0  0  0  0  0  0  0  0  0  0  0  0
  149.1889  141.4157  155.7202 N   0  0  0  0  0  0  0  0  0  0  0  0
  150.5513  141.9402  155.9672 C   0  0  0  0  0  0  0  0  0  0  0  0
  151.3461  141.1351  157.0191 C   0  0  0  0  0  0  0  0  0  0  0  0
  151.5120  139.9276  156.8427 O   0  0  0  0  0  0  0  0  0  0  0  0
  151.8316  141.8036  158.0947 N   0  0  0  0  0  0  0  0  0  0  0  0
  151.6361  143.2479  158.3103 C   0  0  0  0  0  0  0  0  0  0  0  0
  152.3613  143.5922  159.6293 C   0  0  0  0  0  0  0  0  0  0  0  0
  152.9145  142.2686  160.0677 C   0  0  0  0  0  0  0  0  0  0  0  0
  153.6676  142.0165  161.2270 C   0  0  0  0  0  0  0  0  0  0  0  0
  154.1117  140.6949  161.4809 C   0  0  0  0  0  0  0  0  0  0  0  0
  154.9075  140.3932  162.6874 N   0  3  0  0  0  0  0  0  0  0  0  0
  155.2674  139.2350  162.8719 O   0  0  0  0  0  0  0  0  0  0  0  0
  155.1742  141.3142  163.4528 O   0  5  0  0  0  0  0  0  0  0  0  0
  153.7816  139.6666  160.5584 C   0  0  0  0  0  0  0  0  0  0  0  0
  153.0230  139.9379  159.3985 C   0  0  0  0  0  0  0  0  0  0  0  0
  152.5925  141.2619  159.1649 C   0  0  0  0  0  0  0  0  0  0  0  0
  148.8894  140.8629  154.4514 C   0  0  0  0  0  0  0  0  0  0  0  0
  149.7492  140.8124  153.5696 O   0  0  0  0  0  0  0  0  0  0  0  0
  146.1057  139.4634  152.8847 H   0  0  0  0  0  0  0  0  0  0  0  0
  147.7728  138.9364  152.6688 H   0  0  0  0  0  0  0  0  0  0  0  0
  147.2745  140.5455  152.1313 H   0  0  0  0  0  0  0  0  0  0  0  0
  145.6481  140.0584  155.1088 H   0  0  0  0  0  0  0  0  0  0  0  0
  146.4595  141.5149  158.4934 H   0  0  0  0  0  0  0  0  0  0  0  0
  145.5767  138.9118  157.2032 H   0  0  0  0  0  0  0  0  0  0  0  0
  146.0407  139.1776  158.8991 H   0  0  0  0  0  0  0  0  0  0  0  0
  143.9395  140.2643  159.3783 H   0  0  0  0  0  0  0  0  0  0  0  0
  142.9121  138.4745  159.1835 H   0  0  0  0  0  0  0  0  0  0  0  0
  142.7977  141.5004  157.7074 H   0  0  0  0  0  0  0  0  0  0  0  0
  144.1089  139.6997  155.5657 H   0  0  0  0  0  0  0  0  0  0  0  0
  142.3996  139.8094  155.9269 H   0  0  0  0  0  0  0  0  0  0  0  0
  143.1704  141.1102  154.1509 H   0  0  0  0  0  0  0  0  0  0  0  0
  151.1277  141.9681  155.0416 H   0  0  0  0  0  0  0  0  0  0  0  0
  150.4967  142.9841  156.2781 H   0  0  0  0  0  0  0  0  0  0  0  0
  152.0540  143.8248  157.4842 H   0  0  0  0  0  0  0  0  0  0  0  0
  150.5747  143.4849  158.3927 H   0  0  0  0  0  0  0  0  0  0  0  0
  153.1674  144.3098  159.4743 H   0  0  0  0  0  0  0  0  0  0  0  0
  151.6751  143.9872  160.3791 H   0  0  0  0  0  0  0  0  0  0  0  0
  153.8970  142.8268  161.9031 H   0  0  0  0  0  0  0  0  0  0  0  0
  154.1091  138.6522  160.7318 H   0  0  0  0  0  0  0  0  0  0  0  0
  152.7945  139.1279  158.7245 H   0  0  0  0  0  0  0  0  0  0  0  0
  1  2  1  0  0  0  0
  1 33  1  0  0  0  0
  1 34  1  0  0  0  0
  1 35  1  0  0  0  0
  2 31  1  0  0  0  0
  2  3  2  0  0  0  0
  3  4  1  0  0  0  0
  3 36  1  0  0  0  0
  4  5  1  0  0  0  0
  4 13  1  0  0  0  0
  5 12  1  0  0  0  0
  5  6  1  0  0  0  0
  5 37  1  0  0  0  0
  6  7  1  0  0  0  0
  6 38  1  0  0  0  0
  6 39  1  0  0  0  0
  7  8  1  0  0  0  0
  7  9  1  0  0  0  0
  7 40  1  0  0  0  0
  8 41  1  0  0  0  0
  9 10  1  0  0  0  0
  9 12  1  0  0  0  0
  9 42  1  0  0  0  0
 10 11  1  0  0  0  0
 10 43  1  0  0  0  0
 10 44  1  0  0  0  0
 11 45  1  0  0  0  0
 13 14  2  0  0  0  0
 13 15  1  0  0  0  0
 15 16  1  0  0  0  0
 15 31  1  0  0  0  0
 16 17  1  0  0  0  0
 16 46  1  0  0  0  0
 16 47  1  0  0  0  0
 17 18  2  0  0  0  0
 17 19  1  0  0  0  0
 19 30  1  0  0  0  0
 19 20  1  0  0  0  0
 20 21  1  0  0  0  0
 20 48  1  0  0  0  0
 20 49  1  0  0  0  0
 21 22  1  0  0  0  0
 21 50  1  0  0  0  0
 21 51  1  0  0  0  0
 22 30  2  0  0  0  0
 22 23  1  0  0  0  0
 23 24  2  0  0  0  0
 23 52  1  0  0  0  0
 24 25  1  0  0  0  0
 24 28  1  0  0  0  0
 25 26  2  0  0  0  0
 25 27  1  0  0  0  0
 28 29  2  0  0  0  0
 28 53  1  0  0  0  0
 29 30  1  0  0  0  0
 29 54  1  0  0  0  0
 31 32  2  0  0  0  0
M  CHG  1  25   1
M  CHG  1  27  -1
M  END
> <s_m_source_file>
AV-unprocessed.smi

> <i_m_source_file_index>
112

> <i_lp_mmshare_version>
43012

> <i_f3d_flags>
0

> <s_epik_input>
W09IXVtDSDJdW0NAQEhdKE8xKVtDQEhdKFtPSF0pW0NIMl1bQ0BIXTFuKFtjSF1jMltDSDNdKWMoPU8pbihjMj1PKVtDSDJdQyg9TylOKFtDSDJdW0NIMl0zKWMoYzM0KVtjSF1bY0hdYyhbY0hdNClbTitdKD1PKVtPLV0=

> <s_epik_cmdline>
J2VwaWtfcHl0aG9uJywgJy1waCcsICc3LjAnLCAnLXRuJywgJzgnLCAnLW1hJywgJzIwMCcsICctbWV0YWxfYmluZGluZycsICctaW1hZScsICc8aW5maWxlLm1hZT4nLCAnLW9tYWUnLCAnPG91dGZpbGUubWFlPic=

> <r_lp_tautomer_probability>
1

> <r_epik_Ionization_Penalty>
2.5696e-07

> <r_epik_Ionization_Penalty_Charging>
1.04886e-08

> <r_epik_Ionization_Penalty_Neutral>
2.46472e-07

> <r_epik_State_Penalty>
-0

> <r_epik_Charging_Adjusted_Penalty>
1.04886e-08

> <i_epik_Tot_Q>
0

> <i_epik_Tot_abs_Q>
2

> <r_epik_Metal_State_Penalty>
-0

> <b_epik_Metal_Only>
0

> <s_epik_Chemistry_Notes>
This compound contains an acetal/aminal-like group ( X-CH(R)-Y where X, Y are N, S, or O) that may be acid/base labile, releasing an aldehyde.

> <s_lp_Force_Field>
OPLS_2005

> <r_lp_Energy>
59.9345

> <b_lp_Chiralities_Consistent>
1

> <s_lp_Variant>
AV-unprocessed.smi:112-7

> <Gold.Version>
5.8.1

> <Gold.Id.Protein>
6NUR|6NUR_protein|mol2

> <Gold.PLP.Fitness>
51.4818

> <Gold.PLP.PLP>
-44.4760

> <Gold.PLP.part.hbond>
-4.5653

> <Gold.PLP.part.metal>
0.0000

> <Gold.PLP.part.buried>
-5.3251

> <Gold.PLP.part.nonpolar>
-38.4963

> <Gold.PLP.part.repulsive>
4.1426

> <Gold.PLP.ligand.clash>
0.0000

> <Gold.PLP.ligand.torsion>
0.0633

> <Gold.PLP.Chemscore.Hbond>
2.3680

> <Gold.PLP.Chemscore.CHOScore>
0.0000

> <Gold.PLP.Chemscore.Metal>
0.0000

> <Gold.Chemscore.Hbonds>
donor molecule, donor type, donor heavy atom, donor atom, acceptor molecule, acceptor atom, score
      L1  H    11    45       P1 10175  1.00
      P1  H  7989  7998       L1    32  0.37
      P1  H  8011  8017       L1    32  1.00

> <Gold.PLP.Chemscore.Internal.Correction>
0.0285

> <Gold.Rescore>
     Score         DG    S(hbond)    S(metal)    S(lipo)     H(rot)  DE(clash)    DE(int)     intcor
     11.98     -15.98       2.24        0.00      97.79       3.29       1.89       2.12       ----

> <Gold.Chemscore.Fitness>
11.9818

> <Gold.Chemscore.DG>
-15.9836

> <Gold.Chemscore.ZeroCoef>
-5.4800

> <Gold.Chemscore.Hbond>
2.2420

> <Gold.Chemscore.Metal>
0.0000

> <Gold.Chemscore.Lipo>
97.7947

> <Gold.Chemscore.Internal_Hbond>
0.0000

> <Gold.Chemscore.DEClash>
1.8861

> <Gold.Chemscore.DEInternal>
2.1158

> <Gold.Chemscore.Rot>
3.2916

> <Gold.Chemscore.Internal.Correction>
   9.000000E+99

> <Gold.Chemscore.Hbonds>
donor molecule, donor type, donor heavy atom, donor atom, acceptor molecule, acceptor atom, score
      L1  H    11    45       P1 10175  0.40
      P1  H  7989  7998       L1    32  0.38
      P1  H  8011  8017       L1    32  0.83

> <Gold.Chemscore.Hbond.Weighted>
-7.4882

> <Gold.Chemscore.Metal.Weighted>
-0.0000

> <Gold.Chemscore.Lipo.Weighted>
-11.4420

> <Gold.Chemscore.Internal_Hbond.Weighted>
0.0000

> <Gold.Chemscore.DEClash.Weighted>
1.8861

> <Gold.Chemscore.DEInternal.Weighted>
2.1158

> <Gold.Chemscore.Rot.Weighted>
8.4265

> <Gold.Chemscore.Internal.Correction.Weighted>
   9.000000E+99

> <Gold.Protein.RotatedTorsions>
[ 6907 6896 6895 6894 ] final  -21.99 input  -60.11 | X-H torsion
[ 7974 7965 7964 7962 ] final  -98.26 input  175.53 | X-H torsion
[ 8008 7997 7996 7995 ] final -128.91 input   59.86 | X-H torsion
[ 10167 10162 10161 10158 ] final -122.66 input  -65.29 | X-H torsion
[ 10718 10713 10712 10709 ] final  103.09 input   66.30 | X-H torsion
[ 10763 10752 10751 10750 ] final   71.46 input  -60.55 | X-H torsion
[ 11005 11000 10999 10996 ] final  158.56 input  -57.11 | X-H torsion

> <Gold.Protein.ActiveResidues>
 VAL166  LYS551  ARG553  GLY616  TRP617  ASP618  TYR619  PRO620  LYS621  CYS622 
 ASP623  PHE694  ASN695  SER759  ASP760  ASP761  ALA762  ILE779  LEU786  VAL792 
 PHE793  MET794  SER795  GLU796  ALA797  LYS798  CYS799  TRP800  GLU811  SER814 

> <Gold.Protein.RotatedAtoms>
  151.2251  135.0533  159.8965 H   0  0  0  0  0  0  0  0  0  0  0  0  # atno 6907 bound_to 6896
  152.5411  134.0597  159.8157 H   0  0  0  0  0  0  0  0  0  0  0  0  # atno 6908 bound_to 6896
  151.0769  133.5372  159.2655 H   0  0  0  0  0  0  0  0  0  0  0  0  # atno 6909 bound_to 6896
  145.3229  140.9425  143.2705 H   0  0  0  0  0  0  0  0  0  0  0  0  # atno 7974 bound_to 7965
  155.2705  140.0440  157.3006 H   0  0  0  0  0  0  0  0  0  0  0  0  # atno 8008 bound_to 7997
  154.5656  140.2359  155.8237 H   0  0  0  0  0  0  0  0  0  0  0  0  # atno 8009 bound_to 7997
  156.2082  140.3006  155.9682 H   0  0  0  0  0  0  0  0  0  0  0  0  # atno 8010 bound_to 7997
  140.0119  143.5433  152.2259 H   0  0  0  0  0  0  0  0  0  0  0  0  # atno 10167 bound_to 10162
  157.6783  131.0770  150.5503 H   0  0  0  0  0  0  0  0  0  0  0  0  # atno 10718 bound_to 10713
  153.0400  135.5136  154.7597 H   0  0  0  0  0  0  0  0  0  0  0  0  # atno 10763 bound_to 10752
  154.6542  135.2929  154.9951 H   0  0  0  0  0  0  0  0  0  0  0  0  # atno 10764 bound_to 10752
  154.0825  135.6662  153.4892 H   0  0  0  0  0  0  0  0  0  0  0  0  # atno 10765 bound_to 10752
  140.1877  134.8430  157.2876 H   0  0  0  0  0  0  0  0  0  0  0  0  # atno 11005 bound_to 11000
  144.8925  139.4756  143.6671 LP  0  0  0  0  0  0  0  0  0  0  0  0  # atno 17320 bound_to 7965
  146.3075  139.7631  142.9045 LP  0  0  0  0  0  0  0  0  0  0  0  0  # atno 17321 bound_to 7965
  139.6199  144.7627  151.2763 LP  0  0  0  0  0  0  0  0  0  0  0  0  # atno 17342 bound_to 10162
  140.7378  143.6667  150.8116 LP  0  0  0  0  0  0  0  0  0  0  0  0  # atno 17343 bound_to 10162
  156.5808  130.4304  149.5978 LP  0  0  0  0  0  0  0  0  0  0  0  0  # atno 17370 bound_to 10713
  156.2663  130.6991  151.1775 LP  0  0  0  0  0  0  0  0  0  0  0  0  # atno 17371 bound_to 10713
  140.2195  134.4041  155.7573 LP  0  0  0  0  0  0  0  0  0  0  0  0  # atno 17394 bound_to 11000
  141.2225  133.7159  156.8467 LP  0  0  0  0  0  0  0  0  0  0  0  0  # atno 17395 bound_to 11000

$$$$
