AV-unprocessed.smi:2579|AV-procd|sdf|10123|dock3
  -GOLD-   2272014143D 1   1.00000     0.00000
 Structure written by MMmdl.
 39 41  0  0  0  0  0  0  0  0  2 V2000
  149.0685  139.2453  153.5085 O   0  0  0  0  0  0  0  0  0  0  0  0
  148.2812  140.2963  154.0256 C   0  0  0  0  0  0  0  0  0  0  0  0
  149.1686  141.2845  154.7993 C   0  0  0  0  0  0  0  0  0  0  0  0
  149.6132  140.7485  156.0783 N   0  0  0  0  0  0  0  0  0  0  0  0
  150.3103  141.5665  156.9756 C   0  0  0  0  0  0  0  0  0  0  0  0
  150.4226  142.9202  156.9063 N   0  3  0  0  0  0  0  0  0  0  0  0
  151.2022  143.3529  157.9827 C   0  0  0  0  0  0  0  0  0  0  0  0
  151.6078  144.6314  158.3535 C   0  0  0  0  0  0  0  0  0  0  0  0
  152.4079  144.7320  159.5105 C   0  0  0  0  0  0  0  0  0  0  0  0
  152.7781  143.5904  160.2505 C   0  0  0  0  0  0  0  0  0  0  0  0
  152.3621  142.2983  159.8678 C   0  0  0  0  0  0  0  0  0  0  0  0
  151.5678  142.2043  158.7253 C   0  0  0  0  0  0  0  0  0  0  0  0
  150.9845  141.1151  158.0644 N   0  0  0  0  0  0  0  0  0  0  0  0
  151.1755  139.7526  158.5803 C   0  0  0  0  0  0  0  0  0  0  0  0
  151.8718  138.8398  157.5584 C   0  0  2  0  0  0  0  0  0  0  0  0
  151.7039  137.3489  157.8499 C   0  0  0  0  0  0  0  0  0  0  0  0
  152.9407  136.7675  157.2048 C   0  0  0  0  0  0  0  0  0  0  0  0
  153.9829  137.8304  157.5347 C   0  0  0  0  0  0  0  0  0  0  0  0
  153.2800  139.0691  157.5307 O   0  0  0  0  0  0  0  0  0  0  0  0
  149.1635  139.3698  152.5763 H   0  0  0  0  0  0  0  0  0  0  0  0
  147.7230  140.7829  153.2252 H   0  0  0  0  0  0  0  0  0  0  0  0
  147.5497  139.8552  154.7028 H   0  0  0  0  0  0  0  0  0  0  0  0
  150.0452  141.5347  154.2011 H   0  0  0  0  0  0  0  0  0  0  0  0
  148.6406  142.2241  154.9652 H   0  0  0  0  0  0  0  0  0  0  0  0
  149.6420  139.7457  156.1965 H   0  0  0  0  0  0  0  0  0  0  0  0
  151.3294  145.5087  157.7881 H   0  0  0  0  0  0  0  0  0  0  0  0
  152.7462  145.7048  159.8365 H   0  0  0  0  0  0  0  0  0  0  0  0
  153.3949  143.7074  161.1297 H   0  0  0  0  0  0  0  0  0  0  0  0
  152.6578  141.4305  160.4386 H   0  0  0  0  0  0  0  0  0  0  0  0
  151.7360  139.8027  159.5139 H   0  0  0  0  0  0  0  0  0  0  0  0
  150.1932  139.3520  158.8325 H   0  0  0  0  0  0  0  0  0  0  0  0
  151.4921  139.0500  156.5572 H   0  0  0  0  0  0  0  0  0  0  0  0
  151.7236  137.1595  158.9243 H   0  0  0  0  0  0  0  0  0  0  0  0
  150.7769  136.9392  157.4480 H   0  0  0  0  0  0  0  0  0  0  0  0
  153.2023  135.7802  157.5863 H   0  0  0  0  0  0  0  0  0  0  0  0
  152.8026  136.6951  156.1252 H   0  0  0  0  0  0  0  0  0  0  0  0
  154.3891  137.6671  158.5337 H   0  0  0  0  0  0  0  0  0  0  0  0
  154.8128  137.8380  156.8277 H   0  0  0  0  0  0  0  0  0  0  0  0
  150.0033  143.4953  156.1873 H   0  0  0  0  0  0  0  0  0  0  0  0
  1  2  1  0  0  0  0
  1 20  1  0  0  0  0
  2  3  1  0  0  0  0
  2 21  1  0  0  0  0
  2 22  1  0  0  0  0
  3  4  1  0  0  0  0
  3 23  1  0  0  0  0
  3 24  1  0  0  0  0
  4  5  1  0  0  0  0
  4 25  1  0  0  0  0
  5 13  1  0  0  0  0
  5  6  2  0  0  0  0
  6  7  1  0  0  0  0
  6 39  1  0  0  0  0
  7 12  2  0  0  0  0
  7  8  1  0  0  0  0
  8  9  2  0  0  0  0
  8 26  1  0  0  0  0
  9 10  1  0  0  0  0
  9 27  1  0  0  0  0
 10 11  2  0  0  0  0
 10 28  1  0  0  0  0
 11 12  1  0  0  0  0
 11 29  1  0  0  0  0
 12 13  1  0  0  0  0
 13 14  1  0  0  0  0
 14 15  1  0  0  0  0
 14 30  1  0  0  0  0
 14 31  1  0  0  0  0
 15 19  1  0  0  0  0
 15 16  1  0  0  0  0
 15 32  1  0  0  0  0
 16 17  1  0  0  0  0
 16 33  1  0  0  0  0
 16 34  1  0  0  0  0
 17 18  1  0  0  0  0
 17 35  1  0  0  0  0
 17 36  1  0  0  0  0
 18 19  1  0  0  0  0
 18 37  1  0  0  0  0
 18 38  1  0  0  0  0
M  CHG  1   6   1
M  END
> <s_m_source_file>
AV-unprocessed.smi

> <i_m_source_file_index>
2579

> <i_lp_mmshare_version>
43012

> <i_f3d_flags>
0

> <s_epik_input>
W09IXVtDSDJdW0NIMl1bTkhdYyhuMSluKGMoYzEyKVtjSF1bY0hdW2NIXVtjSF0yKVtDSDJdW0NAQEhdM1tDSDJdW0NIMl1bQ0gyXU8z

> <s_epik_cmdline>
J2VwaWtfcHl0aG9uJywgJy1waCcsICc3LjAnLCAnLXRuJywgJzgnLCAnLW1hJywgJzIwMCcsICctbWV0YWxfYmluZGluZycsICctaW1hZScsICc8aW5maWxlLm1hZT4nLCAnLW9tYWUnLCAnPG91dGZpbGUubWFlPic=

> <r_epik_Ionization_Penalty>
0.0735651

> <r_epik_Ionization_Penalty_Charging>
0.0735628

> <r_epik_Ionization_Penalty_Neutral>
2.35277e-06

> <r_epik_State_Penalty>
0.0647164

> <r_epik_Charging_Adjusted_Penalty>
0.138279

> <i_epik_Tot_Q>
1

> <i_epik_Tot_abs_Q>
1

> <r_epik_Metal_State_Penalty>
2.81856

> <b_epik_Metal_Only>
0

> <s_lp_Force_Field>
OPLS_2005

> <r_lp_Energy>
32.6829

> <b_lp_Chiralities_Consistent>
1

> <s_lp_Variant>
AV-unprocessed.smi:2579-1

> <Gold.Version>
5.8.1

> <Gold.Id.Protein>
6NUR|6NUR_protein|mol2

> <Gold.PLP.Fitness>
49.2282

> <Gold.PLP.PLP>
-37.7278

> <Gold.PLP.part.hbond>
-3.0000

> <Gold.PLP.part.metal>
0.0000

> <Gold.PLP.part.buried>
-5.5085

> <Gold.PLP.part.nonpolar>
-29.3222

> <Gold.PLP.part.repulsive>
0.0818

> <Gold.PLP.ligand.clash>
0.0000

> <Gold.PLP.ligand.torsion>
0.2282

> <Gold.PLP.Chemscore.Hbond>
3.9840

> <Gold.PLP.Chemscore.CHOScore>
0.0000

> <Gold.PLP.Chemscore.Metal>
0.0000

> <Gold.Chemscore.Hbonds>
donor molecule, donor type, donor heavy atom, donor atom, acceptor molecule, acceptor atom, score
      L1  H     1    20       P1  7957  1.00
      L1  H     6    39       P1  8028  2.00
      P1  H  7997  8009       L1    19  1.00

> <Gold.PLP.Chemscore.Internal.Correction>
0.0049

> <Gold.Rescore>
     Score         DG    S(hbond)    S(metal)    S(lipo)     H(rot)  DE(clash)    DE(int)     intcor
     20.71     -21.22       2.80        0.00     103.12       2.22       0.11       0.40       ----

> <Gold.Chemscore.Fitness>
20.7120

> <Gold.Chemscore.DG>
-21.2244

> <Gold.Chemscore.ZeroCoef>
-5.4800

> <Gold.Chemscore.Hbond>
2.8033

> <Gold.Chemscore.Metal>
0.0000

> <Gold.Chemscore.Lipo>
103.1215

> <Gold.Chemscore.Internal_Hbond>
0.0000

> <Gold.Chemscore.DEClash>
0.1075

> <Gold.Chemscore.DEInternal>
0.4049

> <Gold.Chemscore.Rot>
2.2202

> <Gold.Chemscore.Internal.Correction>
   9.000000E+99

> <Gold.Chemscore.Hbonds>
donor molecule, donor type, donor heavy atom, donor atom, acceptor molecule, acceptor atom, score
      L1  H     1    20       P1  7957  0.99
      L1  H     6    39       P1  8028  0.96
      P1  H  7997  8009       L1    19  0.30

> <Gold.Chemscore.Hbond.Weighted>
-9.3629

> <Gold.Chemscore.Metal.Weighted>
-0.0000

> <Gold.Chemscore.Lipo.Weighted>
-12.0652

> <Gold.Chemscore.Internal_Hbond.Weighted>
0.0000

> <Gold.Chemscore.DEClash.Weighted>
0.1075

> <Gold.Chemscore.DEInternal.Weighted>
0.4049

> <Gold.Chemscore.Rot.Weighted>
5.6837

> <Gold.Chemscore.Internal.Correction.Weighted>
   9.000000E+99

> <Gold.Protein.RotatedTorsions>
[ 6907 6896 6895 6894 ] final   80.51 input  -60.11 | X-H torsion
[ 7974 7965 7964 7962 ] final -124.26 input  175.53 | X-H torsion
[ 8008 7997 7996 7995 ] final  179.47 input   59.86 | X-H torsion
[ 10167 10162 10161 10158 ] final  164.44 input  -65.29 | X-H torsion
[ 10718 10713 10712 10709 ] final  120.37 input   66.30 | X-H torsion
[ 10763 10752 10751 10750 ] final   63.83 input  -60.55 | X-H torsion
[ 11005 11000 10999 10996 ] final  -30.83 input  -57.11 | X-H torsion

> <Gold.Protein.ActiveResidues>
 VAL166  LYS551  ARG553  GLY616  TRP617  ASP618  TYR619  PRO620  LYS621  CYS622 
 ASP623  PHE694  ASN695  SER759  ASP760  ASP761  ALA762  ILE779  LEU786  VAL792 
 PHE793  MET794  SER795  GLU796  ALA797  LYS798  CYS799  TRP800  GLU811  SER814 

> <Gold.Protein.RotatedAtoms>
  152.5237  134.3346  159.9195 H   0  0  0  0  0  0  0  0  0  0  0  0  # atno 6907 bound_to 6896
  151.3296  133.4000  159.2669 H   0  0  0  0  0  0  0  0  0  0  0  0  # atno 6908 bound_to 6896
  150.9892  134.9248  159.7947 H   0  0  0  0  0  0  0  0  0  0  0  0  # atno 6909 bound_to 6896
  145.0100  140.7897  143.4444 H   0  0  0  0  0  0  0  0  0  0  0  0  # atno 7974 bound_to 7965
  156.0431  140.1308  157.0134 H   0  0  0  0  0  0  0  0  0  0  0  0  # atno 8008 bound_to 7997
  154.4400  140.1026  156.6336 H   0  0  0  0  0  0  0  0  0  0  0  0  # atno 8009 bound_to 7997
  155.5637  140.3465  155.4500 H   0  0  0  0  0  0  0  0  0  0  0  0  # atno 8010 bound_to 7997
  139.4889  144.4234  151.9158 H   0  0  0  0  0  0  0  0  0  0  0  0  # atno 10167 bound_to 10162
  157.5895  131.1066  150.8026 H   0  0  0  0  0  0  0  0  0  0  0  0  # atno 10718 bound_to 10713
  153.0032  135.5415  154.6414 H   0  0  0  0  0  0  0  0  0  0  0  0  # atno 10763 bound_to 10752
  154.5668  135.2838  155.0868 H   0  0  0  0  0  0  0  0  0  0  0  0  # atno 10764 bound_to 10752
  154.2049  135.6477  153.5150 H   0  0  0  0  0  0  0  0  0  0  0  0  # atno 10765 bound_to 10752
  140.9416  133.7275  156.1084 H   0  0  0  0  0  0  0  0  0  0  0  0  # atno 11005 bound_to 11000
  145.2036  139.2239  143.5180 LP  0  0  0  0  0  0  0  0  0  0  0  0  # atno 17320 bound_to 7965
  146.3468  140.1859  142.8589 LP  0  0  0  0  0  0  0  0  0  0  0  0  # atno 17321 bound_to 7965
  140.3679  144.2891  150.5924 LP  0  0  0  0  0  0  0  0  0  0  0  0  # atno 17342 bound_to 10162
  140.5345  143.2236  151.8186 LP  0  0  0  0  0  0  0  0  0  0  0  0  # atno 17343 bound_to 10162
  156.8451  130.5061  149.5317 LP  0  0  0  0  0  0  0  0  0  0  0  0  # atno 17370 bound_to 10713
  156.0948  130.5924  150.9795 LP  0  0  0  0  0  0  0  0  0  0  0  0  # atno 17371 bound_to 10713
  140.7726  134.3815  157.5504 LP  0  0  0  0  0  0  0  0  0  0  0  0  # atno 17394 bound_to 11000
  139.8822  134.9031  156.2849 LP  0  0  0  0  0  0  0  0  0  0  0  0  # atno 17395 bound_to 11000

$$$$
