AV-unprocessed.smi:148|AV-procd|sdf|1228|dock8
  -GOLD-   2262018433D 1   1.00000     0.00000
 Structure written by MMmdl.
 63 67  0  0  0  0  0  0  0  0  1 V2000
  148.8055  133.6342  158.8962 O   0  0  0  0  0  0  0  0  0  0  0  0
  147.7783  133.1182  159.7175 C   0  0  0  0  0  0  0  0  0  0  0  0
  146.4630  133.9179  159.5491 C   0  0  2  0  0  0  0  0  0  0  0  0
  146.3202  134.5443  158.1395 C   0  0  0  0  0  0  0  0  0  0  0  0
  146.3543  133.5583  157.0734 N   0  0  0  0  0  0  0  0  0  0  0  0
  145.6780  132.3599  157.0447 C   0  0  0  0  0  0  0  0  0  0  0  0
  145.8778  131.6339  155.9788 N   0  0  0  0  0  0  0  0  0  0  0  0
  146.7529  132.3940  155.2119 C   0  0  0  0  0  0  0  0  0  0  0  0
  147.3786  132.2160  153.9453 C   0  0  0  0  0  0  0  0  0  0  0  0
  147.2267  131.1290  153.1582 N   0  0  0  0  0  0  0  0  0  0  0  0
  147.9318  130.0036  153.7769 C   0  0  0  0  0  0  0  0  0  0  0  0
  148.0277  128.8059  152.8280 C   0  0  0  0  0  0  0  0  0  0  0  0
  146.6287  128.4050  152.3603 C   0  0  0  0  0  0  0  0  0  0  0  0
  145.9352  129.6088  151.7112 C   0  0  0  0  0  0  0  0  0  0  0  0
  145.8671  130.8459  152.6494 C   0  0  2  0  0  0  0  0  0  0  0  0
  145.2053  132.0520  151.8948 C   0  0  2  0  0  0  0  0  0  0  0  0
  143.9908  131.7461  150.9913 C   0  0  0  0  0  0  0  0  0  0  0  0
  143.8973  132.8834  149.9642 C   0  0  0  0  0  0  0  0  0  0  0  0
  145.1811  133.7040  150.1159 C   0  0  0  0  0  0  0  0  0  0  0  0
  146.1311  132.8249  150.9308 C   0  0  2  0  0  0  0  0  0  0  0  0
  146.8023  131.9451  150.0457 O   0  0  0  0  0  0  0  0  0  0  0  0
  148.2117  133.1897  153.5025 N   0  0  0  0  0  0  0  0  0  0  0  0
  148.4059  134.2867  154.2406 C   0  0  0  0  0  0  0  0  0  0  0  0
  147.8836  134.5973  155.4293 N   0  0  0  0  0  0  0  0  0  0  0  0
  147.0585  133.6105  155.8833 C   0  0  0  0  0  0  0  0  0  0  0  0
  146.2720  134.9740  160.6673 C   0  0  1  0  0  0  0  0  0  0  0  0
  147.1361  134.7631  161.8982 C   0  0  0  0  0  0  0  0  0  0  0  0
  147.0900  136.1351  162.5605 C   0  0  0  0  0  0  0  0  0  0  0  0
  147.0148  137.0708  161.4914 O   0  0  0  0  0  0  0  0  0  0  0  0
  146.6799  136.4004  160.2802 C   0  0  0  0  0  0  0  0  0  0  0  0
  148.4353  133.8595  158.0564 H   0  0  0  0  0  0  0  0  0  0  0  0
  147.6326  132.0653  159.4768 H   0  0  0  0  0  0  0  0  0  0  0  0
  148.1175  133.1419  160.7528 H   0  0  0  0  0  0  0  0  0  0  0  0
  145.6530  133.1941  159.6524 H   0  0  0  0  0  0  0  0  0  0  0  0
  145.3784  135.0859  158.0530 H   0  0  0  0  0  0  0  0  0  0  0  0
  147.1110  135.2751  157.9666 H   0  0  0  0  0  0  0  0  0  0  0  0
  145.0328  132.0367  157.8488 H   0  0  0  0  0  0  0  0  0  0  0  0
  148.9375  130.3082  154.0719 H   0  0  0  0  0  0  0  0  0  0  0  0
  147.4124  129.7028  154.6878 H   0  0  0  0  0  0  0  0  0  0  0  0
  148.6501  129.0611  151.9692 H   0  0  0  0  0  0  0  0  0  0  0  0
  148.5122  127.9679  153.3296 H   0  0  0  0  0  0  0  0  0  0  0  0
  146.6913  127.5785  151.6518 H   0  0  0  0  0  0  0  0  0  0  0  0
  146.0396  128.0503  153.2069 H   0  0  0  0  0  0  0  0  0  0  0  0
  146.4654  129.8754  150.7956 H   0  0  0  0  0  0  0  0  0  0  0  0
  144.9391  129.2910  151.4070 H   0  0  0  0  0  0  0  0  0  0  0  0
  145.2392  130.5813  153.5008 H   0  0  0  0  0  0  0  0  0  0  0  0
  144.8745  132.7682  152.6494 H   0  0  0  0  0  0  0  0  0  0  0  0
  144.1440  130.8028  150.4659 H   0  0  0  0  0  0  0  0  0  0  0  0
  143.0594  131.6659  151.5498 H   0  0  0  0  0  0  0  0  0  0  0  0
  143.8133  132.4745  148.9567 H   0  0  0  0  0  0  0  0  0  0  0  0
  143.0197  133.5070  150.1374 H   0  0  0  0  0  0  0  0  0  0  0  0
  145.5997  134.0156  149.1579 H   0  0  0  0  0  0  0  0  0  0  0  0
  144.9596  134.6103  150.6813 H   0  0  0  0  0  0  0  0  0  0  0  0
  146.8673  133.4323  151.4581 H   0  0  0  0  0  0  0  0  0  0  0  0
  147.6364  131.7159  150.4259 H   0  0  0  0  0  0  0  0  0  0  0  0
  149.0763  135.0206  153.8183 H   0  0  0  0  0  0  0  0  0  0  0  0
  145.2273  134.9869  160.9833 H   0  0  0  0  0  0  0  0  0  0  0  0
  146.7687  133.9734  162.5542 H   0  0  0  0  0  0  0  0  0  0  0  0
  148.1602  134.5213  161.6099 H   0  0  0  0  0  0  0  0  0  0  0  0
  146.1921  136.2324  163.1717 H   0  0  0  0  0  0  0  0  0  0  0  0
  147.9555  136.3224  163.1963 H   0  0  0  0  0  0  0  0  0  0  0  0
  147.5652  136.3915  159.6428 H   0  0  0  0  0  0  0  0  0  0  0  0
  145.8878  136.9281  159.7483 H   0  0  0  0  0  0  0  0  0  0  0  0
  1  2  1  0  0  0  0
  1 31  1  0  0  0  0
  2  3  1  0  0  0  0
  2 32  1  0  0  0  0
  2 33  1  0  0  0  0
  3  4  1  0  0  0  0
  3 26  1  0  0  0  0
  3 34  1  0  0  0  0
  4  5  1  0  0  0  0
  4 35  1  0  0  0  0
  4 36  1  0  0  0  0
  5 25  1  0  0  0  0
  5  6  1  0  0  0  0
  6  7  2  0  0  0  0
  6 37  1  0  0  0  0
  7  8  1  0  0  0  0
  8 25  2  0  0  0  0
  8  9  1  0  0  0  0
  9 10  1  0  0  0  0
  9 22  2  0  0  0  0
 10 15  1  0  0  0  0
 10 11  1  0  0  0  0
 11 12  1  0  0  0  0
 11 38  1  0  0  0  0
 11 39  1  0  0  0  0
 12 13  1  0  0  0  0
 12 40  1  0  0  0  0
 12 41  1  0  0  0  0
 13 14  1  0  0  0  0
 13 42  1  0  0  0  0
 13 43  1  0  0  0  0
 14 15  1  0  0  0  0
 14 44  1  0  0  0  0
 14 45  1  0  0  0  0
 15 16  1  0  0  0  0
 15 46  1  0  0  0  0
 16 20  1  0  0  0  0
 16 17  1  0  0  0  0
 16 47  1  0  0  0  0
 17 18  1  0  0  0  0
 17 48  1  0  0  0  0
 17 49  1  0  0  0  0
 18 19  1  0  0  0  0
 18 50  1  0  0  0  0
 18 51  1  0  0  0  0
 19 20  1  0  0  0  0
 19 52  1  0  0  0  0
 19 53  1  0  0  0  0
 20 21  1  0  0  0  0
 20 54  1  0  0  0  0
 21 55  1  0  0  0  0
 22 23  1  0  0  0  0
 23 24  2  0  0  0  0
 23 56  1  0  0  0  0
 24 25  1  0  0  0  0
 26 30  1  0  0  0  0
 26 27  1  0  0  0  0
 26 57  1  0  0  0  0
 27 28  1  0  0  0  0
 27 58  1  0  0  0  0
 27 59  1  0  0  0  0
 28 29  1  0  0  0  0
 28 60  1  0  0  0  0
 28 61  1  0  0  0  0
 29 30  1  0  0  0  0
 30 62  1  0  0  0  0
 30 63  1  0  0  0  0
M  END
> <s_m_source_file>
AV-unprocessed.smi

> <i_m_source_file_index>
148

> <i_lp_mmshare_version>
43012

> <i_f3d_flags>
0

> <s_epik_input>
W0NIMl0xT1tDSDJdW0NIMl1bQ0BIXTFbQ0BIXShbQ0gyXVtPSF0pW0NIMl1uKFtjSF1uMiljKGMyMyluW2NIXW5jM040W0NIMl1bQ0gyXVtDSDJdW0NIMl1bQ0BIXTRbQ0BASF01W0NIMl1bQ0gyXVtDSDJdW0NASF01W09IXQ==

> <s_epik_cmdline>
J2VwaWtfcHl0aG9uJywgJy1waCcsICc3LjAnLCAnLXRuJywgJzgnLCAnLW1hJywgJzIwMCcsICctbWV0YWxfYmluZGluZycsICctaW1hZScsICc8aW5maWxlLm1hZT4nLCAnLW9tYWUnLCAnPG91dGZpbGUubWFlPic=

> <r_lp_tautomer_probability>
1

> <r_epik_Ionization_Penalty>
0.00556303

> <r_epik_Ionization_Penalty_Charging>
0

> <r_epik_Ionization_Penalty_Neutral>
0.00556303

> <r_epik_State_Penalty>
0.00401767

> <r_epik_Charging_Adjusted_Penalty>
0.00401767

> <i_epik_Tot_Q>
0

> <i_epik_Tot_abs_Q>
0

> <r_epik_Metal_State_Penalty>
-0

> <b_epik_Metal_Only>
0

> <s_lp_Force_Field>
OPLS_2005

> <r_lp_Energy>
70.1865

> <b_lp_Chiralities_Consistent>
1

> <s_lp_Variant>
AV-unprocessed.smi:148-27

> <Gold.Version>
5.8.1

> <Gold.Id.Protein>
6NUR|6NUR_protein|mol2

> <Gold.PLP.Fitness>
51.5438

> <Gold.PLP.PLP>
-41.1301

> <Gold.PLP.part.hbond>
-3.6645

> <Gold.PLP.part.metal>
0.0000

> <Gold.PLP.part.buried>
-4.0192

> <Gold.PLP.part.nonpolar>
-34.0619

> <Gold.PLP.part.repulsive>
0.4806

> <Gold.PLP.ligand.clash>
0.0873

> <Gold.PLP.ligand.torsion>
2.1126

> <Gold.PLP.Chemscore.Hbond>
3.8802

> <Gold.PLP.Chemscore.CHOScore>
0.8586

> <Gold.PLP.Chemscore.Metal>
0.0000

> <Gold.Chemscore.Hbonds>
donor molecule, donor type, donor heavy atom, donor atom, acceptor molecule, acceptor atom, score
      L1  H    21    55       P1 10747  0.91
      P1  H  6896  6908       L1     1  1.00
      P1  H  6931  6943       L1    29  0.12
      P1  H  6934  6947       L1    29  0.99
      L1  C    23    56       P1  7948  1.00

> <Gold.PLP.Chemscore.Internal.Correction>
0.5099

> <Gold.Rescore>
     Score         DG    S(hbond)    S(metal)    S(lipo)     H(rot)  DE(clash)    DE(int)     intcor
     16.76     -20.45       2.94        0.00     116.71       3.32       0.27       3.42       ----

> <Gold.Chemscore.Fitness>
16.7646

> <Gold.Chemscore.DG>
-20.4494

> <Gold.Chemscore.ZeroCoef>
-5.4800

> <Gold.Chemscore.Hbond>
2.9383

> <Gold.Chemscore.Metal>
0.0000

> <Gold.Chemscore.Lipo>
116.7126

> <Gold.Chemscore.Internal_Hbond>
0.0000

> <Gold.Chemscore.DEClash>
0.2676

> <Gold.Chemscore.DEInternal>
3.4172

> <Gold.Chemscore.Rot>
3.3203

> <Gold.Chemscore.Internal.Correction>
   9.000000E+99

> <Gold.Chemscore.Hbonds>
donor molecule, donor type, donor heavy atom, donor atom, acceptor molecule, acceptor atom, score
      L1  H    21    55       P1 10747  0.88
      P1  H  6896  6908       L1     1  0.96
      P1  H  6931  6943       L1    29  0.03
      P1  H  6934  6947       L1    29  0.40

> <Gold.Chemscore.Hbond.Weighted>
-9.8140

> <Gold.Chemscore.Metal.Weighted>
-0.0000

> <Gold.Chemscore.Lipo.Weighted>
-13.6554

> <Gold.Chemscore.Internal_Hbond.Weighted>
0.0000

> <Gold.Chemscore.DEClash.Weighted>
0.2676

> <Gold.Chemscore.DEInternal.Weighted>
3.4172

> <Gold.Chemscore.Rot.Weighted>
8.5000

> <Gold.Chemscore.Internal.Correction.Weighted>
   9.000000E+99

> <Gold.Protein.RotatedTorsions>
[ 6907 6896 6895 6894 ] final  140.07 input  -60.11 | X-H torsion
[ 7974 7965 7964 7962 ] final  -60.83 input  175.53 | X-H torsion
[ 8008 7997 7996 7995 ] final  146.47 input   59.86 | X-H torsion
[ 10167 10162 10161 10158 ] final  -38.89 input  -65.29 | X-H torsion
[ 10718 10713 10712 10709 ] final  117.08 input   66.30 | X-H torsion
[ 10763 10752 10751 10750 ] final  -45.65 input  -60.55 | X-H torsion
[ 11005 11000 10999 10996 ] final  143.16 input  -57.11 | X-H torsion

> <Gold.Protein.ActiveResidues>
 VAL166  LYS551  ARG553  GLY616  TRP617  ASP618  TYR619  PRO620  LYS621  CYS622 
 ASP623  PHE694  ASN695  SER759  ASP760  ASP761  ALA762  ILE779  LEU786  VAL792 
 PHE793  MET794  SER795  GLU796  ALA797  LYS798  CYS799  TRP800  GLU811  SER814 

> <Gold.Protein.RotatedAtoms>
  152.2475  133.5186  159.5305 H   0  0  0  0  0  0  0  0  0  0  0  0  # atno 6907 bound_to 6896
  150.7083  134.1006  159.3973 H   0  0  0  0  0  0  0  0  0  0  0  0  # atno 6908 bound_to 6896
  151.8926  135.0410  160.0550 H   0  0  0  0  0  0  0  0  0  0  0  0  # atno 6909 bound_to 6896
  145.8108  140.8599  143.0183 H   0  0  0  0  0  0  0  0  0  0  0  0  # atno 7974 bound_to 7965
  156.2854  140.2181  156.5383 H   0  0  0  0  0  0  0  0  0  0  0  0  # atno 8008 bound_to 7997
  154.7391  140.0489  157.0817 H   0  0  0  0  0  0  0  0  0  0  0  0  # atno 8009 bound_to 7997
  155.0254  140.3129  155.4781 H   0  0  0  0  0  0  0  0  0  0  0  0  # atno 8010 bound_to 7997
  140.7079  143.3248  151.2705 H   0  0  0  0  0  0  0  0  0  0  0  0  # atno 10167 bound_to 10162
  157.6119  131.1033  150.7565 H   0  0  0  0  0  0  0  0  0  0  0  0  # atno 10718 bound_to 10713
  154.0320  135.6655  153.4781 H   0  0  0  0  0  0  0  0  0  0  0  0  # atno 10763 bound_to 10752
  153.0536  135.5069  154.7924 H   0  0  0  0  0  0  0  0  0  0  0  0  # atno 10764 bound_to 10752
  154.6872  135.3055  154.9496 H   0  0  0  0  0  0  0  0  0  0  0  0  # atno 10765 bound_to 10752
  140.0532  134.9244  157.1054 H   0  0  0  0  0  0  0  0  0  0  0  0  # atno 11005 bound_to 11000
  144.6757  140.0393  143.7481 LP  0  0  0  0  0  0  0  0  0  0  0  0  # atno 17320 bound_to 7965
  145.9779  139.2919  143.1059 LP  0  0  0  0  0  0  0  0  0  0  0  0  # atno 17321 bound_to 7965
  139.6713  144.0015  152.2755 LP  0  0  0  0  0  0  0  0  0  0  0  0  # atno 17342 bound_to 10162
  139.9614  144.6555  150.8076 LP  0  0  0  0  0  0  0  0  0  0  0  0  # atno 17343 bound_to 10162
  156.7940  130.4899  149.5380 LP  0  0  0  0  0  0  0  0  0  0  0  0  # atno 17370 bound_to 10713
  156.1225  130.6120  151.0215 LP  0  0  0  0  0  0  0  0  0  0  0  0  # atno 17371 bound_to 10713
  140.3884  134.2211  155.7167 LP  0  0  0  0  0  0  0  0  0  0  0  0  # atno 17394 bound_to 11000
  141.1940  133.8138  157.0775 LP  0  0  0  0  0  0  0  0  0  0  0  0  # atno 17395 bound_to 11000

$$$$
