AV-unprocessed.smi:2973|AV-procd|sdf|11350|dock2
  -GOLD-   2272016263D 1   1.00000     0.00000
 Structure written by MMmdl.
 49 51  0  0  0  0  0  0  0  0  3 V2000
  154.5823  138.4214  159.8711 C   0  0  0  0  0  0  0  0  0  0  0  0
  153.3510  139.3528  159.8306 C   0  0  1  0  0  0  0  0  0  0  0  0
  153.7828  140.8348  159.8763 C   0  0  0  0  0  0  0  0  0  0  0  0
  152.5746  141.7800  159.9481 C   0  0  0  0  0  0  0  0  0  0  0  0
  151.6174  141.5448  158.7725 C   0  0  0  0  0  0  0  0  0  0  0  0
  151.1641  140.0761  158.7097 C   0  0  0  0  0  0  0  0  0  0  0  0
  152.3547  139.0829  158.6562 C   0  0  1  0  0  0  0  0  0  0  0  0
  153.0094  139.1565  157.3594 N   0  5  0  0  0  0  0  0  0  0  0  0
  152.8643  137.9711  156.7235 C   0  0  0  0  0  0  0  0  0  0  0  0
  153.2735  137.6847  155.5992 O   0  0  0  0  0  0  0  0  0  0  0  0
  152.1782  137.0966  157.4837 N   0  0  0  0  0  0  0  0  0  0  0  0
  151.7998  135.7339  157.0773 C   0  0  0  0  0  0  0  0  0  0  0  0
  150.9926  135.6572  155.7690 C   0  0  0  0  0  0  0  0  0  0  0  0
  151.1895  136.4986  154.8926 O   0  0  0  0  0  0  0  0  0  0  0  0
  150.1061  134.6569  155.6271 N   0  0  0  0  0  0  0  0  0  0  0  0
  149.2929  134.4096  154.4447 C   0  0  0  0  0  0  0  0  0  0  0  0
  148.8854  132.9303  154.3484 C   0  0  0  0  0  0  0  0  0  0  0  0
  147.8486  132.6887  153.2697 C   0  0  0  0  0  0  0  0  0  0  0  0
  147.1422  131.4710  153.1654 C   0  0  0  0  0  0  0  0  0  0  0  0
  146.1873  131.3146  152.1389 C   0  0  0  0  0  0  0  0  0  0  0  0
  145.9580  132.3780  151.2413 C   0  0  0  0  0  0  0  0  0  0  0  0
  146.6917  133.5725  151.3923 C   0  0  0  0  0  0  0  0  0  0  0  0
  147.5984  133.6834  152.3878 N   0  3  0  0  0  0  0  0  0  0  0  0
  151.8313  137.6541  158.6494 C   0  0  0  0  0  0  0  0  0  0  0  0
  151.1873  137.1387  159.5644 O   0  0  0  0  0  0  0  0  0  0  0  0
  155.2071  138.5433  158.9860 H   0  0  0  0  0  0  0  0  0  0  0  0
  154.2971  137.3715  159.9357 H   0  0  0  0  0  0  0  0  0  0  0  0
  155.2033  138.6376  160.7405 H   0  0  0  0  0  0  0  0  0  0  0  0
  152.8045  139.1667  160.7570 H   0  0  0  0  0  0  0  0  0  0  0  0
  154.4248  141.0082  160.7405 H   0  0  0  0  0  0  0  0  0  0  0  0
  154.3830  141.0747  158.9977 H   0  0  0  0  0  0  0  0  0  0  0  0
  152.0443  141.6260  160.8886 H   0  0  0  0  0  0  0  0  0  0  0  0
  152.9131  142.8162  159.9489 H   0  0  0  0  0  0  0  0  0  0  0  0
  150.7484  142.1962  158.8657 H   0  0  0  0  0  0  0  0  0  0  0  0
  152.1085  141.8207  157.8387 H   0  0  0  0  0  0  0  0  0  0  0  0
  150.5549  139.8678  159.5907 H   0  0  0  0  0  0  0  0  0  0  0  0
  150.5045  139.9353  157.8515 H   0  0  0  0  0  0  0  0  0  0  0  0
  152.6906  135.1136  156.9685 H   0  0  0  0  0  0  0  0  0  0  0  0
  151.2149  135.2651  157.8702 H   0  0  0  0  0  0  0  0  0  0  0  0
  149.9993  134.0137  156.3992 H   0  0  0  0  0  0  0  0  0  0  0  0
  148.4035  135.0368  154.5110 H   0  0  0  0  0  0  0  0  0  0  0  0
  149.8309  134.7241  153.5489 H   0  0  0  0  0  0  0  0  0  0  0  0
  149.7576  132.3089  154.1399 H   0  0  0  0  0  0  0  0  0  0  0  0
  148.4900  132.5911  155.3069 H   0  0  0  0  0  0  0  0  0  0  0  0
  147.3276  130.6667  153.8628 H   0  0  0  0  0  0  0  0  0  0  0  0
  145.6367  130.3903  152.0417 H   0  0  0  0  0  0  0  0  0  0  0  0
  145.2309  132.2783  150.4486 H   0  0  0  0  0  0  0  0  0  0  0  0
  146.5818  134.4356  150.7519 H   0  0  0  0  0  0  0  0  0  0  0  0
  148.1180  134.5568  152.4797 H   0  0  0  0  0  0  0  0  0  0  0  0
  1  2  1  0  0  0  0
  1 26  1  0  0  0  0
  1 27  1  0  0  0  0
  1 28  1  0  0  0  0
  2  7  1  0  0  0  0
  2  3  1  0  0  0  0
  2 29  1  0  0  0  0
  3  4  1  0  0  0  0
  3 30  1  0  0  0  0
  3 31  1  0  0  0  0
  4  5  1  0  0  0  0
  4 32  1  0  0  0  0
  4 33  1  0  0  0  0
  5  6  1  0  0  0  0
  5 34  1  0  0  0  0
  5 35  1  0  0  0  0
  6  7  1  0  0  0  0
  6 36  1  0  0  0  0
  6 37  1  0  0  0  0
  7 24  1  0  0  0  0
  7  8  1  0  0  0  0
  8  9  1  0  0  0  0
  9 10  2  0  0  0  0
  9 11  1  0  0  0  0
 11 12  1  0  0  0  0
 11 24  1  0  0  0  0
 12 13  1  0  0  0  0
 12 38  1  0  0  0  0
 12 39  1  0  0  0  0
 13 14  2  0  0  0  0
 13 15  1  0  0  0  0
 15 16  1  0  0  0  0
 15 40  1  0  0  0  0
 16 17  1  0  0  0  0
 16 41  1  0  0  0  0
 16 42  1  0  0  0  0
 17 18  1  0  0  0  0
 17 43  1  0  0  0  0
 17 44  1  0  0  0  0
 18 23  1  0  0  0  0
 18 19  2  0  0  0  0
 19 20  1  0  0  0  0
 19 45  1  0  0  0  0
 20 21  2  0  0  0  0
 20 46  1  0  0  0  0
 21 22  1  0  0  0  0
 21 47  1  0  0  0  0
 22 23  2  0  0  0  0
 22 48  1  0  0  0  0
 23 49  1  0  0  0  0
 24 25  2  0  0  0  0
M  CHG  1   8  -1
M  CHG  1  23   1
M  END
> <s_m_source_file>
AV-unprocessed.smi

> <i_m_source_file_index>
2973

> <i_lp_mmshare_version>
43012

> <i_f3d_flags>
0

> <s_epik_input>
W0NIMl0xW0NIMl1bQ0gyXVtDSDJdW0NAQEhdKFtDSDNdKVtDQF0xMltOSF1DKD1PKU4oQzI9TylbQ0gyXUMoPU8pW05IXVtDSDJdW0NIMl1jM1tjSF1bY0hdW2NIXVtjSF1uMw==

> <s_epik_cmdline>
J2VwaWtfcHl0aG9uJywgJy1waCcsICc3LjAnLCAnLXRuJywgJzgnLCAnLW1hJywgJzIwMCcsICctbWV0YWxfYmluZGluZycsICctaW1hZScsICc8aW5maWxlLm1hZT4nLCAnLW9tYWUnLCAnPG91dGZpbGUubWFlPic=

> <r_lp_tautomer_probability>
1

> <r_epik_Ionization_Penalty>
7.89073

> <r_epik_Ionization_Penalty_Charging>
7.89073

> <r_epik_Ionization_Penalty_Neutral>
1.56557e-07

> <r_epik_State_Penalty>
8.01193

> <r_epik_Charging_Adjusted_Penalty>
15.9027

> <i_epik_Tot_Q>
0

> <i_epik_Tot_abs_Q>
2

> <r_epik_Metal_State_Penalty>
3.98737

> <b_epik_Metal_Only>
1

> <s_lp_Force_Field>
OPLS_2005

> <r_lp_Energy>
20.3817

> <b_lp_Chiralities_Consistent>
1

> <s_lp_Variant>
AV-unprocessed.smi:2973-14

> <Gold.Version>
5.8.1

> <Gold.Id.Protein>
6NUR|6NUR_protein|mol2

> <Gold.PLP.Fitness>
55.7789

> <Gold.PLP.PLP>
-39.4414

> <Gold.PLP.part.hbond>
-5.0000

> <Gold.PLP.part.metal>
0.0000

> <Gold.PLP.part.buried>
-3.9203

> <Gold.PLP.part.nonpolar>
-30.8713

> <Gold.PLP.part.repulsive>
0.2488

> <Gold.PLP.ligand.clash>
0.0060

> <Gold.PLP.ligand.torsion>
0.7158

> <Gold.PLP.Chemscore.Hbond>
5.8928

> <Gold.PLP.Chemscore.CHOScore>
0.0000

> <Gold.PLP.Chemscore.Metal>
0.0000

> <Gold.Chemscore.Hbonds>
donor molecule, donor type, donor heavy atom, donor atom, acceptor molecule, acceptor atom, score
      L1  H    23    49       P1  7948  2.00
      P1  H  6896  6909       L1    25  0.99
      P1  H  7997  8010       L1     8  2.00
      P1  H 10752 10764       L1    14  0.70

> <Gold.PLP.Chemscore.Internal.Correction>
0.0966

> <Gold.Rescore>
     Score         DG    S(hbond)    S(metal)    S(lipo)     H(rot)  DE(clash)    DE(int)     intcor
     17.95     -22.34       3.70        0.00      80.50       1.92       0.04       4.35       ----

> <Gold.Chemscore.Fitness>
17.9479

> <Gold.Chemscore.DG>
-22.3386

> <Gold.Chemscore.ZeroCoef>
-5.4800

> <Gold.Chemscore.Hbond>
3.6972

> <Gold.Chemscore.Metal>
0.0000

> <Gold.Chemscore.Lipo>
80.5017

> <Gold.Chemscore.Internal_Hbond>
0.0000

> <Gold.Chemscore.DEClash>
0.0414

> <Gold.Chemscore.DEInternal>
4.3494

> <Gold.Chemscore.Rot>
1.9175

> <Gold.Chemscore.Internal.Correction>
   9.000000E+99

> <Gold.Chemscore.Hbonds>
donor molecule, donor type, donor heavy atom, donor atom, acceptor molecule, acceptor atom, score
      L1  H    23    49       P1  7948  0.34
      P1  H  6896  6909       L1    25  0.88
      P1  H  7997  8010       L1     8  0.69
      P1  H 10752 10764       L1    14  0.10

> <Gold.Chemscore.Hbond.Weighted>
-12.3487

> <Gold.Chemscore.Metal.Weighted>
-0.0000

> <Gold.Chemscore.Lipo.Weighted>
-9.4187

> <Gold.Chemscore.Internal_Hbond.Weighted>
0.0000

> <Gold.Chemscore.DEClash.Weighted>
0.0414

> <Gold.Chemscore.DEInternal.Weighted>
4.3494

> <Gold.Chemscore.Rot.Weighted>
4.9087

> <Gold.Chemscore.Internal.Correction.Weighted>
   9.000000E+99

> <Gold.Protein.RotatedTorsions>
[ 6907 6896 6895 6894 ] final  116.49 input  -60.11 | X-H torsion
[ 7974 7965 7964 7962 ] final  -45.66 input  175.53 | X-H torsion
[ 8008 7997 7996 7995 ] final   65.72 input   59.86 | X-H torsion
[ 10167 10162 10161 10158 ] final  -37.72 input  -65.29 | X-H torsion
[ 10718 10713 10712 10709 ] final -113.01 input   66.30 | X-H torsion
[ 10763 10752 10751 10750 ] final  -84.80 input  -60.55 | X-H torsion
[ 11005 11000 10999 10996 ] final -145.06 input  -57.11 | X-H torsion

> <Gold.Protein.ActiveResidues>
 VAL166  LYS551  ARG553  GLY616  TRP617  ASP618  TYR619  PRO620  LYS621  CYS622 
 ASP623  PHE694  ASN695  SER759  ASP760  ASP761  ALA762  ILE779  LEU786  VAL792 
 PHE793  MET794  SER795  GLU796  ALA797  LYS798  CYS799  TRP800  GLU811  SER814 

> <Gold.Protein.RotatedAtoms>
  152.4674  133.7954  159.6923 H   0  0  0  0  0  0  0  0  0  0  0  0  # atno 6907 bound_to 6896
  150.8646  133.7584  159.2987 H   0  0  0  0  0  0  0  0  0  0  0  0  # atno 6908 bound_to 6896
  151.5139  135.1069  159.9913 H   0  0  0  0  0  0  0  0  0  0  0  0  # atno 6909 bound_to 6896
  145.9798  140.7295  142.9369 H   0  0  0  0  0  0  0  0  0  0  0  0  # atno 7974 bound_to 7965
  155.6662  140.3497  155.4801 H   0  0  0  0  0  0  0  0  0  0  0  0  # atno 8008 bound_to 7997
  155.9726  140.1159  157.0821 H   0  0  0  0  0  0  0  0  0  0  0  0  # atno 8009 bound_to 7997
  154.4170  140.1154  156.5314 H   0  0  0  0  0  0  0  0  0  0  0  0  # atno 8010 bound_to 7997
  140.7111  143.3323  151.2540 H   0  0  0  0  0  0  0  0  0  0  0  0  # atno 10167 bound_to 10162
  156.0741  130.5950  150.8586 H   0  0  0  0  0  0  0  0  0  0  0  0  # atno 10718 bound_to 10713
  154.6037  135.5508  153.7401 H   0  0  0  0  0  0  0  0  0  0  0  0  # atno 10763 bound_to 10752
  153.0165  135.6372  154.1678 H   0  0  0  0  0  0  0  0  0  0  0  0  # atno 10764 bound_to 10752
  154.1617  135.2897  155.3087 H   0  0  0  0  0  0  0  0  0  0  0  0  # atno 10765 bound_to 10752
  140.7961  134.2912  157.4996 H   0  0  0  0  0  0  0  0  0  0  0  0  # atno 11005 bound_to 11000
  144.6858  140.2889  143.7281 LP  0  0  0  0  0  0  0  0  0  0  0  0  # atno 17320 bound_to 7965
  145.7786  139.1883  143.2171 LP  0  0  0  0  0  0  0  0  0  0  0  0  # atno 17321 bound_to 7965
  139.6809  143.9856  152.2808 LP  0  0  0  0  0  0  0  0  0  0  0  0  # atno 17342 bound_to 10162
  139.9486  144.6635  150.8195 LP  0  0  0  0  0  0  0  0  0  0  0  0  # atno 17343 bound_to 10162
  157.5827  131.0946  150.9246 LP  0  0  0  0  0  0  0  0  0  0  0  0  # atno 17370 bound_to 10713
  156.9438  130.5394  149.5281 LP  0  0  0  0  0  0  0  0  0  0  0  0  # atno 17371 bound_to 10713
  139.8726  134.9402  156.3764 LP  0  0  0  0  0  0  0  0  0  0  0  0  # atno 17394 bound_to 11000
  140.9342  133.7559  156.0063 LP  0  0  0  0  0  0  0  0  0  0  0  0  # atno 17395 bound_to 11000

$$$$
