AV-unprocessed.smi:2134|AV-procd|sdf|8697|dock5
  -GOLD-   2272011453D 1   1.00000     0.00000
 Structure written by MMmdl.
 35 36  0  0  0  0  0  0  0  0  3 V2000
  154.2581  140.8076  161.3109 C   0  0  0  0  0  0  0  0  0  0  0  0
  153.3349  141.4041  160.3461 N   0  0  0  0  0  0  0  0  0  0  0  0
  153.2240  140.6856  159.1743 N   0  0  0  0  0  0  0  0  0  0  0  0
  152.2927  140.9161  158.3017 C   0  0  0  0  0  0  0  0  0  0  0  0
  152.2123  140.0738  157.0716 C   0  0  0  0  0  0  0  0  0  0  0  0
  153.1085  139.2304  156.9484 O   0  0  0  0  0  0  0  0  0  0  0  0
  151.1908  140.3007  156.1930 N   0  5  0  0  0  0  0  0  0  0  0  0
  150.5012  139.2738  155.4118 C   0  0  0  0  0  0  0  0  0  0  0  0
  149.8058  139.9234  154.1954 C   0  0  0  0  0  0  0  0  0  0  0  0
  148.4403  140.5306  154.5028 C   0  0  0  0  0  0  0  0  0  0  0  0
  148.2204  141.2546  155.6973 C   0  0  0  0  0  0  0  0  0  0  0  0
  146.9438  141.7956  155.9556 C   0  0  0  0  0  0  0  0  0  0  0  0
  145.9130  141.6035  155.0132 C   0  0  0  0  0  0  0  0  0  0  0  0
  146.1587  140.9118  153.8792 N   0  3  0  0  0  0  0  0  0  0  0  0
  147.3674  140.3817  153.5935 C   0  0  0  0  0  0  0  0  0  0  0  0
  151.2648  142.0045  158.5499 C   0  0  0  0  0  0  0  0  0  0  0  0
  151.8098  143.1177  159.4655 C   0  0  0  0  0  0  0  0  0  0  0  0
  152.6780  142.5648  160.5992 C   0  0  0  0  0  0  0  0  0  0  0  0
  152.7609  143.1893  161.6568 O   0  0  0  0  0  0  0  0  0  0  0  0
  154.3941  141.4001  162.2165 H   0  0  0  0  0  0  0  0  0  0  0  0
  155.2417  140.6770  160.8581 H   0  0  0  0  0  0  0  0  0  0  0  0
  153.8957  139.8245  161.6136 H   0  0  0  0  0  0  0  0  0  0  0  0
  151.1836  138.5022  155.0525 H   0  0  0  0  0  0  0  0  0  0  0  0
  149.7516  138.7561  156.0108 H   0  0  0  0  0  0  0  0  0  0  0  0
  150.4491  140.7061  153.7920 H   0  0  0  0  0  0  0  0  0  0  0  0
  149.6948  139.1894  153.3959 H   0  0  0  0  0  0  0  0  0  0  0  0
  149.0199  141.3868  156.4119 H   0  0  0  0  0  0  0  0  0  0  0  0
  146.7576  142.3456  156.8663 H   0  0  0  0  0  0  0  0  0  0  0  0
  144.9068  141.9777  155.1320 H   0  0  0  0  0  0  0  0  0  0  0  0
  147.4380  139.8401  152.6611 H   0  0  0  0  0  0  0  0  0  0  0  0
  150.9511  142.4609  157.6106 H   0  0  0  0  0  0  0  0  0  0  0  0
  150.3715  141.5615  158.9917 H   0  0  0  0  0  0  0  0  0  0  0  0
  152.4284  143.8014  158.8830 H   0  0  0  0  0  0  0  0  0  0  0  0
  150.9888  143.7076  159.8743 H   0  0  0  0  0  0  0  0  0  0  0  0
  145.3990  140.7801  153.2114 H   0  0  0  0  0  0  0  0  0  0  0  0
  1  2  1  0  0  0  0
  1 20  1  0  0  0  0
  1 21  1  0  0  0  0
  1 22  1  0  0  0  0
  2 18  1  0  0  0  0
  2  3  1  0  0  0  0
  3  4  2  0  0  0  0
  4  5  1  0  0  0  0
  4 16  1  0  0  0  0
  5  6  2  0  0  0  0
  5  7  1  0  0  0  0
  7  8  1  0  0  0  0
  8  9  1  0  0  0  0
  8 23  1  0  0  0  0
  8 24  1  0  0  0  0
  9 10  1  0  0  0  0
  9 25  1  0  0  0  0
  9 26  1  0  0  0  0
 10 15  1  0  0  0  0
 10 11  2  0  0  0  0
 11 12  1  0  0  0  0
 11 27  1  0  0  0  0
 12 13  2  0  0  0  0
 12 28  1  0  0  0  0
 13 14  1  0  0  0  0
 13 29  1  0  0  0  0
 14 15  2  0  0  0  0
 14 35  1  0  0  0  0
 15 30  1  0  0  0  0
 16 17  1  0  0  0  0
 16 31  1  0  0  0  0
 16 32  1  0  0  0  0
 17 18  1  0  0  0  0
 17 33  1  0  0  0  0
 17 34  1  0  0  0  0
 18 19  2  0  0  0  0
M  CHG  1   7  -1
M  CHG  1  14   1
M  END
> <s_m_source_file>
AV-unprocessed.smi

> <i_m_source_file_index>
2134

> <i_lp_mmshare_version>
43012

> <i_f3d_flags>
0

> <s_epik_input>
Tz1DMVtDSDJdW0NIMl1DKD1OTjFbQ0gzXSlDKD1PKVtOSF1bQ0gyXVtDSDJdYzJbY0hdW2NIXVtjSF1uW2NIXTI=

> <s_epik_cmdline>
J2VwaWtfcHl0aG9uJywgJy1waCcsICc3LjAnLCAnLXRuJywgJzgnLCAnLW1hJywgJzIwMCcsICctbWV0YWxfYmluZGluZycsICctaW1hZScsICc8aW5maWxlLm1hZT4nLCAnLW9tYWUnLCAnPG91dGZpbGUubWFlPic=

> <r_epik_Ionization_Penalty>
7.05425

> <r_epik_Ionization_Penalty_Charging>
7.05425

> <r_epik_Ionization_Penalty_Neutral>
3.33049e-09

> <r_epik_State_Penalty>
7.67337

> <r_epik_Charging_Adjusted_Penalty>
14.7276

> <i_epik_Tot_Q>
0

> <i_epik_Tot_abs_Q>
2

> <r_epik_Metal_State_Penalty>
3.75463

> <b_epik_Metal_Only>
1

> <s_epik_Chemistry_Notes>
This compound has an imine and may undergo hydrolysis.

> <s_lp_Force_Field>
OPLS_2005

> <r_lp_Energy>
23.3893

> <b_lp_Chiralities_Consistent>
1

> <s_lp_Variant>
AV-unprocessed.smi:2134-4

> <Gold.Version>
5.8.1

> <Gold.Id.Protein>
6NUR|6NUR_protein|mol2

> <Gold.PLP.Fitness>
42.1152

> <Gold.PLP.PLP>
-34.6622

> <Gold.PLP.part.hbond>
-2.0000

> <Gold.PLP.part.metal>
0.0000

> <Gold.PLP.part.buried>
-0.8621

> <Gold.PLP.part.nonpolar>
-31.2907

> <Gold.PLP.part.repulsive>
0.1106

> <Gold.PLP.ligand.clash>
0.0000

> <Gold.PLP.ligand.torsion>
0.7910

> <Gold.PLP.Chemscore.Hbond>
3.0000

> <Gold.PLP.Chemscore.CHOScore>
0.0000

> <Gold.PLP.Chemscore.Metal>
0.0000

> <Gold.Chemscore.Hbonds>
donor molecule, donor type, donor heavy atom, donor atom, acceptor molecule, acceptor atom, score
      L1  H    14    35       P1 10175  2.00
      P1  H  7997  8009       L1     6  1.00

> <Gold.PLP.Chemscore.Internal.Correction>
0.0350

> <Gold.Rescore>
     Score         DG    S(hbond)    S(metal)    S(lipo)     H(rot)  DE(clash)    DE(int)     intcor
     15.67     -16.34       1.94        0.00      69.93       1.49       0.01       0.66       ----

> <Gold.Chemscore.Fitness>
15.6686

> <Gold.Chemscore.DG>
-16.3426

> <Gold.Chemscore.ZeroCoef>
-5.4800

> <Gold.Chemscore.Hbond>
1.9411

> <Gold.Chemscore.Metal>
0.0000

> <Gold.Chemscore.Lipo>
69.9309

> <Gold.Chemscore.Internal_Hbond>
0.0000

> <Gold.Chemscore.DEClash>
0.0110

> <Gold.Chemscore.DEInternal>
0.6629

> <Gold.Chemscore.Rot>
1.4854

> <Gold.Chemscore.Internal.Correction>
   9.000000E+99

> <Gold.Chemscore.Hbonds>
donor molecule, donor type, donor heavy atom, donor atom, acceptor molecule, acceptor atom, score
      L1  H    14    35       P1 10175  0.74
      P1  H  7997  8009       L1     6  0.48

> <Gold.Chemscore.Hbond.Weighted>
-6.4833

> <Gold.Chemscore.Metal.Weighted>
-0.0000

> <Gold.Chemscore.Lipo.Weighted>
-8.1819

> <Gold.Chemscore.Internal_Hbond.Weighted>
0.0000

> <Gold.Chemscore.DEClash.Weighted>
0.0110

> <Gold.Chemscore.DEInternal.Weighted>
0.6629

> <Gold.Chemscore.Rot.Weighted>
3.8026

> <Gold.Chemscore.Internal.Correction.Weighted>
   9.000000E+99

> <Gold.Protein.RotatedTorsions>
[ 6907 6896 6895 6894 ] final  139.10 input  -60.11 | X-H torsion
[ 7974 7965 7964 7962 ] final   79.10 input  175.53 | X-H torsion
[ 8008 7997 7996 7995 ] final  175.31 input   59.86 | X-H torsion
[ 10167 10162 10161 10158 ] final -151.08 input  -65.29 | X-H torsion
[ 10718 10713 10712 10709 ] final   92.97 input   66.30 | X-H torsion
[ 10763 10752 10751 10750 ] final   36.06 input  -60.55 | X-H torsion
[ 11005 11000 10999 10996 ] final   88.37 input  -57.11 | X-H torsion

> <Gold.Protein.ActiveResidues>
 VAL166  LYS551  ARG553  GLY616  TRP617  ASP618  TYR619  PRO620  LYS621  CYS622 
 ASP623  PHE694  ASN695  SER759  ASP760  ASP761  ALA762  ILE779  LEU786  VAL792 
 PHE793  MET794  SER795  GLU796  ALA797  LYS798  CYS799  TRP800  GLU811  SER814 

> <Gold.Protein.RotatedAtoms>
  152.2589  133.5280  159.5369 H   0  0  0  0  0  0  0  0  0  0  0  0  # atno 6907 bound_to 6896
  150.7118  134.0857  159.3923 H   0  0  0  0  0  0  0  0  0  0  0  0  # atno 6908 bound_to 6896
  151.8775  135.0466  160.0536 H   0  0  0  0  0  0  0  0  0  0  0  0  # atno 6909 bound_to 6896
  145.6686  139.2490  143.1881 H   0  0  0  0  0  0  0  0  0  0  0  0  # atno 7974 bound_to 7965
  156.0884  140.1412  156.9624 H   0  0  0  0  0  0  0  0  0  0  0  0  # atno 8008 bound_to 7997
  154.4627  140.0937  156.6983 H   0  0  0  0  0  0  0  0  0  0  0  0  # atno 8009 bound_to 7997
  155.4961  140.3449  155.4365 H   0  0  0  0  0  0  0  0  0  0  0  0  # atno 8010 bound_to 7997
  139.7298  143.8826  152.2531 H   0  0  0  0  0  0  0  0  0  0  0  0  # atno 10167 bound_to 10162
  157.6957  131.0462  150.3962 H   0  0  0  0  0  0  0  0  0  0  0  0  # atno 10718 bound_to 10713
  153.0093  135.6316  154.1925 H   0  0  0  0  0  0  0  0  0  0  0  0  # atno 10763 bound_to 10752
  154.1667  135.2820  155.3094 H   0  0  0  0  0  0  0  0  0  0  0  0  # atno 10764 bound_to 10752
  154.5940  135.5609  153.7367 H   0  0  0  0  0  0  0  0  0  0  0  0  # atno 10765 bound_to 10752
  139.8898  134.8483  156.2991 H   0  0  0  0  0  0  0  0  0  0  0  0  # atno 11005 bound_to 11000
  146.1065  140.7481  142.9524 LP  0  0  0  0  0  0  0  0  0  0  0  0  # atno 17320 bound_to 7965
  144.7064  140.3870  143.7114 LP  0  0  0  0  0  0  0  0  0  0  0  0  # atno 17321 bound_to 7965
  139.8746  144.7050  150.8948 LP  0  0  0  0  0  0  0  0  0  0  0  0  # atno 17342 bound_to 10162
  140.7769  143.3710  151.1649 LP  0  0  0  0  0  0  0  0  0  0  0  0  # atno 17343 bound_to 10162
  156.4360  130.3982  149.6728 LP  0  0  0  0  0  0  0  0  0  0  0  0  # atno 17370 bound_to 10713
  156.3929  130.7636  151.2638 LP  0  0  0  0  0  0  0  0  0  0  0  0  # atno 17371 bound_to 10713
  140.9925  133.7200  156.0836 LP  0  0  0  0  0  0  0  0  0  0  0  0  # atno 17394 bound_to 11000
  140.7605  134.3944  157.5526 LP  0  0  0  0  0  0  0  0  0  0  0  0  # atno 17395 bound_to 11000

$$$$
