AV-unprocessed.smi:829|AV-procd|sdf|3868|dock2
  -GOLD-   22720 1323D 1   1.00000     0.00000
 Structure written by MMmdl.
 50 52  0  0  0  0  0  0  0  0  3 V2000
  146.5597  132.3810  153.7164 O   0  0  0  0  0  0  0  0  0  0  0  0
  147.2333  131.9316  152.7896 C   0  0  0  0  0  0  0  0  0  0  0  0
  146.9131  132.0109  151.4863 N   0  0  0  0  0  0  0  0  0  0  0  0
  145.7644  132.6020  150.8928 C   0  0  0  0  0  0  0  0  0  0  0  0
  145.1674  133.6910  151.5663 C   0  0  0  0  0  0  0  0  0  0  0  0
  144.0193  134.3012  151.0214 C   0  0  0  0  0  0  0  0  0  0  0  0
  143.4931  133.8354  149.8686 N   0  3  0  0  0  0  0  0  0  0  0  0
  144.0185  132.7882  149.1972 C   0  0  0  0  0  0  0  0  0  0  0  0
  145.1669  132.1378  149.6931 C   0  0  0  0  0  0  0  0  0  0  0  0
  148.3882  131.2740  152.9691 N   0  0  0  0  0  0  0  0  0  0  0  0
  148.9921  130.9796  154.2656 C   0  0  2  0  0  0  0  0  0  0  0  0
  149.7848  132.1888  154.7949 C   0  0  0  0  0  0  0  0  0  0  0  0
  150.5033  131.8497  156.1123 C   0  0  0  0  0  0  0  0  0  0  0  0
  151.3889  130.6671  155.9535 N   0  3  1  0  0  0  0  0  0  0  0  0
  152.2080  130.3892  157.1618 C   0  0  0  0  0  0  0  0  0  0  0  0
  153.6173  129.8849  156.7972 C   0  0  0  0  0  0  0  0  0  0  0  0
  154.6904  130.9721  156.6831 C   0  0  0  0  0  0  0  0  0  0  0  0
  155.8135  130.3371  155.8573 C   0  0  0  0  0  0  0  0  0  0  0  0
  155.1592  129.2187  155.0327 C   0  0  0  0  0  0  0  0  0  0  0  0
  153.6776  129.2075  155.4252 C   0  0  0  0  0  0  0  0  0  0  0  0
  150.6318  129.4789  155.4797 C   0  0  0  0  0  0  0  0  0  0  0  0
  149.9280  129.7669  154.1438 C   0  0  0  0  0  0  0  0  0  0  0  0
  147.5281  131.5260  150.8492 H   0  0  0  0  0  0  0  0  0  0  0  0
  145.5871  134.0633  152.4899 H   0  0  0  0  0  0  0  0  0  0  0  0
  143.5089  135.1405  151.4711 H   0  0  0  0  0  0  0  0  0  0  0  0
  143.5048  132.4993  148.2919 H   0  0  0  0  0  0  0  0  0  0  0  0
  145.5577  131.2909  149.1503 H   0  0  0  0  0  0  0  0  0  0  0  0
  148.8767  130.9365  152.1524 H   0  0  0  0  0  0  0  0  0  0  0  0
  148.2035  130.7310  154.9788 H   0  0  0  0  0  0  0  0  0  0  0  0
  150.5195  132.5050  154.0526 H   0  0  0  0  0  0  0  0  0  0  0  0
  149.1188  133.0385  154.9513 H   0  0  0  0  0  0  0  0  0  0  0  0
  151.0938  132.7112  156.4267 H   0  0  0  0  0  0  0  0  0  0  0  0
  149.7742  131.6575  156.9013 H   0  0  0  0  0  0  0  0  0  0  0  0
  152.3259  131.3060  157.7415 H   0  0  0  0  0  0  0  0  0  0  0  0
  151.6980  129.6884  157.8247 H   0  0  0  0  0  0  0  0  0  0  0  0
  153.9397  129.1566  157.5437 H   0  0  0  0  0  0  0  0  0  0  0  0
  154.2916  131.8341  156.1465 H   0  0  0  0  0  0  0  0  0  0  0  0
  155.0426  131.3188  157.6550 H   0  0  0  0  0  0  0  0  0  0  0  0
  156.3120  131.0739  155.2266 H   0  0  0  0  0  0  0  0  0  0  0  0
  156.5687  129.9107  156.5186 H   0  0  0  0  0  0  0  0  0  0  0  0
  155.2834  129.3774  153.9611 H   0  0  0  0  0  0  0  0  0  0  0  0
  155.6224  128.2617  155.2759 H   0  0  0  0  0  0  0  0  0  0  0  0
  153.2596  128.2004  155.4377 H   0  0  0  0  0  0  0  0  0  0  0  0
  153.1084  129.7898  154.6989 H   0  0  0  0  0  0  0  0  0  0  0  0
  151.3030  128.6300  155.3550 H   0  0  0  0  0  0  0  0  0  0  0  0
  149.8976  129.1897  156.2335 H   0  0  0  0  0  0  0  0  0  0  0  0
  149.3634  128.8882  153.8290 H   0  0  0  0  0  0  0  0  0  0  0  0
  150.6771  129.9476  153.3712 H   0  0  0  0  0  0  0  0  0  0  0  0
  152.0432  130.9081  155.2228 H   0  0  0  0  0  0  0  0  0  0  0  0
  142.6611  134.2901  149.4914 H   0  0  0  0  0  0  0  0  0  0  0  0
  1  2  2  0  0  0  0
  2  3  1  0  0  0  0
  2 10  1  0  0  0  0
  3  4  1  0  0  0  0
  3 23  1  0  0  0  0
  4  9  1  0  0  0  0
  4  5  2  0  0  0  0
  5  6  1  0  0  0  0
  5 24  1  0  0  0  0
  6  7  2  0  0  0  0
  6 25  1  0  0  0  0
  7  8  1  0  0  0  0
  7 50  1  0  0  0  0
  8  9  2  0  0  0  0
  8 26  1  0  0  0  0
  9 27  1  0  0  0  0
 10 11  1  0  0  0  0
 10 28  1  0  0  0  0
 11 22  1  0  0  0  0
 11 12  1  0  0  0  0
 11 29  1  0  0  0  0
 12 13  1  0  0  0  0
 12 30  1  0  0  0  0
 12 31  1  0  0  0  0
 13 14  1  0  0  0  0
 13 32  1  0  0  0  0
 13 33  1  0  0  0  0
 14 15  1  0  0  0  0
 14 21  1  0  0  0  0
 14 49  1  0  0  0  0
 15 16  1  0  0  0  0
 15 34  1  0  0  0  0
 15 35  1  0  0  0  0
 16 20  1  0  0  0  0
 16 17  1  0  0  0  0
 16 36  1  0  0  0  0
 17 18  1  0  0  0  0
 17 37  1  0  0  0  0
 17 38  1  0  0  0  0
 18 19  1  0  0  0  0
 18 39  1  0  0  0  0
 18 40  1  0  0  0  0
 19 20  1  0  0  0  0
 19 41  1  0  0  0  0
 19 42  1  0  0  0  0
 20 43  1  0  0  0  0
 20 44  1  0  0  0  0
 21 22  1  0  0  0  0
 21 45  1  0  0  0  0
 21 46  1  0  0  0  0
 22 47  1  0  0  0  0
 22 48  1  0  0  0  0
M  CHG  1   7   1
M  CHG  1  14   1
M  END
> <s_m_source_file>
AV-unprocessed.smi

> <i_m_source_file_index>
829

> <i_lp_mmshare_version>
43012

> <i_f3d_flags>
0

> <s_epik_input>
W2NIXTFbY0hdbltjSF1bY0hdYzFbTkhdQyg9TylbTkhdW0NIXTJbQ0gyXVtDSDJdTihbQ0gyXVtDSDJdMilbQ0gyXVtDSF0zW0NIMl1bQ0gyXVtDSDJdW0NIMl0z

> <s_epik_cmdline>
J2VwaWtfcHl0aG9uJywgJy1waCcsICc3LjAnLCAnLXRuJywgJzgnLCAnLW1hJywgJzIwMCcsICctbWV0YWxfYmluZGluZycsICctaW1hZScsICc8aW5maWxlLm1hZT4nLCAnLW9tYWUnLCAnPG91dGZpbGUubWFlPic=

> <r_epik_Ionization_Penalty>
1.10644

> <r_epik_Ionization_Penalty_Charging>
1.10642

> <r_epik_Ionization_Penalty_Neutral>
1.84455e-05

> <r_epik_State_Penalty>
1.14949

> <r_epik_Charging_Adjusted_Penalty>
2.25592

> <i_epik_Tot_Q>
2

> <i_epik_Tot_abs_Q>
2

> <r_epik_Metal_State_Penalty>
1.23448

> <b_epik_Metal_Only>
0

> <s_lp_Force_Field>
OPLS_2005

> <r_lp_Energy>
49.76

> <b_lp_Chiralities_Consistent>
1

> <s_lp_Variant>
AV-unprocessed.smi:829-3

> <Gold.Version>
5.8.1

> <Gold.Id.Protein>
6NUR|6NUR_protein|mol2

> <Gold.PLP.Fitness>
47.9259

> <Gold.PLP.PLP>
-38.6476

> <Gold.PLP.part.hbond>
-3.0000

> <Gold.PLP.part.metal>
0.0000

> <Gold.PLP.part.buried>
-6.1204

> <Gold.PLP.part.nonpolar>
-29.4509

> <Gold.PLP.part.repulsive>
0.2005

> <Gold.PLP.ligand.clash>
0.0000

> <Gold.PLP.ligand.torsion>
1.3852

> <Gold.PLP.Chemscore.Hbond>
3.9920

> <Gold.PLP.Chemscore.CHOScore>
0.0000

> <Gold.PLP.Chemscore.Metal>
0.0000

> <Gold.Chemscore.Hbonds>
donor molecule, donor type, donor heavy atom, donor atom, acceptor molecule, acceptor atom, score
      L1  H     3    23       P1 10747  1.00
      L1  H     7    50       P1 10186  1.89
      L1  H    10    28       P1 10747  0.99

> <Gold.PLP.Chemscore.Internal.Correction>
0.0726

> <Gold.Rescore>
     Score         DG    S(hbond)    S(metal)    S(lipo)     H(rot)  DE(clash)    DE(int)     intcor
     19.09     -21.91       2.52        0.00      98.37       1.37       0.01       2.81       ----

> <Gold.Chemscore.Fitness>
19.0874

> <Gold.Chemscore.DG>
-21.9088

> <Gold.Chemscore.ZeroCoef>
-5.4800

> <Gold.Chemscore.Hbond>
2.5237

> <Gold.Chemscore.Metal>
0.0000

> <Gold.Chemscore.Lipo>
98.3650

> <Gold.Chemscore.Internal_Hbond>
0.0000

> <Gold.Chemscore.DEClash>
0.0106

> <Gold.Chemscore.DEInternal>
2.8109

> <Gold.Chemscore.Rot>
1.3707

> <Gold.Chemscore.Internal.Correction>
   9.000000E+99

> <Gold.Chemscore.Hbonds>
donor molecule, donor type, donor heavy atom, donor atom, acceptor molecule, acceptor atom, score
      L1  H     3    23       P1 10747  0.99
      L1  H     7    50       P1 10186  0.92
      L1  H    10    28       P1 10747  0.57

> <Gold.Chemscore.Hbond.Weighted>
-8.4290

> <Gold.Chemscore.Metal.Weighted>
-0.0000

> <Gold.Chemscore.Lipo.Weighted>
-11.5087

> <Gold.Chemscore.Internal_Hbond.Weighted>
0.0000

> <Gold.Chemscore.DEClash.Weighted>
0.0106

> <Gold.Chemscore.DEInternal.Weighted>
2.8109

> <Gold.Chemscore.Rot.Weighted>
3.5089

> <Gold.Chemscore.Internal.Correction.Weighted>
   9.000000E+99

> <Gold.Protein.RotatedTorsions>
[ 6907 6896 6895 6894 ] final  -92.40 input  -60.11 | X-H torsion
[ 7974 7965 7964 7962 ] final   27.16 input  175.53 | X-H torsion
[ 8008 7997 7996 7995 ] final   29.63 input   59.86 | X-H torsion
[ 10167 10162 10161 10158 ] final   71.17 input  -65.29 | X-H torsion
[ 10718 10713 10712 10709 ] final   71.13 input   66.30 | X-H torsion
[ 10763 10752 10751 10750 ] final  128.12 input  -60.55 | X-H torsion
[ 11005 11000 10999 10996 ] final   21.23 input  -57.11 | X-H torsion

> <Gold.Protein.ActiveResidues>
 VAL166  LYS551  ARG553  GLY616  TRP617  ASP618  TYR619  PRO620  LYS621  CYS622 
 ASP623  PHE694  ASN695  SER759  ASP760  ASP761  ALA762  ILE779  LEU786  VAL792 
 PHE793  MET794  SER795  GLU796  ALA797  LYS798  CYS799  TRP800  GLU811  SER814 

> <Gold.Protein.RotatedAtoms>
  150.6905  134.2128  159.4365 H   0  0  0  0  0  0  0  0  0  0  0  0  # atno 6907 bound_to 6896
  152.0089  134.9885  160.0577 H   0  0  0  0  0  0  0  0  0  0  0  0  # atno 6908 bound_to 6896
  152.1508  133.4486  159.4849 H   0  0  0  0  0  0  0  0  0  0  0  0  # atno 6909 bound_to 6896
  146.1799  139.7229  142.8908 H   0  0  0  0  0  0  0  0  0  0  0  0  # atno 7974 bound_to 7965
  155.0775  140.3207  155.4611 H   0  0  0  0  0  0  0  0  0  0  0  0  # atno 8008 bound_to 7997
  156.2775  140.2101  156.5848 H   0  0  0  0  0  0  0  0  0  0  0  0  # atno 8009 bound_to 7997
  154.7005  140.0507  157.0440 H   0  0  0  0  0  0  0  0  0  0  0  0  # atno 8010 bound_to 7997
  140.0490  144.5327  150.7377 H   0  0  0  0  0  0  0  0  0  0  0  0  # atno 10167 bound_to 10162
  157.6436  130.9512  150.0747 H   0  0  0  0  0  0  0  0  0  0  0  0  # atno 10718 bound_to 10713
  153.7204  135.3254  155.3265 H   0  0  0  0  0  0  0  0  0  0  0  0  # atno 10763 bound_to 10752
  154.8358  135.4498  154.1224 H   0  0  0  0  0  0  0  0  0  0  0  0  # atno 10764 bound_to 10752
  153.2342  135.6963  153.7935 H   0  0  0  0  0  0  0  0  0  0  0  0  # atno 10765 bound_to 10752
  140.3938  134.1790  155.7663 H   0  0  0  0  0  0  0  0  0  0  0  0  # atno 11005 bound_to 11000
  145.4106  141.0396  143.3019 LP  0  0  0  0  0  0  0  0  0  0  0  0  # atno 17320 bound_to 7965
  144.8298  139.5648  143.6949 LP  0  0  0  0  0  0  0  0  0  0  0  0  # atno 17321 bound_to 7965
  140.7225  143.2603  151.4230 LP  0  0  0  0  0  0  0  0  0  0  0  0  # atno 17342 bound_to 10162
  139.5965  144.1386  152.2149 LP  0  0  0  0  0  0  0  0  0  0  0  0  # atno 17343 bound_to 10162
  156.1740  130.3647  149.9125 LP  0  0  0  0  0  0  0  0  0  0  0  0  # atno 17370 bound_to 10713
  156.7094  130.8964  151.3608 LP  0  0  0  0  0  0  0  0  0  0  0  0  # atno 17371 bound_to 10713
  141.1881  133.8267  157.1007 LP  0  0  0  0  0  0  0  0  0  0  0  0  # atno 17394 bound_to 11000
  140.0386  134.9865  157.0919 LP  0  0  0  0  0  0  0  0  0  0  0  0  # atno 17395 bound_to 11000

$$$$
