AV-unprocessed.smi:1347|AV-procd|sdf|5516|dock9
  -GOLD-   22720 5103D 1   1.00000     0.00000
 Structure written by MMmdl.
 38 39  0  0  0  0  0  0  0  0  1 V2000
  153.8339  136.7039  164.2401 C   0  0  0  0  0  0  0  0  0  0  0  0
  153.1344  137.1624  163.0968 O   0  0  0  0  0  0  0  0  0  0  0  0
  154.0035  137.4676  162.0184 C   0  0  0  0  0  0  0  0  0  0  0  0
  153.1690  137.7558  160.7714 C   0  0  0  0  0  0  0  0  0  0  0  0
  152.5486  136.8493  160.2161 O   0  0  0  0  0  0  0  0  0  0  0  0
  153.1528  139.0285  160.3487 N   0  0  0  0  0  0  0  0  0  0  0  0
  152.3757  139.5298  159.2203 C   0  0  0  0  0  0  0  0  0  0  0  0
  152.3043  141.0522  159.1538 C   0  0  0  0  0  0  0  0  0  0  0  0
  152.8481  141.8185  160.2064 C   0  0  0  0  0  0  0  0  0  0  0  0
  152.7823  143.2220  160.1401 C   0  0  0  0  0  0  0  0  0  0  0  0
  152.1699  143.8090  159.0177 C   0  0  0  0  0  0  0  0  0  0  0  0
  151.6430  143.0914  158.0036 N   0  0  0  0  0  0  0  0  0  0  0  0
  151.7068  141.7392  158.0648 C   0  0  0  0  0  0  0  0  0  0  0  0
  151.1525  141.0201  156.9943 N   0  0  0  0  0  0  0  0  0  0  0  0
  150.3490  141.8240  156.0839 C   0  0  0  0  0  0  0  0  0  0  0  0
  149.6536  140.9097  155.0602 C   0  0  0  0  0  0  0  0  0  0  0  0
  150.6274  140.1198  154.3821 O   0  0  0  0  0  0  0  0  0  0  0  0
  151.3635  139.2879  155.2752 C   0  0  0  0  0  0  0  0  0  0  0  0
  152.1044  140.1628  156.3000 C   0  0  0  0  0  0  0  0  0  0  0  0
  153.1264  136.4879  165.0407 H   0  0  0  0  0  0  0  0  0  0  0  0
  154.5332  137.4581  164.6032 H   0  0  0  0  0  0  0  0  0  0  0  0
  154.3866  135.7888  164.0232 H   0  0  0  0  0  0  0  0  0  0  0  0
  154.6059  138.3473  162.2498 H   0  0  0  0  0  0  0  0  0  0  0  0
  154.6850  136.6349  161.8343 H   0  0  0  0  0  0  0  0  0  0  0  0
  153.6948  139.7061  160.8645 H   0  0  0  0  0  0  0  0  0  0  0  0
  152.8341  139.1648  158.3009 H   0  0  0  0  0  0  0  0  0  0  0  0
  151.3719  139.1033  159.2501 H   0  0  0  0  0  0  0  0  0  0  0  0
  153.3149  141.3390  161.0543 H   0  0  0  0  0  0  0  0  0  0  0  0
  153.1928  143.8334  160.9297 H   0  0  0  0  0  0  0  0  0  0  0  0
  152.1005  144.8832  158.9323 H   0  0  0  0  0  0  0  0  0  0  0  0
  149.6066  142.3906  156.6473 H   0  0  0  0  0  0  0  0  0  0  0  0
  150.9851  142.5445  155.5681 H   0  0  0  0  0  0  0  0  0  0  0  0
  148.9240  140.2627  155.5499 H   0  0  0  0  0  0  0  0  0  0  0  0
  149.1091  141.5079  154.3294 H   0  0  0  0  0  0  0  0  0  0  0  0
  150.6918  138.5886  155.7760 H   0  0  0  0  0  0  0  0  0  0  0  0
  152.0755  138.6926  154.7033 H   0  0  0  0  0  0  0  0  0  0  0  0
  152.8522  140.7746  155.7937 H   0  0  0  0  0  0  0  0  0  0  0  0
  152.6317  139.5348  157.0193 H   0  0  0  0  0  0  0  0  0  0  0  0
  1  2  1  0  0  0  0
  1 20  1  0  0  0  0
  1 21  1  0  0  0  0
  1 22  1  0  0  0  0
  2  3  1  0  0  0  0
  3  4  1  0  0  0  0
  3 23  1  0  0  0  0
  3 24  1  0  0  0  0
  4  5  2  0  0  0  0
  4  6  1  0  0  0  0
  6  7  1  0  0  0  0
  6 25  1  0  0  0  0
  7  8  1  0  0  0  0
  7 26  1  0  0  0  0
  7 27  1  0  0  0  0
  8 13  1  0  0  0  0
  8  9  2  0  0  0  0
  9 10  1  0  0  0  0
  9 28  1  0  0  0  0
 10 11  2  0  0  0  0
 10 29  1  0  0  0  0
 11 12  1  0  0  0  0
 11 30  1  0  0  0  0
 12 13  2  0  0  0  0
 13 14  1  0  0  0  0
 14 19  1  0  0  0  0
 14 15  1  0  0  0  0
 15 16  1  0  0  0  0
 15 31  1  0  0  0  0
 15 32  1  0  0  0  0
 16 17  1  0  0  0  0
 16 33  1  0  0  0  0
 16 34  1  0  0  0  0
 17 18  1  0  0  0  0
 18 19  1  0  0  0  0
 18 35  1  0  0  0  0
 18 36  1  0  0  0  0
 19 37  1  0  0  0  0
 19 38  1  0  0  0  0
M  END
> <s_m_source_file>
AV-unprocessed.smi

> <i_m_source_file_index>
1347

> <i_lp_mmshare_version>
43012

> <i_f3d_flags>
0

> <s_epik_input>
W0NIM11PW0NIMl1DKD1PKVtOSF1bQ0gyXWMxW2NIXVtjSF1bY0hdbmMxTjJbQ0gyXVtDSDJdT1tDSDJdW0NIMl0y

> <s_epik_cmdline>
J2VwaWtfcHl0aG9uJywgJy1waCcsICc3LjAnLCAnLXRuJywgJzgnLCAnLW1hJywgJzIwMCcsICctbWV0YWxfYmluZGluZycsICctaW1hZScsICc8aW5maWxlLm1hZT4nLCAnLW9tYWUnLCAnPG91dGZpbGUubWFlPic=

> <r_lp_tautomer_probability>
1

> <r_epik_Ionization_Penalty>
0.00422298

> <r_epik_Ionization_Penalty_Charging>
0

> <r_epik_Ionization_Penalty_Neutral>
0.00422298

> <r_epik_State_Penalty>
0.00303469

> <r_epik_Charging_Adjusted_Penalty>
0.00303469

> <i_epik_Tot_Q>
0

> <i_epik_Tot_abs_Q>
0

> <r_epik_Metal_State_Penalty>
-0

> <b_epik_Metal_Only>
0

> <s_lp_Force_Field>
OPLS_2005

> <r_lp_Energy>
19.5871

> <b_lp_Chiralities_Consistent>
1

> <s_lp_Variant>
AV-unprocessed.smi:1347-1

> <Gold.Version>
5.8.1

> <Gold.Id.Protein>
6NUR|6NUR_protein|mol2

> <Gold.PLP.Fitness>
44.4124

> <Gold.PLP.PLP>
-38.9154

> <Gold.PLP.part.hbond>
-2.0000

> <Gold.PLP.part.metal>
0.0000

> <Gold.PLP.part.buried>
-5.4198

> <Gold.PLP.part.nonpolar>
-31.5607

> <Gold.PLP.part.repulsive>
0.2463

> <Gold.PLP.ligand.clash>
0.0000

> <Gold.PLP.ligand.torsion>
0.3313

> <Gold.PLP.Chemscore.Hbond>
2.0000

> <Gold.PLP.Chemscore.CHOScore>
0.0000

> <Gold.PLP.Chemscore.Metal>
0.0000

> <Gold.Chemscore.Hbonds>
donor molecule, donor type, donor heavy atom, donor atom, acceptor molecule, acceptor atom, score
      P1  H  6896  6908       L1     5  1.00
      P1  H  7989  7998       L1    17  1.00

> <Gold.PLP.Chemscore.Internal.Correction>
0.1596

> <Gold.Rescore>
     Score         DG    S(hbond)    S(metal)    S(lipo)     H(rot)  DE(clash)    DE(int)     intcor
     15.82     -17.32       1.85        0.00      90.74       1.94       0.15       1.36       ----

> <Gold.Chemscore.Fitness>
15.8166

> <Gold.Chemscore.DG>
-17.3249

> <Gold.Chemscore.ZeroCoef>
-5.4800

> <Gold.Chemscore.Hbond>
1.8537

> <Gold.Chemscore.Metal>
0.0000

> <Gold.Chemscore.Lipo>
90.7376

> <Gold.Chemscore.Internal_Hbond>
0.0000

> <Gold.Chemscore.DEClash>
0.1506

> <Gold.Chemscore.DEInternal>
1.3577

> <Gold.Chemscore.Rot>
1.9385

> <Gold.Chemscore.Internal.Correction>
   9.000000E+99

> <Gold.Chemscore.Hbonds>
donor molecule, donor type, donor heavy atom, donor atom, acceptor molecule, acceptor atom, score
      P1  H  6896  6908       L1     5  1.00
      P1  H  7989  7998       L1    17  0.62

> <Gold.Chemscore.Hbond.Weighted>
-6.1913

> <Gold.Chemscore.Metal.Weighted>
-0.0000

> <Gold.Chemscore.Lipo.Weighted>
-10.6163

> <Gold.Chemscore.Internal_Hbond.Weighted>
0.0000

> <Gold.Chemscore.DEClash.Weighted>
0.1506

> <Gold.Chemscore.DEInternal.Weighted>
1.3577

> <Gold.Chemscore.Rot.Weighted>
4.9627

> <Gold.Chemscore.Internal.Correction.Weighted>
   9.000000E+99

> <Gold.Protein.RotatedTorsions>
[ 6907 6896 6895 6894 ] final -102.70 input  -60.11 | X-H torsion
[ 7974 7965 7964 7962 ] final  124.74 input  175.53 | X-H torsion
[ 8008 7997 7996 7995 ] final  138.40 input   59.86 | X-H torsion
[ 10167 10162 10161 10158 ] final -125.34 input  -65.29 | X-H torsion
[ 10718 10713 10712 10709 ] final   86.99 input   66.30 | X-H torsion
[ 10763 10752 10751 10750 ] final  153.30 input  -60.55 | X-H torsion
[ 11005 11000 10999 10996 ] final  127.69 input  -57.11 | X-H torsion

> <Gold.Protein.ActiveResidues>
 VAL166  LYS551  ARG553  GLY616  TRP617  ASP618  TYR619  PRO620  LYS621  CYS622 
 ASP623  PHE694  ASN695  SER759  ASP760  ASP761  ALA762  ILE779  LEU786  VAL792 
 PHE793  MET794  SER795  GLU796  ALA797  LYS798  CYS799  TRP800  GLU811  SER814 

> <Gold.Protein.RotatedAtoms>
  150.7208  134.0541  159.3808 H   0  0  0  0  0  0  0  0  0  0  0  0  # atno 6907 bound_to 6896
  151.8519  135.0552  160.0469 H   0  0  0  0  0  0  0  0  0  0  0  0  # atno 6908 bound_to 6896
  152.2784  133.5411  159.5519 H   0  0  0  0  0  0  0  0  0  0  0  0  # atno 6909 bound_to 6896
  145.0809  139.3658  143.4909 H   0  0  0  0  0  0  0  0  0  0  0  0  # atno 7974 bound_to 7965
  156.2997  140.2394  156.4068 H   0  0  0  0  0  0  0  0  0  0  0  0  # atno 8008 bound_to 7997
  154.8477  140.0425  157.1603 H   0  0  0  0  0  0  0  0  0  0  0  0  # atno 8009 bound_to 7997
  154.9033  140.2980  155.5310 H   0  0  0  0  0  0  0  0  0  0  0  0  # atno 8010 bound_to 7997
  139.9831  143.5721  152.2371 H   0  0  0  0  0  0  0  0  0  0  0  0  # atno 10167 bound_to 10162
  157.6935  131.0238  150.3056 H   0  0  0  0  0  0  0  0  0  0  0  0  # atno 10718 bound_to 10713
  154.1340  135.2825  155.3178 H   0  0  0  0  0  0  0  0  0  0  0  0  # atno 10763 bound_to 10752
  154.6335  135.5427  153.7710 H   0  0  0  0  0  0  0  0  0  0  0  0  # atno 10764 bound_to 10752
  153.0272  135.6468  154.1489 H   0  0  0  0  0  0  0  0  0  0  0  0  # atno 10765 bound_to 10752
  139.9521  134.9620  156.8892 H   0  0  0  0  0  0  0  0  0  0  0  0  # atno 11005 bound_to 11000
  146.3531  140.0599  142.8630 LP  0  0  0  0  0  0  0  0  0  0  0  0  # atno 17320 bound_to 7965
  145.1179  140.9445  143.4618 LP  0  0  0  0  0  0  0  0  0  0  0  0  # atno 17321 bound_to 7965
  139.6395  144.7653  151.2368 LP  0  0  0  0  0  0  0  0  0  0  0  0  # atno 17342 bound_to 10162
  140.7482  143.6341  150.8395 LP  0  0  0  0  0  0  0  0  0  0  0  0  # atno 17343 bound_to 10162
  156.3565  130.3839  149.7286 LP  0  0  0  0  0  0  0  0  0  0  0  0  # atno 17370 bound_to 10713
  156.4746  130.8013  151.3029 LP  0  0  0  0  0  0  0  0  0  0  0  0  # atno 17371 bound_to 10713
  140.5695  134.0457  155.7425 LP  0  0  0  0  0  0  0  0  0  0  0  0  # atno 17394 bound_to 11000
  141.1186  133.9499  157.2774 LP  0  0  0  0  0  0  0  0  0  0  0  0  # atno 17395 bound_to 11000

$$$$
