AV-unprocessed.smi:1166|AV-procd|sdf|4934|dock3
  -GOLD-   22720 3513D 1   1.00000     0.00000
 Structure written by MMmdl.
 47 48  0  0  0  0  0  0  0  0  2 V2000
  145.3394  132.1454  150.3459 C   0  0  0  0  0  0  0  0  0  0  0  0
  145.1675  132.5981  151.7218 N   0  0  0  0  0  0  0  0  0  0  0  0
  145.6072  131.7627  152.8315 C   0  0  0  0  0  0  0  0  0  0  0  0
  144.6031  133.8664  151.9785 C   0  0  0  0  0  0  0  0  0  0  0  0
  144.9741  135.0377  151.2733 C   0  0  0  0  0  0  0  0  0  0  0  0
  144.3642  136.2691  151.5887 C   0  0  0  0  0  0  0  0  0  0  0  0
  143.3932  136.3320  152.6095 C   0  0  0  0  0  0  0  0  0  0  0  0
  142.7978  137.5941  152.8800 N   0  0  0  0  0  0  0  0  0  0  0  0
  141.5931  137.8565  153.4155 C   0  0  0  0  0  0  0  0  0  0  0  0
  140.7839  137.0111  153.7962 O   0  0  0  0  0  0  0  0  0  0  0  0
  141.3795  139.1771  153.5032 N   0  0  0  0  0  0  0  0  0  0  0  0
  140.1837  139.8024  154.0596 C   0  0  2  0  0  0  0  0  0  0  0  0
  138.9350  139.4086  153.2534 C   0  0  0  0  0  0  0  0  0  0  0  0
  137.7043  140.1225  153.8230 C   0  0  0  0  0  0  0  0  0  0  0  0
  137.9059  141.6477  153.8511 C   0  0  0  0  0  0  0  0  0  0  0  0
  139.1495  142.0208  154.5557 N   0  0  0  0  0  0  0  0  0  0  0  0
  139.0813  142.6092  156.1922 S   0  0  0  0  0  0  0  0  0  0  0  0
  139.3366  144.4239  156.0314 C   0  0  0  0  0  0  0  0  0  0  0  0
  137.7180  142.3817  156.6951 O   0  0  0  0  0  0  0  0  0  0  0  0
  140.2299  142.0473  156.9193 O   0  0  0  0  0  0  0  0  0  0  0  0
  140.3627  141.3333  154.0705 C   0  0  0  0  0  0  0  0  0  0  0  0
  143.0486  135.1330  153.2781 C   0  0  0  0  0  0  0  0  0  0  0  0
  143.6572  133.9748  152.9432 N   0  3  0  0  0  0  0  0  0  0  0  0
  144.3842  132.1422  149.8196 H   0  0  0  0  0  0  0  0  0  0  0  0
  145.7423  131.1330  150.3087 H   0  0  0  0  0  0  0  0  0  0  0  0
  146.0288  132.8001  149.8114 H   0  0  0  0  0  0  0  0  0  0  0  0
  146.3523  132.2842  153.4331 H   0  0  0  0  0  0  0  0  0  0  0  0
  146.0579  130.8356  152.4763 H   0  0  0  0  0  0  0  0  0  0  0  0
  144.7638  131.5003  153.4708 H   0  0  0  0  0  0  0  0  0  0  0  0
  145.7193  135.0135  150.4924 H   0  0  0  0  0  0  0  0  0  0  0  0
  144.6478  137.1609  151.0488 H   0  0  0  0  0  0  0  0  0  0  0  0
  143.3772  138.3969  152.6822 H   0  0  0  0  0  0  0  0  0  0  0  0
  142.1002  139.7997  153.1681 H   0  0  0  0  0  0  0  0  0  0  0  0
  140.0596  139.4602  155.0871 H   0  0  0  0  0  0  0  0  0  0  0  0
  139.0643  139.6781  152.2042 H   0  0  0  0  0  0  0  0  0  0  0  0
  138.7826  138.3291  153.2842 H   0  0  0  0  0  0  0  0  0  0  0  0
  136.8263  139.8786  153.2245 H   0  0  0  0  0  0  0  0  0  0  0  0
  137.4987  139.7522  154.8266 H   0  0  0  0  0  0  0  0  0  0  0  0
  137.9643  142.0257  152.8298 H   0  0  0  0  0  0  0  0  0  0  0  0
  137.0469  142.1364  154.3096 H   0  0  0  0  0  0  0  0  0  0  0  0
  139.3332  144.8719  157.0248 H   0  0  0  0  0  0  0  0  0  0  0  0
  138.5306  144.8627  155.4458 H   0  0  0  0  0  0  0  0  0  0  0  0
  140.2959  144.6243  155.5576 H   0  0  0  0  0  0  0  0  0  0  0  0
  141.2218  141.6125  154.6802 H   0  0  0  0  0  0  0  0  0  0  0  0
  140.5747  141.6888  153.0612 H   0  0  0  0  0  0  0  0  0  0  0  0
  142.3068  135.0433  154.0570 H   0  0  0  0  0  0  0  0  0  0  0  0
  143.3852  133.1301  153.4462 H   0  0  0  0  0  0  0  0  0  0  0  0
  1  2  1  0  0  0  0
  1 24  1  0  0  0  0
  1 25  1  0  0  0  0
  1 26  1  0  0  0  0
  2  3  1  0  0  0  0
  2  4  1  0  0  0  0
  3 27  1  0  0  0  0
  3 28  1  0  0  0  0
  3 29  1  0  0  0  0
  4 23  1  0  0  0  0
  4  5  2  0  0  0  0
  5  6  1  0  0  0  0
  5 30  1  0  0  0  0
  6  7  2  0  0  0  0
  6 31  1  0  0  0  0
  7  8  1  0  0  0  0
  7 22  1  0  0  0  0
  8  9  1  0  0  0  0
  8 32  1  0  0  0  0
  9 10  2  0  0  0  0
  9 11  1  0  0  0  0
 11 12  1  0  0  0  0
 11 33  1  0  0  0  0
 12 21  1  0  0  0  0
 12 13  1  0  0  0  0
 12 34  1  0  0  0  0
 13 14  1  0  0  0  0
 13 35  1  0  0  0  0
 13 36  1  0  0  0  0
 14 15  1  0  0  0  0
 14 37  1  0  0  0  0
 14 38  1  0  0  0  0
 15 16  1  0  0  0  0
 15 39  1  0  0  0  0
 15 40  1  0  0  0  0
 16 17  1  0  0  0  0
 16 21  1  0  0  0  0
 17 18  1  0  0  0  0
 17 19  2  0  0  0  0
 17 20  2  0  0  0  0
 18 41  1  0  0  0  0
 18 42  1  0  0  0  0
 18 43  1  0  0  0  0
 21 44  1  0  0  0  0
 21 45  1  0  0  0  0
 22 23  2  0  0  0  0
 22 46  1  0  0  0  0
 23 47  1  0  0  0  0
M  CHG  1  23   1
M  END
> <s_m_source_file>
AV-unprocessed.smi

> <i_m_source_file_index>
1166

> <i_lp_mmshare_version>
43012

> <i_f3d_flags>
0

> <s_epik_input>
W0NIM11OKFtDSDNdKWMxW2NIXVtjSF1jKFtjSF1uMSlbTkhdQyg9TylbTkhdW0NAQEhdMltDSDJdW0NIMl1bQ0gyXU4oW0NIMl0yKVMoPU8pKD1PKVtDSDNd

> <s_epik_cmdline>
J2VwaWtfcHl0aG9uJywgJy1waCcsICc3LjAnLCAnLXRuJywgJzgnLCAnLW1hJywgJzIwMCcsICctbWV0YWxfYmluZGluZycsICctaW1hZScsICc8aW5maWxlLm1hZT4nLCAnLW9tYWUnLCAnPG91dGZpbGUubWFlPic=

> <r_lp_tautomer_probability>
0.999994

> <r_epik_Ionization_Penalty>
0.276583

> <r_epik_Ionization_Penalty_Charging>
0.276565

> <r_epik_Ionization_Penalty_Neutral>
1.87575e-05

> <r_epik_State_Penalty>
0.268949

> <r_epik_Charging_Adjusted_Penalty>
0.545513

> <i_epik_Tot_Q>
1

> <i_epik_Tot_abs_Q>
1

> <r_epik_Metal_State_Penalty>
0.551815

> <b_epik_Metal_Only>
0

> <s_lp_Force_Field>
OPLS_2005

> <r_lp_Energy>
7.52153

> <b_lp_Chiralities_Consistent>
1

> <s_lp_Variant>
AV-unprocessed.smi:1166-1

> <Gold.Version>
5.8.1

> <Gold.Id.Protein>
6NUR|6NUR_protein|mol2

> <Gold.PLP.Fitness>
42.2560

> <Gold.PLP.PLP>
-32.3282

> <Gold.PLP.part.hbond>
-3.7743

> <Gold.PLP.part.metal>
0.0000

> <Gold.PLP.part.buried>
-2.6017

> <Gold.PLP.part.nonpolar>
-26.3742

> <Gold.PLP.part.repulsive>
0.1414

> <Gold.PLP.ligand.clash>
0.0000

> <Gold.PLP.ligand.torsion>
1.9300

> <Gold.PLP.Chemscore.Hbond>
3.9088

> <Gold.PLP.Chemscore.CHOScore>
0.0000

> <Gold.PLP.Chemscore.Metal>
0.0000

> <Gold.Chemscore.Hbonds>
donor molecule, donor type, donor heavy atom, donor atom, acceptor molecule, acceptor atom, score
      L1  H     8    32       P1 10175  0.93
      L1  H    11    33       P1 10175  1.00
      L1  H    23    47       P1 10957  1.98

> <Gold.PLP.Chemscore.Internal.Correction>
2.0616

> <Gold.Rescore>
     Score         DG    S(hbond)    S(metal)    S(lipo)     H(rot)  DE(clash)    DE(int)     intcor
     15.69     -19.05       2.59        0.00      63.79       1.00       0.29       3.06       ----

> <Gold.Chemscore.Fitness>
15.6907

> <Gold.Chemscore.DG>
-19.0466

> <Gold.Chemscore.ZeroCoef>
-5.4800

> <Gold.Chemscore.Hbond>
2.5939

> <Gold.Chemscore.Metal>
0.0000

> <Gold.Chemscore.Lipo>
63.7851

> <Gold.Chemscore.Internal_Hbond>
0.0000

> <Gold.Chemscore.DEClash>
0.2927

> <Gold.Chemscore.DEInternal>
3.0632

> <Gold.Chemscore.Rot>
1.0000

> <Gold.Chemscore.Internal.Correction>
   9.000000E+99

> <Gold.Chemscore.Hbonds>
donor molecule, donor type, donor heavy atom, donor atom, acceptor molecule, acceptor atom, score
      L1  H     8    32       P1 10175  0.84
      L1  H    11    33       P1 10175  0.70
      L1  H    23    47       P1 10957  0.86

> <Gold.Chemscore.Hbond.Weighted>
-8.6638

> <Gold.Chemscore.Metal.Weighted>
-0.0000

> <Gold.Chemscore.Lipo.Weighted>
-7.4629

> <Gold.Chemscore.Internal_Hbond.Weighted>
0.0000

> <Gold.Chemscore.DEClash.Weighted>
0.2927

> <Gold.Chemscore.DEInternal.Weighted>
3.0632

> <Gold.Chemscore.Rot.Weighted>
2.5600

> <Gold.Chemscore.Internal.Correction.Weighted>
   9.000000E+99

> <Gold.Protein.RotatedTorsions>
[ 6907 6896 6895 6894 ] final  -95.80 input  -60.11 | X-H torsion
[ 7974 7965 7964 7962 ] final  -96.12 input  175.53 | X-H torsion
[ 8008 7997 7996 7995 ] final -138.47 input   59.86 | X-H torsion
[ 10167 10162 10161 10158 ] final   88.41 input  -65.29 | X-H torsion
[ 10718 10713 10712 10709 ] final   17.66 input   66.30 | X-H torsion
[ 10763 10752 10751 10750 ] final  114.42 input  -60.55 | X-H torsion
[ 11005 11000 10999 10996 ] final  105.56 input  -57.11 | X-H torsion

> <Gold.Protein.ActiveResidues>
 VAL166  LYS551  ARG553  GLY616  TRP617  ASP618  TYR619  PRO620  LYS621  CYS622 
 ASP623  PHE694  ASN695  SER759  ASP760  ASP761  ALA762  ILE779  LEU786  VAL792 
 PHE793  MET794  SER795  GLU796  ALA797  LYS798  CYS799  TRP800  GLU811  SER814 

> <Gold.Protein.RotatedAtoms>
  150.6972  134.1602  159.4172 H   0  0  0  0  0  0  0  0  0  0  0  0  # atno 6907 bound_to 6896
  151.9582  135.0134  160.0555 H   0  0  0  0  0  0  0  0  0  0  0  0  # atno 6908 bound_to 6896
  152.1950  133.4765  159.5065 H   0  0  0  0  0  0  0  0  0  0  0  0  # atno 6909 bound_to 6896
  145.3511  140.9476  143.2554 H   0  0  0  0  0  0  0  0  0  0  0  0  # atno 7974 bound_to 7965
  155.4289  140.0524  157.3020 H   0  0  0  0  0  0  0  0  0  0  0  0  # atno 8008 bound_to 7997
  154.4868  140.2104  155.9594 H   0  0  0  0  0  0  0  0  0  0  0  0  # atno 8009 bound_to 7997
  156.1287  140.3175  155.8321 H   0  0  0  0  0  0  0  0  0  0  0  0  # atno 8010 bound_to 7997
  139.8675  144.6511  150.8987 H   0  0  0  0  0  0  0  0  0  0  0  0  # atno 10167 bound_to 10162
  157.0853  130.6405  149.5836 H   0  0  0  0  0  0  0  0  0  0  0  0  # atno 10718 bound_to 10713
  153.5070  135.3626  155.2568 H   0  0  0  0  0  0  0  0  0  0  0  0  # atno 10763 bound_to 10752
  154.8744  135.4013  154.3413 H   0  0  0  0  0  0  0  0  0  0  0  0  # atno 10764 bound_to 10752
  153.4059  135.7076  153.6460 H   0  0  0  0  0  0  0  0  0  0  0  0  # atno 10765 bound_to 10752
  139.8803  134.9340  156.5533 H   0  0  0  0  0  0  0  0  0  0  0  0  # atno 11005 bound_to 11000
  144.8717  139.5029  143.6764 LP  0  0  0  0  0  0  0  0  0  0  0  0  # atno 17320 bound_to 7965
  146.2967  139.7301  142.9121 LP  0  0  0  0  0  0  0  0  0  0  0  0  # atno 17321 bound_to 7965
  140.7766  143.3692  151.1682 LP  0  0  0  0  0  0  0  0  0  0  0  0  # atno 17342 bound_to 10162
  139.7315  143.9065  152.3021 LP  0  0  0  0  0  0  0  0  0  0  0  0  # atno 17343 bound_to 10162
  155.9912  130.4966  150.7291 LP  0  0  0  0  0  0  0  0  0  0  0  0  # atno 17370 bound_to 10713
  157.4766  131.0898  151.0583 LP  0  0  0  0  0  0  0  0  0  0  0  0  # atno 17371 bound_to 10713
  140.8224  133.8343  155.8908 LP  0  0  0  0  0  0  0  0  0  0  0  0  # atno 17394 bound_to 11000
  140.9406  134.1906  157.4800 LP  0  0  0  0  0  0  0  0  0  0  0  0  # atno 17395 bound_to 11000

$$$$
