AV-unprocessed.smi:2468|AV-procd|sdf|9729|dock1
  -GOLD-   2272013373D 1   1.00000     0.00000
 Structure written by MMmdl.
 32 33  0  0  0  0  0  0  0  0  1 V2000
  152.1101  145.4122  160.1317 C   0  0  0  0  0  0  0  0  0  0  0  0
  152.2471  143.9225  159.8785 C   0  0  0  0  0  0  0  0  0  0  0  0
  152.7962  143.2068  160.8843 N   0  0  0  0  0  0  0  0  0  0  0  0
  152.9490  141.8785  160.7079 C   0  0  0  0  0  0  0  0  0  0  0  0
  152.5609  141.2028  159.5353 C   0  0  0  0  0  0  0  0  0  0  0  0
  151.9698  141.9469  158.4860 C   0  0  0  0  0  0  0  0  0  0  0  0
  151.5626  141.3696  157.2517 N   0  0  0  0  0  0  0  0  0  0  0  0
  151.9515  140.2097  156.6905 C   0  0  0  0  0  0  0  0  0  0  0  0
  152.7637  139.4323  157.1921 O   0  0  0  0  0  0  0  0  0  0  0  0
  151.3021  139.8809  155.3375 C   0  0  2  0  0  0  0  0  0  0  0  0
  150.3492  140.8900  155.0011 O   0  0  0  0  0  0  0  0  0  0  0  0
  149.2004  140.3059  154.3936 C   0  0  0  0  0  0  0  0  0  0  0  0
  149.5526  138.8419  154.1507 C   0  0  0  0  0  0  0  0  0  0  0  0
  150.5243  138.5564  155.2779 C   0  0  1  0  0  0  0  0  0  0  0  0
  151.3910  137.3091  155.0419 C   0  0  0  0  0  0  0  0  0  0  0  0
  151.8227  143.3432  158.6595 C   0  0  0  0  0  0  0  0  0  0  0  0
  151.1315  144.3230  157.4094 Cl  0  0  0  0  0  0  0  0  0  0  0  0
  151.0632  145.7113  160.0758 H   0  0  0  0  0  0  0  0  0  0  0  0
  152.6711  145.9766  159.3865 H   0  0  0  0  0  0  0  0  0  0  0  0
  152.4874  145.6881  161.1172 H   0  0  0  0  0  0  0  0  0  0  0  0
  153.4024  141.3370  161.5249 H   0  0  0  0  0  0  0  0  0  0  0  0
  152.7358  140.1408  159.4599 H   0  0  0  0  0  0  0  0  0  0  0  0
  150.8227  141.8602  156.7698 H   0  0  0  0  0  0  0  0  0  0  0  0
  152.0751  139.8899  154.5674 H   0  0  0  0  0  0  0  0  0  0  0  0
  148.3649  140.3859  155.0900 H   0  0  0  0  0  0  0  0  0  0  0  0
  148.9262  140.8256  153.4754 H   0  0  0  0  0  0  0  0  0  0  0  0
  148.6794  138.1887  154.1606 H   0  0  0  0  0  0  0  0  0  0  0  0
  150.0481  138.7343  153.1845 H   0  0  0  0  0  0  0  0  0  0  0  0
  149.9528  138.4245  156.1988 H   0  0  0  0  0  0  0  0  0  0  0  0
  151.9827  137.4024  154.1309 H   0  0  0  0  0  0  0  0  0  0  0  0
  150.7707  136.4176  154.9454 H   0  0  0  0  0  0  0  0  0  0  0  0
  152.0801  137.1410  155.8692 H   0  0  0  0  0  0  0  0  0  0  0  0
  1  2  1  0  0  0  0
  1 18  1  0  0  0  0
  1 19  1  0  0  0  0
  1 20  1  0  0  0  0
  2 16  1  0  0  0  0
  2  3  2  0  0  0  0
  3  4  1  0  0  0  0
  4  5  2  0  0  0  0
  4 21  1  0  0  0  0
  5  6  1  0  0  0  0
  5 22  1  0  0  0  0
  6  7  1  0  0  0  0
  6 16  2  0  0  0  0
  7  8  1  0  0  0  0
  7 23  1  0  0  0  0
  8  9  2  0  0  0  0
  8 10  1  0  0  0  0
 10 14  1  0  0  0  0
 10 11  1  0  0  0  0
 10 24  1  0  0  0  0
 11 12  1  0  0  0  0
 12 13  1  0  0  0  0
 12 25  1  0  0  0  0
 12 26  1  0  0  0  0
 13 14  1  0  0  0  0
 13 27  1  0  0  0  0
 13 28  1  0  0  0  0
 14 15  1  0  0  0  0
 14 29  1  0  0  0  0
 15 30  1  0  0  0  0
 15 31  1  0  0  0  0
 15 32  1  0  0  0  0
 16 17  1  0  0  0  0
M  END
> <s_m_source_file>
AV-unprocessed.smi

> <i_m_source_file_index>
2468

> <i_lp_mmshare_version>
43012

> <i_f3d_flags>
0

> <s_epik_input>
W0NIM11jMW5bY0hdW2NIXWMoYzFDbClbTkhdQyg9TylbQ0BASF0yT1tDSDJdW0NIMl1bQ0BIXTJbQ0gzXQ==

> <s_epik_cmdline>
J2VwaWtfcHl0aG9uJywgJy1waCcsICc3LjAnLCAnLXRuJywgJzgnLCAnLW1hJywgJzIwMCcsICctbWV0YWxfYmluZGluZycsICctaW1hZScsICc8aW5maWxlLm1hZT4nLCAnLW9tYWUnLCAnPG91dGZpbGUubWFlPic=

> <r_epik_Ionization_Penalty>
0.000361027

> <r_epik_Ionization_Penalty_Charging>
0

> <r_epik_Ionization_Penalty_Neutral>
0.000361027

> <r_epik_State_Penalty>
0.000217849

> <r_epik_Charging_Adjusted_Penalty>
0.000217849

> <i_epik_Tot_Q>
0

> <i_epik_Tot_abs_Q>
0

> <r_epik_Metal_State_Penalty>
-0

> <b_epik_Metal_Only>
0

> <s_lp_Force_Field>
OPLS_2005

> <r_lp_Energy>
24.8892

> <b_lp_Chiralities_Consistent>
1

> <s_lp_Variant>
AV-unprocessed.smi:2468-1

> <Gold.Version>
5.8.1

> <Gold.Id.Protein>
6NUR|6NUR_protein|mol2

> <Gold.PLP.Fitness>
38.7434

> <Gold.PLP.PLP>
-35.9618

> <Gold.PLP.part.hbond>
-2.0000

> <Gold.PLP.part.metal>
0.0000

> <Gold.PLP.part.buried>
0.5139

> <Gold.PLP.part.nonpolar>
-34.0802

> <Gold.PLP.part.repulsive>
0.2278

> <Gold.PLP.ligand.clash>
0.0000

> <Gold.PLP.ligand.torsion>
0.1105

> <Gold.PLP.Chemscore.Hbond>
1.0000

> <Gold.PLP.Chemscore.CHOScore>
0.0000

> <Gold.PLP.Chemscore.Metal>
0.0000

> <Gold.Chemscore.Hbonds>
donor molecule, donor type, donor heavy atom, donor atom, acceptor molecule, acceptor atom, score
      P1  H  7997  8010       L1     9  1.00

> <Gold.PLP.Chemscore.Internal.Correction>
0.0026

> <Gold.Rescore>
     Score         DG    S(hbond)    S(metal)    S(lipo)     H(rot)  DE(clash)    DE(int)     intcor
     16.25     -19.10       0.97        0.00     110.51       1.00       1.56       1.28       ----

> <Gold.Chemscore.Fitness>
16.2524

> <Gold.Chemscore.DG>
-19.0962

> <Gold.Chemscore.ZeroCoef>
-5.4800

> <Gold.Chemscore.Hbond>
0.9719

> <Gold.Chemscore.Metal>
0.0000

> <Gold.Chemscore.Lipo>
110.5138

> <Gold.Chemscore.Internal_Hbond>
0.0000

> <Gold.Chemscore.DEClash>
1.5620

> <Gold.Chemscore.DEInternal>
1.2818

> <Gold.Chemscore.Rot>
1.0000

> <Gold.Chemscore.Internal.Correction>
   9.000000E+99

> <Gold.Chemscore.Hbonds>
donor molecule, donor type, donor heavy atom, donor atom, acceptor molecule, acceptor atom, score
      P1  H  7997  8010       L1     9  0.50

> <Gold.Chemscore.Hbond.Weighted>
-3.2461

> <Gold.Chemscore.Metal.Weighted>
-0.0000

> <Gold.Chemscore.Lipo.Weighted>
-12.9301

> <Gold.Chemscore.Internal_Hbond.Weighted>
0.0000

> <Gold.Chemscore.DEClash.Weighted>
1.5620

> <Gold.Chemscore.DEInternal.Weighted>
1.2818

> <Gold.Chemscore.Rot.Weighted>
2.5600

> <Gold.Chemscore.Internal.Correction.Weighted>
   9.000000E+99

> <Gold.Protein.RotatedTorsions>
[ 6907 6896 6895 6894 ] final  -76.54 input  -60.11 | X-H torsion
[ 7974 7965 7964 7962 ] final   41.09 input  175.53 | X-H torsion
[ 8008 7997 7996 7995 ] final   57.10 input   59.86 | X-H torsion
[ 10167 10162 10161 10158 ] final -147.72 input  -65.29 | X-H torsion
[ 10718 10713 10712 10709 ] final  157.18 input   66.30 | X-H torsion
[ 10763 10752 10751 10750 ] final  -36.06 input  -60.55 | X-H torsion
[ 11005 11000 10999 10996 ] final  130.37 input  -57.11 | X-H torsion

> <Gold.Protein.ActiveResidues>
 VAL166  LYS551  ARG553  GLY616  TRP617  ASP618  TYR619  PRO620  LYS621  CYS622 
 ASP623  PHE694  ASN695  SER759  ASP760  ASP761  ALA762  ILE779  LEU786  VAL792 
 PHE793  MET794  SER795  GLU796  ALA797  LYS798  CYS799  TRP800  GLU811  SER814 

> <Gold.Protein.RotatedAtoms>
  150.7024  134.4557  159.5356 H   0  0  0  0  0  0  0  0  0  0  0  0  # atno 6907 bound_to 6896
  152.2241  134.8382  160.0491 H   0  0  0  0  0  0  0  0  0  0  0  0  # atno 6908 bound_to 6896
  151.9221  133.3553  159.3937 H   0  0  0  0  0  0  0  0  0  0  0  0  # atno 6909 bound_to 6896
  146.0852  139.5457  142.9511 H   0  0  0  0  0  0  0  0  0  0  0  0  # atno 7974 bound_to 7965
  155.5282  140.3481  155.4421 H   0  0  0  0  0  0  0  0  0  0  0  0  # atno 8008 bound_to 7997
  156.0737  140.1369  156.9825 H   0  0  0  0  0  0  0  0  0  0  0  0  # atno 8009 bound_to 7997
  154.4541  140.0960  156.6682 H   0  0  0  0  0  0  0  0  0  0  0  0  # atno 8010 bound_to 7997
  139.7596  143.8396  152.2604 H   0  0  0  0  0  0  0  0  0  0  0  0  # atno 10167 bound_to 10162
  157.1949  131.0663  151.2058 H   0  0  0  0  0  0  0  0  0  0  0  0  # atno 10718 bound_to 10713
  153.8734  135.6828  153.4772 H   0  0  0  0  0  0  0  0  0  0  0  0  # atno 10763 bound_to 10752
  153.1274  135.4713  154.9292 H   0  0  0  0  0  0  0  0  0  0  0  0  # atno 10764 bound_to 10752
  154.7703  135.3236  154.8154 H   0  0  0  0  0  0  0  0  0  0  0  0  # atno 10765 bound_to 10752
  139.9668  134.9588  156.9284 H   0  0  0  0  0  0  0  0  0  0  0  0  # atno 11005 bound_to 11000
  145.6143  141.0334  143.1949 LP  0  0  0  0  0  0  0  0  0  0  0  0  # atno 17320 bound_to 7965
  144.7321  139.7695  143.7343 LP  0  0  0  0  0  0  0  0  0  0  0  0  # atno 17321 bound_to 7965
  139.8399  144.7215  150.9344 LP  0  0  0  0  0  0  0  0  0  0  0  0  # atno 17342 bound_to 10162
  140.7806  143.3993  151.1176 LP  0  0  0  0  0  0  0  0  0  0  0  0  # atno 17343 bound_to 10162
  157.3824  130.7238  149.6639 LP  0  0  0  0  0  0  0  0  0  0  0  0  # atno 17370 bound_to 10713
  155.9707  130.4169  150.4252 LP  0  0  0  0  0  0  0  0  0  0  0  0  # atno 17371 bound_to 10713
  140.5379  134.0749  155.7333 LP  0  0  0  0  0  0  0  0  0  0  0  0  # atno 17394 bound_to 11000
  141.1348  133.9240  157.2458 LP  0  0  0  0  0  0  0  0  0  0  0  0  # atno 17395 bound_to 11000

$$$$
