AV-unprocessed.smi:598|AV-procd|sdf|3024|dock8
  -GOLD-   2262023533D 1   1.00000     0.00000
 Structure written by MMmdl.
 43 44  0  0  0  0  0  0  0  0  3 V2000
  152.7421  144.4055  159.2448 C   0  0  0  0  0  0  0  0  0  0  0  0
  151.6823  143.3772  159.6909 C   0  0  1  0  0  0  0  0  0  0  0  0
  150.6050  143.1671  158.6077 C   0  0  0  0  0  0  0  0  0  0  0  0
  151.1347  142.3622  157.4109 C   0  0  0  0  0  0  0  0  0  0  0  0
  151.7119  141.0146  157.8641 C   0  0  0  0  0  0  0  0  0  0  0  0
  152.7998  141.1867  158.9416 C   0  0  2  0  0  0  0  0  0  0  0  0
  153.2425  139.8592  159.3679 N   0  0  0  0  0  0  0  0  0  0  0  0
  154.5160  139.4524  159.4871 C   0  0  0  0  0  0  0  0  0  0  0  0
  155.4846  140.1831  159.2743 O   0  0  0  0  0  0  0  0  0  0  0  0
  154.7137  137.9988  159.9400 C   0  0  0  0  0  0  0  0  0  0  0  0
  154.6689  137.8333  161.4028 N   0  0  0  0  0  0  0  0  0  0  0  0
  155.1341  138.9095  162.1844 C   0  0  0  0  0  0  0  0  0  0  0  0
  155.1436  138.8646  163.5312 C   0  0  0  0  0  0  0  0  0  0  0  0
  155.6257  139.9784  164.3180 N   0  3  0  0  0  0  0  0  0  0  0  0
  156.0551  140.9684  163.7348 O   0  0  0  0  0  0  0  0  0  0  0  0
  155.5930  139.9010  165.5426 O   0  5  0  0  0  0  0  0  0  0  0  0
  154.6547  137.6575  164.1690 C   0  0  0  0  0  0  0  0  0  0  0  0
  154.2108  136.6239  163.4269 C   0  0  0  0  0  0  0  0  0  0  0  0
  154.2010  136.6751  161.9614 C   0  0  0  0  0  0  0  0  0  0  0  0
  153.7972  135.7341  161.2778 O   0  0  0  0  0  0  0  0  0  0  0  0
  152.2707  142.0138  160.1444 C   0  0  1  0  0  0  0  0  0  0  0  0
  153.3054  142.1723  161.2763 C   0  0  0  0  0  0  0  0  0  0  0  0
  153.3479  144.0413  158.4158 H   0  0  0  0  0  0  0  0  0  0  0  0
  153.4186  144.6628  160.0594 H   0  0  0  0  0  0  0  0  0  0  0  0
  152.2700  145.3335  158.9215 H   0  0  0  0  0  0  0  0  0  0  0  0
  151.1773  143.8163  160.5525 H   0  0  0  0  0  0  0  0  0  0  0  0
  149.7569  142.6374  159.0439 H   0  0  0  0  0  0  0  0  0  0  0  0
  150.2164  144.1279  158.2681 H   0  0  0  0  0  0  0  0  0  0  0  0
  150.3310  142.1959  156.6931 H   0  0  0  0  0  0  0  0  0  0  0  0
  151.9001  142.9328  156.8845 H   0  0  0  0  0  0  0  0  0  0  0  0
  150.9032  140.3934  158.2523 H   0  0  0  0  0  0  0  0  0  0  0  0
  152.1201  140.4843  157.0028 H   0  0  0  0  0  0  0  0  0  0  0  0
  153.6343  141.7234  158.4879 H   0  0  0  0  0  0  0  0  0  0  0  0
  152.5162  139.1891  159.5755 H   0  0  0  0  0  0  0  0  0  0  0  0
  153.9478  137.3876  159.4602 H   0  0  0  0  0  0  0  0  0  0  0  0
  155.6621  137.6239  159.5504 H   0  0  0  0  0  0  0  0  0  0  0  0
  155.4827  139.7592  161.6151 H   0  0  0  0  0  0  0  0  0  0  0  0
  154.6429  137.5720  165.2455 H   0  0  0  0  0  0  0  0  0  0  0  0
  153.8525  135.7335  163.9228 H   0  0  0  0  0  0  0  0  0  0  0  0
  151.4395  141.4517  160.5738 H   0  0  0  0  0  0  0  0  0  0  0  0
  154.2375  142.6035  160.9105 H   0  0  0  0  0  0  0  0  0  0  0  0
  153.5473  141.2127  161.7330 H   0  0  0  0  0  0  0  0  0  0  0  0
  152.9255  142.8169  162.0695 H   0  0  0  0  0  0  0  0  0  0  0  0
  1  2  1  0  0  0  0
  1 23  1  0  0  0  0
  1 24  1  0  0  0  0
  1 25  1  0  0  0  0
  2 21  1  0  0  0  0
  2  3  1  0  0  0  0
  2 26  1  0  0  0  0
  3  4  1  0  0  0  0
  3 27  1  0  0  0  0
  3 28  1  0  0  0  0
  4  5  1  0  0  0  0
  4 29  1  0  0  0  0
  4 30  1  0  0  0  0
  5  6  1  0  0  0  0
  5 31  1  0  0  0  0
  5 32  1  0  0  0  0
  6  7  1  0  0  0  0
  6 21  1  0  0  0  0
  6 33  1  0  0  0  0
  7  8  1  0  0  0  0
  7 34  1  0  0  0  0
  8  9  2  0  0  0  0
  8 10  1  0  0  0  0
 10 11  1  0  0  0  0
 10 35  1  0  0  0  0
 10 36  1  0  0  0  0
 11 19  1  0  0  0  0
 11 12  1  0  0  0  0
 12 13  2  0  0  0  0
 12 37  1  0  0  0  0
 13 14  1  0  0  0  0
 13 17  1  0  0  0  0
 14 15  2  0  0  0  0
 14 16  1  0  0  0  0
 17 18  2  0  0  0  0
 17 38  1  0  0  0  0
 18 19  1  0  0  0  0
 18 39  1  0  0  0  0
 19 20  2  0  0  0  0
 21 22  1  0  0  0  0
 21 40  1  0  0  0  0
 22 41  1  0  0  0  0
 22 42  1  0  0  0  0
 22 43  1  0  0  0  0
M  CHG  1  14   1
M  CHG  1  16  -1
M  END
> <s_m_source_file>
AV-unprocessed.smi

> <i_m_source_file_index>
598

> <i_lp_mmshare_version>
43012

> <i_f3d_flags>
0

> <s_epik_input>
W0NIM11bQ0BASF0xW0NIMl1bQ0gyXVtDSDJdW0NASF0oW0NASF0xW0NIM10pW05IXUMoPU8pW0NIMl1uMltjSF1jKFtOK10oPU8pW08tXSlbY0hdW2NIXWMyPU8=

> <s_epik_cmdline>
J2VwaWtfcHl0aG9uJywgJy1waCcsICc3LjAnLCAnLXRuJywgJzgnLCAnLW1hJywgJzIwMCcsICctbWV0YWxfYmluZGluZycsICctaW1hZScsICc8aW5maWxlLm1hZT4nLCAnLW9tYWUnLCAnPG91dGZpbGUubWFlPic=

> <r_lp_tautomer_probability>
1

> <r_epik_Ionization_Penalty>
1.91291e-08

> <r_epik_Ionization_Penalty_Charging>
8.21931e-11

> <r_epik_Ionization_Penalty_Neutral>
1.90469e-08

> <r_epik_State_Penalty>
-0

> <r_epik_Charging_Adjusted_Penalty>
8.21931e-11

> <i_epik_Tot_Q>
0

> <i_epik_Tot_abs_Q>
2

> <r_epik_Metal_State_Penalty>
-0

> <b_epik_Metal_Only>
0

> <s_lp_Force_Field>
OPLS_2005

> <r_lp_Energy>
25.417

> <b_lp_Chiralities_Consistent>
1

> <s_lp_Variant>
AV-unprocessed.smi:598-4

> <Gold.Version>
5.8.1

> <Gold.Id.Protein>
6NUR|6NUR_protein|mol2

> <Gold.PLP.Fitness>
40.5343

> <Gold.PLP.PLP>
-37.1989

> <Gold.PLP.part.hbond>
-2.9785

> <Gold.PLP.part.metal>
0.0000

> <Gold.PLP.part.buried>
-1.8892

> <Gold.PLP.part.nonpolar>
-32.6750

> <Gold.PLP.part.repulsive>
0.0941

> <Gold.PLP.ligand.clash>
0.0000

> <Gold.PLP.ligand.torsion>
0.8771

> <Gold.PLP.Chemscore.Hbond>
1.6936

> <Gold.PLP.Chemscore.CHOScore>
0.0000

> <Gold.PLP.Chemscore.Metal>
0.0000

> <Gold.Chemscore.Hbonds>
donor molecule, donor type, donor heavy atom, donor atom, acceptor molecule, acceptor atom, score
      P1  H  6896  6908       L1    20  0.78
      P1  H  7997  8008       L1     9  0.82

> <Gold.PLP.Chemscore.Internal.Correction>
0.0087

> <Gold.Rescore>
     Score         DG    S(hbond)    S(metal)    S(lipo)     H(rot)  DE(clash)    DE(int)     intcor
     16.25     -19.95       1.72        0.00     108.21       1.54       3.17       0.52       ----

> <Gold.Chemscore.Fitness>
16.2513

> <Gold.Chemscore.DG>
-19.9483

> <Gold.Chemscore.ZeroCoef>
-5.4800

> <Gold.Chemscore.Hbond>
1.7212

> <Gold.Chemscore.Metal>
0.0000

> <Gold.Chemscore.Lipo>
108.2064

> <Gold.Chemscore.Internal_Hbond>
0.0000

> <Gold.Chemscore.DEClash>
3.1741

> <Gold.Chemscore.DEInternal>
0.5230

> <Gold.Chemscore.Rot>
1.5393

> <Gold.Chemscore.Internal.Correction>
   9.000000E+99

> <Gold.Chemscore.Hbonds>
donor molecule, donor type, donor heavy atom, donor atom, acceptor molecule, acceptor atom, score
      P1  H  6896  6908       L1    20  0.74
      P1  H  7997  8008       L1     9  0.13

> <Gold.Chemscore.Hbond.Weighted>
-5.7489

> <Gold.Chemscore.Metal.Weighted>
-0.0000

> <Gold.Chemscore.Lipo.Weighted>
-12.6602

> <Gold.Chemscore.Internal_Hbond.Weighted>
0.0000

> <Gold.Chemscore.DEClash.Weighted>
3.1741

> <Gold.Chemscore.DEInternal.Weighted>
0.5230

> <Gold.Chemscore.Rot.Weighted>
3.9407

> <Gold.Chemscore.Internal.Correction.Weighted>
   9.000000E+99

> <Gold.Protein.RotatedTorsions>
[ 6907 6896 6895 6894 ] final  -71.64 input  -60.11 | X-H torsion
[ 7974 7965 7964 7962 ] final  150.47 input  175.53 | X-H torsion
[ 8008 7997 7996 7995 ] final -139.98 input   59.86 | X-H torsion
[ 10167 10162 10161 10158 ] final -168.86 input  -65.29 | X-H torsion
[ 10718 10713 10712 10709 ] final   -0.10 input   66.30 | X-H torsion
[ 10763 10752 10751 10750 ] final  -32.81 input  -60.55 | X-H torsion
[ 11005 11000 10999 10996 ] final  -56.22 input  -57.11 | X-H torsion

> <Gold.Protein.ActiveResidues>
 VAL166  LYS551  ARG553  GLY616  TRP617  ASP618  TYR619  PRO620  LYS621  CYS622 
 ASP623  PHE694  ASN695  SER759  ASP760  ASP761  ALA762  ILE779  LEU786  VAL792 
 PHE793  MET794  SER795  GLU796  ALA797  LYS798  CYS799  TRP800  GLU811  SER814 

> <Gold.Protein.RotatedAtoms>
  150.7204  134.5279  159.5685 H   0  0  0  0  0  0  0  0  0  0  0  0  # atno 6907 bound_to 6896
  152.2819  134.7816  160.0404 H   0  0  0  0  0  0  0  0  0  0  0  0  # atno 6908 bound_to 6896
  151.8460  133.3396  159.3695 H   0  0  0  0  0  0  0  0  0  0  0  0  # atno 6909 bound_to 6896
  144.8362  139.6412  143.6037 H   0  0  0  0  0  0  0  0  0  0  0  0  # atno 7974 bound_to 7965
  155.4538  140.0540  157.2998 H   0  0  0  0  0  0  0  0  0  0  0  0  # atno 8008 bound_to 7997
  154.4766  140.2063  155.9820 H   0  0  0  0  0  0  0  0  0  0  0  0  # atno 8009 bound_to 7997
  156.1141  140.3199  155.8118 H   0  0  0  0  0  0  0  0  0  0  0  0  # atno 8010 bound_to 7997
  139.5958  144.1114  152.1688 H   0  0  0  0  0  0  0  0  0  0  0  0  # atno 10167 bound_to 10162
  156.8254  130.5470  149.5692 H   0  0  0  0  0  0  0  0  0  0  0  0  # atno 10718 bound_to 10713
  153.8198  135.6875  153.4829 H   0  0  0  0  0  0  0  0  0  0  0  0  # atno 10763 bound_to 10752
  153.1576  135.4593  154.9725 H   0  0  0  0  0  0  0  0  0  0  0  0  # atno 10764 bound_to 10752
  154.7932  135.3309  154.7671 H   0  0  0  0  0  0  0  0  0  0  0  0  # atno 10765 bound_to 10752
  141.1110  133.6610  156.4587 H   0  0  0  0  0  0  0  0  0  0  0  0  # atno 11005 bound_to 11000
  146.2660  139.6521  142.9329 LP  0  0  0  0  0  0  0  0  0  0  0  0  # atno 17320 bound_to 7965
  145.4790  141.0437  143.2656 LP  0  0  0  0  0  0  0  0  0  0  0  0  # atno 17321 bound_to 7965
  140.0699  144.5787  150.7199 LP  0  0  0  0  0  0  0  0  0  0  0  0  # atno 17342 bound_to 10162
  140.7211  143.2589  151.4276 LP  0  0  0  0  0  0  0  0  0  0  0  0  # atno 17343 bound_to 10162
  156.0964  130.5936  150.9821 LP  0  0  0  0  0  0  0  0  0  0  0  0  # atno 17370 bound_to 10713
  157.6435  131.0907  150.8203 LP  0  0  0  0  0  0  0  0  0  0  0  0  # atno 17371 bound_to 10713
  140.4775  134.6696  157.5156 LP  0  0  0  0  0  0  0  0  0  0  0  0  # atno 17394 bound_to 11000
  140.0004  134.6845  155.9539 LP  0  0  0  0  0  0  0  0  0  0  0  0  # atno 17395 bound_to 11000

$$$$
