AV-unprocessed.smi:1850|AV-procd|sdf|7522|dock4
  -GOLD-   22720 9233D 1   1.00000     0.00000
 Structure written by MMmdl.
 40 41  0  0  0  0  0  0  0  0  1 V2000
  141.3127  146.5185  160.9095 C   0  0  0  0  0  0  0  0  0  0  0  0
  142.0883  145.7815  159.8085 C   0  0  0  0  0  0  0  0  0  0  0  0
  143.2338  145.0457  160.3606 N   0  0  0  0  0  0  0  0  0  0  0  0
  144.4799  145.2488  159.7365 C   0  0  0  0  0  0  0  0  0  0  0  0
  145.6089  144.6366  160.1554 C   0  0  0  0  0  0  0  0  0  0  0  0
  146.8835  144.8167  159.5976 N   0  0  0  0  0  0  0  0  0  0  0  0
  148.0902  144.5571  160.1355 C   0  0  0  0  0  0  0  0  0  0  0  0
  148.2986  144.1678  161.2844 O   0  0  0  0  0  0  0  0  0  0  0  0
  149.0691  144.7928  159.2500 N   0  0  0  0  0  0  0  0  0  0  0  0
  150.4972  144.6255  159.5039 C   0  0  0  0  0  0  0  0  0  0  0  0
  151.3129  144.9723  158.2412 C   0  0  0  0  0  0  0  0  0  0  0  0
  152.8151  144.7264  158.4560 C   0  0  0  0  0  0  0  0  0  0  0  0
  153.0851  143.2830  158.9091 C   0  0  0  0  0  0  0  0  0  0  0  0
  152.2794  142.9383  160.1714 C   0  0  0  0  0  0  0  0  0  0  0  0
  150.7763  143.1800  159.9572 C   0  0  0  0  0  0  0  0  0  0  0  0
  145.4895  143.7554  161.2970 C   0  0  0  0  0  0  0  0  0  0  0  0
  144.3049  143.5629  161.9088 C   0  0  0  0  0  0  0  0  0  0  0  0
  143.0863  144.2336  161.4495 C   0  0  0  0  0  0  0  0  0  0  0  0
  142.0024  144.0766  162.0121 O   0  0  0  0  0  0  0  0  0  0  0  0
  140.4750  147.0738  160.4876 H   0  0  0  0  0  0  0  0  0  0  0  0
  141.9518  147.2300  161.4333 H   0  0  0  0  0  0  0  0  0  0  0  0
  140.9112  145.8222  161.6462 H   0  0  0  0  0  0  0  0  0  0  0  0
  141.4169  145.1123  159.2676 H   0  0  0  0  0  0  0  0  0  0  0  0
  142.4297  146.5001  159.0619 H   0  0  0  0  0  0  0  0  0  0  0  0
  144.4369  145.9509  158.9187 H   0  0  0  0  0  0  0  0  0  0  0  0
  146.8849  145.1884  158.6593 H   0  0  0  0  0  0  0  0  0  0  0  0
  148.8080  145.1119  158.3285 H   0  0  0  0  0  0  0  0  0  0  0  0
  150.8003  145.2943  160.3118 H   0  0  0  0  0  0  0  0  0  0  0  0
  150.9660  144.3695  157.4006 H   0  0  0  0  0  0  0  0  0  0  0  0
  151.1499  146.0139  157.9621 H   0  0  0  0  0  0  0  0  0  0  0  0
  153.3609  144.9360  157.5356 H   0  0  0  0  0  0  0  0  0  0  0  0
  153.1946  145.4217  159.2059 H   0  0  0  0  0  0  0  0  0  0  0  0
  152.8216  142.5927  158.1068 H   0  0  0  0  0  0  0  0  0  0  0  0
  154.1501  143.1456  159.0987 H   0  0  0  0  0  0  0  0  0  0  0  0
  152.4526  141.8987  160.4509 H   0  0  0  0  0  0  0  0  0  0  0  0
  152.6313  143.5455  161.0063 H   0  0  0  0  0  0  0  0  0  0  0  0
  150.2363  142.9672  160.8805 H   0  0  0  0  0  0  0  0  0  0  0  0
  150.4010  142.4780  159.2110 H   0  0  0  0  0  0  0  0  0  0  0  0
  146.3627  143.2391  161.6686 H   0  0  0  0  0  0  0  0  0  0  0  0
  144.2498  142.8980  162.7583 H   0  0  0  0  0  0  0  0  0  0  0  0
  1  2  1  0  0  0  0
  1 20  1  0  0  0  0
  1 21  1  0  0  0  0
  1 22  1  0  0  0  0
  2  3  1  0  0  0  0
  2 23  1  0  0  0  0
  2 24  1  0  0  0  0
  3 18  1  0  0  0  0
  3  4  1  0  0  0  0
  4  5  2  0  0  0  0
  4 25  1  0  0  0  0
  5  6  1  0  0  0  0
  5 16  1  0  0  0  0
  6  7  1  0  0  0  0
  6 26  1  0  0  0  0
  7  8  2  0  0  0  0
  7  9  1  0  0  0  0
  9 10  1  0  0  0  0
  9 27  1  0  0  0  0
 10 15  1  0  0  0  0
 10 11  1  0  0  0  0
 10 28  1  0  0  0  0
 11 12  1  0  0  0  0
 11 29  1  0  0  0  0
 11 30  1  0  0  0  0
 12 13  1  0  0  0  0
 12 31  1  0  0  0  0
 12 32  1  0  0  0  0
 13 14  1  0  0  0  0
 13 33  1  0  0  0  0
 13 34  1  0  0  0  0
 14 15  1  0  0  0  0
 14 35  1  0  0  0  0
 14 36  1  0  0  0  0
 15 37  1  0  0  0  0
 15 38  1  0  0  0  0
 16 17  2  0  0  0  0
 16 39  1  0  0  0  0
 17 18  1  0  0  0  0
 17 40  1  0  0  0  0
 18 19  2  0  0  0  0
M  END
> <s_m_source_file>
AV-unprocessed.smi

> <i_m_source_file_index>
1850

> <i_lp_mmshare_version>
43012

> <i_f3d_flags>
0

> <s_epik_input>
W0NIM11bQ0gyXW4xW2NIXWMoW2NIXVtjSF1jMT1PKVtOSF1DKD1PKVtOSF1bQ0hdMltDSDJdW0NIMl1bQ0gyXVtDSDJdW0NIMl0y

> <s_epik_cmdline>
J2VwaWtfcHl0aG9uJywgJy1waCcsICc3LjAnLCAnLXRuJywgJzgnLCAnLW1hJywgJzIwMCcsICctbWV0YWxfYmluZGluZycsICctaW1hZScsICc8aW5maWxlLm1hZT4nLCAnLW9tYWUnLCAnPG91dGZpbGUubWFlPic=

> <r_lp_tautomer_probability>
1

> <r_epik_Ionization_Penalty>
2.61962e-05

> <r_epik_Ionization_Penalty_Charging>
4.78076e-06

> <r_epik_Ionization_Penalty_Neutral>
2.14155e-05

> <r_epik_State_Penalty>
-0

> <r_epik_Charging_Adjusted_Penalty>
4.78076e-06

> <i_epik_Tot_Q>
0

> <i_epik_Tot_abs_Q>
0

> <r_epik_Metal_State_Penalty>
-0

> <b_epik_Metal_Only>
0

> <s_lp_Force_Field>
OPLS_2005

> <r_lp_Energy>
22.0322

> <b_lp_Chiralities_Consistent>
1

> <s_lp_Variant>
AV-unprocessed.smi:1850-1

> <Gold.Version>
5.8.1

> <Gold.Id.Protein>
6NUR|6NUR_protein|mol2

> <Gold.PLP.Fitness>
45.4893

> <Gold.PLP.PLP>
-36.9286

> <Gold.PLP.part.hbond>
-4.0000

> <Gold.PLP.part.metal>
0.0000

> <Gold.PLP.part.buried>
-3.8268

> <Gold.PLP.part.nonpolar>
-29.0508

> <Gold.PLP.part.repulsive>
0.4744

> <Gold.PLP.ligand.clash>
0.0000

> <Gold.PLP.ligand.torsion>
0.1865

> <Gold.PLP.Chemscore.Hbond>
2.9760

> <Gold.PLP.Chemscore.CHOScore>
0.0000

> <Gold.PLP.Chemscore.Metal>
0.0000

> <Gold.Chemscore.Hbonds>
donor molecule, donor type, donor heavy atom, donor atom, acceptor molecule, acceptor atom, score
      L1  H     6    26       P1  8029  0.96
      L1  H     9    27       P1  8029  1.00
      P1  H  6933  6944       L1     8  0.98

> <Gold.PLP.Chemscore.Internal.Correction>
0.0056

> <Gold.Rescore>
     Score         DG    S(hbond)    S(metal)    S(lipo)     H(rot)  DE(clash)    DE(int)     intcor
     18.76     -23.40       2.82        0.00      98.16       1.17       1.68       2.96       ----

> <Gold.Chemscore.Fitness>
18.7600

> <Gold.Chemscore.DG>
-23.4007

> <Gold.Chemscore.ZeroCoef>
-5.4800

> <Gold.Chemscore.Hbond>
2.8206

> <Gold.Chemscore.Metal>
0.0000

> <Gold.Chemscore.Lipo>
98.1615

> <Gold.Chemscore.Internal_Hbond>
0.0000

> <Gold.Chemscore.DEClash>
1.6758

> <Gold.Chemscore.DEInternal>
2.9648

> <Gold.Chemscore.Rot>
1.1660

> <Gold.Chemscore.Internal.Correction>
   9.000000E+99

> <Gold.Chemscore.Hbonds>
donor molecule, donor type, donor heavy atom, donor atom, acceptor molecule, acceptor atom, score
      L1  H     6    26       P1  8029  0.92
      L1  H     9    27       P1  8029  0.86
      P1  H  6933  6944       L1     8  0.85

> <Gold.Chemscore.Hbond.Weighted>
-9.4208

> <Gold.Chemscore.Metal.Weighted>
-0.0000

> <Gold.Chemscore.Lipo.Weighted>
-11.4849

> <Gold.Chemscore.Internal_Hbond.Weighted>
0.0000

> <Gold.Chemscore.DEClash.Weighted>
1.6758

> <Gold.Chemscore.DEInternal.Weighted>
2.9648

> <Gold.Chemscore.Rot.Weighted>
2.9850

> <Gold.Chemscore.Internal.Correction.Weighted>
   9.000000E+99

> <Gold.Protein.RotatedTorsions>
[ 6907 6896 6895 6894 ] final -179.26 input  -60.11 | X-H torsion
[ 7974 7965 7964 7962 ] final    3.04 input  175.53 | X-H torsion
[ 8008 7997 7996 7995 ] final  -68.05 input   59.86 | X-H torsion
[ 10167 10162 10161 10158 ] final -115.49 input  -65.29 | X-H torsion
[ 10718 10713 10712 10709 ] final   18.73 input   66.30 | X-H torsion
[ 10763 10752 10751 10750 ] final  -77.98 input  -60.55 | X-H torsion
[ 11005 11000 10999 10996 ] final -172.62 input  -57.11 | X-H torsion

> <Gold.Protein.ActiveResidues>
 VAL166  LYS551  ARG553  GLY616  TRP617  ASP618  TYR619  PRO620  LYS621  CYS622 
 ASP623  PHE694  ASN695  SER759  ASP760  ASP761  ALA762  ILE779  LEU786  VAL792 
 PHE793  MET794  SER795  GLU796  ALA797  LYS798  CYS799  TRP800  GLU811  SER814 

> <Gold.Protein.RotatedAtoms>
  151.6505  133.3321  159.3150 H   0  0  0  0  0  0  0  0  0  0  0  0  # atno 6907 bound_to 6896
  150.7962  134.7028  159.6569 H   0  0  0  0  0  0  0  0  0  0  0  0  # atno 6908 bound_to 6896
  152.4050  134.6227  160.0106 H   0  0  0  0  0  0  0  0  0  0  0  0  # atno 6909 bound_to 6896
  146.2445  140.0745  142.8360 H   0  0  0  0  0  0  0  0  0  0  0  0  # atno 7974 bound_to 7965
  154.4841  140.0880  156.7447 H   0  0  0  0  0  0  0  0  0  0  0  0  # atno 8008 bound_to 7997
  155.4394  140.3453  155.4270 H   0  0  0  0  0  0  0  0  0  0  0  0  # atno 8009 bound_to 7997
  156.1236  140.1481  156.9157 H   0  0  0  0  0  0  0  0  0  0  0  0  # atno 8010 bound_to 7997
  140.0895  143.4713  152.1878 H   0  0  0  0  0  0  0  0  0  0  0  0  # atno 10167 bound_to 10162
  157.1004  130.6465  149.5871 H   0  0  0  0  0  0  0  0  0  0  0  0  # atno 10718 bound_to 10713
  154.5199  135.5745  153.6673 H   0  0  0  0  0  0  0  0  0  0  0  0  # atno 10763 bound_to 10752
  152.9915  135.6179  154.2768 H   0  0  0  0  0  0  0  0  0  0  0  0  # atno 10764 bound_to 10752
  154.2688  135.2854  155.2727 H   0  0  0  0  0  0  0  0  0  0  0  0  # atno 10765 bound_to 10752
  140.4949  134.5949  157.4968 H   0  0  0  0  0  0  0  0  0  0  0  0  # atno 11005 bound_to 11000
  145.0787  140.9206  143.4838 LP  0  0  0  0  0  0  0  0  0  0  0  0  # atno 17320 bound_to 7965
  145.0894  139.2901  143.5743 LP  0  0  0  0  0  0  0  0  0  0  0  0  # atno 17321 bound_to 7965
  139.5733  144.7474  151.3832 LP  0  0  0  0  0  0  0  0  0  0  0  0  # atno 17342 bound_to 10162
  140.7036  143.7570  150.7444 LP  0  0  0  0  0  0  0  0  0  0  0  0  # atno 17343 bound_to 10162
  155.9875  130.4914  150.7128 LP  0  0  0  0  0  0  0  0  0  0  0  0  # atno 17370 bound_to 10713
  157.4646  131.0887  151.0709 LP  0  0  0  0  0  0  0  0  0  0  0  0  # atno 17371 bound_to 10713
  139.9747  134.7235  155.9973 LP  0  0  0  0  0  0  0  0  0  0  0  0  # atno 17394 bound_to 11000
  141.1465  133.6555  156.3883 LP  0  0  0  0  0  0  0  0  0  0  0  0  # atno 17395 bound_to 11000

$$$$
