AV-unprocessed.smi:3350|AV-procd|sdf|12945|dock7
  -GOLD-   2272019383D 1   1.00000     0.00000
 Structure written by MMmdl.
 41 42  0  0  0  0  0  0  0  0  1 V2000
  147.1116  140.2679  153.4301 C   0  0  0  0  0  0  0  0  0  0  0  0
  147.7927  139.0250  154.0186 C   0  0  2  0  0  0  0  0  0  0  0  0
  149.3246  139.2067  154.0925 C   0  0  0  0  0  0  0  0  0  0  0  0
  149.7313  140.1821  155.0889 N   0  0  0  0  0  0  0  0  0  0  0  0
  148.9358  140.9291  155.9320 C   0  0  0  0  0  0  0  0  0  0  0  0
  149.7630  141.7178  156.6787 C   0  0  0  0  0  0  0  0  0  0  0  0
  151.0643  141.3717  156.2194 C   0  0  0  0  0  0  0  0  0  0  0  0
  151.0426  140.4481  155.2721 N   0  0  0  0  0  0  0  0  0  0  0  0
  147.4443  137.8626  153.2020 N   0  0  0  0  0  0  0  0  0  0  0  0
  146.2371  137.2815  153.1459 C   0  0  0  0  0  0  0  0  0  0  0  0
  145.2519  137.6720  153.7720 O   0  0  0  0  0  0  0  0  0  0  0  0
  146.2415  136.2088  152.3415 N   0  0  0  0  0  0  0  0  0  0  0  0
  145.1021  135.3284  152.0866 C   0  0  1  0  0  0  0  0  0  0  0  0
  143.8375  136.1872  151.9394 C   0  0  0  0  0  0  0  0  0  0  0  0
  145.3553  134.4601  150.8356 C   0  0  1  0  0  0  0  0  0  0  0  0
  146.4953  133.4463  150.9673 C   0  0  0  0  0  0  0  0  0  0  0  0
  146.0958  132.3952  149.9590 C   0  0  0  0  0  0  0  0  0  0  0  0
  144.5836  132.3559  150.1460 C   0  0  0  0  0  0  0  0  0  0  0  0
  144.2038  133.6743  150.5308 O   0  0  0  0  0  0  0  0  0  0  0  0
  147.3237  141.1524  154.0319 H   0  0  0  0  0  0  0  0  0  0  0  0
  146.0286  140.1450  153.3990 H   0  0  0  0  0  0  0  0  0  0  0  0
  147.4549  140.4668  152.4142 H   0  0  0  0  0  0  0  0  0  0  0  0
  147.4038  138.8964  155.0305 H   0  0  0  0  0  0  0  0  0  0  0  0
  149.8124  138.2564  154.3138 H   0  0  0  0  0  0  0  0  0  0  0  0
  149.7103  139.5348  153.1262 H   0  0  0  0  0  0  0  0  0  0  0  0
  147.8591  140.8451  155.9234 H   0  0  0  0  0  0  0  0  0  0  0  0
  149.4813  142.4344  157.4358 H   0  0  0  0  0  0  0  0  0  0  0  0
  152.0179  141.7606  156.5445 H   0  0  0  0  0  0  0  0  0  0  0  0
  148.1862  137.4624  152.6468 H   0  0  0  0  0  0  0  0  0  0  0  0
  147.1050  135.9732  151.8748 H   0  0  0  0  0  0  0  0  0  0  0  0
  144.9503  134.6659  152.9407 H   0  0  0  0  0  0  0  0  0  0  0  0
  142.9546  135.5660  151.7864 H   0  0  0  0  0  0  0  0  0  0  0  0
  143.9148  136.8683  151.0913 H   0  0  0  0  0  0  0  0  0  0  0  0
  143.6639  136.7861  152.8339 H   0  0  0  0  0  0  0  0  0  0  0  0
  145.5532  135.0975  149.9722 H   0  0  0  0  0  0  0  0  0  0  0  0
  147.4743  133.8800  150.7644 H   0  0  0  0  0  0  0  0  0  0  0  0
  146.5135  133.0107  151.9673 H   0  0  0  0  0  0  0  0  0  0  0  0
  146.3446  132.7283  148.9505 H   0  0  0  0  0  0  0  0  0  0  0  0
  146.5732  131.4302  150.1313 H   0  0  0  0  0  0  0  0  0  0  0  0
  144.0599  132.0364  149.2449 H   0  0  0  0  0  0  0  0  0  0  0  0
  144.3186  131.6721  150.9530 H   0  0  0  0  0  0  0  0  0  0  0  0
  1  2  1  0  0  0  0
  1 20  1  0  0  0  0
  1 21  1  0  0  0  0
  1 22  1  0  0  0  0
  2  3  1  0  0  0  0
  2  9  1  0  0  0  0
  2 23  1  0  0  0  0
  3  4  1  0  0  0  0
  3 24  1  0  0  0  0
  3 25  1  0  0  0  0
  4  8  1  0  0  0  0
  4  5  1  0  0  0  0
  5  6  2  0  0  0  0
  5 26  1  0  0  0  0
  6  7  1  0  0  0  0
  6 27  1  0  0  0  0
  7  8  2  0  0  0  0
  7 28  1  0  0  0  0
  9 10  1  0  0  0  0
  9 29  1  0  0  0  0
 10 11  2  0  0  0  0
 10 12  1  0  0  0  0
 12 13  1  0  0  0  0
 12 30  1  0  0  0  0
 13 14  1  0  0  0  0
 13 15  1  0  0  0  0
 13 31  1  0  0  0  0
 14 32  1  0  0  0  0
 14 33  1  0  0  0  0
 14 34  1  0  0  0  0
 15 19  1  0  0  0  0
 15 16  1  0  0  0  0
 15 35  1  0  0  0  0
 16 17  1  0  0  0  0
 16 36  1  0  0  0  0
 16 37  1  0  0  0  0
 17 18  1  0  0  0  0
 17 38  1  0  0  0  0
 17 39  1  0  0  0  0
 18 19  1  0  0  0  0
 18 40  1  0  0  0  0
 18 41  1  0  0  0  0
M  END
> <s_m_source_file>
AV-unprocessed.smi

> <i_m_source_file_index>
3350

> <i_lp_mmshare_version>
43012

> <i_f3d_flags>
0

> <s_epik_input>
bjFbY0hdW2NIXVtjSF1uMVtDSDJdW0NAQEhdKFtDSDNdKVtOSF1DKD1PKVtOSF1bQ0BIXShbQ0gzXSlbQ0BASF0yW0NIMl1bQ0gyXVtDSDJdTzI=

> <s_epik_cmdline>
J2VwaWtfcHl0aG9uJywgJy1waCcsICc3LjAnLCAnLXRuJywgJzgnLCAnLW1hJywgJzIwMCcsICctbWV0YWxfYmluZGluZycsICctaW1hZScsICc8aW5maWxlLm1hZT4nLCAnLW9tYWUnLCAnPG91dGZpbGUubWFlPic=

> <r_lp_tautomer_probability>
1

> <r_epik_Ionization_Penalty>
6.42349e-05

> <r_epik_Ionization_Penalty_Charging>
0

> <r_epik_Ionization_Penalty_Neutral>
6.42349e-05

> <r_epik_State_Penalty>
-0

> <r_epik_Charging_Adjusted_Penalty>
0

> <i_epik_Tot_Q>
0

> <i_epik_Tot_abs_Q>
0

> <r_epik_Metal_State_Penalty>
-0

> <b_epik_Metal_Only>
0

> <s_lp_Force_Field>
OPLS_2005

> <r_lp_Energy>
14.6241

> <b_lp_Chiralities_Consistent>
1

> <s_lp_Variant>
AV-unprocessed.smi:3350-7

> <Gold.Version>
5.8.1

> <Gold.Id.Protein>
6NUR|6NUR_protein|mol2

> <Gold.PLP.Fitness>
40.3951

> <Gold.PLP.PLP>
-32.4923

> <Gold.PLP.part.hbond>
-3.0000

> <Gold.PLP.part.metal>
0.0000

> <Gold.PLP.part.buried>
-4.4124

> <Gold.PLP.part.nonpolar>
-25.8480

> <Gold.PLP.part.repulsive>
0.4107

> <Gold.PLP.ligand.clash>
0.0000

> <Gold.PLP.ligand.torsion>
0.4552

> <Gold.PLP.Chemscore.Hbond>
2.9280

> <Gold.PLP.Chemscore.CHOScore>
0.0000

> <Gold.PLP.Chemscore.Metal>
0.0000

> <Gold.Chemscore.Hbonds>
donor molecule, donor type, donor heavy atom, donor atom, acceptor molecule, acceptor atom, score
      L1  H     9    29       P1  7948  1.00
      L1  H    12    30       P1  7948  0.93
      P1  H  7989  7998       L1     8  0.99

> <Gold.PLP.Chemscore.Internal.Correction>
0.0291

> <Gold.Rescore>
     Score         DG    S(hbond)    S(metal)    S(lipo)     H(rot)  DE(clash)    DE(int)     intcor
     16.75     -18.65       2.71        0.00      74.98       1.82       0.03       1.88       ----

> <Gold.Chemscore.Fitness>
16.7482

> <Gold.Chemscore.DG>
-18.6546

> <Gold.Chemscore.ZeroCoef>
-5.4800

> <Gold.Chemscore.Hbond>
2.7125

> <Gold.Chemscore.Metal>
0.0000

> <Gold.Chemscore.Lipo>
74.9842

> <Gold.Chemscore.Internal_Hbond>
0.0000

> <Gold.Chemscore.DEClash>
0.0255

> <Gold.Chemscore.DEInternal>
1.8808

> <Gold.Chemscore.Rot>
1.8197

> <Gold.Chemscore.Internal.Correction>
   9.000000E+99

> <Gold.Chemscore.Hbonds>
donor molecule, donor type, donor heavy atom, donor atom, acceptor molecule, acceptor atom, score
      L1  H     9    29       P1  7948  0.98
      L1  H    12    30       P1  7948  0.91
      P1  H  7989  7998       L1     8  0.37

> <Gold.Chemscore.Hbond.Weighted>
-9.0598

> <Gold.Chemscore.Metal.Weighted>
-0.0000

> <Gold.Chemscore.Lipo.Weighted>
-8.7732

> <Gold.Chemscore.Internal_Hbond.Weighted>
0.0000

> <Gold.Chemscore.DEClash.Weighted>
0.0255

> <Gold.Chemscore.DEInternal.Weighted>
1.8808

> <Gold.Chemscore.Rot.Weighted>
4.6583

> <Gold.Chemscore.Internal.Correction.Weighted>
   9.000000E+99

> <Gold.Protein.RotatedTorsions>
[ 6907 6896 6895 6894 ] final   78.42 input  -60.11 | X-H torsion
[ 7974 7965 7964 7962 ] final -152.29 input  175.53 | X-H torsion
[ 8008 7997 7996 7995 ] final  -44.55 input   59.86 | X-H torsion
[ 10167 10162 10161 10158 ] final   60.97 input  -65.29 | X-H torsion
[ 10718 10713 10712 10709 ] final -115.06 input   66.30 | X-H torsion
[ 10763 10752 10751 10750 ] final  118.83 input  -60.55 | X-H torsion
[ 11005 11000 10999 10996 ] final   51.50 input  -57.11 | X-H torsion

> <Gold.Protein.ActiveResidues>
 VAL166  LYS551  ARG553  GLY616  TRP617  ASP618  TYR619  PRO620  LYS621  CYS622 
 ASP623  PHE694  ASN695  SER759  ASP760  ASP761  ALA762  ILE779  LEU786  VAL792 
 PHE793  MET794  SER795  GLU796  ALA797  LYS798  CYS799  TRP800  GLU811  SER814 

> <Gold.Protein.RotatedAtoms>
  152.5158  134.3667  159.9303 H   0  0  0  0  0  0  0  0  0  0  0  0  # atno 6907 bound_to 6896
  151.3620  133.3879  159.2698 H   0  0  0  0  0  0  0  0  0  0  0  0  # atno 6908 bound_to 6896
  150.9644  134.9046  159.7808 H   0  0  0  0  0  0  0  0  0  0  0  0  # atno 6909 bound_to 6896
  144.7802  140.4682  143.5844 H   0  0  0  0  0  0  0  0  0  0  0  0  # atno 7974 bound_to 7965
  154.3998  140.1419  156.3701 H   0  0  0  0  0  0  0  0  0  0  0  0  # atno 8008 bound_to 7997
  155.8101  140.3473  155.5432 H   0  0  0  0  0  0  0  0  0  0  0  0  # atno 8009 bound_to 7997
  155.8395  140.0924  157.1733 H   0  0  0  0  0  0  0  0  0  0  0  0  # atno 8010 bound_to 7997
  140.1598  144.4381  150.6715 H   0  0  0  0  0  0  0  0  0  0  0  0  # atno 10167 bound_to 10162
  156.0870  130.6060  150.8856 H   0  0  0  0  0  0  0  0  0  0  0  0  # atno 10718 bound_to 10713
  153.5736  135.3497  155.2847 H   0  0  0  0  0  0  0  0  0  0  0  0  # atno 10763 bound_to 10752
  154.8678  135.4165  154.2698 H   0  0  0  0  0  0  0  0  0  0  0  0  # atno 10764 bound_to 10752
  153.3469  135.7053  153.6891 H   0  0  0  0  0  0  0  0  0  0  0  0  # atno 10765 bound_to 10752
  140.0927  134.5187  155.8836 H   0  0  0  0  0  0  0  0  0  0  0  0  # atno 11005 bound_to 11000
  145.6071  139.1509  143.3097 LP  0  0  0  0  0  0  0  0  0  0  0  0  # atno 17320 bound_to 7965
  146.2006  140.6189  142.9104 LP  0  0  0  0  0  0  0  0  0  0  0  0  # atno 17321 bound_to 7965
  140.6650  143.2265  151.5765 LP  0  0  0  0  0  0  0  0  0  0  0  0  # atno 17342 bound_to 10162
  139.5386  144.2710  152.1304 LP  0  0  0  0  0  0  0  0  0  0  0  0  # atno 17343 bound_to 10162
  157.6008  131.0941  150.8963 LP  0  0  0  0  0  0  0  0  0  0  0  0  # atno 17370 bound_to 10713
  156.9121  130.5284  149.5280 LP  0  0  0  0  0  0  0  0  0  0  0  0  # atno 17371 bound_to 10713
  141.2083  133.6672  156.6360 LP  0  0  0  0  0  0  0  0  0  0  0  0  # atno 17394 bound_to 11000
  140.3329  134.7913  157.4340 LP  0  0  0  0  0  0  0  0  0  0  0  0  # atno 17395 bound_to 11000

$$$$
