AV-unprocessed.smi:3338|AV-procd|sdf|12874|dock3
  -GOLD-   2272019273D 1   1.00000     0.00000
 Structure written by MMmdl.
 44 45  0  0  0  0  0  0  0  0  2 V2000
  150.4565  139.3016  154.4938 C   0  0  0  0  0  0  0  0  0  0  0  0
  149.0019  139.2356  154.9911 C   0  0  1  0  0  0  0  0  0  0  0  0
  148.4685  140.6010  155.4634 C   0  0  0  0  0  0  0  0  0  0  0  0
  148.1651  141.5233  154.2742 C   0  0  0  0  0  0  0  0  0  0  0  0
  147.2354  140.8339  153.2634 C   0  0  0  0  0  0  0  0  0  0  0  0
  147.8101  139.5439  152.8026 N   0  3  2  0  0  0  0  0  0  0  0  0
  147.0108  138.9288  151.7141 C   0  0  0  0  0  0  0  0  0  0  0  0
  145.9754  137.9208  152.2492 C   0  0  0  0  0  0  0  0  0  0  0  0
  146.4119  136.5462  152.0379 N   0  0  0  0  0  0  0  0  0  0  0  0
  145.6374  135.4619  152.2042 C   0  0  0  0  0  0  0  0  0  0  0  0
  144.4638  135.5308  152.5721 O   0  0  0  0  0  0  0  0  0  0  0  0
  146.2928  134.1024  151.9075 C   0  0  1  0  0  0  0  0  0  0  0  0
  146.3777  133.1927  153.1497 C   0  0  0  0  0  0  0  0  0  0  0  0
  145.6207  133.4388  150.7959 N   0  0  0  0  0  0  0  0  0  0  0  0
  146.1008  132.4175  150.0009 C   0  0  0  0  0  0  0  0  0  0  0  0
  145.1369  132.1268  149.0785 C   0  0  0  0  0  0  0  0  0  0  0  0
  144.0889  133.0381  149.3862 C   0  0  0  0  0  0  0  0  0  0  0  0
  144.3828  133.8259  150.4075 N   0  0  0  0  0  0  0  0  0  0  0  0
  148.0549  138.6173  153.9417 C   0  0  0  0  0  0  0  0  0  0  0  0
  150.5565  139.9243  153.6048 H   0  0  0  0  0  0  0  0  0  0  0  0
  150.8279  138.3076  154.2425 H   0  0  0  0  0  0  0  0  0  0  0  0
  151.1145  139.7106  155.2612 H   0  0  0  0  0  0  0  0  0  0  0  0
  149.0054  138.5727  155.8573 H   0  0  0  0  0  0  0  0  0  0  0  0
  147.5531  140.4491  156.0368 H   0  0  0  0  0  0  0  0  0  0  0  0
  149.1773  141.0772  156.1418 H   0  0  0  0  0  0  0  0  0  0  0  0
  147.7061  142.4464  154.6298 H   0  0  0  0  0  0  0  0  0  0  0  0
  149.0934  141.8147  153.7816 H   0  0  0  0  0  0  0  0  0  0  0  0
  146.2544  140.6591  153.7082 H   0  0  0  0  0  0  0  0  0  0  0  0
  147.0840  141.4977  152.4113 H   0  0  0  0  0  0  0  0  0  0  0  0
  146.5340  139.7132  151.1239 H   0  0  0  0  0  0  0  0  0  0  0  0
  147.6749  138.3951  151.0326 H   0  0  0  0  0  0  0  0  0  0  0  0
  145.8322  138.0700  153.3197 H   0  0  0  0  0  0  0  0  0  0  0  0
  144.9992  138.0615  151.7846 H   0  0  0  0  0  0  0  0  0  0  0  0
  147.3662  136.4076  151.7376 H   0  0  0  0  0  0  0  0  0  0  0  0
  147.3163  134.3061  151.5887 H   0  0  0  0  0  0  0  0  0  0  0  0
  146.9434  133.6712  153.9498 H   0  0  0  0  0  0  0  0  0  0  0  0
  146.8810  132.2556  152.9106 H   0  0  0  0  0  0  0  0  0  0  0  0
  145.3915  132.9441  153.5439 H   0  0  0  0  0  0  0  0  0  0  0  0
  147.0782  131.9849  150.1568 H   0  0  0  0  0  0  0  0  0  0  0  0
  145.1746  131.3770  148.3022 H   0  0  0  0  0  0  0  0  0  0  0  0
  143.1312  133.1518  148.8997 H   0  0  0  0  0  0  0  0  0  0  0  0
  148.4748  137.6758  153.5892 H   0  0  0  0  0  0  0  0  0  0  0  0
  147.1002  138.3708  154.4094 H   0  0  0  0  0  0  0  0  0  0  0  0
  148.7111  139.7663  152.4038 H   0  0  0  0  0  0  0  0  0  0  0  0
  1  2  1  0  0  0  0
  1 20  1  0  0  0  0
  1 21  1  0  0  0  0
  1 22  1  0  0  0  0
  2 19  1  0  0  0  0
  2  3  1  0  0  0  0
  2 23  1  0  0  0  0
  3  4  1  0  0  0  0
  3 24  1  0  0  0  0
  3 25  1  0  0  0  0
  4  5  1  0  0  0  0
  4 26  1  0  0  0  0
  4 27  1  0  0  0  0
  5  6  1  0  0  0  0
  5 28  1  0  0  0  0
  5 29  1  0  0  0  0
  6  7  1  0  0  0  0
  6 19  1  0  0  0  0
  6 44  1  0  0  0  0
  7  8  1  0  0  0  0
  7 30  1  0  0  0  0
  7 31  1  0  0  0  0
  8  9  1  0  0  0  0
  8 32  1  0  0  0  0
  8 33  1  0  0  0  0
  9 10  1  0  0  0  0
  9 34  1  0  0  0  0
 10 11  2  0  0  0  0
 10 12  1  0  0  0  0
 12 13  1  0  0  0  0
 12 14  1  0  0  0  0
 12 35  1  0  0  0  0
 13 36  1  0  0  0  0
 13 37  1  0  0  0  0
 13 38  1  0  0  0  0
 14 18  1  0  0  0  0
 14 15  1  0  0  0  0
 15 16  2  0  0  0  0
 15 39  1  0  0  0  0
 16 17  1  0  0  0  0
 16 40  1  0  0  0  0
 17 18  2  0  0  0  0
 17 41  1  0  0  0  0
 19 42  1  0  0  0  0
 19 43  1  0  0  0  0
M  CHG  1   6   1
M  END
> <s_m_source_file>
AV-unprocessed.smi

> <i_m_source_file_index>
3338

> <i_lp_mmshare_version>
43012

> <i_f3d_flags>
0

> <s_epik_input>
W0NIM11bQ0BASF0xW0NIMl1bQ0gyXVtDSDJdTihbQ0gyXTEpW0NIMl1bQ0gyXVtOSF1DKD1PKVtDQEhdKFtDSDNdKW4yW2NIXVtjSF1bY0hdbjI=

> <s_epik_cmdline>
J2VwaWtfcHl0aG9uJywgJy1waCcsICc3LjAnLCAnLXRuJywgJzgnLCAnLW1hJywgJzIwMCcsICctbWV0YWxfYmluZGluZycsICctaW1hZScsICc8aW5maWxlLm1hZT4nLCAnLW9tYWUnLCAnPG91dGZpbGUubWFlPic=

> <r_lp_tautomer_probability>
1

> <r_epik_Ionization_Penalty>
0.00225707

> <r_epik_Ionization_Penalty_Charging>
0.00223709

> <r_epik_Ionization_Penalty_Neutral>
1.99775e-05

> <r_epik_State_Penalty>
0.00153978

> <r_epik_Charging_Adjusted_Penalty>
0.00377687

> <i_epik_Tot_Q>
1

> <i_epik_Tot_abs_Q>
1

> <r_epik_Metal_State_Penalty>
-0

> <b_epik_Metal_Only>
0

> <s_lp_Force_Field>
OPLS_2005

> <r_lp_Energy>
22.3922

> <b_lp_Chiralities_Consistent>
1

> <s_lp_Variant>
AV-unprocessed.smi:3338-6

> <Gold.Version>
5.8.1

> <Gold.Id.Protein>
6NUR|6NUR_protein|mol2

> <Gold.PLP.Fitness>
46.0660

> <Gold.PLP.PLP>
-36.2227

> <Gold.PLP.part.hbond>
-1.9439

> <Gold.PLP.part.metal>
0.0000

> <Gold.PLP.part.buried>
-2.5767

> <Gold.PLP.part.nonpolar>
-33.3179

> <Gold.PLP.part.repulsive>
0.3766

> <Gold.PLP.ligand.clash>
0.0000

> <Gold.PLP.ligand.torsion>
1.1398

> <Gold.PLP.Chemscore.Hbond>
2.0000

> <Gold.PLP.Chemscore.CHOScore>
2.0000

> <Gold.PLP.Chemscore.Metal>
0.0000

> <Gold.Chemscore.Hbonds>
donor molecule, donor type, donor heavy atom, donor atom, acceptor molecule, acceptor atom, score
      L1  H     6    44       P1  7957  0.98
      L1  H     9    34       P1  7948  1.00
      L1  C    15    39       P1 10747  1.00
      L1  C    17    41       P1 10186  0.95

> <Gold.PLP.Chemscore.Internal.Correction>
0.1228

> <Gold.Rescore>
     Score         DG    S(hbond)    S(metal)    S(lipo)     H(rot)  DE(clash)    DE(int)     intcor
     16.54     -18.87       1.98        0.00      96.43       1.76       0.24       2.10       ----

> <Gold.Chemscore.Fitness>
16.5406

> <Gold.Chemscore.DG>
-18.8745

> <Gold.Chemscore.ZeroCoef>
-5.4800

> <Gold.Chemscore.Hbond>
1.9791

> <Gold.Chemscore.Metal>
0.0000

> <Gold.Chemscore.Lipo>
96.4288

> <Gold.Chemscore.Internal_Hbond>
0.0000

> <Gold.Chemscore.DEClash>
0.2356

> <Gold.Chemscore.DEInternal>
2.0983

> <Gold.Chemscore.Rot>
1.7570

> <Gold.Chemscore.Internal.Correction>
   9.000000E+99

> <Gold.Chemscore.Hbonds>
donor molecule, donor type, donor heavy atom, donor atom, acceptor molecule, acceptor atom, score
      L1  H     6    44       P1  7957  0.89
      L1  H     9    34       P1  7948  0.97

> <Gold.Chemscore.Hbond.Weighted>
-6.6102

> <Gold.Chemscore.Metal.Weighted>
-0.0000

> <Gold.Chemscore.Lipo.Weighted>
-11.2822

> <Gold.Chemscore.Internal_Hbond.Weighted>
0.0000

> <Gold.Chemscore.DEClash.Weighted>
0.2356

> <Gold.Chemscore.DEInternal.Weighted>
2.0983

> <Gold.Chemscore.Rot.Weighted>
4.4979

> <Gold.Chemscore.Internal.Correction.Weighted>
   9.000000E+99

> <Gold.Protein.RotatedTorsions>
[ 6907 6896 6895 6894 ] final   23.21 input  -60.11 | X-H torsion
[ 7974 7965 7964 7962 ] final -106.03 input  175.53 | X-H torsion
[ 8008 7997 7996 7995 ] final -142.66 input   59.86 | X-H torsion
[ 10167 10162 10161 10158 ] final  120.56 input  -65.29 | X-H torsion
[ 10718 10713 10712 10709 ] final -113.89 input   66.30 | X-H torsion
[ 10763 10752 10751 10750 ] final  -28.21 input  -60.55 | X-H torsion
[ 11005 11000 10999 10996 ] final   10.20 input  -57.11 | X-H torsion

> <Gold.Protein.ActiveResidues>
 VAL166  LYS551  ARG553  GLY616  TRP617  ASP618  TYR619  PRO620  LYS621  CYS622 
 ASP623  PHE694  ASN695  SER759  ASP760  ASP761  ALA762  ILE779  LEU786  VAL792 
 PHE793  MET794  SER795  GLU796  ALA797  LYS798  CYS799  TRP800  GLU811  SER814 

> <Gold.Protein.RotatedAtoms>
  151.9388  135.0223  160.0534 H   0  0  0  0  0  0  0  0  0  0  0  0  # atno 6907 bound_to 6896
  152.2054  133.4867  159.5089 H   0  0  0  0  0  0  0  0  0  0  0  0  # atno 6908 bound_to 6896
  150.6964  134.1453  159.4163 H   0  0  0  0  0  0  0  0  0  0  0  0  # atno 6909 bound_to 6896
  145.2229  140.9141  143.3249 H   0  0  0  0  0  0  0  0  0  0  0  0  # atno 7974 bound_to 7965
  155.4979  140.0573  157.2943 H   0  0  0  0  0  0  0  0  0  0  0  0  # atno 8008 bound_to 7997
  154.4598  140.1991  156.0227 H   0  0  0  0  0  0  0  0  0  0  0  0  # atno 8009 bound_to 7997
  156.0868  140.3239  155.7769 H   0  0  0  0  0  0  0  0  0  0  0  0  # atno 8010 bound_to 7997
  139.5974  144.7046  151.3143 H   0  0  0  0  0  0  0  0  0  0  0  0  # atno 10167 bound_to 10162
  156.0795  130.5997  150.8702 H   0  0  0  0  0  0  0  0  0  0  0  0  # atno 10718 bound_to 10713
  153.7446  135.6930  153.4959 H   0  0  0  0  0  0  0  0  0  0  0  0  # atno 10763 bound_to 10752
  153.2045  135.4425  155.0305 H   0  0  0  0  0  0  0  0  0  0  0  0  # atno 10764 bound_to 10752
  154.8208  135.3421  154.6970 H   0  0  0  0  0  0  0  0  0  0  0  0  # atno 10765 bound_to 10752
  140.5171  134.0595  155.7834 H   0  0  0  0  0  0  0  0  0  0  0  0  # atno 11005 bound_to 11000
  144.9748  139.3843  143.6291 LP  0  0  0  0  0  0  0  0  0  0  0  0  # atno 17320 bound_to 7965
  146.3371  139.8862  142.8816 LP  0  0  0  0  0  0  0  0  0  0  0  0  # atno 17321 bound_to 7965
  140.7223  143.7101  150.7776 LP  0  0  0  0  0  0  0  0  0  0  0  0  # atno 17342 bound_to 10162
  140.0671  143.5098  152.2599 LP  0  0  0  0  0  0  0  0  0  0  0  0  # atno 17343 bound_to 10162
  157.5906  131.0944  150.9125 LP  0  0  0  0  0  0  0  0  0  0  0  0  # atno 17370 bound_to 10713
  156.9302  130.5347  149.5279 LP  0  0  0  0  0  0  0  0  0  0  0  0  # atno 17371 bound_to 10713
  141.1354  133.9230  157.2445 LP  0  0  0  0  0  0  0  0  0  0  0  0  # atno 17394 bound_to 11000
  139.9626  135.0150  156.9302 LP  0  0  0  0  0  0  0  0  0  0  0  0  # atno 17395 bound_to 11000

$$$$
