AV-unprocessed.smi:1722|AV-procd|sdf|6943|dock2
  -GOLD-   22720 8153D 1   1.00000     0.00000
 Structure written by MMmdl.
 39 40  0  0  0  0  0  0  0  0  1 V2000
  150.8814  138.9182  157.2228 O   0  0  0  0  0  0  0  0  0  0  0  0
  151.1035  140.0980  157.4917 C   0  0  0  0  0  0  0  0  0  0  0  0
  152.1444  140.4355  158.5576 C   0  0  0  0  0  0  0  0  0  0  0  0
  152.6220  141.7553  158.3325 O   0  0  0  0  0  0  0  0  0  0  0  0
  151.9226  142.7668  159.0453 C   0  0  0  0  0  0  0  0  0  0  0  0
  151.9688  144.0433  158.1870 C   0  0  0  0  0  0  0  0  0  0  0  0
  151.3008  145.2284  158.9028 C   0  0  0  0  0  0  0  0  0  0  0  0
  151.9391  145.4763  160.2784 C   0  0  0  0  0  0  0  0  0  0  0  0
  151.9027  144.2067  161.1436 C   0  0  0  0  0  0  0  0  0  0  0  0
  152.5657  143.0199  160.4255 C   0  0  0  0  0  0  0  0  0  0  0  0
  150.4738  141.1553  156.9413 N   0  0  0  0  0  0  0  0  0  0  0  0
  149.4978  141.1885  155.9314 C   0  0  0  0  0  0  0  0  0  0  0  0
  148.2585  141.7292  156.0656 C   0  0  0  0  0  0  0  0  0  0  0  0
  147.2909  141.7204  154.9811 C   0  0  0  0  0  0  0  0  0  0  0  0
  145.8876  142.2780  155.1628 C   0  0  0  0  0  0  0  0  0  0  0  0
  145.0022  141.2824  155.1641 F   0  0  0  0  0  0  0  0  0  0  0  0
  145.7729  142.9379  156.3163 F   0  0  0  0  0  0  0  0  0  0  0  0
  145.5730  143.1115  154.1711 F   0  0  0  0  0  0  0  0  0  0  0  0
  147.6745  141.1200  153.8395 C   0  0  0  0  0  0  0  0  0  0  0  0
  148.9466  140.5618  153.6929 N   0  0  0  0  0  0  0  0  0  0  0  0
  149.8880  140.5504  154.6630 C   0  0  0  0  0  0  0  0  0  0  0  0
  150.9846  140.0314  154.4575 O   0  0  0  0  0  0  0  0  0  0  0  0
  149.1618  140.1379  152.8020 H   0  0  0  0  0  0  0  0  0  0  0  0
  151.6803  140.3578  159.5417 H   0  0  0  0  0  0  0  0  0  0  0  0
  152.9580  139.7111  158.5133 H   0  0  0  0  0  0  0  0  0  0  0  0
  150.8779  142.4763  159.1712 H   0  0  0  0  0  0  0  0  0  0  0  0
  153.0054  144.2952  157.9587 H   0  0  0  0  0  0  0  0  0  0  0  0
  151.4772  143.8653  157.2300 H   0  0  0  0  0  0  0  0  0  0  0  0
  151.3803  146.1262  158.2893 H   0  0  0  0  0  0  0  0  0  0  0  0
  150.2352  145.0294  159.0237 H   0  0  0  0  0  0  0  0  0  0  0  0
  152.9727  145.8002  160.1489 H   0  0  0  0  0  0  0  0  0  0  0  0
  151.4217  146.2895  160.7881 H   0  0  0  0  0  0  0  0  0  0  0  0
  152.4025  144.3914  162.0948 H   0  0  0  0  0  0  0  0  0  0  0  0
  150.8679  143.9567  161.3812 H   0  0  0  0  0  0  0  0  0  0  0  0
  152.4879  142.1346  161.0560 H   0  0  0  0  0  0  0  0  0  0  0  0
  153.6310  143.2187  160.3019 H   0  0  0  0  0  0  0  0  0  0  0  0
  150.7150  142.0597  157.3213 H   0  0  0  0  0  0  0  0  0  0  0  0
  147.9446  142.1747  156.9953 H   0  0  0  0  0  0  0  0  0  0  0  0
  147.0481  141.0164  152.9658 H   0  0  0  0  0  0  0  0  0  0  0  0
  1  2  2  0  0  0  0
  2  3  1  0  0  0  0
  2 11  1  0  0  0  0
  3  4  1  0  0  0  0
  3 24  1  0  0  0  0
  3 25  1  0  0  0  0
  4  5  1  0  0  0  0
  5 10  1  0  0  0  0
  5  6  1  0  0  0  0
  5 26  1  0  0  0  0
  6  7  1  0  0  0  0
  6 27  1  0  0  0  0
  6 28  1  0  0  0  0
  7  8  1  0  0  0  0
  7 29  1  0  0  0  0
  7 30  1  0  0  0  0
  8  9  1  0  0  0  0
  8 31  1  0  0  0  0
  8 32  1  0  0  0  0
  9 10  1  0  0  0  0
  9 33  1  0  0  0  0
  9 34  1  0  0  0  0
 10 35  1  0  0  0  0
 10 36  1  0  0  0  0
 11 12  1  0  0  0  0
 11 37  1  0  0  0  0
 12 21  1  0  0  0  0
 12 13  2  0  0  0  0
 13 14  1  0  0  0  0
 13 38  1  0  0  0  0
 14 15  1  0  0  0  0
 14 19  2  0  0  0  0
 15 16  1  0  0  0  0
 15 17  1  0  0  0  0
 15 18  1  0  0  0  0
 19 20  1  0  0  0  0
 19 39  1  0  0  0  0
 20 23  1  0  0  0  0
 20 21  1  0  0  0  0
 21 22  2  0  0  0  0
M  END
> <s_m_source_file>
AV-unprocessed.smi

> <i_m_source_file_index>
1722

> <i_lp_mmshare_version>
43012

> <i_f3d_flags>
0

> <s_epik_input>
Tz1jMVtuSF1bY0hdYyhDKEYpKEYpRilbY0hdYzFbTkhdQyg9TylbQ0gyXU9bQ0hdMltDSDJdW0NIMl1bQ0gyXVtDSDJdW0NIMl0y

> <s_epik_cmdline>
J2VwaWtfcHl0aG9uJywgJy1waCcsICc3LjAnLCAnLXRuJywgJzgnLCAnLW1hJywgJzIwMCcsICctbWV0YWxfYmluZGluZycsICctaW1hZScsICc8aW5maWxlLm1hZT4nLCAnLW9tYWUnLCAnPG91dGZpbGUubWFlPic=

> <r_lp_tautomer_probability>
0.999

> <r_epik_Ionization_Penalty>
0.008897

> <r_epik_Ionization_Penalty_Charging>
0.00889691

> <r_epik_Ionization_Penalty_Neutral>
9.17026e-08

> <r_epik_State_Penalty>
0.00672877

> <r_epik_Charging_Adjusted_Penalty>
0.0156257

> <i_epik_Tot_Q>
0

> <i_epik_Tot_abs_Q>
0

> <r_epik_Metal_State_Penalty>
0.320955

> <b_epik_Metal_Only>
0

> <s_lp_Force_Field>
OPLS_2005

> <r_lp_Energy>
24.9811

> <b_lp_Chiralities_Consistent>
1

> <s_lp_Variant>
AV-unprocessed.smi:1722-1

> <Gold.Version>
5.8.1

> <Gold.Id.Protein>
6NUR|6NUR_protein|mol2

> <Gold.PLP.Fitness>
48.4070

> <Gold.PLP.PLP>
-45.6118

> <Gold.PLP.part.hbond>
-2.0000

> <Gold.PLP.part.metal>
0.0000

> <Gold.PLP.part.buried>
-3.9813

> <Gold.PLP.part.nonpolar>
-39.8571

> <Gold.PLP.part.repulsive>
0.2779

> <Gold.PLP.ligand.clash>
0.0000

> <Gold.PLP.ligand.torsion>
1.6761

> <Gold.PLP.Chemscore.Hbond>
2.0000

> <Gold.PLP.Chemscore.CHOScore>
0.0000

> <Gold.PLP.Chemscore.Metal>
0.0000

> <Gold.Chemscore.Hbonds>
donor molecule, donor type, donor heavy atom, donor atom, acceptor molecule, acceptor atom, score
      L1  H    20    23       P1  7957  1.00
      P1  H  7989  7998       L1    22  0.75

> <Gold.PLP.Chemscore.Internal.Correction>
0.1475

> <Gold.Rescore>
     Score         DG    S(hbond)    S(metal)    S(lipo)     H(rot)  DE(clash)    DE(int)     intcor
     16.25     -18.81       1.97        0.00      92.59       1.59       0.04       2.52       ----

> <Gold.Chemscore.Fitness>
16.2501

> <Gold.Chemscore.DG>
-18.8136

> <Gold.Chemscore.ZeroCoef>
-5.4800

> <Gold.Chemscore.Hbond>
1.9707

> <Gold.Chemscore.Metal>
0.0000

> <Gold.Chemscore.Lipo>
92.5933

> <Gold.Chemscore.Internal_Hbond>
0.0000

> <Gold.Chemscore.DEClash>
0.0402

> <Gold.Chemscore.DEInternal>
2.5233

> <Gold.Chemscore.Rot>
1.5945

> <Gold.Chemscore.Internal.Correction>
   9.000000E+99

> <Gold.Chemscore.Hbonds>
donor molecule, donor type, donor heavy atom, donor atom, acceptor molecule, acceptor atom, score
      L1  H    20    23       P1  7957  0.99
      P1  H  7989  7998       L1    22  0.41

> <Gold.Chemscore.Hbond.Weighted>
-6.5822

> <Gold.Chemscore.Metal.Weighted>
-0.0000

> <Gold.Chemscore.Lipo.Weighted>
-10.8334

> <Gold.Chemscore.Internal_Hbond.Weighted>
0.0000

> <Gold.Chemscore.DEClash.Weighted>
0.0402

> <Gold.Chemscore.DEInternal.Weighted>
2.5233

> <Gold.Chemscore.Rot.Weighted>
4.0820

> <Gold.Chemscore.Internal.Correction.Weighted>
   9.000000E+99

> <Gold.Protein.RotatedTorsions>
[ 6907 6896 6895 6894 ] final -118.60 input  -60.11 | X-H torsion
[ 7974 7965 7964 7962 ] final   81.25 input  175.53 | X-H torsion
[ 8008 7997 7996 7995 ] final  156.14 input   59.86 | X-H torsion
[ 10167 10162 10161 10158 ] final  -74.92 input  -65.29 | X-H torsion
[ 10718 10713 10712 10709 ] final  -18.04 input   66.30 | X-H torsion
[ 10763 10752 10751 10750 ] final   43.81 input  -60.55 | X-H torsion
[ 11005 11000 10999 10996 ] final   12.07 input  -57.11 | X-H torsion

> <Gold.Protein.ActiveResidues>
 VAL166  LYS551  ARG553  GLY616  TRP617  ASP618  TYR619  PRO620  LYS621  CYS622 
 ASP623  PHE694  ASN695  SER759  ASP760  ASP761  ALA762  ILE779  LEU786  VAL792 
 PHE793  MET794  SER795  GLU796  ALA797  LYS798  CYS799  TRP800  GLU811  SER814 

> <Gold.Protein.RotatedAtoms>
  150.8233  133.8215  159.3129 H   0  0  0  0  0  0  0  0  0  0  0  0  # atno 6907 bound_to 6896
  151.5966  135.1048  160.0060 H   0  0  0  0  0  0  0  0  0  0  0  0  # atno 6908 bound_to 6896
  152.4321  133.7254  159.6614 H   0  0  0  0  0  0  0  0  0  0  0  0  # atno 6909 bound_to 6896
  145.6406  139.2425  143.2032 H   0  0  0  0  0  0  0  0  0  0  0  0  # atno 7974 bound_to 7965
  156.2439  140.1920  156.6910 H   0  0  0  0  0  0  0  0  0  0  0  0  # atno 8008 bound_to 7997
  154.6251  140.0603  156.9690 H   0  0  0  0  0  0  0  0  0  0  0  0  # atno 8009 bound_to 7997
  155.1799  140.3275  155.4379 H   0  0  0  0  0  0  0  0  0  0  0  0  # atno 8010 bound_to 7997
  140.4986  143.2365  151.7789 H   0  0  0  0  0  0  0  0  0  0  0  0  # atno 10167 bound_to 10162
  156.5651  130.4735  149.6388 H   0  0  0  0  0  0  0  0  0  0  0  0  # atno 10718 bound_to 10713
  152.9853  135.6090  154.3172 H   0  0  0  0  0  0  0  0  0  0  0  0  # atno 10763 bound_to 10752
  154.2884  135.2775  155.2667 H   0  0  0  0  0  0  0  0  0  0  0  0  # atno 10764 bound_to 10752
  154.4974  135.5876  153.6561 H   0  0  0  0  0  0  0  0  0  0  0  0  # atno 10765 bound_to 10752
  140.4961  134.0792  155.7782 H   0  0  0  0  0  0  0  0  0  0  0  0  # atno 11005 bound_to 11000
  146.1283  140.7219  142.9424 LP  0  0  0  0  0  0  0  0  0  0  0  0  # atno 17320 bound_to 7965
  144.7159  140.4206  143.7045 LP  0  0  0  0  0  0  0  0  0  0  0  0  # atno 17321 bound_to 7965
  139.4867  144.4552  151.9607 LP  0  0  0  0  0  0  0  0  0  0  0  0  # atno 17342 bound_to 10162
  140.3641  144.2937  150.5929 LP  0  0  0  0  0  0  0  0  0  0  0  0  # atno 17343 bound_to 10162
  156.2764  130.7046  151.1858 LP  0  0  0  0  0  0  0  0  0  0  0  0  # atno 17370 bound_to 10713
  157.7360  131.0566  150.5437 LP  0  0  0  0  0  0  0  0  0  0  0  0  # atno 17371 bound_to 10713
  141.1459  133.9055  157.2215 LP  0  0  0  0  0  0  0  0  0  0  0  0  # atno 17394 bound_to 11000
  139.9740  135.0119  156.9585 LP  0  0  0  0  0  0  0  0  0  0  0  0  # atno 17395 bound_to 11000

$$$$
