AV-unprocessed.smi:1269|AV-procd|sdf|5330|dock9
  -GOLD-   22720 4463D 1   1.00000     0.00000
 Structure written by MMmdl.
 44 45  0  0  0  0  0  0  0  0  2 V2000
  135.6303  139.0669  152.0143 C   0  0  0  0  0  0  0  0  0  0  0  0
  136.3362  137.8878  152.3847 O   0  0  0  0  0  0  0  0  0  0  0  0
  137.7156  137.9179  152.3688 C   0  0  0  0  0  0  0  0  0  0  0  0
  138.4191  136.7281  152.6407 C   0  0  0  0  0  0  0  0  0  0  0  0
  139.8268  136.7497  152.6303 C   0  0  0  0  0  0  0  0  0  0  0  0
  140.4914  137.9663  152.3409 C   0  0  0  0  0  0  0  0  0  0  0  0
  141.9038  138.1360  152.3093 N   0  0  0  0  0  0  0  0  0  0  0  0
  142.8690  137.2165  152.1382 C   0  0  0  0  0  0  0  0  0  0  0  0
  142.6880  136.0169  151.9351 O   0  0  0  0  0  0  0  0  0  0  0  0
  144.0869  137.7726  152.2228 N   0  0  0  0  0  0  0  0  0  0  0  0
  145.3648  137.0742  152.0714 C   0  0  1  0  0  0  0  0  0  0  0  0
  146.5042  138.1013  152.1213 C   0  0  0  0  0  0  0  0  0  0  0  0
  145.5452  135.9850  153.1545 C   0  0  0  0  0  0  0  0  0  0  0  0
  146.4647  134.8956  152.7386 N   0  3  0  0  0  0  0  0  0  0  0  0
  146.8490  133.9887  153.8471 C   0  0  0  0  0  0  0  0  0  0  0  0
  147.8666  132.9487  153.3503 C   0  0  0  0  0  0  0  0  0  0  0  0
  147.3099  132.2218  152.2614 O   0  0  0  0  0  0  0  0  0  0  0  0
  147.0005  133.0652  151.1586 C   0  0  0  0  0  0  0  0  0  0  0  0
  145.9609  134.1162  151.5842 C   0  0  0  0  0  0  0  0  0  0  0  0
  139.6932  139.1015  152.0872 C   0  0  0  0  0  0  0  0  0  0  0  0
  138.3440  139.0879  152.0974 N   0  0  0  0  0  0  0  0  0  0  0  0
  134.5583  138.8803  152.0782 H   0  0  0  0  0  0  0  0  0  0  0  0
  135.8541  139.3605  150.9877 H   0  0  0  0  0  0  0  0  0  0  0  0
  135.8615  139.8969  152.6834 H   0  0  0  0  0  0  0  0  0  0  0  0
  137.8871  135.8134  152.8573 H   0  0  0  0  0  0  0  0  0  0  0  0
  140.3543  135.8367  152.8537 H   0  0  0  0  0  0  0  0  0  0  0  0
  142.2192  139.0892  152.4167 H   0  0  0  0  0  0  0  0  0  0  0  0
  144.1370  138.7676  152.3879 H   0  0  0  0  0  0  0  0  0  0  0  0
  145.4038  136.6096  151.0851 H   0  0  0  0  0  0  0  0  0  0  0  0
  147.4721  137.6205  151.9760 H   0  0  0  0  0  0  0  0  0  0  0  0
  146.5319  138.6206  153.0801 H   0  0  0  0  0  0  0  0  0  0  0  0
  146.3915  138.8526  151.3389 H   0  0  0  0  0  0  0  0  0  0  0  0
  145.8975  136.4231  154.0895 H   0  0  0  0  0  0  0  0  0  0  0  0
  144.5642  135.5594  153.3715 H   0  0  0  0  0  0  0  0  0  0  0  0
  147.2823  134.5555  154.6706 H   0  0  0  0  0  0  0  0  0  0  0  0
  145.9622  133.4866  154.2367 H   0  0  0  0  0  0  0  0  0  0  0  0
  148.7981  133.4293  153.0464 H   0  0  0  0  0  0  0  0  0  0  0  0
  148.1139  132.2518  154.1511 H   0  0  0  0  0  0  0  0  0  0  0  0
  147.9081  133.5442  150.7871 H   0  0  0  0  0  0  0  0  0  0  0  0
  146.6070  132.4546  150.3458 H   0  0  0  0  0  0  0  0  0  0  0  0
  145.0209  133.6304  151.8508 H   0  0  0  0  0  0  0  0  0  0  0  0
  145.7533  134.7836  150.7470 H   0  0  0  0  0  0  0  0  0  0  0  0
  140.1511  140.0552  151.8686 H   0  0  0  0  0  0  0  0  0  0  0  0
  147.3123  135.3467  152.4242 H   0  0  0  0  0  0  0  0  0  0  0  0
  1  2  1  0  0  0  0
  1 22  1  0  0  0  0
  1 23  1  0  0  0  0
  1 24  1  0  0  0  0
  2  3  1  0  0  0  0
  3 21  1  0  0  0  0
  3  4  2  0  0  0  0
  4  5  1  0  0  0  0
  4 25  1  0  0  0  0
  5  6  2  0  0  0  0
  5 26  1  0  0  0  0
  6  7  1  0  0  0  0
  6 20  1  0  0  0  0
  7  8  1  0  0  0  0
  7 27  1  0  0  0  0
  8  9  2  0  0  0  0
  8 10  1  0  0  0  0
 10 11  1  0  0  0  0
 10 28  1  0  0  0  0
 11 12  1  0  0  0  0
 11 13  1  0  0  0  0
 11 29  1  0  0  0  0
 12 30  1  0  0  0  0
 12 31  1  0  0  0  0
 12 32  1  0  0  0  0
 13 14  1  0  0  0  0
 13 33  1  0  0  0  0
 13 34  1  0  0  0  0
 14 19  1  0  0  0  0
 14 15  1  0  0  0  0
 14 44  1  0  0  0  0
 15 16  1  0  0  0  0
 15 35  1  0  0  0  0
 15 36  1  0  0  0  0
 16 17  1  0  0  0  0
 16 37  1  0  0  0  0
 16 38  1  0  0  0  0
 17 18  1  0  0  0  0
 18 19  1  0  0  0  0
 18 39  1  0  0  0  0
 18 40  1  0  0  0  0
 19 41  1  0  0  0  0
 19 42  1  0  0  0  0
 20 21  2  0  0  0  0
 20 43  1  0  0  0  0
M  CHG  1  14   1
M  END
> <s_m_source_file>
AV-unprocessed.smi

> <i_m_source_file_index>
1269

> <i_lp_mmshare_version>
43012

> <i_f3d_flags>
0

> <s_epik_input>
W0NIM11PYzFbY0hdW2NIXWMoW2NIXW4xKVtOSF1DKD1PKVtOSF1bQ0BIXShbQ0gzXSlbQ0gyXU4yW0NIMl1bQ0gyXU9bQ0gyXVtDSDJdMg==

> <s_epik_cmdline>
J2VwaWtfcHl0aG9uJywgJy1waCcsICc3LjAnLCAnLXRuJywgJzgnLCAnLW1hJywgJzIwMCcsICctbWV0YWxfYmluZGluZycsICctaW1hZScsICc8aW5maWxlLm1hZT4nLCAnLW9tYWUnLCAnPG91dGZpbGUubWFlPic=

> <r_lp_tautomer_probability>
1

> <r_epik_Ionization_Penalty>
0.602604

> <r_epik_Ionization_Penalty_Charging>
0.602531

> <r_epik_Ionization_Penalty_Neutral>
7.37831e-05

> <r_epik_State_Penalty>
0.617039

> <r_epik_Charging_Adjusted_Penalty>
1.21957

> <i_epik_Tot_Q>
1

> <i_epik_Tot_abs_Q>
1

> <r_epik_Metal_State_Penalty>
0.617045

> <b_epik_Metal_Only>
0

> <s_lp_Force_Field>
OPLS_2005

> <r_lp_Energy>
25.4329

> <b_lp_Chiralities_Consistent>
1

> <s_lp_Variant>
AV-unprocessed.smi:1269-4

> <Gold.Version>
5.8.1

> <Gold.Id.Protein>
6NUR|6NUR_protein|mol2

> <Gold.PLP.Fitness>
48.2962

> <Gold.PLP.PLP>
-34.1342

> <Gold.PLP.part.hbond>
-4.0000

> <Gold.PLP.part.metal>
0.0000

> <Gold.PLP.part.buried>
-2.8909

> <Gold.PLP.part.nonpolar>
-28.7535

> <Gold.PLP.part.repulsive>
0.7278

> <Gold.PLP.ligand.clash>
0.0000

> <Gold.PLP.ligand.torsion>
0.4316

> <Gold.PLP.Chemscore.Hbond>
4.0000

> <Gold.PLP.Chemscore.CHOScore>
0.9995

> <Gold.PLP.Chemscore.Metal>
0.0000

> <Gold.Chemscore.Hbonds>
donor molecule, donor type, donor heavy atom, donor atom, acceptor molecule, acceptor atom, score
      L1  H     7    27       P1 10175  1.00
      L1  H    10    28       P1 10175  1.00
      L1  H    14    44       P1  7948  2.00

> <Gold.PLP.Chemscore.Internal.Correction>
0.0265

> <Gold.Rescore>
     Score         DG    S(hbond)    S(metal)    S(lipo)     H(rot)  DE(clash)    DE(int)     intcor
     16.72     -18.82       2.92        0.00      69.64       1.78       0.70       1.39       ----

> <Gold.Chemscore.Fitness>
16.7240

> <Gold.Chemscore.DG>
-18.8157

> <Gold.Chemscore.ZeroCoef>
-5.4800

> <Gold.Chemscore.Hbond>
2.9177

> <Gold.Chemscore.Metal>
0.0000

> <Gold.Chemscore.Lipo>
69.6389

> <Gold.Chemscore.Internal_Hbond>
0.0000

> <Gold.Chemscore.DEClash>
0.6996

> <Gold.Chemscore.DEInternal>
1.3921

> <Gold.Chemscore.Rot>
1.7801

> <Gold.Chemscore.Internal.Correction>
   9.000000E+99

> <Gold.Chemscore.Hbonds>
donor molecule, donor type, donor heavy atom, donor atom, acceptor molecule, acceptor atom, score
      L1  H     7    27       P1 10175  0.79
      L1  H    10    28       P1 10175  0.99
      L1  H    14    44       P1  7948  1.00

> <Gold.Chemscore.Hbond.Weighted>
-9.7450

> <Gold.Chemscore.Metal.Weighted>
-0.0000

> <Gold.Chemscore.Lipo.Weighted>
-8.1478

> <Gold.Chemscore.Internal_Hbond.Weighted>
0.0000

> <Gold.Chemscore.DEClash.Weighted>
0.6996

> <Gold.Chemscore.DEInternal.Weighted>
1.3921

> <Gold.Chemscore.Rot.Weighted>
4.5570

> <Gold.Chemscore.Internal.Correction.Weighted>
   9.000000E+99

> <Gold.Protein.RotatedTorsions>
[ 6907 6896 6895 6894 ] final   32.08 input  -60.11 | X-H torsion
[ 7974 7965 7964 7962 ] final  111.40 input  175.53 | X-H torsion
[ 8008 7997 7996 7995 ] final -135.99 input   59.86 | X-H torsion
[ 10167 10162 10161 10158 ] final  156.09 input  -65.29 | X-H torsion
[ 10718 10713 10712 10709 ] final  100.91 input   66.30 | X-H torsion
[ 10763 10752 10751 10750 ] final   93.34 input  -60.55 | X-H torsion
[ 11005 11000 10999 10996 ] final  102.67 input  -57.11 | X-H torsion

> <Gold.Protein.ActiveResidues>
 VAL166  LYS551  ARG553  GLY616  TRP617  ASP618  TYR619  PRO620  LYS621  CYS622 
 ASP623  PHE694  ASN695  SER759  ASP760  ASP761  ALA762  ILE779  LEU786  VAL792 
 PHE793  MET794  SER795  GLU796  ALA797  LYS798  CYS799  TRP800  GLU811  SER814 

> <Gold.Protein.RotatedAtoms>
  152.0694  134.9543  160.0574 H   0  0  0  0  0  0  0  0  0  0  0  0  # atno 6907 bound_to 6896
  152.0875  133.4178  159.4537 H   0  0  0  0  0  0  0  0  0  0  0  0  # atno 6908 bound_to 6896
  150.6836  134.2830  159.4678 H   0  0  0  0  0  0  0  0  0  0  0  0  # atno 6909 bound_to 6896
  145.2427  139.2772  143.4109 H   0  0  0  0  0  0  0  0  0  0  0  0  # atno 7974 bound_to 7965
  155.3878  140.0498  157.3041 H   0  0  0  0  0  0  0  0  0  0  0  0  # atno 8008 bound_to 7997
  154.5051  140.2171  155.9229 H   0  0  0  0  0  0  0  0  0  0  0  0  # atno 8009 bound_to 7997
  156.1515  140.3135  155.8661 H   0  0  0  0  0  0  0  0  0  0  0  0  # atno 8010 bound_to 7997
  139.4821  144.5040  151.8125 H   0  0  0  0  0  0  0  0  0  0  0  0  # atno 10167 bound_to 10162
  157.6842  131.0711  150.5172 H   0  0  0  0  0  0  0  0  0  0  0  0  # atno 10718 bound_to 10713
  153.2293  135.4329  155.0577 H   0  0  0  0  0  0  0  0  0  0  0  0  # atno 10763 bound_to 10752
  154.8289  135.3375  154.6812 H   0  0  0  0  0  0  0  0  0  0  0  0  # atno 10764 bound_to 10752
  153.7239  135.7015  153.5062 H   0  0  0  0  0  0  0  0  0  0  0  0  # atno 10765 bound_to 10752
  139.8779  134.9233  156.5093 H   0  0  0  0  0  0  0  0  0  0  0  0  # atno 11005 bound_to 11000
  146.3324  140.2795  142.8609 LP  0  0  0  0  0  0  0  0  0  0  0  0  # atno 17320 bound_to 7965
  144.9574  140.8241  143.5534 LP  0  0  0  0  0  0  0  0  0  0  0  0  # atno 17321 bound_to 7965
  140.4536  144.1820  150.5899 LP  0  0  0  0  0  0  0  0  0  0  0  0  # atno 17342 bound_to 10162
  140.4558  143.2468  151.9286 LP  0  0  0  0  0  0  0  0  0  0  0  0  # atno 17343 bound_to 10162
  156.5487  130.4226  149.6118 LP  0  0  0  0  0  0  0  0  0  0  0  0  # atno 17370 bound_to 10713
  156.2921  130.7130  151.1981 LP  0  0  0  0  0  0  0  0  0  0  0  0  # atno 17371 bound_to 10713
  140.8532  133.8116  155.9190 LP  0  0  0  0  0  0  0  0  0  0  0  0  # atno 17394 bound_to 11000
  140.9123  134.2245  157.4978 LP  0  0  0  0  0  0  0  0  0  0  0  0  # atno 17395 bound_to 11000

$$$$
