AV-unprocessed.smi:781|AV-procd|sdf|3709|dock8
  -GOLD-   22720 1133D 1   1.00000     0.00000
 Structure written by MMmdl.
 38 40  0  0  0  0  0  0  0  0  1 V2000
  146.8364  133.8807  162.4413 C   0  0  0  0  0  0  0  0  0  0  0  0
  147.2739  134.9705  161.5235 C   0  0  0  0  0  0  0  0  0  0  0  0
  147.6022  134.9945  160.1971 C   0  0  0  0  0  0  0  0  0  0  0  0
  147.9248  136.3594  159.9720 C   0  0  0  0  0  0  0  0  0  0  0  0
  148.3283  136.8088  158.6890 N   0  0  0  0  0  0  0  0  0  0  0  0
  149.3319  137.6522  158.3932 C   0  0  0  0  0  0  0  0  0  0  0  0
  150.0696  138.1954  159.2160 O   0  0  0  0  0  0  0  0  0  0  0  0
  149.4327  137.8404  157.0703 N   0  0  0  0  0  0  0  0  0  0  0  0
  150.4181  138.7015  156.4203 C   0  0  2  0  0  0  0  0  0  0  0  0
  150.2156  140.2082  156.7220 C   0  0  2  0  0  0  0  0  0  0  0  0
  148.7598  140.6478  156.4564 C   0  0  0  0  0  0  0  0  0  0  0  0
  148.6596  140.5694  154.9215 C   0  0  0  0  0  0  0  0  0  0  0  0
  150.0789  140.1318  154.5089 C   0  0  1  0  0  0  0  0  0  0  0  0
  150.9328  140.8551  155.5440 C   0  0  0  0  0  0  0  0  0  0  0  0
  150.2844  138.6434  154.8752 C   0  0  1  0  0  0  0  0  0  0  0  0
  151.5074  138.0190  154.1764 C   0  0  0  0  0  0  0  0  0  0  0  0
  151.3711  136.6146  154.1200 O   0  0  0  0  0  0  0  0  0  0  0  0
  147.8048  137.1016  161.0622 N   0  0  0  0  0  0  0  0  0  0  0  0
  147.3870  136.2151  162.0620 O   0  0  0  0  0  0  0  0  0  0  0  0
  146.6883  132.9480  161.8969 H   0  0  0  0  0  0  0  0  0  0  0  0
  145.8963  134.1394  162.9288 H   0  0  0  0  0  0  0  0  0  0  0  0
  147.5831  133.7052  163.2159 H   0  0  0  0  0  0  0  0  0  0  0  0
  147.6095  134.1676  159.5027 H   0  0  0  0  0  0  0  0  0  0  0  0
  147.7985  136.4445  157.9111 H   0  0  0  0  0  0  0  0  0  0  0  0
  148.7856  137.3546  156.4670 H   0  0  0  0  0  0  0  0  0  0  0  0
  151.4226  138.4005  156.7242 H   0  0  0  0  0  0  0  0  0  0  0  0
  150.5876  140.5094  157.7021 H   0  0  0  0  0  0  0  0  0  0  0  0
  148.0176  140.0282  156.9594 H   0  0  0  0  0  0  0  0  0  0  0  0
  148.6055  141.6740  156.7928 H   0  0  0  0  0  0  0  0  0  0  0  0
  147.8949  139.8663  154.5898 H   0  0  0  0  0  0  0  0  0  0  0  0
  148.4166  141.5472  154.5040 H   0  0  0  0  0  0  0  0  0  0  0  0
  150.3154  140.3678  153.4709 H   0  0  0  0  0  0  0  0  0  0  0  0
  150.8239  141.9408  155.5131 H   0  0  0  0  0  0  0  0  0  0  0  0
  151.9934  140.6049  155.4923 H   0  0  0  0  0  0  0  0  0  0  0  0
  149.4008  138.0778  154.5733 H   0  0  0  0  0  0  0  0  0  0  0  0
  151.5928  138.3949  153.1565 H   0  0  0  0  0  0  0  0  0  0  0  0
  152.4351  138.2699  154.6908 H   0  0  0  0  0  0  0  0  0  0  0  0
  150.9389  136.3865  153.3110 H   0  0  0  0  0  0  0  0  0  0  0  0
  1  2  1  0  0  0  0
  1 20  1  0  0  0  0
  1 21  1  0  0  0  0
  1 22  1  0  0  0  0
  2 19  1  0  0  0  0
  2  3  2  0  0  0  0
  3  4  1  0  0  0  0
  3 23  1  0  0  0  0
  4  5  1  0  0  0  0
  4 18  2  0  0  0  0
  5  6  1  0  0  0  0
  5 24  1  0  0  0  0
  6  7  2  0  0  0  0
  6  8  1  0  0  0  0
  8  9  1  0  0  0  0
  8 25  1  0  0  0  0
  9 15  1  0  0  0  0
  9 10  1  0  0  0  0
  9 26  1  0  0  0  0
 10 14  1  0  0  0  0
 10 11  1  0  0  0  0
 10 27  1  0  0  0  0
 11 12  1  0  0  0  0
 11 28  1  0  0  0  0
 11 29  1  0  0  0  0
 12 13  1  0  0  0  0
 12 30  1  0  0  0  0
 12 31  1  0  0  0  0
 13 14  1  0  0  0  0
 13 15  1  0  0  0  0
 13 32  1  0  0  0  0
 14 33  1  0  0  0  0
 14 34  1  0  0  0  0
 15 16  1  0  0  0  0
 15 35  1  0  0  0  0
 16 17  1  0  0  0  0
 16 36  1  0  0  0  0
 16 37  1  0  0  0  0
 17 38  1  0  0  0  0
 18 19  1  0  0  0  0
M  END
> <s_m_source_file>
AV-unprocessed.smi

> <i_m_source_file_index>
781

> <i_lp_mmshare_version>
43012

> <i_f3d_flags>
0

> <s_epik_input>
W0NIM11jMVtjSF1jKG5vMSlbTkhdQyg9TylbTkhdW0NASF0oW0NAQEhdMjMpW0NASF0oW0NIMl1bT0hdKVtDQEBIXShbQ0gyXTMpW0NIMl1bQ0gyXTI=

> <s_epik_cmdline>
J2VwaWtfcHl0aG9uJywgJy1waCcsICc3LjAnLCAnLXRuJywgJzgnLCAnLW1hJywgJzIwMCcsICctbWV0YWxfYmluZGluZycsICctaW1hZScsICc8aW5maWxlLm1hZT4nLCAnLW9tYWUnLCAnPG91dGZpbGUubWFlPic=

> <r_lp_tautomer_probability>
1

> <r_epik_Ionization_Penalty>
2.32222e-05

> <r_epik_Ionization_Penalty_Charging>
0

> <r_epik_Ionization_Penalty_Neutral>
2.32222e-05

> <r_epik_State_Penalty>
-0

> <r_epik_Charging_Adjusted_Penalty>
0

> <i_epik_Tot_Q>
0

> <i_epik_Tot_abs_Q>
0

> <r_epik_Metal_State_Penalty>
-0

> <b_epik_Metal_Only>
0

> <s_lp_Force_Field>
OPLS_2005

> <r_lp_Energy>
46.3862

> <b_lp_Chiralities_Consistent>
1

> <s_lp_Variant>
AV-unprocessed.smi:781-3

> <Gold.Version>
5.8.1

> <Gold.Id.Protein>
6NUR|6NUR_protein|mol2

> <Gold.PLP.Fitness>
40.4820

> <Gold.PLP.PLP>
-30.2352

> <Gold.PLP.part.hbond>
-5.0000

> <Gold.PLP.part.metal>
0.0000

> <Gold.PLP.part.buried>
-2.1306

> <Gold.PLP.part.nonpolar>
-22.9077

> <Gold.PLP.part.repulsive>
0.1337

> <Gold.PLP.ligand.clash>
0.0000

> <Gold.PLP.ligand.torsion>
0.6454

> <Gold.PLP.Chemscore.Hbond>
3.8400

> <Gold.PLP.Chemscore.CHOScore>
0.0000

> <Gold.PLP.Chemscore.Metal>
0.0000

> <Gold.Chemscore.Hbonds>
donor molecule, donor type, donor heavy atom, donor atom, acceptor molecule, acceptor atom, score
      L1  H    17    38       P1  7949  0.78
      P1  H  6931  6943       L1    18  0.98
      P1  H  6934  6947       L1    18  0.83
      P1  H 10752 10764       L1    17  1.00

> <Gold.PLP.Chemscore.Internal.Correction>
0.0176

> <Gold.Rescore>
     Score         DG    S(hbond)    S(metal)    S(lipo)     H(rot)  DE(clash)    DE(int)     intcor
     15.97     -17.01       2.51        0.00      67.63       1.86       0.19       0.85       ----

> <Gold.Chemscore.Fitness>
15.9693

> <Gold.Chemscore.DG>
-17.0074

> <Gold.Chemscore.ZeroCoef>
-5.4800

> <Gold.Chemscore.Hbond>
2.5068

> <Gold.Chemscore.Metal>
0.0000

> <Gold.Chemscore.Lipo>
67.6324

> <Gold.Chemscore.Internal_Hbond>
0.0000

> <Gold.Chemscore.DEClash>
0.1869

> <Gold.Chemscore.DEInternal>
0.8512

> <Gold.Chemscore.Rot>
1.8587

> <Gold.Chemscore.Internal.Correction>
   9.000000E+99

> <Gold.Chemscore.Hbonds>
donor molecule, donor type, donor heavy atom, donor atom, acceptor molecule, acceptor atom, score
      L1  H    17    38       P1  7949  0.13
      P1  H  6931  6943       L1    18  0.47
      P1  H  6934  6947       L1    18  0.77
      P1  H 10752 10764       L1    17  0.81

> <Gold.Chemscore.Hbond.Weighted>
-8.3727

> <Gold.Chemscore.Metal.Weighted>
-0.0000

> <Gold.Chemscore.Lipo.Weighted>
-7.9130

> <Gold.Chemscore.Internal_Hbond.Weighted>
0.0000

> <Gold.Chemscore.DEClash.Weighted>
0.1869

> <Gold.Chemscore.DEInternal.Weighted>
0.8512

> <Gold.Chemscore.Rot.Weighted>
4.7583

> <Gold.Chemscore.Internal.Correction.Weighted>
   9.000000E+99

> <Gold.Protein.RotatedTorsions>
[ 6907 6896 6895 6894 ] final  163.46 input  -60.11 | X-H torsion
[ 7974 7965 7964 7962 ] final    1.20 input  175.53 | X-H torsion
[ 8008 7997 7996 7995 ] final -141.17 input   59.86 | X-H torsion
[ 10167 10162 10161 10158 ] final  -80.15 input  -65.29 | X-H torsion
[ 10718 10713 10712 10709 ] final   25.02 input   66.30 | X-H torsion
[ 10763 10752 10751 10750 ] final  -66.08 input  -60.55 | X-H torsion
[ 11005 11000 10999 10996 ] final  -34.40 input  -57.11 | X-H torsion

> <Gold.Protein.ActiveResidues>
 VAL166  LYS551  ARG553  GLY616  TRP617  ASP618  TYR619  PRO620  LYS621  CYS622 
 ASP623  PHE694  ASN695  SER759  ASP760  ASP761  ALA762  ILE779  LEU786  VAL792 
 PHE793  MET794  SER795  GLU796  ALA797  LYS798  CYS799  TRP800  GLU811  SER814 

> <Gold.Protein.RotatedAtoms>
  151.9249  133.3595  159.3909 H   0  0  0  0  0  0  0  0  0  0  0  0  # atno 6907 bound_to 6896
  150.7029  134.4597  159.5384 H   0  0  0  0  0  0  0  0  0  0  0  0  # atno 6908 bound_to 6896
  152.2228  134.8397  160.0534 H   0  0  0  0  0  0  0  0  0  0  0  0  # atno 6909 bound_to 6896
  146.2439  140.1023  142.8347 H   0  0  0  0  0  0  0  0  0  0  0  0  # atno 7974 bound_to 7965
  155.4733  140.0554  157.2977 H   0  0  0  0  0  0  0  0  0  0  0  0  # atno 8008 bound_to 7997
  154.4689  140.2031  155.9998 H   0  0  0  0  0  0  0  0  0  0  0  0  # atno 8009 bound_to 7997
  156.1023  140.3217  155.7963 H   0  0  0  0  0  0  0  0  0  0  0  0  # atno 8010 bound_to 7997
  140.4529  143.2477  151.8463 H   0  0  0  0  0  0  0  0  0  0  0  0  # atno 10167 bound_to 10162
  157.1877  130.6832  149.6138 H   0  0  0  0  0  0  0  0  0  0  0  0  # atno 10718 bound_to 10713
  154.3546  135.6129  153.5659 H   0  0  0  0  0  0  0  0  0  0  0  0  # atno 10763 bound_to 10752
  152.9796  135.5800  154.4704 H   0  0  0  0  0  0  0  0  0  0  0  0  # atno 10764 bound_to 10752
  154.4431  135.2850  155.1811 H   0  0  0  0  0  0  0  0  0  0  0  0  # atno 10765 bound_to 10752
  140.9713  133.7108  156.1528 H   0  0  0  0  0  0  0  0  0  0  0  0  # atno 11005 bound_to 11000
  145.0558  140.9051  143.4968 LP  0  0  0  0  0  0  0  0  0  0  0  0  # atno 17320 bound_to 7965
  145.1129  139.2745  143.5628 LP  0  0  0  0  0  0  0  0  0  0  0  0  # atno 17321 bound_to 7965
  139.4798  144.5099  151.8947 LP  0  0  0  0  0  0  0  0  0  0  0  0  # atno 17342 bound_to 10162
  140.4186  144.2274  150.5887 LP  0  0  0  0  0  0  0  0  0  0  0  0  # atno 17343 bound_to 10162
  155.9716  130.4625  150.6148 LP  0  0  0  0  0  0  0  0  0  0  0  0  # atno 17370 bound_to 10713
  157.3891  131.0793  151.1410 LP  0  0  0  0  0  0  0  0  0  0  0  0  # atno 17371 bound_to 10713
  140.7325  134.4239  157.5564 LP  0  0  0  0  0  0  0  0  0  0  0  0  # atno 17394 bound_to 11000
  139.8913  134.8782  156.2325 LP  0  0  0  0  0  0  0  0  0  0  0  0  # atno 17395 bound_to 11000

$$$$
