AV-unprocessed.smi:28|AV-procd|sdf|189|dock5
  -GOLD-   2262015453D 1   1.00000     0.00000
 Structure written by MMmdl.
 41 44  0  0  0  0  0  0  0  0  1 V2000
  150.1385  139.6464  155.7592 O   0  0  0  0  0  0  0  0  0  0  0  0
  149.7930  138.9503  156.7154 C   0  0  0  0  0  0  0  0  0  0  0  0
  148.3998  138.7552  157.1018 C   0  0  0  0  0  0  0  0  0  0  0  0
  147.4244  139.3412  156.3872 F   0  0  0  0  0  0  0  0  0  0  0  0
  148.0704  137.9978  158.1706 C   0  0  0  0  0  0  0  0  0  0  0  0
  149.0107  137.3597  158.9637 N   0  0  0  0  0  0  0  0  0  0  0  0
  148.6187  136.5353  160.1726 C   0  0  2  0  0  0  0  0  0  0  0  0
  147.7832  135.3116  159.7490 C   0  0  0  0  0  0  0  0  0  0  0  0
  146.5595  135.4158  160.6377 C   0  0  0  0  0  0  0  0  0  0  0  0
  146.4587  136.9169  160.8619 C   0  0  0  0  0  0  0  0  0  0  0  0
  147.8177  137.2980  161.0302 O   0  0  0  0  0  0  0  0  0  0  0  0
  150.3843  137.4998  158.6675 C   0  0  0  0  0  0  0  0  0  0  0  0
  151.2388  136.9625  159.3762 O   0  0  0  0  0  0  0  0  0  0  0  0
  150.7309  138.2810  157.5398 N   0  0  0  0  0  0  0  0  0  0  0  0
  152.1433  138.4574  157.2454 C   0  0  0  0  0  0  0  0  0  0  0  0
  152.7185  139.5433  158.0989 C   0  0  0  0  0  0  0  0  0  0  0  0
  153.8821  139.5334  158.7517 N   0  0  0  0  0  0  0  0  0  0  0  0
  153.9721  140.7586  159.3720 N   0  0  0  0  0  0  0  0  0  0  0  0
  152.8595  141.4231  159.0433 C   0  0  0  0  0  0  0  0  0  0  0  0
  152.4377  142.7623  159.4381 C   0  0  0  0  0  0  0  0  0  0  0  0
  152.6150  143.1586  160.7819 C   0  0  0  0  0  0  0  0  0  0  0  0
  152.2211  144.4413  161.2075 C   0  0  0  0  0  0  0  0  0  0  0  0
  151.6400  145.3372  160.2919 C   0  0  0  0  0  0  0  0  0  0  0  0
  151.4479  144.9457  158.9538 C   0  0  0  0  0  0  0  0  0  0  0  0
  151.8392  143.6625  158.5213 C   0  0  0  0  0  0  0  0  0  0  0  0
  151.5093  143.1818  156.7051 Br  0  0  0  0  0  0  0  0  0  0  0  0
  152.0228  140.6990  158.2538 O   0  0  0  0  0  0  0  0  0  0  0  0
  147.0205  137.9027  158.4013 H   0  0  0  0  0  0  0  0  0  0  0  0
  149.5552  136.2863  160.6748 H   0  0  0  0  0  0  0  0  0  0  0  0
  147.4984  135.3919  158.6985 H   0  0  0  0  0  0  0  0  0  0  0  0
  148.3424  134.3869  159.8954 H   0  0  0  0  0  0  0  0  0  0  0  0
  145.6639  134.9898  160.1849 H   0  0  0  0  0  0  0  0  0  0  0  0
  146.7399  134.9083  161.5862 H   0  0  0  0  0  0  0  0  0  0  0  0
  146.0327  137.4127  159.9883 H   0  0  0  0  0  0  0  0  0  0  0  0
  145.8578  137.1754  161.7339 H   0  0  0  0  0  0  0  0  0  0  0  0
  152.6559  137.5087  157.4127 H   0  0  0  0  0  0  0  0  0  0  0  0
  152.2605  138.6855  156.1850 H   0  0  0  0  0  0  0  0  0  0  0  0
  153.0627  142.4795  161.4932 H   0  0  0  0  0  0  0  0  0  0  0  0
  152.3656  144.7374  162.2362 H   0  0  0  0  0  0  0  0  0  0  0  0
  151.3368  146.3217  160.6162 H   0  0  0  0  0  0  0  0  0  0  0  0
  150.9917  145.6322  158.2557 H   0  0  0  0  0  0  0  0  0  0  0  0
  1  2  2  0  0  0  0
  2 14  1  0  0  0  0
  2  3  1  0  0  0  0
  3  4  1  0  0  0  0
  3  5  2  0  0  0  0
  5  6  1  0  0  0  0
  5 28  1  0  0  0  0
  6  7  1  0  0  0  0
  6 12  1  0  0  0  0
  7 11  1  0  0  0  0
  7  8  1  0  0  0  0
  7 29  1  0  0  0  0
  8  9  1  0  0  0  0
  8 30  1  0  0  0  0
  8 31  1  0  0  0  0
  9 10  1  0  0  0  0
  9 32  1  0  0  0  0
  9 33  1  0  0  0  0
 10 11  1  0  0  0  0
 10 34  1  0  0  0  0
 10 35  1  0  0  0  0
 12 13  2  0  0  0  0
 12 14  1  0  0  0  0
 14 15  1  0  0  0  0
 15 16  1  0  0  0  0
 15 36  1  0  0  0  0
 15 37  1  0  0  0  0
 16 27  1  0  0  0  0
 16 17  2  0  0  0  0
 17 18  1  0  0  0  0
 18 19  2  0  0  0  0
 19 20  1  0  0  0  0
 19 27  1  0  0  0  0
 20 25  1  0  0  0  0
 20 21  2  0  0  0  0
 21 22  1  0  0  0  0
 21 38  1  0  0  0  0
 22 23  2  0  0  0  0
 22 39  1  0  0  0  0
 23 24  1  0  0  0  0
 23 40  1  0  0  0  0
 24 25  2  0  0  0  0
 24 41  1  0  0  0  0
 25 26  1  0  0  0  0
M  END
> <s_m_source_file>
AV-unprocessed.smi

> <i_m_source_file_index>
28

> <i_lp_mmshare_version>
43012

> <i_f3d_flags>
0

> <s_epik_input>
TzFbQ0gyXVtDSDJdW0NIMl1bQ0BIXTFuKFtjSF1jKEYpYzI9TyljKD1PKW4yW0NIMl1jM25uYyhvMyktYzRbY0hdW2NIXVtjSF1bY0hdYzRCcg==

> <s_epik_cmdline>
J2VwaWtfcHl0aG9uJywgJy1waCcsICc3LjAnLCAnLXRuJywgJzgnLCAnLW1hJywgJzIwMCcsICctbWV0YWxfYmluZGluZycsICctaW1hZScsICc8aW5maWxlLm1hZT4nLCAnLW9tYWUnLCAnPG91dGZpbGUubWFlPic=

> <r_lp_tautomer_probability>
1

> <r_epik_Ionization_Penalty>
2.5628e-09

> <r_epik_Ionization_Penalty_Charging>
2.54231e-09

> <r_epik_Ionization_Penalty_Neutral>
2.0492e-11

> <r_epik_State_Penalty>
-0

> <r_epik_Charging_Adjusted_Penalty>
2.54231e-09

> <i_epik_Tot_Q>
0

> <i_epik_Tot_abs_Q>
0

> <r_epik_Metal_State_Penalty>
-0

> <b_epik_Metal_Only>
0

> <s_epik_Chemistry_Notes>
This compound contains an acetal/aminal-like group ( X-CH(R)-Y where X, Y are N, S, or O) that may be acid/base labile, releasing an aldehyde.

> <s_lp_Force_Field>
OPLS_2005

> <r_lp_Energy>
34.3922

> <b_lp_Chiralities_Consistent>
1

> <s_lp_Variant>
AV-unprocessed.smi:28-1

> <Gold.Version>
5.8.1

> <Gold.Id.Protein>
6NUR|6NUR_protein|mol2

> <Gold.PLP.Fitness>
49.9771

> <Gold.PLP.PLP>
-44.3599

> <Gold.PLP.part.hbond>
-4.0053

> <Gold.PLP.part.metal>
0.0000

> <Gold.PLP.part.buried>
-4.9369

> <Gold.PLP.part.nonpolar>
-36.4402

> <Gold.PLP.part.repulsive>
0.0000

> <Gold.PLP.ligand.clash>
0.0000

> <Gold.PLP.ligand.torsion>
1.2652

> <Gold.PLP.Chemscore.Hbond>
2.7075

> <Gold.PLP.Chemscore.CHOScore>
0.0000

> <Gold.PLP.Chemscore.Metal>
0.0000

> <Gold.Chemscore.Hbonds>
donor molecule, donor type, donor heavy atom, donor atom, acceptor molecule, acceptor atom, score
      P1  H  6896  6908       L1    13  0.98
      P1  H  6931  6943       L1    11  0.86
      P1  H  6934  6947       L1    11  0.24
      P1  H  7997  8009       L1    17  0.44

> <Gold.PLP.Chemscore.Internal.Correction>
0.0251

> <Gold.Rescore>
     Score         DG    S(hbond)    S(metal)    S(lipo)     H(rot)  DE(clash)    DE(int)     intcor
     16.61     -18.96       1.72        0.00     103.40       1.70       0.38       1.97       ----

> <Gold.Chemscore.Fitness>
16.6099

> <Gold.Chemscore.DG>
-18.9597

> <Gold.Chemscore.ZeroCoef>
-5.4800

> <Gold.Chemscore.Hbond>
1.7153

> <Gold.Chemscore.Metal>
0.0000

> <Gold.Chemscore.Lipo>
103.3961

> <Gold.Chemscore.Internal_Hbond>
0.0000

> <Gold.Chemscore.DEClash>
0.3829

> <Gold.Chemscore.DEInternal>
1.9669

> <Gold.Chemscore.Rot>
1.6980

> <Gold.Chemscore.Internal.Correction>
   9.000000E+99

> <Gold.Chemscore.Hbonds>
donor molecule, donor type, donor heavy atom, donor atom, acceptor molecule, acceptor atom, score
      P1  H  6896  6908       L1    13  0.90
      P1  H  6931  6943       L1    11  0.30

> <Gold.Chemscore.Hbond.Weighted>
-5.7292

> <Gold.Chemscore.Metal.Weighted>
-0.0000

> <Gold.Chemscore.Lipo.Weighted>
-12.0973

> <Gold.Chemscore.Internal_Hbond.Weighted>
0.0000

> <Gold.Chemscore.DEClash.Weighted>
0.3829

> <Gold.Chemscore.DEInternal.Weighted>
1.9669

> <Gold.Chemscore.Rot.Weighted>
4.3469

> <Gold.Chemscore.Internal.Correction.Weighted>
   9.000000E+99

> <Gold.Protein.RotatedTorsions>
[ 6907 6896 6895 6894 ] final -151.98 input  -60.11 | X-H torsion
[ 7974 7965 7964 7962 ] final -137.14 input  175.53 | X-H torsion
[ 8008 7997 7996 7995 ] final  139.50 input   59.86 | X-H torsion
[ 10167 10162 10161 10158 ] final -170.97 input  -65.29 | X-H torsion
[ 10718 10713 10712 10709 ] final   71.23 input   66.30 | X-H torsion
[ 10763 10752 10751 10750 ] final  -55.08 input  -60.55 | X-H torsion
[ 11005 11000 10999 10996 ] final  162.95 input  -57.11 | X-H torsion

> <Gold.Protein.ActiveResidues>
 VAL166  LYS551  ARG553  GLY616  TRP617  ASP618  TYR619  PRO620  LYS621  CYS622 
 ASP623  PHE694  ASN695  SER759  ASP760  ASP761  ALA762  ILE779  LEU786  VAL792 
 PHE793  MET794  SER795  GLU796  ALA797  LYS798  CYS799  TRP800  GLU811  SER814 

> <Gold.Protein.RotatedAtoms>
  151.2210  133.4502  159.2600 H   0  0  0  0  0  0  0  0  0  0  0  0  # atno 6907 bound_to 6896
  151.0885  134.9901  159.8401 H   0  0  0  0  0  0  0  0  0  0  0  0  # atno 6908 bound_to 6896
  152.5432  134.2145  159.8816 H   0  0  0  0  0  0  0  0  0  0  0  0  # atno 6909 bound_to 6896
  144.8867  140.6584  143.5171 H   0  0  0  0  0  0  0  0  0  0  0  0  # atno 7974 bound_to 7965
  156.2989  140.2366  156.4248 H   0  0  0  0  0  0  0  0  0  0  0  0  # atno 8008 bound_to 7997
  154.8323  140.0432  157.1505 H   0  0  0  0  0  0  0  0  0  0  0  0  # atno 8009 bound_to 7997
  154.9194  140.3001  155.5228 H   0  0  0  0  0  0  0  0  0  0  0  0  # atno 8010 bound_to 7997
  139.5830  144.1381  152.1539 H   0  0  0  0  0  0  0  0  0  0  0  0  # atno 10167 bound_to 10162
  157.6441  130.9518  150.0760 H   0  0  0  0  0  0  0  0  0  0  0  0  # atno 10718 bound_to 10713
  154.1851  135.6437  153.5044 H   0  0  0  0  0  0  0  0  0  0  0  0  # atno 10763 bound_to 10752
  153.0049  135.5415  154.6474 H   0  0  0  0  0  0  0  0  0  0  0  0  # atno 10764 bound_to 10752
  154.5848  135.2928  155.0668 H   0  0  0  0  0  0  0  0  0  0  0  0  # atno 10765 bound_to 10752
  140.2309  134.8125  157.3316 H   0  0  0  0  0  0  0  0  0  0  0  0  # atno 11005 bound_to 11000
  145.3857  139.1627  143.4256 LP  0  0  0  0  0  0  0  0  0  0  0  0  # atno 17320 bound_to 7965
  146.3028  140.3941  142.8698 LP  0  0  0  0  0  0  0  0  0  0  0  0  # atno 17321 bound_to 7965
  140.0939  144.5597  150.7036 LP  0  0  0  0  0  0  0  0  0  0  0  0  # atno 17342 bound_to 10162
  140.7105  143.2502  151.4594 LP  0  0  0  0  0  0  0  0  0  0  0  0  # atno 17343 bound_to 10162
  156.1750  130.3648  149.9112 LP  0  0  0  0  0  0  0  0  0  0  0  0  # atno 17370 bound_to 10713
  156.7078  130.8958  151.3606 LP  0  0  0  0  0  0  0  0  0  0  0  0  # atno 17371 bound_to 10713
  140.1752  134.4559  155.7806 LP  0  0  0  0  0  0  0  0  0  0  0  0  # atno 17394 bound_to 11000
  141.2218  133.6959  156.7774 LP  0  0  0  0  0  0  0  0  0  0  0  0  # atno 17395 bound_to 11000

$$$$
