AV-unprocessed.smi:1088|AV-procd|sdf|4733|dock7
  -GOLD-   22720 3273D 1   1.00000     0.00000
 Structure written by MMmdl.
 47 48  0  0  0  0  0  0  0  0  1 V2000
  139.6013  136.6036  153.7915 C   0  0  0  0  0  0  0  0  0  0  0  0
  140.9609  136.8072  153.4507 O   0  0  0  0  0  0  0  0  0  0  0  0
  141.7086  135.6018  153.4518 C   0  0  0  0  0  0  0  0  0  0  0  0
  143.2039  135.9011  153.2609 C   0  0  0  0  0  0  0  0  0  0  0  0
  144.0419  134.7361  152.9661 N   0  0  0  0  0  0  0  0  0  0  0  0
  143.5877  133.9894  151.8049 C   0  0  0  0  0  0  0  0  0  0  0  0
  144.7611  133.1115  151.3670 C   0  0  0  0  0  0  0  0  0  0  0  0
  145.9816  133.7806  152.0095 C   0  0  0  0  0  0  0  0  0  0  0  0
  145.4268  135.0657  152.6403 C   0  0  2  0  0  0  0  0  0  0  0  0
  146.2978  135.5402  153.8227 C   0  0  0  0  0  0  0  0  0  0  0  0
  147.0209  136.7632  153.4924 N   0  0  0  0  0  0  0  0  0  0  0  0
  147.0524  137.8762  154.2395 C   0  0  0  0  0  0  0  0  0  0  0  0
  146.5079  137.9727  155.3398 O   0  0  0  0  0  0  0  0  0  0  0  0
  147.8314  139.0588  153.6497 C   0  0  0  0  0  0  0  0  0  0  0  0
  149.0877  139.3205  154.3631 N   0  0  0  0  0  0  0  0  0  0  0  0
  150.0386  138.3216  154.4659 C   0  0  0  0  0  0  0  0  0  0  0  0
  151.2101  138.4734  155.1211 C   0  0  0  0  0  0  0  0  0  0  0  0
  151.5466  139.7340  155.7716 C   0  0  0  0  0  0  0  0  0  0  0  0
  152.5922  139.9074  156.3989 O   0  0  0  0  0  0  0  0  0  0  0  0
  150.5649  140.7448  155.6359 N   0  0  0  0  0  0  0  0  0  0  0  0
  150.8047  142.0257  156.2682 C   0  0  0  0  0  0  0  0  0  0  0  0
  149.3340  140.5746  154.9631 C   0  0  0  0  0  0  0  0  0  0  0  0
  148.4941  141.4763  154.9007 O   0  0  0  0  0  0  0  0  0  0  0  0
  139.0750  137.5581  153.7833 H   0  0  0  0  0  0  0  0  0  0  0  0
  139.5036  136.1739  154.7892 H   0  0  0  0  0  0  0  0  0  0  0  0
  139.1110  135.9432  153.0753 H   0  0  0  0  0  0  0  0  0  0  0  0
  141.5643  135.0973  154.4085 H   0  0  0  0  0  0  0  0  0  0  0  0
  141.3560  134.9240  152.6727 H   0  0  0  0  0  0  0  0  0  0  0  0
  143.3363  136.6712  152.4997 H   0  0  0  0  0  0  0  0  0  0  0  0
  143.5427  136.3404  154.1963 H   0  0  0  0  0  0  0  0  0  0  0  0
  142.7011  133.3962  152.0303 H   0  0  0  0  0  0  0  0  0  0  0  0
  143.3321  134.6763  150.9960 H   0  0  0  0  0  0  0  0  0  0  0  0
  144.6467  132.0917  151.7361 H   0  0  0  0  0  0  0  0  0  0  0  0
  144.8391  133.0703  150.2803 H   0  0  0  0  0  0  0  0  0  0  0  0
  146.3972  133.1228  152.7748 H   0  0  0  0  0  0  0  0  0  0  0  0
  146.7705  133.9889  151.2861 H   0  0  0  0  0  0  0  0  0  0  0  0
  145.4355  135.8309  151.8613 H   0  0  0  0  0  0  0  0  0  0  0  0
  145.6890  135.6439  154.7227 H   0  0  0  0  0  0  0  0  0  0  0  0
  147.0532  134.7867  154.0483 H   0  0  0  0  0  0  0  0  0  0  0  0
  147.5036  136.7773  152.6058 H   0  0  0  0  0  0  0  0  0  0  0  0
  148.0336  138.8421  152.6001 H   0  0  0  0  0  0  0  0  0  0  0  0
  147.2103  139.9566  153.6517 H   0  0  0  0  0  0  0  0  0  0  0  0
  149.8342  137.3662  154.0052 H   0  0  0  0  0  0  0  0  0  0  0  0
  151.9064  137.6490  155.1688 H   0  0  0  0  0  0  0  0  0  0  0  0
  150.4167  142.8161  155.6234 H   0  0  0  0  0  0  0  0  0  0  0  0
  151.8752  142.1895  156.3953 H   0  0  0  0  0  0  0  0  0  0  0  0
  150.2897  142.0051  157.2298 H   0  0  0  0  0  0  0  0  0  0  0  0
  1  2  1  0  0  0  0
  1 24  1  0  0  0  0
  1 25  1  0  0  0  0
  1 26  1  0  0  0  0
  2  3  1  0  0  0  0
  3  4  1  0  0  0  0
  3 27  1  0  0  0  0
  3 28  1  0  0  0  0
  4  5  1  0  0  0  0
  4 29  1  0  0  0  0
  4 30  1  0  0  0  0
  5  9  1  0  0  0  0
  5  6  1  0  0  0  0
  6  7  1  0  0  0  0
  6 31  1  0  0  0  0
  6 32  1  0  0  0  0
  7  8  1  0  0  0  0
  7 33  1  0  0  0  0
  7 34  1  0  0  0  0
  8  9  1  0  0  0  0
  8 35  1  0  0  0  0
  8 36  1  0  0  0  0
  9 10  1  0  0  0  0
  9 37  1  0  0  0  0
 10 11  1  0  0  0  0
 10 38  1  0  0  0  0
 10 39  1  0  0  0  0
 11 12  1  0  0  0  0
 11 40  1  0  0  0  0
 12 13  2  0  0  0  0
 12 14  1  0  0  0  0
 14 15  1  0  0  0  0
 14 41  1  0  0  0  0
 14 42  1  0  0  0  0
 15 22  1  0  0  0  0
 15 16  1  0  0  0  0
 16 17  2  0  0  0  0
 16 43  1  0  0  0  0
 17 18  1  0  0  0  0
 17 44  1  0  0  0  0
 18 19  2  0  0  0  0
 18 20  1  0  0  0  0
 20 21  1  0  0  0  0
 20 22  1  0  0  0  0
 21 45  1  0  0  0  0
 21 46  1  0  0  0  0
 21 47  1  0  0  0  0
 22 23  2  0  0  0  0
M  END
> <s_m_source_file>
AV-unprocessed.smi

> <i_m_source_file_index>
1088

> <i_lp_mmshare_version>
43012

> <i_f3d_flags>
0

> <s_epik_input>
W0NIM11PW0NIMl1bQ0gyXU4xW0NIMl1bQ0gyXVtDSDJdW0NASF0xW0NIMl1bTkhdQyg9TylbQ0gyXW4yW2NIXVtjSF1jKD1PKW4oW0NIM10pYzI9Tw==

> <s_epik_cmdline>
J2VwaWtfcHl0aG9uJywgJy1waCcsICc3LjAnLCAnLXRuJywgJzgnLCAnLW1hJywgJzIwMCcsICctbWV0YWxfYmluZGluZycsICctaW1hZScsICc8aW5maWxlLm1hZT4nLCAnLW9tYWUnLCAnPG91dGZpbGUubWFlPic=

> <r_lp_tautomer_probability>
1

> <r_epik_Ionization_Penalty>
2.28131

> <r_epik_Ionization_Penalty_Charging>
1.22971e-08

> <r_epik_Ionization_Penalty_Neutral>
2.28131

> <r_epik_State_Penalty>
2.43063

> <r_epik_Charging_Adjusted_Penalty>
2.43063

> <i_epik_Tot_Q>
0

> <i_epik_Tot_abs_Q>
0

> <r_epik_Metal_State_Penalty>
2.43056

> <b_epik_Metal_Only>
0

> <s_lp_Force_Field>
OPLS_2005

> <r_lp_Energy>
54.0247

> <b_lp_Chiralities_Consistent>
1

> <s_lp_Variant>
AV-unprocessed.smi:1088-6

> <Gold.Version>
5.8.1

> <Gold.Id.Protein>
6NUR|6NUR_protein|mol2

> <Gold.PLP.Fitness>
44.8150

> <Gold.PLP.PLP>
-38.3702

> <Gold.PLP.part.hbond>
-2.0000

> <Gold.PLP.part.metal>
0.0000

> <Gold.PLP.part.buried>
-5.4418

> <Gold.PLP.part.nonpolar>
-31.8925

> <Gold.PLP.part.repulsive>
0.3889

> <Gold.PLP.ligand.clash>
0.0000

> <Gold.PLP.ligand.torsion>
0.9167

> <Gold.PLP.Chemscore.Hbond>
1.7360

> <Gold.PLP.Chemscore.CHOScore>
1.0000

> <Gold.PLP.Chemscore.Metal>
0.0000

> <Gold.Chemscore.Hbonds>
donor molecule, donor type, donor heavy atom, donor atom, acceptor molecule, acceptor atom, score
      L1  H    11    40       P1  7948  0.85
      P1  H  7997  8008       L1    19  1.00
      L1  C    16    43       P1  7948  0.96

> <Gold.PLP.Chemscore.Internal.Correction>
0.0702

> <Gold.Rescore>
     Score         DG    S(hbond)    S(metal)    S(lipo)     H(rot)  DE(clash)    DE(int)     intcor
     12.25     -13.22       1.91        0.00      66.32       2.49       0.03       0.95       ----

> <Gold.Chemscore.Fitness>
12.2485

> <Gold.Chemscore.DG>
-13.2249

> <Gold.Chemscore.ZeroCoef>
-5.4800

> <Gold.Chemscore.Hbond>
1.9070

> <Gold.Chemscore.Metal>
0.0000

> <Gold.Chemscore.Lipo>
66.3222

> <Gold.Chemscore.Internal_Hbond>
0.0000

> <Gold.Chemscore.DEClash>
0.0287

> <Gold.Chemscore.DEInternal>
0.9477

> <Gold.Chemscore.Rot>
2.4938

> <Gold.Chemscore.Internal.Correction>
   9.000000E+99

> <Gold.Chemscore.Hbonds>
donor molecule, donor type, donor heavy atom, donor atom, acceptor molecule, acceptor atom, score
      L1  H    11    40       P1  7948  0.83
      P1  H  7997  8008       L1    19  1.00

> <Gold.Chemscore.Hbond.Weighted>
-6.3692

> <Gold.Chemscore.Metal.Weighted>
-0.0000

> <Gold.Chemscore.Lipo.Weighted>
-7.7597

> <Gold.Chemscore.Internal_Hbond.Weighted>
0.0000

> <Gold.Chemscore.DEClash.Weighted>
0.0287

> <Gold.Chemscore.DEInternal.Weighted>
0.9477

> <Gold.Chemscore.Rot.Weighted>
6.3841

> <Gold.Chemscore.Internal.Correction.Weighted>
   9.000000E+99

> <Gold.Protein.RotatedTorsions>
[ 6907 6896 6895 6894 ] final   89.83 input  -60.11 | X-H torsion
[ 7974 7965 7964 7962 ] final   39.42 input  175.53 | X-H torsion
[ 8008 7997 7996 7995 ] final  -36.36 input   59.86 | X-H torsion
[ 10167 10162 10161 10158 ] final  160.86 input  -65.29 | X-H torsion
[ 10718 10713 10712 10709 ] final   78.37 input   66.30 | X-H torsion
[ 10763 10752 10751 10750 ] final  -44.66 input  -60.55 | X-H torsion
[ 11005 11000 10999 10996 ] final   33.91 input  -57.11 | X-H torsion

> <Gold.Protein.ActiveResidues>
 VAL166  LYS551  ARG553  GLY616  TRP617  ASP618  TYR619  PRO620  LYS621  CYS622 
 ASP623  PHE694  ASN695  SER759  ASP760  ASP761  ALA762  ILE779  LEU786  VAL792 
 PHE793  MET794  SER795  GLU796  ALA797  LYS798  CYS799  TRP800  GLU811  SER814 

> <Gold.Protein.RotatedAtoms>
  152.5440  134.1906  159.8671 H   0  0  0  0  0  0  0  0  0  0  0  0  # atno 6907 bound_to 6896
  151.1901  133.4665  159.2602 H   0  0  0  0  0  0  0  0  0  0  0  0  # atno 6908 bound_to 6896
  151.1091  135.0028  159.8541 H   0  0  0  0  0  0  0  0  0  0  0  0  # atno 6909 bound_to 6896
  146.0986  139.5654  142.9429 H   0  0  0  0  0  0  0  0  0  0  0  0  # atno 7974 bound_to 7965
  154.4075  140.1633  156.2361 H   0  0  0  0  0  0  0  0  0  0  0  0  # atno 8008 bound_to 7997
  155.9241  140.3419  155.6174 H   0  0  0  0  0  0  0  0  0  0  0  0  # atno 8009 bound_to 7997
  155.7186  140.0765  157.2331 H   0  0  0  0  0  0  0  0  0  0  0  0  # atno 8010 bound_to 7997
  139.4844  144.4593  151.8727 H   0  0  0  0  0  0  0  0  0  0  0  0  # atno 10167 bound_to 10162
  157.6742  130.9865  150.1776 H   0  0  0  0  0  0  0  0  0  0  0  0  # atno 10718 bound_to 10713
  154.0157  135.6676  153.4768 H   0  0  0  0  0  0  0  0  0  0  0  0  # atno 10763 bound_to 10752
  153.0602  135.5032  154.8071 H   0  0  0  0  0  0  0  0  0  0  0  0  # atno 10764 bound_to 10752
  154.6968  135.3071  154.9363 H   0  0  0  0  0  0  0  0  0  0  0  0  # atno 10765 bound_to 10752
  140.2582  134.3223  155.7866 H   0  0  0  0  0  0  0  0  0  0  0  0  # atno 11005 bound_to 11000
  145.5899  141.0371  143.2076 LP  0  0  0  0  0  0  0  0  0  0  0  0  # atno 17320 bound_to 7965
  144.7415  139.7437  143.7309 LP  0  0  0  0  0  0  0  0  0  0  0  0  # atno 17321 bound_to 7965
  140.4054  144.2439  150.5891 LP  0  0  0  0  0  0  0  0  0  0  0  0  # atno 17342 bound_to 10162
  140.5017  143.2316  151.8668 LP  0  0  0  0  0  0  0  0  0  0  0  0  # atno 17343 bound_to 10162
  156.2516  130.3701  149.8226 LP  0  0  0  0  0  0  0  0  0  0  0  0  # atno 17370 bound_to 10713
  156.5997  130.8541  151.3429 LP  0  0  0  0  0  0  0  0  0  0  0  0  # atno 17371 bound_to 10713
  141.2193  133.7394  156.9145 LP  0  0  0  0  0  0  0  0  0  0  0  0  # atno 17394 bound_to 11000
  140.1490  134.9242  157.2568 LP  0  0  0  0  0  0  0  0  0  0  0  0  # atno 17395 bound_to 11000

$$$$
