AV-unprocessed.smi:3267|AV-procd|sdf|12507|dock3
  -GOLD-   2272018413D 1   1.00000     0.00000
 Structure written by MMmdl.
 38 39  0  0  0  0  0  0  0  0  1 V2000
  147.7002  138.3778  156.1047 C   0  0  0  0  0  0  0  0  0  0  0  0
  147.5938  138.6982  154.6050 C   0  0  1  0  0  0  0  0  0  0  0  0
  148.7472  139.5878  154.0831 C   0  0  0  0  0  0  0  0  0  0  0  0
  150.0704  139.0964  154.4319 N   0  0  0  0  0  0  0  0  0  0  0  0
  150.5501  137.8049  154.3657 C   0  0  0  0  0  0  0  0  0  0  0  0
  151.8462  137.8295  154.7944 C   0  0  0  0  0  0  0  0  0  0  0  0
  152.0710  139.1982  155.1116 C   0  0  0  0  0  0  0  0  0  0  0  0
  151.0065  139.9533  154.8955 N   0  0  0  0  0  0  0  0  0  0  0  0
  147.5070  137.4501  153.8505 N   0  0  0  0  0  0  0  0  0  0  0  0
  146.5632  136.5116  154.0064 C   0  0  0  0  0  0  0  0  0  0  0  0
  145.6502  136.5784  154.8300 O   0  0  0  0  0  0  0  0  0  0  0  0
  146.7352  135.4913  153.1559 N   0  0  0  0  0  0  0  0  0  0  0  0
  145.8897  134.3054  153.0911 C   0  0  0  0  0  0  0  0  0  0  0  0
  145.5612  133.9282  151.6372 C   0  0  1  0  0  0  0  0  0  0  0  0
  146.7109  133.2447  150.8976 C   0  0  0  0  0  0  0  0  0  0  0  0
  146.0118  132.3701  149.8659 C   0  0  0  0  0  0  0  0  0  0  0  0
  144.5367  132.4140  150.2728 C   0  0  0  0  0  0  0  0  0  0  0  0
  144.5397  132.9445  151.5893 O   0  0  0  0  0  0  0  0  0  0  0  0
  147.7739  139.2913  156.6953 H   0  0  0  0  0  0  0  0  0  0  0  0
  148.5735  137.7641  156.3273 H   0  0  0  0  0  0  0  0  0  0  0  0
  146.8208  137.8337  156.4506 H   0  0  0  0  0  0  0  0  0  0  0  0
  146.6619  139.2478  154.4595 H   0  0  0  0  0  0  0  0  0  0  0  0
  148.6889  139.7034  152.9995 H   0  0  0  0  0  0  0  0  0  0  0  0
  148.6447  140.5913  154.4977 H   0  0  0  0  0  0  0  0  0  0  0  0
  149.9369  136.9860  154.0190 H   0  0  0  0  0  0  0  0  0  0  0  0
  152.5294  136.9967  154.8707 H   0  0  0  0  0  0  0  0  0  0  0  0
  152.9696  139.6623  155.4904 H   0  0  0  0  0  0  0  0  0  0  0  0
  148.2095  137.3004  153.1411 H   0  0  0  0  0  0  0  0  0  0  0  0
  147.5160  135.5287  152.5171 H   0  0  0  0  0  0  0  0  0  0  0  0
  146.3811  133.4723  153.5965 H   0  0  0  0  0  0  0  0  0  0  0  0
  144.9723  134.5069  153.6450 H   0  0  0  0  0  0  0  0  0  0  0  0
  145.2365  134.8056  151.0743 H   0  0  0  0  0  0  0  0  0  0  0  0
  147.3995  133.9612  150.4489 H   0  0  0  0  0  0  0  0  0  0  0  0
  147.2818  132.6147  151.5809 H   0  0  0  0  0  0  0  0  0  0  0  0
  146.1477  132.7484  148.8521 H   0  0  0  0  0  0  0  0  0  0  0  0
  146.4028  131.3525  149.8999 H   0  0  0  0  0  0  0  0  0  0  0  0
  143.9782  133.0853  149.6187 H   0  0  0  0  0  0  0  0  0  0  0  0
  144.0611  131.4334  150.2406 H   0  0  0  0  0  0  0  0  0  0  0  0
  1  2  1  0  0  0  0
  1 19  1  0  0  0  0
  1 20  1  0  0  0  0
  1 21  1  0  0  0  0
  2  3  1  0  0  0  0
  2  9  1  0  0  0  0
  2 22  1  0  0  0  0
  3  4  1  0  0  0  0
  3 23  1  0  0  0  0
  3 24  1  0  0  0  0
  4  8  1  0  0  0  0
  4  5  1  0  0  0  0
  5  6  2  0  0  0  0
  5 25  1  0  0  0  0
  6  7  1  0  0  0  0
  6 26  1  0  0  0  0
  7  8  2  0  0  0  0
  7 27  1  0  0  0  0
  9 10  1  0  0  0  0
  9 28  1  0  0  0  0
 10 11  2  0  0  0  0
 10 12  1  0  0  0  0
 12 13  1  0  0  0  0
 12 29  1  0  0  0  0
 13 14  1  0  0  0  0
 13 30  1  0  0  0  0
 13 31  1  0  0  0  0
 14 18  1  0  0  0  0
 14 15  1  0  0  0  0
 14 32  1  0  0  0  0
 15 16  1  0  0  0  0
 15 33  1  0  0  0  0
 15 34  1  0  0  0  0
 16 17  1  0  0  0  0
 16 35  1  0  0  0  0
 16 36  1  0  0  0  0
 17 18  1  0  0  0  0
 17 37  1  0  0  0  0
 17 38  1  0  0  0  0
M  END
> <s_m_source_file>
AV-unprocessed.smi

> <i_m_source_file_index>
3267

> <i_lp_mmshare_version>
43012

> <i_f3d_flags>
0

> <s_epik_input>
bjFbY0hdW2NIXVtjSF1uMVtDSDJdW0NAQEhdKFtDSDNdKVtOSF1DKD1PKVtOSF1bQ0gyXVtDQEBIXTJbQ0gyXVtDSDJdW0NIMl1PMg==

> <s_epik_cmdline>
J2VwaWtfcHl0aG9uJywgJy1waCcsICc3LjAnLCAnLXRuJywgJzgnLCAnLW1hJywgJzIwMCcsICctbWV0YWxfYmluZGluZycsICctaW1hZScsICc8aW5maWxlLm1hZT4nLCAnLW9tYWUnLCAnPG91dGZpbGUubWFlPic=

> <r_lp_tautomer_probability>
1

> <r_epik_Ionization_Penalty>
6.24796e-05

> <r_epik_Ionization_Penalty_Charging>
0

> <r_epik_Ionization_Penalty_Neutral>
6.24796e-05

> <r_epik_State_Penalty>
-0

> <r_epik_Charging_Adjusted_Penalty>
0

> <i_epik_Tot_Q>
0

> <i_epik_Tot_abs_Q>
0

> <r_epik_Metal_State_Penalty>
-0

> <b_epik_Metal_Only>
0

> <s_lp_Force_Field>
OPLS_2005

> <r_lp_Energy>
14.3103

> <b_lp_Chiralities_Consistent>
1

> <s_lp_Variant>
AV-unprocessed.smi:3267-4

> <Gold.Version>
5.8.1

> <Gold.Id.Protein>
6NUR|6NUR_protein|mol2

> <Gold.PLP.Fitness>
40.7199

> <Gold.PLP.PLP>
-29.6219

> <Gold.PLP.part.hbond>
-3.0000

> <Gold.PLP.part.metal>
0.0000

> <Gold.PLP.part.buried>
-3.3547

> <Gold.PLP.part.nonpolar>
-24.1309

> <Gold.PLP.part.repulsive>
0.2102

> <Gold.PLP.ligand.clash>
0.0000

> <Gold.PLP.ligand.torsion>
0.4713

> <Gold.PLP.Chemscore.Hbond>
3.0000

> <Gold.PLP.Chemscore.CHOScore>
1.0000

> <Gold.PLP.Chemscore.Metal>
0.0000

> <Gold.Chemscore.Hbonds>
donor molecule, donor type, donor heavy atom, donor atom, acceptor molecule, acceptor atom, score
      L1  H     9    28       P1  7948  1.00
      L1  H    12    29       P1  7948  1.00
      P1  H  7989  7998       L1     8  0.90
      L1  C     5    25       P1  7948  1.00

> <Gold.PLP.Chemscore.Internal.Correction>
0.0406

> <Gold.Rescore>
     Score         DG    S(hbond)    S(metal)    S(lipo)     H(rot)  DE(clash)    DE(int)     intcor
     14.64     -17.24       2.65        0.00      65.88       1.87       1.04       1.56       ----

> <Gold.Chemscore.Fitness>
14.6378

> <Gold.Chemscore.DG>
-17.2394

> <Gold.Chemscore.ZeroCoef>
-5.4800

> <Gold.Chemscore.Hbond>
2.6481

> <Gold.Chemscore.Metal>
0.0000

> <Gold.Chemscore.Lipo>
65.8793

> <Gold.Chemscore.Internal_Hbond>
0.0000

> <Gold.Chemscore.DEClash>
1.0382

> <Gold.Chemscore.DEInternal>
1.5633

> <Gold.Chemscore.Rot>
1.8724

> <Gold.Chemscore.Internal.Correction>
   9.000000E+99

> <Gold.Chemscore.Hbonds>
donor molecule, donor type, donor heavy atom, donor atom, acceptor molecule, acceptor atom, score
      L1  H     9    28       P1  7948  0.94
      L1  H    12    29       P1  7948  0.98
      P1  H  7989  7998       L1     8  0.12

> <Gold.Chemscore.Hbond.Weighted>
-8.8448

> <Gold.Chemscore.Metal.Weighted>
-0.0000

> <Gold.Chemscore.Lipo.Weighted>
-7.7079

> <Gold.Chemscore.Internal_Hbond.Weighted>
0.0000

> <Gold.Chemscore.DEClash.Weighted>
1.0382

> <Gold.Chemscore.DEInternal.Weighted>
1.5633

> <Gold.Chemscore.Rot.Weighted>
4.7933

> <Gold.Chemscore.Internal.Correction.Weighted>
   9.000000E+99

> <Gold.Protein.RotatedTorsions>
[ 6907 6896 6895 6894 ] final  137.99 input  -60.11 | X-H torsion
[ 7974 7965 7964 7962 ] final  -18.53 input  175.53 | X-H torsion
[ 8008 7997 7996 7995 ] final   76.61 input   59.86 | X-H torsion
[ 10167 10162 10161 10158 ] final  107.40 input  -65.29 | X-H torsion
[ 10718 10713 10712 10709 ] final  131.70 input   66.30 | X-H torsion
[ 10763 10752 10751 10750 ] final   -3.84 input  -60.55 | X-H torsion
[ 11005 11000 10999 10996 ] final   69.81 input  -57.11 | X-H torsion

> <Gold.Protein.ActiveResidues>
 VAL166  LYS551  ARG553  GLY616  TRP617  ASP618  TYR619  PRO620  LYS621  CYS622 
 ASP623  PHE694  ASN695  SER759  ASP760  ASP761  ALA762  ILE779  LEU786  VAL792 
 PHE793  MET794  SER795  GLU796  ALA797  LYS798  CYS799  TRP800  GLU811  SER814 

> <Gold.Protein.RotatedAtoms>
  152.2717  133.5389  159.5443 H   0  0  0  0  0  0  0  0  0  0  0  0  # atno 6907 bound_to 6896
  150.7162  134.0688  159.3866 H   0  0  0  0  0  0  0  0  0  0  0  0  # atno 6908 bound_to 6896
  151.8602  135.0527  160.0519 H   0  0  0  0  0  0  0  0  0  0  0  0  # atno 6909 bound_to 6896
  146.1887  140.3934  142.8466 H   0  0  0  0  0  0  0  0  0  0  0  0  # atno 7974 bound_to 7965
  155.8297  140.3466  155.5565 H   0  0  0  0  0  0  0  0  0  0  0  0  # atno 8008 bound_to 7997
  155.8255  140.0919  157.1844 H   0  0  0  0  0  0  0  0  0  0  0  0  # atno 8009 bound_to 7997
  154.4004  140.1422  156.3538 H   0  0  0  0  0  0  0  0  0  0  0  0  # atno 8010 bound_to 7997
  139.6930  144.7105  151.1315 H   0  0  0  0  0  0  0  0  0  0  0  0  # atno 10167 bound_to 10162
  157.4943  131.1092  150.9514 H   0  0  0  0  0  0  0  0  0  0  0  0  # atno 10718 bound_to 10713
  153.3768  135.6997  153.6596 H   0  0  0  0  0  0  0  0  0  0  0  0  # atno 10763 bound_to 10752
  153.5223  135.3609  155.2638 H   0  0  0  0  0  0  0  0  0  0  0  0  # atno 10764 bound_to 10752
  154.8688  135.4161  154.3057 H   0  0  0  0  0  0  0  0  0  0  0  0  # atno 10765 bound_to 10752
  139.9633  134.7024  156.0599 H   0  0  0  0  0  0  0  0  0  0  0  0  # atno 11005 bound_to 11000
  144.8446  140.6910  143.6207 LP  0  0  0  0  0  0  0  0  0  0  0  0  # atno 17320 bound_to 7965
  145.3858  139.1627  143.4256 LP  0  0  0  0  0  0  0  0  0  0  0  0  # atno 17321 bound_to 7965
  140.7688  143.5532  150.9182 LP  0  0  0  0  0  0  0  0  0  0  0  0  # atno 17342 bound_to 10162
  139.9210  143.6606  152.3097 LP  0  0  0  0  0  0  0  0  0  0  0  0  # atno 17343 bound_to 10162
  157.0206  130.5672  149.5331 LP  0  0  0  0  0  0  0  0  0  0  0  0  # atno 17370 bound_to 10713
  156.0191  130.5286  150.8223 LP  0  0  0  0  0  0  0  0  0  0  0  0  # atno 17371 bound_to 10713
  141.1311  133.6586  156.3468 LP  0  0  0  0  0  0  0  0  0  0  0  0  # atno 17394 bound_to 11000
  140.5452  134.6081  157.5392 LP  0  0  0  0  0  0  0  0  0  0  0  0  # atno 17395 bound_to 11000

$$$$
