AV-unprocessed.smi:3112|AV-procd|sdf|11840|dock3
  -GOLD-   2272017213D 1   1.00000     0.00000
 Structure written by MMmdl.
 37 37  0  0  0  0  0  0  0  0  2 V2000
  148.0821  141.4355  153.8652 C   0  0  0  0  0  0  0  0  0  0  0  0
  147.0911  140.5827  153.0614 C   0  0  0  0  0  0  0  0  0  0  0  0
  147.2875  139.0681  153.2539 C   0  0  2  0  0  0  0  0  0  0  0  0
  148.5829  138.7126  152.8103 O   0  0  0  0  0  0  0  0  0  0  0  0
  146.2592  138.2494  152.4574 C   0  0  0  0  0  0  0  0  0  0  0  0
  146.5327  136.8009  152.5620 N   0  3  0  0  0  0  0  0  0  0  0  0
  145.6566  135.9367  151.7365 C   0  0  2  0  0  0  0  0  0  0  0  0
  144.1928  136.2576  152.0809 C   0  0  0  0  0  0  0  0  0  0  0  0
  146.0087  134.4401  151.9502 C   0  0  1  0  0  0  0  0  0  0  0  0
  145.6569  133.9251  153.3589 C   0  0  0  0  0  0  0  0  0  0  0  0
  145.3733  133.5998  150.9406 N   0  0  0  0  0  0  0  0  0  0  0  0
  145.9488  132.6755  150.0904 C   0  0  0  0  0  0  0  0  0  0  0  0
  144.9432  132.1100  149.3603 C   0  0  0  0  0  0  0  0  0  0  0  0
  143.7706  132.7527  149.8446 C   0  0  0  0  0  0  0  0  0  0  0  0
  144.0300  133.6347  150.7955 N   0  0  0  0  0  0  0  0  0  0  0  0
  147.8836  142.4975  153.7201 H   0  0  0  0  0  0  0  0  0  0  0  0
  149.1112  141.2477  153.5586 H   0  0  0  0  0  0  0  0  0  0  0  0
  148.0064  141.2272  154.9327 H   0  0  0  0  0  0  0  0  0  0  0  0
  146.0810  140.8540  153.3710 H   0  0  0  0  0  0  0  0  0  0  0  0
  147.1619  140.8380  152.0032 H   0  0  0  0  0  0  0  0  0  0  0  0
  147.2016  138.8268  154.3144 H   0  0  0  0  0  0  0  0  0  0  0  0
  148.5320  137.8868  152.3528 H   0  0  0  0  0  0  0  0  0  0  0  0
  145.2564  138.4332  152.8457 H   0  0  0  0  0  0  0  0  0  0  0  0
  146.2576  138.5590  151.4115 H   0  0  0  0  0  0  0  0  0  0  0  0
  147.4909  136.6380  152.2838 H   0  0  0  0  0  0  0  0  0  0  0  0
  145.8044  136.1830  150.6833 H   0  0  0  0  0  0  0  0  0  0  0  0
  143.4992  135.7445  151.4154 H   0  0  0  0  0  0  0  0  0  0  0  0
  143.9938  137.3255  151.9825 H   0  0  0  0  0  0  0  0  0  0  0  0
  143.9522  135.9690  153.1047 H   0  0  0  0  0  0  0  0  0  0  0  0
  147.0885  134.3268  151.8329 H   0  0  0  0  0  0  0  0  0  0  0  0
  146.2616  134.4077  154.1262 H   0  0  0  0  0  0  0  0  0  0  0  0
  145.8406  132.8532  153.4401 H   0  0  0  0  0  0  0  0  0  0  0  0
  144.6087  134.1020  153.6016 H   0  0  0  0  0  0  0  0  0  0  0  0
  147.0138  132.4962  150.0760 H   0  0  0  0  0  0  0  0  0  0  0  0
  145.0311  131.3507  148.5973 H   0  0  0  0  0  0  0  0  0  0  0  0
  142.7451  132.6015  149.5405 H   0  0  0  0  0  0  0  0  0  0  0  0
  146.4316  136.5311  153.5298 H   0  0  0  0  0  0  0  0  0  0  0  0
  1  2  1  0  0  0  0
  1 16  1  0  0  0  0
  1 17  1  0  0  0  0
  1 18  1  0  0  0  0
  2  3  1  0  0  0  0
  2 19  1  0  0  0  0
  2 20  1  0  0  0  0
  3  4  1  0  0  0  0
  3  5  1  0  0  0  0
  3 21  1  0  0  0  0
  4 22  1  0  0  0  0
  5  6  1  0  0  0  0
  5 23  1  0  0  0  0
  5 24  1  0  0  0  0
  6  7  1  0  0  0  0
  6 25  1  0  0  0  0
  6 37  1  0  0  0  0
  7  8  1  0  0  0  0
  7  9  1  0  0  0  0
  7 26  1  0  0  0  0
  8 27  1  0  0  0  0
  8 28  1  0  0  0  0
  8 29  1  0  0  0  0
  9 10  1  0  0  0  0
  9 11  1  0  0  0  0
  9 30  1  0  0  0  0
 10 31  1  0  0  0  0
 10 32  1  0  0  0  0
 10 33  1  0  0  0  0
 11 15  1  0  0  0  0
 11 12  1  0  0  0  0
 12 13  2  0  0  0  0
 12 34  1  0  0  0  0
 13 14  1  0  0  0  0
 13 35  1  0  0  0  0
 14 15  2  0  0  0  0
 14 36  1  0  0  0  0
M  CHG  1   6   1
M  END
> <s_m_source_file>
AV-unprocessed.smi

> <i_m_source_file_index>
3112

> <i_lp_mmshare_version>
43012

> <i_f3d_flags>
0

> <s_epik_input>
W0NIM11bQ0gyXVtDQEhdKFtPSF0pW0NIMl1bTkhdW0NASF0oW0NIM10pW0NASF0oW0NIM10pbjFbY0hdW2NIXVtjSF1uMQ==

> <s_epik_cmdline>
J2VwaWtfcHl0aG9uJywgJy1waCcsICc3LjAnLCAnLXRuJywgJzgnLCAnLW1hJywgJzIwMCcsICctbWV0YWxfYmluZGluZycsICctaW1hZScsICc8aW5maWxlLm1hZT4nLCAnLW9tYWUnLCAnPG91dGZpbGUubWFlPic=

> <r_lp_tautomer_probability>
1

> <r_epik_Ionization_Penalty>
0.0154842

> <r_epik_Ionization_Penalty_Charging>
0.0154724

> <r_epik_Ionization_Penalty_Neutral>
1.17979e-05

> <r_epik_State_Penalty>
0.0121607

> <r_epik_Charging_Adjusted_Penalty>
0.0276331

> <i_epik_Tot_Q>
1

> <i_epik_Tot_abs_Q>
1

> <r_epik_Metal_State_Penalty>
0.0121863

> <b_epik_Metal_Only>
0

> <s_lp_Force_Field>
OPLS_2005

> <r_lp_Energy>
12.9231

> <b_lp_Chiralities_Consistent>
1

> <s_lp_Variant>
AV-unprocessed.smi:3112-5

> <Gold.Version>
5.8.1

> <Gold.Id.Protein>
6NUR|6NUR_protein|mol2

> <Gold.PLP.Fitness>
46.6442

> <Gold.PLP.PLP>
-32.3949

> <Gold.PLP.part.hbond>
-2.6858

> <Gold.PLP.part.metal>
0.0000

> <Gold.PLP.part.buried>
-3.6338

> <Gold.PLP.part.nonpolar>
-26.4264

> <Gold.PLP.part.repulsive>
0.2040

> <Gold.PLP.ligand.clash>
0.0000

> <Gold.PLP.ligand.torsion>
0.2572

> <Gold.PLP.Chemscore.Hbond>
3.0000

> <Gold.PLP.Chemscore.CHOScore>
1.8764

> <Gold.PLP.Chemscore.Metal>
0.0000

> <Gold.Chemscore.Hbonds>
donor molecule, donor type, donor heavy atom, donor atom, acceptor molecule, acceptor atom, score
      L1  H     4    22       P1  7948  1.00
      L1  H     6    25       P1  7948  2.00
      L1  C    12    34       P1 10747  0.95
      L1  C    14    36       P1 10186  0.88

> <Gold.PLP.Chemscore.Internal.Correction>
0.1345

> <Gold.Rescore>
     Score         DG    S(hbond)    S(metal)    S(lipo)     H(rot)  DE(clash)    DE(int)     intcor
     14.09     -15.53       1.99        0.00      81.84       2.41       0.00       1.45       ----

> <Gold.Chemscore.Fitness>
14.0866

> <Gold.Chemscore.DG>
-15.5346

> <Gold.Chemscore.ZeroCoef>
-5.4800

> <Gold.Chemscore.Hbond>
1.9897

> <Gold.Chemscore.Metal>
0.0000

> <Gold.Chemscore.Lipo>
81.8422

> <Gold.Chemscore.Internal_Hbond>
0.0000

> <Gold.Chemscore.DEClash>
0.0013

> <Gold.Chemscore.DEInternal>
1.4466

> <Gold.Chemscore.Rot>
2.4089

> <Gold.Chemscore.Internal.Correction>
   9.000000E+99

> <Gold.Chemscore.Hbonds>
donor molecule, donor type, donor heavy atom, donor atom, acceptor molecule, acceptor atom, score
      L1  H     4    22       P1  7948  0.99
      L1  H     6    25       P1  7948  0.97

> <Gold.Chemscore.Hbond.Weighted>
-6.6457

> <Gold.Chemscore.Metal.Weighted>
-0.0000

> <Gold.Chemscore.Lipo.Weighted>
-9.5755

> <Gold.Chemscore.Internal_Hbond.Weighted>
0.0000

> <Gold.Chemscore.DEClash.Weighted>
0.0013

> <Gold.Chemscore.DEInternal.Weighted>
1.4466

> <Gold.Chemscore.Rot.Weighted>
6.1667

> <Gold.Chemscore.Internal.Correction.Weighted>
   9.000000E+99

> <Gold.Protein.RotatedTorsions>
[ 6907 6896 6895 6894 ] final  -20.60 input  -60.11 | X-H torsion
[ 7974 7965 7964 7962 ] final -175.56 input  175.53 | X-H torsion
[ 8008 7997 7996 7995 ] final -171.03 input   59.86 | X-H torsion
[ 10167 10162 10161 10158 ] final -130.72 input  -65.29 | X-H torsion
[ 10718 10713 10712 10709 ] final  -93.19 input   66.30 | X-H torsion
[ 10763 10752 10751 10750 ] final  122.72 input  -60.55 | X-H torsion
[ 11005 11000 10999 10996 ] final  153.84 input  -57.11 | X-H torsion

> <Gold.Protein.ActiveResidues>
 VAL166  LYS551  ARG553  GLY616  TRP617  ASP618  TYR619  PRO620  LYS621  CYS622 
 ASP623  PHE694  ASN695  SER759  ASP760  ASP761  ALA762  ILE779  LEU786  VAL792 
 PHE793  MET794  SER795  GLU796  ALA797  LYS798  CYS799  TRP800  GLU811  SER814 

> <Gold.Protein.RotatedAtoms>
  151.2458  135.0605  159.9042 H   0  0  0  0  0  0  0  0  0  0  0  0  # atno 6907 bound_to 6896
  152.5387  134.0385  159.8067 H   0  0  0  0  0  0  0  0  0  0  0  0  # atno 6908 bound_to 6896
  151.0586  133.5514  159.2667 H   0  0  0  0  0  0  0  0  0  0  0  0  # atno 6909 bound_to 6896
  144.7128  140.1303  143.6399 H   0  0  0  0  0  0  0  0  0  0  0  0  # atno 7974 bound_to 7965
  155.9262  140.1083  157.1169 H   0  0  0  0  0  0  0  0  0  0  0  0  # atno 8008 bound_to 7997
  154.4062  140.1246  156.4808 H   0  0  0  0  0  0  0  0  0  0  0  0  # atno 8009 bound_to 7997
  155.7136  140.3470  155.4987 H   0  0  0  0  0  0  0  0  0  0  0  0  # atno 8010 bound_to 7997
  139.9264  143.6323  152.2541 H   0  0  0  0  0  0  0  0  0  0  0  0  # atno 10167 bound_to 10162
  156.0010  130.5017  150.5739 H   0  0  0  0  0  0  0  0  0  0  0  0  # atno 10718 bound_to 10713
  153.6342  135.3391  155.3051 H   0  0  0  0  0  0  0  0  0  0  0  0  # atno 10763 bound_to 10752
  154.8574  135.4303  154.2073 H   0  0  0  0  0  0  0  0  0  0  0  0  # atno 10764 bound_to 10752
  153.2977  135.7022  153.7307 H   0  0  0  0  0  0  0  0  0  0  0  0  # atno 10765 bound_to 10752
  140.1434  134.8723  157.2361 H   0  0  0  0  0  0  0  0  0  0  0  0  # atno 11005 bound_to 11000
  145.9293  139.2596  143.1335 LP  0  0  0  0  0  0  0  0  0  0  0  0  # atno 17320 bound_to 7965
  145.9539  140.8887  143.0245 LP  0  0  0  0  0  0  0  0  0  0  0  0  # atno 17321 bound_to 7965
  139.6819  144.7655  151.1593 LP  0  0  0  0  0  0  0  0  0  0  0  0  # atno 17342 bound_to 10162
  140.7649  143.5713  150.8993 LP  0  0  0  0  0  0  0  0  0  0  0  0  # atno 17343 bound_to 10162
  157.3630  131.0753  151.1621 LP  0  0  0  0  0  0  0  0  0  0  0  0  # atno 17370 bound_to 10713
  157.2400  130.6565  149.5885 LP  0  0  0  0  0  0  0  0  0  0  0  0  # atno 17371 bound_to 10713
  140.2694  134.3478  155.7379 LP  0  0  0  0  0  0  0  0  0  0  0  0  # atno 17394 bound_to 11000
  141.2189  133.7414  156.9199 LP  0  0  0  0  0  0  0  0  0  0  0  0  # atno 17395 bound_to 11000

$$$$
