AV-unprocessed.smi:3119|AV-procd|sdf|11891|dock6
  -GOLD-   2272017283D 1   1.00000     0.00000
 Structure written by MMmdl.
 32 33  0  0  0  0  0  0  0  0  2 V2000
  153.2408  140.3681  158.3810 O   0  0  0  0  0  0  0  0  0  0  0  0
  152.6258  141.3765  158.7299 C   0  0  0  0  0  0  0  0  0  0  0  0
  151.4252  141.7070  158.2336 N   0  0  0  0  0  0  0  0  0  0  0  0
  150.7152  140.9334  157.2243 C   0  0  0  0  0  0  0  0  0  0  0  0
  150.6144  141.7161  155.9084 C   0  0  0  0  0  0  0  0  0  0  0  0
  149.4481  141.2534  155.0565 C   0  0  0  0  0  0  0  0  0  0  0  0
  149.3672  139.9402  154.5443 C   0  0  0  0  0  0  0  0  0  0  0  0
  148.2493  139.5712  153.7672 C   0  0  0  0  0  0  0  0  0  0  0  0
  147.2366  140.5210  153.5199 C   0  0  0  0  0  0  0  0  0  0  0  0
  147.3674  141.8180  154.0569 C   0  0  0  0  0  0  0  0  0  0  0  0
  148.4536  142.1332  154.7968 N   0  3  0  0  0  0  0  0  0  0  0  0
  153.2096  142.3319  159.7795 C   0  0  0  0  0  0  0  0  0  0  0  0
  153.3909  141.7036  161.1720 C   0  0  0  0  0  0  0  0  0  0  0  0
  152.8129  142.9843  161.7811 C   0  0  0  0  0  0  0  0  0  0  0  0
  152.1946  143.2992  160.4159 C   0  0  0  0  0  0  0  0  0  0  0  0
  150.9811  142.5479  158.5736 H   0  0  0  0  0  0  0  0  0  0  0  0
  151.2372  139.9901  157.0543 H   0  0  0  0  0  0  0  0  0  0  0  0
  149.7191  140.6889  157.5972 H   0  0  0  0  0  0  0  0  0  0  0  0
  150.5031  142.7821  156.1129 H   0  0  0  0  0  0  0  0  0  0  0  0
  151.5377  141.6066  155.3374 H   0  0  0  0  0  0  0  0  0  0  0  0
  150.1492  139.2223  154.7455 H   0  0  0  0  0  0  0  0  0  0  0  0
  148.1693  138.5711  153.3667 H   0  0  0  0  0  0  0  0  0  0  0  0
  146.3720  140.2581  152.9278 H   0  0  0  0  0  0  0  0  0  0  0  0
  146.6416  142.6063  153.9195 H   0  0  0  0  0  0  0  0  0  0  0  0
  154.1105  142.8499  159.4445 H   0  0  0  0  0  0  0  0  0  0  0  0
  152.7623  140.8300  161.3536 H   0  0  0  0  0  0  0  0  0  0  0  0
  154.4281  141.5107  161.4473 H   0  0  0  0  0  0  0  0  0  0  0  0
  152.0908  142.8220  162.5818 H   0  0  0  0  0  0  0  0  0  0  0  0
  153.5847  143.6994  162.0696 H   0  0  0  0  0  0  0  0  0  0  0  0
  152.3101  144.3386  160.1080 H   0  0  0  0  0  0  0  0  0  0  0  0
  151.1540  142.9782  160.3435 H   0  0  0  0  0  0  0  0  0  0  0  0
  148.5264  143.0770  155.1775 H   0  0  0  0  0  0  0  0  0  0  0  0
  1  2  2  0  0  0  0
  2  3  1  0  0  0  0
  2 12  1  0  0  0  0
  3  4  1  0  0  0  0
  3 16  1  0  0  0  0
  4  5  1  0  0  0  0
  4 17  1  0  0  0  0
  4 18  1  0  0  0  0
  5  6  1  0  0  0  0
  5 19  1  0  0  0  0
  5 20  1  0  0  0  0
  6 11  1  0  0  0  0
  6  7  2  0  0  0  0
  7  8  1  0  0  0  0
  7 21  1  0  0  0  0
  8  9  2  0  0  0  0
  8 22  1  0  0  0  0
  9 10  1  0  0  0  0
  9 23  1  0  0  0  0
 10 11  2  0  0  0  0
 10 24  1  0  0  0  0
 11 32  1  0  0  0  0
 12 15  1  0  0  0  0
 12 13  1  0  0  0  0
 12 25  1  0  0  0  0
 13 14  1  0  0  0  0
 13 26  1  0  0  0  0
 13 27  1  0  0  0  0
 14 15  1  0  0  0  0
 14 28  1  0  0  0  0
 14 29  1  0  0  0  0
 15 30  1  0  0  0  0
 15 31  1  0  0  0  0
M  CHG  1  11   1
M  END
> <s_m_source_file>
AV-unprocessed.smi

> <i_m_source_file_index>
3119

> <i_lp_mmshare_version>
43012

> <i_f3d_flags>
0

> <s_epik_input>
W0NIMl0xW0NIMl1bQ0gyXVtDSF0xQyg9TylbTkhdW0NIMl1bQ0gyXWMyW2NIXVtjSF1bY0hdW2NIXW4y

> <s_epik_cmdline>
J2VwaWtfcHl0aG9uJywgJy1waCcsICc3LjAnLCAnLXRuJywgJzgnLCAnLW1hJywgJzIwMCcsICctbWV0YWxfYmluZGluZycsICctaW1hZScsICc8aW5maWxlLm1hZT4nLCAnLW9tYWUnLCAnPG91dGZpbGUubWFlPic=

> <r_epik_Ionization_Penalty>
1.82741

> <r_epik_Ionization_Penalty_Charging>
1.82741

> <r_epik_Ionization_Penalty_Neutral>
1.62845e-08

> <r_epik_State_Penalty>
1.94311

> <r_epik_Charging_Adjusted_Penalty>
3.77052

> <i_epik_Tot_Q>
1

> <i_epik_Tot_abs_Q>
1

> <r_epik_Metal_State_Penalty>
1.96982

> <b_epik_Metal_Only>
0

> <s_lp_Force_Field>
OPLS_2005

> <r_lp_Energy>
15.9357

> <b_lp_Chiralities_Consistent>
1

> <s_lp_Variant>
AV-unprocessed.smi:3119-2

> <Gold.Version>
5.8.1

> <Gold.Id.Protein>
6NUR|6NUR_protein|mol2

> <Gold.PLP.Fitness>
46.0384

> <Gold.PLP.PLP>
-37.5005

> <Gold.PLP.part.hbond>
-2.0000

> <Gold.PLP.part.metal>
0.0000

> <Gold.PLP.part.buried>
-3.4184

> <Gold.PLP.part.nonpolar>
-32.2382

> <Gold.PLP.part.repulsive>
0.2860

> <Gold.PLP.ligand.clash>
0.0000

> <Gold.PLP.ligand.torsion>
0.3997

> <Gold.PLP.Chemscore.Hbond>
2.9760

> <Gold.PLP.Chemscore.CHOScore>
0.0000

> <Gold.PLP.Chemscore.Metal>
0.0000

> <Gold.Chemscore.Hbonds>
donor molecule, donor type, donor heavy atom, donor atom, acceptor molecule, acceptor atom, score
      L1  H    11    32       P1  8028  2.00
      P1  H  7997  8008       L1     1  0.86

> <Gold.PLP.Chemscore.Internal.Correction>
0.4093

> <Gold.Rescore>
     Score         DG    S(hbond)    S(metal)    S(lipo)     H(rot)  DE(clash)    DE(int)     intcor
     18.32     -18.69       1.94        0.00      91.09       1.53       0.01       0.36       ----

> <Gold.Chemscore.Fitness>
18.3232

> <Gold.Chemscore.DG>
-18.6892

> <Gold.Chemscore.ZeroCoef>
-5.4800

> <Gold.Chemscore.Hbond>
1.9351

> <Gold.Chemscore.Metal>
0.0000

> <Gold.Chemscore.Lipo>
91.0875

> <Gold.Chemscore.Internal_Hbond>
0.0000

> <Gold.Chemscore.DEClash>
0.0060

> <Gold.Chemscore.DEInternal>
0.3600

> <Gold.Chemscore.Rot>
1.5278

> <Gold.Chemscore.Internal.Correction>
   9.000000E+99

> <Gold.Chemscore.Hbonds>
donor molecule, donor type, donor heavy atom, donor atom, acceptor molecule, acceptor atom, score
      L1  H    11    32       P1  8028  1.00
      P1  H  7997  8008       L1     1  0.84

> <Gold.Chemscore.Hbond.Weighted>
-6.4631

> <Gold.Chemscore.Metal.Weighted>
-0.0000

> <Gold.Chemscore.Lipo.Weighted>
-10.6572

> <Gold.Chemscore.Internal_Hbond.Weighted>
0.0000

> <Gold.Chemscore.DEClash.Weighted>
0.0060

> <Gold.Chemscore.DEInternal.Weighted>
0.3600

> <Gold.Chemscore.Rot.Weighted>
3.9111

> <Gold.Chemscore.Internal.Correction.Weighted>
   9.000000E+99

> <Gold.Protein.RotatedTorsions>
[ 6907 6896 6895 6894 ] final  103.23 input  -60.11 | X-H torsion
[ 7974 7965 7964 7962 ] final   17.42 input  175.53 | X-H torsion
[ 8008 7997 7996 7995 ] final  -87.91 input   59.86 | X-H torsion
[ 10167 10162 10161 10158 ] final   85.41 input  -65.29 | X-H torsion
[ 10718 10713 10712 10709 ] final  -58.96 input   66.30 | X-H torsion
[ 10763 10752 10751 10750 ] final   74.55 input  -60.55 | X-H torsion
[ 11005 11000 10999 10996 ] final  -49.89 input  -57.11 | X-H torsion

> <Gold.Protein.ActiveResidues>
 VAL166  LYS551  ARG553  GLY616  TRP617  ASP618  TYR619  PRO620  LYS621  CYS622 
 ASP623  PHE694  ASN695  SER759  ASP760  ASP761  ALA762  ILE779  LEU786  VAL792 
 PHE793  MET794  SER795  GLU796  ALA797  LYS798  CYS799  TRP800  GLU811  SER814 

> <Gold.Protein.RotatedAtoms>
  152.5301  133.9856  159.7826 H   0  0  0  0  0  0  0  0  0  0  0  0  # atno 6907 bound_to 6896
  151.0102  133.5965  159.2691 H   0  0  0  0  0  0  0  0  0  0  0  0  # atno 6908 bound_to 6896
  151.3042  135.0783  159.9303 H   0  0  0  0  0  0  0  0  0  0  0  0  # atno 6909 bound_to 6896
  146.2219  139.8605  142.8605 H   0  0  0  0  0  0  0  0  0  0  0  0  # atno 7974 bound_to 7965
  154.6687  140.0560  157.0142 H   0  0  0  0  0  0  0  0  0  0  0  0  # atno 8008 bound_to 7997
  155.1121  140.3239  155.4500 H   0  0  0  0  0  0  0  0  0  0  0  0  # atno 8009 bound_to 7997
  156.2648  140.2012  156.6245 H   0  0  0  0  0  0  0  0  0  0  0  0  # atno 8010 bound_to 7997
  139.8980  144.6346  150.8667 H   0  0  0  0  0  0  0  0  0  0  0  0  # atno 10167 bound_to 10162
  156.1096  130.4176  150.0650 H   0  0  0  0  0  0  0  0  0  0  0  0  # atno 10718 bound_to 10713
  153.0595  135.5021  154.8059 H   0  0  0  0  0  0  0  0  0  0  0  0  # atno 10763 bound_to 10752
  154.6860  135.2976  154.9549 H   0  0  0  0  0  0  0  0  0  0  0  0  # atno 10764 bound_to 10752
  154.0320  135.6728  153.4834 H   0  0  0  0  0  0  0  0  0  0  0  0  # atno 10765 bound_to 10752
  141.0785  133.6659  156.3652 H   0  0  0  0  0  0  0  0  0  0  0  0  # atno 11005 bound_to 11000
  145.2710  141.0108  143.3772 LP  0  0  0  0  0  0  0  0  0  0  0  0  # atno 17320 bound_to 7965
  144.9224  139.4396  143.6535 LP  0  0  0  0  0  0  0  0  0  0  0  0  # atno 17321 bound_to 7965
  140.7713  143.3458  151.2113 LP  0  0  0  0  0  0  0  0  0  0  0  0  # atno 17342 bound_to 10162
  139.7050  143.9470  152.2923 LP  0  0  0  0  0  0  0  0  0  0  0  0  # atno 17343 bound_to 10162
  156.8616  130.9494  151.3617 LP  0  0  0  0  0  0  0  0  0  0  0  0  # atno 17370 bound_to 10713
  157.6276  130.8704  149.9217 LP  0  0  0  0  0  0  0  0  0  0  0  0  # atno 17371 bound_to 10713
  140.5520  134.6018  157.5410 LP  0  0  0  0  0  0  0  0  0  0  0  0  # atno 17394 bound_to 11000
  139.9598  134.7472  156.0262 LP  0  0  0  0  0  0  0  0  0  0  0  0  # atno 17395 bound_to 11000

$$$$
