AV-unprocessed.smi:1492|AV-procd|sdf|6045|dock5
  -GOLD-   22720 6153D 1   1.00000     0.00000
 Structure written by MMmdl.
 51 52  0  0  0  0  0  0  0  0  2 V2000
  149.6199  141.4133  154.8473 C   0  0  0  0  0  0  0  0  0  0  0  0
  149.4290  140.8784  156.2784 C   0  0  0  0  0  0  0  0  0  0  0  0
  150.7117  140.7734  157.1630 C   0  0  2  0  0  0  0  0  0  0  0  0
  151.8574  140.1764  156.3023 C   0  0  0  0  0  0  0  0  0  0  0  0
  150.4441  139.7560  158.3179 C   0  0  0  0  0  0  0  0  0  0  0  0
  149.6496  138.6133  157.8747 N   0  0  0  0  0  0  0  0  0  0  0  0
  149.6858  137.3727  158.3816 C   0  0  0  0  0  0  0  0  0  0  0  0
  150.5214  136.9917  159.2011 O   0  0  0  0  0  0  0  0  0  0  0  0
  148.5777  136.4296  157.9127 C   0  0  0  0  0  0  0  0  0  0  0  0
  147.9491  135.5812  159.0200 C   0  0  0  0  0  0  0  0  0  0  0  0
  147.9460  134.2175  159.0053 C   0  0  0  0  0  0  0  0  0  0  0  0
  148.5513  133.4022  157.8759 C   0  0  0  0  0  0  0  0  0  0  0  0
  147.3772  133.4802  160.0576 N   0  0  0  0  0  0  0  0  0  0  0  0
  146.8510  134.0968  161.0459 C   0  0  0  0  0  0  0  0  0  0  0  0
  146.2531  133.2861  162.1760 C   0  0  0  0  0  0  0  0  0  0  0  0
  146.7981  135.4682  161.1557 N   0  5  0  0  0  0  0  0  0  0  0  0
  147.3421  136.2532  160.1833 C   0  0  0  0  0  0  0  0  0  0  0  0
  147.3476  137.4810  160.2633 O   0  0  0  0  0  0  0  0  0  0  0  0
  151.1277  142.0979  157.7131 N   0  0  0  0  0  0  0  0  0  0  0  0
  150.0532  142.9071  158.2991 C   0  0  0  0  0  0  0  0  0  0  0  0
  150.5426  144.3107  158.6942 C   0  0  0  0  0  0  0  0  0  0  0  0
  151.6339  144.2002  159.6001 O   0  0  0  0  0  0  0  0  0  0  0  0
  152.7236  143.4719  159.0474 C   0  0  0  0  0  0  0  0  0  0  0  0
  152.2552  142.0611  158.6524 C   0  0  0  0  0  0  0  0  0  0  0  0
  148.6613  141.4551  154.3303 H   0  0  0  0  0  0  0  0  0  0  0  0
  150.2731  140.7738  154.2546 H   0  0  0  0  0  0  0  0  0  0  0  0
  150.0305  142.4226  154.8392 H   0  0  0  0  0  0  0  0  0  0  0  0
  148.6950  141.5198  156.7651 H   0  0  0  0  0  0  0  0  0  0  0  0
  148.9558  139.9004  156.1949 H   0  0  0  0  0  0  0  0  0  0  0  0
  151.7114  139.1147  156.1025 H   0  0  0  0  0  0  0  0  0  0  0  0
  152.8229  140.2738  156.7996 H   0  0  0  0  0  0  0  0  0  0  0  0
  151.9393  140.6663  155.3319 H   0  0  0  0  0  0  0  0  0  0  0  0
  151.3823  139.3708  158.7173 H   0  0  0  0  0  0  0  0  0  0  0  0
  149.9560  140.2387  159.1655 H   0  0  0  0  0  0  0  0  0  0  0  0
  148.9214  138.8137  157.2034 H   0  0  0  0  0  0  0  0  0  0  0  0
  147.8186  137.0134  157.3912 H   0  0  0  0  0  0  0  0  0  0  0  0
  148.9876  135.7647  157.1523 H   0  0  0  0  0  0  0  0  0  0  0  0
  149.5995  133.6626  157.7308 H   0  0  0  0  0  0  0  0  0  0  0  0
  148.0154  133.5844  156.9445 H   0  0  0  0  0  0  0  0  0  0  0  0
  148.5002  132.3339  158.0892 H   0  0  0  0  0  0  0  0  0  0  0  0
  147.0419  132.7790  162.7321 H   0  0  0  0  0  0  0  0  0  0  0  0
  145.5689  132.5337  161.7827 H   0  0  0  0  0  0  0  0  0  0  0  0
  145.6989  133.9203  162.8696 H   0  0  0  0  0  0  0  0  0  0  0  0
  149.2297  143.0305  157.5977 H   0  0  0  0  0  0  0  0  0  0  0  0
  149.6474  142.4158  159.1832 H   0  0  0  0  0  0  0  0  0  0  0  0
  150.8472  144.8750  157.8121 H   0  0  0  0  0  0  0  0  0  0  0  0
  149.7391  144.8721  159.1710 H   0  0  0  0  0  0  0  0  0  0  0  0
  153.1263  144.0022  158.1839 H   0  0  0  0  0  0  0  0  0  0  0  0
  153.5229  143.4122  159.7860 H   0  0  0  0  0  0  0  0  0  0  0  0
  151.9745  141.5228  159.5576 H   0  0  0  0  0  0  0  0  0  0  0  0
  153.1057  141.5350  158.2228 H   0  0  0  0  0  0  0  0  0  0  0  0
  1  2  1  0  0  0  0
  1 25  1  0  0  0  0
  1 26  1  0  0  0  0
  1 27  1  0  0  0  0
  2  3  1  0  0  0  0
  2 28  1  0  0  0  0
  2 29  1  0  0  0  0
  3  4  1  0  0  0  0
  3  5  1  0  0  0  0
  3 19  1  0  0  0  0
  4 30  1  0  0  0  0
  4 31  1  0  0  0  0
  4 32  1  0  0  0  0
  5  6  1  0  0  0  0
  5 33  1  0  0  0  0
  5 34  1  0  0  0  0
  6  7  1  0  0  0  0
  6 35  1  0  0  0  0
  7  8  2  0  0  0  0
  7  9  1  0  0  0  0
  9 10  1  0  0  0  0
  9 36  1  0  0  0  0
  9 37  1  0  0  0  0
 10 17  1  0  0  0  0
 10 11  2  0  0  0  0
 11 12  1  0  0  0  0
 11 13  1  0  0  0  0
 12 38  1  0  0  0  0
 12 39  1  0  0  0  0
 12 40  1  0  0  0  0
 13 14  2  0  0  0  0
 14 15  1  0  0  0  0
 14 16  1  0  0  0  0
 15 41  1  0  0  0  0
 15 42  1  0  0  0  0
 15 43  1  0  0  0  0
 16 17  1  0  0  0  0
 17 18  2  0  0  0  0
 19 24  1  0  0  0  0
 19 20  1  0  0  0  0
 20 21  1  0  0  0  0
 20 44  1  0  0  0  0
 20 45  1  0  0  0  0
 21 22  1  0  0  0  0
 21 46  1  0  0  0  0
 21 47  1  0  0  0  0
 22 23  1  0  0  0  0
 23 24  1  0  0  0  0
 23 48  1  0  0  0  0
 23 49  1  0  0  0  0
 24 50  1  0  0  0  0
 24 51  1  0  0  0  0
M  CHG  1  16  -1
M  END
> <s_m_source_file>
AV-unprocessed.smi

> <i_m_source_file_index>
1492

> <i_lp_mmshare_version>
43012

> <i_f3d_flags>
0

> <s_epik_input>
W0NIMl0xW0NIMl1PW0NIMl1bQ0gyXU4xW0NAQF0oW0NIM10pKFtDSDJdW0NIM10pW0NIMl1bTkhdQyg9TylbQ0gyXWMyYyhbQ0gzXSluYyhbQ0gzXSlbbkhdYzI9Tw==

> <s_epik_cmdline>
J2VwaWtfcHl0aG9uJywgJy1waCcsICc3LjAnLCAnLXRuJywgJzgnLCAnLW1hJywgJzIwMCcsICctbWV0YWxfYmluZGluZycsICctaW1hZScsICc8aW5maWxlLm1hZT4nLCAnLW9tYWUnLCAnPG91dGZpbGUubWFlPic=

> <r_lp_tautomer_probability>
0.839158

> <r_epik_Ionization_Penalty>
6.88574

> <r_epik_Ionization_Penalty_Charging>
6.74373e-08

> <r_epik_Ionization_Penalty_Neutral>
6.88574

> <r_epik_State_Penalty>
4.79448

> <r_epik_Charging_Adjusted_Penalty>
4.79448

> <i_epik_Tot_Q>
-1

> <i_epik_Tot_abs_Q>
1

> <r_epik_Metal_State_Penalty>
1.16421

> <b_epik_Metal_Only>
1

> <s_lp_Force_Field>
OPLS_2005

> <r_lp_Energy>
46.4707

> <b_lp_Chiralities_Consistent>
1

> <s_lp_Variant>
AV-unprocessed.smi:1492-10

> <Gold.Version>
5.8.1

> <Gold.Id.Protein>
6NUR|6NUR_protein|mol2

> <Gold.PLP.Fitness>
40.8151

> <Gold.PLP.PLP>
-35.2723

> <Gold.PLP.part.hbond>
-3.0000

> <Gold.PLP.part.metal>
0.0000

> <Gold.PLP.part.buried>
-6.1617

> <Gold.PLP.part.nonpolar>
-27.2854

> <Gold.PLP.part.repulsive>
0.1802

> <Gold.PLP.ligand.clash>
0.0000

> <Gold.PLP.ligand.torsion>
1.1077

> <Gold.PLP.Chemscore.Hbond>
2.5303

> <Gold.PLP.Chemscore.CHOScore>
0.0000

> <Gold.PLP.Chemscore.Metal>
0.0000

> <Gold.Chemscore.Hbonds>
donor molecule, donor type, donor heavy atom, donor atom, acceptor molecule, acceptor atom, score
      P1  H  6896  6908       L1     8  0.76
      P1  H  6934  6947       L1    18  1.00

> <Gold.PLP.Chemscore.Internal.Correction>
0.1674

> <Gold.Rescore>
     Score         DG    S(hbond)    S(metal)    S(lipo)     H(rot)  DE(clash)    DE(int)     intcor
     17.41     -18.33       2.35        0.00      87.39       2.05       0.06       0.86       ----

> <Gold.Chemscore.Fitness>
17.4134

> <Gold.Chemscore.DG>
-18.3275

> <Gold.Chemscore.ZeroCoef>
-5.4800

> <Gold.Chemscore.Hbond>
2.3536

> <Gold.Chemscore.Metal>
0.0000

> <Gold.Chemscore.Lipo>
87.3889

> <Gold.Chemscore.Internal_Hbond>
0.0000

> <Gold.Chemscore.DEClash>
0.0576

> <Gold.Chemscore.DEInternal>
0.8566

> <Gold.Chemscore.Rot>
2.0461

> <Gold.Chemscore.Internal.Correction>
   9.000000E+99

> <Gold.Chemscore.Hbonds>
donor molecule, donor type, donor heavy atom, donor atom, acceptor molecule, acceptor atom, score
      P1  H  6896  6908       L1     8  0.76
      P1  H  6931  6943       L1    18  0.01
      P1  H  6934  6947       L1    18  0.96

> <Gold.Chemscore.Hbond.Weighted>
-7.8611

> <Gold.Chemscore.Metal.Weighted>
-0.0000

> <Gold.Chemscore.Lipo.Weighted>
-10.2245

> <Gold.Chemscore.Internal_Hbond.Weighted>
0.0000

> <Gold.Chemscore.DEClash.Weighted>
0.0576

> <Gold.Chemscore.DEInternal.Weighted>
0.8566

> <Gold.Chemscore.Rot.Weighted>
5.2381

> <Gold.Chemscore.Internal.Correction.Weighted>
   9.000000E+99

> <Gold.Protein.RotatedTorsions>
[ 6907 6896 6895 6894 ] final -136.33 input  -60.11 | X-H torsion
[ 7974 7965 7964 7962 ] final   90.15 input  175.53 | X-H torsion
[ 8008 7997 7996 7995 ] final -130.86 input   59.86 | X-H torsion
[ 10167 10162 10161 10158 ] final   24.47 input  -65.29 | X-H torsion
[ 10718 10713 10712 10709 ] final -133.77 input   66.30 | X-H torsion
[ 10763 10752 10751 10750 ] final  -46.00 input  -60.55 | X-H torsion
[ 11005 11000 10999 10996 ] final   55.32 input  -57.11 | X-H torsion

> <Gold.Protein.ActiveResidues>
 VAL166  LYS551  ARG553  GLY616  TRP617  ASP618  TYR619  PRO620  LYS621  CYS622 
 ASP623  PHE694  ASN695  SER759  ASP760  ASP761  ALA762  ILE779  LEU786  VAL792 
 PHE793  MET794  SER795  GLU796  ALA797  LYS798  CYS799  TRP800  GLU811  SER814 

> <Gold.Protein.RotatedAtoms>
  151.0088  133.5985  159.2685 H   0  0  0  0  0  0  0  0  0  0  0  0  # atno 6907 bound_to 6896
  151.3144  135.0801  159.9293 H   0  0  0  0  0  0  0  0  0  0  0  0  # atno 6908 bound_to 6896
  152.5294  133.9747  159.7832 H   0  0  0  0  0  0  0  0  0  0  0  0  # atno 6909 bound_to 6896
  145.5228  139.2280  143.2662 H   0  0  0  0  0  0  0  0  0  0  0  0  # atno 7974 bound_to 7965
  155.3027  140.0453  157.3030 H   0  0  0  0  0  0  0  0  0  0  0  0  # atno 8008 bound_to 7997
  154.5477  140.2308  155.8503 H   0  0  0  0  0  0  0  0  0  0  0  0  # atno 8009 bound_to 7997
  156.1939  140.3043  155.9394 H   0  0  0  0  0  0  0  0  0  0  0  0  # atno 8010 bound_to 7997
  140.5185  144.0042  150.6405 H   0  0  0  0  0  0  0  0  0  0  0  0  # atno 10167 bound_to 10162
  156.2484  130.7138  151.1027 H   0  0  0  0  0  0  0  0  0  0  0  0  # atno 10718 bound_to 10713
  154.0378  135.6648  153.4787 H   0  0  0  0  0  0  0  0  0  0  0  0  # atno 10763 bound_to 10752
  153.0514  135.5082  154.7871 H   0  0  0  0  0  0  0  0  0  0  0  0  # atno 10764 bound_to 10752
  154.6837  135.3049  154.9542 H   0  0  0  0  0  0  0  0  0  0  0  0  # atno 10765 bound_to 10752
  140.0616  134.5594  155.9145 H   0  0  0  0  0  0  0  0  0  0  0  0  # atno 11005 bound_to 11000
  146.2095  140.6041  142.9066 LP  0  0  0  0  0  0  0  0  0  0  0  0  # atno 17320 bound_to 7965
  144.7667  140.5545  143.6698 LP  0  0  0  0  0  0  0  0  0  0  0  0  # atno 17321 bound_to 7965
  140.3384  143.3034  152.0614 LP  0  0  0  0  0  0  0  0  0  0  0  0  # atno 17342 bound_to 10162
  139.4916  144.6460  151.6777 LP  0  0  0  0  0  0  0  0  0  0  0  0  # atno 17343 bound_to 10162
  157.7204  131.0685  150.6157 LP  0  0  0  0  0  0  0  0  0  0  0  0  # atno 17370 bound_to 10713
  156.6235  130.4412  149.5813 LP  0  0  0  0  0  0  0  0  0  0  0  0  # atno 17371 bound_to 10713
  141.1975  133.6597  156.5747 LP  0  0  0  0  0  0  0  0  0  0  0  0  # atno 17394 bound_to 11000
  140.3761  134.7564  157.4631 LP  0  0  0  0  0  0  0  0  0  0  0  0  # atno 17395 bound_to 11000

$$$$
