AV-unprocessed.smi:340|AV-procd|sdf|2381|dock5
  -GOLD-   2262022303D 1   1.00000     0.00000
 Structure written by MMmdl.
 34 35  0  0  0  0  0  0  0  0  2 V2000
  153.2577  131.5084  156.0196 C   0  0  0  0  0  0  0  0  0  0  0  0
  151.6735  131.6343  156.9414 S   0  0  0  0  0  0  0  0  0  0  0  0
  151.5781  130.4043  157.7441 O   0  0  0  0  0  0  0  0  0  0  0  0
  151.7346  132.9108  157.6715 O   0  0  0  0  0  0  0  0  0  0  0  0
  150.6165  131.6646  155.7136 N   0  5  0  0  0  0  0  0  0  0  0  0
  149.9097  132.8979  155.4188 C   0  0  0  0  0  0  0  0  0  0  0  0
  148.8080  132.6788  154.3921 C   0  0  0  0  0  0  0  0  0  0  0  0
  148.4541  131.3783  153.9682 C   0  0  0  0  0  0  0  0  0  0  0  0
  147.4270  131.2274  153.0157 C   0  0  0  0  0  0  0  0  0  0  0  0
  146.7853  132.3809  152.5198 C   0  0  0  0  0  0  0  0  0  0  0  0
  145.7590  132.2350  151.5761 N   0  0  0  0  0  0  0  0  0  0  0  0
  146.0677  132.8411  150.2869 C   0  0  0  0  0  0  0  0  0  0  0  0
  144.9476  132.5315  149.2786 C   0  0  0  0  0  0  0  0  0  0  0  0
  143.6969  132.9706  149.8019 O   0  0  0  0  0  0  0  0  0  0  0  0
  143.3695  132.3175  151.0253 C   0  0  0  0  0  0  0  0  0  0  0  0
  144.4477  132.6275  152.0773 C   0  0  0  0  0  0  0  0  0  0  0  0
  147.1192  133.6308  152.9199 N   0  0  0  0  0  0  0  0  0  0  0  0
  148.1047  133.7706  153.8332 C   0  0  0  0  0  0  0  0  0  0  0  0
  154.0848  131.4740  156.7279 H   0  0  0  0  0  0  0  0  0  0  0  0
  153.3707  132.3764  155.3707 H   0  0  0  0  0  0  0  0  0  0  0  0
  153.2567  130.6002  155.4176 H   0  0  0  0  0  0  0  0  0  0  0  0
  149.4558  133.3280  156.3122 H   0  0  0  0  0  0  0  0  0  0  0  0
  150.5817  133.6660  155.0345 H   0  0  0  0  0  0  0  0  0  0  0  0
  148.9497  130.4992  154.3572 H   0  0  0  0  0  0  0  0  0  0  0  0
  147.1370  130.2435  152.6770 H   0  0  0  0  0  0  0  0  0  0  0  0
  146.1734  133.9209  150.4017 H   0  0  0  0  0  0  0  0  0  0  0  0
  147.0206  132.4603  149.9174 H   0  0  0  0  0  0  0  0  0  0  0  0
  145.1381  133.0438  148.3356 H   0  0  0  0  0  0  0  0  0  0  0  0
  144.9065  131.4635  149.0587 H   0  0  0  0  0  0  0  0  0  0  0  0
  142.3967  132.6698  151.3682 H   0  0  0  0  0  0  0  0  0  0  0  0
  143.2814  131.2418  150.8641 H   0  0  0  0  0  0  0  0  0  0  0  0
  144.2323  132.0953  153.0048 H   0  0  0  0  0  0  0  0  0  0  0  0
  144.4421  133.6938  152.3076 H   0  0  0  0  0  0  0  0  0  0  0  0
  148.3244  134.7909  154.1166 H   0  0  0  0  0  0  0  0  0  0  0  0
  1  2  1  0  0  0  0
  1 19  1  0  0  0  0
  1 20  1  0  0  0  0
  1 21  1  0  0  0  0
  2  3  2  0  0  0  0
  2  4  2  0  0  0  0
  2  5  1  0  0  0  0
  5  6  1  0  0  0  0
  6  7  1  0  0  0  0
  6 22  1  0  0  0  0
  6 23  1  0  0  0  0
  7 18  1  0  0  0  0
  7  8  2  0  0  0  0
  8  9  1  0  0  0  0
  8 24  1  0  0  0  0
  9 10  2  0  0  0  0
  9 25  1  0  0  0  0
 10 11  1  0  0  0  0
 10 17  1  0  0  0  0
 11 16  1  0  0  0  0
 11 12  1  0  0  0  0
 12 13  1  0  0  0  0
 12 26  1  0  0  0  0
 12 27  1  0  0  0  0
 13 14  1  0  0  0  0
 13 28  1  0  0  0  0
 13 29  1  0  0  0  0
 14 15  1  0  0  0  0
 15 16  1  0  0  0  0
 15 30  1  0  0  0  0
 15 31  1  0  0  0  0
 16 32  1  0  0  0  0
 16 33  1  0  0  0  0
 17 18  2  0  0  0  0
 18 34  1  0  0  0  0
M  CHG  1   5  -1
M  END
> <s_m_source_file>
AV-unprocessed.smi

> <i_m_source_file_index>
340

> <i_lp_mmshare_version>
43012

> <i_f3d_flags>
0

> <s_epik_input>
W0NIM11TKD1PKSg9TylbTkhdW0NIMl1jMVtjSF1bY0hdYyhuW2NIXTEpTjJbQ0gyXVtDSDJdT1tDSDJdW0NIMl0y

> <s_epik_cmdline>
J2VwaWtfcHl0aG9uJywgJy1waCcsICc3LjAnLCAnLXRuJywgJzgnLCAnLW1hJywgJzIwMCcsICctbWV0YWxfYmluZGluZycsICctaW1hZScsICc8aW5maWxlLm1hZT4nLCAnLW9tYWUnLCAnPG91dGZpbGUubWFlPic=

> <r_lp_tautomer_probability>
1

> <r_epik_Ionization_Penalty>
5.97683

> <r_epik_Ionization_Penalty_Charging>
5.90424

> <r_epik_Ionization_Penalty_Neutral>
0.0725937

> <r_epik_State_Penalty>
5.9092

> <r_epik_Charging_Adjusted_Penalty>
11.8134

> <i_epik_Tot_Q>
-1

> <i_epik_Tot_abs_Q>
1

> <r_epik_Metal_State_Penalty>
1.87112

> <b_epik_Metal_Only>
1

> <s_lp_Force_Field>
OPLS_2005

> <r_lp_Energy>
14.5027

> <b_lp_Chiralities_Consistent>
1

> <s_lp_Variant>
AV-unprocessed.smi:340-2

> <Gold.Version>
5.8.1

> <Gold.Id.Protein>
6NUR|6NUR_protein|mol2

> <Gold.PLP.Fitness>
33.5263

> <Gold.PLP.PLP>
-28.2758

> <Gold.PLP.part.hbond>
-1.0000

> <Gold.PLP.part.metal>
0.0000

> <Gold.PLP.part.buried>
-2.8629

> <Gold.PLP.part.nonpolar>
-24.9564

> <Gold.PLP.part.repulsive>
0.5249

> <Gold.PLP.ligand.clash>
0.0000

> <Gold.PLP.ligand.torsion>
0.6608

> <Gold.PLP.Chemscore.Hbond>
0.9920

> <Gold.PLP.Chemscore.CHOScore>
0.8421

> <Gold.PLP.Chemscore.Metal>
0.0000

> <Gold.Chemscore.Hbonds>
donor molecule, donor type, donor heavy atom, donor atom, acceptor molecule, acceptor atom, score
      P1  H  6896  6909       L1     4  0.88
      L1  C    18    34       P1  7948  0.29

> <Gold.PLP.Chemscore.Internal.Correction>
1.0699

> <Gold.Rescore>
     Score         DG    S(hbond)    S(metal)    S(lipo)     H(rot)  DE(clash)    DE(int)     intcor
     12.17     -12.91       0.97        0.00      69.63       1.54       0.09       0.65       ----

> <Gold.Chemscore.Fitness>
12.1701

> <Gold.Chemscore.DG>
-12.9113

> <Gold.Chemscore.ZeroCoef>
-5.4800

> <Gold.Chemscore.Hbond>
0.9699

> <Gold.Chemscore.Metal>
0.0000

> <Gold.Chemscore.Lipo>
69.6280

> <Gold.Chemscore.Internal_Hbond>
0.0000

> <Gold.Chemscore.DEClash>
0.0940

> <Gold.Chemscore.DEInternal>
0.6471

> <Gold.Chemscore.Rot>
1.5448

> <Gold.Chemscore.Internal.Correction>
   9.000000E+99

> <Gold.Chemscore.Hbonds>
donor molecule, donor type, donor heavy atom, donor atom, acceptor molecule, acceptor atom, score
      P1  H  6896  6909       L1     4  0.86

> <Gold.Chemscore.Hbond.Weighted>
-3.2394

> <Gold.Chemscore.Metal.Weighted>
-0.0000

> <Gold.Chemscore.Lipo.Weighted>
-8.1465

> <Gold.Chemscore.Internal_Hbond.Weighted>
0.0000

> <Gold.Chemscore.DEClash.Weighted>
0.0940

> <Gold.Chemscore.DEInternal.Weighted>
0.6471

> <Gold.Chemscore.Rot.Weighted>
3.9546

> <Gold.Chemscore.Internal.Correction.Weighted>
   9.000000E+99

> <Gold.Protein.RotatedTorsions>
[ 6907 6896 6895 6894 ] final  -60.68 input  -60.11 | X-H torsion
[ 7974 7965 7964 7962 ] final  131.51 input  175.53 | X-H torsion
[ 8008 7997 7996 7995 ] final -129.33 input   59.86 | X-H torsion
[ 10167 10162 10161 10158 ] final -147.20 input  -65.29 | X-H torsion
[ 10718 10713 10712 10709 ] final   11.20 input   66.30 | X-H torsion
[ 10763 10752 10751 10750 ] final    1.65 input  -60.55 | X-H torsion
[ 11005 11000 10999 10996 ] final  -48.76 input  -57.11 | X-H torsion

> <Gold.Protein.ActiveResidues>
 VAL166  LYS551  ARG553  GLY616  TRP617  ASP618  TYR619  PRO620  LYS621  CYS622 
 ASP623  PHE694  ASN695  SER759  ASP760  ASP761  ALA762  ILE779  LEU786  VAL792 
 PHE793  MET794  SER795  GLU796  ALA797  LYS798  CYS799  TRP800  GLU811  SER814 

> <Gold.Protein.RotatedAtoms>
  150.7839  134.6805  159.6441 H   0  0  0  0  0  0  0  0  0  0  0  0  # atno 6907 bound_to 6896
  152.3930  134.6407  160.0109 H   0  0  0  0  0  0  0  0  0  0  0  0  # atno 6908 bound_to 6896
  151.6702  133.3277  159.3231 H   0  0  0  0  0  0  0  0  0  0  0  0  # atno 6909 bound_to 6896
  145.0065  139.4261  143.5266 H   0  0  0  0  0  0  0  0  0  0  0  0  # atno 7974 bound_to 7965
  155.2773  140.0442  157.3012 H   0  0  0  0  0  0  0  0  0  0  0  0  # atno 8008 bound_to 7997
  154.5617  140.2348  155.8293 H   0  0  0  0  0  0  0  0  0  0  0  0  # atno 8009 bound_to 7997
  156.2053  140.3014  155.9620 H   0  0  0  0  0  0  0  0  0  0  0  0  # atno 8010 bound_to 7997
  139.7644  143.8330  152.2613 H   0  0  0  0  0  0  0  0  0  0  0  0  # atno 10167 bound_to 10162
  156.9921  130.6046  149.5687 H   0  0  0  0  0  0  0  0  0  0  0  0  # atno 10718 bound_to 10713
  153.3053  135.6959  153.7165 H   0  0  0  0  0  0  0  0  0  0  0  0  # atno 10763 bound_to 10752
  153.6063  135.3452  155.2964 H   0  0  0  0  0  0  0  0  0  0  0  0  # atno 10764 bound_to 10752
  154.8561  135.4353  154.2176 H   0  0  0  0  0  0  0  0  0  0  0  0  # atno 10765 bound_to 10752
  141.0720  133.6676  156.3488 H   0  0  0  0  0  0  0  0  0  0  0  0  # atno 11005 bound_to 11000
  146.3462  139.9485  142.8732 LP  0  0  0  0  0  0  0  0  0  0  0  0  # atno 17320 bound_to 7965
  145.2081  140.9884  143.4116 LP  0  0  0  0  0  0  0  0  0  0  0  0  # atno 17321 bound_to 7965
  139.8345  144.7238  150.9408 LP  0  0  0  0  0  0  0  0  0  0  0  0  # atno 17342 bound_to 10162
  140.7809  143.4039  151.1103 LP  0  0  0  0  0  0  0  0  0  0  0  0  # atno 17343 bound_to 10162
  156.0203  130.5298  150.8256 LP  0  0  0  0  0  0  0  0  0  0  0  0  # atno 17370 bound_to 10713
  157.5451  131.0942  150.9773 LP  0  0  0  0  0  0  0  0  0  0  0  0  # atno 17371 bound_to 10713
  140.5654  134.5893  157.5444 LP  0  0  0  0  0  0  0  0  0  0  0  0  # atno 17394 bound_to 11000
  139.9533  134.7579  156.0399 LP  0  0  0  0  0  0  0  0  0  0  0  0  # atno 17395 bound_to 11000

$$$$
