AV-unprocessed.smi:2328|AV-procd|sdf|9301|dock9
  -GOLD-   2272012523D 1   1.00000     0.00000
 Structure written by MMmdl.
 40 40  0  0  0  0  0  0  0  0  1 V2000
  148.0084  141.5432  153.8339 C   0  0  0  0  0  0  0  0  0  0  0  0
  149.1399  141.2207  154.8329 C   0  0  0  0  0  0  0  0  0  0  0  0
  148.9143  140.0599  155.8667 C   0  0  2  0  0  0  0  0  0  0  0  0
  149.9451  140.1437  156.9265 N   0  0  0  0  0  0  0  0  0  0  0  0
  151.2929  140.0710  156.9198 C   0  0  0  0  0  0  0  0  0  0  0  0
  151.8857  139.9102  155.8541 O   0  0  0  0  0  0  0  0  0  0  0  0
  152.1054  140.1981  158.2209 C   0  0  0  0  0  0  0  0  0  0  0  0
  152.1209  141.6287  158.7337 C   0  0  0  0  0  0  0  0  0  0  0  0
  152.8095  141.9702  159.9164 C   0  0  0  0  0  0  0  0  0  0  0  0
  152.7925  143.3106  160.3479 C   0  0  0  0  0  0  0  0  0  0  0  0
  152.0861  144.2546  159.5760 C   0  0  0  0  0  0  0  0  0  0  0  0
  151.4228  143.9394  158.4426 N   0  0  0  0  0  0  0  0  0  0  0  0
  151.4438  142.6520  158.0362 C   0  0  0  0  0  0  0  0  0  0  0  0
  148.9385  138.6737  155.1504 C   0  0  0  0  0  0  0  0  0  0  0  0
  149.1889  138.6252  153.8364 N   0  0  0  0  0  0  0  0  0  0  0  0
  148.7577  137.6362  155.7832 O   0  0  0  0  0  0  0  0  0  0  0  0
  147.5287  140.2245  156.5942 C   0  0  0  0  0  0  0  0  0  0  0  0
  147.3797  141.5678  157.3450 C   0  0  0  0  0  0  0  0  0  0  0  0
  147.1877  139.0812  157.5805 C   0  0  0  0  0  0  0  0  0  0  0  0
  148.3048  142.3739  153.1933 H   0  0  0  0  0  0  0  0  0  0  0  0
  147.0875  141.8445  154.3309 H   0  0  0  0  0  0  0  0  0  0  0  0
  147.7772  140.7083  153.1752 H   0  0  0  0  0  0  0  0  0  0  0  0
  150.0169  141.0109  154.2242 H   0  0  0  0  0  0  0  0  0  0  0  0
  149.3845  142.1391  155.3680 H   0  0  0  0  0  0  0  0  0  0  0  0
  149.5547  140.3349  157.8378 H   0  0  0  0  0  0  0  0  0  0  0  0
  151.7006  139.5726  159.0136 H   0  0  0  0  0  0  0  0  0  0  0  0
  153.1271  139.8645  158.0367 H   0  0  0  0  0  0  0  0  0  0  0  0
  153.3429  141.2207  160.4826 H   0  0  0  0  0  0  0  0  0  0  0  0
  153.3091  143.6085  161.2481 H   0  0  0  0  0  0  0  0  0  0  0  0
  152.0526  145.2909  159.8780 H   0  0  0  0  0  0  0  0  0  0  0  0
  150.9051  142.4316  157.1261 H   0  0  0  0  0  0  0  0  0  0  0  0
  149.2019  137.7352  153.3595 H   0  0  0  0  0  0  0  0  0  0  0  0
  149.3582  139.4799  153.3261 H   0  0  0  0  0  0  0  0  0  0  0  0
  146.7445  140.1995  155.8369 H   0  0  0  0  0  0  0  0  0  0  0  0
  148.1063  141.6646  158.1521 H   0  0  0  0  0  0  0  0  0  0  0  0
  146.3890  141.6535  157.7918 H   0  0  0  0  0  0  0  0  0  0  0  0
  147.4990  142.4286  156.6889 H   0  0  0  0  0  0  0  0  0  0  0  0
  147.9237  139.0022  158.3811 H   0  0  0  0  0  0  0  0  0  0  0  0
  147.1252  138.1110  157.0881 H   0  0  0  0  0  0  0  0  0  0  0  0
  146.2182  139.2503  158.0497 H   0  0  0  0  0  0  0  0  0  0  0  0
  1  2  1  0  0  0  0
  1 20  1  0  0  0  0
  1 21  1  0  0  0  0
  1 22  1  0  0  0  0
  2  3  1  0  0  0  0
  2 23  1  0  0  0  0
  2 24  1  0  0  0  0
  3  4  1  0  0  0  0
  3 14  1  0  0  0  0
  3 17  1  0  0  0  0
  4  5  1  0  0  0  0
  4 25  1  0  0  0  0
  5  6  2  0  0  0  0
  5  7  1  0  0  0  0
  7  8  1  0  0  0  0
  7 26  1  0  0  0  0
  7 27  1  0  0  0  0
  8 13  1  0  0  0  0
  8  9  2  0  0  0  0
  9 10  1  0  0  0  0
  9 28  1  0  0  0  0
 10 11  2  0  0  0  0
 10 29  1  0  0  0  0
 11 12  1  0  0  0  0
 11 30  1  0  0  0  0
 12 13  2  0  0  0  0
 13 31  1  0  0  0  0
 14 15  1  0  0  0  0
 14 16  2  0  0  0  0
 15 32  1  0  0  0  0
 15 33  1  0  0  0  0
 17 18  1  0  0  0  0
 17 19  1  0  0  0  0
 17 34  1  0  0  0  0
 18 35  1  0  0  0  0
 18 36  1  0  0  0  0
 18 37  1  0  0  0  0
 19 38  1  0  0  0  0
 19 39  1  0  0  0  0
 19 40  1  0  0  0  0
M  END
> <s_m_source_file>
AV-unprocessed.smi

> <i_m_source_file_index>
2328

> <i_lp_mmshare_version>
43012

> <i_f3d_flags>
0

> <s_epik_input>
W0NIM11bQ0gyXVtDQEBdKEMoPU8pW05IMl0pKFtDSF0oW0NIM10pW0NIM10pW05IXUMoPU8pW0NIMl1jMVtjSF1bY0hdW2NIXW5bY0hdMQ==

> <s_epik_cmdline>
J2VwaWtfcHl0aG9uJywgJy1waCcsICc3LjAnLCAnLXRuJywgJzgnLCAnLW1hJywgJzIwMCcsICctbWV0YWxfYmluZGluZycsICctaW1hZScsICc8aW5maWxlLm1hZT4nLCAnLW9tYWUnLCAnPG91dGZpbGUubWFlPic=

> <r_epik_Ionization_Penalty>
0.00378489

> <r_epik_Ionization_Penalty_Charging>
0

> <r_epik_Ionization_Penalty_Neutral>
0.00378489

> <r_epik_State_Penalty>
0.00269972

> <r_epik_Charging_Adjusted_Penalty>
0.00269972

> <i_epik_Tot_Q>
0

> <i_epik_Tot_abs_Q>
0

> <r_epik_Metal_State_Penalty>
-0

> <b_epik_Metal_Only>
0

> <s_lp_Force_Field>
OPLS_2005

> <r_lp_Energy>
16.0565

> <b_lp_Chiralities_Consistent>
1

> <s_lp_Variant>
AV-unprocessed.smi:2328-2

> <Gold.Version>
5.8.1

> <Gold.Id.Protein>
6NUR|6NUR_protein|mol2

> <Gold.PLP.Fitness>
41.9943

> <Gold.PLP.PLP>
-33.9182

> <Gold.PLP.part.hbond>
-3.0000

> <Gold.PLP.part.metal>
0.0000

> <Gold.PLP.part.buried>
-6.6283

> <Gold.PLP.part.nonpolar>
-24.4427

> <Gold.PLP.part.repulsive>
0.3272

> <Gold.PLP.ligand.clash>
0.0000

> <Gold.PLP.ligand.torsion>
0.2985

> <Gold.PLP.Chemscore.Hbond>
2.6640

> <Gold.PLP.Chemscore.CHOScore>
0.1782

> <Gold.PLP.Chemscore.Metal>
0.0000

> <Gold.Chemscore.Hbonds>
donor molecule, donor type, donor heavy atom, donor atom, acceptor molecule, acceptor atom, score
      L1  H    15    32       P1  7948  0.80
      L1  H    15    33       P1  7957  0.32

> <Gold.PLP.Chemscore.Internal.Correction>
0.1466

> <Gold.Rescore>
     Score         DG    S(hbond)    S(metal)    S(lipo)     H(rot)  DE(clash)    DE(int)     intcor
     16.75     -18.68       2.87        0.00      81.01       2.29       0.18       1.75       ----

> <Gold.Chemscore.Fitness>
16.7501

> <Gold.Chemscore.DG>
-18.6821

> <Gold.Chemscore.ZeroCoef>
-5.4800

> <Gold.Chemscore.Hbond>
2.8717

> <Gold.Chemscore.Metal>
0.0000

> <Gold.Chemscore.Lipo>
81.0105

> <Gold.Chemscore.Internal_Hbond>
0.0000

> <Gold.Chemscore.DEClash>
0.1782

> <Gold.Chemscore.DEInternal>
1.7538

> <Gold.Chemscore.Rot>
2.2921

> <Gold.Chemscore.Internal.Correction>
   9.000000E+99

> <Gold.Chemscore.Hbonds>
donor molecule, donor type, donor heavy atom, donor atom, acceptor molecule, acceptor atom, score
      L1  H    15    32       P1  7948  0.78
      L1  H    15    33       P1  7957  0.32

> <Gold.Chemscore.Hbond.Weighted>
-9.5916

> <Gold.Chemscore.Metal.Weighted>
-0.0000

> <Gold.Chemscore.Lipo.Weighted>
-9.4782

> <Gold.Chemscore.Internal_Hbond.Weighted>
0.0000

> <Gold.Chemscore.DEClash.Weighted>
0.1782

> <Gold.Chemscore.DEInternal.Weighted>
1.7538

> <Gold.Chemscore.Rot.Weighted>
5.8677

> <Gold.Chemscore.Internal.Correction.Weighted>
   9.000000E+99

> <Gold.Protein.RotatedTorsions>
[ 6907 6896 6895 6894 ] final    8.93 input  -60.11 | X-H torsion
[ 7974 7965 7964 7962 ] final -176.29 input  175.53 | X-H torsion
[ 8008 7997 7996 7995 ] final -175.07 input   59.86 | X-H torsion
[ 10167 10162 10161 10158 ] final  -47.50 input  -65.29 | X-H torsion
[ 10718 10713 10712 10709 ] final -161.89 input   66.30 | X-H torsion
[ 10763 10752 10751 10750 ] final -165.99 input  -60.55 | X-H torsion
[ 11005 11000 10999 10996 ] final  -68.10 input  -57.11 | X-H torsion

> <Gold.Protein.ActiveResidues>
 VAL166  LYS551  ARG553  GLY616  TRP617  ASP618  TYR619  PRO620  LYS621  CYS622 
 ASP623  PHE694  ASN695  SER759  ASP760  ASP761  ALA762  ILE779  LEU786  VAL792 
 PHE793  MET794  SER795  GLU796  ALA797  LYS798  CYS799  TRP800  GLU811  SER814 

> <Gold.Protein.RotatedAtoms>
  151.7140  135.0907  160.0272 H   0  0  0  0  0  0  0  0  0  0  0  0  # atno 6907 bound_to 6896
  152.3643  133.6333  159.6047 H   0  0  0  0  0  0  0  0  0  0  0  0  # atno 6908 bound_to 6896
  150.7627  133.9289  159.3462 H   0  0  0  0  0  0  0  0  0  0  0  0  # atno 6909 bound_to 6896
  144.7127  140.1192  143.6406 H   0  0  0  0  0  0  0  0  0  0  0  0  # atno 7974 bound_to 7965
  155.9779  140.1176  157.0753 H   0  0  0  0  0  0  0  0  0  0  0  0  # atno 8008 bound_to 7997
  154.4174  140.1150  156.5463 H   0  0  0  0  0  0  0  0  0  0  0  0  # atno 8009 bound_to 7997
  155.6509  140.3473  155.4750 H   0  0  0  0  0  0  0  0  0  0  0  0  # atno 8010 bound_to 7997
  140.6772  143.2781  151.3936 H   0  0  0  0  0  0  0  0  0  0  0  0  # atno 10167 bound_to 10162
  156.6026  130.8817  151.2917 H   0  0  0  0  0  0  0  0  0  0  0  0  # atno 10718 bound_to 10713
  154.6878  135.2965  154.9523 H   0  0  0  0  0  0  0  0  0  0  0  0  # atno 10763 bound_to 10752
  154.0497  135.6646  153.4803 H   0  0  0  0  0  0  0  0  0  0  0  0  # atno 10764 bound_to 10752
  153.0591  135.5127  154.7954 H   0  0  0  0  0  0  0  0  0  0  0  0  # atno 10765 bound_to 10752
  141.1524  133.6733  156.6394 H   0  0  0  0  0  0  0  0  0  0  0  0  # atno 11005 bound_to 11000
  145.9386  139.2654  143.1282 LP  0  0  0  0  0  0  0  0  0  0  0  0  # atno 17320 bound_to 7965
  145.9447  140.8953  143.0289 LP  0  0  0  0  0  0  0  0  0  0  0  0  # atno 17321 bound_to 7965
  139.6071  144.1174  152.2261 LP  0  0  0  0  0  0  0  0  0  0  0  0  # atno 17342 bound_to 10162
  140.0576  144.5882  150.7287 LP  0  0  0  0  0  0  0  0  0  0  0  0  # atno 17343 bound_to 10162
  157.7275  130.9644  150.1704 LP  0  0  0  0  0  0  0  0  0  0  0  0  # atno 17370 bound_to 10713
  156.2456  130.3695  149.8288 LP  0  0  0  0  0  0  0  0  0  0  0  0  # atno 17371 bound_to 10713
  140.3405  134.7853  157.4394 LP  0  0  0  0  0  0  0  0  0  0  0  0  # atno 17394 bound_to 11000
  140.0942  134.5560  155.8415 LP  0  0  0  0  0  0  0  0  0  0  0  0  # atno 17395 bound_to 11000

$$$$
