AV-unprocessed.smi:2504|AV-procd|sdf|9852|dock10
  -GOLD-   2272013483D 1   1.00000     0.00000
 Structure written by MMmdl.
 46 48  0  0  0  0  0  0  0  0  3 V2000
  149.9804  143.1759  158.3546 O   0  0  0  0  0  0  0  0  0  0  0  0
  151.0965  142.7466  158.0604 C   0  0  0  0  0  0  0  0  0  0  0  0
  152.3695  143.3974  158.6409 C   0  0  0  0  0  0  0  0  0  0  0  0
  153.0300  142.5140  159.7094 C   0  0  0  0  0  0  0  0  0  0  0  0
  152.3511  142.8965  161.0259 C   0  0  0  0  0  0  0  0  0  0  0  0
  151.9818  144.3773  160.8826 C   0  0  0  0  0  0  0  0  0  0  0  0
  152.0752  144.7136  159.3852 C   0  0  0  0  0  0  0  0  0  0  0  0
  151.2507  141.6109  157.2614 N   0  0  0  0  0  0  0  0  0  0  0  0
  150.1959  140.6145  157.1281 C   0  0  0  0  0  0  0  0  0  0  0  0
  151.3266  139.5884  156.9608 C   0  0  0  0  0  0  0  0  0  0  0  0
  151.6386  139.0012  155.2232 S   0  0  0  0  0  0  0  0  0  0  0  0
  151.3146  137.5648  155.2356 O   0  0  0  0  0  0  0  0  0  0  0  0
  150.8296  139.8665  154.3506 O   0  0  0  0  0  0  0  0  0  0  0  0
  153.2264  139.2762  155.0416 N   0  5  0  0  0  0  0  0  0  0  0  0
  154.0374  138.3876  154.2299 C   0  0  0  0  0  0  0  0  0  0  0  0
  155.5328  138.6717  154.4921 C   0  0  0  0  0  0  0  0  0  0  0  0
  156.4891  137.8445  153.6366 C   0  0  0  0  0  0  0  0  0  0  0  0
  157.3077  136.8531  154.2277 C   0  0  0  0  0  0  0  0  0  0  0  0
  158.1734  136.0921  153.4161 C   0  0  0  0  0  0  0  0  0  0  0  0
  158.2054  136.3377  152.0289 C   0  0  0  0  0  0  0  0  0  0  0  0
  157.4163  137.2969  151.4976 N   0  3  0  0  0  0  0  0  0  0  0  0
  156.5761  138.0498  152.2408 C   0  0  0  0  0  0  0  0  0  0  0  0
  152.3237  140.6450  157.4547 C   0  0  0  0  0  0  0  0  0  0  0  0
  153.0665  143.5945  157.8255 H   0  0  0  0  0  0  0  0  0  0  0  0
  152.9413  141.4461  159.5049 H   0  0  0  0  0  0  0  0  0  0  0  0
  154.0945  142.7452  159.7632 H   0  0  0  0  0  0  0  0  0  0  0  0
  151.4438  142.3048  161.1544 H   0  0  0  0  0  0  0  0  0  0  0  0
  152.9877  142.7073  161.8906 H   0  0  0  0  0  0  0  0  0  0  0  0
  150.9809  144.5654  161.2721 H   0  0  0  0  0  0  0  0  0  0  0  0
  152.6730  145.0018  161.4496 H   0  0  0  0  0  0  0  0  0  0  0  0
  152.8945  145.4144  159.2209 H   0  0  0  0  0  0  0  0  0  0  0  0
  151.1690  145.2069  159.0299 H   0  0  0  0  0  0  0  0  0  0  0  0
  149.6217  140.4655  158.0442 H   0  0  0  0  0  0  0  0  0  0  0  0
  149.5560  140.7570  156.2570 H   0  0  0  0  0  0  0  0  0  0  0  0
  151.2428  138.7355  157.6346 H   0  0  0  0  0  0  0  0  0  0  0  0
  153.8404  137.3389  154.4548 H   0  0  0  0  0  0  0  0  0  0  0  0
  153.8303  138.5117  153.1671 H   0  0  0  0  0  0  0  0  0  0  0  0
  155.7345  139.7280  154.3118 H   0  0  0  0  0  0  0  0  0  0  0  0
  155.7609  138.5015  155.5454 H   0  0  0  0  0  0  0  0  0  0  0  0
  157.2617  136.6678  155.2913 H   0  0  0  0  0  0  0  0  0  0  0  0
  158.8002  135.3291  153.8526 H   0  0  0  0  0  0  0  0  0  0  0  0
  158.8338  135.8001  151.3339 H   0  0  0  0  0  0  0  0  0  0  0  0
  155.9924  138.7802  151.6997 H   0  0  0  0  0  0  0  0  0  0  0  0
  153.1835  140.8109  156.8045 H   0  0  0  0  0  0  0  0  0  0  0  0
  152.6076  140.5020  158.4980 H   0  0  0  0  0  0  0  0  0  0  0  0
  157.4538  137.4583  150.4911 H   0  0  0  0  0  0  0  0  0  0  0  0
  1  2  2  0  0  0  0
  2  3  1  0  0  0  0
  2  8  1  0  0  0  0
  3  7  1  0  0  0  0
  3  4  1  0  0  0  0
  3 24  1  0  0  0  0
  4  5  1  0  0  0  0
  4 25  1  0  0  0  0
  4 26  1  0  0  0  0
  5  6  1  0  0  0  0
  5 27  1  0  0  0  0
  5 28  1  0  0  0  0
  6  7  1  0  0  0  0
  6 29  1  0  0  0  0
  6 30  1  0  0  0  0
  7 31  1  0  0  0  0
  7 32  1  0  0  0  0
  8 23  1  0  0  0  0
  8  9  1  0  0  0  0
  9 10  1  0  0  0  0
  9 33  1  0  0  0  0
  9 34  1  0  0  0  0
 10 11  1  0  0  0  0
 10 23  1  0  0  0  0
 10 35  1  0  0  0  0
 11 12  2  0  0  0  0
 11 13  2  0  0  0  0
 11 14  1  0  0  0  0
 14 15  1  0  0  0  0
 15 16  1  0  0  0  0
 15 36  1  0  0  0  0
 15 37  1  0  0  0  0
 16 17  1  0  0  0  0
 16 38  1  0  0  0  0
 16 39  1  0  0  0  0
 17 22  1  0  0  0  0
 17 18  2  0  0  0  0
 18 19  1  0  0  0  0
 18 40  1  0  0  0  0
 19 20  2  0  0  0  0
 19 41  1  0  0  0  0
 20 21  1  0  0  0  0
 20 42  1  0  0  0  0
 21 22  2  0  0  0  0
 21 46  1  0  0  0  0
 22 43  1  0  0  0  0
 23 44  1  0  0  0  0
 23 45  1  0  0  0  0
M  CHG  1  14  -1
M  CHG  1  21   1
M  END
> <s_m_source_file>
AV-unprocessed.smi

> <i_m_source_file_index>
2504

> <i_lp_mmshare_version>
43012

> <i_f3d_flags>
0

> <s_epik_input>
W0NIMl0xW0NIMl1bQ0gyXVtDSDJdW0NIXTFDKD1PKU4yW0NIMl1bQ0hdKFtDSDJdMilTKD1PKSg9TylbTkhdW0NIMl1bQ0gyXWMzW2NIXVtjSF1bY0hdbltjSF0z

> <s_epik_cmdline>
J2VwaWtfcHl0aG9uJywgJy1waCcsICc3LjAnLCAnLXRuJywgJzgnLCAnLW1hJywgJzIwMCcsICctbWV0YWxfYmluZGluZycsICctaW1hZScsICc8aW5maWxlLm1hZT4nLCAnLW9tYWUnLCAnPG91dGZpbGUubWFlPic=

> <r_epik_Ionization_Penalty>
7.23206

> <r_epik_Ionization_Penalty_Charging>
7.23206

> <r_epik_Ionization_Penalty_Neutral>
2.37876e-07

> <r_epik_State_Penalty>
7.91796

> <r_epik_Charging_Adjusted_Penalty>
15.15

> <i_epik_Tot_Q>
0

> <i_epik_Tot_abs_Q>
2

> <r_epik_Metal_State_Penalty>
3.92928

> <b_epik_Metal_Only>
1

> <s_lp_Force_Field>
OPLS_2005

> <r_lp_Energy>
37.1942

> <b_lp_Chiralities_Consistent>
1

> <s_lp_Variant>
AV-unprocessed.smi:2504-4

> <Gold.Version>
5.8.1

> <Gold.Id.Protein>
6NUR|6NUR_protein|mol2

> <Gold.PLP.Fitness>
55.7257

> <Gold.PLP.PLP>
-45.1639

> <Gold.PLP.part.hbond>
-3.0640

> <Gold.PLP.part.metal>
0.0000

> <Gold.PLP.part.buried>
-1.3035

> <Gold.PLP.part.nonpolar>
-41.6194

> <Gold.PLP.part.repulsive>
0.3858

> <Gold.PLP.ligand.clash>
0.0000

> <Gold.PLP.ligand.torsion>
1.8656

> <Gold.PLP.Chemscore.Hbond>
4.0000

> <Gold.PLP.Chemscore.CHOScore>
0.0000

> <Gold.PLP.Chemscore.Metal>
0.0000

> <Gold.Chemscore.Hbonds>
donor molecule, donor type, donor heavy atom, donor atom, acceptor molecule, acceptor atom, score
      L1  H    21    46       P1 10674  1.00
      P1  H  7989  7998       L1    13  1.00
      P1  H  7997  8010       L1    14  2.00

> <Gold.PLP.Chemscore.Internal.Correction>
2.2930

> <Gold.Rescore>
     Score         DG    S(hbond)    S(metal)    S(lipo)     H(rot)  DE(clash)    DE(int)     intcor
     23.30     -27.49       2.62        0.00     151.00       1.72       1.95       2.25       ----

> <Gold.Chemscore.Fitness>
23.2975

> <Gold.Chemscore.DG>
-27.4943

> <Gold.Chemscore.ZeroCoef>
-5.4800

> <Gold.Chemscore.Hbond>
2.6168

> <Gold.Chemscore.Metal>
0.0000

> <Gold.Chemscore.Lipo>
150.9951

> <Gold.Chemscore.Internal_Hbond>
0.0000

> <Gold.Chemscore.DEClash>
1.9467

> <Gold.Chemscore.DEInternal>
2.2500

> <Gold.Chemscore.Rot>
1.7158

> <Gold.Chemscore.Internal.Correction>
   9.000000E+99

> <Gold.Chemscore.Hbonds>
donor molecule, donor type, donor heavy atom, donor atom, acceptor molecule, acceptor atom, score
      L1  H    21    46       P1 10674  0.98
      P1  H  7989  7998       L1    13  0.86
      P1  H  7997  8010       L1    14  0.30

> <Gold.Chemscore.Hbond.Weighted>
-8.7402

> <Gold.Chemscore.Metal.Weighted>
-0.0000

> <Gold.Chemscore.Lipo.Weighted>
-17.6664

> <Gold.Chemscore.Internal_Hbond.Weighted>
0.0000

> <Gold.Chemscore.DEClash.Weighted>
1.9467

> <Gold.Chemscore.DEInternal.Weighted>
2.2500

> <Gold.Chemscore.Rot.Weighted>
4.3924

> <Gold.Chemscore.Internal.Correction.Weighted>
   9.000000E+99

> <Gold.Protein.RotatedTorsions>
[ 6907 6896 6895 6894 ] final  -17.74 input  -60.11 | X-H torsion
[ 7974 7965 7964 7962 ] final   -1.05 input  175.53 | X-H torsion
[ 8008 7997 7996 7995 ] final  105.62 input   59.86 | X-H torsion
[ 10167 10162 10161 10158 ] final -144.48 input  -65.29 | X-H torsion
[ 10718 10713 10712 10709 ] final   20.71 input   66.30 | X-H torsion
[ 10763 10752 10751 10750 ] final  -71.86 input  -60.55 | X-H torsion
[ 11005 11000 10999 10996 ] final   -2.47 input  -57.11 | X-H torsion

> <Gold.Protein.ActiveResidues>
 VAL166  LYS551  ARG553  GLY616  TRP617  ASP618  TYR619  PRO620  LYS621  CYS622 
 ASP623  PHE694  ASN695  SER759  ASP760  ASP761  ALA762  ILE779  LEU786  VAL792 
 PHE793  MET794  SER795  GLU796  ALA797  LYS798  CYS799  TRP800  GLU811  SER814 

> <Gold.Protein.RotatedAtoms>
  151.2888  135.0736  159.9196 H   0  0  0  0  0  0  0  0  0  0  0  0  # atno 6907 bound_to 6896
  152.5320  133.9953  159.7880 H   0  0  0  0  0  0  0  0  0  0  0  0  # atno 6908 bound_to 6896
  151.0220  133.5817  159.2701 H   0  0  0  0  0  0  0  0  0  0  0  0  # atno 6909 bound_to 6896
  146.2421  140.1362  142.8336 H   0  0  0  0  0  0  0  0  0  0  0  0  # atno 7974 bound_to 7965
  156.1674  140.3127  155.8913 H   0  0  0  0  0  0  0  0  0  0  0  0  # atno 8008 bound_to 7997
  155.3657  140.0479  157.3063 H   0  0  0  0  0  0  0  0  0  0  0  0  # atno 8009 bound_to 7997
  154.5206  140.2197  155.8993 H   0  0  0  0  0  0  0  0  0  0  0  0  # atno 8010 bound_to 7997
  139.7895  143.7986  152.2648 H   0  0  0  0  0  0  0  0  0  0  0  0  # atno 10167 bound_to 10162
  157.1283  130.6579  149.5944 H   0  0  0  0  0  0  0  0  0  0  0  0  # atno 10718 bound_to 10713
  154.4376  135.5948  153.6108 H   0  0  0  0  0  0  0  0  0  0  0  0  # atno 10763 bound_to 10752
  152.9803  135.5990  154.3762 H   0  0  0  0  0  0  0  0  0  0  0  0  # atno 10764 bound_to 10752
  154.3608  135.2841  155.2300 H   0  0  0  0  0  0  0  0  0  0  0  0  # atno 10765 bound_to 10752
  140.6587  133.9340  155.8423 H   0  0  0  0  0  0  0  0  0  0  0  0  # atno 11005 bound_to 11000
  145.0285  140.8851  143.5124 LP  0  0  0  0  0  0  0  0  0  0  0  0  # atno 17320 bound_to 7965
  145.1422  139.2565  143.5484 LP  0  0  0  0  0  0  0  0  0  0  0  0  # atno 17321 bound_to 7965
  139.8073  144.7350  150.9744 LP  0  0  0  0  0  0  0  0  0  0  0  0  # atno 17342 bound_to 10162
  140.7820  143.4285  151.0731 LP  0  0  0  0  0  0  0  0  0  0  0  0  # atno 17343 bound_to 10162
  155.9813  130.4820  150.6822 LP  0  0  0  0  0  0  0  0  0  0  0  0  # atno 17370 bound_to 10713
  157.4415  131.0862  151.0938 LP  0  0  0  0  0  0  0  0  0  0  0  0  # atno 17371 bound_to 10713
  141.0482  134.0523  157.3817 LP  0  0  0  0  0  0  0  0  0  0  0  0  # atno 17394 bound_to 11000
  139.9020  135.0168  156.7315 LP  0  0  0  0  0  0  0  0  0  0  0  0  # atno 17395 bound_to 11000

$$$$
