AV-unprocessed.smi:3337|AV-procd|sdf|12867|dock7
  -GOLD-   2272019263D 1   1.00000     0.00000
 Structure written by MMmdl.
 46 47  0  0  0  0  0  0  0  0  2 V2000
  147.3546  132.2842  153.4489 C   0  0  0  0  0  0  0  0  0  0  0  0
  145.8935  132.4265  152.9994 C   0  0  2  0  0  0  0  0  0  0  0  0
  145.7562  132.2610  151.4771 C   0  0  0  0  0  0  0  0  0  0  0  0
  144.2896  132.4241  151.0451 C   0  0  2  0  0  0  0  0  0  0  0  0
  144.1354  132.2853  149.5238 C   0  0  0  0  0  0  0  0  0  0  0  0
  143.7332  133.7704  151.5470 C   0  0  0  0  0  0  0  0  0  0  0  0
  143.8750  133.9053  153.0203 N   0  3  2  0  0  0  0  0  0  0  0  0
  143.2169  135.1360  153.5282 C   0  0  0  0  0  0  0  0  0  0  0  0
  141.7368  135.2384  153.1109 C   0  0  0  0  0  0  0  0  0  0  0  0
  140.9208  135.7889  154.1865 N   0  0  0  0  0  0  0  0  0  0  0  0
  140.2424  136.9464  154.1213 C   0  0  0  0  0  0  0  0  0  0  0  0
  140.2516  137.6677  153.1230 O   0  0  0  0  0  0  0  0  0  0  0  0
  139.4524  137.3496  155.3790 C   0  0  1  0  0  0  0  0  0  0  0  0
  139.9685  138.6517  156.0245 C   0  0  0  0  0  0  0  0  0  0  0  0
  138.0244  137.4166  155.0924 N   0  0  0  0  0  0  0  0  0  0  0  0
  137.3779  137.3388  153.9272 C   0  0  0  0  0  0  0  0  0  0  0  0
  136.0635  137.4759  154.0304 N   0  0  0  0  0  0  0  0  0  0  0  0
  135.9578  137.6521  155.3811 C   0  0  0  0  0  0  0  0  0  0  0  0
  137.1028  137.6358  156.0633 N   0  0  0  0  0  0  0  0  0  0  0  0
  145.2942  133.7745  153.4462 C   0  0  0  0  0  0  0  0  0  0  0  0
  147.9840  133.0550  153.0029 H   0  0  0  0  0  0  0  0  0  0  0  0
  147.7616  131.3148  153.1599 H   0  0  0  0  0  0  0  0  0  0  0  0
  147.4433  132.3676  154.5323 H   0  0  0  0  0  0  0  0  0  0  0  0
  145.3245  131.6285  153.4791 H   0  0  0  0  0  0  0  0  0  0  0  0
  146.3772  132.9993  150.9669 H   0  0  0  0  0  0  0  0  0  0  0  0
  146.1264  131.2807  151.1741 H   0  0  0  0  0  0  0  0  0  0  0  0
  143.7089  131.6249  151.5084 H   0  0  0  0  0  0  0  0  0  0  0  0
  144.6968  133.0567  148.9956 H   0  0  0  0  0  0  0  0  0  0  0  0
  143.0907  132.3706  149.2245 H   0  0  0  0  0  0  0  0  0  0  0  0
  144.4977  131.3164  149.1791 H   0  0  0  0  0  0  0  0  0  0  0  0
  144.2452  134.6001  151.0563 H   0  0  0  0  0  0  0  0  0  0  0  0
  142.6791  133.8435  151.2754 H   0  0  0  0  0  0  0  0  0  0  0  0
  143.3176  135.1878  154.6136 H   0  0  0  0  0  0  0  0  0  0  0  0
  143.7439  136.0041  153.1299 H   0  0  0  0  0  0  0  0  0  0  0  0
  141.6322  135.8472  152.2110 H   0  0  0  0  0  0  0  0  0  0  0  0
  141.3298  134.2568  152.8712 H   0  0  0  0  0  0  0  0  0  0  0  0
  140.8598  135.2499  155.0384 H   0  0  0  0  0  0  0  0  0  0  0  0
  139.5948  136.5508  156.1086 H   0  0  0  0  0  0  0  0  0  0  0  0
  141.0215  138.5682  156.2956 H   0  0  0  0  0  0  0  0  0  0  0  0
  139.4156  138.8780  156.9365 H   0  0  0  0  0  0  0  0  0  0  0  0
  139.8656  139.5079  155.3565 H   0  0  0  0  0  0  0  0  0  0  0  0
  137.8792  137.1820  152.9833 H   0  0  0  0  0  0  0  0  0  0  0  0
  135.0091  137.8025  155.8751 H   0  0  0  0  0  0  0  0  0  0  0  0
  145.3684  133.8460  154.5304 H   0  0  0  0  0  0  0  0  0  0  0  0
  145.8750  134.6023  153.0357 H   0  0  0  0  0  0  0  0  0  0  0  0
  143.3729  133.1267  153.4226 H   0  0  0  0  0  0  0  0  0  0  0  0
  1  2  1  0  0  0  0
  1 21  1  0  0  0  0
  1 22  1  0  0  0  0
  1 23  1  0  0  0  0
  2 20  1  0  0  0  0
  2  3  1  0  0  0  0
  2 24  1  0  0  0  0
  3  4  1  0  0  0  0
  3 25  1  0  0  0  0
  3 26  1  0  0  0  0
  4  5  1  0  0  0  0
  4  6  1  0  0  0  0
  4 27  1  0  0  0  0
  5 28  1  0  0  0  0
  5 29  1  0  0  0  0
  5 30  1  0  0  0  0
  6  7  1  0  0  0  0
  6 31  1  0  0  0  0
  6 32  1  0  0  0  0
  7  8  1  0  0  0  0
  7 20  1  0  0  0  0
  7 46  1  0  0  0  0
  8  9  1  0  0  0  0
  8 33  1  0  0  0  0
  8 34  1  0  0  0  0
  9 10  1  0  0  0  0
  9 35  1  0  0  0  0
  9 36  1  0  0  0  0
 10 11  1  0  0  0  0
 10 37  1  0  0  0  0
 11 12  2  0  0  0  0
 11 13  1  0  0  0  0
 13 14  1  0  0  0  0
 13 15  1  0  0  0  0
 13 38  1  0  0  0  0
 14 39  1  0  0  0  0
 14 40  1  0  0  0  0
 14 41  1  0  0  0  0
 15 19  1  0  0  0  0
 15 16  1  0  0  0  0
 16 17  2  0  0  0  0
 16 42  1  0  0  0  0
 17 18  1  0  0  0  0
 18 19  2  0  0  0  0
 18 43  1  0  0  0  0
 20 44  1  0  0  0  0
 20 45  1  0  0  0  0
M  CHG  1   7   1
M  END
> <s_m_source_file>
AV-unprocessed.smi

> <i_m_source_file_index>
3337

> <i_lp_mmshare_version>
43012

> <i_f3d_flags>
0

> <s_epik_input>
W0NIM11bQ0BASF0xW0NIMl1bQ0BASF0oW0NIM10pW0NIMl1OKFtDSDJdMSlbQ0gyXVtDSDJdW05IXUMoPU8pW0NASF0oW0NIM10pbjJbY0hdbltjSF1uMg==

> <s_epik_cmdline>
J2VwaWtfcHl0aG9uJywgJy1waCcsICc3LjAnLCAnLXRuJywgJzgnLCAnLW1hJywgJzIwMCcsICctbWV0YWxfYmluZGluZycsICctaW1hZScsICc8aW5maWxlLm1hZT4nLCAnLW9tYWUnLCAnPG91dGZpbGUubWFlPic=

> <r_lp_tautomer_probability>
1

> <r_epik_Ionization_Penalty>
0.00175613

> <r_epik_Ionization_Penalty_Charging>
0.00174812

> <r_epik_Ionization_Penalty_Neutral>
8.01354e-06

> <r_epik_State_Penalty>
0.00118332

> <r_epik_Charging_Adjusted_Penalty>
0.00293143

> <i_epik_Tot_Q>
1

> <i_epik_Tot_abs_Q>
1

> <r_epik_Metal_State_Penalty>
-0

> <b_epik_Metal_Only>
0

> <s_lp_Force_Field>
OPLS_2005

> <r_lp_Energy>
22.1533

> <b_lp_Chiralities_Consistent>
1

> <s_lp_Variant>
AV-unprocessed.smi:3337-7

> <Gold.Version>
5.8.1

> <Gold.Id.Protein>
6NUR|6NUR_protein|mol2

> <Gold.PLP.Fitness>
41.3903

> <Gold.PLP.PLP>
-32.9556

> <Gold.PLP.part.hbond>
-2.0000

> <Gold.PLP.part.metal>
0.0000

> <Gold.PLP.part.buried>
-6.6331

> <Gold.PLP.part.nonpolar>
-25.2414

> <Gold.PLP.part.repulsive>
0.3547

> <Gold.PLP.ligand.clash>
0.0000

> <Gold.PLP.ligand.torsion>
0.3578

> <Gold.PLP.Chemscore.Hbond>
3.0000

> <Gold.PLP.Chemscore.CHOScore>
0.0000

> <Gold.PLP.Chemscore.Metal>
0.0000

> <Gold.Chemscore.Hbonds>
donor molecule, donor type, donor heavy atom, donor atom, acceptor molecule, acceptor atom, score
      L1  H     7    46       P1 10957  1.92
      L1  H    10    37       P1 11000  1.00

> <Gold.PLP.Chemscore.Internal.Correction>
0.1504

> <Gold.Rescore>
     Score         DG    S(hbond)    S(metal)    S(lipo)     H(rot)  DE(clash)    DE(int)     intcor
     11.52     -12.22       1.94        0.00      57.09       2.51       0.10       0.60       ----

> <Gold.Chemscore.Fitness>
11.5207

> <Gold.Chemscore.DG>
-12.2217

> <Gold.Chemscore.ZeroCoef>
-5.4800

> <Gold.Chemscore.Hbond>
1.9446

> <Gold.Chemscore.Metal>
0.0000

> <Gold.Chemscore.Lipo>
57.0930

> <Gold.Chemscore.Internal_Hbond>
0.0000

> <Gold.Chemscore.DEClash>
0.0998

> <Gold.Chemscore.DEInternal>
0.6012

> <Gold.Chemscore.Rot>
2.5129

> <Gold.Chemscore.Internal.Correction>
   9.000000E+99

> <Gold.Chemscore.Hbonds>
donor molecule, donor type, donor heavy atom, donor atom, acceptor molecule, acceptor atom, score
      L1  H     7    46       P1 10957  0.82
      L1  H    10    37       P1 11000  0.70

> <Gold.Chemscore.Hbond.Weighted>
-6.4949

> <Gold.Chemscore.Metal.Weighted>
-0.0000

> <Gold.Chemscore.Lipo.Weighted>
-6.6799

> <Gold.Chemscore.Internal_Hbond.Weighted>
0.0000

> <Gold.Chemscore.DEClash.Weighted>
0.0998

> <Gold.Chemscore.DEInternal.Weighted>
0.6012

> <Gold.Chemscore.Rot.Weighted>
6.4331

> <Gold.Chemscore.Internal.Correction.Weighted>
   9.000000E+99

> <Gold.Protein.RotatedTorsions>
[ 6907 6896 6895 6894 ] final   51.57 input  -60.11 | X-H torsion
[ 7974 7965 7964 7962 ] final  146.93 input  175.53 | X-H torsion
[ 8008 7997 7996 7995 ] final -171.92 input   59.86 | X-H torsion
[ 10167 10162 10161 10158 ] final -119.16 input  -65.29 | X-H torsion
[ 10718 10713 10712 10709 ] final  101.19 input   66.30 | X-H torsion
[ 10763 10752 10751 10750 ] final -116.30 input  -60.55 | X-H torsion
[ 11005 11000 10999 10996 ] final -112.82 input  -57.11 | X-H torsion

> <Gold.Protein.ActiveResidues>
 VAL166  LYS551  ARG553  GLY616  TRP617  ASP618  TYR619  PRO620  LYS621  CYS622 
 ASP623  PHE694  ASN695  SER759  ASP760  ASP761  ALA762  ILE779  LEU786  VAL792 
 PHE793  MET794  SER795  GLU796  ALA797  LYS798  CYS799  TRP800  GLU811  SER814 

> <Gold.Protein.RotatedAtoms>
  152.3141  134.7462  160.0329 H   0  0  0  0  0  0  0  0  0  0  0  0  # atno 6907 bound_to 6896
  151.7932  133.3356  159.3513 H   0  0  0  0  0  0  0  0  0  0  0  0  # atno 6908 bound_to 6896
  150.7335  134.5753  159.5955 H   0  0  0  0  0  0  0  0  0  0  0  0  # atno 6909 bound_to 6896
  144.8631  139.5966  143.5921 H   0  0  0  0  0  0  0  0  0  0  0  0  # atno 7974 bound_to 7965
  155.9378  140.1103  157.1080 H   0  0  0  0  0  0  0  0  0  0  0  0  # atno 8008 bound_to 7997
  154.4083  140.1225  156.4953 H   0  0  0  0  0  0  0  0  0  0  0  0  # atno 8009 bound_to 7997
  155.7000  140.3472  155.4931 H   0  0  0  0  0  0  0  0  0  0  0  0  # atno 8010 bound_to 7997
  140.0496  143.5073  152.2088 H   0  0  0  0  0  0  0  0  0  0  0  0  # atno 10167 bound_to 10162
  157.6835  131.0719  150.5214 H   0  0  0  0  0  0  0  0  0  0  0  0  # atno 10718 bound_to 10713
  154.8514  135.4351  154.1798 H   0  0  0  0  0  0  0  0  0  0  0  0  # atno 10763 bound_to 10752
  153.2892  135.6960  153.7316 H   0  0  0  0  0  0  0  0  0  0  0  0  # atno 10764 bound_to 10752
  153.6490  135.3455  155.3069 H   0  0  0  0  0  0  0  0  0  0  0  0  # atno 10765 bound_to 10752
  141.0652  133.9471  157.2592 H   0  0  0  0  0  0  0  0  0  0  0  0  # atno 11005 bound_to 11000
  146.2876  139.7047  142.9184 LP  0  0  0  0  0  0  0  0  0  0  0  0  # atno 17320 bound_to 7965
  145.4273  141.0412  143.2930 LP  0  0  0  0  0  0  0  0  0  0  0  0  # atno 17321 bound_to 7965
  139.5961  144.7567  151.3282 LP  0  0  0  0  0  0  0  0  0  0  0  0  # atno 17342 bound_to 10162
  140.7223  143.7102  150.7775 LP  0  0  0  0  0  0  0  0  0  0  0  0  # atno 17343 bound_to 10162
  156.5528  130.4236  149.6100 LP  0  0  0  0  0  0  0  0  0  0  0  0  # atno 17370 bound_to 10713
  156.2888  130.7112  151.1956 LP  0  0  0  0  0  0  0  0  0  0  0  0  # atno 17371 bound_to 10713
  139.9469  135.0182  156.8880 LP  0  0  0  0  0  0  0  0  0  0  0  0  # atno 17394 bound_to 11000
  140.5788  134.0372  155.7456 LP  0  0  0  0  0  0  0  0  0  0  0  0  # atno 17395 bound_to 11000

$$$$
