AV-unprocessed.smi:2749|AV-procd|sdf|10586|dock6
  -GOLD-   2272015 33D 1   1.00000     0.00000
 Structure written by MMmdl.
 32 34  0  0  0  0  0  0  0  0  1 V2000
  150.8218  136.7531  159.0448 O   0  0  0  0  0  0  0  0  0  0  0  0
  150.0035  137.5473  158.5844 C   0  0  0  0  0  0  0  0  0  0  0  0
  148.7248  137.5639  159.0172 N   0  0  0  0  0  0  0  0  0  0  0  0
  148.0578  136.7790  160.0034 C   0  0  0  0  0  0  0  0  0  0  0  0
  148.4165  135.4116  160.0077 C   0  0  0  0  0  0  0  0  0  0  0  0
  147.8321  134.5412  160.9485 C   0  0  0  0  0  0  0  0  0  0  0  0
  146.9056  135.0640  161.8676 C   0  0  0  0  0  0  0  0  0  0  0  0
  146.3180  134.2671  162.7912 F   0  0  0  0  0  0  0  0  0  0  0  0
  146.6059  136.4370  161.8031 C   0  0  0  0  0  0  0  0  0  0  0  0
  147.1647  137.2710  160.9006 N   0  0  0  0  0  0  0  0  0  0  0  0
  150.3133  138.4342  157.6258 N   0  0  0  0  0  0  0  0  0  0  0  0
  151.6375  138.6172  157.0410 C   0  0  1  0  0  0  0  0  0  0  0  0
  152.0318  137.4401  156.1442 C   0  0  0  0  0  0  0  0  0  0  0  0
  152.2724  138.1321  154.7959 C   0  0  1  0  0  0  0  0  0  0  0  0
  150.9604  138.5865  154.1406 C   0  0  0  0  0  0  0  0  0  0  0  0
  150.5829  139.7921  154.9996 C   0  0  0  0  0  0  0  0  0  0  0  0
  151.7099  139.7949  156.0467 C   0  0  2  0  0  0  0  0  0  0  0  0
  152.7936  139.3750  155.2347 O   0  0  0  0  0  0  0  0  0  0  0  0
  148.1242  138.2043  158.5189 H   0  0  0  0  0  0  0  0  0  0  0  0
  149.1327  135.0269  159.2958 H   0  0  0  0  0  0  0  0  0  0  0  0
  148.0915  133.4930  160.9642 H   0  0  0  0  0  0  0  0  0  0  0  0
  145.9009  136.8784  162.4918 H   0  0  0  0  0  0  0  0  0  0  0  0
  149.5819  139.0513  157.3017 H   0  0  0  0  0  0  0  0  0  0  0  0
  152.3865  138.7395  157.8256 H   0  0  0  0  0  0  0  0  0  0  0  0
  152.9509  136.9796  156.5083 H   0  0  0  0  0  0  0  0  0  0  0  0
  151.2696  136.6622  156.0764 H   0  0  0  0  0  0  0  0  0  0  0  0
  152.9319  137.5783  154.1273 H   0  0  0  0  0  0  0  0  0  0  0  0
  151.1246  138.8902  153.1061 H   0  0  0  0  0  0  0  0  0  0  0  0
  150.2004  137.8045  154.1521 H   0  0  0  0  0  0  0  0  0  0  0  0
  150.6177  140.7045  154.4032 H   0  0  0  0  0  0  0  0  0  0  0  0
  149.5848  139.7153  155.4312 H   0  0  0  0  0  0  0  0  0  0  0  0
  151.8622  140.7634  156.5238 H   0  0  0  0  0  0  0  0  0  0  0  0
  1  2  2  0  0  0  0
  2  3  1  0  0  0  0
  2 11  1  0  0  0  0
  3  4  1  0  0  0  0
  3 19  1  0  0  0  0
  4 10  1  0  0  0  0
  4  5  2  0  0  0  0
  5  6  1  0  0  0  0
  5 20  1  0  0  0  0
  6  7  2  0  0  0  0
  6 21  1  0  0  0  0
  7  8  1  0  0  0  0
  7  9  1  0  0  0  0
  9 10  2  0  0  0  0
  9 22  1  0  0  0  0
 11 12  1  0  0  0  0
 11 23  1  0  0  0  0
 12 17  1  0  0  0  0
 12 13  1  0  0  0  0
 12 24  1  0  0  0  0
 13 14  1  0  0  0  0
 13 25  1  0  0  0  0
 13 26  1  0  0  0  0
 14 18  1  0  0  0  0
 14 15  1  0  0  0  0
 14 27  1  0  0  0  0
 15 16  1  0  0  0  0
 15 28  1  0  0  0  0
 15 29  1  0  0  0  0
 16 17  1  0  0  0  0
 16 30  1  0  0  0  0
 16 31  1  0  0  0  0
 17 18  1  0  0  0  0
 17 32  1  0  0  0  0
M  END
> <s_m_source_file>
AV-unprocessed.smi

> <i_m_source_file_index>
2749

> <i_lp_mmshare_version>
43012

> <i_f3d_flags>
0

> <s_epik_input>
W0NIMl0xW0NIMl1bQ0BIXShPMilbQ0BASF0oW0NIMl1bQ0BASF0xMilbTkhdQyg9TylbTkhdYzNbY0hdW2NIXWMoRilbY0hdbjM=

> <s_epik_cmdline>
J2VwaWtfcHl0aG9uJywgJy1waCcsICc3LjAnLCAnLXRuJywgJzgnLCAnLW1hJywgJzIwMCcsICctbWV0YWxfYmluZGluZycsICctaW1hZScsICc8aW5maWxlLm1hZT4nLCAnLW9tYWUnLCAnPG91dGZpbGUubWFlPic=

> <r_lp_tautomer_probability>
1

> <r_epik_Ionization_Penalty>
3.37159e-05

> <r_epik_Ionization_Penalty_Charging>
0

> <r_epik_Ionization_Penalty_Neutral>
3.37159e-05

> <r_epik_State_Penalty>
-0

> <r_epik_Charging_Adjusted_Penalty>
0

> <i_epik_Tot_Q>
0

> <i_epik_Tot_abs_Q>
0

> <r_epik_Metal_State_Penalty>
-0

> <b_epik_Metal_Only>
0

> <s_lp_Force_Field>
OPLS_2005

> <r_lp_Energy>
40.3406

> <b_lp_Chiralities_Consistent>
1

> <s_lp_Variant>
AV-unprocessed.smi:2749-2

> <Gold.Version>
5.8.1

> <Gold.Id.Protein>
6NUR|6NUR_protein|mol2

> <Gold.PLP.Fitness>
40.5402

> <Gold.PLP.PLP>
-31.4542

> <Gold.PLP.part.hbond>
-4.5063

> <Gold.PLP.part.metal>
0.0000

> <Gold.PLP.part.buried>
-1.1800

> <Gold.PLP.part.nonpolar>
-26.1458

> <Gold.PLP.part.repulsive>
0.2533

> <Gold.PLP.ligand.clash>
0.0000

> <Gold.PLP.ligand.torsion>
0.3874

> <Gold.PLP.Chemscore.Hbond>
3.2804

> <Gold.PLP.Chemscore.CHOScore>
0.0000

> <Gold.PLP.Chemscore.Metal>
0.0000

> <Gold.Chemscore.Hbonds>
donor molecule, donor type, donor heavy atom, donor atom, acceptor molecule, acceptor atom, score
      P1  H  6896  6909       L1     1  1.00
      P1  H  6931  6943       L1    10  0.05
      P1  H  6934  6947       L1    10  1.00
      P1  H  7997  8009       L1    18  1.00

> <Gold.PLP.Chemscore.Internal.Correction>
0.0196

> <Gold.Rescore>
     Score         DG    S(hbond)    S(metal)    S(lipo)     H(rot)  DE(clash)    DE(int)     intcor
     17.66     -19.42       2.63        0.00      65.99       1.00       0.13       1.63       ----

> <Gold.Chemscore.Fitness>
17.6594

> <Gold.Chemscore.DG>
-19.4196

> <Gold.Chemscore.ZeroCoef>
-5.4800

> <Gold.Chemscore.Hbond>
2.6285

> <Gold.Chemscore.Metal>
0.0000

> <Gold.Chemscore.Lipo>
65.9864

> <Gold.Chemscore.Internal_Hbond>
0.0000

> <Gold.Chemscore.DEClash>
0.1341

> <Gold.Chemscore.DEInternal>
1.6262

> <Gold.Chemscore.Rot>
1.0000

> <Gold.Chemscore.Internal.Correction>
   9.000000E+99

> <Gold.Chemscore.Hbonds>
donor molecule, donor type, donor heavy atom, donor atom, acceptor molecule, acceptor atom, score
      P1  H  6896  6909       L1     1  0.98
      P1  H  6934  6947       L1    10  0.82
      P1  H  7997  8009       L1    18  0.69

> <Gold.Chemscore.Hbond.Weighted>
-8.7792

> <Gold.Chemscore.Metal.Weighted>
-0.0000

> <Gold.Chemscore.Lipo.Weighted>
-7.7204

> <Gold.Chemscore.Internal_Hbond.Weighted>
0.0000

> <Gold.Chemscore.DEClash.Weighted>
0.1341

> <Gold.Chemscore.DEInternal.Weighted>
1.6262

> <Gold.Chemscore.Rot.Weighted>
2.5600

> <Gold.Chemscore.Internal.Correction.Weighted>
   9.000000E+99

> <Gold.Protein.RotatedTorsions>
[ 6907 6896 6895 6894 ] final   87.80 input  -60.11 | X-H torsion
[ 7974 7965 7964 7962 ] final  127.64 input  175.53 | X-H torsion
[ 8008 7997 7996 7995 ] final -136.39 input   59.86 | X-H torsion
[ 10167 10162 10161 10158 ] final   34.85 input  -65.29 | X-H torsion
[ 10718 10713 10712 10709 ] final  -91.22 input   66.30 | X-H torsion
[ 10763 10752 10751 10750 ] final  133.68 input  -60.55 | X-H torsion
[ 11005 11000 10999 10996 ] final   73.12 input  -57.11 | X-H torsion

> <Gold.Protein.ActiveResidues>
 VAL166  LYS551  ARG553  GLY616  TRP617  ASP618  TYR619  PRO620  LYS621  CYS622 
 ASP623  PHE694  ASN695  SER759  ASP760  ASP761  ALA762  ILE779  LEU786  VAL792 
 PHE793  MET794  SER795  GLU796  ALA797  LYS798  CYS799  TRP800  GLU811  SER814 

> <Gold.Protein.RotatedAtoms>
  152.5416  134.2220  159.8790 H   0  0  0  0  0  0  0  0  0  0  0  0  # atno 6907 bound_to 6896
  151.2196  133.4503  159.2608 H   0  0  0  0  0  0  0  0  0  0  0  0  # atno 6908 bound_to 6896
  151.0818  134.9876  159.8415 H   0  0  0  0  0  0  0  0  0  0  0  0  # atno 6909 bound_to 6896
  145.0484  139.3904  143.5066 H   0  0  0  0  0  0  0  0  0  0  0  0  # atno 7974 bound_to 7965
  155.3944  140.0502  157.3039 H   0  0  0  0  0  0  0  0  0  0  0  0  # atno 8008 bound_to 7997
  154.5021  140.2160  155.9287 H   0  0  0  0  0  0  0  0  0  0  0  0  # atno 8009 bound_to 7997
  156.1480  140.3141  155.8606 H   0  0  0  0  0  0  0  0  0  0  0  0  # atno 8010 bound_to 7997
  140.4277  144.1370  150.6155 H   0  0  0  0  0  0  0  0  0  0  0  0  # atno 10167 bound_to 10162
  155.9992  130.4939  150.5441 H   0  0  0  0  0  0  0  0  0  0  0  0  # atno 10718 bound_to 10713
  153.8111  135.3129  155.3401 H   0  0  0  0  0  0  0  0  0  0  0  0  # atno 10763 bound_to 10752
  154.8051  135.4703  154.0375 H   0  0  0  0  0  0  0  0  0  0  0  0  # atno 10764 bound_to 10752
  153.1753  135.6884  153.8640 H   0  0  0  0  0  0  0  0  0  0  0  0  # atno 10765 bound_to 10752
  139.9456  134.7319  156.0988 H   0  0  0  0  0  0  0  0  0  0  0  0  # atno 11005 bound_to 11000
  146.3516  140.0121  142.8666 LP  0  0  0  0  0  0  0  0  0  0  0  0  # atno 17320 bound_to 7965
  145.1559  140.9647  143.4406 LP  0  0  0  0  0  0  0  0  0  0  0  0  # atno 17321 bound_to 7965
  140.4463  143.2505  151.9407 LP  0  0  0  0  0  0  0  0  0  0  0  0  # atno 17342 bound_to 10162
  139.4784  144.5606  151.8245 LP  0  0  0  0  0  0  0  0  0  0  0  0  # atno 17343 bound_to 10162
  157.3373  131.0710  151.1815 LP  0  0  0  0  0  0  0  0  0  0  0  0  # atno 17370 bound_to 10713
  157.2675  130.6688  149.6004 LP  0  0  0  0  0  0  0  0  0  0  0  0  # atno 17371 bound_to 10713
  141.1105  133.6645  156.2967 LP  0  0  0  0  0  0  0  0  0  0  0  0  # atno 17394 bound_to 11000
  140.5843  134.5714  157.5486 LP  0  0  0  0  0  0  0  0  0  0  0  0  # atno 17395 bound_to 11000

$$$$
