AV-unprocessed.smi:602|AV-procd|sdf|3035|dock7
  -GOLD-   2262023553D 1   1.00000     0.00000
 Structure written by MMmdl.
 47 48  0  0  0  0  0  0  0  0  1 V2000
  148.1527  142.0334  154.6224 C   0  0  0  0  0  0  0  0  0  0  0  0
  149.4779  141.3493  154.9713 C   0  0  0  0  0  0  0  0  0  0  0  0
  149.5518  139.9107  154.4331 C   0  0  0  0  0  0  0  0  0  0  0  0
  149.8090  138.9405  155.4784 N   0  0  0  0  0  0  0  0  0  0  0  0
  148.7997  138.2953  156.1985 C   0  0  0  0  0  0  0  0  0  0  0  0
  147.4821  138.6033  155.8914 N   0  0  0  0  0  0  0  0  0  0  0  0
  149.0849  137.3599  157.1531 C   0  0  0  0  0  0  0  0  0  0  0  0
  148.0676  136.7194  157.8850 N   0  0  0  0  0  0  0  0  0  0  0  0
  147.8298  137.2032  159.2555 C   0  0  0  0  0  0  0  0  0  0  0  0
  147.9763  136.0812  160.3031 C   0  0  0  0  0  0  0  0  0  0  0  0
  147.9429  136.5688  161.6372 O   0  0  0  0  0  0  0  0  0  0  0  0
  147.2623  135.7165  162.5448 C   0  0  0  0  0  0  0  0  0  0  0  0
  147.2807  135.7579  157.3320 C   0  0  0  0  0  0  0  0  0  0  0  0
  146.3875  135.1995  157.9703 O   0  0  0  0  0  0  0  0  0  0  0  0
  147.5137  135.3487  155.8601 C   0  0  0  0  0  0  0  0  0  0  0  0
  146.7100  134.1151  155.4132 C   0  0  0  0  0  0  0  0  0  0  0  0
  147.9531  133.6280  154.6647 C   0  0  0  0  0  0  0  0  0  0  0  0
  148.7895  134.5290  155.5768 C   0  0  0  0  0  0  0  0  0  0  0  0
  150.4780  137.0220  157.4754 C   0  0  0  0  0  0  0  0  0  0  0  0
  150.8420  136.2215  158.3359 O   0  0  0  0  0  0  0  0  0  0  0  0
  151.4334  137.6830  156.7082 N   0  0  0  0  0  0  0  0  0  0  0  0
  151.1670  138.6153  155.7118 C   0  0  0  0  0  0  0  0  0  0  0  0
  152.1035  139.1104  155.0835 O   0  0  0  0  0  0  0  0  0  0  0  0
  152.4022  137.4608  156.8859 H   0  0  0  0  0  0  0  0  0  0  0  0
  148.1257  143.0510  155.0122 H   0  0  0  0  0  0  0  0  0  0  0  0
  147.3071  141.4915  155.0470 H   0  0  0  0  0  0  0  0  0  0  0  0
  148.0098  142.0861  153.5428 H   0  0  0  0  0  0  0  0  0  0  0  0
  150.3031  141.9362  154.5660 H   0  0  0  0  0  0  0  0  0  0  0  0
  149.6055  141.3474  156.0543 H   0  0  0  0  0  0  0  0  0  0  0  0
  148.6387  139.6188  153.9111 H   0  0  0  0  0  0  0  0  0  0  0  0
  150.3450  139.7995  153.6942 H   0  0  0  0  0  0  0  0  0  0  0  0
  147.2461  139.2715  155.1717 H   0  0  0  0  0  0  0  0  0  0  0  0
  146.7095  138.2180  156.4153 H   0  0  0  0  0  0  0  0  0  0  0  0
  148.5579  137.9808  159.4904 H   0  0  0  0  0  0  0  0  0  0  0  0
  146.8618  137.6973  159.3432 H   0  0  0  0  0  0  0  0  0  0  0  0
  147.1602  135.3682  160.1871 H   0  0  0  0  0  0  0  0  0  0  0  0
  148.8928  135.5150  160.1303 H   0  0  0  0  0  0  0  0  0  0  0  0
  147.2847  136.1573  163.5413 H   0  0  0  0  0  0  0  0  0  0  0  0
  147.7264  134.7324  162.6072 H   0  0  0  0  0  0  0  0  0  0  0  0
  146.2175  135.5919  162.2580 H   0  0  0  0  0  0  0  0  0  0  0  0
  147.4302  136.1783  155.1574 H   0  0  0  0  0  0  0  0  0  0  0  0
  146.4230  133.4565  156.2353 H   0  0  0  0  0  0  0  0  0  0  0  0
  145.8613  134.3393  154.7661 H   0  0  0  0  0  0  0  0  0  0  0  0
  148.1573  132.5615  154.7645 H   0  0  0  0  0  0  0  0  0  0  0  0
  147.9707  133.9493  153.6222 H   0  0  0  0  0  0  0  0  0  0  0  0
  149.5730  135.0805  155.0562 H   0  0  0  0  0  0  0  0  0  0  0  0
  149.1899  133.9840  156.4331 H   0  0  0  0  0  0  0  0  0  0  0  0
  1  2  1  0  0  0  0
  1 25  1  0  0  0  0
  1 26  1  0  0  0  0
  1 27  1  0  0  0  0
  2  3  1  0  0  0  0
  2 28  1  0  0  0  0
  2 29  1  0  0  0  0
  3  4  1  0  0  0  0
  3 30  1  0  0  0  0
  3 31  1  0  0  0  0
  4 22  1  0  0  0  0
  4  5  1  0  0  0  0
  5  6  1  0  0  0  0
  5  7  2  0  0  0  0
  6 32  1  0  0  0  0
  6 33  1  0  0  0  0
  7  8  1  0  0  0  0
  7 19  1  0  0  0  0
  8  9  1  0  0  0  0
  8 13  1  0  0  0  0
  9 10  1  0  0  0  0
  9 34  1  0  0  0  0
  9 35  1  0  0  0  0
 10 11  1  0  0  0  0
 10 36  1  0  0  0  0
 10 37  1  0  0  0  0
 11 12  1  0  0  0  0
 12 38  1  0  0  0  0
 12 39  1  0  0  0  0
 12 40  1  0  0  0  0
 13 14  2  0  0  0  0
 13 15  1  0  0  0  0
 15 18  1  0  0  0  0
 15 16  1  0  0  0  0
 15 41  1  0  0  0  0
 16 17  1  0  0  0  0
 16 42  1  0  0  0  0
 16 43  1  0  0  0  0
 17 18  1  0  0  0  0
 17 44  1  0  0  0  0
 17 45  1  0  0  0  0
 18 46  1  0  0  0  0
 18 47  1  0  0  0  0
 19 20  2  0  0  0  0
 19 21  1  0  0  0  0
 21 24  1  0  0  0  0
 21 22  1  0  0  0  0
 22 23  2  0  0  0  0
M  END
> <s_m_source_file>
AV-unprocessed.smi

> <i_m_source_file_index>
602

> <i_lp_mmshare_version>
43012

> <i_f3d_flags>
0

> <s_epik_input>
W0NIM11bQ0gyXVtDSDJdbjFjKFtOSDJdKWMoYyg9TylbbkhdYzE9TylOKFtDSDJdW0NIMl1PW0NIM10pQyg9TylbQ0hdMltDSDJdW0NIMl1bQ0gyXTI=

> <s_epik_cmdline>
J2VwaWtfcHl0aG9uJywgJy1waCcsICc3LjAnLCAnLXRuJywgJzgnLCAnLW1hJywgJzIwMCcsICctbWV0YWxfYmluZGluZycsICctaW1hZScsICc8aW5maWxlLm1hZT4nLCAnLW9tYWUnLCAnPG91dGZpbGUubWFlPic=

> <r_lp_tautomer_probability>
1

> <r_epik_Ionization_Penalty>
1.77098e-05

> <r_epik_Ionization_Penalty_Charging>
5.46221e-06

> <r_epik_Ionization_Penalty_Neutral>
1.22476e-05

> <r_epik_State_Penalty>
-0

> <r_epik_Charging_Adjusted_Penalty>
5.46221e-06

> <i_epik_Tot_Q>
0

> <i_epik_Tot_abs_Q>
0

> <r_epik_Metal_State_Penalty>
-0

> <b_epik_Metal_Only>
0

> <s_epik_Chemistry_Notes>
This compound has an imine and may undergo hydrolysis.

> <s_lp_Force_Field>
OPLS_2005

> <r_lp_Energy>
36.0285

> <b_lp_Chiralities_Consistent>
1

> <s_lp_Variant>
AV-unprocessed.smi:602-1

> <Gold.Version>
5.8.1

> <Gold.Id.Protein>
6NUR|6NUR_protein|mol2

> <Gold.PLP.Fitness>
37.9931

> <Gold.PLP.PLP>
-31.9295

> <Gold.PLP.part.hbond>
-3.9097

> <Gold.PLP.part.metal>
0.0000

> <Gold.PLP.part.buried>
-3.2151

> <Gold.PLP.part.nonpolar>
-24.7283

> <Gold.PLP.part.repulsive>
0.0766

> <Gold.PLP.ligand.clash>
0.0000

> <Gold.PLP.ligand.torsion>
2.6324

> <Gold.PLP.Chemscore.Hbond>
2.8746

> <Gold.PLP.Chemscore.CHOScore>
0.0000

> <Gold.PLP.Chemscore.Metal>
0.0000

> <Gold.Chemscore.Hbonds>
donor molecule, donor type, donor heavy atom, donor atom, acceptor molecule, acceptor atom, score
      P1  H  6896  6908       L1    20  0.51
      P1  H  6931  6943       L1    11  1.00
      P1  H  7989  7998       L1    23  0.07

> <Gold.PLP.Chemscore.Internal.Correction>
2.7045

> <Gold.Rescore>
     Score         DG    S(hbond)    S(metal)    S(lipo)     H(rot)  DE(clash)    DE(int)     intcor
     13.33     -16.03       2.68        0.00      59.97       2.12       0.09       2.61       ----

> <Gold.Chemscore.Fitness>
13.3291

> <Gold.Chemscore.DG>
-16.0255

> <Gold.Chemscore.ZeroCoef>
-5.4800

> <Gold.Chemscore.Hbond>
2.6833

> <Gold.Chemscore.Metal>
0.0000

> <Gold.Chemscore.Lipo>
59.9743

> <Gold.Chemscore.Internal_Hbond>
0.0000

> <Gold.Chemscore.DEClash>
0.0901

> <Gold.Chemscore.DEInternal>
2.6062

> <Gold.Chemscore.Rot>
2.1226

> <Gold.Chemscore.Internal.Correction>
   9.000000E+99

> <Gold.Chemscore.Hbonds>
donor molecule, donor type, donor heavy atom, donor atom, acceptor molecule, acceptor atom, score
      P1  H  6896  6908       L1    20  0.51
      P1  H  6931  6943       L1    11  0.83
      P1  H  7989  7998       L1    23  0.10

> <Gold.Chemscore.Hbond.Weighted>
-8.9623

> <Gold.Chemscore.Metal.Weighted>
-0.0000

> <Gold.Chemscore.Lipo.Weighted>
-7.0170

> <Gold.Chemscore.Internal_Hbond.Weighted>
0.0000

> <Gold.Chemscore.DEClash.Weighted>
0.0901

> <Gold.Chemscore.DEInternal.Weighted>
2.6062

> <Gold.Chemscore.Rot.Weighted>
5.4338

> <Gold.Chemscore.Internal.Correction.Weighted>
   9.000000E+99

> <Gold.Protein.RotatedTorsions>
[ 6907 6896 6895 6894 ] final -130.57 input  -60.11 | X-H torsion
[ 7974 7965 7964 7962 ] final -136.99 input  175.53 | X-H torsion
[ 8008 7997 7996 7995 ] final -139.97 input   59.86 | X-H torsion
[ 10167 10162 10161 10158 ] final -112.28 input  -65.29 | X-H torsion
[ 10718 10713 10712 10709 ] final -106.54 input   66.30 | X-H torsion
[ 10763 10752 10751 10750 ] final   88.89 input  -60.55 | X-H torsion
[ 11005 11000 10999 10996 ] final -117.56 input  -57.11 | X-H torsion

> <Gold.Protein.ActiveResidues>
 VAL166  LYS551  ARG553  GLY616  TRP617  ASP618  TYR619  PRO620  LYS621  CYS622 
 ASP623  PHE694  ASN695  SER759  ASP760  ASP761  ALA762  ILE779  LEU786  VAL792 
 PHE793  MET794  SER795  GLU796  ALA797  LYS798  CYS799  TRP800  GLU811  SER814 

> <Gold.Protein.RotatedAtoms>
  150.9412  133.6654  159.2790 H   0  0  0  0  0  0  0  0  0  0  0  0  # atno 6907 bound_to 6896
  151.4042  135.0974  159.9575 H   0  0  0  0  0  0  0  0  0  0  0  0  # atno 6908 bound_to 6896
  152.5070  133.8899  159.7443 H   0  0  0  0  0  0  0  0  0  0  0  0  # atno 6909 bound_to 6896
  144.8879  140.6601  143.5164 H   0  0  0  0  0  0  0  0  0  0  0  0  # atno 7974 bound_to 7965
  155.4537  140.0540  157.2998 H   0  0  0  0  0  0  0  0  0  0  0  0  # atno 8008 bound_to 7997
  154.4766  140.2064  155.9818 H   0  0  0  0  0  0  0  0  0  0  0  0  # atno 8009 bound_to 7997
  156.1142  140.3199  155.8120 H   0  0  0  0  0  0  0  0  0  0  0  0  # atno 8010 bound_to 7997
  140.1245  143.4414  152.1669 H   0  0  0  0  0  0  0  0  0  0  0  0  # atno 10167 bound_to 10162
  156.0395  130.5618  150.7695 H   0  0  0  0  0  0  0  0  0  0  0  0  # atno 10718 bound_to 10713
  153.1815  135.4490  155.0034 H   0  0  0  0  0  0  0  0  0  0  0  0  # atno 10763 bound_to 10752
  154.8033  135.3264  154.7498 H   0  0  0  0  0  0  0  0  0  0  0  0  # atno 10764 bound_to 10752
  153.7962  135.6966  153.4918 H   0  0  0  0  0  0  0  0  0  0  0  0  # atno 10765 bound_to 10752
  141.0346  133.9929  157.3090 H   0  0  0  0  0  0  0  0  0  0  0  0  # atno 11005 bound_to 11000
  145.3835  139.1632  143.4267 LP  0  0  0  0  0  0  0  0  0  0  0  0  # atno 17320 bound_to 7965
  146.3036  140.3918  142.8695 LP  0  0  0  0  0  0  0  0  0  0  0  0  # atno 17321 bound_to 7965
  139.5551  144.7367  151.4317 LP  0  0  0  0  0  0  0  0  0  0  0  0  # atno 17342 bound_to 10162
  140.6853  143.7988  150.7177 LP  0  0  0  0  0  0  0  0  0  0  0  0  # atno 17343 bound_to 10162
  157.5193  131.0930  151.0099 LP  0  0  0  0  0  0  0  0  0  0  0  0  # atno 17370 bound_to 10713
  157.0434  130.5758  149.5359 LP  0  0  0  0  0  0  0  0  0  0  0  0  # atno 17371 bound_to 10713
  139.9232  135.0201  156.8139 LP  0  0  0  0  0  0  0  0  0  0  0  0  # atno 17394 bound_to 11000
  140.6345  133.9875  155.7678 LP  0  0  0  0  0  0  0  0  0  0  0  0  # atno 17395 bound_to 11000

$$$$
