AV-unprocessed.smi:2069|AV-procd|sdf|8435|dock4
  -GOLD-   2272011133D 1   1.00000     0.00000
 Structure written by MMmdl.
 37 38  0  0  0  0  0  0  0  0  2 V2000
  144.1073  134.3271  162.9866 C   0  0  0  0  0  0  0  0  0  0  0  0
  145.2865  134.9239  162.2979 C   0  0  0  0  0  0  0  0  0  0  0  0
  146.2796  134.1855  161.7968 N   0  0  0  0  0  0  0  0  0  0  0  0
  147.2649  134.9650  161.2080 N   0  0  0  0  0  0  0  0  0  0  0  0
  147.0096  136.2789  161.2808 C   0  0  0  0  0  0  0  0  0  0  0  0
  147.8389  137.2026  160.7674 N   0  5  0  0  0  0  0  0  0  0  0  0
  148.6994  136.8651  159.7801 C   0  0  0  0  0  0  0  0  0  0  0  0
  149.0811  135.7260  159.5011 O   0  0  0  0  0  0  0  0  0  0  0  0
  149.1496  137.9131  159.0752 N   0  0  0  0  0  0  0  0  0  0  0  0
  150.0988  137.8554  157.9657 C   0  0  0  0  0  0  0  0  0  0  0  0
  150.3985  139.2457  157.3318 C   0  0  2  0  0  0  0  0  0  0  0  0
  151.4273  139.0625  156.1869 C   0  0  0  0  0  0  0  0  0  0  0  0
  150.8208  140.2650  158.3214 N   0  0  0  0  0  0  0  0  0  0  0  0
  150.7948  141.6284  157.7792 C   0  0  0  0  0  0  0  0  0  0  0  0
  151.2687  142.6841  158.7931 C   0  0  0  0  0  0  0  0  0  0  0  0
  152.5773  142.3642  159.2449 O   0  0  0  0  0  0  0  0  0  0  0  0
  152.6315  141.0799  159.8499 C   0  0  0  0  0  0  0  0  0  0  0  0
  152.1690  140.0125  158.8434 C   0  0  0  0  0  0  0  0  0  0  0  0
  145.4849  136.6549  162.0838 S   0  0  0  0  0  0  0  0  0  0  0  0
  144.3756  134.0429  164.0042 H   0  0  0  0  0  0  0  0  0  0  0  0
  143.7663  133.4401  162.4518 H   0  0  0  0  0  0  0  0  0  0  0  0
  143.2883  135.0454  163.0271 H   0  0  0  0  0  0  0  0  0  0  0  0
  148.8095  138.8268  159.3366 H   0  0  0  0  0  0  0  0  0  0  0  0
  150.9986  137.3774  158.3506 H   0  0  0  0  0  0  0  0  0  0  0  0
  149.6928  137.1832  157.2095 H   0  0  0  0  0  0  0  0  0  0  0  0
  149.4724  139.5939  156.8716 H   0  0  0  0  0  0  0  0  0  0  0  0
  151.1376  138.2783  155.4885 H   0  0  0  0  0  0  0  0  0  0  0  0
  152.4110  138.8035  156.5797 H   0  0  0  0  0  0  0  0  0  0  0  0
  151.5322  139.9582  155.5768 H   0  0  0  0  0  0  0  0  0  0  0  0
  151.4134  141.6825  156.8821 H   0  0  0  0  0  0  0  0  0  0  0  0
  149.7849  141.9073  157.4864 H   0  0  0  0  0  0  0  0  0  0  0  0
  151.2830  143.6715  158.3316 H   0  0  0  0  0  0  0  0  0  0  0  0
  150.5852  142.7382  159.6420 H   0  0  0  0  0  0  0  0  0  0  0  0
  153.6545  140.8809  160.1690 H   0  0  0  0  0  0  0  0  0  0  0  0
  152.0079  141.0633  160.7453 H   0  0  0  0  0  0  0  0  0  0  0  0
  152.2092  139.0532  159.3560 H   0  0  0  0  0  0  0  0  0  0  0  0
  152.8812  139.9616  158.0184 H   0  0  0  0  0  0  0  0  0  0  0  0
  1  2  1  0  0  0  0
  1 20  1  0  0  0  0
  1 21  1  0  0  0  0
  1 22  1  0  0  0  0
  2 19  1  0  0  0  0
  2  3  2  0  0  0  0
  3  4  1  0  0  0  0
  4  5  2  0  0  0  0
  5  6  1  0  0  0  0
  5 19  1  0  0  0  0
  6  7  1  0  0  0  0
  7  8  2  0  0  0  0
  7  9  1  0  0  0  0
  9 10  1  0  0  0  0
  9 23  1  0  0  0  0
 10 11  1  0  0  0  0
 10 24  1  0  0  0  0
 10 25  1  0  0  0  0
 11 12  1  0  0  0  0
 11 13  1  0  0  0  0
 11 26  1  0  0  0  0
 12 27  1  0  0  0  0
 12 28  1  0  0  0  0
 12 29  1  0  0  0  0
 13 18  1  0  0  0  0
 13 14  1  0  0  0  0
 14 15  1  0  0  0  0
 14 30  1  0  0  0  0
 14 31  1  0  0  0  0
 15 16  1  0  0  0  0
 15 32  1  0  0  0  0
 15 33  1  0  0  0  0
 16 17  1  0  0  0  0
 17 18  1  0  0  0  0
 17 34  1  0  0  0  0
 17 35  1  0  0  0  0
 18 36  1  0  0  0  0
 18 37  1  0  0  0  0
M  CHG  1   6  -1
M  END
> <s_m_source_file>
AV-unprocessed.smi

> <i_m_source_file_index>
2069

> <i_lp_mmshare_version>
43012

> <i_f3d_flags>
0

> <s_epik_input>
W0NIM11jMW5uYyhzMSlbTkhdQyg9TylbTkhdW0NIMl1bQ0BIXShbQ0gzXSlOMltDSDJdW0NIMl1PW0NIMl1bQ0gyXTI=

> <s_epik_cmdline>
J2VwaWtfcHl0aG9uJywgJy1waCcsICc3LjAnLCAnLXRuJywgJzgnLCAnLW1hJywgJzIwMCcsICctbWV0YWxfYmluZGluZycsICctaW1hZScsICc8aW5maWxlLm1hZT4nLCAnLW9tYWUnLCAnPG91dGZpbGUubWFlPic=

> <r_lp_tautomer_probability>
1

> <r_epik_Ionization_Penalty>
3.82002

> <r_epik_Ionization_Penalty_Charging>
3.36369

> <r_epik_Ionization_Penalty_Neutral>
0.456339

> <r_epik_State_Penalty>
3.571

> <r_epik_Charging_Adjusted_Penalty>
6.93469

> <i_epik_Tot_Q>
-1

> <i_epik_Tot_abs_Q>
1

> <r_epik_Metal_State_Penalty>
0.710436

> <b_epik_Metal_Only>
1

> <s_lp_Force_Field>
OPLS_2005

> <r_lp_Energy>
26.0796

> <b_lp_Chiralities_Consistent>
1

> <s_lp_Variant>
AV-unprocessed.smi:2069-5

> <Gold.Version>
5.8.1

> <Gold.Id.Protein>
6NUR|6NUR_protein|mol2

> <Gold.PLP.Fitness>
40.6444

> <Gold.PLP.PLP>
-27.9081

> <Gold.PLP.part.hbond>
-3.0000

> <Gold.PLP.part.metal>
0.0000

> <Gold.PLP.part.buried>
-6.4724

> <Gold.PLP.part.nonpolar>
-19.5424

> <Gold.PLP.part.repulsive>
0.2375

> <Gold.PLP.ligand.clash>
0.0000

> <Gold.PLP.ligand.torsion>
0.3320

> <Gold.PLP.Chemscore.Hbond>
4.4240

> <Gold.PLP.Chemscore.CHOScore>
0.0000

> <Gold.PLP.Chemscore.Metal>
0.0000

> <Gold.Chemscore.Hbonds>
donor molecule, donor type, donor heavy atom, donor atom, acceptor molecule, acceptor atom, score
      P1  H  6896  6907       L1     8  1.00
      P1  H  6931  6943       L1     6  1.66
      P1  H  6934  6947       L1     6  1.66

> <Gold.PLP.Chemscore.Internal.Correction>
0.1284

> <Gold.Rescore>
     Score         DG    S(hbond)    S(metal)    S(lipo)     H(rot)  DE(clash)    DE(int)     intcor
     13.78     -15.63       2.02        0.00      63.45       1.57       0.01       1.83       ----

> <Gold.Chemscore.Fitness>
13.7844

> <Gold.Chemscore.DG>
-15.6275

> <Gold.Chemscore.ZeroCoef>
-5.4800

> <Gold.Chemscore.Hbond>
2.0213

> <Gold.Chemscore.Metal>
0.0000

> <Gold.Chemscore.Lipo>
63.4520

> <Gold.Chemscore.Internal_Hbond>
0.0000

> <Gold.Chemscore.DEClash>
0.0136

> <Gold.Chemscore.DEInternal>
1.8296

> <Gold.Chemscore.Rot>
1.5732

> <Gold.Chemscore.Internal.Correction>
   9.000000E+99

> <Gold.Chemscore.Hbonds>
donor molecule, donor type, donor heavy atom, donor atom, acceptor molecule, acceptor atom, score
      P1  H  6896  6907       L1     8  0.92
      P1  H  6931  6943       L1     6  0.21
      P1  H  6934  6947       L1     6  0.71

> <Gold.Chemscore.Hbond.Weighted>
-6.7511

> <Gold.Chemscore.Metal.Weighted>
-0.0000

> <Gold.Chemscore.Lipo.Weighted>
-7.4239

> <Gold.Chemscore.Internal_Hbond.Weighted>
0.0000

> <Gold.Chemscore.DEClash.Weighted>
0.0136

> <Gold.Chemscore.DEInternal.Weighted>
1.8296

> <Gold.Chemscore.Rot.Weighted>
4.0274

> <Gold.Chemscore.Internal.Correction.Weighted>
   9.000000E+99

> <Gold.Protein.RotatedTorsions>
[ 6907 6896 6895 6894 ] final  -77.07 input  -60.11 | X-H torsion
[ 7974 7965 7964 7962 ] final  153.35 input  175.53 | X-H torsion
[ 8008 7997 7996 7995 ] final   -3.19 input   59.86 | X-H torsion
[ 10167 10162 10161 10158 ] final  -66.53 input  -65.29 | X-H torsion
[ 10718 10713 10712 10709 ] final  -35.31 input   66.30 | X-H torsion
[ 10763 10752 10751 10750 ] final   18.18 input  -60.55 | X-H torsion
[ 11005 11000 10999 10996 ] final  -78.99 input  -57.11 | X-H torsion

> <Gold.Protein.ActiveResidues>
 VAL166  LYS551  ARG553  GLY616  TRP617  ASP618  TYR619  PRO620  LYS621  CYS622 
 ASP623  PHE694  ASN695  SER759  ASP760  ASP761  ALA762  ILE779  LEU786  VAL792 
 PHE793  MET794  SER795  GLU796  ALA797  LYS798  CYS799  TRP800  GLU811  SER814 

> <Gold.Protein.RotatedAtoms>
  150.7009  134.4477  159.5321 H   0  0  0  0  0  0  0  0  0  0  0  0  # atno 6907 bound_to 6896
  152.2175  134.8441  160.0499 H   0  0  0  0  0  0  0  0  0  0  0  0  # atno 6908 bound_to 6896
  151.9303  133.3574  159.3965 H   0  0  0  0  0  0  0  0  0  0  0  0  # atno 6909 bound_to 6896
  144.8161  139.6788  143.6121 H   0  0  0  0  0  0  0  0  0  0  0  0  # atno 7974 bound_to 7965
  154.6276  140.2515  155.7473 H   0  0  0  0  0  0  0  0  0  0  0  0  # atno 8008 bound_to 7997
  156.2462  140.2913  156.0533 H   0  0  0  0  0  0  0  0  0  0  0  0  # atno 8009 bound_to 7997
  155.1796  140.0388  157.2870 H   0  0  0  0  0  0  0  0  0  0  0  0  # atno 8010 bound_to 7997
  140.5650  143.2314  151.6652 H   0  0  0  0  0  0  0  0  0  0  0  0  # atno 10167 bound_to 10162
  156.3401  130.4292  149.7795 H   0  0  0  0  0  0  0  0  0  0  0  0  # atno 10718 bound_to 10713
  153.1272  135.6732  153.9237 H   0  0  0  0  0  0  0  0  0  0  0  0  # atno 10763 bound_to 10752
  153.8734  135.3067  155.3444 H   0  0  0  0  0  0  0  0  0  0  0  0  # atno 10764 bound_to 10752
  154.7676  135.4956  153.9665 H   0  0  0  0  0  0  0  0  0  0  0  0  # atno 10765 bound_to 10752
  141.1666  133.7086  156.8055 H   0  0  0  0  0  0  0  0  0  0  0  0  # atno 11005 bound_to 11000
  146.2464  139.6106  142.9457 LP  0  0  0  0  0  0  0  0  0  0  0  0  # atno 17320 bound_to 7965
  145.5212  141.0432  143.2434 LP  0  0  0  0  0  0  0  0  0  0  0  0  # atno 17321 bound_to 7965
  139.5088  144.3597  152.0574 LP  0  0  0  0  0  0  0  0  0  0  0  0  # atno 17342 bound_to 10162
  140.2728  144.3946  150.6145 LP  0  0  0  0  0  0  0  0  0  0  0  0  # atno 17343 bound_to 10162
  156.5035  130.8139  151.3141 LP  0  0  0  0  0  0  0  0  0  0  0  0  # atno 17370 bound_to 10713
  157.7445  130.9937  150.2682 LP  0  0  0  0  0  0  0  0  0  0  0  0  # atno 17371 bound_to 10713
  140.2225  134.8746  157.3392 LP  0  0  0  0  0  0  0  0  0  0  0  0  # atno 17394 bound_to 11000
  140.1973  134.4298  155.7682 LP  0  0  0  0  0  0  0  0  0  0  0  0  # atno 17395 bound_to 11000

$$$$
