AV-unprocessed.smi:1824|AV-procd|sdf|7398|dock8
  -GOLD-   22720 9 73D 1   1.00000     0.00000
 Structure written by MMmdl.
 44 46  0  0  0  0  0  0  0  0  1 V2000
  145.1363  143.8826  153.1196 C   0  0  0  0  0  0  0  0  0  0  0  0
  145.6987  142.7420  153.9741 C   0  0  1  0  0  0  0  0  0  0  0  0
  147.1887  142.4840  153.6879 C   0  0  0  0  0  0  0  0  0  0  0  0
  147.7419  141.4530  154.5569 N   0  0  0  0  0  0  0  0  0  0  0  0
  149.1453  141.1929  154.2315 C   0  0  0  0  0  0  0  0  0  0  0  0
  150.0323  140.7492  155.4125 C   0  0  1  0  0  0  0  0  0  0  0  0
  150.9348  139.7591  154.9576 O   0  0  0  0  0  0  0  0  0  0  0  0
  150.8310  141.9313  155.9938 C   0  0  0  0  0  0  0  0  0  0  0  0
  151.2653  141.6890  157.3581 N   0  0  0  0  0  0  0  0  0  0  0  0
  151.5440  140.4997  157.9258 C   0  0  0  0  0  0  0  0  0  0  0  0
  151.9266  140.5073  159.1996 N   0  0  0  0  0  0  0  0  0  0  0  0
  151.8929  141.8597  159.4936 C   0  0  0  0  0  0  0  0  0  0  0  0
  152.1907  142.5460  160.6927 C   0  0  0  0  0  0  0  0  0  0  0  0
  152.0844  143.9508  160.7576 C   0  0  0  0  0  0  0  0  0  0  0  0
  152.3734  144.5926  161.9145 F   0  0  0  0  0  0  0  0  0  0  0  0
  151.6796  144.6899  159.6261 C   0  0  0  0  0  0  0  0  0  0  0  0
  151.5804  146.0385  159.6973 F   0  0  0  0  0  0  0  0  0  0  0  0
  151.3776  144.0281  158.4205 C   0  0  0  0  0  0  0  0  0  0  0  0
  151.4848  142.6266  158.3609 C   0  0  0  0  0  0  0  0  0  0  0  0
  147.5481  141.8544  155.9495 C   0  0  0  0  0  0  0  0  0  0  0  0
  146.0737  142.1597  156.2826 C   0  0  2  0  0  0  0  0  0  0  0  0
  145.2018  140.8974  156.3937 C   0  0  0  0  0  0  0  0  0  0  0  0
  145.5359  143.0949  155.3464 O   0  0  0  0  0  0  0  0  0  0  0  0
  145.2238  143.6564  152.0567 H   0  0  0  0  0  0  0  0  0  0  0  0
  145.6669  144.8161  153.3087 H   0  0  0  0  0  0  0  0  0  0  0  0
  144.0810  144.0487  153.3379 H   0  0  0  0  0  0  0  0  0  0  0  0
  145.1251  141.8395  153.7615 H   0  0  0  0  0  0  0  0  0  0  0  0
  147.3045  142.1874  152.6446 H   0  0  0  0  0  0  0  0  0  0  0  0
  147.7510  143.4114  153.8117 H   0  0  0  0  0  0  0  0  0  0  0  0
  149.1993  140.4204  153.4625 H   0  0  0  0  0  0  0  0  0  0  0  0
  149.5741  142.0878  153.7781 H   0  0  0  0  0  0  0  0  0  0  0  0
  149.4285  140.3208  156.2111 H   0  0  0  0  0  0  0  0  0  0  0  0
  150.9692  139.0659  155.5987 H   0  0  0  0  0  0  0  0  0  0  0  0
  151.7069  142.1426  155.3784 H   0  0  0  0  0  0  0  0  0  0  0  0
  150.2213  142.8354  155.9894 H   0  0  0  0  0  0  0  0  0  0  0  0
  151.4581  139.5755  157.3730 H   0  0  0  0  0  0  0  0  0  0  0  0
  152.5013  141.9909  161.5651 H   0  0  0  0  0  0  0  0  0  0  0  0
  151.0664  144.5904  157.5529 H   0  0  0  0  0  0  0  0  0  0  0  0
  147.9043  141.0813  156.6288 H   0  0  0  0  0  0  0  0  0  0  0  0
  148.1459  142.7436  156.1554 H   0  0  0  0  0  0  0  0  0  0  0  0
  146.0455  142.6513  157.2554 H   0  0  0  0  0  0  0  0  0  0  0  0
  145.5593  140.2492  157.1941 H   0  0  0  0  0  0  0  0  0  0  0  0
  145.2085  140.3118  155.4746 H   0  0  0  0  0  0  0  0  0  0  0  0
  144.1671  141.1580  156.6172 H   0  0  0  0  0  0  0  0  0  0  0  0
  1  2  1  0  0  0  0
  1 24  1  0  0  0  0
  1 25  1  0  0  0  0
  1 26  1  0  0  0  0
  2 23  1  0  0  0  0
  2  3  1  0  0  0  0
  2 27  1  0  0  0  0
  3  4  1  0  0  0  0
  3 28  1  0  0  0  0
  3 29  1  0  0  0  0
  4  5  1  0  0  0  0
  4 20  1  0  0  0  0
  5  6  1  0  0  0  0
  5 30  1  0  0  0  0
  5 31  1  0  0  0  0
  6  7  1  0  0  0  0
  6  8  1  0  0  0  0
  6 32  1  0  0  0  0
  7 33  1  0  0  0  0
  8  9  1  0  0  0  0
  8 34  1  0  0  0  0
  8 35  1  0  0  0  0
  9 19  1  0  0  0  0
  9 10  1  0  0  0  0
 10 11  2  0  0  0  0
 10 36  1  0  0  0  0
 11 12  1  0  0  0  0
 12 19  2  0  0  0  0
 12 13  1  0  0  0  0
 13 14  2  0  0  0  0
 13 37  1  0  0  0  0
 14 15  1  0  0  0  0
 14 16  1  0  0  0  0
 16 17  1  0  0  0  0
 16 18  2  0  0  0  0
 18 19  1  0  0  0  0
 18 38  1  0  0  0  0
 20 21  1  0  0  0  0
 20 39  1  0  0  0  0
 20 40  1  0  0  0  0
 21 22  1  0  0  0  0
 21 23  1  0  0  0  0
 21 41  1  0  0  0  0
 22 42  1  0  0  0  0
 22 43  1  0  0  0  0
 22 44  1  0  0  0  0
M  END
> <s_m_source_file>
AV-unprocessed.smi

> <i_m_source_file_index>
1824

> <i_lp_mmshare_version>
43012

> <i_f3d_flags>
0

> <s_epik_input>
W0NIM11bQ0BASF0xW0NIMl1OKFtDSDJdW0NASF0oTzEpW0NIM10pW0NIMl1bQ0BIXShbT0hdKVtDSDJdbihbY0hdbjIpYyhjMjMpW2NIXWMoRiljKEYpW2NIXTM=

> <s_epik_cmdline>
J2VwaWtfcHl0aG9uJywgJy1waCcsICc3LjAnLCAnLXRuJywgJzgnLCAnLW1hJywgJzIwMCcsICctbWV0YWxfYmluZGluZycsICctaW1hZScsICc8aW5maWxlLm1hZT4nLCAnLW9tYWUnLCAnPG91dGZpbGUubWFlPic=

> <r_epik_Ionization_Penalty>
0.273778

> <r_epik_Ionization_Penalty_Charging>
0

> <r_epik_Ionization_Penalty_Neutral>
0.273778

> <r_epik_State_Penalty>
0.246794

> <r_epik_Charging_Adjusted_Penalty>
0.246794

> <i_epik_Tot_Q>
0

> <i_epik_Tot_abs_Q>
0

> <r_epik_Metal_State_Penalty>
0.238234

> <b_epik_Metal_Only>
0

> <s_lp_Force_Field>
OPLS_2005

> <r_lp_Energy>
30.0542

> <b_lp_Chiralities_Consistent>
1

> <s_lp_Variant>
AV-unprocessed.smi:1824-6

> <Gold.Version>
5.8.1

> <Gold.Id.Protein>
6NUR|6NUR_protein|mol2

> <Gold.PLP.Fitness>
50.4551

> <Gold.PLP.PLP>
-50.5100

> <Gold.PLP.part.hbond>
-1.0000

> <Gold.PLP.part.metal>
0.0000

> <Gold.PLP.part.buried>
-5.8562

> <Gold.PLP.part.nonpolar>
-41.5356

> <Gold.PLP.part.repulsive>
0.2672

> <Gold.PLP.ligand.clash>
0.0000

> <Gold.PLP.ligand.torsion>
1.5338

> <Gold.PLP.Chemscore.Hbond>
1.0000

> <Gold.PLP.Chemscore.CHOScore>
0.0000

> <Gold.PLP.Chemscore.Metal>
0.0000

> <Gold.Chemscore.Hbonds>
donor molecule, donor type, donor heavy atom, donor atom, acceptor molecule, acceptor atom, score
      P1  H  7989  7998       L1     7  0.70

> <Gold.PLP.Chemscore.Internal.Correction>
0.0126

> <Gold.Rescore>
     Score         DG    S(hbond)    S(metal)    S(lipo)     H(rot)  DE(clash)    DE(int)     intcor
     10.87     -12.47       0.00        0.00     109.13       2.26       0.04       1.56       ----

> <Gold.Chemscore.Fitness>
10.8717

> <Gold.Chemscore.DG>
-12.4712

> <Gold.Chemscore.ZeroCoef>
-5.4800

> <Gold.Chemscore.Hbond>
0.0041

> <Gold.Chemscore.Metal>
0.0000

> <Gold.Chemscore.Lipo>
109.1274

> <Gold.Chemscore.Internal_Hbond>
0.0000

> <Gold.Chemscore.DEClash>
0.0352

> <Gold.Chemscore.DEInternal>
1.5642

> <Gold.Chemscore.Rot>
2.2619

> <Gold.Chemscore.Internal.Correction>
   9.000000E+99

> <Gold.Chemscore.Hbonds>
donor molecule, donor type, donor heavy atom, donor atom, acceptor molecule, acceptor atom, score
      P1  H  7989  7998       L1     7  0.07

> <Gold.Chemscore.Hbond.Weighted>
-0.0137

> <Gold.Chemscore.Metal.Weighted>
-0.0000

> <Gold.Chemscore.Lipo.Weighted>
-12.7679

> <Gold.Chemscore.Internal_Hbond.Weighted>
0.0000

> <Gold.Chemscore.DEClash.Weighted>
0.0352

> <Gold.Chemscore.DEInternal.Weighted>
1.5642

> <Gold.Chemscore.Rot.Weighted>
5.7904

> <Gold.Chemscore.Internal.Correction.Weighted>
   9.000000E+99

> <Gold.Protein.RotatedTorsions>
[ 6907 6896 6895 6894 ] final   65.92 input  -60.11 | X-H torsion
[ 7974 7965 7964 7962 ] final -116.39 input  175.53 | X-H torsion
[ 8008 7997 7996 7995 ] final    0.50 input   59.86 | X-H torsion
[ 10167 10162 10161 10158 ] final  -46.08 input  -65.29 | X-H torsion
[ 10718 10713 10712 10709 ] final   39.05 input   66.30 | X-H torsion
[ 10763 10752 10751 10750 ] final -117.18 input  -60.55 | X-H torsion
[ 11005 11000 10999 10996 ] final  -36.28 input  -57.11 | X-H torsion

> <Gold.Protein.ActiveResidues>
 VAL166  LYS551  ARG553  GLY616  TRP617  ASP618  TYR619  PRO620  LYS621  CYS622 
 ASP623  PHE694  ASN695  SER759  ASP760  ASP761  ALA762  ILE779  LEU786  VAL792 
 PHE793  MET794  SER795  GLU796  ALA797  LYS798  CYS799  TRP800  GLU811  SER814 

> <Gold.Protein.RotatedAtoms>
  152.4443  134.5526  159.9871 H   0  0  0  0  0  0  0  0  0  0  0  0  # atno 6907 bound_to 6896
  151.5616  133.3396  159.2980 H   0  0  0  0  0  0  0  0  0  0  0  0  # atno 6908 bound_to 6896
  150.8356  134.7660  159.6953 H   0  0  0  0  0  0  0  0  0  0  0  0  # atno 6909 bound_to 6896
  145.0973  140.8529  143.3947 H   0  0  0  0  0  0  0  0  0  0  0  0  # atno 7974 bound_to 7965
  154.6688  140.2607  155.7029 H   0  0  0  0  0  0  0  0  0  0  0  0  # atno 8008 bound_to 7997
  156.2650  140.2833  156.1111 H   0  0  0  0  0  0  0  0  0  0  0  0  # atno 8009 bound_to 7997
  155.1199  140.0377  157.2737 H   0  0  0  0  0  0  0  0  0  0  0  0  # atno 8010 bound_to 7997
  140.6832  143.2848  151.3731 H   0  0  0  0  0  0  0  0  0  0  0  0  # atno 10167 bound_to 10162
  157.3661  130.7675  149.7083 H   0  0  0  0  0  0  0  0  0  0  0  0  # atno 10718 bound_to 10713
  154.8546  135.4319  154.1939 H   0  0  0  0  0  0  0  0  0  0  0  0  # atno 10763 bound_to 10752
  153.3001  135.6968  153.7217 H   0  0  0  0  0  0  0  0  0  0  0  0  # atno 10764 bound_to 10752
  153.6350  135.3478  155.3028 H   0  0  0  0  0  0  0  0  0  0  0  0  # atno 10765 bound_to 10752
  140.9862  133.7029  156.1770 H   0  0  0  0  0  0  0  0  0  0  0  0  # atno 11005 bound_to 11000
  145.0996  139.2832  143.5693 LP  0  0  0  0  0  0  0  0  0  0  0  0  # atno 17320 bound_to 7965
  146.3530  140.0559  142.8632 LP  0  0  0  0  0  0  0  0  0  0  0  0  # atno 17321 bound_to 7965
  139.6170  144.0983  152.2355 LP  0  0  0  0  0  0  0  0  0  0  0  0  # atno 17342 bound_to 10162
  140.0415  144.6004  150.7407 LP  0  0  0  0  0  0  0  0  0  0  0  0  # atno 17343 bound_to 10162
  155.9746  130.4100  150.3909 LP  0  0  0  0  0  0  0  0  0  0  0  0  # atno 17370 bound_to 10713
  157.1993  131.0434  151.2659 LP  0  0  0  0  0  0  0  0  0  0  0  0  # atno 17371 bound_to 10713
  140.7110  134.4461  157.5581 LP  0  0  0  0  0  0  0  0  0  0  0  0  # atno 17394 bound_to 11000
  139.8972  134.8643  156.2056 LP  0  0  0  0  0  0  0  0  0  0  0  0  # atno 17395 bound_to 11000

$$$$
