AV-unprocessed.smi:3118|AV-procd|sdf|11889|dock4
  -GOLD-   2272017273D 1   1.00000     0.00000
 Structure written by MMmdl.
 32 33  0  0  0  0  0  0  0  0  1 V2000
  149.1620  141.5829  156.9262 C   0  0  0  0  0  0  0  0  0  0  0  0
  150.4908  140.9039  157.3092 C   0  0  1  0  0  0  0  0  0  0  0  0
  151.3913  140.6098  156.0926 C   0  0  0  0  0  0  0  0  0  0  0  0
  151.2815  139.2394  155.6283 N   0  0  0  0  0  0  0  0  0  0  0  0
  150.1443  138.6112  155.1373 C   0  0  0  0  0  0  0  0  0  0  0  0
  150.5109  137.3213  154.8264 C   0  0  0  0  0  0  0  0  0  0  0  0
  151.8590  137.1328  155.1219 N   0  0  0  0  0  0  0  0  0  0  0  0
  152.2469  138.3101  155.5950 C   0  0  0  0  0  0  0  0  0  0  0  0
  151.2294  141.7333  158.2576 N   0  0  0  0  0  0  0  0  0  0  0  0
  152.3659  141.3841  158.8800 C   0  0  0  0  0  0  0  0  0  0  0  0
  152.9205  140.2969  158.7138 O   0  0  0  0  0  0  0  0  0  0  0  0
  152.9598  142.4332  159.8294 C   0  0  0  0  0  0  0  0  0  0  0  0
  152.8792  142.0802  161.3260 C   0  0  0  0  0  0  0  0  0  0  0  0
  152.4253  143.5174  161.5972 C   0  0  0  0  0  0  0  0  0  0  0  0
  152.0255  143.6196  160.1222 C   0  0  0  0  0  0  0  0  0  0  0  0
  148.5651  140.9504  156.2690 H   0  0  0  0  0  0  0  0  0  0  0  0
  149.3346  142.5286  156.4116 H   0  0  0  0  0  0  0  0  0  0  0  0
  148.5542  141.7905  157.8074 H   0  0  0  0  0  0  0  0  0  0  0  0
  150.2606  139.9514  157.7906 H   0  0  0  0  0  0  0  0  0  0  0  0
  151.1410  141.2767  155.2659 H   0  0  0  0  0  0  0  0  0  0  0  0
  152.4364  140.7985  156.3414 H   0  0  0  0  0  0  0  0  0  0  0  0
  149.1960  139.1209  155.0503 H   0  0  0  0  0  0  0  0  0  0  0  0
  149.9124  136.5202  154.4181 H   0  0  0  0  0  0  0  0  0  0  0  0
  153.2586  138.5015  155.9219 H   0  0  0  0  0  0  0  0  0  0  0  0
  150.8475  142.6471  158.4545 H   0  0  0  0  0  0  0  0  0  0  0  0
  153.9608  142.7623  159.5427 H   0  0  0  0  0  0  0  0  0  0  0  0
  152.1136  141.3450  161.5791 H   0  0  0  0  0  0  0  0  0  0  0  0
  153.8373  141.8256  161.7799 H   0  0  0  0  0  0  0  0  0  0  0  0
  151.5971  143.6086  162.3006 H   0  0  0  0  0  0  0  0  0  0  0  0
  153.2533  144.1787  161.8569 H   0  0  0  0  0  0  0  0  0  0  0  0
  152.3231  144.5541  159.6459 H   0  0  0  0  0  0  0  0  0  0  0  0
  150.9676  143.4073  159.9562 H   0  0  0  0  0  0  0  0  0  0  0  0
  1  2  1  0  0  0  0
  1 16  1  0  0  0  0
  1 17  1  0  0  0  0
  1 18  1  0  0  0  0
  2  3  1  0  0  0  0
  2  9  1  0  0  0  0
  2 19  1  0  0  0  0
  3  4  1  0  0  0  0
  3 20  1  0  0  0  0
  3 21  1  0  0  0  0
  4  8  1  0  0  0  0
  4  5  1  0  0  0  0
  5  6  2  0  0  0  0
  5 22  1  0  0  0  0
  6  7  1  0  0  0  0
  6 23  1  0  0  0  0
  7  8  2  0  0  0  0
  8 24  1  0  0  0  0
  9 10  1  0  0  0  0
  9 25  1  0  0  0  0
 10 11  2  0  0  0  0
 10 12  1  0  0  0  0
 12 15  1  0  0  0  0
 12 13  1  0  0  0  0
 12 26  1  0  0  0  0
 13 14  1  0  0  0  0
 13 27  1  0  0  0  0
 13 28  1  0  0  0  0
 14 15  1  0  0  0  0
 14 29  1  0  0  0  0
 14 30  1  0  0  0  0
 15 31  1  0  0  0  0
 15 32  1  0  0  0  0
M  END
> <s_m_source_file>
AV-unprocessed.smi

> <i_m_source_file_index>
3118

> <i_lp_mmshare_version>
43012

> <i_f3d_flags>
0

> <s_epik_input>
W0NIMl0xW0NIMl1bQ0gyXVtDSF0xQyg9TylbTkhdW0NASF0oW0NIM10pW0NIMl1uMltjSF1bY0hdbltjSF0y

> <s_epik_cmdline>
J2VwaWtfcHl0aG9uJywgJy1waCcsICc3LjAnLCAnLXRuJywgJzgnLCAnLW1hJywgJzIwMCcsICctbWV0YWxfYmluZGluZycsICctaW1hZScsICc8aW5maWxlLm1hZT4nLCAnLW9tYWUnLCAnPG91dGZpbGUubWFlPic=

> <r_lp_tautomer_probability>
1

> <r_epik_Ionization_Penalty>
0.642614

> <r_epik_Ionization_Penalty_Charging>
0.642614

> <r_epik_Ionization_Penalty_Neutral>
2.50867e-08

> <r_epik_State_Penalty>
0.660429

> <r_epik_Charging_Adjusted_Penalty>
1.30304

> <i_epik_Tot_Q>
0

> <i_epik_Tot_abs_Q>
0

> <r_epik_Metal_State_Penalty>
0.312239

> <b_epik_Metal_Only>
0

> <s_lp_Force_Field>
OPLS_2005

> <r_lp_Energy>
13.1137

> <b_lp_Chiralities_Consistent>
1

> <s_lp_Variant>
AV-unprocessed.smi:3118-4

> <Gold.Version>
5.8.1

> <Gold.Id.Protein>
6NUR|6NUR_protein|mol2

> <Gold.PLP.Fitness>
43.3454

> <Gold.PLP.PLP>
-36.5149

> <Gold.PLP.part.hbond>
-2.0000

> <Gold.PLP.part.metal>
0.0000

> <Gold.PLP.part.buried>
-3.1579

> <Gold.PLP.part.nonpolar>
-30.9402

> <Gold.PLP.part.repulsive>
0.1832

> <Gold.PLP.ligand.clash>
0.0000

> <Gold.PLP.ligand.torsion>
0.7807

> <Gold.PLP.Chemscore.Hbond>
1.6480

> <Gold.PLP.Chemscore.CHOScore>
1.0102

> <Gold.PLP.Chemscore.Metal>
0.0000

> <Gold.Chemscore.Hbonds>
donor molecule, donor type, donor heavy atom, donor atom, acceptor molecule, acceptor atom, score
      P1  H  7997  8009       L1    11  0.12
      P1  H 10752 10763       L1     7  0.78
      L1  C     6    23       P1  7948  0.53

> <Gold.PLP.Chemscore.Internal.Correction>
0.4173

> <Gold.Rescore>
     Score         DG    S(hbond)    S(metal)    S(lipo)     H(rot)  DE(clash)    DE(int)     intcor
     14.93     -15.97       1.77        0.00      78.24       1.79       0.23       0.81       ----

> <Gold.Chemscore.Fitness>
14.9313

> <Gold.Chemscore.DG>
-15.9656

> <Gold.Chemscore.ZeroCoef>
-5.4800

> <Gold.Chemscore.Hbond>
1.7699

> <Gold.Chemscore.Metal>
0.0000

> <Gold.Chemscore.Lipo>
78.2368

> <Gold.Chemscore.Internal_Hbond>
0.0000

> <Gold.Chemscore.DEClash>
0.2277

> <Gold.Chemscore.DEInternal>
0.8066

> <Gold.Chemscore.Rot>
1.7889

> <Gold.Chemscore.Internal.Correction>
   9.000000E+99

> <Gold.Chemscore.Hbonds>
donor molecule, donor type, donor heavy atom, donor atom, acceptor molecule, acceptor atom, score
      P1  H  7997  8009       L1    11  0.12
      P1  H 10752 10763       L1     7  0.72

> <Gold.Chemscore.Hbond.Weighted>
-5.9114

> <Gold.Chemscore.Metal.Weighted>
-0.0000

> <Gold.Chemscore.Lipo.Weighted>
-9.1537

> <Gold.Chemscore.Internal_Hbond.Weighted>
0.0000

> <Gold.Chemscore.DEClash.Weighted>
0.2277

> <Gold.Chemscore.DEInternal.Weighted>
0.8066

> <Gold.Chemscore.Rot.Weighted>
4.5795

> <Gold.Chemscore.Internal.Correction.Weighted>
   9.000000E+99

> <Gold.Protein.RotatedTorsions>
[ 6907 6896 6895 6894 ] final -111.45 input  -60.11 | X-H torsion
[ 7974 7965 7964 7962 ] final  150.81 input  175.53 | X-H torsion
[ 8008 7997 7996 7995 ] final  154.88 input   59.86 | X-H torsion
[ 10167 10162 10161 10158 ] final  -20.06 input  -65.29 | X-H torsion
[ 10718 10713 10712 10709 ] final -136.88 input   66.30 | X-H torsion
[ 10763 10752 10751 10750 ] final   38.12 input  -60.55 | X-H torsion
[ 11005 11000 10999 10996 ] final  104.63 input  -57.11 | X-H torsion

> <Gold.Protein.ActiveResidues>
 VAL166  LYS551  ARG553  GLY616  TRP617  ASP618  TYR619  PRO620  LYS621  CYS622 
 ASP623  PHE694  ASN695  SER759  ASP760  ASP761  ALA762  ILE779  LEU786  VAL792 
 PHE793  MET794  SER795  GLU796  ALA797  LYS798  CYS799  TRP800  GLU811  SER814 

> <Gold.Protein.RotatedAtoms>
  150.7691  133.9233  159.3404 H   0  0  0  0  0  0  0  0  0  0  0  0  # atno 6907 bound_to 6896
  151.7124  135.0908  160.0279 H   0  0  0  0  0  0  0  0  0  0  0  0  # atno 6908 bound_to 6896
  152.3701  133.6370  159.6116 H   0  0  0  0  0  0  0  0  0  0  0  0  # atno 6909 bound_to 6896
  144.8337  139.6457  143.6047 H   0  0  0  0  0  0  0  0  0  0  0  0  # atno 7974 bound_to 7965
  156.2508  140.1954  156.6715 H   0  0  0  0  0  0  0  0  0  0  0  0  # atno 8008 bound_to 7997
  154.6389  140.0586  156.9848 H   0  0  0  0  0  0  0  0  0  0  0  0  # atno 8009 bound_to 7997
  155.1593  140.3258  155.4417 H   0  0  0  0  0  0  0  0  0  0  0  0  # atno 8010 bound_to 7997
  140.7273  143.4759  151.0183 H   0  0  0  0  0  0  0  0  0  0  0  0  # atno 10167 bound_to 10162
  156.2819  130.7326  151.1326 H   0  0  0  0  0  0  0  0  0  0  0  0  # atno 10718 bound_to 10713
  153.0012  135.6258  154.2254 H   0  0  0  0  0  0  0  0  0  0  0  0  # atno 10763 bound_to 10752
  154.1997  135.2805  155.2996 H   0  0  0  0  0  0  0  0  0  0  0  0  # atno 10764 bound_to 10752
  154.5694  135.5681  153.7139 H   0  0  0  0  0  0  0  0  0  0  0  0  # atno 10765 bound_to 10752
  139.8794  134.9307  156.5391 H   0  0  0  0  0  0  0  0  0  0  0  0  # atno 11005 bound_to 11000
  146.2638  139.6471  142.9344 LP  0  0  0  0  0  0  0  0  0  0  0  0  # atno 17320 bound_to 7965
  145.4840  141.0438  143.2630 LP  0  0  0  0  0  0  0  0  0  0  0  0  # atno 17321 bound_to 7965
  139.8454  143.7508  152.3179 LP  0  0  0  0  0  0  0  0  0  0  0  0  # atno 17342 bound_to 10162
  139.7672  144.7488  151.0278 LP  0  0  0  0  0  0  0  0  0  0  0  0  # atno 17343 bound_to 10162
  157.7317  131.0606  150.5665 LP  0  0  0  0  0  0  0  0  0  0  0  0  # atno 17370 bound_to 10713
  156.5772  130.4295  149.5993 LP  0  0  0  0  0  0  0  0  0  0  0  0  # atno 17371 bound_to 10713
  140.8324  133.8269  155.8996 LP  0  0  0  0  0  0  0  0  0  0  0  0  # atno 17394 bound_to 11000
  140.9316  134.2014  157.4860 LP  0  0  0  0  0  0  0  0  0  0  0  0  # atno 17395 bound_to 11000

$$$$
