AV-unprocessed.smi:1692|AV-procd|sdf|6783|dock3
  -GOLD-   22720 7543D 1   1.00000     0.00000
 Structure written by MMmdl.
 45 46  0  0  0  0  0  0  0  0  1 V2000
  144.3595  143.5154  158.0421 C   0  0  0  0  0  0  0  0  0  0  0  0
  144.2589  143.2952  156.5291 C   0  0  2  0  0  0  0  0  0  0  0  0
  145.6183  142.9288  155.9024 C   0  0  0  0  0  0  0  0  0  0  0  0
  145.5345  142.8009  154.4493 N   0  0  0  0  0  0  0  0  0  0  0  0
  146.8228  142.4760  153.8384 C   0  0  0  0  0  0  0  0  0  0  0  0
  147.3039  141.0326  154.0649 C   0  0  0  0  0  0  0  0  0  0  0  0
  148.8308  140.9471  154.2188 C   0  0  0  0  0  0  0  0  0  0  0  0
  149.3250  141.8949  155.2112 N   0  0  0  0  0  0  0  0  0  0  0  0
  150.0564  141.5713  156.2879 C   0  0  0  0  0  0  0  0  0  0  0  0
  150.3941  140.4179  156.5569 O   0  0  0  0  0  0  0  0  0  0  0  0
  150.3621  142.6614  157.0138 N   0  0  0  0  0  0  0  0  0  0  0  0
  151.1145  142.7341  158.2165 C   0  0  0  0  0  0  0  0  0  0  0  0
  151.2871  144.0370  158.7368 C   0  0  0  0  0  0  0  0  0  0  0  0
  152.0166  144.2166  159.9281 C   0  0  0  0  0  0  0  0  0  0  0  0
  152.5557  143.0873  160.5695 C   0  0  0  0  0  0  0  0  0  0  0  0
  152.3384  141.8260  159.9850 C   0  0  0  0  0  0  0  0  0  0  0  0
  151.6396  141.6516  158.8434 N   0  0  0  0  0  0  0  0  0  0  0  0
  144.9924  144.0376  153.8973 C   0  0  0  0  0  0  0  0  0  0  0  0
  143.6299  144.4007  154.5178 C   0  0  2  0  0  0  0  0  0  0  0  0
  143.0935  145.7383  153.9970 C   0  0  0  0  0  0  0  0  0  0  0  0
  143.7763  144.4956  155.9320 O   0  0  0  0  0  0  0  0  0  0  0  0
  144.7140  142.6160  158.5462 H   0  0  0  0  0  0  0  0  0  0  0  0
  143.3872  143.7716  158.4636 H   0  0  0  0  0  0  0  0  0  0  0  0
  145.0492  144.3265  158.2774 H   0  0  0  0  0  0  0  0  0  0  0  0
  143.5422  142.4943  156.3391 H   0  0  0  0  0  0  0  0  0  0  0  0
  146.3562  143.6893  156.1634 H   0  0  0  0  0  0  0  0  0  0  0  0
  145.9630  141.9944  156.3442 H   0  0  0  0  0  0  0  0  0  0  0  0
  146.7455  142.6309  152.7614 H   0  0  0  0  0  0  0  0  0  0  0  0
  147.5848  143.1750  154.1869 H   0  0  0  0  0  0  0  0  0  0  0  0
  146.8325  140.6158  154.9551 H   0  0  0  0  0  0  0  0  0  0  0  0
  146.9893  140.4112  153.2256 H   0  0  0  0  0  0  0  0  0  0  0  0
  149.1160  139.9452  154.5401 H   0  0  0  0  0  0  0  0  0  0  0  0
  149.3230  141.1169  153.2596 H   0  0  0  0  0  0  0  0  0  0  0  0
  149.0930  142.8666  155.0664 H   0  0  0  0  0  0  0  0  0  0  0  0
  150.0145  143.5428  156.6663 H   0  0  0  0  0  0  0  0  0  0  0  0
  150.8657  144.8941  158.2319 H   0  0  0  0  0  0  0  0  0  0  0  0
  152.1587  145.2039  160.3421 H   0  0  0  0  0  0  0  0  0  0  0  0
  153.1205  143.1849  161.4848 H   0  0  0  0  0  0  0  0  0  0  0  0
  152.7352  140.9336  160.4455 H   0  0  0  0  0  0  0  0  0  0  0  0
  145.6961  144.8549  154.0644 H   0  0  0  0  0  0  0  0  0  0  0  0
  144.8801  143.9397  152.8169 H   0  0  0  0  0  0  0  0  0  0  0  0
  142.9034  143.6190  154.2888 H   0  0  0  0  0  0  0  0  0  0  0  0
  142.9452  145.7074  152.9173 H   0  0  0  0  0  0  0  0  0  0  0  0
  143.7833  146.5536  154.2173 H   0  0  0  0  0  0  0  0  0  0  0  0
  142.1350  145.9791  154.4572 H   0  0  0  0  0  0  0  0  0  0  0  0
  1  2  1  0  0  0  0
  1 22  1  0  0  0  0
  1 23  1  0  0  0  0
  1 24  1  0  0  0  0
  2 21  1  0  0  0  0
  2  3  1  0  0  0  0
  2 25  1  0  0  0  0
  3  4  1  0  0  0  0
  3 26  1  0  0  0  0
  3 27  1  0  0  0  0
  4  5  1  0  0  0  0
  4 18  1  0  0  0  0
  5  6  1  0  0  0  0
  5 28  1  0  0  0  0
  5 29  1  0  0  0  0
  6  7  1  0  0  0  0
  6 30  1  0  0  0  0
  6 31  1  0  0  0  0
  7  8  1  0  0  0  0
  7 32  1  0  0  0  0
  7 33  1  0  0  0  0
  8  9  1  0  0  0  0
  8 34  1  0  0  0  0
  9 10  2  0  0  0  0
  9 11  1  0  0  0  0
 11 12  1  0  0  0  0
 11 35  1  0  0  0  0
 12 17  1  0  0  0  0
 12 13  2  0  0  0  0
 13 14  1  0  0  0  0
 13 36  1  0  0  0  0
 14 15  2  0  0  0  0
 14 37  1  0  0  0  0
 15 16  1  0  0  0  0
 15 38  1  0  0  0  0
 16 17  2  0  0  0  0
 16 39  1  0  0  0  0
 18 19  1  0  0  0  0
 18 40  1  0  0  0  0
 18 41  1  0  0  0  0
 19 20  1  0  0  0  0
 19 21  1  0  0  0  0
 19 42  1  0  0  0  0
 20 43  1  0  0  0  0
 20 44  1  0  0  0  0
 20 45  1  0  0  0  0
M  END
> <s_m_source_file>
AV-unprocessed.smi

> <i_m_source_file_index>
1692

> <i_lp_mmshare_version>
43012

> <i_f3d_flags>
0

> <s_epik_input>
W0NIM11bQ0BASF0xW0NIMl1OKFtDSDJdW0NASF0oTzEpW0NIM10pW0NIMl1bQ0gyXVtDSDJdW05IXUMoPU8pW05IXWMyW2NIXVtjSF1bY0hdW2NIXW4y

> <s_epik_cmdline>
J2VwaWtfcHl0aG9uJywgJy1waCcsICc3LjAnLCAnLXRuJywgJzgnLCAnLW1hJywgJzIwMCcsICctbWV0YWxfYmluZGluZycsICctaW1hZScsICc8aW5maWxlLm1hZT4nLCAnLW9tYWUnLCAnPG91dGZpbGUubWFlPic=

> <r_epik_Ionization_Penalty>
0.594711

> <r_epik_Ionization_Penalty_Charging>
0

> <r_epik_Ionization_Penalty_Neutral>
0.594711

> <r_epik_State_Penalty>
0.608529

> <r_epik_Charging_Adjusted_Penalty>
0.608529

> <i_epik_Tot_Q>
0

> <i_epik_Tot_abs_Q>
0

> <r_epik_Metal_State_Penalty>
0.608528

> <b_epik_Metal_Only>
0

> <s_lp_Force_Field>
OPLS_2005

> <r_lp_Energy>
22.8086

> <b_lp_Chiralities_Consistent>
1

> <s_lp_Variant>
AV-unprocessed.smi:1692-6

> <Gold.Version>
5.8.1

> <Gold.Id.Protein>
6NUR|6NUR_protein|mol2

> <Gold.PLP.Fitness>
49.0112

> <Gold.PLP.PLP>
-43.7421

> <Gold.PLP.part.hbond>
-2.0000

> <Gold.PLP.part.metal>
0.0000

> <Gold.PLP.part.buried>
-7.5509

> <Gold.PLP.part.nonpolar>
-34.5208

> <Gold.PLP.part.repulsive>
0.5540

> <Gold.PLP.ligand.clash>
0.0000

> <Gold.PLP.ligand.torsion>
0.3648

> <Gold.PLP.Chemscore.Hbond>
1.9920

> <Gold.PLP.Chemscore.CHOScore>
0.0000

> <Gold.PLP.Chemscore.Metal>
0.0000

> <Gold.Chemscore.Hbonds>
donor molecule, donor type, donor heavy atom, donor atom, acceptor molecule, acceptor atom, score
      L1  H     8    34       P1  8028  1.00
      L1  H    11    35       P1  8028  1.00

> <Gold.PLP.Chemscore.Internal.Correction>
0.0227

> <Gold.Rescore>
     Score         DG    S(hbond)    S(metal)    S(lipo)     H(rot)  DE(clash)    DE(int)     intcor
     17.36     -19.20       1.96        0.00      99.11       1.73       0.05       1.78       ----

> <Gold.Chemscore.Fitness>
17.3623

> <Gold.Chemscore.DG>
-19.1961

> <Gold.Chemscore.ZeroCoef>
-5.4800

> <Gold.Chemscore.Hbond>
1.9582

> <Gold.Chemscore.Metal>
0.0000

> <Gold.Chemscore.Lipo>
99.1079

> <Gold.Chemscore.Internal_Hbond>
0.0000

> <Gold.Chemscore.DEClash>
0.0504

> <Gold.Chemscore.DEInternal>
1.7834

> <Gold.Chemscore.Rot>
1.7266

> <Gold.Chemscore.Internal.Correction>
   9.000000E+99

> <Gold.Chemscore.Hbonds>
donor molecule, donor type, donor heavy atom, donor atom, acceptor molecule, acceptor atom, score
      L1  H     8    34       P1  8028  0.97
      L1  H    11    35       P1  8028  0.99

> <Gold.Chemscore.Hbond.Weighted>
-6.5405

> <Gold.Chemscore.Metal.Weighted>
-0.0000

> <Gold.Chemscore.Lipo.Weighted>
-11.5956

> <Gold.Chemscore.Internal_Hbond.Weighted>
0.0000

> <Gold.Chemscore.DEClash.Weighted>
0.0504

> <Gold.Chemscore.DEInternal.Weighted>
1.7834

> <Gold.Chemscore.Rot.Weighted>
4.4200

> <Gold.Chemscore.Internal.Correction.Weighted>
   9.000000E+99

> <Gold.Protein.RotatedTorsions>
[ 6907 6896 6895 6894 ] final  162.56 input  -60.11 | X-H torsion
[ 7974 7965 7964 7962 ] final -144.01 input  175.53 | X-H torsion
[ 8008 7997 7996 7995 ] final  -36.92 input   59.86 | X-H torsion
[ 10167 10162 10161 10158 ] final   66.09 input  -65.29 | X-H torsion
[ 10718 10713 10712 10709 ] final -122.51 input   66.30 | X-H torsion
[ 10763 10752 10751 10750 ] final -133.84 input  -60.55 | X-H torsion
[ 11005 11000 10999 10996 ] final   26.66 input  -57.11 | X-H torsion

> <Gold.Protein.ActiveResidues>
 VAL166  LYS551  ARG553  GLY616  TRP617  ASP618  TYR619  PRO620  LYS621  CYS622 
 ASP623  PHE694  ASN695  SER759  ASP760  ASP761  ALA762  ILE779  LEU786  VAL792 
 PHE793  MET794  SER795  GLU796  ALA797  LYS798  CYS799  TRP800  GLU811  SER814 

> <Gold.Protein.RotatedAtoms>
  151.9386  133.3631  159.3956 H   0  0  0  0  0  0  0  0  0  0  0  0  # atno 6907 bound_to 6896
  150.7003  134.4462  159.5324 H   0  0  0  0  0  0  0  0  0  0  0  0  # atno 6908 bound_to 6896
  152.2116  134.8496  160.0547 H   0  0  0  0  0  0  0  0  0  0  0  0  # atno 6909 bound_to 6896
  144.8328  140.5763  143.5504 H   0  0  0  0  0  0  0  0  0  0  0  0  # atno 7974 bound_to 7965
  154.4063  140.1618  156.2453 H   0  0  0  0  0  0  0  0  0  0  0  0  # atno 8008 bound_to 7997
  155.9166  140.3424  155.6117 H   0  0  0  0  0  0  0  0  0  0  0  0  # atno 8009 bound_to 7997
  155.7273  140.0776  157.2295 H   0  0  0  0  0  0  0  0  0  0  0  0  # atno 8010 bound_to 7997
  140.1042  144.4876  150.7018 H   0  0  0  0  0  0  0  0  0  0  0  0  # atno 10167 bound_to 10162
  156.1424  130.6476  150.9792 H   0  0  0  0  0  0  0  0  0  0  0  0  # atno 10718 bound_to 10713
  154.8727  135.3753  154.4638 H   0  0  0  0  0  0  0  0  0  0  0  0  # atno 10763 bound_to 10752
  153.5304  135.7028  153.5691 H   0  0  0  0  0  0  0  0  0  0  0  0  # atno 10764 bound_to 10752
  153.3899  135.3975  155.1881 H   0  0  0  0  0  0  0  0  0  0  0  0  # atno 10765 bound_to 10752
  140.3346  134.2399  155.7697 H   0  0  0  0  0  0  0  0  0  0  0  0  # atno 11005 bound_to 11000
  145.4859  139.1492  143.3736 LP  0  0  0  0  0  0  0  0  0  0  0  0  # atno 17320 bound_to 7965
  146.2629  140.4996  142.8846 LP  0  0  0  0  0  0  0  0  0  0  0  0  # atno 17321 bound_to 7965
  140.6961  143.2405  151.4997 LP  0  0  0  0  0  0  0  0  0  0  0  0  # atno 17342 bound_to 10162
  139.5654  144.2054  152.1757 LP  0  0  0  0  0  0  0  0  0  0  0  0  # atno 17343 bound_to 10162
  157.6588  131.0884  150.7887 LP  0  0  0  0  0  0  0  0  0  0  0  0  # atno 17370 bound_to 10713
  156.7961  130.4906  149.5377 LP  0  0  0  0  0  0  0  0  0  0  0  0  # atno 17371 bound_to 10713
  141.2054  133.7860  157.0233 LP  0  0  0  0  0  0  0  0  0  0  0  0  # atno 17394 bound_to 11000
  140.0831  134.9636  157.1657 LP  0  0  0  0  0  0  0  0  0  0  0  0  # atno 17395 bound_to 11000

$$$$
