AV-unprocessed.smi:1644|AV-procd|sdf|6594|dock8
  -GOLD-   22720 7293D 1   1.00000     0.00000
 Structure written by MMmdl.
 48 50  0  0  0  0  0  0  0  0  2 V2000
  142.8756  144.5342  155.2043 C   0  0  0  0  0  0  0  0  0  0  0  0
  144.2998  144.5927  155.7674 C   0  0  0  0  0  0  0  0  0  0  0  0
  144.7625  143.2379  156.3238 C   0  0  0  0  0  0  0  0  0  0  0  0
  144.8824  142.1412  155.2471 C   0  0  2  0  0  0  0  0  0  0  0  0
  145.0174  140.8262  155.8382 N   0  5  0  0  0  0  0  0  0  0  0  0
  146.1556  140.2587  155.3753 C   0  0  0  0  0  0  0  0  0  0  0  0
  146.5702  139.1299  155.6352 O   0  0  0  0  0  0  0  0  0  0  0  0
  146.8175  141.0965  154.5539 N   0  0  0  0  0  0  0  0  0  0  0  0
  148.0449  140.7660  153.8178 C   0  0  0  0  0  0  0  0  0  0  0  0
  149.2609  140.4289  154.7104 C   0  0  1  0  0  0  0  0  0  0  0  0
  150.2437  139.8598  153.8700 O   0  0  0  0  0  0  0  0  0  0  0  0
  149.9045  141.6339  155.4308 C   0  0  0  0  0  0  0  0  0  0  0  0
  150.8247  141.2624  156.4924 N   0  0  0  0  0  0  0  0  0  0  0  0
  151.6781  140.2191  156.4969 C   0  0  0  0  0  0  0  0  0  0  0  0
  152.4856  140.0934  157.5454 N   0  0  0  0  0  0  0  0  0  0  0  0
  152.1190  141.1866  158.3097 C   0  0  0  0  0  0  0  0  0  0  0  0
  152.6047  141.6334  159.5584 C   0  0  0  0  0  0  0  0  0  0  0  0
  152.0689  142.7871  160.1732 C   0  0  0  0  0  0  0  0  0  0  0  0
  152.6058  143.2195  161.5258 C   0  0  0  0  0  0  0  0  0  0  0  0
  151.0395  143.5208  159.5309 C   0  0  0  0  0  0  0  0  0  0  0  0
  150.4390  144.7557  160.1777 C   0  0  0  0  0  0  0  0  0  0  0  0
  150.5538  143.0970  158.2765 C   0  0  0  0  0  0  0  0  0  0  0  0
  151.0837  141.9387  157.6803 C   0  0  0  0  0  0  0  0  0  0  0  0
  146.1564  142.2530  154.4340 C   0  0  0  0  0  0  0  0  0  0  0  0
  146.4801  143.2429  153.7762 O   0  0  0  0  0  0  0  0  0  0  0  0
  142.5726  145.5053  154.8128 H   0  0  0  0  0  0  0  0  0  0  0  0
  142.1598  144.2466  155.9747 H   0  0  0  0  0  0  0  0  0  0  0  0
  142.8039  143.8097  154.3925 H   0  0  0  0  0  0  0  0  0  0  0  0
  144.9821  144.9207  154.9826 H   0  0  0  0  0  0  0  0  0  0  0  0
  144.3469  145.3470  156.5534 H   0  0  0  0  0  0  0  0  0  0  0  0
  145.7257  143.3768  156.8172 H   0  0  0  0  0  0  0  0  0  0  0  0
  144.0689  142.9165  157.0985 H   0  0  0  0  0  0  0  0  0  0  0  0
  144.0395  142.2040  154.5576 H   0  0  0  0  0  0  0  0  0  0  0  0
  147.8211  139.9120  153.1758 H   0  0  0  0  0  0  0  0  0  0  0  0
  148.3112  141.5743  153.1343 H   0  0  0  0  0  0  0  0  0  0  0  0
  148.9977  139.6546  155.4308 H   0  0  0  0  0  0  0  0  0  0  0  0
  149.8642  139.7258  153.0151 H   0  0  0  0  0  0  0  0  0  0  0  0
  150.4808  142.2256  154.7179 H   0  0  0  0  0  0  0  0  0  0  0  0
  149.1356  142.2974  155.8278 H   0  0  0  0  0  0  0  0  0  0  0  0
  151.7183  139.5168  155.6772 H   0  0  0  0  0  0  0  0  0  0  0  0
  153.3863  141.0715  160.0476 H   0  0  0  0  0  0  0  0  0  0  0  0
  153.0635  144.2064  161.4569 H   0  0  0  0  0  0  0  0  0  0  0  0
  153.3598  142.5239  161.8952 H   0  0  0  0  0  0  0  0  0  0  0  0
  151.8022  143.2603  162.2613 H   0  0  0  0  0  0  0  0  0  0  0  0
  149.6700  145.2009  159.5458 H   0  0  0  0  0  0  0  0  0  0  0  0
  151.2072  145.5091  160.3524 H   0  0  0  0  0  0  0  0  0  0  0  0
  149.9791  144.4990  161.1323 H   0  0  0  0  0  0  0  0  0  0  0  0
  149.7659  143.6446  157.7812 H   0  0  0  0  0  0  0  0  0  0  0  0
  1  2  1  0  0  0  0
  1 26  1  0  0  0  0
  1 27  1  0  0  0  0
  1 28  1  0  0  0  0
  2  3  1  0  0  0  0
  2 29  1  0  0  0  0
  2 30  1  0  0  0  0
  3  4  1  0  0  0  0
  3 31  1  0  0  0  0
  3 32  1  0  0  0  0
  4 24  1  0  0  0  0
  4  5  1  0  0  0  0
  4 33  1  0  0  0  0
  5  6  1  0  0  0  0
  6  7  2  0  0  0  0
  6  8  1  0  0  0  0
  8  9  1  0  0  0  0
  8 24  1  0  0  0  0
  9 10  1  0  0  0  0
  9 34  1  0  0  0  0
  9 35  1  0  0  0  0
 10 11  1  0  0  0  0
 10 12  1  0  0  0  0
 10 36  1  0  0  0  0
 11 37  1  0  0  0  0
 12 13  1  0  0  0  0
 12 38  1  0  0  0  0
 12 39  1  0  0  0  0
 13 23  1  0  0  0  0
 13 14  1  0  0  0  0
 14 15  2  0  0  0  0
 14 40  1  0  0  0  0
 15 16  1  0  0  0  0
 16 23  2  0  0  0  0
 16 17  1  0  0  0  0
 17 18  2  0  0  0  0
 17 41  1  0  0  0  0
 18 19  1  0  0  0  0
 18 20  1  0  0  0  0
 19 42  1  0  0  0  0
 19 43  1  0  0  0  0
 19 44  1  0  0  0  0
 20 21  1  0  0  0  0
 20 22  2  0  0  0  0
 21 45  1  0  0  0  0
 21 46  1  0  0  0  0
 21 47  1  0  0  0  0
 22 23  1  0  0  0  0
 22 48  1  0  0  0  0
 24 25  2  0  0  0  0
M  CHG  1   5  -1
M  END
> <s_m_source_file>
AV-unprocessed.smi

> <i_m_source_file_index>
1644

> <i_lp_mmshare_version>
43012

> <i_f3d_flags>
0

> <s_epik_input>
W0NIM11bQ0gyXVtDSDJdW0NAQEhdMVtOSF1DKD1PKU4oQzE9TylbQ0gyXVtDQEhdKFtPSF0pW0NIMl1uKFtjSF1uMiljKGMyMylbY0hdYyhbQ0gzXSljKFtjSF0zKVtDSDNd

> <s_epik_cmdline>
J2VwaWtfcHl0aG9uJywgJy1waCcsICc3LjAnLCAnLXRuJywgJzgnLCAnLW1hJywgJzIwMCcsICctbWV0YWxfYmluZGluZycsICctaW1hZScsICc8aW5maWxlLm1hZT4nLCAnLW9tYWUnLCAnPG91dGZpbGUubWFlPic=

> <r_lp_tautomer_probability>
1

> <r_epik_Ionization_Penalty>
5.95212

> <r_epik_Ionization_Penalty_Charging>
5.84419

> <r_epik_Ionization_Penalty_Neutral>
0.107924

> <r_epik_State_Penalty>
5.94088

> <r_epik_Charging_Adjusted_Penalty>
11.7851

> <i_epik_Tot_Q>
-1

> <i_epik_Tot_abs_Q>
1

> <r_epik_Metal_State_Penalty>
1.99095

> <b_epik_Metal_Only>
1

> <s_lp_Force_Field>
OPLS_2005

> <r_lp_Energy>
16.2411

> <b_lp_Chiralities_Consistent>
1

> <s_lp_Variant>
AV-unprocessed.smi:1644-11

> <Gold.Version>
5.8.1

> <Gold.Id.Protein>
6NUR|6NUR_protein|mol2

> <Gold.PLP.Fitness>
54.9923

> <Gold.PLP.PLP>
-47.6992

> <Gold.PLP.part.hbond>
-4.0000

> <Gold.PLP.part.metal>
0.0000

> <Gold.PLP.part.buried>
-4.2254

> <Gold.PLP.part.nonpolar>
-38.8610

> <Gold.PLP.part.repulsive>
0.3420

> <Gold.PLP.ligand.clash>
0.0000

> <Gold.PLP.ligand.torsion>
0.6680

> <Gold.PLP.Chemscore.Hbond>
2.8320

> <Gold.PLP.Chemscore.CHOScore>
0.0000

> <Gold.PLP.Chemscore.Metal>
0.0000

> <Gold.Chemscore.Hbonds>
donor molecule, donor type, donor heavy atom, donor atom, acceptor molecule, acceptor atom, score
      L1  H    11    37       P1  7957  1.00
      P1  H  7989  7998       L1    11  0.96
      P1  H  7997  8009       L1    15  0.72

> <Gold.PLP.Chemscore.Internal.Correction>
0.1330

> <Gold.Rescore>
     Score         DG    S(hbond)    S(metal)    S(lipo)     H(rot)  DE(clash)    DE(int)     intcor
     17.80     -19.63       2.41        0.00     110.09       2.65       0.26       1.57       ----

> <Gold.Chemscore.Fitness>
17.7960

> <Gold.Chemscore.DG>
-19.6252

> <Gold.Chemscore.ZeroCoef>
-5.4800

> <Gold.Chemscore.Hbond>
2.4088

> <Gold.Chemscore.Metal>
0.0000

> <Gold.Chemscore.Lipo>
110.0892

> <Gold.Chemscore.Internal_Hbond>
0.0000

> <Gold.Chemscore.DEClash>
0.2618

> <Gold.Chemscore.DEInternal>
1.5674

> <Gold.Chemscore.Rot>
2.6486

> <Gold.Chemscore.Internal.Correction>
   9.000000E+99

> <Gold.Chemscore.Hbonds>
donor molecule, donor type, donor heavy atom, donor atom, acceptor molecule, acceptor atom, score
      L1  H    11    37       P1  7957  0.98
      P1  H  7989  7998       L1    11  0.26
      P1  H  7997  8009       L1    15  0.15

> <Gold.Chemscore.Hbond.Weighted>
-8.0452

> <Gold.Chemscore.Metal.Weighted>
-0.0000

> <Gold.Chemscore.Lipo.Weighted>
-12.8804

> <Gold.Chemscore.Internal_Hbond.Weighted>
0.0000

> <Gold.Chemscore.DEClash.Weighted>
0.2618

> <Gold.Chemscore.DEInternal.Weighted>
1.5674

> <Gold.Chemscore.Rot.Weighted>
6.7804

> <Gold.Chemscore.Internal.Correction.Weighted>
   9.000000E+99

> <Gold.Protein.RotatedTorsions>
[ 6907 6896 6895 6894 ] final  110.03 input  -60.11 | X-H torsion
[ 7974 7965 7964 7962 ] final  163.15 input  175.53 | X-H torsion
[ 8008 7997 7996 7995 ] final -172.86 input   59.86 | X-H torsion
[ 10167 10162 10161 10158 ] final -141.18 input  -65.29 | X-H torsion
[ 10718 10713 10712 10709 ] final  170.03 input   66.30 | X-H torsion
[ 10763 10752 10751 10750 ] final   19.44 input  -60.55 | X-H torsion
[ 11005 11000 10999 10996 ] final   94.48 input  -57.11 | X-H torsion

> <Gold.Protein.ActiveResidues>
 VAL166  LYS551  ARG553  GLY616  TRP617  ASP618  TYR619  PRO620  LYS621  CYS622 
 ASP623  PHE694  ASN695  SER759  ASP760  ASP761  ALA762  ILE779  LEU786  VAL792 
 PHE793  MET794  SER795  GLU796  ALA797  LYS798  CYS799  TRP800  GLU811  SER814 

> <Gold.Protein.RotatedAtoms>
  152.5039  133.8859  159.7369 H   0  0  0  0  0  0  0  0  0  0  0  0  # atno 6907 bound_to 6896
  150.9310  133.6759  159.2817 H   0  0  0  0  0  0  0  0  0  0  0  0  # atno 6908 bound_to 6896
  151.4103  135.0988  159.9635 H   0  0  0  0  0  0  0  0  0  0  0  0  # atno 6909 bound_to 6896
  144.7603  139.8141  143.6335 H   0  0  0  0  0  0  0  0  0  0  0  0  # atno 7974 bound_to 7965
  155.9501  140.1125  157.0984 H   0  0  0  0  0  0  0  0  0  0  0  0  # atno 8008 bound_to 7997
  154.4108  140.1202  156.5107 H   0  0  0  0  0  0  0  0  0  0  0  0  # atno 8009 bound_to 7997
  155.6853  140.3473  155.4874 H   0  0  0  0  0  0  0  0  0  0  0  0  # atno 8010 bound_to 7997
  139.8209  143.7575  152.2666 H   0  0  0  0  0  0  0  0  0  0  0  0  # atno 10167 bound_to 10162
  157.0141  131.0213  151.2794 H   0  0  0  0  0  0  0  0  0  0  0  0  # atno 10718 bound_to 10713
  153.1162  135.6708  153.9414 H   0  0  0  0  0  0  0  0  0  0  0  0  # atno 10763 bound_to 10752
  153.8943  135.3043  155.3449 H   0  0  0  0  0  0  0  0  0  0  0  0  # atno 10764 bound_to 10752
  154.7578  135.5003  153.9486 H   0  0  0  0  0  0  0  0  0  0  0  0  # atno 10765 bound_to 10752
  139.8798  134.8848  156.3871 H   0  0  0  0  0  0  0  0  0  0  0  0  # atno 11005 bound_to 11000
  146.1659  139.4790  142.9958 LP  0  0  0  0  0  0  0  0  0  0  0  0  # atno 17320 bound_to 7965
  145.6641  141.0233  143.1693 LP  0  0  0  0  0  0  0  0  0  0  0  0  # atno 17321 bound_to 7965
  139.7753  144.7463  151.0166 LP  0  0  0  0  0  0  0  0  0  0  0  0  # atno 17342 bound_to 10162
  140.7813  143.4601  151.0290 LP  0  0  0  0  0  0  0  0  0  0  0  0  # atno 17343 bound_to 10162
  157.5298  130.8051  149.7904 LP  0  0  0  0  0  0  0  0  0  0  0  0  # atno 17370 bound_to 10713
  156.0125  130.3827  150.2216 LP  0  0  0  0  0  0  0  0  0  0  0  0  # atno 17371 bound_to 10713
  140.9359  133.7547  156.0084 LP  0  0  0  0  0  0  0  0  0  0  0  0  # atno 17394 bound_to 11000
  140.8276  134.3215  157.5360 LP  0  0  0  0  0  0  0  0  0  0  0  0  # atno 17395 bound_to 11000

$$$$
