AV-unprocessed.smi:36|AV-procd|sdf|291|dock4
  -GOLD-   2262016 83D 1   1.00000     0.00000
 Structure written by MMmdl.
 64 67  0  0  0  0  0  0  0  0  1 V2000
  150.2431  129.4765  168.1052 C   0  0  0  0  0  0  0  0  0  0  0  0
  151.6616  129.0157  168.4800 C   0  0  0  0  0  0  0  0  0  0  0  0
  152.2264  129.9272  169.5834 C   0  0  0  0  0  0  0  0  0  0  0  0
  151.6264  127.5585  168.9701 C   0  0  0  0  0  0  0  0  0  0  0  0
  152.7861  129.1408  166.9413 Si  0  0  0  0  0  0  0  0  0  0  0  0
  154.5797  128.6782  167.3730 C   0  0  0  0  0  0  0  0  0  0  0  0
  152.1616  128.0250  165.5367 C   0  0  0  0  0  0  0  0  0  0  0  0
  152.7345  130.7432  166.3957 O   0  0  0  0  0  0  0  0  0  0  0  0
  152.9222  131.1333  165.0503 C   0  0  0  0  0  0  0  0  0  0  0  0
  153.7620  132.4198  165.0130 C   0  0  2  0  0  0  0  0  0  0  0  0
  154.2182  132.6968  163.6949 O   0  0  0  0  0  0  0  0  0  0  0  0
  155.3294  133.5408  163.7466 C   0  0  1  0  0  0  0  0  0  0  0  0
  154.9022  134.9268  163.3761 N   0  0  0  0  0  0  0  0  0  0  0  0
  154.5975  135.9553  164.1930 C   0  0  0  0  0  0  0  0  0  0  0  0
  154.2471  137.0841  163.5810 N   0  0  0  0  0  0  0  0  0  0  0  0
  154.3338  136.7410  162.2357 C   0  0  0  0  0  0  0  0  0  0  0  0
  154.0691  137.5441  161.0218 C   0  0  0  0  0  0  0  0  0  0  0  0
  153.7019  138.7794  161.1828 N   0  0  0  0  0  0  0  0  0  0  0  0
  153.4206  139.5733  160.0779 C   0  0  0  0  0  0  0  0  0  0  0  0
  153.4264  139.2629  158.8834 O   0  0  0  0  0  0  0  0  0  0  0  0
  153.1559  141.0029  160.4272 C   0  0  0  0  0  0  0  0  0  0  0  0
  152.4481  141.8348  159.5331 C   0  0  0  0  0  0  0  0  0  0  0  0
  152.1987  143.1804  159.8667 C   0  0  0  0  0  0  0  0  0  0  0  0
  152.6564  143.6992  161.0933 C   0  0  0  0  0  0  0  0  0  0  0  0
  153.3634  142.8724  161.9876 C   0  0  0  0  0  0  0  0  0  0  0  0
  153.6118  141.5259  161.6562 C   0  0  0  0  0  0  0  0  0  0  0  0
  154.2840  136.7626  159.8790 N   0  0  0  0  0  0  0  0  0  0  0  0
  154.6967  135.4212  159.8639 C   0  0  0  0  0  0  0  0  0  0  0  0
  154.9367  134.7014  160.9273 N   0  0  0  0  0  0  0  0  0  0  0  0
  154.7312  135.4294  162.0907 C   0  0  0  0  0  0  0  0  0  0  0  0
  155.8583  133.5218  165.1894 C   0  0  0  0  0  0  0  0  0  0  0  0
  155.0547  132.4062  165.8344 C   0  0  2  0  0  0  0  0  0  0  0  0
  155.7359  131.1700  165.7305 O   0  0  0  0  0  0  0  0  0  0  0  0
  149.5744  129.4409  168.9657 H   0  0  0  0  0  0  0  0  0  0  0  0
  149.8114  128.8453  167.3282 H   0  0  0  0  0  0  0  0  0  0  0  0
  150.2455  130.5014  167.7325 H   0  0  0  0  0  0  0  0  0  0  0  0
  152.2797  130.9647  169.2512 H   0  0  0  0  0  0  0  0  0  0  0  0
  153.2322  129.6245  169.8753 H   0  0  0  0  0  0  0  0  0  0  0  0
  151.6038  129.8999  170.4782 H   0  0  0  0  0  0  0  0  0  0  0  0
  150.9910  127.4518  169.8498 H   0  0  0  0  0  0  0  0  0  0  0  0
  152.6221  127.2057  169.2403 H   0  0  0  0  0  0  0  0  0  0  0  0
  151.2376  126.8902  168.2013 H   0  0  0  0  0  0  0  0  0  0  0  0
  154.6574  127.6382  167.6891 H   0  0  0  0  0  0  0  0  0  0  0  0
  154.9708  129.2914  168.1843 H   0  0  0  0  0  0  0  0  0  0  0  0
  155.2447  128.8062  166.5193 H   0  0  0  0  0  0  0  0  0  0  0  0
  152.1507  126.9760  165.8323 H   0  0  0  0  0  0  0  0  0  0  0  0
  152.7927  128.1068  164.6522 H   0  0  0  0  0  0  0  0  0  0  0  0
  151.1482  128.2893  165.2359 H   0  0  0  0  0  0  0  0  0  0  0  0
  153.4277  130.3329  164.5090 H   0  0  0  0  0  0  0  0  0  0  0  0
  151.9520  131.2815  164.5760 H   0  0  0  0  0  0  0  0  0  0  0  0
  153.1585  133.2636  165.3487 H   0  0  0  0  0  0  0  0  0  0  0  0
  156.0664  133.2584  162.9940 H   0  0  0  0  0  0  0  0  0  0  0  0
  154.6302  135.8793  165.2698 H   0  0  0  0  0  0  0  0  0  0  0  0
  152.0918  141.4444  158.5907 H   0  0  0  0  0  0  0  0  0  0  0  0
  151.6556  143.8146  159.1815 H   0  0  0  0  0  0  0  0  0  0  0  0
  152.4651  144.7313  161.3482 H   0  0  0  0  0  0  0  0  0  0  0  0
  153.7148  143.2698  162.9283 H   0  0  0  0  0  0  0  0  0  0  0  0
  154.1540  140.8981  162.3485 H   0  0  0  0  0  0  0  0  0  0  0  0
  154.8085  135.0032  158.8625 H   0  0  0  0  0  0  0  0  0  0  0  0
  156.9367  133.3600  165.2107 H   0  0  0  0  0  0  0  0  0  0  0  0
  155.6415  134.4733  165.6781 H   0  0  0  0  0  0  0  0  0  0  0  0
  154.8622  132.6043  166.8891 H   0  0  0  0  0  0  0  0  0  0  0  0
  155.8998  130.8420  166.6014 H   0  0  0  0  0  0  0  0  0  0  0  0
  154.1317  137.2073  158.9851 H   0  0  0  0  0  0  0  0  0  0  0  0
  1  2  1  0  0  0  0
  1 34  1  0  0  0  0
  1 35  1  0  0  0  0
  1 36  1  0  0  0  0
  2  3  1  0  0  0  0
  2  4  1  0  0  0  0
  2  5  1  0  0  0  0
  3 37  1  0  0  0  0
  3 38  1  0  0  0  0
  3 39  1  0  0  0  0
  4 40  1  0  0  0  0
  4 41  1  0  0  0  0
  4 42  1  0  0  0  0
  5  6  1  0  0  0  0
  5  7  1  0  0  0  0
  5  8  1  0  0  0  0
  6 43  1  0  0  0  0
  6 44  1  0  0  0  0
  6 45  1  0  0  0  0
  7 46  1  0  0  0  0
  7 47  1  0  0  0  0
  7 48  1  0  0  0  0
  8  9  1  0  0  0  0
  9 10  1  0  0  0  0
  9 49  1  0  0  0  0
  9 50  1  0  0  0  0
 10 32  1  0  0  0  0
 10 11  1  0  0  0  0
 10 51  1  0  0  0  0
 11 12  1  0  0  0  0
 12 13  1  0  0  0  0
 12 31  1  0  0  0  0
 12 52  1  0  0  0  0
 13 30  1  0  0  0  0
 13 14  1  0  0  0  0
 14 15  2  0  0  0  0
 14 53  1  0  0  0  0
 15 16  1  0  0  0  0
 16 30  2  0  0  0  0
 16 17  1  0  0  0  0
 17 18  2  0  0  0  0
 17 27  1  0  0  0  0
 18 19  1  0  0  0  0
 19 20  2  0  0  0  0
 19 21  1  0  0  0  0
 21 26  1  0  0  0  0
 21 22  2  0  0  0  0
 22 23  1  0  0  0  0
 22 54  1  0  0  0  0
 23 24  2  0  0  0  0
 23 55  1  0  0  0  0
 24 25  1  0  0  0  0
 24 56  1  0  0  0  0
 25 26  2  0  0  0  0
 25 57  1  0  0  0  0
 26 58  1  0  0  0  0
 27 28  1  0  0  0  0
 27 64  1  0  0  0  0
 28 29  2  0  0  0  0
 28 59  1  0  0  0  0
 29 30  1  0  0  0  0
 31 32  1  0  0  0  0
 31 60  1  0  0  0  0
 31 61  1  0  0  0  0
 32 33  1  0  0  0  0
 32 62  1  0  0  0  0
 33 63  1  0  0  0  0
M  END
> <s_m_source_file>
AV-unprocessed.smi

> <i_m_source_file_index>
36

> <i_lp_mmshare_version>
43012

> <i_f3d_flags>
0

> <s_epik_input>
W0NIM11DKFtDSDNdKShbQ0gzXSlbU2ldKFtDSDNdKShbQ0gzXSlPW0NIMl1bQ0BASF0xT1tDQEhdKFtDSDJdW0NASF0xW09IXSluKFtjSF1uMiljKGMyMyluW2NIXW5jM1tOSF1DKD1PKWM0W2NIXVtjSF1bY0hdW2NIXVtjSF00

> <s_epik_cmdline>
J2VwaWtfcHl0aG9uJywgJy1waCcsICc3LjAnLCAnLXRuJywgJzgnLCAnLW1hJywgJzIwMCcsICctbWV0YWxfYmluZGluZycsICctaW1hZScsICc8aW5maWxlLm1hZT4nLCAnLW9tYWUnLCAnPG91dGZpbGUubWFlPic=

> <r_epik_Ionization_Penalty>
0.0850405

> <r_epik_Ionization_Penalty_Charging>
0.0850403

> <r_epik_Ionization_Penalty_Neutral>
1.47497e-07

> <r_epik_State_Penalty>
2.6133

> <r_epik_Charging_Adjusted_Penalty>
2.69834

> <i_epik_Tot_Q>
0

> <i_epik_Tot_abs_Q>
0

> <r_epik_Metal_State_Penalty>
2.92945

> <b_epik_Metal_Only>
0

> <s_epik_Chemistry_Notes>
This compound contains an acetal/aminal-like group ( X-CH(R)-Y where X, Y are N, S, or O) that may be acid/base labile, releasing an aldehyde.

> <s_lp_Force_Field>
OPLS_2005

> <r_lp_Energy>
50.6146

> <b_lp_Chiralities_Consistent>
1

> <s_lp_Variant>
AV-unprocessed.smi:36-13

> <Gold.Version>
5.8.1

> <Gold.Id.Protein>
6NUR|6NUR_protein|mol2

> <Gold.PLP.Fitness>
61.2435

> <Gold.PLP.PLP>
-61.2400

> <Gold.PLP.part.hbond>
-1.0000

> <Gold.PLP.part.metal>
0.0000

> <Gold.PLP.part.buried>
-8.1822

> <Gold.PLP.part.nonpolar>
-53.8944

> <Gold.PLP.part.repulsive>
0.1543

> <Gold.PLP.ligand.clash>
0.0000

> <Gold.PLP.ligand.torsion>
1.6762

> <Gold.PLP.Chemscore.Hbond>
1.0000

> <Gold.PLP.Chemscore.CHOScore>
0.0000

> <Gold.PLP.Chemscore.Metal>
0.0000

> <Gold.Chemscore.Hbonds>
donor molecule, donor type, donor heavy atom, donor atom, acceptor molecule, acceptor atom, score
      P1  H  7997  8008       L1    20  0.34

> <Gold.PLP.Chemscore.Internal.Correction>
0.3558

> <Gold.Rescore>
     Score         DG    S(hbond)    S(metal)    S(lipo)     H(rot)  DE(clash)    DE(int)     intcor
     17.46     -18.94       1.00        0.00     145.81       2.70       0.07       1.41       ----

> <Gold.Chemscore.Fitness>
17.4590

> <Gold.Chemscore.DG>
-18.9418

> <Gold.Chemscore.ZeroCoef>
-5.4800

> <Gold.Chemscore.Hbond>
0.9955

> <Gold.Chemscore.Metal>
0.0000

> <Gold.Chemscore.Lipo>
145.8057

> <Gold.Chemscore.Internal_Hbond>
0.0000

> <Gold.Chemscore.DEClash>
0.0688

> <Gold.Chemscore.DEInternal>
1.4140

> <Gold.Chemscore.Rot>
2.7041

> <Gold.Chemscore.Internal.Correction>
   9.000000E+99

> <Gold.Chemscore.Hbonds>
donor molecule, donor type, donor heavy atom, donor atom, acceptor molecule, acceptor atom, score
      P1  H  7997  8008       L1    20  0.33

> <Gold.Chemscore.Hbond.Weighted>
-3.3250

> <Gold.Chemscore.Metal.Weighted>
-0.0000

> <Gold.Chemscore.Lipo.Weighted>
-17.0593

> <Gold.Chemscore.Internal_Hbond.Weighted>
0.0000

> <Gold.Chemscore.DEClash.Weighted>
0.0688

> <Gold.Chemscore.DEInternal.Weighted>
1.4140

> <Gold.Chemscore.Rot.Weighted>
6.9225

> <Gold.Chemscore.Internal.Correction.Weighted>
   9.000000E+99

> <Gold.Protein.RotatedTorsions>
[ 6907 6896 6895 6894 ] final   53.77 input  -60.11 | X-H torsion
[ 7974 7965 7964 7962 ] final   28.37 input  175.53 | X-H torsion
[ 8008 7997 7996 7995 ] final  -94.76 input   59.86 | X-H torsion
[ 10167 10162 10161 10158 ] final   23.09 input  -65.29 | X-H torsion
[ 10718 10713 10712 10709 ] final  -11.94 input   66.30 | X-H torsion
[ 10763 10752 10751 10750 ] final   17.39 input  -60.55 | X-H torsion
[ 11005 11000 10999 10996 ] final  -29.77 input  -57.11 | X-H torsion

> <Gold.Protein.ActiveResidues>
 VAL166  LYS551  ARG553  GLY616  TRP617  ASP618  TYR619  PRO620  LYS621  CYS622 
 ASP623  PHE694  ASN695  SER759  ASP760  ASP761  ALA762  ILE779  LEU786  VAL792 
 PHE793  MET794  SER795  GLU796  ALA797  LYS798  CYS799  TRP800  GLU811  SER814 

> <Gold.Protein.RotatedAtoms>
  152.3371  134.7183  160.0273 H   0  0  0  0  0  0  0  0  0  0  0  0  # atno 6907 bound_to 6896
  151.7581  133.3326  159.3418 H   0  0  0  0  0  0  0  0  0  0  0  0  # atno 6908 bound_to 6896
  150.7457  134.6063  159.6107 H   0  0  0  0  0  0  0  0  0  0  0  0  # atno 6909 bound_to 6896
  146.1732  139.7065  142.8953 H   0  0  0  0  0  0  0  0  0  0  0  0  # atno 7974 bound_to 7965
  154.7526  140.0486  157.0906 H   0  0  0  0  0  0  0  0  0  0  0  0  # atno 8008 bound_to 7997
  155.0038  140.3128  155.4837 H   0  0  0  0  0  0  0  0  0  0  0  0  # atno 8009 bound_to 7997
  156.2888  140.2196  156.5149 H   0  0  0  0  0  0  0  0  0  0  0  0  # atno 8010 bound_to 7997
  140.5296  143.9863  150.6459 H   0  0  0  0  0  0  0  0  0  0  0  0  # atno 10167 bound_to 10162
  156.6518  130.4957  149.6059 H   0  0  0  0  0  0  0  0  0  0  0  0  # atno 10718 bound_to 10713
  153.1343  135.6747  153.9128 H   0  0  0  0  0  0  0  0  0  0  0  0  # atno 10763 bound_to 10752
  153.8604  135.3082  155.3438 H   0  0  0  0  0  0  0  0  0  0  0  0  # atno 10764 bound_to 10752
  154.7734  135.4927  153.9777 H   0  0  0  0  0  0  0  0  0  0  0  0  # atno 10765 bound_to 10752
  140.9325  133.7329  156.0957 H   0  0  0  0  0  0  0  0  0  0  0  0  # atno 11005 bound_to 11000
  145.4283  141.0413  143.2925 LP  0  0  0  0  0  0  0  0  0  0  0  0  # atno 17320 bound_to 7965
  144.8195  139.5816  143.6993 LP  0  0  0  0  0  0  0  0  0  0  0  0  # atno 17321 bound_to 7965
  140.3235  143.3122  152.0760 LP  0  0  0  0  0  0  0  0  0  0  0  0  # atno 17342 bound_to 10162
  139.4950  144.6558  151.6576 LP  0  0  0  0  0  0  0  0  0  0  0  0  # atno 17343 bound_to 10162
  156.2078  130.6660  151.1237 LP  0  0  0  0  0  0  0  0  0  0  0  0  # atno 17370 bound_to 10713
  157.7138  131.0720  150.6402 LP  0  0  0  0  0  0  0  0  0  0  0  0  # atno 17371 bound_to 10713
  140.7843  134.3690  157.5480 LP  0  0  0  0  0  0  0  0  0  0  0  0  # atno 17394 bound_to 11000
  139.8800  134.9101  156.3006 LP  0  0  0  0  0  0  0  0  0  0  0  0  # atno 17395 bound_to 11000

$$$$
