AV-unprocessed.smi:1229|AV-procd|sdf|5151|dock4
  -GOLD-   22720 4223D 1   1.00000     0.00000
 Structure written by MMmdl.
 46 47  0  0  0  0  0  0  0  0  2 V2000
  151.3670  143.8174  158.9382 C   0  0  0  0  0  0  0  0  0  0  0  0
  152.1956  142.8100  159.7191 C   0  0  0  0  0  0  0  0  0  0  0  0
  152.7757  143.1966  160.9461 C   0  0  0  0  0  0  0  0  0  0  0  0
  153.5438  142.2653  161.6656 C   0  0  0  0  0  0  0  0  0  0  0  0
  153.6991  140.9777  161.1248 C   0  0  0  0  0  0  0  0  0  0  0  0
  153.1477  140.5993  159.9536 N   0  0  0  0  0  0  0  0  0  0  0  0
  152.4047  141.4869  159.2453 C   0  0  0  0  0  0  0  0  0  0  0  0
  151.7937  141.1568  158.0023 N   0  0  0  0  0  0  0  0  0  0  0  0
  152.1478  140.2009  157.1254 C   0  0  0  0  0  0  0  0  0  0  0  0
  153.1009  139.4312  157.2520 O   0  0  0  0  0  0  0  0  0  0  0  0
  151.3205  140.1764  156.0698 N   0  0  0  0  0  0  0  0  0  0  0  0
  151.4435  139.2659  154.9354 C   0  0  0  0  0  0  0  0  0  0  0  0
  150.2223  138.3313  154.8047 C   0  0  1  0  0  0  0  0  0  0  0  0
  149.7676  138.3867  153.4670 O   0  0  0  0  0  0  0  0  0  0  0  0
  150.5950  136.8667  155.1106 C   0  0  0  0  0  0  0  0  0  0  0  0
  149.5921  135.9036  154.5872 N   0  3  0  0  0  0  0  0  0  0  0  0
  150.0297  134.4919  154.7427 C   0  0  0  0  0  0  0  0  0  0  0  0
  149.0459  133.5257  154.0611 C   0  0  0  0  0  0  0  0  0  0  0  0
  147.6225  133.7181  154.5999 C   0  0  0  0  0  0  0  0  0  0  0  0
  147.2046  135.1877  154.4616 C   0  0  0  0  0  0  0  0  0  0  0  0
  148.2265  136.1168  155.1384 C   0  0  0  0  0  0  0  0  0  0  0  0
  151.2979  144.7686  159.4667 H   0  0  0  0  0  0  0  0  0  0  0  0
  150.3536  143.4449  158.7862 H   0  0  0  0  0  0  0  0  0  0  0  0
  151.8172  144.0070  157.9634 H   0  0  0  0  0  0  0  0  0  0  0  0
  152.6363  144.1951  161.3338 H   0  0  0  0  0  0  0  0  0  0  0  0
  154.0014  142.5307  162.6071 H   0  0  0  0  0  0  0  0  0  0  0  0
  154.2802  140.2311  161.6454 H   0  0  0  0  0  0  0  0  0  0  0  0
  150.9898  141.7149  157.7565 H   0  0  0  0  0  0  0  0  0  0  0  0
  150.5622  140.8425  156.0406 H   0  0  0  0  0  0  0  0  0  0  0  0
  151.5964  139.8418  154.0216 H   0  0  0  0  0  0  0  0  0  0  0  0
  152.3523  138.6771  155.0730 H   0  0  0  0  0  0  0  0  0  0  0  0
  149.4232  138.6623  155.4669 H   0  0  0  0  0  0  0  0  0  0  0  0
  149.4339  137.5349  153.2282 H   0  0  0  0  0  0  0  0  0  0  0  0
  151.5745  136.6614  154.6747 H   0  0  0  0  0  0  0  0  0  0  0  0
  150.7057  136.7140  156.1855 H   0  0  0  0  0  0  0  0  0  0  0  0
  151.0184  134.3614  154.3008 H   0  0  0  0  0  0  0  0  0  0  0  0
  150.1210  134.2529  155.8035 H   0  0  0  0  0  0  0  0  0  0  0  0
  149.0556  133.6933  152.9831 H   0  0  0  0  0  0  0  0  0  0  0  0
  149.3667  132.4952  154.2166 H   0  0  0  0  0  0  0  0  0  0  0  0
  146.9247  133.0744  154.0633 H   0  0  0  0  0  0  0  0  0  0  0  0
  147.5810  133.4195  155.6483 H   0  0  0  0  0  0  0  0  0  0  0  0
  147.1169  135.4467  153.4054 H   0  0  0  0  0  0  0  0  0  0  0  0
  146.2173  135.3366  154.8998 H   0  0  0  0  0  0  0  0  0  0  0  0
  148.2356  135.9400  156.2153 H   0  0  0  0  0  0  0  0  0  0  0  0
  147.9124  137.1498  154.9940 H   0  0  0  0  0  0  0  0  0  0  0  0
  149.5393  136.0720  153.5924 H   0  0  0  0  0  0  0  0  0  0  0  0
  1  2  1  0  0  0  0
  1 22  1  0  0  0  0
  1 23  1  0  0  0  0
  1 24  1  0  0  0  0
  2  7  1  0  0  0  0
  2  3  2  0  0  0  0
  3  4  1  0  0  0  0
  3 25  1  0  0  0  0
  4  5  2  0  0  0  0
  4 26  1  0  0  0  0
  5  6  1  0  0  0  0
  5 27  1  0  0  0  0
  6  7  2  0  0  0  0
  7  8  1  0  0  0  0
  8  9  1  0  0  0  0
  8 28  1  0  0  0  0
  9 10  2  0  0  0  0
  9 11  1  0  0  0  0
 11 12  1  0  0  0  0
 11 29  1  0  0  0  0
 12 13  1  0  0  0  0
 12 30  1  0  0  0  0
 12 31  1  0  0  0  0
 13 14  1  0  0  0  0
 13 15  1  0  0  0  0
 13 32  1  0  0  0  0
 14 33  1  0  0  0  0
 15 16  1  0  0  0  0
 15 34  1  0  0  0  0
 15 35  1  0  0  0  0
 16 21  1  0  0  0  0
 16 17  1  0  0  0  0
 16 46  1  0  0  0  0
 17 18  1  0  0  0  0
 17 36  1  0  0  0  0
 17 37  1  0  0  0  0
 18 19  1  0  0  0  0
 18 38  1  0  0  0  0
 18 39  1  0  0  0  0
 19 20  1  0  0  0  0
 19 40  1  0  0  0  0
 19 41  1  0  0  0  0
 20 21  1  0  0  0  0
 20 42  1  0  0  0  0
 20 43  1  0  0  0  0
 21 44  1  0  0  0  0
 21 45  1  0  0  0  0
M  CHG  1  16   1
M  END
> <s_m_source_file>
AV-unprocessed.smi

> <i_m_source_file_index>
1229

> <i_lp_mmshare_version>
43012

> <i_f3d_flags>
0

> <s_epik_input>
W0NIM11jMVtjSF1bY0hdW2NIXW5jMVtOSF1DKD1PKVtOSF1bQ0gyXVtDQEhdKFtPSF0pW0NIMl1OMltDSDJdW0NIMl1bQ0gyXVtDSDJdW0NIMl0y

> <s_epik_cmdline>
J2VwaWtfcHl0aG9uJywgJy1waCcsICc3LjAnLCAnLXRuJywgJzgnLCAnLW1hJywgJzIwMCcsICctbWV0YWxfYmluZGluZycsICctaW1hZScsICc8aW5maWxlLm1hZT4nLCAnLW9tYWUnLCAnPG91dGZpbGUubWFlPic=

> <r_epik_Ionization_Penalty>
0.00511007

> <r_epik_Ionization_Penalty_Charging>
0.00506051

> <r_epik_Ionization_Penalty_Neutral>
4.95577e-05

> <r_epik_State_Penalty>
0.00368188

> <r_epik_Charging_Adjusted_Penalty>
0.0087424

> <i_epik_Tot_Q>
1

> <i_epik_Tot_abs_Q>
1

> <r_epik_Metal_State_Penalty>
-0

> <b_epik_Metal_Only>
0

> <s_lp_Force_Field>
OPLS_2005

> <r_lp_Energy>
20.718

> <b_lp_Chiralities_Consistent>
1

> <s_lp_Variant>
AV-unprocessed.smi:1229-2

> <Gold.Version>
5.8.1

> <Gold.Id.Protein>
6NUR|6NUR_protein|mol2

> <Gold.PLP.Fitness>
50.1642

> <Gold.PLP.PLP>
-40.0679

> <Gold.PLP.part.hbond>
-4.0000

> <Gold.PLP.part.metal>
0.0000

> <Gold.PLP.part.buried>
-4.0029

> <Gold.PLP.part.nonpolar>
-31.5318

> <Gold.PLP.part.repulsive>
0.2456

> <Gold.PLP.ligand.clash>
0.0000

> <Gold.PLP.ligand.torsion>
0.9900

> <Gold.PLP.Chemscore.Hbond>
4.0000

> <Gold.PLP.Chemscore.CHOScore>
0.0000

> <Gold.PLP.Chemscore.Metal>
0.0000

> <Gold.Chemscore.Hbonds>
donor molecule, donor type, donor heavy atom, donor atom, acceptor molecule, acceptor atom, score
      L1  H    14    33       P1  7948  0.98
      L1  H    16    46       P1  7948  2.00
      P1  H  7997  8008       L1    10  1.00

> <Gold.PLP.Chemscore.Internal.Correction>
0.0762

> <Gold.Rescore>
     Score         DG    S(hbond)    S(metal)    S(lipo)     H(rot)  DE(clash)    DE(int)     intcor
     18.04     -20.15       2.79        0.00      96.12       2.31       0.05       2.06       ----

> <Gold.Chemscore.Fitness>
18.0439

> <Gold.Chemscore.DG>
-20.1461

> <Gold.Chemscore.ZeroCoef>
-5.4800

> <Gold.Chemscore.Hbond>
2.7941

> <Gold.Chemscore.Metal>
0.0000

> <Gold.Chemscore.Lipo>
96.1234

> <Gold.Chemscore.Internal_Hbond>
0.0000

> <Gold.Chemscore.DEClash>
0.0456

> <Gold.Chemscore.DEInternal>
2.0566

> <Gold.Chemscore.Rot>
2.3095

> <Gold.Chemscore.Internal.Correction>
   9.000000E+99

> <Gold.Chemscore.Hbonds>
donor molecule, donor type, donor heavy atom, donor atom, acceptor molecule, acceptor atom, score
      L1  H    14    33       P1  7948  0.86
      L1  H    16    46       P1  7948  0.45
      P1  H  7997  8008       L1    10  0.63

> <Gold.Chemscore.Hbond.Weighted>
-9.3321

> <Gold.Chemscore.Metal.Weighted>
-0.0000

> <Gold.Chemscore.Lipo.Weighted>
-11.2464

> <Gold.Chemscore.Internal_Hbond.Weighted>
0.0000

> <Gold.Chemscore.DEClash.Weighted>
0.0456

> <Gold.Chemscore.DEInternal.Weighted>
2.0566

> <Gold.Chemscore.Rot.Weighted>
5.9124

> <Gold.Chemscore.Internal.Correction.Weighted>
   9.000000E+99

> <Gold.Protein.RotatedTorsions>
[ 6907 6896 6895 6894 ] final  -46.30 input  -60.11 | X-H torsion
[ 7974 7965 7964 7962 ] final -123.34 input  175.53 | X-H torsion
[ 8008 7997 7996 7995 ] final  -55.17 input   59.86 | X-H torsion
[ 10167 10162 10161 10158 ] final -116.30 input  -65.29 | X-H torsion
[ 10718 10713 10712 10709 ] final  -26.08 input   66.30 | X-H torsion
[ 10763 10752 10751 10750 ] final  -91.74 input  -60.55 | X-H torsion
[ 11005 11000 10999 10996 ] final    5.91 input  -57.11 | X-H torsion

> <Gold.Protein.ActiveResidues>
 VAL166  LYS551  ARG553  GLY616  TRP617  ASP618  TYR619  PRO620  LYS621  CYS622 
 ASP623  PHE694  ASN695  SER759  ASP760  ASP761  ALA762  ILE779  LEU786  VAL792 
 PHE793  MET794  SER795  GLU796  ALA797  LYS798  CYS799  TRP800  GLU811  SER814 

> <Gold.Protein.RotatedAtoms>
  150.9127  134.8545  159.7436 H   0  0  0  0  0  0  0  0  0  0  0  0  # atno 6907 bound_to 6896
  152.4953  134.4334  159.9530 H   0  0  0  0  0  0  0  0  0  0  0  0  # atno 6908 bound_to 6896
  151.4375  133.3613  159.2812 H   0  0  0  0  0  0  0  0  0  0  0  0  # atno 6909 bound_to 6896
  145.0197  140.7978  143.4388 H   0  0  0  0  0  0  0  0  0  0  0  0  # atno 7974 bound_to 7965
  154.4186  140.1159  156.5434 H   0  0  0  0  0  0  0  0  0  0  0  0  # atno 8008 bound_to 7997
  155.6485  140.3496  155.4720 H   0  0  0  0  0  0  0  0  0  0  0  0  # atno 8009 bound_to 7997
  155.9812  140.1160  157.0714 H   0  0  0  0  0  0  0  0  0  0  0  0  # atno 8010 bound_to 7997
  140.0807  143.4791  152.1927 H   0  0  0  0  0  0  0  0  0  0  0  0  # atno 10167 bound_to 10162
  156.4559  130.4493  149.6960 H   0  0  0  0  0  0  0  0  0  0  0  0  # atno 10718 bound_to 10713
  154.6791  135.5257  153.8239 H   0  0  0  0  0  0  0  0  0  0  0  0  # atno 10763 bound_to 10752
  153.0552  135.6548  154.0604 H   0  0  0  0  0  0  0  0  0  0  0  0  # atno 10764 bound_to 10752
  154.0494  135.2970  155.3322 H   0  0  0  0  0  0  0  0  0  0  0  0  # atno 10765 bound_to 10752
  140.5654  134.0153  155.7987 H   0  0  0  0  0  0  0  0  0  0  0  0  # atno 11005 bound_to 11000
  145.1912  139.2300  143.5242 LP  0  0  0  0  0  0  0  0  0  0  0  0  # atno 17320 bound_to 7965
  146.3483  140.1708  142.8589 LP  0  0  0  0  0  0  0  0  0  0  0  0  # atno 17321 bound_to 7965
  139.5781  144.7497  151.3711 LP  0  0  0  0  0  0  0  0  0  0  0  0  # atno 17342 bound_to 10162
  140.7079  143.7466  150.7515 LP  0  0  0  0  0  0  0  0  0  0  0  0  # atno 17343 bound_to 10162
  156.3767  130.7558  151.2547 LP  0  0  0  0  0  0  0  0  0  0  0  0  # atno 17370 bound_to 10713
  157.7500  131.0307  150.4150 LP  0  0  0  0  0  0  0  0  0  0  0  0  # atno 17371 bound_to 10713
  141.1089  133.9649  157.2946 LP  0  0  0  0  0  0  0  0  0  0  0  0  # atno 17394 bound_to 11000
  139.9387  135.0193  156.8640 LP  0  0  0  0  0  0  0  0  0  0  0  0  # atno 17395 bound_to 11000

$$$$
