AV-unprocessed.smi:148|AV-procd|sdf|1206|dock7
  -GOLD-   2262018373D 1   1.00000     0.00000
 Structure written by MMmdl.
 63 67  0  0  0  0  0  0  0  0  1 V2000
  147.2881  134.3029  154.3940 O   0  0  0  0  0  0  0  0  0  0  0  0
  148.6461  134.6336  154.5964 C   0  0  0  0  0  0  0  0  0  0  0  0
  149.2498  133.8356  155.7759 C   0  0  2  0  0  0  0  0  0  0  0  0
  150.6059  134.4348  156.2328 C   0  0  0  0  0  0  0  0  0  0  0  0
  150.5143  135.8474  156.5564 N   0  0  0  0  0  0  0  0  0  0  0  0
  150.0852  136.3990  157.7435 C   0  0  0  0  0  0  0  0  0  0  0  0
  150.1099  137.7032  157.7927 N   0  0  0  0  0  0  0  0  0  0  0  0
  150.5827  138.0755  156.5413 C   0  0  0  0  0  0  0  0  0  0  0  0
  150.8764  139.3212  155.9287 C   0  0  0  0  0  0  0  0  0  0  0  0
  150.7105  140.4922  156.5810 N   0  0  0  0  0  0  0  0  0  0  0  0
  151.7753  140.6680  157.5715 C   0  0  0  0  0  0  0  0  0  0  0  0
  151.8115  142.1031  158.1048 C   0  0  0  0  0  0  0  0  0  0  0  0
  150.4425  142.4794  158.6730 C   0  0  0  0  0  0  0  0  0  0  0  0
  149.3596  142.2723  157.6063 C   0  0  0  0  0  0  0  0  0  0  0  0
  149.3440  140.8262  157.0366 C   0  0  1  0  0  0  0  0  0  0  0  0
  148.2435  140.6893  155.9253 C   0  0  1  0  0  0  0  0  0  0  0  0
  146.9804  141.5685  156.0737 C   0  0  0  0  0  0  0  0  0  0  0  0
  146.3873  141.7532  154.6695 C   0  0  0  0  0  0  0  0  0  0  0  0
  147.3912  141.1287  153.6977 C   0  0  0  0  0  0  0  0  0  0  0  0
  148.6963  141.0204  154.4866 C   0  0  1  0  0  0  0  0  0  0  0  0
  149.3610  142.2707  154.4261 O   0  0  0  0  0  0  0  0  0  0  0  0
  151.3387  139.3128  154.6502 N   0  0  0  0  0  0  0  0  0  0  0  0
  151.5133  138.1497  154.0147 C   0  0  0  0  0  0  0  0  0  0  0  0
  151.2965  136.9110  154.4641 N   0  0  0  0  0  0  0  0  0  0  0  0
  150.8299  136.9229  155.7460 C   0  0  0  0  0  0  0  0  0  0  0  0
  149.3208  132.3137  155.4705 C   0  0  2  0  0  0  0  0  0  0  0  0
  150.3027  131.5090  156.3238 C   0  0  0  0  0  0  0  0  0  0  0  0
  151.0446  130.6302  155.3148 C   0  0  0  0  0  0  0  0  0  0  0  0
  150.1994  130.6103  154.1755 O   0  0  0  0  0  0  0  0  0  0  0  0
  149.6822  131.9221  154.0324 C   0  0  0  0  0  0  0  0  0  0  0  0
  147.2369  133.6370  153.7256 H   0  0  0  0  0  0  0  0  0  0  0  0
  149.2039  134.4521  153.6773 H   0  0  0  0  0  0  0  0  0  0  0  0
  148.6867  135.7061  154.7851 H   0  0  0  0  0  0  0  0  0  0  0  0
  148.5588  133.9453  156.6132 H   0  0  0  0  0  0  0  0  0  0  0  0
  150.9905  133.9233  157.1141 H   0  0  0  0  0  0  0  0  0  0  0  0
  151.3602  134.3171  155.4553 H   0  0  0  0  0  0  0  0  0  0  0  0
  149.7628  135.7993  158.5822 H   0  0  0  0  0  0  0  0  0  0  0  0
  151.6197  139.9756  158.4003 H   0  0  0  0  0  0  0  0  0  0  0  0
  152.7425  140.4226  157.1294 H   0  0  0  0  0  0  0  0  0  0  0  0
  152.5785  142.1990  158.8738 H   0  0  0  0  0  0  0  0  0  0  0  0
  152.0830  142.7897  157.3019 H   0  0  0  0  0  0  0  0  0  0  0  0
  150.2216  141.8661  159.5474 H   0  0  0  0  0  0  0  0  0  0  0  0
  150.4468  143.5165  159.0097 H   0  0  0  0  0  0  0  0  0  0  0  0
  148.4022  142.5309  158.0556 H   0  0  0  0  0  0  0  0  0  0  0  0
  149.5182  142.9819  156.7929 H   0  0  0  0  0  0  0  0  0  0  0  0
  149.0953  140.1476  157.8540 H   0  0  0  0  0  0  0  0  0  0  0  0
  147.9167  139.6478  155.9132 H   0  0  0  0  0  0  0  0  0  0  0  0
  146.2355  141.1280  156.7331 H   0  0  0  0  0  0  0  0  0  0  0  0
  147.2467  142.5430  156.4851 H   0  0  0  0  0  0  0  0  0  0  0  0
  145.4098  141.2782  154.5792 H   0  0  0  0  0  0  0  0  0  0  0  0
  146.2553  142.8148  154.4576 H   0  0  0  0  0  0  0  0  0  0  0  0
  147.0523  140.1277  153.4274 H   0  0  0  0  0  0  0  0  0  0  0  0
  147.4933  141.6969  152.7721 H   0  0  0  0  0  0  0  0  0  0  0  0
  149.3436  140.2494  154.0671 H   0  0  0  0  0  0  0  0  0  0  0  0
  148.8678  142.8977  154.9324 H   0  0  0  0  0  0  0  0  0  0  0  0
  151.8843  138.2214  153.0029 H   0  0  0  0  0  0  0  0  0  0  0  0
  148.3396  131.8813  155.6713 H   0  0  0  0  0  0  0  0  0  0  0  0
  150.9957  132.1210  156.9001 H   0  0  0  0  0  0  0  0  0  0  0  0
  149.7538  130.8922  157.0367 H   0  0  0  0  0  0  0  0  0  0  0  0
  152.0010  131.0804  155.0443 H   0  0  0  0  0  0  0  0  0  0  0  0
  151.2347  129.6248  155.6912 H   0  0  0  0  0  0  0  0  0  0  0  0
  148.8212  131.9410  153.3637 H   0  0  0  0  0  0  0  0  0  0  0  0
  150.4585  132.5567  153.6059 H   0  0  0  0  0  0  0  0  0  0  0  0
  1  2  1  0  0  0  0
  1 31  1  0  0  0  0
  2  3  1  0  0  0  0
  2 32  1  0  0  0  0
  2 33  1  0  0  0  0
  3  4  1  0  0  0  0
  3 26  1  0  0  0  0
  3 34  1  0  0  0  0
  4  5  1  0  0  0  0
  4 35  1  0  0  0  0
  4 36  1  0  0  0  0
  5 25  1  0  0  0  0
  5  6  1  0  0  0  0
  6  7  2  0  0  0  0
  6 37  1  0  0  0  0
  7  8  1  0  0  0  0
  8 25  2  0  0  0  0
  8  9  1  0  0  0  0
  9 10  1  0  0  0  0
  9 22  2  0  0  0  0
 10 15  1  0  0  0  0
 10 11  1  0  0  0  0
 11 12  1  0  0  0  0
 11 38  1  0  0  0  0
 11 39  1  0  0  0  0
 12 13  1  0  0  0  0
 12 40  1  0  0  0  0
 12 41  1  0  0  0  0
 13 14  1  0  0  0  0
 13 42  1  0  0  0  0
 13 43  1  0  0  0  0
 14 15  1  0  0  0  0
 14 44  1  0  0  0  0
 14 45  1  0  0  0  0
 15 16  1  0  0  0  0
 15 46  1  0  0  0  0
 16 20  1  0  0  0  0
 16 17  1  0  0  0  0
 16 47  1  0  0  0  0
 17 18  1  0  0  0  0
 17 48  1  0  0  0  0
 17 49  1  0  0  0  0
 18 19  1  0  0  0  0
 18 50  1  0  0  0  0
 18 51  1  0  0  0  0
 19 20  1  0  0  0  0
 19 52  1  0  0  0  0
 19 53  1  0  0  0  0
 20 21  1  0  0  0  0
 20 54  1  0  0  0  0
 21 55  1  0  0  0  0
 22 23  1  0  0  0  0
 23 24  2  0  0  0  0
 23 56  1  0  0  0  0
 24 25  1  0  0  0  0
 26 30  1  0  0  0  0
 26 27  1  0  0  0  0
 26 57  1  0  0  0  0
 27 28  1  0  0  0  0
 27 58  1  0  0  0  0
 27 59  1  0  0  0  0
 28 29  1  0  0  0  0
 28 60  1  0  0  0  0
 28 61  1  0  0  0  0
 29 30  1  0  0  0  0
 30 62  1  0  0  0  0
 30 63  1  0  0  0  0
M  END
> <s_m_source_file>
AV-unprocessed.smi

> <i_m_source_file_index>
148

> <i_lp_mmshare_version>
43012

> <i_f3d_flags>
0

> <s_epik_input>
W0NIMl0xT1tDSDJdW0NIMl1bQ0BIXTFbQ0BIXShbQ0gyXVtPSF0pW0NIMl1uKFtjSF1uMiljKGMyMyluW2NIXW5jM040W0NIMl1bQ0gyXVtDSDJdW0NIMl1bQ0BIXTRbQ0BASF01W0NIMl1bQ0gyXVtDSDJdW0NASF01W09IXQ==

> <s_epik_cmdline>
J2VwaWtfcHl0aG9uJywgJy1waCcsICc3LjAnLCAnLXRuJywgJzgnLCAnLW1hJywgJzIwMCcsICctbWV0YWxfYmluZGluZycsICctaW1hZScsICc8aW5maWxlLm1hZT4nLCAnLW9tYWUnLCAnPG91dGZpbGUubWFlPic=

> <r_lp_tautomer_probability>
1

> <r_epik_Ionization_Penalty>
0.00556303

> <r_epik_Ionization_Penalty_Charging>
0

> <r_epik_Ionization_Penalty_Neutral>
0.00556303

> <r_epik_State_Penalty>
0.00401767

> <r_epik_Charging_Adjusted_Penalty>
0.00401767

> <i_epik_Tot_Q>
0

> <i_epik_Tot_abs_Q>
0

> <r_epik_Metal_State_Penalty>
-0

> <b_epik_Metal_Only>
0

> <s_lp_Force_Field>
OPLS_2005

> <r_lp_Energy>
71.7906

> <b_lp_Chiralities_Consistent>
1

> <s_lp_Variant>
AV-unprocessed.smi:148-5

> <Gold.Version>
5.8.1

> <Gold.Id.Protein>
6NUR|6NUR_protein|mol2

> <Gold.PLP.Fitness>
44.9159

> <Gold.PLP.PLP>
-36.9246

> <Gold.PLP.part.hbond>
-4.9926

> <Gold.PLP.part.metal>
0.0000

> <Gold.PLP.part.buried>
-3.5325

> <Gold.PLP.part.nonpolar>
-28.9707

> <Gold.PLP.part.repulsive>
0.3505

> <Gold.PLP.ligand.clash>
0.0000

> <Gold.PLP.ligand.torsion>
1.7823

> <Gold.PLP.Chemscore.Hbond>
3.2299

> <Gold.PLP.Chemscore.CHOScore>
0.3858

> <Gold.PLP.Chemscore.Metal>
0.0000

> <Gold.Chemscore.Hbonds>
donor molecule, donor type, donor heavy atom, donor atom, acceptor molecule, acceptor atom, score
      L1  H    21    55       P1  8028  0.88
      P1  H  7989  7998       L1    22  1.00
      P1  H  8011  8017       L1    21  0.16
      P1  H 10752 10764       L1    24  0.91
      L1  C    23    56       P1  7949  0.24

> <Gold.PLP.Chemscore.Internal.Correction>
0.7090

> <Gold.Rescore>
     Score         DG    S(hbond)    S(metal)    S(lipo)     H(rot)  DE(clash)    DE(int)     intcor
     13.10     -15.25       2.36        0.00      88.71       3.32       0.94       1.21       ----

> <Gold.Chemscore.Fitness>
13.0986

> <Gold.Chemscore.DG>
-15.2543

> <Gold.Chemscore.ZeroCoef>
-5.4800

> <Gold.Chemscore.Hbond>
2.3640

> <Gold.Chemscore.Metal>
0.0000

> <Gold.Chemscore.Lipo>
88.7051

> <Gold.Chemscore.Internal_Hbond>
0.0000

> <Gold.Chemscore.DEClash>
0.9450

> <Gold.Chemscore.DEInternal>
1.2107

> <Gold.Chemscore.Rot>
3.3203

> <Gold.Chemscore.Internal.Correction>
   9.000000E+99

> <Gold.Chemscore.Hbonds>
donor molecule, donor type, donor heavy atom, donor atom, acceptor molecule, acceptor atom, score
      L1  H    21    55       P1  8028  0.86
      P1  H  7989  7998       L1    22  0.81
      P1  H  8011  8017       L1    21  0.06
      P1  H 10752 10764       L1    24  0.55

> <Gold.Chemscore.Hbond.Weighted>
-7.8958

> <Gold.Chemscore.Metal.Weighted>
-0.0000

> <Gold.Chemscore.Lipo.Weighted>
-10.3785

> <Gold.Chemscore.Internal_Hbond.Weighted>
0.0000

> <Gold.Chemscore.DEClash.Weighted>
0.9450

> <Gold.Chemscore.DEInternal.Weighted>
1.2107

> <Gold.Chemscore.Rot.Weighted>
8.5000

> <Gold.Chemscore.Internal.Correction.Weighted>
   9.000000E+99

> <Gold.Protein.RotatedTorsions>
[ 6907 6896 6895 6894 ] final  154.20 input  -60.11 | X-H torsion
[ 7974 7965 7964 7962 ] final  -51.29 input  175.53 | X-H torsion
[ 8008 7997 7996 7995 ] final  -87.98 input   59.86 | X-H torsion
[ 10167 10162 10161 10158 ] final -119.33 input  -65.29 | X-H torsion
[ 10718 10713 10712 10709 ] final  -74.56 input   66.30 | X-H torsion
[ 10763 10752 10751 10750 ] final  -73.19 input  -60.55 | X-H torsion
[ 11005 11000 10999 10996 ] final -122.88 input  -57.11 | X-H torsion

> <Gold.Protein.ActiveResidues>
 VAL166  LYS551  ARG553  GLY616  TRP617  ASP618  TYR619  PRO620  LYS621  CYS622 
 ASP623  PHE694  ASN695  SER759  ASP760  ASP761  ALA762  ILE779  LEU786  VAL792 
 PHE793  MET794  SER795  GLU796  ALA797  LYS798  CYS799  TRP800  GLU811  SER814 

> <Gold.Protein.RotatedAtoms>
  152.0619  133.4066  159.4421 H   0  0  0  0  0  0  0  0  0  0  0  0  # atno 6907 bound_to 6896
  150.6866  134.3190  159.4788 H   0  0  0  0  0  0  0  0  0  0  0  0  # atno 6908 bound_to 6896
  152.1012  134.9340  160.0620 H   0  0  0  0  0  0  0  0  0  0  0  0  # atno 6909 bound_to 6896
  145.9206  140.7837  142.9649 H   0  0  0  0  0  0  0  0  0  0  0  0  # atno 7974 bound_to 7965
  154.6695  140.0559  157.0150 H   0  0  0  0  0  0  0  0  0  0  0  0  # atno 8008 bound_to 7997
  155.1110  140.3238  155.4503 H   0  0  0  0  0  0  0  0  0  0  0  0  # atno 8009 bound_to 7997
  156.2651  140.2014  156.6234 H   0  0  0  0  0  0  0  0  0  0  0  0  # atno 8010 bound_to 7997
  140.0478  143.5090  152.2097 H   0  0  0  0  0  0  0  0  0  0  0  0  # atno 10167 bound_to 10162
  156.0238  130.4420  150.2910 H   0  0  0  0  0  0  0  0  0  0  0  0  # atno 10718 bound_to 10713
  154.4561  135.5905  153.6224 H   0  0  0  0  0  0  0  0  0  0  0  0  # atno 10763 bound_to 10752
  152.9818  135.6032  154.3545 H   0  0  0  0  0  0  0  0  0  0  0  0  # atno 10764 bound_to 10752
  154.3411  135.2841  155.2401 H   0  0  0  0  0  0  0  0  0  0  0  0  # atno 10765 bound_to 10752
  140.9962  134.0469  157.3595 H   0  0  0  0  0  0  0  0  0  0  0  0  # atno 11005 bound_to 11000
  144.6752  140.1969  143.7391 LP  0  0  0  0  0  0  0  0  0  0  0  0  # atno 17320 bound_to 7965
  145.8555  139.2196  143.1747 LP  0  0  0  0  0  0  0  0  0  0  0  0  # atno 17321 bound_to 7965
  139.5972  144.7571  151.3257 LP  0  0  0  0  0  0  0  0  0  0  0  0  # atno 17342 bound_to 10162
  140.7231  143.7081  150.7791 LP  0  0  0  0  0  0  0  0  0  0  0  0  # atno 17343 bound_to 10162
  157.1014  131.0196  151.3084 LP  0  0  0  0  0  0  0  0  0  0  0  0  # atno 17370 bound_to 10713
  157.4777  130.7746  149.7384 LP  0  0  0  0  0  0  0  0  0  0  0  0  # atno 17371 bound_to 10713
  139.9016  135.0166  156.7293 LP  0  0  0  0  0  0  0  0  0  0  0  0  # atno 17394 bound_to 11000
  140.6962  133.9346  155.7996 LP  0  0  0  0  0  0  0  0  0  0  0  0  # atno 17395 bound_to 11000

$$$$
