AV-unprocessed.smi:697|AV-procd|sdf|3393|dock2
  -GOLD-   22720 0373D 1   1.00000     0.00000
 Structure written by MMmdl.
 43 44  0  0  0  0  0  0  0  0  2 V2000
  149.3921  141.5910  154.8566 C   0  0  0  0  0  0  0  0  0  0  0  0
  148.8270  141.2269  153.6039 O   0  0  0  0  0  0  0  0  0  0  0  0
  147.5266  140.6368  153.6436 C   0  0  1  0  0  0  0  0  0  0  0  0
  146.5041  141.6569  154.1688 C   0  0  0  0  0  0  0  0  0  0  0  0
  147.1886  139.8798  152.3459 C   0  0  0  0  0  0  0  0  0  0  0  0
  146.6345  138.7738  153.2408 C   0  0  1  0  0  0  0  0  0  0  0  0
  146.8881  137.4397  152.7088 N   0  0  0  0  0  0  0  0  0  0  0  0
  145.9485  136.4997  152.5424 C   0  0  0  0  0  0  0  0  0  0  0  0
  144.7625  136.6789  152.8189 O   0  0  0  0  0  0  0  0  0  0  0  0
  146.4837  135.3759  152.0324 N   0  0  0  0  0  0  0  0  0  0  0  0
  145.8681  134.1506  151.7237 C   0  0  0  0  0  0  0  0  0  0  0  0
  146.3349  132.9270  152.0983 C   0  0  0  0  0  0  0  0  0  0  0  0
  145.6556  131.6889  151.7381 C   0  0  0  0  0  0  0  0  0  0  0  0
  146.0911  130.3165  152.2201 C   0  0  0  0  0  0  0  0  0  0  0  0
  147.2630  129.9708  151.6867 F   0  0  0  0  0  0  0  0  0  0  0  0
  146.2240  130.3222  153.5456 F   0  0  0  0  0  0  0  0  0  0  0  0
  145.1914  129.3876  151.8965 F   0  0  0  0  0  0  0  0  0  0  0  0
  144.5099  131.9150  151.0006 C   0  0  0  0  0  0  0  0  0  0  0  0
  143.9950  133.0860  150.5660 N   0  5  0  0  0  0  0  0  0  0  0  0
  144.6401  134.2376  150.9060 C   0  0  0  0  0  0  0  0  0  0  0  0
  144.2231  135.3394  150.5464 O   0  0  0  0  0  0  0  0  0  0  0  0
  147.6260  139.2395  154.3381 C   0  0  0  0  0  0  0  0  0  0  0  0
  149.0201  138.5796  154.3411 C   0  0  0  0  0  0  0  0  0  0  0  0
  147.1168  139.1451  155.7797 C   0  0  0  0  0  0  0  0  0  0  0  0
  150.3374  142.1053  154.6847 H   0  0  0  0  0  0  0  0  0  0  0  0
  149.6067  140.7202  155.4751 H   0  0  0  0  0  0  0  0  0  0  0  0
  148.7461  142.2686  155.4149 H   0  0  0  0  0  0  0  0  0  0  0  0
  145.5286  141.2028  154.3413 H   0  0  0  0  0  0  0  0  0  0  0  0
  146.3410  142.4702  153.4624 H   0  0  0  0  0  0  0  0  0  0  0  0
  146.8308  142.0959  155.1117 H   0  0  0  0  0  0  0  0  0  0  0  0
  146.4431  140.3632  151.7139 H   0  0  0  0  0  0  0  0  0  0  0  0
  148.0664  139.5802  151.7702 H   0  0  0  0  0  0  0  0  0  0  0  0
  145.5895  138.9524  153.5042 H   0  0  0  0  0  0  0  0  0  0  0  0
  147.8394  137.2177  152.4540 H   0  0  0  0  0  0  0  0  0  0  0  0
  147.4663  135.4123  151.8035 H   0  0  0  0  0  0  0  0  0  0  0  0
  147.2452  132.8308  152.6662 H   0  0  0  0  0  0  0  0  0  0  0  0
  143.9153  131.0193  150.7204 H   0  0  0  0  0  0  0  0  0  0  0  0
  148.9728  137.5390  154.6639 H   0  0  0  0  0  0  0  0  0  0  0  0
  149.7028  139.0944  155.0180 H   0  0  0  0  0  0  0  0  0  0  0  0
  149.4848  138.5862  153.3551 H   0  0  0  0  0  0  0  0  0  0  0  0
  147.1431  138.1187  156.1469 H   0  0  0  0  0  0  0  0  0  0  0  0
  146.0843  139.4813  155.8713 H   0  0  0  0  0  0  0  0  0  0  0  0
  147.7190  139.7526  156.4560 H   0  0  0  0  0  0  0  0  0  0  0  0
  1  2  1  0  0  0  0
  1 25  1  0  0  0  0
  1 26  1  0  0  0  0
  1 27  1  0  0  0  0
  2  3  1  0  0  0  0
  3 22  1  0  0  0  0
  3  4  1  0  0  0  0
  3  5  1  0  0  0  0
  4 28  1  0  0  0  0
  4 29  1  0  0  0  0
  4 30  1  0  0  0  0
  5  6  1  0  0  0  0
  5 31  1  0  0  0  0
  5 32  1  0  0  0  0
  6  7  1  0  0  0  0
  6 22  1  0  0  0  0
  6 33  1  0  0  0  0
  7  8  1  0  0  0  0
  7 34  1  0  0  0  0
  8  9  2  0  0  0  0
  8 10  1  0  0  0  0
 10 11  1  0  0  0  0
 10 35  1  0  0  0  0
 11 20  1  0  0  0  0
 11 12  2  0  0  0  0
 12 13  1  0  0  0  0
 12 36  1  0  0  0  0
 13 14  1  0  0  0  0
 13 18  2  0  0  0  0
 14 15  1  0  0  0  0
 14 16  1  0  0  0  0
 14 17  1  0  0  0  0
 18 19  1  0  0  0  0
 18 37  1  0  0  0  0
 19 20  1  0  0  0  0
 20 21  2  0  0  0  0
 22 23  1  0  0  0  0
 22 24  1  0  0  0  0
 23 38  1  0  0  0  0
 23 39  1  0  0  0  0
 23 40  1  0  0  0  0
 24 41  1  0  0  0  0
 24 42  1  0  0  0  0
 24 43  1  0  0  0  0
M  CHG  1  19  -1
M  END
> <s_m_source_file>
AV-unprocessed.smi

> <i_m_source_file_index>
697

> <i_lp_mmshare_version>
43012

> <i_f3d_flags>
0

> <s_epik_input>
W0NIM11PW0NAQF0xKFtDSDNdKVtDSDJdW0NASF0oQzEoW0NIM10pW0NIM10pW05IXUMoPU8pW05IXWMyW2NIXWMoQyhGKShGKUYpW2NIXVtuSF1jMj1P

> <s_epik_cmdline>
J2VwaWtfcHl0aG9uJywgJy1waCcsICc3LjAnLCAnLXRuJywgJzgnLCAnLW1hJywgJzIwMCcsICctbWV0YWxfYmluZGluZycsICctaW1hZScsICc8aW5maWxlLm1hZT4nLCAnLW9tYWUnLCAnPG91dGZpbGUubWFlPic=

> <r_lp_tautomer_probability>
1

> <r_epik_Ionization_Penalty>
3.20094

> <r_epik_Ionization_Penalty_Charging>
0.180017

> <r_epik_Ionization_Penalty_Neutral>
3.02092

> <r_epik_State_Penalty>
3.01726

> <r_epik_Charging_Adjusted_Penalty>
3.19727

> <i_epik_Tot_Q>
-1

> <i_epik_Tot_abs_Q>
1

> <r_epik_Metal_State_Penalty>
0.455096

> <b_epik_Metal_Only>
1

> <s_lp_Force_Field>
OPLS_2005

> <r_lp_Energy>
36.1164

> <b_lp_Chiralities_Consistent>
1

> <s_lp_Variant>
AV-unprocessed.smi:697-5

> <Gold.Version>
5.8.1

> <Gold.Id.Protein>
6NUR|6NUR_protein|mol2

> <Gold.PLP.Fitness>
38.3714

> <Gold.PLP.PLP>
-30.8023

> <Gold.PLP.part.hbond>
-3.0000

> <Gold.PLP.part.metal>
0.0000

> <Gold.PLP.part.buried>
1.4532

> <Gold.PLP.part.nonpolar>
-31.8804

> <Gold.PLP.part.repulsive>
2.5013

> <Gold.PLP.ligand.clash>
0.0000

> <Gold.PLP.ligand.torsion>
0.7504

> <Gold.PLP.Chemscore.Hbond>
2.8800

> <Gold.PLP.Chemscore.CHOScore>
0.0000

> <Gold.PLP.Chemscore.Metal>
0.0000

> <Gold.Chemscore.Hbonds>
donor molecule, donor type, donor heavy atom, donor atom, acceptor molecule, acceptor atom, score
      L1  H     7    34       P1  7948  1.00
      L1  H    10    35       P1  7948  1.00
      P1  H  8011  8017       L1     2  0.90

> <Gold.PLP.Chemscore.Internal.Correction>
0.4298

> <Gold.Rescore>
     Score         DG    S(hbond)    S(metal)    S(lipo)     H(rot)  DE(clash)    DE(int)     intcor
     12.85     -18.51       2.18        0.00      77.38       1.30       2.34       3.31       ----

> <Gold.Chemscore.Fitness>
12.8512

> <Gold.Chemscore.DG>
-18.5050

> <Gold.Chemscore.ZeroCoef>
-5.4800

> <Gold.Chemscore.Hbond>
2.1833

> <Gold.Chemscore.Metal>
0.0000

> <Gold.Chemscore.Lipo>
77.3818

> <Gold.Chemscore.Internal_Hbond>
0.0000

> <Gold.Chemscore.DEClash>
2.3418

> <Gold.Chemscore.DEInternal>
3.3120

> <Gold.Chemscore.Rot>
1.2973

> <Gold.Chemscore.Internal.Correction>
   9.000000E+99

> <Gold.Chemscore.Hbonds>
donor molecule, donor type, donor heavy atom, donor atom, acceptor molecule, acceptor atom, score
      L1  H     7    34       P1  7948  0.95
      L1  H    10    35       P1  7948  0.94
      P1  H  8011  8017       L1     2  0.34

> <Gold.Chemscore.Hbond.Weighted>
-7.2923

> <Gold.Chemscore.Metal.Weighted>
-0.0000

> <Gold.Chemscore.Lipo.Weighted>
-9.0537

> <Gold.Chemscore.Internal_Hbond.Weighted>
0.0000

> <Gold.Chemscore.DEClash.Weighted>
2.3418

> <Gold.Chemscore.DEInternal.Weighted>
3.3120

> <Gold.Chemscore.Rot.Weighted>
3.3210

> <Gold.Chemscore.Internal.Correction.Weighted>
   9.000000E+99

> <Gold.Protein.RotatedTorsions>
[ 6907 6896 6895 6894 ] final -151.79 input  -60.11 | X-H torsion
[ 7974 7965 7964 7962 ] final  -50.62 input  175.53 | X-H torsion
[ 8008 7997 7996 7995 ] final -106.81 input   59.86 | X-H torsion
[ 10167 10162 10161 10158 ] final -157.26 input  -65.29 | X-H torsion
[ 10718 10713 10712 10709 ] final   58.96 input   66.30 | X-H torsion
[ 10763 10752 10751 10750 ] final -135.37 input  -60.55 | X-H torsion
[ 11005 11000 10999 10996 ] final  112.14 input  -57.11 | X-H torsion

> <Gold.Protein.ActiveResidues>
 VAL166  LYS551  ARG553  GLY616  TRP617  ASP618  TYR619  PRO620  LYS621  CYS622 
 ASP623  PHE694  ASN695  SER759  ASP760  ASP761  ALA762  ILE779  LEU786  VAL792 
 PHE793  MET794  SER795  GLU796  ALA797  LYS798  CYS799  TRP800  GLU811  SER814 

> <Gold.Protein.RotatedAtoms>
  151.2183  133.4517  159.2599 H   0  0  0  0  0  0  0  0  0  0  0  0  # atno 6907 bound_to 6896
  151.0910  134.9916  159.8413 H   0  0  0  0  0  0  0  0  0  0  0  0  # atno 6908 bound_to 6896
  152.5434  134.2116  159.8805 H   0  0  0  0  0  0  0  0  0  0  0  0  # atno 6909 bound_to 6896
  145.9279  140.7776  142.9614 H   0  0  0  0  0  0  0  0  0  0  0  0  # atno 7974 bound_to 7965
  154.9201  140.0407  157.1993 H   0  0  0  0  0  0  0  0  0  0  0  0  # atno 8008 bound_to 7997
  154.8262  140.2892  155.5731 H   0  0  0  0  0  0  0  0  0  0  0  0  # atno 8009 bound_to 7997
  156.2983  140.2509  156.3179 H   0  0  0  0  0  0  0  0  0  0  0  0  # atno 8010 bound_to 7997
  139.6785  143.9622  152.2323 H   0  0  0  0  0  0  0  0  0  0  0  0  # atno 10167 bound_to 10162
  157.5638  130.8856  149.9154 H   0  0  0  0  0  0  0  0  0  0  0  0  # atno 10718 bound_to 10713
  154.8704  135.3705  154.4887 H   0  0  0  0  0  0  0  0  0  0  0  0  # atno 10763 bound_to 10752
  153.5535  135.7024  153.5585 H   0  0  0  0  0  0  0  0  0  0  0  0  # atno 10764 bound_to 10752
  153.3693  135.4025  155.1740 H   0  0  0  0  0  0  0  0  0  0  0  0  # atno 10765 bound_to 10752
  139.8920  134.9523  156.6540 H   0  0  0  0  0  0  0  0  0  0  0  0  # atno 11005 bound_to 11000
  144.6761  140.2080  143.7380 LP  0  0  0  0  0  0  0  0  0  0  0  0  # atno 17320 bound_to 7965
  145.8465  139.2155  143.1797 LP  0  0  0  0  0  0  0  0  0  0  0  0  # atno 17321 bound_to 7965
  139.9406  144.6684  150.8270 LP  0  0  0  0  0  0  0  0  0  0  0  0  # atno 17342 bound_to 10162
  140.7644  143.3247  151.2543 LP  0  0  0  0  0  0  0  0  0  0  0  0  # atno 17343 bound_to 10162
  156.0688  130.3688  150.0820 LP  0  0  0  0  0  0  0  0  0  0  0  0  # atno 17370 bound_to 10713
  156.8981  130.9611  151.3580 LP  0  0  0  0  0  0  0  0  0  0  0  0  # atno 17371 bound_to 10713
  140.7498  133.8907  155.8339 LP  0  0  0  0  0  0  0  0  0  0  0  0  # atno 17394 bound_to 11000
  141.0010  134.1151  157.4317 LP  0  0  0  0  0  0  0  0  0  0  0  0  # atno 17395 bound_to 11000

$$$$
