AV-unprocessed.smi:1963|AV-procd|sdf|7926|dock6
  -GOLD-   2272010 93D 1   1.00000     0.00000
 Structure written by MMmdl.
 47 48  0  0  0  0  0  0  0  0  1 V2000
  146.0268  135.7075  153.2165 C   0  0  0  0  0  0  0  0  0  0  0  0
  146.8635  135.3482  154.4392 C   0  0  0  0  0  0  0  0  0  0  0  0
  146.3134  135.0105  155.4872 O   0  0  0  0  0  0  0  0  0  0  0  0
  148.1956  135.4228  154.2906 N   0  0  0  0  0  0  0  0  0  0  0  0
  149.1829  135.1365  155.3342 C   0  0  2  0  0  0  0  0  0  0  0  0
  150.0831  136.3740  155.5193 C   0  0  0  0  0  0  0  0  0  0  0  0
  151.1282  136.4762  154.8754 O   0  0  0  0  0  0  0  0  0  0  0  0
  149.6386  137.2871  156.4024 N   0  0  0  0  0  0  0  0  0  0  0  0
  150.2544  138.5001  156.8118 C   0  0  0  0  0  0  0  0  0  0  0  0
  149.5264  139.3564  157.6615 C   0  0  0  0  0  0  0  0  0  0  0  0
  150.1231  140.5498  158.1101 C   0  0  0  0  0  0  0  0  0  0  0  0
  151.4430  140.8441  157.6989 C   0  0  0  0  0  0  0  0  0  0  0  0
  152.0988  142.0118  158.1115 N   0  0  0  0  0  0  0  0  0  0  0  0
  152.4581  142.0289  159.5240 C   0  0  0  0  0  0  0  0  0  0  0  0
  153.2868  143.2864  159.8373 C   0  0  0  0  0  0  0  0  0  0  0  0
  152.5534  144.4462  159.4526 O   0  0  0  0  0  0  0  0  0  0  0  0
  152.2679  144.4598  158.0563 C   0  0  0  0  0  0  0  0  0  0  0  0
  151.4203  143.2292  157.6877 C   0  0  0  0  0  0  0  0  0  0  0  0
  152.1500  140.0266  156.8893 N   0  0  0  0  0  0  0  0  0  0  0  0
  151.5717  138.8839  156.4614 C   0  0  0  0  0  0  0  0  0  0  0  0
  150.0393  133.9114  154.8965 C   0  0  0  0  0  0  0  0  0  0  0  0
  149.1969  132.8620  154.1445 C   0  0  0  0  0  0  0  0  0  0  0  0
  150.7607  133.2245  156.0753 C   0  0  0  0  0  0  0  0  0  0  0  0
  146.3727  136.6426  152.7747 H   0  0  0  0  0  0  0  0  0  0  0  0
  144.9774  135.8271  153.4876 H   0  0  0  0  0  0  0  0  0  0  0  0
  146.0993  134.9211  152.4650 H   0  0  0  0  0  0  0  0  0  0  0  0
  148.5564  135.7160  153.3943 H   0  0  0  0  0  0  0  0  0  0  0  0
  148.6698  134.9028  156.2698 H   0  0  0  0  0  0  0  0  0  0  0  0
  148.7217  137.1151  156.7891 H   0  0  0  0  0  0  0  0  0  0  0  0
  148.5208  139.1057  157.9666 H   0  0  0  0  0  0  0  0  0  0  0  0
  149.5745  141.2202  158.7551 H   0  0  0  0  0  0  0  0  0  0  0  0
  151.5578  142.0212  160.1397 H   0  0  0  0  0  0  0  0  0  0  0  0
  153.0274  141.1319  159.7711 H   0  0  0  0  0  0  0  0  0  0  0  0
  153.5027  143.3394  160.9044 H   0  0  0  0  0  0  0  0  0  0  0  0
  154.2461  143.2602  159.3178 H   0  0  0  0  0  0  0  0  0  0  0  0
  151.7281  145.3750  157.8129 H   0  0  0  0  0  0  0  0  0  0  0  0
  153.1978  144.4770  157.4855 H   0  0  0  0  0  0  0  0  0  0  0  0
  151.2481  143.2017  156.6110 H   0  0  0  0  0  0  0  0  0  0  0  0
  150.4438  143.2924  158.1699 H   0  0  0  0  0  0  0  0  0  0  0  0
  152.2035  138.2635  155.8453 H   0  0  0  0  0  0  0  0  0  0  0  0
  150.8098  134.2571  154.2049 H   0  0  0  0  0  0  0  0  0  0  0  0
  148.3853  132.4873  154.7688 H   0  0  0  0  0  0  0  0  0  0  0  0
  149.8067  132.0082  153.8480 H   0  0  0  0  0  0  0  0  0  0  0  0
  148.7559  133.2667  153.2335 H   0  0  0  0  0  0  0  0  0  0  0  0
  150.0504  132.8961  156.8346 H   0  0  0  0  0  0  0  0  0  0  0  0
  151.4837  133.8827  156.5570 H   0  0  0  0  0  0  0  0  0  0  0  0
  151.3129  132.3467  155.7387 H   0  0  0  0  0  0  0  0  0  0  0  0
  1  2  1  0  0  0  0
  1 24  1  0  0  0  0
  1 25  1  0  0  0  0
  1 26  1  0  0  0  0
  2  3  2  0  0  0  0
  2  4  1  0  0  0  0
  4  5  1  0  0  0  0
  4 27  1  0  0  0  0
  5  6  1  0  0  0  0
  5 21  1  0  0  0  0
  5 28  1  0  0  0  0
  6  7  2  0  0  0  0
  6  8  1  0  0  0  0
  8  9  1  0  0  0  0
  8 29  1  0  0  0  0
  9 20  1  0  0  0  0
  9 10  2  0  0  0  0
 10 11  1  0  0  0  0
 10 30  1  0  0  0  0
 11 12  2  0  0  0  0
 11 31  1  0  0  0  0
 12 13  1  0  0  0  0
 12 19  1  0  0  0  0
 13 18  1  0  0  0  0
 13 14  1  0  0  0  0
 14 15  1  0  0  0  0
 14 32  1  0  0  0  0
 14 33  1  0  0  0  0
 15 16  1  0  0  0  0
 15 34  1  0  0  0  0
 15 35  1  0  0  0  0
 16 17  1  0  0  0  0
 17 18  1  0  0  0  0
 17 36  1  0  0  0  0
 17 37  1  0  0  0  0
 18 38  1  0  0  0  0
 18 39  1  0  0  0  0
 19 20  2  0  0  0  0
 20 40  1  0  0  0  0
 21 22  1  0  0  0  0
 21 23  1  0  0  0  0
 21 41  1  0  0  0  0
 22 42  1  0  0  0  0
 22 43  1  0  0  0  0
 22 44  1  0  0  0  0
 23 45  1  0  0  0  0
 23 46  1  0  0  0  0
 23 47  1  0  0  0  0
M  END
> <s_m_source_file>
AV-unprocessed.smi

> <i_m_source_file_index>
1963

> <i_lp_mmshare_version>
43012

> <i_f3d_flags>
0

> <s_epik_input>
W0NIM11DKD1PKVtOSF1bQ0BASF0oW0NIXShbQ0gzXSlbQ0gzXSlDKD1PKVtOSF1jMVtjSF1bY0hdYyhuW2NIXTEpTjJbQ0gyXVtDSDJdT1tDSDJdW0NIMl0y

> <s_epik_cmdline>
J2VwaWtfcHl0aG9uJywgJy1waCcsICc3LjAnLCAnLXRuJywgJzgnLCAnLW1hJywgJzIwMCcsICctbWV0YWxfYmluZGluZycsICctaW1hZScsICc8aW5maWxlLm1hZT4nLCAnLW9tYWUnLCAnPG91dGZpbGUubWFlPic=

> <r_lp_tautomer_probability>
1

> <r_epik_Ionization_Penalty>
0.00051446

> <r_epik_Ionization_Penalty_Charging>
0

> <r_epik_Ionization_Penalty_Neutral>
0.00051446

> <r_epik_State_Penalty>
0.00031949

> <r_epik_Charging_Adjusted_Penalty>
0.00031949

> <i_epik_Tot_Q>
0

> <i_epik_Tot_abs_Q>
0

> <r_epik_Metal_State_Penalty>
-0

> <b_epik_Metal_Only>
0

> <s_lp_Force_Field>
OPLS_2005

> <r_lp_Energy>
27.6856

> <b_lp_Chiralities_Consistent>
1

> <s_lp_Variant>
AV-unprocessed.smi:1963-1

> <Gold.Version>
5.8.1

> <Gold.Id.Protein>
6NUR|6NUR_protein|mol2

> <Gold.PLP.Fitness>
39.4962

> <Gold.PLP.PLP>
-33.9051

> <Gold.PLP.part.hbond>
-2.6677

> <Gold.PLP.part.metal>
0.0000

> <Gold.PLP.part.buried>
-4.2953

> <Gold.PLP.part.nonpolar>
-26.3780

> <Gold.PLP.part.repulsive>
0.1726

> <Gold.PLP.ligand.clash>
0.0000

> <Gold.PLP.ligand.torsion>
1.2984

> <Gold.PLP.Chemscore.Hbond>
2.6825

> <Gold.PLP.Chemscore.CHOScore>
0.0000

> <Gold.PLP.Chemscore.Metal>
0.0000

> <Gold.Chemscore.Hbonds>
donor molecule, donor type, donor heavy atom, donor atom, acceptor molecule, acceptor atom, score
      L1  H     4    27       P1  7948  1.00
      P1  H  7997  8009       L1    19  0.52
      P1  H 10752 10763       L1     7  0.84

> <Gold.PLP.Chemscore.Internal.Correction>
0.1404

> <Gold.Rescore>
     Score         DG    S(hbond)    S(metal)    S(lipo)     H(rot)  DE(clash)    DE(int)     intcor
     17.91     -20.61       2.90        0.00      84.50       1.74       0.18       2.52       ----

> <Gold.Chemscore.Fitness>
17.9086

> <Gold.Chemscore.DG>
-20.6085

> <Gold.Chemscore.ZeroCoef>
-5.4800

> <Gold.Chemscore.Hbond>
2.9026

> <Gold.Chemscore.Metal>
0.0000

> <Gold.Chemscore.Lipo>
84.4997

> <Gold.Chemscore.Internal_Hbond>
0.0000

> <Gold.Chemscore.DEClash>
0.1799

> <Gold.Chemscore.DEInternal>
2.5200

> <Gold.Chemscore.Rot>
1.7394

> <Gold.Chemscore.Internal.Correction>
   9.000000E+99

> <Gold.Chemscore.Hbonds>
donor molecule, donor type, donor heavy atom, donor atom, acceptor molecule, acceptor atom, score
      L1  H     4    27       P1  7948  0.99
      P1  H  7997  8009       L1    19  0.45
      P1  H 10752 10763       L1     7  0.81

> <Gold.Chemscore.Hbond.Weighted>
-9.6948

> <Gold.Chemscore.Metal.Weighted>
-0.0000

> <Gold.Chemscore.Lipo.Weighted>
-9.8865

> <Gold.Chemscore.Internal_Hbond.Weighted>
0.0000

> <Gold.Chemscore.DEClash.Weighted>
0.1799

> <Gold.Chemscore.DEInternal.Weighted>
2.5200

> <Gold.Chemscore.Rot.Weighted>
4.4528

> <Gold.Chemscore.Internal.Correction.Weighted>
   9.000000E+99

> <Gold.Protein.RotatedTorsions>
[ 6907 6896 6895 6894 ] final   76.38 input  -60.11 | X-H torsion
[ 7974 7965 7964 7962 ] final  134.65 input  175.53 | X-H torsion
[ 8008 7997 7996 7995 ] final -172.17 input   59.86 | X-H torsion
[ 10167 10162 10161 10158 ] final  177.04 input  -65.29 | X-H torsion
[ 10718 10713 10712 10709 ] final  -95.80 input   66.30 | X-H torsion
[ 10763 10752 10751 10750 ] final   74.29 input  -60.55 | X-H torsion
[ 11005 11000 10999 10996 ] final  132.94 input  -57.11 | X-H torsion

> <Gold.Protein.ActiveResidues>
 VAL166  LYS551  ARG553  GLY616  TRP617  ASP618  TYR619  PRO620  LYS621  CYS622 
 ASP623  PHE694  ASN695  SER759  ASP760  ASP761  ALA762  ILE779  LEU786  VAL792 
 PHE793  MET794  SER795  GLU796  ALA797  LYS798  CYS799  TRP800  GLU811  SER814 

> <Gold.Protein.RotatedAtoms>
  152.5070  134.3977  159.9405 H   0  0  0  0  0  0  0  0  0  0  0  0  # atno 6907 bound_to 6896
  151.3939  133.3773  159.2732 H   0  0  0  0  0  0  0  0  0  0  0  0  # atno 6908 bound_to 6896
  150.9412  134.8841  159.7672 H   0  0  0  0  0  0  0  0  0  0  0  0  # atno 6909 bound_to 6896
  144.9742  139.4573  143.5418 H   0  0  0  0  0  0  0  0  0  0  0  0  # atno 7974 bound_to 7965
  155.9412  140.1109  157.1054 H   0  0  0  0  0  0  0  0  0  0  0  0  # atno 8008 bound_to 7997
  154.4089  140.1219  156.4995 H   0  0  0  0  0  0  0  0  0  0  0  0  # atno 8009 bound_to 7997
  155.6960  140.3472  155.4915 H   0  0  0  0  0  0  0  0  0  0  0  0  # atno 8010 bound_to 7997
  139.5237  144.2845  152.0517 H   0  0  0  0  0  0  0  0  0  0  0  0  # atno 10167 bound_to 10162
  156.0050  130.5124  150.6131 H   0  0  0  0  0  0  0  0  0  0  0  0  # atno 10718 bound_to 10713
  153.0577  135.5031  154.8020 H   0  0  0  0  0  0  0  0  0  0  0  0  # atno 10763 bound_to 10752
  154.6833  135.2972  154.9584 H   0  0  0  0  0  0  0  0  0  0  0  0  # atno 10764 bound_to 10752
  154.0363  135.6723  153.4838 H   0  0  0  0  0  0  0  0  0  0  0  0  # atno 10765 bound_to 10752
  139.9821  134.9545  156.9653 H   0  0  0  0  0  0  0  0  0  0  0  0  # atno 11005 bound_to 11000
  146.3390  139.8973  142.8800 LP  0  0  0  0  0  0  0  0  0  0  0  0  # atno 17320 bound_to 7965
  145.2515  141.0045  143.3878 LP  0  0  0  0  0  0  0  0  0  0  0  0  # atno 17321 bound_to 7965
  140.2299  144.4379  150.6304 LP  0  0  0  0  0  0  0  0  0  0  0  0  # atno 17342 bound_to 10162
  140.6362  143.2195  151.6389 LP  0  0  0  0  0  0  0  0  0  0  0  0  # atno 17343 bound_to 10162
  157.3960  131.0803  151.1352 LP  0  0  0  0  0  0  0  0  0  0  0  0  # atno 17370 bound_to 10713
  157.2028  130.6402  149.5745 LP  0  0  0  0  0  0  0  0  0  0  0  0  # atno 17371 bound_to 10713
  140.5076  134.1034  155.7263 LP  0  0  0  0  0  0  0  0  0  0  0  0  # atno 17394 bound_to 11000
  141.1491  133.9001  157.2142 LP  0  0  0  0  0  0  0  0  0  0  0  0  # atno 17395 bound_to 11000

$$$$
