AV-unprocessed.smi:2139|AV-procd|sdf|8712|dock1
  -GOLD-   2272011473D 1   1.00000     0.00000
 Structure written by MMmdl.
 40 41  0  0  0  0  0  0  0  0  1 V2000
  153.7089  136.8798  163.6667 C   0  0  0  0  0  0  0  0  0  0  0  0
  154.0021  137.1269  162.1797 C   0  0  0  0  0  0  0  0  0  0  0  0
  154.9081  138.3456  161.9217 C   0  0  2  0  0  0  0  0  0  0  0  0
  155.6077  138.8142  163.2074 C   0  0  0  0  0  0  0  0  0  0  0  0
  154.1299  139.4426  161.3517 N   0  0  0  0  0  0  0  0  0  0  0  0
  154.2203  139.8848  160.0870 C   0  0  0  0  0  0  0  0  0  0  0  0
  154.9857  139.4040  159.2506 O   0  0  0  0  0  0  0  0  0  0  0  0
  153.3427  141.0648  159.7604 C   0  0  0  0  0  0  0  0  0  0  0  0
  153.2757  142.1493  160.6655 C   0  0  0  0  0  0  0  0  0  0  0  0
  152.4231  143.2329  160.3902 C   0  0  0  0  0  0  0  0  0  0  0  0
  151.6546  143.1915  159.2147 C   0  0  0  0  0  0  0  0  0  0  0  0
  151.7018  142.1672  158.3398 N   0  0  0  0  0  0  0  0  0  0  0  0
  152.5242  141.1183  158.5926 C   0  0  0  0  0  0  0  0  0  0  0  0
  152.5632  140.1010  157.6174 N   0  0  0  0  0  0  0  0  0  0  0  0
  151.8473  140.4274  156.3903 C   0  0  0  0  0  0  0  0  0  0  0  0
  152.1960  139.4047  155.2960 C   0  0  0  0  0  0  0  0  0  0  0  0
  151.9081  138.0889  155.7616 O   0  0  0  0  0  0  0  0  0  0  0  0
  152.6666  137.7511  156.9201 C   0  0  0  0  0  0  0  0  0  0  0  0
  152.3345  138.7294  158.0601 C   0  0  0  0  0  0  0  0  0  0  0  0
  153.0243  136.0406  163.7907 H   0  0  0  0  0  0  0  0  0  0  0  0
  153.2483  137.7542  164.1273 H   0  0  0  0  0  0  0  0  0  0  0  0
  154.6176  136.6471  164.2223 H   0  0  0  0  0  0  0  0  0  0  0  0
  154.4523  136.2322  161.7478 H   0  0  0  0  0  0  0  0  0  0  0  0
  153.0548  137.2703  161.6586 H   0  0  0  0  0  0  0  0  0  0  0  0
  155.6764  138.0426  161.2077 H   0  0  0  0  0  0  0  0  0  0  0  0
  156.2130  138.0156  163.6372 H   0  0  0  0  0  0  0  0  0  0  0  0
  154.8848  139.1267  163.9616 H   0  0  0  0  0  0  0  0  0  0  0  0
  156.2709  139.6580  163.0123 H   0  0  0  0  0  0  0  0  0  0  0  0
  153.4833  139.9099  161.9705 H   0  0  0  0  0  0  0  0  0  0  0  0
  153.8625  142.1538  161.5730 H   0  0  0  0  0  0  0  0  0  0  0  0
  152.3544  144.0712  161.0675 H   0  0  0  0  0  0  0  0  0  0  0  0
  150.9850  144.0025  158.9693 H   0  0  0  0  0  0  0  0  0  0  0  0
  150.7748  140.4124  156.5884 H   0  0  0  0  0  0  0  0  0  0  0  0
  152.0936  141.4333  156.0499 H   0  0  0  0  0  0  0  0  0  0  0  0
  151.6109  139.6012  154.3978 H   0  0  0  0  0  0  0  0  0  0  0  0
  153.2479  139.4818  155.0152 H   0  0  0  0  0  0  0  0  0  0  0  0
  152.4253  136.7307  157.2182 H   0  0  0  0  0  0  0  0  0  0  0  0
  153.7326  137.7724  156.6879 H   0  0  0  0  0  0  0  0  0  0  0  0
  152.9527  138.5122  158.9321 H   0  0  0  0  0  0  0  0  0  0  0  0
  151.2925  138.6071  158.3587 H   0  0  0  0  0  0  0  0  0  0  0  0
  1  2  1  0  0  0  0
  1 20  1  0  0  0  0
  1 21  1  0  0  0  0
  1 22  1  0  0  0  0
  2  3  1  0  0  0  0
  2 23  1  0  0  0  0
  2 24  1  0  0  0  0
  3  4  1  0  0  0  0
  3  5  1  0  0  0  0
  3 25  1  0  0  0  0
  4 26  1  0  0  0  0
  4 27  1  0  0  0  0
  4 28  1  0  0  0  0
  5  6  1  0  0  0  0
  5 29  1  0  0  0  0
  6  7  2  0  0  0  0
  6  8  1  0  0  0  0
  8 13  1  0  0  0  0
  8  9  2  0  0  0  0
  9 10  1  0  0  0  0
  9 30  1  0  0  0  0
 10 11  2  0  0  0  0
 10 31  1  0  0  0  0
 11 12  1  0  0  0  0
 11 32  1  0  0  0  0
 12 13  2  0  0  0  0
 13 14  1  0  0  0  0
 14 19  1  0  0  0  0
 14 15  1  0  0  0  0
 15 16  1  0  0  0  0
 15 33  1  0  0  0  0
 15 34  1  0  0  0  0
 16 17  1  0  0  0  0
 16 35  1  0  0  0  0
 16 36  1  0  0  0  0
 17 18  1  0  0  0  0
 18 19  1  0  0  0  0
 18 37  1  0  0  0  0
 18 38  1  0  0  0  0
 19 39  1  0  0  0  0
 19 40  1  0  0  0  0
M  END
> <s_m_source_file>
AV-unprocessed.smi

> <i_m_source_file_index>
2139

> <i_lp_mmshare_version>
43012

> <i_f3d_flags>
0

> <s_epik_input>
W0NIM11bQ0gyXVtDQEhdKFtDSDNdKVtOSF1DKD1PKWMxW2NIXVtjSF1bY0hdbmMxTjJbQ0gyXVtDSDJdT1tDSDJdW0NIMl0y

> <s_epik_cmdline>
J2VwaWtfcHl0aG9uJywgJy1waCcsICc3LjAnLCAnLXRuJywgJzgnLCAnLW1hJywgJzIwMCcsICctbWV0YWxfYmluZGluZycsICctaW1hZScsICc8aW5maWxlLm1hZT4nLCAnLW9tYWUnLCAnPG91dGZpbGUubWFlPic=

> <r_lp_tautomer_probability>
1

> <r_epik_Ionization_Penalty>
1.73125e-05

> <r_epik_Ionization_Penalty_Charging>
0

> <r_epik_Ionization_Penalty_Neutral>
1.73125e-05

> <r_epik_State_Penalty>
-0

> <r_epik_Charging_Adjusted_Penalty>
0

> <i_epik_Tot_Q>
0

> <i_epik_Tot_abs_Q>
0

> <r_epik_Metal_State_Penalty>
-0

> <b_epik_Metal_Only>
0

> <s_lp_Force_Field>
OPLS_2005

> <r_lp_Energy>
24.9987

> <b_lp_Chiralities_Consistent>
1

> <s_lp_Variant>
AV-unprocessed.smi:2139-1

> <Gold.Version>
5.8.1

> <Gold.Id.Protein>
6NUR|6NUR_protein|mol2

> <Gold.PLP.Fitness>
36.3523

> <Gold.PLP.PLP>
-36.4152

> <Gold.PLP.part.hbond>
-2.0000

> <Gold.PLP.part.metal>
0.0000

> <Gold.PLP.part.buried>
-4.3603

> <Gold.PLP.part.nonpolar>
-30.2760

> <Gold.PLP.part.repulsive>
0.0370

> <Gold.PLP.ligand.clash>
0.0308

> <Gold.PLP.ligand.torsion>
1.6594

> <Gold.PLP.Chemscore.Hbond>
1.0000

> <Gold.PLP.Chemscore.CHOScore>
0.0000

> <Gold.PLP.Chemscore.Metal>
0.0000

> <Gold.Chemscore.Hbonds>
donor molecule, donor type, donor heavy atom, donor atom, acceptor molecule, acceptor atom, score
      P1  H  7997  8009       L1     7  1.00

> <Gold.PLP.Chemscore.Internal.Correction>
0.2868

> <Gold.Rescore>
     Score         DG    S(hbond)    S(metal)    S(lipo)     H(rot)  DE(clash)    DE(int)     intcor
     14.74     -16.52       1.00        0.00      94.45       1.30       0.05       1.74       ----

> <Gold.Chemscore.Fitness>
14.7395

> <Gold.Chemscore.DG>
-16.5233

> <Gold.Chemscore.ZeroCoef>
-5.4800

> <Gold.Chemscore.Hbond>
0.9972

> <Gold.Chemscore.Metal>
0.0000

> <Gold.Chemscore.Lipo>
94.4539

> <Gold.Chemscore.Internal_Hbond>
0.0000

> <Gold.Chemscore.DEClash>
0.0484

> <Gold.Chemscore.DEInternal>
1.7354

> <Gold.Chemscore.Rot>
1.3041

> <Gold.Chemscore.Internal.Correction>
   9.000000E+99

> <Gold.Chemscore.Hbonds>
donor molecule, donor type, donor heavy atom, donor atom, acceptor molecule, acceptor atom, score
      P1  H  7997  8009       L1     7  0.96

> <Gold.Chemscore.Hbond.Weighted>
-3.3307

> <Gold.Chemscore.Metal.Weighted>
-0.0000

> <Gold.Chemscore.Lipo.Weighted>
-11.0511

> <Gold.Chemscore.Internal_Hbond.Weighted>
0.0000

> <Gold.Chemscore.DEClash.Weighted>
0.0484

> <Gold.Chemscore.DEInternal.Weighted>
1.7354

> <Gold.Chemscore.Rot.Weighted>
3.3385

> <Gold.Chemscore.Internal.Correction.Weighted>
   9.000000E+99

> <Gold.Protein.RotatedTorsions>
[ 6907 6896 6895 6894 ] final -109.96 input  -60.11 | X-H torsion
[ 7974 7965 7964 7962 ] final   -8.92 input  175.53 | X-H torsion
[ 8008 7997 7996 7995 ] final  114.84 input   59.86 | X-H torsion
[ 10167 10162 10161 10158 ] final   28.58 input  -65.29 | X-H torsion
[ 10718 10713 10712 10709 ] final  179.55 input   66.30 | X-H torsion
[ 10763 10752 10751 10750 ] final   41.05 input  -60.55 | X-H torsion
[ 11005 11000 10999 10996 ] final   69.76 input  -57.11 | X-H torsion

> <Gold.Protein.ActiveResidues>
 VAL166  LYS551  ARG553  GLY616  TRP617  ASP618  TYR619  PRO620  LYS621  CYS622 
 ASP623  PHE694  ASN695  SER759  ASP760  ASP761  ALA762  ILE779  LEU786  VAL792 
 PHE793  MET794  SER795  GLU796  ALA797  LYS798  CYS799  TRP800  GLU811  SER814 

> <Gold.Protein.RotatedAtoms>
  150.7595  133.9452  159.3468 H   0  0  0  0  0  0  0  0  0  0  0  0  # atno 6907 bound_to 6896
  151.7364  135.0862  160.0318 H   0  0  0  0  0  0  0  0  0  0  0  0  # atno 6908 bound_to 6896
  152.3557  133.6196  159.6013 H   0  0  0  0  0  0  0  0  0  0  0  0  # atno 6909 bound_to 6896
  146.2267  140.2539  142.8348 H   0  0  0  0  0  0  0  0  0  0  0  0  # atno 7974 bound_to 7965
  156.2345  140.2951  156.0276 H   0  0  0  0  0  0  0  0  0  0  0  0  # atno 8008 bound_to 7997
  155.2130  140.0413  157.2953 H   0  0  0  0  0  0  0  0  0  0  0  0  # atno 8009 bound_to 7997
  154.6055  140.2438  155.7744 H   0  0  0  0  0  0  0  0  0  0  0  0  # atno 8010 bound_to 7997
  140.4840  144.0571  150.6274 H   0  0  0  0  0  0  0  0  0  0  0  0  # atno 10167 bound_to 10162
  156.8741  130.9794  151.3070 H   0  0  0  0  0  0  0  0  0  0  0  0  # atno 10718 bound_to 10713
  152.9919  135.6173  154.2724 H   0  0  0  0  0  0  0  0  0  0  0  0  # atno 10763 bound_to 10752
  154.2457  135.2787  155.2838 H   0  0  0  0  0  0  0  0  0  0  0  0  # atno 10764 bound_to 10752
  154.5331  135.5782  153.6833 H   0  0  0  0  0  0  0  0  0  0  0  0  # atno 10765 bound_to 10752
  139.9636  134.7019  156.0594 H   0  0  0  0  0  0  0  0  0  0  0  0  # atno 11005 bound_to 11000
  144.9390  140.8058  143.5642 LP  0  0  0  0  0  0  0  0  0  0  0  0  # atno 17320 bound_to 7965
  145.2489  139.2040  143.4953 LP  0  0  0  0  0  0  0  0  0  0  0  0  # atno 17321 bound_to 7965
  140.3821  143.2797  152.0158 LP  0  0  0  0  0  0  0  0  0  0  0  0  # atno 17342 bound_to 10162
  139.4838  144.6146  151.7370 LP  0  0  0  0  0  0  0  0  0  0  0  0  # atno 17343 bound_to 10162
  157.6178  130.8632  149.9058 LP  0  0  0  0  0  0  0  0  0  0  0  0  # atno 17370 bound_to 10713
  156.0711  130.3685  150.0774 LP  0  0  0  0  0  0  0  0  0  0  0  0  # atno 17371 bound_to 10713
  141.1314  133.6585  156.3475 LP  0  0  0  0  0  0  0  0  0  0  0  0  # atno 17394 bound_to 11000
  140.5446  134.6087  157.5390 LP  0  0  0  0  0  0  0  0  0  0  0  0  # atno 17395 bound_to 11000

$$$$
