AV-unprocessed.smi:107|AV-procd|sdf|1028|dock2
  -GOLD-   2262018 33D 1   1.00000     0.00000
 Structure written by MMmdl.
 30 31  0  0  0  0  0  0  0  0  2 V2000
  150.7300  142.9748  158.9697 C   0  0  0  0  0  0  0  0  0  0  0  0
  151.0623  142.0030  157.8507 C   0  0  0  0  0  0  0  0  0  0  0  0
  150.3475  141.9511  156.7045 C   0  0  0  0  0  0  0  0  0  0  0  0
  150.6538  141.0627  155.6865 N   0  0  0  0  0  0  0  0  0  0  0  0
  149.8490  141.0095  154.4019 C   0  0  1  0  0  0  0  0  0  0  0  0
  149.0925  139.6730  154.2880 C   0  0  0  0  0  0  0  0  0  0  0  0
  147.6618  140.1007  154.0118 C   0  0  2  0  0  0  0  0  0  0  0  0
  147.4099  140.1398  152.6193 O   0  0  0  0  0  0  0  0  0  0  0  0
  147.6018  141.4928  154.6508 C   0  0  2  0  0  0  0  0  0  0  0  0
  146.4988  142.4428  154.1522 C   0  0  0  0  0  0  0  0  0  0  0  0
  145.2223  141.9055  154.4285 O   0  0  0  0  0  0  0  0  0  0  0  0
  148.8933  142.0316  154.3933 O   0  0  0  0  0  0  0  0  0  0  0  0
  151.7564  140.1809  155.8375 C   0  0  0  0  0  0  0  0  0  0  0  0
  152.0079  139.4067  154.9136 O   0  0  0  0  0  0  0  0  0  0  0  0
  152.4829  140.2263  156.9905 N   0  5  0  0  0  0  0  0  0  0  0  0
  152.1977  141.0865  158.0094 C   0  0  0  0  0  0  0  0  0  0  0  0
  152.8599  141.1142  159.0466 O   0  0  0  0  0  0  0  0  0  0  0  0
  149.8671  143.5911  158.7168 H   0  0  0  0  0  0  0  0  0  0  0  0
  151.5743  143.6378  159.1610 H   0  0  0  0  0  0  0  0  0  0  0  0
  150.5009  142.4337  159.8883 H   0  0  0  0  0  0  0  0  0  0  0  0
  149.5166  142.6301  156.5939 H   0  0  0  0  0  0  0  0  0  0  0  0
  150.5651  141.1854  153.5973 H   0  0  0  0  0  0  0  0  0  0  0  0
  149.5247  139.0416  153.5107 H   0  0  0  0  0  0  0  0  0  0  0  0
  149.1444  139.1377  155.2373 H   0  0  0  0  0  0  0  0  0  0  0  0
  146.9436  139.4193  154.4686 H   0  0  0  0  0  0  0  0  0  0  0  0
  148.2035  140.4054  152.1801 H   0  0  0  0  0  0  0  0  0  0  0  0
  147.5062  141.3727  155.7316 H   0  0  0  0  0  0  0  0  0  0  0  0
  146.5825  143.4047  154.6586 H   0  0  0  0  0  0  0  0  0  0  0  0
  146.5915  142.6395  153.0840 H   0  0  0  0  0  0  0  0  0  0  0  0
  144.9624  141.3603  153.7016 H   0  0  0  0  0  0  0  0  0  0  0  0
  1  2  1  0  0  0  0
  1 18  1  0  0  0  0
  1 19  1  0  0  0  0
  1 20  1  0  0  0  0
  2 16  1  0  0  0  0
  2  3  2  0  0  0  0
  3  4  1  0  0  0  0
  3 21  1  0  0  0  0
  4  5  1  0  0  0  0
  4 13  1  0  0  0  0
  5 12  1  0  0  0  0
  5  6  1  0  0  0  0
  5 22  1  0  0  0  0
  6  7  1  0  0  0  0
  6 23  1  0  0  0  0
  6 24  1  0  0  0  0
  7  8  1  0  0  0  0
  7  9  1  0  0  0  0
  7 25  1  0  0  0  0
  8 26  1  0  0  0  0
  9 10  1  0  0  0  0
  9 12  1  0  0  0  0
  9 27  1  0  0  0  0
 10 11  1  0  0  0  0
 10 28  1  0  0  0  0
 10 29  1  0  0  0  0
 11 30  1  0  0  0  0
 13 14  2  0  0  0  0
 13 15  1  0  0  0  0
 15 16  1  0  0  0  0
 16 17  2  0  0  0  0
M  CHG  1  15  -1
M  END
> <s_m_source_file>
AV-unprocessed.smi

> <i_m_source_file_index>
107

> <i_lp_mmshare_version>
43012

> <i_f3d_flags>
0

> <s_epik_input>
Tz1jMVtuSF1jKD1PKW4oW2NIXWMxW0NIM10pW0NAQEhdMltDSDJdW0NAQEhdKFtPSF0pW0NASF0oTzIpW0NIMl1bT0hd

> <s_epik_cmdline>
J2VwaWtfcHl0aG9uJywgJy1waCcsICc3LjAnLCAnLXRuJywgJzgnLCAnLW1hJywgJzIwMCcsICctbWV0YWxfYmluZGluZycsICctaW1hZScsICc8aW5maWxlLm1hZT4nLCAnLW9tYWUnLCAnPG91dGZpbGUubWFlPic=

> <r_lp_tautomer_probability>
0.999537

> <r_epik_Ionization_Penalty>
3.66603

> <r_epik_Ionization_Penalty_Charging>
1.09773e-07

> <r_epik_Ionization_Penalty_Neutral>
3.66603

> <r_epik_State_Penalty>
3.66562

> <r_epik_Charging_Adjusted_Penalty>
3.66562

> <i_epik_Tot_Q>
-1

> <i_epik_Tot_abs_Q>
1

> <r_epik_Metal_State_Penalty>
0.234536

> <b_epik_Metal_Only>
1

> <s_epik_Chemistry_Notes>
This compound contains an acetal/aminal-like group ( X-CH(R)-Y where X, Y are N, S, or O) that may be acid/base labile, releasing an aldehyde.

> <s_lp_Force_Field>
OPLS_2005

> <r_lp_Energy>
39.9297

> <b_lp_Chiralities_Consistent>
1

> <s_lp_Variant>
AV-unprocessed.smi:107-16

> <Gold.Version>
5.8.1

> <Gold.Id.Protein>
6NUR|6NUR_protein|mol2

> <Gold.PLP.Fitness>
46.4631

> <Gold.PLP.PLP>
-30.4766

> <Gold.PLP.part.hbond>
-4.8686

> <Gold.PLP.part.metal>
0.0000

> <Gold.PLP.part.buried>
-1.3696

> <Gold.PLP.part.nonpolar>
-23.3874

> <Gold.PLP.part.repulsive>
1.0344

> <Gold.PLP.ligand.clash>
0.0000

> <Gold.PLP.ligand.torsion>
0.0777

> <Gold.PLP.Chemscore.Hbond>
4.3794

> <Gold.PLP.Chemscore.CHOScore>
1.0000

> <Gold.PLP.Chemscore.Metal>
0.0000

> <Gold.Chemscore.Hbonds>
donor molecule, donor type, donor heavy atom, donor atom, acceptor molecule, acceptor atom, score
      L1  H     8    26       P1  7957  1.00
      L1  H    11    30       P1 10175  1.00
      P1  H  7989  7998       L1    14  0.52
      P1  H  7997  8008       L1    15  2.00
      P1  H  8011  8017       L1    12  0.02
      L1  C     3    21       P1  8028  1.00

> <Gold.PLP.Chemscore.Internal.Correction>
0.0036

> <Gold.Rescore>
     Score         DG    S(hbond)    S(metal)    S(lipo)     H(rot)  DE(clash)    DE(int)     intcor
      9.25     -11.07       2.16        0.00      44.88       2.69       0.86       0.96       ----

> <Gold.Chemscore.Fitness>
9.2480

> <Gold.Chemscore.DG>
-11.0729

> <Gold.Chemscore.ZeroCoef>
-5.4800

> <Gold.Chemscore.Hbond>
2.1619

> <Gold.Chemscore.Metal>
0.0000

> <Gold.Chemscore.Lipo>
44.8834

> <Gold.Chemscore.Internal_Hbond>
0.0000

> <Gold.Chemscore.DEClash>
0.8637

> <Gold.Chemscore.DEInternal>
0.9612

> <Gold.Chemscore.Rot>
2.6871

> <Gold.Chemscore.Internal.Correction>
   9.000000E+99

> <Gold.Chemscore.Hbonds>
donor molecule, donor type, donor heavy atom, donor atom, acceptor molecule, acceptor atom, score
      L1  H     8    26       P1  7957  0.95
      L1  H    11    30       P1 10175  0.29
      P1  H  7989  7998       L1    14  0.03
      P1  H  7997  8008       L1    15  0.52

> <Gold.Chemscore.Hbond.Weighted>
-7.2206

> <Gold.Chemscore.Metal.Weighted>
-0.0000

> <Gold.Chemscore.Lipo.Weighted>
-5.2514

> <Gold.Chemscore.Internal_Hbond.Weighted>
0.0000

> <Gold.Chemscore.DEClash.Weighted>
0.8637

> <Gold.Chemscore.DEInternal.Weighted>
0.9612

> <Gold.Chemscore.Rot.Weighted>
6.8791

> <Gold.Chemscore.Internal.Correction.Weighted>
   9.000000E+99

> <Gold.Protein.RotatedTorsions>
[ 6907 6896 6895 6894 ] final -105.24 input  -60.11 | X-H torsion
[ 7974 7965 7964 7962 ] final   76.86 input  175.53 | X-H torsion
[ 8008 7997 7996 7995 ] final  -50.28 input   59.86 | X-H torsion
[ 10167 10162 10161 10158 ] final  176.35 input  -65.29 | X-H torsion
[ 10718 10713 10712 10709 ] final  140.00 input   66.30 | X-H torsion
[ 10763 10752 10751 10750 ] final -150.18 input  -60.55 | X-H torsion
[ 11005 11000 10999 10996 ] final   26.71 input  -57.11 | X-H torsion

> <Gold.Protein.ActiveResidues>
 VAL166  LYS551  ARG553  GLY616  TRP617  ASP618  TYR619  PRO620  LYS621  CYS622 
 ASP623  PHE694  ASN695  SER759  ASP760  ASP761  ALA762  ILE779  LEU786  VAL792 
 PHE793  MET794  SER795  GLU796  ALA797  LYS798  CYS799  TRP800  GLU811  SER814 

> <Gold.Protein.RotatedAtoms>
  150.7327  134.0156  159.3683 H   0  0  0  0  0  0  0  0  0  0  0  0  # atno 6907 bound_to 6896
  151.8118  135.0676  160.0423 H   0  0  0  0  0  0  0  0  0  0  0  0  # atno 6908 bound_to 6896
  152.3067  133.5674  159.5690 H   0  0  0  0  0  0  0  0  0  0  0  0  # atno 6909 bound_to 6896
  145.6975  139.2572  143.1724 H   0  0  0  0  0  0  0  0  0  0  0  0  # atno 7974 bound_to 7965
  154.4059  140.1276  156.4640 H   0  0  0  0  0  0  0  0  0  0  0  0  # atno 8008 bound_to 7997
  155.7245  140.3492  155.5011 H   0  0  0  0  0  0  0  0  0  0  0  0  # atno 8009 bound_to 7997
  155.9184  140.1048  157.1216 H   0  0  0  0  0  0  0  0  0  0  0  0  # atno 8010 bound_to 7997
  139.5211  144.2926  152.0450 H   0  0  0  0  0  0  0  0  0  0  0  0  # atno 10167 bound_to 10162
  157.4081  131.1025  151.0482 H   0  0  0  0  0  0  0  0  0  0  0  0  # atno 10718 bound_to 10713
  154.8134  135.3291  154.7243 H   0  0  0  0  0  0  0  0  0  0  0  0  # atno 10763 bound_to 10752
  153.7888  135.6912  153.4879 H   0  0  0  0  0  0  0  0  0  0  0  0  # atno 10764 bound_to 10752
  153.1931  135.4544  155.0120 H   0  0  0  0  0  0  0  0  0  0  0  0  # atno 10765 bound_to 10752
  140.3341  134.2405  155.7698 H   0  0  0  0  0  0  0  0  0  0  0  0  # atno 11005 bound_to 11000
  146.0827  140.7745  142.9633 LP  0  0  0  0  0  0  0  0  0  0  0  0  # atno 17320 bound_to 7965
  144.6978  140.3515  143.7181 LP  0  0  0  0  0  0  0  0  0  0  0  0  # atno 17321 bound_to 7965
  140.2376  144.4303  150.6273 LP  0  0  0  0  0  0  0  0  0  0  0  0  # atno 17342 bound_to 10162
  140.6312  143.2188  151.6491 LP  0  0  0  0  0  0  0  0  0  0  0  0  # atno 17343 bound_to 10162
  157.1456  130.6162  149.5567 LP  0  0  0  0  0  0  0  0  0  0  0  0  # atno 17370 bound_to 10713
  155.9842  130.4866  150.6974 LP  0  0  0  0  0  0  0  0  0  0  0  0  # atno 17371 bound_to 10713
  141.2056  133.7857  157.0226 LP  0  0  0  0  0  0  0  0  0  0  0  0  # atno 17394 bound_to 11000
  140.0836  134.9634  157.1663 LP  0  0  0  0  0  0  0  0  0  0  0  0  # atno 17395 bound_to 11000

$$$$
