AV-unprocessed.smi:1996|AV-procd|sdf|8085|dock8
  -GOLD-   2272010303D 1   1.00000     0.00000
 Structure written by MMmdl.
 32 33  0  0  0  0  0  0  0  0  2 V2000
  147.3790  141.0879  158.3603 O   0  0  0  0  0  0  0  0  0  0  0  0
  147.6309  142.2628  158.0833 C   0  0  0  0  0  0  0  0  0  0  0  0
  148.6226  142.5482  157.2287 N   0  0  0  0  0  0  0  0  0  0  0  0
  149.4673  141.5634  156.5658 C   0  0  0  0  0  0  0  0  0  0  0  0
  150.8990  142.0979  156.4112 C   0  0  0  0  0  0  0  0  0  0  0  0
  151.4544  142.6794  157.7010 C   0  0  0  0  0  0  0  0  0  0  0  0
  151.8110  143.9747  157.8039 C   0  0  0  0  0  0  0  0  0  0  0  0
  152.3573  144.6120  159.0694 C   0  0  0  0  0  0  0  0  0  0  0  0
  152.1450  143.7282  160.3100 C   0  0  0  0  0  0  0  0  0  0  0  0
  152.4709  142.2606  160.0067 C   0  0  0  0  0  0  0  0  0  0  0  0
  151.5857  141.7128  158.8730 C   0  0  0  0  0  0  0  0  0  0  0  0
  146.9911  143.3544  158.5619 N   0  5  0  0  0  0  0  0  0  0  0  0
  146.3230  143.2841  159.7249 C   0  0  0  0  0  0  0  0  0  0  0  0
  145.7578  142.1472  160.1621 N   0  0  0  0  0  0  0  0  0  0  0  0
  145.1191  142.2904  161.3866 N   0  0  0  0  0  0  0  0  0  0  0  0
  145.2273  143.5360  161.8480 C   0  0  0  0  0  0  0  0  0  0  0  0
  146.1221  144.6458  160.8314 S   0  0  0  0  0  0  0  0  0  0  0  0
  148.8008  143.5208  157.0261 H   0  0  0  0  0  0  0  0  0  0  0  0
  149.4721  140.6421  157.1505 H   0  0  0  0  0  0  0  0  0  0  0  0
  149.0410  141.3271  155.5899 H   0  0  0  0  0  0  0  0  0  0  0  0
  151.5628  141.3010  156.0738 H   0  0  0  0  0  0  0  0  0  0  0  0
  150.9179  142.8628  155.6334 H   0  0  0  0  0  0  0  0  0  0  0  0
  151.7223  144.6261  156.9465 H   0  0  0  0  0  0  0  0  0  0  0  0
  153.4206  144.8011  158.9187 H   0  0  0  0  0  0  0  0  0  0  0  0
  151.8802  145.5808  159.2188 H   0  0  0  0  0  0  0  0  0  0  0  0
  152.7567  144.0914  161.1363 H   0  0  0  0  0  0  0  0  0  0  0  0
  151.1072  143.8032  160.6375 H   0  0  0  0  0  0  0  0  0  0  0  0
  153.5204  142.1787  159.7206 H   0  0  0  0  0  0  0  0  0  0  0  0
  152.3470  141.6511  160.9023 H   0  0  0  0  0  0  0  0  0  0  0  0
  150.5863  141.5052  159.2565 H   0  0  0  0  0  0  0  0  0  0  0  0
  151.9921  140.7643  158.5206 H   0  0  0  0  0  0  0  0  0  0  0  0
  144.7805  143.8028  162.7939 H   0  0  0  0  0  0  0  0  0  0  0  0
  1  2  2  0  0  0  0
  2  3  1  0  0  0  0
  2 12  1  0  0  0  0
  3  4  1  0  0  0  0
  3 18  1  0  0  0  0
  4  5  1  0  0  0  0
  4 19  1  0  0  0  0
  4 20  1  0  0  0  0
  5  6  1  0  0  0  0
  5 21  1  0  0  0  0
  5 22  1  0  0  0  0
  6 11  1  0  0  0  0
  6  7  2  0  0  0  0
  7  8  1  0  0  0  0
  7 23  1  0  0  0  0
  8  9  1  0  0  0  0
  8 24  1  0  0  0  0
  8 25  1  0  0  0  0
  9 10  1  0  0  0  0
  9 26  1  0  0  0  0
  9 27  1  0  0  0  0
 10 11  1  0  0  0  0
 10 28  1  0  0  0  0
 10 29  1  0  0  0  0
 11 30  1  0  0  0  0
 11 31  1  0  0  0  0
 12 13  1  0  0  0  0
 13 17  1  0  0  0  0
 13 14  2  0  0  0  0
 14 15  1  0  0  0  0
 15 16  2  0  0  0  0
 16 17  1  0  0  0  0
 16 32  1  0  0  0  0
M  CHG  1  12  -1
M  END
> <s_m_source_file>
AV-unprocessed.smi

> <i_m_source_file_index>
1996

> <i_lp_mmshare_version>
43012

> <i_f3d_flags>
0

> <s_epik_input>
czFbY0hdbm5jMVtOSF1DKD1PKVtOSF1bQ0gyXVtDSDJdQzI9W0NIXVtDSDJdW0NIMl1bQ0gyXVtDSDJdMg==

> <s_epik_cmdline>
J2VwaWtfcHl0aG9uJywgJy1waCcsICc3LjAnLCAnLXRuJywgJzgnLCAnLW1hJywgJzIwMCcsICctbWV0YWxfYmluZGluZycsICctaW1hZScsICc8aW5maWxlLm1hZT4nLCAnLW9tYWUnLCAnPG91dGZpbGUubWFlPic=

> <r_lp_tautomer_probability>
1

> <r_epik_Ionization_Penalty>
3.56684

> <r_epik_Ionization_Penalty_Charging>
3.52481

> <r_epik_Ionization_Penalty_Neutral>
0.0420339

> <r_epik_State_Penalty>
3.52326

> <r_epik_Charging_Adjusted_Penalty>
7.04807

> <i_epik_Tot_Q>
-1

> <i_epik_Tot_abs_Q>
1

> <r_epik_Metal_State_Penalty>
0.513455

> <b_epik_Metal_Only>
1

> <s_lp_Force_Field>
OPLS_2005

> <r_lp_Energy>
5.58763

> <b_lp_Chiralities_Consistent>
1

> <s_lp_Variant>
AV-unprocessed.smi:1996-2

> <Gold.Version>
5.8.1

> <Gold.Id.Protein>
6NUR|6NUR_protein|mol2

> <Gold.PLP.Fitness>
43.7110

> <Gold.PLP.PLP>
-38.7171

> <Gold.PLP.part.hbond>
-3.7428

> <Gold.PLP.part.metal>
0.0000

> <Gold.PLP.part.buried>
-5.8623

> <Gold.PLP.part.nonpolar>
-30.8596

> <Gold.PLP.part.repulsive>
0.4378

> <Gold.PLP.ligand.clash>
0.0000

> <Gold.PLP.ligand.torsion>
0.5128

> <Gold.PLP.Chemscore.Hbond>
1.9920

> <Gold.PLP.Chemscore.CHOScore>
0.0000

> <Gold.PLP.Chemscore.Metal>
0.0000

> <Gold.Chemscore.Hbonds>
donor molecule, donor type, donor heavy atom, donor atom, acceptor molecule, acceptor atom, score
      L1  H     3    18       P1  8028  0.86
      P1  H  6934  6946       L1    14  0.75

> <Gold.PLP.Chemscore.Internal.Correction>
0.0434

> <Gold.Rescore>
     Score         DG    S(hbond)    S(metal)    S(lipo)     H(rot)  DE(clash)    DE(int)     intcor
     14.52     -17.92       1.70        0.00      92.64       1.59       1.43       1.97       ----

> <Gold.Chemscore.Fitness>
14.5198

> <Gold.Chemscore.DG>
-17.9198

> <Gold.Chemscore.ZeroCoef>
-5.4800

> <Gold.Chemscore.Hbond>
1.6978

> <Gold.Chemscore.Metal>
0.0000

> <Gold.Chemscore.Lipo>
92.6415

> <Gold.Chemscore.Internal_Hbond>
0.0000

> <Gold.Chemscore.DEClash>
1.4295

> <Gold.Chemscore.DEInternal>
1.9706

> <Gold.Chemscore.Rot>
1.5898

> <Gold.Chemscore.Internal.Correction>
   9.000000E+99

> <Gold.Chemscore.Hbonds>
donor molecule, donor type, donor heavy atom, donor atom, acceptor molecule, acceptor atom, score
      L1  H     3    18       P1  8028  0.34
      P1  H  6934  6946       L1    14  0.09

> <Gold.Chemscore.Hbond.Weighted>
-5.6706

> <Gold.Chemscore.Metal.Weighted>
-0.0000

> <Gold.Chemscore.Lipo.Weighted>
-10.8390

> <Gold.Chemscore.Internal_Hbond.Weighted>
0.0000

> <Gold.Chemscore.DEClash.Weighted>
1.4295

> <Gold.Chemscore.DEInternal.Weighted>
1.9706

> <Gold.Chemscore.Rot.Weighted>
4.0698

> <Gold.Chemscore.Internal.Correction.Weighted>
   9.000000E+99

> <Gold.Protein.RotatedTorsions>
[ 6907 6896 6895 6894 ] final  -58.42 input  -60.11 | X-H torsion
[ 7974 7965 7964 7962 ] final  -98.52 input  175.53 | X-H torsion
[ 8008 7997 7996 7995 ] final  -57.34 input   59.86 | X-H torsion
[ 10167 10162 10161 10158 ] final   95.04 input  -65.29 | X-H torsion
[ 10718 10713 10712 10709 ] final  -81.27 input   66.30 | X-H torsion
[ 10763 10752 10751 10750 ] final  -39.73 input  -60.55 | X-H torsion
[ 11005 11000 10999 10996 ] final   36.37 input  -57.11 | X-H torsion

> <Gold.Protein.ActiveResidues>
 VAL166  LYS551  ARG553  GLY616  TRP617  ASP618  TYR619  PRO620  LYS621  CYS622 
 ASP623  PHE694  ASN695  SER759  ASP760  ASP761  ALA762  ILE779  LEU786  VAL792 
 PHE793  MET794  SER795  GLU796  ALA797  LYS798  CYS799  TRP800  GLU811  SER814 

> <Gold.Protein.RotatedAtoms>
  150.8008  134.7100  159.6598 H   0  0  0  0  0  0  0  0  0  0  0  0  # atno 6907 bound_to 6896
  152.4125  134.6097  160.0032 H   0  0  0  0  0  0  0  0  0  0  0  0  # atno 6908 bound_to 6896
  151.6335  133.3293  159.3150 H   0  0  0  0  0  0  0  0  0  0  0  0  # atno 6909 bound_to 6896
  145.3196  140.9419  143.2723 H   0  0  0  0  0  0  0  0  0  0  0  0  # atno 7974 bound_to 7965
  154.4264  140.1109  156.5781 H   0  0  0  0  0  0  0  0  0  0  0  0  # atno 8008 bound_to 7997
  155.6141  140.3494  155.4612 H   0  0  0  0  0  0  0  0  0  0  0  0  # atno 8009 bound_to 7997
  156.0076  140.1212  157.0475 H   0  0  0  0  0  0  0  0  0  0  0  0  # atno 8010 bound_to 7997
  139.8026  144.6807  150.9744 H   0  0  0  0  0  0  0  0  0  0  0  0  # atno 10167 bound_to 10162
  156.0053  130.4599  150.3927 H   0  0  0  0  0  0  0  0  0  0  0  0  # atno 10718 bound_to 10713
  153.9343  135.6768  153.4745 H   0  0  0  0  0  0  0  0  0  0  0  0  # atno 10763 bound_to 10752
  153.0964  135.4849  154.8783 H   0  0  0  0  0  0  0  0  0  0  0  0  # atno 10764 bound_to 10752
  154.7411  135.3161  154.8683 H   0  0  0  0  0  0  0  0  0  0  0  0  # atno 10765 bound_to 10752
  140.2333  134.3502  155.7955 H   0  0  0  0  0  0  0  0  0  0  0  0  # atno 11005 bound_to 11000
  144.8950  139.4724  143.6660 LP  0  0  0  0  0  0  0  0  0  0  0  0  # atno 17320 bound_to 7965
  146.3087  139.7670  142.9036 LP  0  0  0  0  0  0  0  0  0  0  0  0  # atno 17321 bound_to 7965
  140.7820  143.4265  151.0759 LP  0  0  0  0  0  0  0  0  0  0  0  0  # atno 17342 bound_to 10162
  139.7936  143.8183  152.3155 LP  0  0  0  0  0  0  0  0  0  0  0  0  # atno 17343 bound_to 10162
  157.2000  131.0436  151.2655 LP  0  0  0  0  0  0  0  0  0  0  0  0  # atno 17370 bound_to 10713
  157.3984  130.7320  149.6749 LP  0  0  0  0  0  0  0  0  0  0  0  0  # atno 17371 bound_to 10713
  141.2216  133.7257  156.8766 LP  0  0  0  0  0  0  0  0  0  0  0  0  # atno 17394 bound_to 11000
  140.1728  134.9088  157.2854 LP  0  0  0  0  0  0  0  0  0  0  0  0  # atno 17395 bound_to 11000

$$$$
