AV-unprocessed.smi:1703|AV-procd|sdf|6855|dock10
  -GOLD-   22720 8 43D 1   1.00000     0.00000
 Structure written by MMmdl.
 48 50  0  0  0  0  0  0  0  0  1 V2000
  143.5538  142.8822  158.9887 C   0  0  0  0  0  0  0  0  0  0  0  0
  144.5811  143.9394  158.5485 C   0  0  2  0  0  0  0  0  0  0  0  0
  145.6261  143.3992  157.5521 C   0  0  0  0  0  0  0  0  0  0  0  0
  146.6078  142.5209  158.1800 N   0  0  0  0  0  0  0  0  0  0  0  0
  147.5769  142.0403  157.1940 C   0  0  0  0  0  0  0  0  0  0  0  0
  148.8109  141.3144  157.7738 C   0  0  1  0  0  0  0  0  0  0  0  0
  148.4922  139.9468  157.9254 O   0  0  0  0  0  0  0  0  0  0  0  0
  150.0595  141.4011  156.8717 C   0  0  0  0  0  0  0  0  0  0  0  0
  151.2667  140.9027  157.5174 N   0  0  0  0  0  0  0  0  0  0  0  0
  152.0347  139.8441  157.1551 C   0  0  0  0  0  0  0  0  0  0  0  0
  151.7272  139.0043  155.9533 C   0  0  0  0  0  0  0  0  0  0  0  0
  152.0203  139.6634  154.7401 O   0  0  0  0  0  0  0  0  0  0  0  0
  153.0916  139.6011  157.9311 N   0  0  0  0  0  0  0  0  0  0  0  0
  153.0090  140.6014  158.8796 C   0  0  0  0  0  0  0  0  0  0  0  0
  153.8424  140.8906  159.9837 C   0  0  0  0  0  0  0  0  0  0  0  0
  153.5552  141.9829  160.8282 C   0  0  0  0  0  0  0  0  0  0  0  0
  152.4335  142.8006  160.5810 C   0  0  0  0  0  0  0  0  0  0  0  0
  151.5902  142.5300  159.4865 C   0  0  0  0  0  0  0  0  0  0  0  0
  151.8802  141.4374  158.6469 C   0  0  0  0  0  0  0  0  0  0  0  0
  147.2376  143.2353  159.2873 C   0  0  0  0  0  0  0  0  0  0  0  0
  146.2044  143.7276  160.3173 C   0  0  1  0  0  0  0  0  0  0  0  0
  146.8521  144.5557  161.4321 C   0  0  0  0  0  0  0  0  0  0  0  0
  145.2330  144.5443  159.6662 O   0  0  0  0  0  0  0  0  0  0  0  0
  142.9868  142.5136  158.1336 H   0  0  0  0  0  0  0  0  0  0  0  0
  142.8427  143.3041  159.6991 H   0  0  0  0  0  0  0  0  0  0  0  0
  144.0267  142.0211  159.4606 H   0  0  0  0  0  0  0  0  0  0  0  0
  144.0252  144.7351  158.0517 H   0  0  0  0  0  0  0  0  0  0  0  0
  145.1178  142.8737  156.7427 H   0  0  0  0  0  0  0  0  0  0  0  0
  146.1407  144.2441  157.0916 H   0  0  0  0  0  0  0  0  0  0  0  0
  147.0805  141.3558  156.5043 H   0  0  0  0  0  0  0  0  0  0  0  0
  147.8994  142.8868  156.5875 H   0  0  0  0  0  0  0  0  0  0  0  0
  149.0639  141.7120  158.7546 H   0  0  0  0  0  0  0  0  0  0  0  0
  149.2237  139.5170  158.3424 H   0  0  0  0  0  0  0  0  0  0  0  0
  149.9002  140.8436  155.9482 H   0  0  0  0  0  0  0  0  0  0  0  0
  150.2332  142.4348  156.5699 H   0  0  0  0  0  0  0  0  0  0  0  0
  152.3107  138.0840  155.9988 H   0  0  0  0  0  0  0  0  0  0  0  0
  150.6788  138.7090  155.9607 H   0  0  0  0  0  0  0  0  0  0  0  0
  152.7645  139.2402  154.3406 H   0  0  0  0  0  0  0  0  0  0  0  0
  154.7046  140.2708  160.1807 H   0  0  0  0  0  0  0  0  0  0  0  0
  154.1988  142.1950  161.6694 H   0  0  0  0  0  0  0  0  0  0  0  0
  152.2206  143.6356  161.2326 H   0  0  0  0  0  0  0  0  0  0  0  0
  150.7291  143.1534  159.2967 H   0  0  0  0  0  0  0  0  0  0  0  0
  147.9511  142.5917  159.7996 H   0  0  0  0  0  0  0  0  0  0  0  0
  147.8041  144.0853  158.9032 H   0  0  0  0  0  0  0  0  0  0  0  0
  145.7084  142.8699  160.7728 H   0  0  0  0  0  0  0  0  0  0  0  0
  147.5940  143.9700  161.9753 H   0  0  0  0  0  0  0  0  0  0  0  0
  146.1049  144.8937  162.1505 H   0  0  0  0  0  0  0  0  0  0  0  0
  147.3506  145.4379  161.0296 H   0  0  0  0  0  0  0  0  0  0  0  0
  1  2  1  0  0  0  0
  1 24  1  0  0  0  0
  1 25  1  0  0  0  0
  1 26  1  0  0  0  0
  2 23  1  0  0  0  0
  2  3  1  0  0  0  0
  2 27  1  0  0  0  0
  3  4  1  0  0  0  0
  3 28  1  0  0  0  0
  3 29  1  0  0  0  0
  4  5  1  0  0  0  0
  4 20  1  0  0  0  0
  5  6  1  0  0  0  0
  5 30  1  0  0  0  0
  5 31  1  0  0  0  0
  6  7  1  0  0  0  0
  6  8  1  0  0  0  0
  6 32  1  0  0  0  0
  7 33  1  0  0  0  0
  8  9  1  0  0  0  0
  8 34  1  0  0  0  0
  8 35  1  0  0  0  0
  9 19  1  0  0  0  0
  9 10  1  0  0  0  0
 10 11  1  0  0  0  0
 10 13  2  0  0  0  0
 11 12  1  0  0  0  0
 11 36  1  0  0  0  0
 11 37  1  0  0  0  0
 12 38  1  0  0  0  0
 13 14  1  0  0  0  0
 14 19  2  0  0  0  0
 14 15  1  0  0  0  0
 15 16  2  0  0  0  0
 15 39  1  0  0  0  0
 16 17  1  0  0  0  0
 16 40  1  0  0  0  0
 17 18  2  0  0  0  0
 17 41  1  0  0  0  0
 18 19  1  0  0  0  0
 18 42  1  0  0  0  0
 20 21  1  0  0  0  0
 20 43  1  0  0  0  0
 20 44  1  0  0  0  0
 21 22  1  0  0  0  0
 21 23  1  0  0  0  0
 21 45  1  0  0  0  0
 22 46  1  0  0  0  0
 22 47  1  0  0  0  0
 22 48  1  0  0  0  0
M  END
> <s_m_source_file>
AV-unprocessed.smi

> <i_m_source_file_index>
1703

> <i_lp_mmshare_version>
43012

> <i_f3d_flags>
0

> <s_epik_input>
W0NIM11bQ0BASF0xW0NIMl1OKFtDSDJdW0NASF0oTzEpW0NIM10pW0NIMl1bQ0BIXShbT0hdKVtDSDJdbihjKG4yKVtDSDJdW09IXSljKGMyMylbY0hdW2NIXVtjSF1bY0hdMw==

> <s_epik_cmdline>
J2VwaWtfcHl0aG9uJywgJy1waCcsICc3LjAnLCAnLXRuJywgJzgnLCAnLW1hJywgJzIwMCcsICctbWV0YWxfYmluZGluZycsICctaW1hZScsICc8aW5maWxlLm1hZT4nLCAnLW9tYWUnLCAnPG91dGZpbGUubWFlPic=

> <r_epik_Ionization_Penalty>
0.307685

> <r_epik_Ionization_Penalty_Charging>
0

> <r_epik_Ionization_Penalty_Neutral>
0.307685

> <r_epik_State_Penalty>
0.277856

> <r_epik_Charging_Adjusted_Penalty>
0.277856

> <i_epik_Tot_Q>
0

> <i_epik_Tot_abs_Q>
0

> <r_epik_Metal_State_Penalty>
0.238959

> <b_epik_Metal_Only>
0

> <s_lp_Force_Field>
OPLS_2005

> <r_lp_Energy>
33.3157

> <b_lp_Chiralities_Consistent>
1

> <s_lp_Variant>
AV-unprocessed.smi:1703-3

> <Gold.Version>
5.8.1

> <Gold.Id.Protein>
6NUR|6NUR_protein|mol2

> <Gold.PLP.Fitness>
42.2326

> <Gold.PLP.PLP>
-37.6897

> <Gold.PLP.part.hbond>
-2.5486

> <Gold.PLP.part.metal>
0.0000

> <Gold.PLP.part.buried>
-6.9067

> <Gold.PLP.part.nonpolar>
-28.8533

> <Gold.PLP.part.repulsive>
0.2242

> <Gold.PLP.ligand.clash>
0.0000

> <Gold.PLP.ligand.torsion>
0.6002

> <Gold.PLP.Chemscore.Hbond>
1.8960

> <Gold.PLP.Chemscore.CHOScore>
0.0000

> <Gold.PLP.Chemscore.Metal>
0.0000

> <Gold.Chemscore.Hbonds>
donor molecule, donor type, donor heavy atom, donor atom, acceptor molecule, acceptor atom, score
      P1  H  7989  7998       L1    12  0.85
      P1  H  7997  8009       L1    13  1.00

> <Gold.PLP.Chemscore.Internal.Correction>
0.0552

> <Gold.Rescore>
     Score         DG    S(hbond)    S(metal)    S(lipo)     H(rot)  DE(clash)    DE(int)     intcor
     12.04     -12.84       1.30        0.00      88.82       2.88       0.14       0.66       ----

> <Gold.Chemscore.Fitness>
12.0400

> <Gold.Chemscore.DG>
-12.8383

> <Gold.Chemscore.ZeroCoef>
-5.4800

> <Gold.Chemscore.Hbond>
1.2974

> <Gold.Chemscore.Metal>
0.0000

> <Gold.Chemscore.Lipo>
88.8208

> <Gold.Chemscore.Internal_Hbond>
0.0000

> <Gold.Chemscore.DEClash>
0.1408

> <Gold.Chemscore.DEInternal>
0.6575

> <Gold.Chemscore.Rot>
2.8778

> <Gold.Chemscore.Internal.Correction>
   9.000000E+99

> <Gold.Chemscore.Hbonds>
donor molecule, donor type, donor heavy atom, donor atom, acceptor molecule, acceptor atom, score
      P1  H  7989  7998       L1    12  0.19
      P1  H  7997  8009       L1    13  0.22

> <Gold.Chemscore.Hbond.Weighted>
-4.3333

> <Gold.Chemscore.Metal.Weighted>
-0.0000

> <Gold.Chemscore.Lipo.Weighted>
-10.3920

> <Gold.Chemscore.Internal_Hbond.Weighted>
0.0000

> <Gold.Chemscore.DEClash.Weighted>
0.1408

> <Gold.Chemscore.DEInternal.Weighted>
0.6575

> <Gold.Chemscore.Rot.Weighted>
7.3671

> <Gold.Chemscore.Internal.Correction.Weighted>
   9.000000E+99

> <Gold.Protein.RotatedTorsions>
[ 6907 6896 6895 6894 ] final  -12.12 input  -60.11 | X-H torsion
[ 7974 7965 7964 7962 ] final   -7.22 input  175.53 | X-H torsion
[ 8008 7997 7996 7995 ] final  160.84 input   59.86 | X-H torsion
[ 10167 10162 10161 10158 ] final -174.35 input  -65.29 | X-H torsion
[ 10718 10713 10712 10709 ] final  120.67 input   66.30 | X-H torsion
[ 10763 10752 10751 10750 ] final -130.38 input  -60.55 | X-H torsion
[ 11005 11000 10999 10996 ] final  -14.29 input  -57.11 | X-H torsion

> <Gold.Protein.ActiveResidues>
 VAL166  LYS551  ARG553  GLY616  TRP617  ASP618  TYR619  PRO620  LYS621  CYS622 
 ASP623  PHE694  ASN695  SER759  ASP760  ASP761  ALA762  ILE779  LEU786  VAL792 
 PHE793  MET794  SER795  GLU796  ALA797  LYS798  CYS799  TRP800  GLU811  SER814 

> <Gold.Protein.RotatedAtoms>
  151.3755  135.0930  159.9478 H   0  0  0  0  0  0  0  0  0  0  0  0  # atno 6907 bound_to 6896
  152.5123  133.9123  159.7504 H   0  0  0  0  0  0  0  0  0  0  0  0  # atno 6908 bound_to 6896
  150.9546  133.6457  159.2794 H   0  0  0  0  0  0  0  0  0  0  0  0  # atno 6909 bound_to 6896
  146.2312  140.2287  142.8339 H   0  0  0  0  0  0  0  0  0  0  0  0  # atno 7974 bound_to 7965
  156.2144  140.1793  156.7621 H   0  0  0  0  0  0  0  0  0  0  0  0  # atno 8008 bound_to 7997
  154.5770  140.0672  156.9078 H   0  0  0  0  0  0  0  0  0  0  0  0  # atno 8009 bound_to 7997
  155.2570  140.3333  155.4279 H   0  0  0  0  0  0  0  0  0  0  0  0  # atno 8010 bound_to 7997
  139.5639  144.1803  152.1281 H   0  0  0  0  0  0  0  0  0  0  0  0  # atno 10167 bound_to 10162
  157.5874  131.1068  150.8067 H   0  0  0  0  0  0  0  0  0  0  0  0  # atno 10718 bound_to 10713
  154.8755  135.3864  154.4074 H   0  0  0  0  0  0  0  0  0  0  0  0  # atno 10763 bound_to 10752
  153.4791  135.7030  153.5953 H   0  0  0  0  0  0  0  0  0  0  0  0  # atno 10764 bound_to 10752
  153.4377  135.3863  155.2176 H   0  0  0  0  0  0  0  0  0  0  0  0  # atno 10765 bound_to 10752
  140.7849  133.8334  155.9325 H   0  0  0  0  0  0  0  0  0  0  0  0  # atno 11005 bound_to 11000
  144.9575  140.8241  143.5534 LP  0  0  0  0  0  0  0  0  0  0  0  0  # atno 17320 bound_to 7965
  145.2254  139.2139  143.5071 LP  0  0  0  0  0  0  0  0  0  0  0  0  # atno 17321 bound_to 7965
  140.1322  144.5278  150.6795 LP  0  0  0  0  0  0  0  0  0  0  0  0  # atno 17342 bound_to 10162
  140.6921  143.2382  151.5103 LP  0  0  0  0  0  0  0  0  0  0  0  0  # atno 17343 bound_to 10162
  156.8498  130.5076  149.5313 LP  0  0  0  0  0  0  0  0  0  0  0  0  # atno 17370 bound_to 10713
  156.0925  130.5906  150.9757 LP  0  0  0  0  0  0  0  0  0  0  0  0  # atno 17371 bound_to 10713
  140.9447  134.1856  157.4772 LP  0  0  0  0  0  0  0  0  0  0  0  0  # atno 17394 bound_to 11000
  139.8738  134.9885  156.5418 LP  0  0  0  0  0  0  0  0  0  0  0  0  # atno 17395 bound_to 11000

$$$$
