AV-unprocessed.smi:2353|AV-procd|sdf|9380|dock3
  -GOLD-   2272013 03D 1   1.00000     0.00000
 Structure written by MMmdl.
 45 47  0  0  0  0  0  0  0  0  1 V2000
  154.7424  140.6210  161.2987 C   0  0  0  0  0  0  0  0  0  0  0  0
  153.7457  141.7225  161.0018 C   0  0  0  0  0  0  0  0  0  0  0  0
  153.4865  142.7239  161.9574 C   0  0  0  0  0  0  0  0  0  0  0  0
  152.5631  143.7453  161.6716 C   0  0  0  0  0  0  0  0  0  0  0  0
  151.8931  143.7720  160.4311 C   0  0  0  0  0  0  0  0  0  0  0  0
  150.9001  144.8814  160.1391 C   0  0  0  0  0  0  0  0  0  0  0  0
  152.1404  142.7706  159.4638 C   0  0  0  0  0  0  0  0  0  0  0  0
  151.4476  142.8534  158.2735 O   0  0  0  0  0  0  0  0  0  0  0  0
  151.8047  141.9754  157.2146 C   0  0  0  0  0  0  0  0  0  0  0  0
  150.5522  141.6917  156.3687 C   0  0  2  0  0  0  0  0  0  0  0  0
  149.5914  141.1064  157.2263 O   0  0  0  0  0  0  0  0  0  0  0  0
  150.8425  140.6913  155.2277 C   0  0  0  0  0  0  0  0  0  0  0  0
  149.6157  140.2671  154.5427 N   0  0  0  0  0  0  0  0  0  0  0  0
  149.3872  138.9040  154.5947 N   0  0  0  0  0  0  0  0  0  0  0  0
  148.3330  138.3833  154.0574 C   0  0  0  0  0  0  0  0  0  0  0  0
  148.1029  136.9516  154.1319 N   0  0  0  0  0  0  0  0  0  0  0  0
  147.0136  136.3311  153.5186 C   0  0  0  0  0  0  0  0  0  0  0  0
  147.1302  134.9900  153.8111 C   0  0  0  0  0  0  0  0  0  0  0  0
  148.2629  134.7668  154.5917 N   0  0  0  0  0  0  0  0  0  0  0  0
  148.7877  135.9755  154.7439 C   0  0  0  0  0  0  0  0  0  0  0  0
  147.3741  139.2417  153.3701 C   0  0  0  0  0  0  0  0  0  0  0  0
  147.6093  140.5708  153.3218 C   0  0  0  0  0  0  0  0  0  0  0  0
  148.7909  141.1713  153.9375 C   0  0  0  0  0  0  0  0  0  0  0  0
  149.0216  142.3800  153.9167 O   0  0  0  0  0  0  0  0  0  0  0  0
  153.0764  141.7471  159.7613 C   0  0  0  0  0  0  0  0  0  0  0  0
  155.0609  140.6428  162.3413 H   0  0  0  0  0  0  0  0  0  0  0  0
  155.6253  140.7327  160.6692 H   0  0  0  0  0  0  0  0  0  0  0  0
  154.2998  139.6446  161.1003 H   0  0  0  0  0  0  0  0  0  0  0  0
  153.9940  142.7142  162.9110 H   0  0  0  0  0  0  0  0  0  0  0  0
  152.3714  144.5096  162.4105 H   0  0  0  0  0  0  0  0  0  0  0  0
  149.8988  144.4687  160.0122 H   0  0  0  0  0  0  0  0  0  0  0  0
  151.1753  145.4045  159.2228 H   0  0  0  0  0  0  0  0  0  0  0  0
  150.8678  145.6119  160.9480 H   0  0  0  0  0  0  0  0  0  0  0  0
  152.5546  142.4740  156.5987 H   0  0  0  0  0  0  0  0  0  0  0  0
  152.2410  141.0468  157.5875 H   0  0  0  0  0  0  0  0  0  0  0  0
  150.1676  142.6292  155.9648 H   0  0  0  0  0  0  0  0  0  0  0  0
  149.9138  140.2648  157.5100 H   0  0  0  0  0  0  0  0  0  0  0  0
  151.5088  141.1479  154.4936 H   0  0  0  0  0  0  0  0  0  0  0  0
  151.3954  139.8290  155.6064 H   0  0  0  0  0  0  0  0  0  0  0  0
  146.2527  136.8332  152.9438 H   0  0  0  0  0  0  0  0  0  0  0  0
  146.4867  134.1720  153.5228 H   0  0  0  0  0  0  0  0  0  0  0  0
  149.6897  136.1514  155.3116 H   0  0  0  0  0  0  0  0  0  0  0  0
  146.4883  138.8571  152.8937 H   0  0  0  0  0  0  0  0  0  0  0  0
  146.9045  141.2119  152.8127 H   0  0  0  0  0  0  0  0  0  0  0  0
  153.3002  140.9671  159.0495 H   0  0  0  0  0  0  0  0  0  0  0  0
  1  2  1  0  0  0  0
  1 26  1  0  0  0  0
  1 27  1  0  0  0  0
  1 28  1  0  0  0  0
  2 25  1  0  0  0  0
  2  3  2  0  0  0  0
  3  4  1  0  0  0  0
  3 29  1  0  0  0  0
  4  5  2  0  0  0  0
  4 30  1  0  0  0  0
  5  6  1  0  0  0  0
  5  7  1  0  0  0  0
  6 31  1  0  0  0  0
  6 32  1  0  0  0  0
  6 33  1  0  0  0  0
  7  8  1  0  0  0  0
  7 25  2  0  0  0  0
  8  9  1  0  0  0  0
  9 10  1  0  0  0  0
  9 34  1  0  0  0  0
  9 35  1  0  0  0  0
 10 11  1  0  0  0  0
 10 12  1  0  0  0  0
 10 36  1  0  0  0  0
 11 37  1  0  0  0  0
 12 13  1  0  0  0  0
 12 38  1  0  0  0  0
 12 39  1  0  0  0  0
 13 23  1  0  0  0  0
 13 14  1  0  0  0  0
 14 15  2  0  0  0  0
 15 16  1  0  0  0  0
 15 21  1  0  0  0  0
 16 20  1  0  0  0  0
 16 17  1  0  0  0  0
 17 18  2  0  0  0  0
 17 40  1  0  0  0  0
 18 19  1  0  0  0  0
 18 41  1  0  0  0  0
 19 20  2  0  0  0  0
 20 42  1  0  0  0  0
 21 22  2  0  0  0  0
 21 43  1  0  0  0  0
 22 23  1  0  0  0  0
 22 44  1  0  0  0  0
 23 24  2  0  0  0  0
 25 45  1  0  0  0  0
M  END
> <s_m_source_file>
AV-unprocessed.smi

> <i_m_source_file_index>
2353

> <i_lp_mmshare_version>
43012

> <i_f3d_flags>
0

> <s_epik_input>
W0NIM11jMVtjSF1bY0hdYyhbQ0gzXSljKFtjSF0xKU9bQ0gyXVtDQEhdKFtPSF0pW0NIMl1uMm5jKFtjSF1bY0hdYzI9TyktbjNbY0hdW2NIXW5bY0hdMw==

> <s_epik_cmdline>
J2VwaWtfcHl0aG9uJywgJy1waCcsICc3LjAnLCAnLXRuJywgJzgnLCAnLW1hJywgJzIwMCcsICctbWV0YWxfYmluZGluZycsICctaW1hZScsICc8aW5maWxlLm1hZT4nLCAnLW9tYWUnLCAnPG91dGZpbGUubWFlPic=

> <r_lp_tautomer_probability>
1

> <r_epik_Ionization_Penalty>
0.03707

> <r_epik_Ionization_Penalty_Charging>
0.0370699

> <r_epik_Ionization_Penalty_Neutral>
1.17174e-07

> <r_epik_State_Penalty>
0.0310055

> <r_epik_Charging_Adjusted_Penalty>
0.0680754

> <i_epik_Tot_Q>
0

> <i_epik_Tot_abs_Q>
0

> <r_epik_Metal_State_Penalty>
0.0291724

> <b_epik_Metal_Only>
0

> <s_lp_Force_Field>
OPLS_2005

> <r_lp_Energy>
36.9493

> <b_lp_Chiralities_Consistent>
1

> <s_lp_Variant>
AV-unprocessed.smi:2353-1

> <Gold.Version>
5.8.1

> <Gold.Id.Protein>
6NUR|6NUR_protein|mol2

> <Gold.PLP.Fitness>
46.1093

> <Gold.PLP.PLP>
-45.3416

> <Gold.PLP.part.hbond>
-1.1041

> <Gold.PLP.part.metal>
0.0000

> <Gold.PLP.part.buried>
-5.5243

> <Gold.PLP.part.nonpolar>
-38.0347

> <Gold.PLP.part.repulsive>
0.4069

> <Gold.PLP.ligand.clash>
0.0000

> <Gold.PLP.ligand.torsion>
0.2903

> <Gold.PLP.Chemscore.Hbond>
0.4320

> <Gold.PLP.Chemscore.CHOScore>
0.0000

> <Gold.PLP.Chemscore.Metal>
0.0000

> <Gold.Chemscore.Hbonds>
donor molecule, donor type, donor heavy atom, donor atom, acceptor molecule, acceptor atom, score
      P1  H  8011  8017       L1    24  0.19

> <Gold.PLP.Chemscore.Internal.Correction>
0.0524

> <Gold.Rescore>
     Score         DG    S(hbond)    S(metal)    S(lipo)     H(rot)  DE(clash)    DE(int)     intcor
     12.92     -14.21       0.56        0.00     115.51       2.60       0.07       1.22       ----

> <Gold.Chemscore.Fitness>
12.9234

> <Gold.Chemscore.DG>
-14.2092

> <Gold.Chemscore.ZeroCoef>
-5.4800

> <Gold.Chemscore.Hbond>
0.5591

> <Gold.Chemscore.Metal>
0.0000

> <Gold.Chemscore.Lipo>
115.5071

> <Gold.Chemscore.Internal_Hbond>
0.0000

> <Gold.Chemscore.DEClash>
0.0653

> <Gold.Chemscore.DEInternal>
1.2205

> <Gold.Chemscore.Rot>
2.5986

> <Gold.Chemscore.Internal.Correction>
   9.000000E+99

> <Gold.Chemscore.Hbonds>
donor molecule, donor type, donor heavy atom, donor atom, acceptor molecule, acceptor atom, score
      P1  H  8011  8017       L1    24  0.04
      P1  H  8022  8030       L1    24  0.06

> <Gold.Chemscore.Hbond.Weighted>
-1.8672

> <Gold.Chemscore.Metal.Weighted>
-0.0000

> <Gold.Chemscore.Lipo.Weighted>
-13.5143

> <Gold.Chemscore.Internal_Hbond.Weighted>
0.0000

> <Gold.Chemscore.DEClash.Weighted>
0.0653

> <Gold.Chemscore.DEInternal.Weighted>
1.2205

> <Gold.Chemscore.Rot.Weighted>
6.6524

> <Gold.Chemscore.Internal.Correction.Weighted>
   9.000000E+99

> <Gold.Protein.RotatedTorsions>
[ 6907 6896 6895 6894 ] final -119.47 input  -60.11 | X-H torsion
[ 7974 7965 7964 7962 ] final  -50.17 input  175.53 | X-H torsion
[ 8008 7997 7996 7995 ] final  134.89 input   59.86 | X-H torsion
[ 10167 10162 10161 10158 ] final  168.28 input  -65.29 | X-H torsion
[ 10718 10713 10712 10709 ] final  -84.87 input   66.30 | X-H torsion
[ 10763 10752 10751 10750 ] final  -32.80 input  -60.55 | X-H torsion
[ 11005 11000 10999 10996 ] final   65.60 input  -57.11 | X-H torsion

> <Gold.Protein.ActiveResidues>
 VAL166  LYS551  ARG553  GLY616  TRP617  ASP618  TYR619  PRO620  LYS621  CYS622 
 ASP623  PHE694  ASN695  SER759  ASP760  ASP761  ALA762  ILE779  LEU786  VAL792 
 PHE793  MET794  SER795  GLU796  ALA797  LYS798  CYS799  TRP800  GLU811  SER814 

> <Gold.Protein.RotatedAtoms>
  150.8308  133.8094  159.3099 H   0  0  0  0  0  0  0  0  0  0  0  0  # atno 6907 bound_to 6896
  151.5824  135.1056  160.0030 H   0  0  0  0  0  0  0  0  0  0  0  0  # atno 6908 bound_to 6896
  152.4388  133.7368  159.6675 H   0  0  0  0  0  0  0  0  0  0  0  0  # atno 6909 bound_to 6896
  145.9327  140.7734  142.9591 H   0  0  0  0  0  0  0  0  0  0  0  0  # atno 7974 bound_to 7965
  156.3001  140.2484  156.3492 H   0  0  0  0  0  0  0  0  0  0  0  0  # atno 8008 bound_to 7997
  154.8982  140.0407  157.1897 H   0  0  0  0  0  0  0  0  0  0  0  0  # atno 8009 bound_to 7997
  154.8528  140.2908  155.5592 H   0  0  0  0  0  0  0  0  0  0  0  0  # atno 8010 bound_to 7997
  139.4964  144.3832  151.9599 H   0  0  0  0  0  0  0  0  0  0  0  0  # atno 10167 bound_to 10162
  156.0002  130.4712  150.4475 H   0  0  0  0  0  0  0  0  0  0  0  0  # atno 10718 bound_to 10713
  153.8197  135.6875  153.4829 H   0  0  0  0  0  0  0  0  0  0  0  0  # atno 10763 bound_to 10752
  153.1577  135.4592  154.9725 H   0  0  0  0  0  0  0  0  0  0  0  0  # atno 10764 bound_to 10752
  154.7933  135.3309  154.7670 H   0  0  0  0  0  0  0  0  0  0  0  0  # atno 10765 bound_to 10752
  139.9884  134.6631  156.0134 H   0  0  0  0  0  0  0  0  0  0  0  0  # atno 11005 bound_to 11000
  144.6767  140.2154  143.7372 LP  0  0  0  0  0  0  0  0  0  0  0  0  # atno 17320 bound_to 7965
  145.8404  139.2127  143.1831 LP  0  0  0  0  0  0  0  0  0  0  0  0  # atno 17321 bound_to 7965
  140.3268  144.3363  150.5996 LP  0  0  0  0  0  0  0  0  0  0  0  0  # atno 17342 bound_to 10162
  140.5677  143.2184  151.7654 LP  0  0  0  0  0  0  0  0  0  0  0  0  # atno 17343 bound_to 10162
  157.2511  131.0546  151.2379 LP  0  0  0  0  0  0  0  0  0  0  0  0  # atno 17370 bound_to 10713
  157.3527  130.7090  149.6451 LP  0  0  0  0  0  0  0  0  0  0  0  0  # atno 17371 bound_to 10713
  141.1545  133.6544  156.4116 LP  0  0  0  0  0  0  0  0  0  0  0  0  # atno 17394 bound_to 11000
  140.4957  134.6534  157.5228 LP  0  0  0  0  0  0  0  0  0  0  0  0  # atno 17395 bound_to 11000

$$$$
