AV-unprocessed.smi:276|AV-procd|sdf|2083|dock6
  -GOLD-   2262021353D 1   1.00000     0.00000
 Structure written by MMmdl.
 57 61  0  0  0  0  0  0  0  0  1 V2000
  149.2747  132.9133  153.6245 C   0  0  0  0  0  0  0  0  0  0  0  0
  149.1604  132.9125  155.0368 O   0  0  0  0  0  0  0  0  0  0  0  0
  150.2420  132.2514  155.6787 C   0  0  1  0  0  0  0  0  0  0  0  0
  151.6066  132.8330  155.2818 C   0  0  0  0  0  0  0  0  0  0  0  0
  151.5169  133.8003  156.4792 C   0  0  1  0  0  0  0  0  0  0  0  0
  150.9761  135.1066  156.0797 N   0  0  0  0  0  0  0  0  0  0  0  0
  151.3766  135.6132  154.7695 C   0  0  0  0  0  0  0  0  0  0  0  0
  150.9936  136.0948  157.0034 C   0  0  0  0  0  0  0  0  0  0  0  0
  150.9219  135.7182  158.3047 N   0  0  0  0  0  0  0  0  0  0  0  0
  150.9328  136.6406  159.2710 C   0  0  0  0  0  0  0  0  0  0  0  0
  150.9967  137.9684  159.1567 N   0  0  0  0  0  0  0  0  0  0  0  0
  151.0507  138.3523  157.8493 C   0  0  0  0  0  0  0  0  0  0  0  0
  151.0545  137.4897  156.7166 C   0  0  0  0  0  0  0  0  0  0  0  0
  151.1221  138.2446  155.5513 N   0  0  0  0  0  0  0  0  0  0  0  0
  151.1680  139.4790  155.9705 C   0  0  0  0  0  0  0  0  0  0  0  0
  151.1042  139.6367  157.3362 N   0  0  0  0  0  0  0  0  0  0  0  0
  151.1280  140.8916  158.0672 C   0  0  0  0  0  0  0  0  0  0  0  0
  152.2220  140.9689  159.1588 C   0  0  1  0  0  0  0  0  0  0  0  0
  153.4312  140.6417  158.5040 O   0  0  0  0  0  0  0  0  0  0  0  0
  152.4194  142.3561  159.8139 C   0  0  1  0  0  0  0  0  0  0  0  0
  152.2750  143.5686  158.8875 C   0  0  0  0  0  0  0  0  0  0  0  0
  151.8027  144.6897  159.8002 C   0  0  0  0  0  0  0  0  0  0  0  0
  151.4071  143.9712  161.0892 C   0  0  0  0  0  0  0  0  0  0  0  0
  151.3605  142.5993  160.7295 O   0  0  0  0  0  0  0  0  0  0  0  0
  150.4899  132.8104  157.0909 C   0  0  0  0  0  0  0  0  0  0  0  0
  150.9461  131.8344  158.1892 C   0  0  0  0  0  0  0  0  0  0  0  0
  149.5028  131.8106  158.6978 C   0  0  0  0  0  0  0  0  0  0  0  0
  149.3177  133.1725  158.0267 C   0  0  0  0  0  0  0  0  0  0  0  0
  148.4220  133.4346  153.1901 H   0  0  0  0  0  0  0  0  0  0  0  0
  149.2827  131.8958  153.2317 H   0  0  0  0  0  0  0  0  0  0  0  0
  150.1813  133.4215  153.2950 H   0  0  0  0  0  0  0  0  0  0  0  0
  150.1777  131.1628  155.6406 H   0  0  0  0  0  0  0  0  0  0  0  0
  152.4120  132.1064  155.4010 H   0  0  0  0  0  0  0  0  0  0  0  0
  151.6435  133.2910  154.2935 H   0  0  0  0  0  0  0  0  0  0  0  0
  152.4571  133.8558  157.0277 H   0  0  0  0  0  0  0  0  0  0  0  0
  151.5835  136.6852  154.7714 H   0  0  0  0  0  0  0  0  0  0  0  0
  150.5798  135.4308  154.0482 H   0  0  0  0  0  0  0  0  0  0  0  0
  152.2751  135.1064  154.4157 H   0  0  0  0  0  0  0  0  0  0  0  0
  150.8817  136.2600  160.2805 H   0  0  0  0  0  0  0  0  0  0  0  0
  151.2320  140.3142  155.2885 H   0  0  0  0  0  0  0  0  0  0  0  0
  151.2802  141.6840  157.3326 H   0  0  0  0  0  0  0  0  0  0  0  0
  150.1435  141.0627  158.5053 H   0  0  0  0  0  0  0  0  0  0  0  0
  152.0394  140.2171  159.9271 H   0  0  0  0  0  0  0  0  0  0  0  0
  153.9996  140.2060  159.1205 H   0  0  0  0  0  0  0  0  0  0  0  0
  153.3754  142.4057  160.3394 H   0  0  0  0  0  0  0  0  0  0  0  0
  153.2051  143.8199  158.3789 H   0  0  0  0  0  0  0  0  0  0  0  0
  151.5130  143.3790  158.1303 H   0  0  0  0  0  0  0  0  0  0  0  0
  152.5896  145.4207  159.9877 H   0  0  0  0  0  0  0  0  0  0  0  0
  150.9548  145.2135  159.3576 H   0  0  0  0  0  0  0  0  0  0  0  0
  152.1658  144.1152  161.8600 H   0  0  0  0  0  0  0  0  0  0  0  0
  150.4493  144.3106  161.4841 H   0  0  0  0  0  0  0  0  0  0  0  0
  151.3212  130.8751  157.8314 H   0  0  0  0  0  0  0  0  0  0  0  0
  151.6346  132.2937  158.9009 H   0  0  0  0  0  0  0  0  0  0  0  0
  148.9029  131.0254  158.2349 H   0  0  0  0  0  0  0  0  0  0  0  0
  149.3992  131.8167  159.7831 H   0  0  0  0  0  0  0  0  0  0  0  0
  149.5327  133.9833  158.7214 H   0  0  0  0  0  0  0  0  0  0  0  0
  148.3548  133.3121  157.5351 H   0  0  0  0  0  0  0  0  0  0  0  0
  1  2  1  0  0  0  0
  1 29  1  0  0  0  0
  1 30  1  0  0  0  0
  1 31  1  0  0  0  0
  2  3  1  0  0  0  0
  3 25  1  0  0  0  0
  3  4  1  0  0  0  0
  3 32  1  0  0  0  0
  4  5  1  0  0  0  0
  4 33  1  0  0  0  0
  4 34  1  0  0  0  0
  5  6  1  0  0  0  0
  5 25  1  0  0  0  0
  5 35  1  0  0  0  0
  6  7  1  0  0  0  0
  6  8  1  0  0  0  0
  7 36  1  0  0  0  0
  7 37  1  0  0  0  0
  7 38  1  0  0  0  0
  8 13  1  0  0  0  0
  8  9  2  0  0  0  0
  9 10  1  0  0  0  0
 10 11  2  0  0  0  0
 10 39  1  0  0  0  0
 11 12  1  0  0  0  0
 12 16  1  0  0  0  0
 12 13  2  0  0  0  0
 13 14  1  0  0  0  0
 14 15  2  0  0  0  0
 15 16  1  0  0  0  0
 15 40  1  0  0  0  0
 16 17  1  0  0  0  0
 17 18  1  0  0  0  0
 17 41  1  0  0  0  0
 17 42  1  0  0  0  0
 18 19  1  0  0  0  0
 18 20  1  0  0  0  0
 18 43  1  0  0  0  0
 19 44  1  0  0  0  0
 20 24  1  0  0  0  0
 20 21  1  0  0  0  0
 20 45  1  0  0  0  0
 21 22  1  0  0  0  0
 21 46  1  0  0  0  0
 21 47  1  0  0  0  0
 22 23  1  0  0  0  0
 22 48  1  0  0  0  0
 22 49  1  0  0  0  0
 23 24  1  0  0  0  0
 23 50  1  0  0  0  0
 23 51  1  0  0  0  0
 25 28  1  0  0  0  0
 25 26  1  0  0  0  0
 26 27  1  0  0  0  0
 26 52  1  0  0  0  0
 26 53  1  0  0  0  0
 27 28  1  0  0  0  0
 27 54  1  0  0  0  0
 27 55  1  0  0  0  0
 28 56  1  0  0  0  0
 28 57  1  0  0  0  0
M  END
> <s_m_source_file>
AV-unprocessed.smi

> <i_m_source_file_index>
276

> <i_lp_mmshare_version>
43012

> <i_f3d_flags>
0

> <s_epik_input>
W0NIMl0xW0NIMl1bQ0gyXUMxMltDQEhdKE9bQ0gzXSlbQ0gyXVtDQEhdMk4oW0NIM10pYyhuW2NIXW4zKWMoYzM0KW5bY0hdbjRbQ0gyXVtDQEhdKFtPSF0pW0NAQEhdNVtDSDJdW0NIMl1bQ0gyXU81

> <s_epik_cmdline>
J2VwaWtfcHl0aG9uJywgJy1waCcsICc3LjAnLCAnLXRuJywgJzgnLCAnLW1hJywgJzIwMCcsICctbWV0YWxfYmluZGluZycsICctaW1hZScsICc8aW5maWxlLm1hZT4nLCAnLW9tYWUnLCAnPG91dGZpbGUubWFlPic=

> <r_lp_tautomer_probability>
1

> <r_epik_Ionization_Penalty>
0.00204117

> <r_epik_Ionization_Penalty_Charging>
0

> <r_epik_Ionization_Penalty_Neutral>
0.00204117

> <r_epik_State_Penalty>
0.00127401

> <r_epik_Charging_Adjusted_Penalty>
0.00127401

> <i_epik_Tot_Q>
0

> <i_epik_Tot_abs_Q>
0

> <r_epik_Metal_State_Penalty>
-0

> <b_epik_Metal_Only>
0

> <s_lp_Force_Field>
OPLS_2005

> <r_lp_Energy>
58.3472

> <b_lp_Chiralities_Consistent>
1

> <s_lp_Variant>
AV-unprocessed.smi:276-14

> <Gold.Version>
5.8.1

> <Gold.Id.Protein>
6NUR|6NUR_protein|mol2

> <Gold.PLP.Fitness>
40.3163

> <Gold.PLP.PLP>
-38.7047

> <Gold.PLP.part.hbond>
-3.7101

> <Gold.PLP.part.metal>
0.0000

> <Gold.PLP.part.buried>
-3.9112

> <Gold.PLP.part.nonpolar>
-31.0716

> <Gold.PLP.part.repulsive>
0.1455

> <Gold.PLP.ligand.clash>
0.9677

> <Gold.PLP.ligand.torsion>
1.7588

> <Gold.PLP.Chemscore.Hbond>
1.6664

> <Gold.PLP.Chemscore.CHOScore>
0.0000

> <Gold.PLP.Chemscore.Metal>
0.0000

> <Gold.Chemscore.Hbonds>
donor molecule, donor type, donor heavy atom, donor atom, acceptor molecule, acceptor atom, score
      P1  H  6896  6909       L1     9  0.13
      P1  H  6933  6945       L1    24  0.11
      P1  H  7997  8008       L1    19  0.25

> <Gold.PLP.Chemscore.Internal.Correction>
1.0976

> <Gold.Rescore>
     Score         DG    S(hbond)    S(metal)    S(lipo)     H(rot)  DE(clash)    DE(int)     intcor
      9.99     -13.03       1.13        0.00      91.61       2.72       0.02       3.02       ----

> <Gold.Chemscore.Fitness>
9.9894

> <Gold.Chemscore.DG>
-13.0294

> <Gold.Chemscore.ZeroCoef>
-5.4800

> <Gold.Chemscore.Hbond>
1.1340

> <Gold.Chemscore.Metal>
0.0000

> <Gold.Chemscore.Lipo>
91.6051

> <Gold.Chemscore.Internal_Hbond>
0.0000

> <Gold.Chemscore.DEClash>
0.0233

> <Gold.Chemscore.DEInternal>
3.0168

> <Gold.Chemscore.Rot>
2.7172

> <Gold.Chemscore.Internal.Correction>
   9.000000E+99

> <Gold.Chemscore.Hbonds>
donor molecule, donor type, donor heavy atom, donor atom, acceptor molecule, acceptor atom, score
      P1  H  6933  6945       L1    24  0.05

> <Gold.Chemscore.Hbond.Weighted>
-3.7876

> <Gold.Chemscore.Metal.Weighted>
-0.0000

> <Gold.Chemscore.Lipo.Weighted>
-10.7178

> <Gold.Chemscore.Internal_Hbond.Weighted>
0.0000

> <Gold.Chemscore.DEClash.Weighted>
0.0233

> <Gold.Chemscore.DEInternal.Weighted>
3.0168

> <Gold.Chemscore.Rot.Weighted>
6.9560

> <Gold.Chemscore.Internal.Correction.Weighted>
   9.000000E+99

> <Gold.Protein.RotatedTorsions>
[ 6907 6896 6895 6894 ] final   47.85 input  -60.11 | X-H torsion
[ 7974 7965 7964 7962 ] final -117.95 input  175.53 | X-H torsion
[ 8008 7997 7996 7995 ] final  -93.07 input   59.86 | X-H torsion
[ 10167 10162 10161 10158 ] final -120.66 input  -65.29 | X-H torsion
[ 10718 10713 10712 10709 ] final  122.79 input   66.30 | X-H torsion
[ 10763 10752 10751 10750 ] final  -70.79 input  -60.55 | X-H torsion
[ 11005 11000 10999 10996 ] final  164.93 input  -57.11 | X-H torsion

> <Gold.Protein.ActiveResidues>
 VAL166  LYS551  ARG553  GLY616  TRP617  ASP618  TYR619  PRO620  LYS621  CYS622 
 ASP623  PHE694  ASN695  SER759  ASP760  ASP761  ALA762  ILE779  LEU786  VAL792 
 PHE793  MET794  SER795  GLU796  ALA797  LYS798  CYS799  TRP800  GLU811  SER814 

> <Gold.Protein.RotatedAtoms>
  152.2728  134.7914  160.0410 H   0  0  0  0  0  0  0  0  0  0  0  0  # atno 6907 bound_to 6896
  151.8520  133.3436  159.3684 H   0  0  0  0  0  0  0  0  0  0  0  0  # atno 6908 bound_to 6896
  150.7158  134.5217  159.5701 H   0  0  0  0  0  0  0  0  0  0  0  0  # atno 6909 bound_to 6896
  145.0793  140.8415  143.4048 H   0  0  0  0  0  0  0  0  0  0  0  0  # atno 7974 bound_to 7965
  154.7311  140.0502  157.0727 H   0  0  0  0  0  0  0  0  0  0  0  0  # atno 8008 bound_to 7997
  155.0301  140.3157  155.4742 H   0  0  0  0  0  0  0  0  0  0  0  0  # atno 8009 bound_to 7997
  156.2841  140.2151  156.5422 H   0  0  0  0  0  0  0  0  0  0  0  0  # atno 8010 bound_to 7997
  140.0334  143.5225  152.2165 H   0  0  0  0  0  0  0  0  0  0  0  0  # atno 10167 bound_to 10162
  157.5715  131.1083  150.8358 H   0  0  0  0  0  0  0  0  0  0  0  0  # atno 10718 bound_to 10713
  154.4226  135.5983  153.6019 H   0  0  0  0  0  0  0  0  0  0  0  0  # atno 10763 bound_to 10752
  152.9794  135.5956  154.3936 H   0  0  0  0  0  0  0  0  0  0  0  0  # atno 10764 bound_to 10752
  154.3764  135.2841  155.2215 H   0  0  0  0  0  0  0  0  0  0  0  0  # atno 10765 bound_to 10752
  140.2510  134.7977  157.3501 H   0  0  0  0  0  0  0  0  0  0  0  0  # atno 11005 bound_to 11000
  145.1197  139.2702  143.5595 LP  0  0  0  0  0  0  0  0  0  0  0  0  # atno 17320 bound_to 7965
  146.3530  140.0817  142.8617 LP  0  0  0  0  0  0  0  0  0  0  0  0  # atno 17321 bound_to 7965
  139.6061  144.7596  151.3059 LP  0  0  0  0  0  0  0  0  0  0  0  0  # atno 17342 bound_to 10162
  140.7292  143.6914  150.7919 LP  0  0  0  0  0  0  0  0  0  0  0  0  # atno 17343 bound_to 10162
  156.8828  130.5185  149.5290 LP  0  0  0  0  0  0  0  0  0  0  0  0  # atno 17370 bound_to 10713
  156.0761  130.5782  150.9475 LP  0  0  0  0  0  0  0  0  0  0  0  0  # atno 17371 bound_to 10713
  140.1558  134.4791  155.7929 LP  0  0  0  0  0  0  0  0  0  0  0  0  # atno 17394 bound_to 11000
  141.2201  133.6881  156.7459 LP  0  0  0  0  0  0  0  0  0  0  0  0  # atno 17395 bound_to 11000

$$$$
