AV-unprocessed.smi:598|AV-procd|sdf|3023|dock3
  -GOLD-   2262023533D 1   1.00000     0.00000
 Structure written by MMmdl.
 43 44  0  0  0  0  0  0  0  0  3 V2000
  153.1021  142.7312  162.8439 C   0  0  0  0  0  0  0  0  0  0  0  0
  153.0200  143.3004  161.4153 C   0  0  2  0  0  0  0  0  0  0  0  0
  152.0938  144.5328  161.4046 C   0  0  0  0  0  0  0  0  0  0  0  0
  152.0021  145.1640  160.0116 C   0  0  0  0  0  0  0  0  0  0  0  0
  151.5122  144.1370  158.9870 C   0  0  0  0  0  0  0  0  0  0  0  0
  152.4221  142.8934  158.9573 C   0  0  2  0  0  0  0  0  0  0  0  0
  151.8847  141.9273  158.0001 N   0  0  0  0  0  0  0  0  0  0  0  0
  150.6242  141.4681  157.9814 C   0  0  0  0  0  0  0  0  0  0  0  0
  149.7612  141.8297  158.7824 O   0  0  0  0  0  0  0  0  0  0  0  0
  150.2942  140.4577  156.8736 C   0  0  0  0  0  0  0  0  0  0  0  0
  149.2427  140.9270  155.9557 N   0  0  0  0  0  0  0  0  0  0  0  0
  148.1154  141.5437  156.5340 C   0  0  0  0  0  0  0  0  0  0  0  0
  147.0907  142.0042  155.7898 C   0  0  0  0  0  0  0  0  0  0  0  0
  145.9382  142.6292  156.4008 N   0  3  0  0  0  0  0  0  0  0  0  0
  145.9216  142.7688  157.6196 O   0  0  0  0  0  0  0  0  0  0  0  0
  145.0122  142.9995  155.6851 O   0  5  0  0  0  0  0  0  0  0  0  0
  147.1791  141.8482  154.3508 C   0  0  0  0  0  0  0  0  0  0  0  0
  148.2527  141.2556  153.7920 C   0  0  0  0  0  0  0  0  0  0  0  0
  149.3645  140.7510  154.6042 C   0  0  0  0  0  0  0  0  0  0  0  0
  150.3454  140.2036  154.1003 O   0  0  0  0  0  0  0  0  0  0  0  0
  152.5669  142.2484  160.3627 C   0  0  1  0  0  0  0  0  0  0  0  0
  153.5166  141.0308  160.3184 C   0  0  0  0  0  0  0  0  0  0  0  0
  152.1550  142.2850  163.1491 H   0  0  0  0  0  0  0  0  0  0  0  0
  153.3454  143.5139  163.5631 H   0  0  0  0  0  0  0  0  0  0  0  0
  153.8781  141.9720  162.9353 H   0  0  0  0  0  0  0  0  0  0  0  0
  154.0203  143.6409  161.1423 H   0  0  0  0  0  0  0  0  0  0  0  0
  151.0960  144.2478  161.7414 H   0  0  0  0  0  0  0  0  0  0  0  0
  152.4558  145.2789  162.1131 H   0  0  0  0  0  0  0  0  0  0  0  0
  151.3259  146.0188  160.0340 H   0  0  0  0  0  0  0  0  0  0  0  0
  152.9784  145.5475  159.7136 H   0  0  0  0  0  0  0  0  0  0  0  0
  150.4899  143.8428  159.2293 H   0  0  0  0  0  0  0  0  0  0  0  0
  151.4736  144.6008  158.0005 H   0  0  0  0  0  0  0  0  0  0  0  0
  153.4166  143.2019  158.6281 H   0  0  0  0  0  0  0  0  0  0  0  0
  152.5247  141.5796  157.3008 H   0  0  0  0  0  0  0  0  0  0  0  0
  151.2133  140.2424  156.3269 H   0  0  0  0  0  0  0  0  0  0  0  0
  150.0026  139.5067  157.3236 H   0  0  0  0  0  0  0  0  0  0  0  0
  148.1418  141.6048  157.6124 H   0  0  0  0  0  0  0  0  0  0  0  0
  146.3852  142.2042  153.7110 H   0  0  0  0  0  0  0  0  0  0  0  0
  148.2970  141.1490  152.7180 H   0  0  0  0  0  0  0  0  0  0  0  0
  151.5826  141.8842  160.6622 H   0  0  0  0  0  0  0  0  0  0  0  0
  154.5358  141.3348  160.0784 H   0  0  0  0  0  0  0  0  0  0  0  0
  153.2077  140.2993  159.5720 H   0  0  0  0  0  0  0  0  0  0  0  0
  153.5404  140.5006  161.2694 H   0  0  0  0  0  0  0  0  0  0  0  0
  1  2  1  0  0  0  0
  1 23  1  0  0  0  0
  1 24  1  0  0  0  0
  1 25  1  0  0  0  0
  2 21  1  0  0  0  0
  2  3  1  0  0  0  0
  2 26  1  0  0  0  0
  3  4  1  0  0  0  0
  3 27  1  0  0  0  0
  3 28  1  0  0  0  0
  4  5  1  0  0  0  0
  4 29  1  0  0  0  0
  4 30  1  0  0  0  0
  5  6  1  0  0  0  0
  5 31  1  0  0  0  0
  5 32  1  0  0  0  0
  6  7  1  0  0  0  0
  6 21  1  0  0  0  0
  6 33  1  0  0  0  0
  7  8  1  0  0  0  0
  7 34  1  0  0  0  0
  8  9  2  0  0  0  0
  8 10  1  0  0  0  0
 10 11  1  0  0  0  0
 10 35  1  0  0  0  0
 10 36  1  0  0  0  0
 11 19  1  0  0  0  0
 11 12  1  0  0  0  0
 12 13  2  0  0  0  0
 12 37  1  0  0  0  0
 13 14  1  0  0  0  0
 13 17  1  0  0  0  0
 14 15  2  0  0  0  0
 14 16  1  0  0  0  0
 17 18  2  0  0  0  0
 17 38  1  0  0  0  0
 18 19  1  0  0  0  0
 18 39  1  0  0  0  0
 19 20  2  0  0  0  0
 21 22  1  0  0  0  0
 21 40  1  0  0  0  0
 22 41  1  0  0  0  0
 22 42  1  0  0  0  0
 22 43  1  0  0  0  0
M  CHG  1  14   1
M  CHG  1  16  -1
M  END
> <s_m_source_file>
AV-unprocessed.smi

> <i_m_source_file_index>
598

> <i_lp_mmshare_version>
43012

> <i_f3d_flags>
0

> <s_epik_input>
W0NIM11bQ0BASF0xW0NIMl1bQ0gyXVtDSDJdW0NASF0oW0NASF0xW0NIM10pW05IXUMoPU8pW0NIMl1uMltjSF1jKFtOK10oPU8pW08tXSlbY0hdW2NIXWMyPU8=

> <s_epik_cmdline>
J2VwaWtfcHl0aG9uJywgJy1waCcsICc3LjAnLCAnLXRuJywgJzgnLCAnLW1hJywgJzIwMCcsICctbWV0YWxfYmluZGluZycsICctaW1hZScsICc8aW5maWxlLm1hZT4nLCAnLW9tYWUnLCAnPG91dGZpbGUubWFlPic=

> <r_lp_tautomer_probability>
1

> <r_epik_Ionization_Penalty>
1.91291e-08

> <r_epik_Ionization_Penalty_Charging>
8.21931e-11

> <r_epik_Ionization_Penalty_Neutral>
1.90469e-08

> <r_epik_State_Penalty>
-0

> <r_epik_Charging_Adjusted_Penalty>
8.21931e-11

> <i_epik_Tot_Q>
0

> <i_epik_Tot_abs_Q>
2

> <r_epik_Metal_State_Penalty>
-0

> <b_epik_Metal_Only>
0

> <s_lp_Force_Field>
OPLS_2005

> <r_lp_Energy>
24.1223

> <b_lp_Chiralities_Consistent>
1

> <s_lp_Variant>
AV-unprocessed.smi:598-3

> <Gold.Version>
5.8.1

> <Gold.Id.Protein>
6NUR|6NUR_protein|mol2

> <Gold.PLP.Fitness>
48.7305

> <Gold.PLP.PLP>
-46.3306

> <Gold.PLP.part.hbond>
-1.8483

> <Gold.PLP.part.metal>
0.0000

> <Gold.PLP.part.buried>
-4.2587

> <Gold.PLP.part.nonpolar>
-40.6192

> <Gold.PLP.part.repulsive>
1.1491

> <Gold.PLP.ligand.clash>
0.0000

> <Gold.PLP.ligand.torsion>
0.3051

> <Gold.PLP.Chemscore.Hbond>
1.0000

> <Gold.PLP.Chemscore.CHOScore>
0.0000

> <Gold.PLP.Chemscore.Metal>
0.0000

> <Gold.Chemscore.Hbonds>
donor molecule, donor type, donor heavy atom, donor atom, acceptor molecule, acceptor atom, score
      P1  H  7989  7998       L1    20  1.00

> <Gold.PLP.Chemscore.Internal.Correction>
0.0101

> <Gold.Rescore>
     Score         DG    S(hbond)    S(metal)    S(lipo)     H(rot)  DE(clash)    DE(int)     intcor
     15.42     -18.61       0.94        0.00     119.07       1.54       0.60       2.58       ----

> <Gold.Chemscore.Fitness>
15.4245

> <Gold.Chemscore.DG>
-18.6061

> <Gold.Chemscore.ZeroCoef>
-5.4800

> <Gold.Chemscore.Hbond>
0.9389

> <Gold.Chemscore.Metal>
0.0000

> <Gold.Chemscore.Lipo>
119.0679

> <Gold.Chemscore.Internal_Hbond>
0.0000

> <Gold.Chemscore.DEClash>
0.6021

> <Gold.Chemscore.DEInternal>
2.5796

> <Gold.Chemscore.Rot>
1.5393

> <Gold.Chemscore.Internal.Correction>
   9.000000E+99

> <Gold.Chemscore.Hbonds>
donor molecule, donor type, donor heavy atom, donor atom, acceptor molecule, acceptor atom, score
      P1  H  7989  7998       L1    20  0.91

> <Gold.Chemscore.Hbond.Weighted>
-3.1359

> <Gold.Chemscore.Metal.Weighted>
-0.0000

> <Gold.Chemscore.Lipo.Weighted>
-13.9309

> <Gold.Chemscore.Internal_Hbond.Weighted>
0.0000

> <Gold.Chemscore.DEClash.Weighted>
0.6021

> <Gold.Chemscore.DEInternal.Weighted>
2.5796

> <Gold.Chemscore.Rot.Weighted>
3.9407

> <Gold.Chemscore.Internal.Correction.Weighted>
   9.000000E+99

> <Gold.Protein.RotatedTorsions>
[ 6907 6896 6895 6894 ] final -149.90 input  -60.11 | X-H torsion
[ 7974 7965 7964 7962 ] final  108.10 input  175.53 | X-H torsion
[ 8008 7997 7996 7995 ] final -168.18 input   59.86 | X-H torsion
[ 10167 10162 10161 10158 ] final   83.71 input  -65.29 | X-H torsion
[ 10718 10713 10712 10709 ] final    9.69 input   66.30 | X-H torsion
[ 10763 10752 10751 10750 ] final -110.89 input  -60.55 | X-H torsion
[ 11005 11000 10999 10996 ] final -165.99 input  -57.11 | X-H torsion

> <Gold.Protein.ActiveResidues>
 VAL166  LYS551  ARG553  GLY616  TRP617  ASP618  TYR619  PRO620  LYS621  CYS622 
 ASP623  PHE694  ASN695  SER759  ASP760  ASP761  ALA762  ILE779  LEU786  VAL792 
 PHE793  MET794  SER795  GLU796  ALA797  LYS798  CYS799  TRP800  GLU811  SER814 

> <Gold.Protein.RotatedAtoms>
  151.1908  133.4668  159.2594 H   0  0  0  0  0  0  0  0  0  0  0  0  # atno 6907 bound_to 6896
  151.1165  135.0056  159.8528 H   0  0  0  0  0  0  0  0  0  0  0  0  # atno 6908 bound_to 6896
  152.5453  134.1823  159.8693 H   0  0  0  0  0  0  0  0  0  0  0  0  # atno 6909 bound_to 6896
  145.2850  139.2619  143.3895 H   0  0  0  0  0  0  0  0  0  0  0  0  # atno 7974 bound_to 7965
  155.8879  140.1020  157.1439 H   0  0  0  0  0  0  0  0  0  0  0  0  # atno 8008 bound_to 7997
  154.4012  140.1316  156.4343 H   0  0  0  0  0  0  0  0  0  0  0  0  # atno 8009 bound_to 7997
  155.7567  140.3464  155.5180 H   0  0  0  0  0  0  0  0  0  0  0  0  # atno 8010 bound_to 7997
  139.9155  144.6245  150.8493 H   0  0  0  0  0  0  0  0  0  0  0  0  # atno 10167 bound_to 10162
  156.9700  130.5965  149.5668 H   0  0  0  0  0  0  0  0  0  0  0  0  # atno 10718 bound_to 10713
  154.8272  135.4547  154.0955 H   0  0  0  0  0  0  0  0  0  0  0  0  # atno 10763 bound_to 10752
  153.2259  135.6899  153.7952 H   0  0  0  0  0  0  0  0  0  0  0  0  # atno 10764 bound_to 10752
  153.7352  135.3321  155.3270 H   0  0  0  0  0  0  0  0  0  0  0  0  # atno 10765 bound_to 10752
  140.5695  134.5252  157.5159 H   0  0  0  0  0  0  0  0  0  0  0  0  # atno 11005 bound_to 11000
  146.3204  140.3327  142.8641 LP  0  0  0  0  0  0  0  0  0  0  0  0  # atno 17320 bound_to 7965
  144.9221  140.7879  143.5742 LP  0  0  0  0  0  0  0  0  0  0  0  0  # atno 17321 bound_to 7965
  140.7675  143.3334  151.2361 LP  0  0  0  0  0  0  0  0  0  0  0  0  # atno 17342 bound_to 10162
  139.6905  143.9699  152.2857 LP  0  0  0  0  0  0  0  0  0  0  0  0  # atno 17343 bound_to 10162
  156.0287  130.5379  150.8476 LP  0  0  0  0  0  0  0  0  0  0  0  0  # atno 17370 bound_to 10713
  157.5599  131.0945  150.9574 LP  0  0  0  0  0  0  0  0  0  0  0  0  # atno 17371 bound_to 10713
  139.9368  134.7860  156.0781 LP  0  0  0  0  0  0  0  0  0  0  0  0  # atno 17394 bound_to 11000
  141.1065  133.6658  156.2875 LP  0  0  0  0  0  0  0  0  0  0  0  0  # atno 17395 bound_to 11000

$$$$
