AV-unprocessed.smi:3049|AV-procd|sdf|11630|dock6
  -GOLD-   2272017 23D 1   1.00000     0.00000
 Structure written by MMmdl.
 52 53  0  0  0  0  0  0  0  0  2 V2000
  151.0099  142.9150  157.4996 C   0  0  0  0  0  0  0  0  0  0  0  0
  150.8125  141.9719  156.3013 C   0  0  0  0  0  0  0  0  0  0  0  0
  150.4488  140.5172  156.6933 C   0  0  0  0  0  0  0  0  0  0  0  0
  150.9706  139.4948  155.6580 C   0  0  0  0  0  0  0  0  0  0  0  0
  152.4728  139.6171  155.3662 C   0  0  0  0  0  0  0  0  0  0  0  0
  148.9243  140.3282  156.8781 C   0  0  0  0  0  0  0  0  0  0  0  0
  148.5115  139.9983  157.9913 O   0  0  0  0  0  0  0  0  0  0  0  0
  148.0841  140.4929  155.8253 N   0  0  0  0  0  0  0  0  0  0  0  0
  148.4503  140.9614  154.4837 C   0  0  0  0  0  0  0  0  0  0  0  0
  148.4100  139.7600  153.5237 C   0  0  0  0  0  0  0  0  0  0  0  0
  147.0147  139.0960  153.5310 C   0  0  0  0  0  0  0  0  0  0  0  0
  147.0603  137.8497  152.7727 N   0  0  0  0  0  0  0  0  0  0  0  0
  146.0211  137.0269  152.5715 C   0  0  0  0  0  0  0  0  0  0  0  0
  144.8910  137.2497  153.0049 O   0  0  0  0  0  0  0  0  0  0  0  0
  146.3970  135.9461  151.8641 N   0  0  0  0  0  0  0  0  0  0  0  0
  145.6126  134.8756  151.4134 C   0  0  0  0  0  0  0  0  0  0  0  0
  144.2695  134.6439  151.6776 C   0  0  0  0  0  0  0  0  0  0  0  0
  143.4914  133.6311  151.2353 N   0  5  0  0  0  0  0  0  0  0  0  0
  144.0504  132.6924  150.4189 C   0  0  0  0  0  0  0  0  0  0  0  0
  143.3998  131.7444  149.9807 O   0  0  0  0  0  0  0  0  0  0  0  0
  145.4750  132.8244  150.0552 C   0  0  0  0  0  0  0  0  0  0  0  0
  146.0983  131.7784  149.1467 C   0  0  0  0  0  0  0  0  0  0  0  0
  146.1929  133.8679  150.5386 C   0  0  0  0  0  0  0  0  0  0  0  0
  146.5122  138.8341  154.9716 C   0  0  0  0  0  0  0  0  0  0  0  0
  146.6773  140.0767  155.8661 C   0  0  0  0  0  0  0  0  0  0  0  0
  151.3189  143.9047  157.1634 H   0  0  0  0  0  0  0  0  0  0  0  0
  151.7809  142.5385  158.1724 H   0  0  0  0  0  0  0  0  0  0  0  0
  150.0930  143.0379  158.0763 H   0  0  0  0  0  0  0  0  0  0  0  0
  150.0571  142.3864  155.6324 H   0  0  0  0  0  0  0  0  0  0  0  0
  151.7390  141.9714  155.7280 H   0  0  0  0  0  0  0  0  0  0  0  0
  150.9507  140.3437  157.6434 H   0  0  0  0  0  0  0  0  0  0  0  0
  150.7849  138.4794  156.0124 H   0  0  0  0  0  0  0  0  0  0  0  0
  150.4110  139.5915  154.7266 H   0  0  0  0  0  0  0  0  0  0  0  0
  152.7949  138.8357  154.6778 H   0  0  0  0  0  0  0  0  0  0  0  0
  153.0609  139.5157  156.2787 H   0  0  0  0  0  0  0  0  0  0  0  0
  152.7210  140.5751  154.9103 H   0  0  0  0  0  0  0  0  0  0  0  0
  147.7295  141.7132  154.1583 H   0  0  0  0  0  0  0  0  0  0  0  0
  149.4120  141.4694  154.4406 H   0  0  0  0  0  0  0  0  0  0  0  0
  148.6667  140.0804  152.5134 H   0  0  0  0  0  0  0  0  0  0  0  0
  149.1706  139.0367  153.8228 H   0  0  0  0  0  0  0  0  0  0  0  0
  146.3214  139.7866  153.0469 H   0  0  0  0  0  0  0  0  0  0  0  0
  147.9534  137.5864  152.3832 H   0  0  0  0  0  0  0  0  0  0  0  0
  147.3761  135.8820  151.6278 H   0  0  0  0  0  0  0  0  0  0  0  0
  143.7199  135.3755  152.3024 H   0  0  0  0  0  0  0  0  0  0  0  0
  147.1478  131.9982  148.9493 H   0  0  0  0  0  0  0  0  0  0  0  0
  145.5756  131.7432  148.1906 H   0  0  0  0  0  0  0  0  0  0  0  0
  146.0415  130.7919  149.6077 H   0  0  0  0  0  0  0  0  0  0  0  0
  147.2353  133.9561  150.2690 H   0  0  0  0  0  0  0  0  0  0  0  0
  145.4662  138.5259  154.9554 H   0  0  0  0  0  0  0  0  0  0  0  0
  147.0702  138.0053  155.4105 H   0  0  0  0  0  0  0  0  0  0  0  0
  146.3266  139.8542  156.8747 H   0  0  0  0  0  0  0  0  0  0  0  0
  146.0426  140.8874  155.5055 H   0  0  0  0  0  0  0  0  0  0  0  0
  1  2  1  0  0  0  0
  1 26  1  0  0  0  0
  1 27  1  0  0  0  0
  1 28  1  0  0  0  0
  2  3  1  0  0  0  0
  2 29  1  0  0  0  0
  2 30  1  0  0  0  0
  3  4  1  0  0  0  0
  3  6  1  0  0  0  0
  3 31  1  0  0  0  0
  4  5  1  0  0  0  0
  4 32  1  0  0  0  0
  4 33  1  0  0  0  0
  5 34  1  0  0  0  0
  5 35  1  0  0  0  0
  5 36  1  0  0  0  0
  6  7  2  0  0  0  0
  6  8  1  0  0  0  0
  8 25  1  0  0  0  0
  8  9  1  0  0  0  0
  9 10  1  0  0  0  0
  9 37  1  0  0  0  0
  9 38  1  0  0  0  0
 10 11  1  0  0  0  0
 10 39  1  0  0  0  0
 10 40  1  0  0  0  0
 11 12  1  0  0  0  0
 11 24  1  0  0  0  0
 11 41  1  0  0  0  0
 12 13  1  0  0  0  0
 12 42  1  0  0  0  0
 13 14  2  0  0  0  0
 13 15  1  0  0  0  0
 15 16  1  0  0  0  0
 15 43  1  0  0  0  0
 16 23  1  0  0  0  0
 16 17  2  0  0  0  0
 17 18  1  0  0  0  0
 17 44  1  0  0  0  0
 18 19  1  0  0  0  0
 19 20  2  0  0  0  0
 19 21  1  0  0  0  0
 21 22  1  0  0  0  0
 21 23  2  0  0  0  0
 22 45  1  0  0  0  0
 22 46  1  0  0  0  0
 22 47  1  0  0  0  0
 23 48  1  0  0  0  0
 24 25  1  0  0  0  0
 24 49  1  0  0  0  0
 24 50  1  0  0  0  0
 25 51  1  0  0  0  0
 25 52  1  0  0  0  0
M  CHG  1  18  -1
M  END
> <s_m_source_file>
AV-unprocessed.smi

> <i_m_source_file_index>
3049

> <i_lp_mmshare_version>
43012

> <i_f3d_flags>
0

> <s_epik_input>
W0NIM11bQ0gyXVtDSF0oW0NIMl1bQ0gzXSlDKD1PKU4xW0NIMl1bQ0gyXVtDSF0oW0NIMl1bQ0gyXTEpW05IXUMoPU8pW05IXWMyW2NIXVtuSF1jKD1PKWMoW0NIM10pW2NIXTI=

> <s_epik_cmdline>
J2VwaWtfcHl0aG9uJywgJy1waCcsICc3LjAnLCAnLXRuJywgJzgnLCAnLW1hJywgJzIwMCcsICctbWV0YWxfYmluZGluZycsICctaW1hZScsICc8aW5maWxlLm1hZT4nLCAnLW9tYWUnLCAnPG91dGZpbGUubWFlPic=

> <r_lp_tautomer_probability>
1

> <r_epik_Ionization_Penalty>
7.58311

> <r_epik_Ionization_Penalty_Charging>
1.51652

> <r_epik_Ionization_Penalty_Neutral>
6.06659

> <r_epik_State_Penalty>
6.06654

> <r_epik_Charging_Adjusted_Penalty>
7.58305

> <i_epik_Tot_Q>
-1

> <i_epik_Tot_abs_Q>
1

> <r_epik_Metal_State_Penalty>
2.01464

> <b_epik_Metal_Only>
1

> <s_lp_Force_Field>
OPLS_2005

> <r_lp_Energy>
39.554

> <b_lp_Chiralities_Consistent>
1

> <s_lp_Variant>
AV-unprocessed.smi:3049-2

> <Gold.Version>
5.8.1

> <Gold.Id.Protein>
6NUR|6NUR_protein|mol2

> <Gold.PLP.Fitness>
43.7612

> <Gold.PLP.PLP>
-35.7021

> <Gold.PLP.part.hbond>
-3.5552

> <Gold.PLP.part.metal>
0.0000

> <Gold.PLP.part.buried>
0.6841

> <Gold.PLP.part.nonpolar>
-33.8371

> <Gold.PLP.part.repulsive>
2.1490

> <Gold.PLP.ligand.clash>
0.0000

> <Gold.PLP.ligand.torsion>
0.4194

> <Gold.PLP.Chemscore.Hbond>
2.9193

> <Gold.PLP.Chemscore.CHOScore>
0.0000

> <Gold.PLP.Chemscore.Metal>
0.0000

> <Gold.Chemscore.Hbonds>
donor molecule, donor type, donor heavy atom, donor atom, acceptor molecule, acceptor atom, score
      L1  H    12    42       P1  7948  0.91
      L1  H    15    43       P1  7948  1.00
      P1  H 10785 10796       L1    20  0.99

> <Gold.PLP.Chemscore.Internal.Correction>
0.1401

> <Gold.Rescore>
     Score         DG    S(hbond)    S(metal)    S(lipo)     H(rot)  DE(clash)    DE(int)     intcor
     17.25     -22.16       2.76        0.00      97.39       1.54       2.27       2.64       ----

> <Gold.Chemscore.Fitness>
17.2511

> <Gold.Chemscore.DG>
-22.1625

> <Gold.Chemscore.ZeroCoef>
-5.4800

> <Gold.Chemscore.Hbond>
2.7610

> <Gold.Chemscore.Metal>
0.0000

> <Gold.Chemscore.Lipo>
97.3924

> <Gold.Chemscore.Internal_Hbond>
0.0000

> <Gold.Chemscore.DEClash>
2.2684

> <Gold.Chemscore.DEInternal>
2.6430

> <Gold.Chemscore.Rot>
1.5367

> <Gold.Chemscore.Internal.Correction>
   9.000000E+99

> <Gold.Chemscore.Hbonds>
donor molecule, donor type, donor heavy atom, donor atom, acceptor molecule, acceptor atom, score
      L1  H    12    42       P1  7948  0.90
      L1  H    15    43       P1  7948  0.96
      P1  H 10785 10796       L1    20  0.90

> <Gold.Chemscore.Hbond.Weighted>
-9.2216

> <Gold.Chemscore.Metal.Weighted>
-0.0000

> <Gold.Chemscore.Lipo.Weighted>
-11.3949

> <Gold.Chemscore.Internal_Hbond.Weighted>
0.0000

> <Gold.Chemscore.DEClash.Weighted>
2.2684

> <Gold.Chemscore.DEInternal.Weighted>
2.6430

> <Gold.Chemscore.Rot.Weighted>
3.9340

> <Gold.Chemscore.Internal.Correction.Weighted>
   9.000000E+99

> <Gold.Protein.RotatedTorsions>
[ 6907 6896 6895 6894 ] final -145.07 input  -60.11 | X-H torsion
[ 7974 7965 7964 7962 ] final  127.13 input  175.53 | X-H torsion
[ 8008 7997 7996 7995 ] final  149.52 input   59.86 | X-H torsion
[ 10167 10162 10161 10158 ] final  -74.80 input  -65.29 | X-H torsion
[ 10718 10713 10712 10709 ] final  -46.77 input   66.30 | X-H torsion
[ 10763 10752 10751 10750 ] final -128.31 input  -60.55 | X-H torsion
[ 11005 11000 10999 10996 ] final -169.23 input  -57.11 | X-H torsion

> <Gold.Protein.ActiveResidues>
 VAL166  LYS551  ARG553  GLY616  TRP617  ASP618  TYR619  PRO620  LYS621  CYS622 
 ASP623  PHE694  ASN695  SER759  ASP760  ASP761  ALA762  ILE779  LEU786  VAL792 
 PHE793  MET794  SER795  GLU796  ALA797  LYS798  CYS799  TRP800  GLU811  SER814 

> <Gold.Protein.RotatedAtoms>
  151.1227  133.5092  159.2601 H   0  0  0  0  0  0  0  0  0  0  0  0  # atno 6907 bound_to 6896
  151.1844  135.0374  159.8816 H   0  0  0  0  0  0  0  0  0  0  0  0  # atno 6908 bound_to 6896
  152.5456  134.1075  159.8397 H   0  0  0  0  0  0  0  0  0  0  0  0  # atno 6909 bound_to 6896
  145.0539  139.3860  143.5040 H   0  0  0  0  0  0  0  0  0  0  0  0  # atno 7974 bound_to 7965
  156.2751  140.2099  156.5871 H   0  0  0  0  0  0  0  0  0  0  0  0  # atno 8008 bound_to 7997
  154.7012  140.0521  157.0483 H   0  0  0  0  0  0  0  0  0  0  0  0  # atno 8009 bound_to 7997
  155.0732  140.3179  155.4627 H   0  0  0  0  0  0  0  0  0  0  0  0  # atno 8010 bound_to 7997
  140.4997  143.2363  151.7773 H   0  0  0  0  0  0  0  0  0  0  0  0  # atno 10167 bound_to 10162
  156.2150  130.4163  149.9066 H   0  0  0  0  0  0  0  0  0  0  0  0  # atno 10718 bound_to 10713
  154.8756  135.3933  154.3736 H   0  0  0  0  0  0  0  0  0  0  0  0  # atno 10763 bound_to 10752
  153.4492  135.7028  153.6125 H   0  0  0  0  0  0  0  0  0  0  0  0  # atno 10764 bound_to 10752
  153.4672  135.3798  155.2340 H   0  0  0  0  0  0  0  0  0  0  0  0  # atno 10765 bound_to 10752
  140.5331  134.5596  157.5080 H   0  0  0  0  0  0  0  0  0  0  0  0  # atno 11005 bound_to 11000
  146.3520  140.0204  142.8659 LP  0  0  0  0  0  0  0  0  0  0  0  0  # atno 17320 bound_to 7965
  145.1492  140.9614  143.4443 LP  0  0  0  0  0  0  0  0  0  0  0  0  # atno 17321 bound_to 7965
  139.4869  144.4539  151.9621 LP  0  0  0  0  0  0  0  0  0  0  0  0  # atno 17342 bound_to 10162
  140.3628  144.2952  150.5931 LP  0  0  0  0  0  0  0  0  0  0  0  0  # atno 17343 bound_to 10162
  156.6732  130.8828  151.3565 LP  0  0  0  0  0  0  0  0  0  0  0  0  # atno 17370 bound_to 10713
  157.7058  130.9383  150.0927 LP  0  0  0  0  0  0  0  0  0  0  0  0  # atno 17371 bound_to 10713
  139.9543  134.7562  156.0376 LP  0  0  0  0  0  0  0  0  0  0  0  0  # atno 17394 bound_to 11000
  141.1270  133.6596  156.3362 LP  0  0  0  0  0  0  0  0  0  0  0  0  # atno 17395 bound_to 11000

$$$$
