AV-unprocessed.smi:3017|AV-procd|sdf|11478|dock5
  -GOLD-   2272016413D 1   1.00000     0.00000
 Structure written by MMmdl.
 37 38  0  0  0  0  0  0  0  0  1 V2000
  153.4286  142.3029  161.6882 C   0  0  0  0  0  0  0  0  0  0  0  0
  152.4900  142.8484  160.6027 C   0  0  1  0  0  0  0  0  0  0  0  0
  151.8775  144.2014  161.0133 C   0  0  0  0  0  0  0  0  0  0  0  0
  150.9404  144.7489  159.9255 C   0  0  0  0  0  0  0  0  0  0  0  0
  151.6598  144.8603  158.5711 C   0  0  0  0  0  0  0  0  0  0  0  0
  152.2810  143.5197  158.1414 C   0  0  2  0  0  0  0  0  0  0  0  0
  151.2156  142.6158  157.8746 O   0  0  0  0  0  0  0  0  0  0  0  0
  151.6224  141.2871  157.5703 C   0  0  0  0  0  0  0  0  0  0  0  0
  150.9343  140.8142  156.2874 C   0  0  0  0  0  0  0  0  0  0  0  0
  151.6107  140.2709  155.4146 O   0  0  0  0  0  0  0  0  0  0  0  0
  149.6100  141.0410  156.1933 N   0  0  0  0  0  0  0  0  0  0  0  0
  148.7308  140.6897  155.1363 C   0  0  0  0  0  0  0  0  0  0  0  0
  147.7478  141.6537  154.8100 C   0  0  0  0  0  0  0  0  0  0  0  0
  146.8355  141.4627  153.8311 N   0  0  0  0  0  0  0  0  0  0  0  0
  146.9019  140.2905  153.1646 C   0  0  0  0  0  0  0  0  0  0  0  0
  147.8741  139.3190  153.4754 C   0  0  0  0  0  0  0  0  0  0  0  0
  148.7835  139.5168  154.4545 N   0  0  0  0  0  0  0  0  0  0  0  0
  153.2118  142.9740  159.2458 C   0  0  0  0  0  0  0  0  0  0  0  0
  154.2708  142.9741  161.8591 H   0  0  0  0  0  0  0  0  0  0  0  0
  153.8305  141.3296  161.4051 H   0  0  0  0  0  0  0  0  0  0  0  0
  152.9032  142.1787  162.6355 H   0  0  0  0  0  0  0  0  0  0  0  0
  151.6754  142.1316  160.4872 H   0  0  0  0  0  0  0  0  0  0  0  0
  151.3273  144.0943  161.9489 H   0  0  0  0  0  0  0  0  0  0  0  0
  152.6723  144.9237  161.2040 H   0  0  0  0  0  0  0  0  0  0  0  0
  150.0722  144.0954  159.8284 H   0  0  0  0  0  0  0  0  0  0  0  0
  150.5577  145.7254  160.2225 H   0  0  0  0  0  0  0  0  0  0  0  0
  150.9653  145.2120  157.8075 H   0  0  0  0  0  0  0  0  0  0  0  0
  152.4447  145.6146  158.6422 H   0  0  0  0  0  0  0  0  0  0  0  0
  152.8528  143.6867  157.2268 H   0  0  0  0  0  0  0  0  0  0  0  0
  152.7031  141.2450  157.4294 H   0  0  0  0  0  0  0  0  0  0  0  0
  151.3642  140.6032  158.3788 H   0  0  0  0  0  0  0  0  0  0  0  0
  149.1831  141.5056  156.9820 H   0  0  0  0  0  0  0  0  0  0  0  0
  147.6897  142.5921  155.3425 H   0  0  0  0  0  0  0  0  0  0  0  0
  146.1771  140.1264  152.3810 H   0  0  0  0  0  0  0  0  0  0  0  0
  147.9219  138.3830  152.9391 H   0  0  0  0  0  0  0  0  0  0  0  0
  154.0630  143.6476  159.3537 H   0  0  0  0  0  0  0  0  0  0  0  0
  153.6319  142.0118  158.9548 H   0  0  0  0  0  0  0  0  0  0  0  0
  1  2  1  0  0  0  0
  1 19  1  0  0  0  0
  1 20  1  0  0  0  0
  1 21  1  0  0  0  0
  2 18  1  0  0  0  0
  2  3  1  0  0  0  0
  2 22  1  0  0  0  0
  3  4  1  0  0  0  0
  3 23  1  0  0  0  0
  3 24  1  0  0  0  0
  4  5  1  0  0  0  0
  4 25  1  0  0  0  0
  4 26  1  0  0  0  0
  5  6  1  0  0  0  0
  5 27  1  0  0  0  0
  5 28  1  0  0  0  0
  6  7  1  0  0  0  0
  6 18  1  0  0  0  0
  6 29  1  0  0  0  0
  7  8  1  0  0  0  0
  8  9  1  0  0  0  0
  8 30  1  0  0  0  0
  8 31  1  0  0  0  0
  9 10  2  0  0  0  0
  9 11  1  0  0  0  0
 11 12  1  0  0  0  0
 11 32  1  0  0  0  0
 12 17  1  0  0  0  0
 12 13  2  0  0  0  0
 13 14  1  0  0  0  0
 13 33  1  0  0  0  0
 14 15  2  0  0  0  0
 15 16  1  0  0  0  0
 15 34  1  0  0  0  0
 16 17  2  0  0  0  0
 16 35  1  0  0  0  0
 18 36  1  0  0  0  0
 18 37  1  0  0  0  0
M  END
> <s_m_source_file>
AV-unprocessed.smi

> <i_m_source_file_index>
3017

> <i_lp_mmshare_version>
43012

> <i_f3d_flags>
0

> <s_epik_input>
W0NIM11bQ0BASF0xW0NIMl1bQ0gyXVtDSDJdW0NASF0oW0NIMl0xKU9bQ0gyXUMoPU8pW05IXWMyW2NIXW5bY0hdW2NIXW4y

> <s_epik_cmdline>
J2VwaWtfcHl0aG9uJywgJy1waCcsICc3LjAnLCAnLXRuJywgJzgnLCAnLW1hJywgJzIwMCcsICctbWV0YWxfYmluZGluZycsICctaW1hZScsICc8aW5maWxlLm1hZT4nLCAnLW9tYWUnLCAnPG91dGZpbGUubWFlPic=

> <r_lp_tautomer_probability>
1

> <r_epik_Ionization_Penalty>
2.89243e-06

> <r_epik_Ionization_Penalty_Charging>
0

> <r_epik_Ionization_Penalty_Neutral>
2.89243e-06

> <r_epik_State_Penalty>
-0

> <r_epik_Charging_Adjusted_Penalty>
0

> <i_epik_Tot_Q>
0

> <i_epik_Tot_abs_Q>
0

> <r_epik_Metal_State_Penalty>
-0

> <b_epik_Metal_Only>
0

> <s_lp_Force_Field>
OPLS_2005

> <r_lp_Energy>
20.5114

> <b_lp_Chiralities_Consistent>
1

> <s_lp_Variant>
AV-unprocessed.smi:3017-4

> <Gold.Version>
5.8.1

> <Gold.Id.Protein>
6NUR|6NUR_protein|mol2

> <Gold.PLP.Fitness>
49.5476

> <Gold.PLP.PLP>
-39.9987

> <Gold.PLP.part.hbond>
-1.0000

> <Gold.PLP.part.metal>
0.0000

> <Gold.PLP.part.buried>
-5.8271

> <Gold.PLP.part.nonpolar>
-35.0839

> <Gold.PLP.part.repulsive>
0.4466

> <Gold.PLP.ligand.clash>
0.0000

> <Gold.PLP.ligand.torsion>
0.8174

> <Gold.PLP.Chemscore.Hbond>
0.8960

> <Gold.PLP.Chemscore.CHOScore>
2.8292

> <Gold.PLP.Chemscore.Metal>
0.0000

> <Gold.Chemscore.Hbonds>
donor molecule, donor type, donor heavy atom, donor atom, acceptor molecule, acceptor atom, score
      P1  H  7989  7998       L1    10  0.90
      L1  C    13    33       P1  8028  1.00
      L1  C    15    34       P1 10175  0.97
      L1  C    16    35       P1  7948  0.83

> <Gold.PLP.Chemscore.Internal.Correction>
0.0083

> <Gold.Rescore>
     Score         DG    S(hbond)    S(metal)    S(lipo)     H(rot)  DE(clash)    DE(int)     intcor
     15.31     -17.11       0.92        0.00     106.31       1.51       0.17       1.63       ----

> <Gold.Chemscore.Fitness>
15.3080

> <Gold.Chemscore.DG>
-17.1122

> <Gold.Chemscore.ZeroCoef>
-5.4800

> <Gold.Chemscore.Hbond>
0.9177

> <Gold.Chemscore.Metal>
0.0000

> <Gold.Chemscore.Lipo>
106.3056

> <Gold.Chemscore.Internal_Hbond>
0.0000

> <Gold.Chemscore.DEClash>
0.1739

> <Gold.Chemscore.DEInternal>
1.6303

> <Gold.Chemscore.Rot>
1.5119

> <Gold.Chemscore.Internal.Correction>
   9.000000E+99

> <Gold.Chemscore.Hbonds>
donor molecule, donor type, donor heavy atom, donor atom, acceptor molecule, acceptor atom, score
      P1  H  7989  7998       L1    10  0.83

> <Gold.Chemscore.Hbond.Weighted>
-3.0650

> <Gold.Chemscore.Metal.Weighted>
-0.0000

> <Gold.Chemscore.Lipo.Weighted>
-12.4378

> <Gold.Chemscore.Internal_Hbond.Weighted>
0.0000

> <Gold.Chemscore.DEClash.Weighted>
0.1739

> <Gold.Chemscore.DEInternal.Weighted>
1.6303

> <Gold.Chemscore.Rot.Weighted>
3.8706

> <Gold.Chemscore.Internal.Correction.Weighted>
   9.000000E+99

> <Gold.Protein.RotatedTorsions>
[ 6907 6896 6895 6894 ] final  -27.05 input  -60.11 | X-H torsion
[ 7974 7965 7964 7962 ] final -116.82 input  175.53 | X-H torsion
[ 8008 7997 7996 7995 ] final -123.36 input   59.86 | X-H torsion
[ 10167 10162 10161 10158 ] final    5.99 input  -65.29 | X-H torsion
[ 10718 10713 10712 10709 ] final  156.74 input   66.30 | X-H torsion
[ 10763 10752 10751 10750 ] final   48.20 input  -60.55 | X-H torsion
[ 11005 11000 10999 10996 ] final   32.00 input  -57.11 | X-H torsion

> <Gold.Protein.ActiveResidues>
 VAL166  LYS551  ARG553  GLY616  TRP617  ASP618  TYR619  PRO620  LYS621  CYS622 
 ASP623  PHE694  ASN695  SER759  ASP760  ASP761  ALA762  ILE779  LEU786  VAL792 
 PHE793  MET794  SER795  GLU796  ALA797  LYS798  CYS799  TRP800  GLU811  SER814 

> <Gold.Protein.RotatedAtoms>
  151.1524  135.0234  159.8673 H   0  0  0  0  0  0  0  0  0  0  0  0  # atno 6907 bound_to 6896
  152.5452  134.1373  159.8474 H   0  0  0  0  0  0  0  0  0  0  0  0  # atno 6908 bound_to 6896
  151.1460  133.4893  159.2628 H   0  0  0  0  0  0  0  0  0  0  0  0  # atno 6909 bound_to 6896
  145.0924  140.8498  143.3975 H   0  0  0  0  0  0  0  0  0  0  0  0  # atno 7974 bound_to 7965
  155.1792  140.0410  157.2879 H   0  0  0  0  0  0  0  0  0  0  0  0  # atno 8008 bound_to 7997
  154.6215  140.2502  155.7516 H   0  0  0  0  0  0  0  0  0  0  0  0  # atno 8009 bound_to 7997
  156.2436  140.2894  156.0525 H   0  0  0  0  0  0  0  0  0  0  0  0  # atno 8010 bound_to 7997
  140.6452  143.7678  150.7488 H   0  0  0  0  0  0  0  0  0  0  0  0  # atno 10167 bound_to 10162
  157.2009  131.0676  151.2025 H   0  0  0  0  0  0  0  0  0  0  0  0  # atno 10718 bound_to 10713
  152.9793  135.5952  154.3887 H   0  0  0  0  0  0  0  0  0  0  0  0  # atno 10763 bound_to 10752
  154.3545  135.2767  155.2356 H   0  0  0  0  0  0  0  0  0  0  0  0  # atno 10764 bound_to 10752
  154.4380  135.6020  153.6166 H   0  0  0  0  0  0  0  0  0  0  0  0  # atno 10765 bound_to 10752
  140.2780  134.3006  155.7808 H   0  0  0  0  0  0  0  0  0  0  0  0  # atno 11005 bound_to 11000
  145.1051  139.2796  143.5666 LP  0  0  0  0  0  0  0  0  0  0  0  0  # atno 17320 bound_to 7965
  146.3531  140.0629  142.8628 LP  0  0  0  0  0  0  0  0  0  0  0  0  # atno 17321 bound_to 7965
  140.1318  143.4519  152.2249 LP  0  0  0  0  0  0  0  0  0  0  0  0  # atno 17342 bound_to 10162
  139.5663  144.7437  151.4014 LP  0  0  0  0  0  0  0  0  0  0  0  0  # atno 17343 bound_to 10162
  157.3768  130.7210  149.6602 LP  0  0  0  0  0  0  0  0  0  0  0  0  # atno 17370 bound_to 10713
  155.9700  130.4183  150.4323 LP  0  0  0  0  0  0  0  0  0  0  0  0  # atno 17371 bound_to 10713
  141.2167  133.7507  156.9436 LP  0  0  0  0  0  0  0  0  0  0  0  0  # atno 17394 bound_to 11000
  140.1310  134.9356  157.2337 LP  0  0  0  0  0  0  0  0  0  0  0  0  # atno 17395 bound_to 11000

$$$$
