AV-unprocessed.smi:1462|AV-procd|sdf|5932|dock1
  -GOLD-   22720 6 13D 1   1.00000     0.00000
 Structure written by MMmdl.
 42 43  0  0  0  0  0  0  0  0  2 V2000
  145.5560  137.3342  152.5683 C   0  0  0  0  0  0  0  0  0  0  0  0
  146.5442  138.1535  151.8834 N   0  0  0  0  0  0  0  0  0  0  0  0
  146.1262  138.7290  150.6139 C   0  0  0  0  0  0  0  0  0  0  0  0
  147.1625  139.0846  152.7293 C   0  0  0  0  0  0  0  0  0  0  0  0
  146.5854  140.3479  152.9731 C   0  0  0  0  0  0  0  0  0  0  0  0
  147.2402  141.2527  153.8335 C   0  0  0  0  0  0  0  0  0  0  0  0
  148.4667  140.8903  154.4312 C   0  0  0  0  0  0  0  0  0  0  0  0
  149.0811  141.8311  155.3010 N   0  0  0  0  0  0  0  0  0  0  0  0
  150.1776  141.6767  156.0632 C   0  0  0  0  0  0  0  0  0  0  0  0
  150.8636  140.6565  156.1209 O   0  0  0  0  0  0  0  0  0  0  0  0
  150.4470  142.7970  156.7489 N   0  0  0  0  0  0  0  0  0  0  0  0
  151.5756  143.0016  157.6534 C   0  0  0  0  0  0  0  0  0  0  0  0
  151.6661  141.8249  158.6443 C   0  0  0  0  0  0  0  0  0  0  0  0
  152.7764  142.0463  159.6845 C   0  0  0  0  0  0  0  0  0  0  0  0
  152.5874  143.3780  160.4271 C   0  0  0  0  0  0  0  0  0  0  0  0
  152.5139  144.5538  159.4407 C   0  0  0  0  0  0  0  0  0  0  0  0
  151.4044  144.3398  158.3984 C   0  0  0  0  0  0  0  0  0  0  0  0
  148.9947  139.6044  154.1576 C   0  0  0  0  0  0  0  0  0  0  0  0
  148.3342  138.7662  153.3292 N   0  3  0  0  0  0  0  0  0  0  0  0
  145.9559  136.9424  153.5044 H   0  0  0  0  0  0  0  0  0  0  0  0
  145.2720  136.4871  151.9433 H   0  0  0  0  0  0  0  0  0  0  0  0
  144.6570  137.9101  152.7913 H   0  0  0  0  0  0  0  0  0  0  0  0
  146.9361  139.3033  150.1623 H   0  0  0  0  0  0  0  0  0  0  0  0
  145.2676  139.3884  150.7464 H   0  0  0  0  0  0  0  0  0  0  0  0
  145.8447  137.9392  149.9171 H   0  0  0  0  0  0  0  0  0  0  0  0
  145.6498  140.6224  152.5079 H   0  0  0  0  0  0  0  0  0  0  0  0
  146.8021  142.2212  154.0265 H   0  0  0  0  0  0  0  0  0  0  0  0
  148.6680  142.7524  155.3046 H   0  0  0  0  0  0  0  0  0  0  0  0
  149.8238  143.5821  156.6297 H   0  0  0  0  0  0  0  0  0  0  0  0
  152.5112  143.0429  157.0924 H   0  0  0  0  0  0  0  0  0  0  0  0
  150.7123  141.6996  159.1589 H   0  0  0  0  0  0  0  0  0  0  0  0
  151.8504  140.8953  158.1042 H   0  0  0  0  0  0  0  0  0  0  0  0
  152.7880  141.2214  160.3974 H   0  0  0  0  0  0  0  0  0  0  0  0
  153.7475  142.0398  159.1881 H   0  0  0  0  0  0  0  0  0  0  0  0
  151.6730  143.3400  161.0209 H   0  0  0  0  0  0  0  0  0  0  0  0
  153.4066  143.5322  161.1299 H   0  0  0  0  0  0  0  0  0  0  0  0
  152.3397  145.4836  159.9831 H   0  0  0  0  0  0  0  0  0  0  0  0
  153.4733  144.6662  158.9343 H   0  0  0  0  0  0  0  0  0  0  0  0
  151.4064  145.1661  157.6867 H   0  0  0  0  0  0  0  0  0  0  0  0
  150.4346  144.3641  158.8975 H   0  0  0  0  0  0  0  0  0  0  0  0
  149.9077  139.2045  154.5724 H   0  0  0  0  0  0  0  0  0  0  0  0
  148.7382  137.8468  153.1495 H   0  0  0  0  0  0  0  0  0  0  0  0
  1  2  1  0  0  0  0
  1 20  1  0  0  0  0
  1 21  1  0  0  0  0
  1 22  1  0  0  0  0
  2  3  1  0  0  0  0
  2  4  1  0  0  0  0
  3 23  1  0  0  0  0
  3 24  1  0  0  0  0
  3 25  1  0  0  0  0
  4 19  1  0  0  0  0
  4  5  2  0  0  0  0
  5  6  1  0  0  0  0
  5 26  1  0  0  0  0
  6  7  2  0  0  0  0
  6 27  1  0  0  0  0
  7  8  1  0  0  0  0
  7 18  1  0  0  0  0
  8  9  1  0  0  0  0
  8 28  1  0  0  0  0
  9 10  2  0  0  0  0
  9 11  1  0  0  0  0
 11 12  1  0  0  0  0
 11 29  1  0  0  0  0
 12 17  1  0  0  0  0
 12 13  1  0  0  0  0
 12 30  1  0  0  0  0
 13 14  1  0  0  0  0
 13 31  1  0  0  0  0
 13 32  1  0  0  0  0
 14 15  1  0  0  0  0
 14 33  1  0  0  0  0
 14 34  1  0  0  0  0
 15 16  1  0  0  0  0
 15 35  1  0  0  0  0
 15 36  1  0  0  0  0
 16 17  1  0  0  0  0
 16 37  1  0  0  0  0
 16 38  1  0  0  0  0
 17 39  1  0  0  0  0
 17 40  1  0  0  0  0
 18 19  2  0  0  0  0
 18 41  1  0  0  0  0
 19 42  1  0  0  0  0
M  CHG  1  19   1
M  END
> <s_m_source_file>
AV-unprocessed.smi

> <i_m_source_file_index>
1462

> <i_lp_mmshare_version>
43012

> <i_f3d_flags>
0

> <s_epik_input>
W0NIM11OKFtDSDNdKWMxW2NIXVtjSF1jKFtjSF1uMSlbTkhdQyg9TylbTkhdW0NIXTJbQ0gyXVtDSDJdW0NIMl1bQ0gyXVtDSDJdMg==

> <s_epik_cmdline>
J2VwaWtfcHl0aG9uJywgJy1waCcsICc3LjAnLCAnLXRuJywgJzgnLCAnLW1hJywgJzIwMCcsICctbWV0YWxfYmluZGluZycsICctaW1hZScsICc8aW5maWxlLm1hZT4nLCAnLW9tYWUnLCAnPG91dGZpbGUubWFlPic=

> <r_lp_tautomer_probability>
0.999994

> <r_epik_Ionization_Penalty>
0.251279

> <r_epik_Ionization_Penalty_Charging>
0.251258

> <r_epik_Ionization_Penalty_Neutral>
2.1482e-05

> <r_epik_State_Penalty>
0.242611

> <r_epik_Charging_Adjusted_Penalty>
0.493869

> <i_epik_Tot_Q>
1

> <i_epik_Tot_abs_Q>
1

> <r_epik_Metal_State_Penalty>
0.533707

> <b_epik_Metal_Only>
0

> <s_lp_Force_Field>
OPLS_2005

> <r_lp_Energy>
22.7903

> <b_lp_Chiralities_Consistent>
1

> <s_lp_Variant>
AV-unprocessed.smi:1462-1

> <Gold.Version>
5.8.1

> <Gold.Id.Protein>
6NUR|6NUR_protein|mol2

> <Gold.PLP.Fitness>
48.7120

> <Gold.PLP.PLP>
-37.7887

> <Gold.PLP.part.hbond>
-4.0000

> <Gold.PLP.part.metal>
0.0000

> <Gold.PLP.part.buried>
3.6864

> <Gold.PLP.part.nonpolar>
-39.2842

> <Gold.PLP.part.repulsive>
1.2555

> <Gold.PLP.ligand.clash>
0.0000

> <Gold.PLP.ligand.torsion>
0.5778

> <Gold.PLP.Chemscore.Hbond>
3.9586

> <Gold.PLP.Chemscore.CHOScore>
0.0000

> <Gold.PLP.Chemscore.Metal>
0.0000

> <Gold.Chemscore.Hbonds>
donor molecule, donor type, donor heavy atom, donor atom, acceptor molecule, acceptor atom, score
      L1  H     8    28       P1  8028  0.98
      L1  H    11    29       P1  8028  1.00
      L1  H    19    42       P1  7948  1.78

> <Gold.PLP.Chemscore.Internal.Correction>
0.2030

> <Gold.Rescore>
     Score         DG    S(hbond)    S(metal)    S(lipo)     H(rot)  DE(clash)    DE(int)     intcor
     18.92     -24.68       2.60        0.00     116.03       1.20       2.64       3.11       ----

> <Gold.Chemscore.Fitness>
18.9206

> <Gold.Chemscore.DG>
-24.6796

> <Gold.Chemscore.ZeroCoef>
-5.4800

> <Gold.Chemscore.Hbond>
2.6007

> <Gold.Chemscore.Metal>
0.0000

> <Gold.Chemscore.Lipo>
116.0253

> <Gold.Chemscore.Internal_Hbond>
0.0000

> <Gold.Chemscore.DEClash>
2.6448

> <Gold.Chemscore.DEInternal>
3.1141

> <Gold.Chemscore.Rot>
1.1960

> <Gold.Chemscore.Internal.Correction>
   9.000000E+99

> <Gold.Chemscore.Hbonds>
donor molecule, donor type, donor heavy atom, donor atom, acceptor molecule, acceptor atom, score
      L1  H     8    28       P1  8028  0.90
      L1  H    11    29       P1  8028  0.98
      L1  H    19    42       P1  7948  0.82

> <Gold.Chemscore.Hbond.Weighted>
-8.6863

> <Gold.Chemscore.Metal.Weighted>
-0.0000

> <Gold.Chemscore.Lipo.Weighted>
-13.5750

> <Gold.Chemscore.Internal_Hbond.Weighted>
0.0000

> <Gold.Chemscore.DEClash.Weighted>
2.6448

> <Gold.Chemscore.DEInternal.Weighted>
3.1141

> <Gold.Chemscore.Rot.Weighted>
3.0617

> <Gold.Chemscore.Internal.Correction.Weighted>
   9.000000E+99

> <Gold.Protein.RotatedTorsions>
[ 6907 6896 6895 6894 ] final  150.93 input  -60.11 | X-H torsion
[ 7974 7965 7964 7962 ] final  109.35 input  175.53 | X-H torsion
[ 8008 7997 7996 7995 ] final  -64.20 input   59.86 | X-H torsion
[ 10167 10162 10161 10158 ] final -141.68 input  -65.29 | X-H torsion
[ 10718 10713 10712 10709 ] final   33.11 input   66.30 | X-H torsion
[ 10763 10752 10751 10750 ] final    0.06 input  -60.55 | X-H torsion
[ 11005 11000 10999 10996 ] final   17.01 input  -57.11 | X-H torsion

> <Gold.Protein.ActiveResidues>
 VAL166  LYS551  ARG553  GLY616  TRP617  ASP618  TYR619  PRO620  LYS621  CYS622 
 ASP623  PHE694  ASN695  SER759  ASP760  ASP761  ALA762  ILE779  LEU786  VAL792 
 PHE793  MET794  SER795  GLU796  ALA797  LYS798  CYS799  TRP800  GLU811  SER814 

> <Gold.Protein.RotatedAtoms>
  152.1076  133.4283  159.4615 H   0  0  0  0  0  0  0  0  0  0  0  0  # atno 6907 bound_to 6896
  150.6866  134.2686  159.4588 H   0  0  0  0  0  0  0  0  0  0  0  0  # atno 6908 bound_to 6896
  152.0552  134.9628  160.0625 H   0  0  0  0  0  0  0  0  0  0  0  0  # atno 6909 bound_to 6896
  145.2690  139.2674  143.3976 H   0  0  0  0  0  0  0  0  0  0  0  0  # atno 7974 bound_to 7965
  154.4598  140.0959  156.6860 H   0  0  0  0  0  0  0  0  0  0  0  0  # atno 8008 bound_to 7997
  155.5029  140.3474  155.4356 H   0  0  0  0  0  0  0  0  0  0  0  0  # atno 8009 bound_to 7997
  156.0848  140.1382  156.9656 H   0  0  0  0  0  0  0  0  0  0  0  0  # atno 8010 bound_to 7997
  139.8161  143.7637  152.2665 H   0  0  0  0  0  0  0  0  0  0  0  0  # atno 10167 bound_to 10162
  157.2937  130.7315  149.6625 H   0  0  0  0  0  0  0  0  0  0  0  0  # atno 10718 bound_to 10713
  153.3255  135.6972  153.6993 H   0  0  0  0  0  0  0  0  0  0  0  0  # atno 10763 bound_to 10752
  153.5816  135.3497  155.2878 H   0  0  0  0  0  0  0  0  0  0  0  0  # atno 10764 bound_to 10752
  154.8607  135.4296  154.2430 H   0  0  0  0  0  0  0  0  0  0  0  0  # atno 10765 bound_to 10752
  140.4407  134.1324  155.7690 H   0  0  0  0  0  0  0  0  0  0  0  0  # atno 11005 bound_to 11000
  146.3252  140.3127  142.8628 LP  0  0  0  0  0  0  0  0  0  0  0  0  # atno 17320 bound_to 7965
  144.9352  140.8018  143.5665 LP  0  0  0  0  0  0  0  0  0  0  0  0  # atno 17321 bound_to 7965
  139.7801  144.7447  151.0101 LP  0  0  0  0  0  0  0  0  0  0  0  0  # atno 17342 bound_to 10162
  140.7815  143.4552  151.0356 LP  0  0  0  0  0  0  0  0  0  0  0  0  # atno 17343 bound_to 10162
  155.9668  130.4301  150.4862 LP  0  0  0  0  0  0  0  0  0  0  0  0  # atno 17370 bound_to 10713
  157.2829  131.0610  151.2185 LP  0  0  0  0  0  0  0  0  0  0  0  0  # atno 17371 bound_to 10713
  141.1706  133.8615  157.1580 LP  0  0  0  0  0  0  0  0  0  0  0  0  # atno 17394 bound_to 11000
  140.0072  135.0003  157.0317 LP  0  0  0  0  0  0  0  0  0  0  0  0  # atno 17395 bound_to 11000

$$$$
