AV-unprocessed.smi:934|AV-procd|sdf|4205|dock3
  -GOLD-   22720 2113D 1   1.00000     0.00000
 Structure written by MMmdl.
 43 44  0  0  0  0  0  0  0  0  2 V2000
  146.8178  139.7282  153.0606 C   0  0  0  0  0  0  0  0  0  0  0  0
  147.9086  140.5866  153.5924 N   0  3  0  0  0  0  0  0  0  0  0  0
  147.4139  141.9709  153.8113 C   0  0  0  0  0  0  0  0  0  0  0  0
  148.7209  139.9723  154.7092 C   0  0  0  0  0  0  0  0  0  0  0  0
  150.1026  140.7028  154.7799 C   0  0  0  0  0  0  0  0  0  0  0  0
  150.0904  141.9066  155.6121 N   0  0  0  0  0  0  0  0  0  0  0  0
  150.8100  142.0892  156.7283 C   0  0  0  0  0  0  0  0  0  0  0  0
  151.5662  141.2377  157.1930 O   0  0  0  0  0  0  0  0  0  0  0  0
  150.6008  143.3119  157.2451 N   0  0  0  0  0  0  0  0  0  0  0  0
  151.1529  143.8840  158.4234 C   0  0  0  0  0  0  0  0  0  0  0  0
  152.0752  143.1120  159.1598 C   0  0  0  0  0  0  0  0  0  0  0  0
  152.6529  143.6555  160.3226 C   0  0  0  0  0  0  0  0  0  0  0  0
  152.2901  144.9620  160.7024 C   0  0  0  0  0  0  0  0  0  0  0  0
  151.4206  145.7206  160.0028 N   0  0  0  0  0  0  0  0  0  0  0  0
  150.8684  145.1924  158.8890 C   0  0  0  0  0  0  0  0  0  0  0  0
  147.9849  140.0971  156.0788 C   0  0  0  0  0  0  0  0  0  0  0  0
  148.6841  139.3292  157.2155 C   0  0  0  0  0  0  0  0  0  0  0  0
  148.7991  137.9585  156.8567 O   0  0  0  0  0  0  0  0  0  0  0  0
  149.5871  137.7522  155.6916 C   0  0  0  0  0  0  0  0  0  0  0  0
  148.9443  138.4522  154.4779 C   0  0  0  0  0  0  0  0  0  0  0  0
  146.0036  139.6258  153.7787 H   0  0  0  0  0  0  0  0  0  0  0  0
  147.1634  138.7332  152.7869 H   0  0  0  0  0  0  0  0  0  0  0  0
  146.4004  140.1686  152.1545 H   0  0  0  0  0  0  0  0  0  0  0  0
  146.8216  142.0500  154.7228 H   0  0  0  0  0  0  0  0  0  0  0  0
  146.7839  142.2917  152.9810 H   0  0  0  0  0  0  0  0  0  0  0  0
  148.2328  142.6882  153.8563 H   0  0  0  0  0  0  0  0  0  0  0  0
  150.9035  140.0396  155.1030 H   0  0  0  0  0  0  0  0  0  0  0  0
  150.4149  141.0142  153.7839 H   0  0  0  0  0  0  0  0  0  0  0  0
  149.5117  142.6712  155.2961 H   0  0  0  0  0  0  0  0  0  0  0  0
  150.0130  143.9288  156.7040 H   0  0  0  0  0  0  0  0  0  0  0  0
  152.3369  142.1135  158.8415 H   0  0  0  0  0  0  0  0  0  0  0  0
  153.3579  143.0848  160.9089 H   0  0  0  0  0  0  0  0  0  0  0  0
  152.7137  145.4114  161.5884 H   0  0  0  0  0  0  0  0  0  0  0  0
  150.2023  145.8570  158.3619 H   0  0  0  0  0  0  0  0  0  0  0  0
  147.8437  141.1409  156.3572 H   0  0  0  0  0  0  0  0  0  0  0  0
  146.9874  139.6632  156.0234 H   0  0  0  0  0  0  0  0  0  0  0  0
  149.6606  139.7448  157.4623 H   0  0  0  0  0  0  0  0  0  0  0  0
  148.0863  139.3964  158.1244 H   0  0  0  0  0  0  0  0  0  0  0  0
  150.6069  138.0986  155.8612 H   0  0  0  0  0  0  0  0  0  0  0  0
  149.6533  136.6801  155.5060 H   0  0  0  0  0  0  0  0  0  0  0  0
  147.9934  137.9612  154.2711 H   0  0  0  0  0  0  0  0  0  0  0  0
  149.5717  138.2783  153.6034 H   0  0  0  0  0  0  0  0  0  0  0  0
  148.5640  140.6767  152.8291 H   0  0  0  0  0  0  0  0  0  0  0  0
  1  2  1  0  0  0  0
  1 21  1  0  0  0  0
  1 22  1  0  0  0  0
  1 23  1  0  0  0  0
  2  3  1  0  0  0  0
  2  4  1  0  0  0  0
  2 43  1  0  0  0  0
  3 24  1  0  0  0  0
  3 25  1  0  0  0  0
  3 26  1  0  0  0  0
  4 20  1  0  0  0  0
  4  5  1  0  0  0  0
  4 16  1  0  0  0  0
  5  6  1  0  0  0  0
  5 27  1  0  0  0  0
  5 28  1  0  0  0  0
  6  7  1  0  0  0  0
  6 29  1  0  0  0  0
  7  8  2  0  0  0  0
  7  9  1  0  0  0  0
  9 10  1  0  0  0  0
  9 30  1  0  0  0  0
 10 15  1  0  0  0  0
 10 11  2  0  0  0  0
 11 12  1  0  0  0  0
 11 31  1  0  0  0  0
 12 13  2  0  0  0  0
 12 32  1  0  0  0  0
 13 14  1  0  0  0  0
 13 33  1  0  0  0  0
 14 15  2  0  0  0  0
 15 34  1  0  0  0  0
 16 17  1  0  0  0  0
 16 35  1  0  0  0  0
 16 36  1  0  0  0  0
 17 18  1  0  0  0  0
 17 37  1  0  0  0  0
 17 38  1  0  0  0  0
 18 19  1  0  0  0  0
 19 20  1  0  0  0  0
 19 39  1  0  0  0  0
 19 40  1  0  0  0  0
 20 41  1  0  0  0  0
 20 42  1  0  0  0  0
M  CHG  1   2   1
M  END
> <s_m_source_file>
AV-unprocessed.smi

> <i_m_source_file_index>
934

> <i_lp_mmshare_version>
43012

> <i_f3d_flags>
0

> <s_epik_input>
W0NIMl0xW0NIMl1PW0NIMl1bQ0gyXUMxKE4oW0NIM10pW0NIM10pW0NIMl1bTkhdQyg9TylbTkhdYzJbY0hdW2NIXVtjSF1uW2NIXTI=

> <s_epik_cmdline>
J2VwaWtfcHl0aG9uJywgJy1waCcsICc3LjAnLCAnLXRuJywgJzgnLCAnLW1hJywgJzIwMCcsICctbWV0YWxfYmluZGluZycsICctaW1hZScsICc8aW5maWxlLm1hZT4nLCAnLW9tYWUnLCAnPG91dGZpbGUubWFlPic=

> <r_epik_Ionization_Penalty>
0.0170741

> <r_epik_Ionization_Penalty_Charging>
0.0128317

> <r_epik_Ionization_Penalty_Neutral>
0.00424236

> <r_epik_State_Penalty>
0.00995429

> <r_epik_Charging_Adjusted_Penalty>
0.022786

> <i_epik_Tot_Q>
1

> <i_epik_Tot_abs_Q>
1

> <r_epik_Metal_State_Penalty>
0.00996615

> <b_epik_Metal_Only>
0

> <s_lp_Force_Field>
OPLS_2005

> <r_lp_Energy>
34.8396

> <b_lp_Chiralities_Consistent>
1

> <s_lp_Variant>
AV-unprocessed.smi:934-1

> <Gold.Version>
5.8.1

> <Gold.Id.Protein>
6NUR|6NUR_protein|mol2

> <Gold.PLP.Fitness>
43.6569

> <Gold.PLP.PLP>
-33.9060

> <Gold.PLP.part.hbond>
-4.0782

> <Gold.PLP.part.metal>
0.0000

> <Gold.PLP.part.buried>
-3.1196

> <Gold.PLP.part.nonpolar>
-27.0385

> <Gold.PLP.part.repulsive>
0.5119

> <Gold.PLP.ligand.clash>
0.0000

> <Gold.PLP.ligand.torsion>
0.8647

> <Gold.PLP.Chemscore.Hbond>
2.7855

> <Gold.PLP.Chemscore.CHOScore>
1.0000

> <Gold.PLP.Chemscore.Metal>
0.0000

> <Gold.Chemscore.Hbonds>
donor molecule, donor type, donor heavy atom, donor atom, acceptor molecule, acceptor atom, score
      L1  H     2    43       P1  7957  0.93
      L1  H     6    29       P1  8028  0.60
      L1  H     9    30       P1  8028  1.00
      L1  C    15    34       P1  8029  1.00

> <Gold.PLP.Chemscore.Internal.Correction>
0.1240

> <Gold.Rescore>
     Score         DG    S(hbond)    S(metal)    S(lipo)     H(rot)  DE(clash)    DE(int)     intcor
     18.31     -22.15       2.76        0.00      96.47       1.49       1.70       2.14       ----

> <Gold.Chemscore.Fitness>
18.3100

> <Gold.Chemscore.DG>
-22.1527

> <Gold.Chemscore.ZeroCoef>
-5.4800

> <Gold.Chemscore.Hbond>
2.7581

> <Gold.Chemscore.Metal>
0.0000

> <Gold.Chemscore.Lipo>
96.4724

> <Gold.Chemscore.Internal_Hbond>
0.0000

> <Gold.Chemscore.DEClash>
1.7035

> <Gold.Chemscore.DEInternal>
2.1393

> <Gold.Chemscore.Rot>
1.4948

> <Gold.Chemscore.Internal.Correction>
   9.000000E+99

> <Gold.Chemscore.Hbonds>
donor molecule, donor type, donor heavy atom, donor atom, acceptor molecule, acceptor atom, score
      L1  H     2    43       P1  7957  0.87
      L1  H     6    29       P1  8028  0.58
      L1  H     9    30       P1  8028  1.00

> <Gold.Chemscore.Hbond.Weighted>
-9.2122

> <Gold.Chemscore.Metal.Weighted>
-0.0000

> <Gold.Chemscore.Lipo.Weighted>
-11.2873

> <Gold.Chemscore.Internal_Hbond.Weighted>
0.0000

> <Gold.Chemscore.DEClash.Weighted>
1.7035

> <Gold.Chemscore.DEInternal.Weighted>
2.1393

> <Gold.Chemscore.Rot.Weighted>
3.8267

> <Gold.Chemscore.Internal.Correction.Weighted>
   9.000000E+99

> <Gold.Protein.RotatedTorsions>
[ 6907 6896 6895 6894 ] final  -50.97 input  -60.11 | X-H torsion
[ 7974 7965 7964 7962 ] final -158.52 input  175.53 | X-H torsion
[ 8008 7997 7996 7995 ] final  -87.37 input   59.86 | X-H torsion
[ 10167 10162 10161 10158 ] final   46.57 input  -65.29 | X-H torsion
[ 10718 10713 10712 10709 ] final -121.67 input   66.30 | X-H torsion
[ 10763 10752 10751 10750 ] final -101.58 input  -60.55 | X-H torsion
[ 11005 11000 10999 10996 ] final   75.84 input  -57.11 | X-H torsion

> <Gold.Protein.ActiveResidues>
 VAL166  LYS551  ARG553  GLY616  TRP617  ASP618  TYR619  PRO620  LYS621  CYS622 
 ASP623  PHE694  ASN695  SER759  ASP760  ASP761  ALA762  ILE779  LEU786  VAL792 
 PHE793  MET794  SER795  GLU796  ALA797  LYS798  CYS799  TRP800  GLU811  SER814 

> <Gold.Protein.RotatedAtoms>
  150.8656  134.8018  159.7115 H   0  0  0  0  0  0  0  0  0  0  0  0  # atno 6907 bound_to 6896
  152.4678  134.5029  159.9740 H   0  0  0  0  0  0  0  0  0  0  0  0  # atno 6908 bound_to 6896
  151.5126  133.3443  159.2923 H   0  0  0  0  0  0  0  0  0  0  0  0  # atno 6909 bound_to 6896
  144.7502  140.3815  143.6054 H   0  0  0  0  0  0  0  0  0  0  0  0  # atno 7974 bound_to 7965
  154.6625  140.0566  157.0077 H   0  0  0  0  0  0  0  0  0  0  0  0  # atno 8008 bound_to 7997
  155.1208  140.3247  155.4479 H   0  0  0  0  0  0  0  0  0  0  0  0  # atno 8009 bound_to 7997
  156.2624  140.1998  156.6330 H   0  0  0  0  0  0  0  0  0  0  0  0  # atno 8010 bound_to 7997
  140.3125  144.2803  150.6197 H   0  0  0  0  0  0  0  0  0  0  0  0  # atno 10167 bound_to 10162
  156.1356  130.6428  150.9691 H   0  0  0  0  0  0  0  0  0  0  0  0  # atno 10718 bound_to 10713
  154.7668  135.4892  153.9570 H   0  0  0  0  0  0  0  0  0  0  0  0  # atno 10763 bound_to 10752
  153.1318  135.6754  153.9174 H   0  0  0  0  0  0  0  0  0  0  0  0  # atno 10764 bound_to 10752
  153.8875  135.3125  155.3425 H   0  0  0  0  0  0  0  0  0  0  0  0  # atno 10765 bound_to 10752
  139.9325  134.7551  156.1321 H   0  0  0  0  0  0  0  0  0  0  0  0  # atno 11005 bound_to 11000
  145.6972  139.1652  143.2613 LP  0  0  0  0  0  0  0  0  0  0  0  0  # atno 17320 bound_to 7965
  146.1441  140.7017  142.9353 LP  0  0  0  0  0  0  0  0  0  0  0  0  # atno 17321 bound_to 7965
  140.5555  143.2199  151.7854 LP  0  0  0  0  0  0  0  0  0  0  0  0  # atno 17342 bound_to 10162
  139.4891  144.4419  151.9754 LP  0  0  0  0  0  0  0  0  0  0  0  0  # atno 17343 bound_to 10162
  157.6529  131.0894  150.8011 LP  0  0  0  0  0  0  0  0  0  0  0  0  # atno 17370 bound_to 10713
  156.8091  130.4946  149.5358 LP  0  0  0  0  0  0  0  0  0  0  0  0  # atno 17371 bound_to 10713
  141.0922  133.6710  156.2565 LP  0  0  0  0  0  0  0  0  0  0  0  0  # atno 17394 bound_to 11000
  140.6163  134.5407  157.5541 LP  0  0  0  0  0  0  0  0  0  0  0  0  # atno 17395 bound_to 11000

$$$$
