AV-unprocessed.smi:209|AV-procd|sdf|1610|dock6
  -GOLD-   2262019533D 1   1.00000     0.00000
 Structure written by MMmdl.
 48 52  0  0  0  0  0  0  0  0  1 V2000
  145.5802  131.7884  148.9383 O   0  0  0  0  0  0  0  0  0  0  0  0
  145.2606  132.5381  149.8587 C   0  0  0  0  0  0  0  0  0  0  0  0
  145.3519  133.8669  149.8533 N   0  0  0  0  0  0  0  0  0  0  0  0
  144.9786  134.4695  151.1219 C   0  0  0  0  0  0  0  0  0  0  0  0
  144.9100  133.2810  152.1128 C   0  0  1  0  0  0  0  0  0  0  0  0
  144.6614  132.0719  151.1778 C   0  0  2  0  0  0  0  0  0  0  0  0
  145.1498  130.7078  151.7093 C   0  0  0  0  0  0  0  0  0  0  0  0
  146.5200  130.8070  152.3851 C   0  0  0  0  0  0  0  0  0  0  0  0
  146.4844  131.8859  153.4711 C   0  0  0  0  0  0  0  0  0  0  0  0
  146.1635  133.1841  152.8844 N   0  0  0  0  0  0  0  0  0  0  0  0
  146.4718  134.2089  153.7205 C   0  0  0  0  0  0  0  0  0  0  0  0
  145.4867  134.9997  154.2244 N   0  0  0  0  0  0  0  0  0  0  0  0
  145.7859  135.9993  155.0588 C   0  0  0  0  0  0  0  0  0  0  0  0
  146.9825  136.3777  155.5122 N   0  0  0  0  0  0  0  0  0  0  0  0
  147.9753  135.5920  155.0050 C   0  0  0  0  0  0  0  0  0  0  0  0
  147.8088  134.4966  154.1122 C   0  0  0  0  0  0  0  0  0  0  0  0
  149.0452  133.9397  153.8101 N   0  0  0  0  0  0  0  0  0  0  0  0
  149.8937  134.6602  154.4919 C   0  0  0  0  0  0  0  0  0  0  0  0
  149.3383  135.6810  155.2311 N   0  0  0  0  0  0  0  0  0  0  0  0
  150.0420  136.6273  156.0850 C   0  0  0  0  0  0  0  0  0  0  0  0
  150.6724  137.8191  155.3361 C   0  0  0  0  0  0  0  0  0  0  0  0
  149.5594  138.5815  154.5893 C   0  0  0  0  0  0  0  0  0  0  0  0
  150.0528  139.6773  153.8449 O   0  0  0  0  0  0  0  0  0  0  0  0
  151.6305  138.6526  156.2012 C   0  0  0  0  0  0  0  0  0  0  0  0
  152.7954  138.0952  155.5540 O   0  0  0  0  0  0  0  0  0  0  0  0
  151.9496  137.5045  154.5425 C   0  0  0  0  0  0  0  0  0  0  0  0
  144.0698  133.3945  152.7992 H   0  0  0  0  0  0  0  0  0  0  0  0
  143.5898  131.9929  150.9889 H   0  0  0  0  0  0  0  0  0  0  0  0
  145.7150  134.4060  149.0806 H   0  0  0  0  0  0  0  0  0  0  0  0
  145.6822  135.2530  151.4046 H   0  0  0  0  0  0  0  0  0  0  0  0
  143.9968  134.9304  151.0091 H   0  0  0  0  0  0  0  0  0  0  0  0
  144.4257  130.3347  152.4346 H   0  0  0  0  0  0  0  0  0  0  0  0
  145.1788  129.9675  150.9091 H   0  0  0  0  0  0  0  0  0  0  0  0
  146.7889  129.8451  152.8225 H   0  0  0  0  0  0  0  0  0  0  0  0
  147.2893  131.0431  151.6486 H   0  0  0  0  0  0  0  0  0  0  0  0
  145.7370  131.6386  154.2263 H   0  0  0  0  0  0  0  0  0  0  0  0
  147.4488  131.9110  153.9789 H   0  0  0  0  0  0  0  0  0  0  0  0
  144.9467  136.5786  155.4144 H   0  0  0  0  0  0  0  0  0  0  0  0
  150.9550  134.4602  154.4749 H   0  0  0  0  0  0  0  0  0  0  0  0
  149.3458  136.9833  156.8455 H   0  0  0  0  0  0  0  0  0  0  0  0
  150.8083  136.0729  156.6288 H   0  0  0  0  0  0  0  0  0  0  0  0
  149.0375  137.9300  153.8883 H   0  0  0  0  0  0  0  0  0  0  0  0
  148.8132  138.9591  155.2888 H   0  0  0  0  0  0  0  0  0  0  0  0
  149.7139  139.6201  152.9646 H   0  0  0  0  0  0  0  0  0  0  0  0
  151.5638  139.7311  156.0535 H   0  0  0  0  0  0  0  0  0  0  0  0
  151.5906  138.4113  157.2640 H   0  0  0  0  0  0  0  0  0  0  0  0
  152.1494  136.4422  154.4084 H   0  0  0  0  0  0  0  0  0  0  0  0
  152.0303  138.0315  153.5909 H   0  0  0  0  0  0  0  0  0  0  0  0
  1  2  2  0  0  0  0
  2  6  1  0  0  0  0
  2  3  1  0  0  0  0
  3  4  1  0  0  0  0
  3 29  1  0  0  0  0
  4  5  1  0  0  0  0
  4 30  1  0  0  0  0
  4 31  1  0  0  0  0
  5 27  1  0  0  0  0
  5 10  1  0  0  0  0
  5  6  1  0  0  0  0
  6 28  1  0  0  0  0
  6  7  1  0  0  0  0
  7  8  1  0  0  0  0
  7 32  1  0  0  0  0
  7 33  1  0  0  0  0
  8  9  1  0  0  0  0
  8 34  1  0  0  0  0
  8 35  1  0  0  0  0
  9 10  1  0  0  0  0
  9 36  1  0  0  0  0
  9 37  1  0  0  0  0
 10 11  1  0  0  0  0
 11 16  1  0  0  0  0
 11 12  2  0  0  0  0
 12 13  1  0  0  0  0
 13 14  2  0  0  0  0
 13 38  1  0  0  0  0
 14 15  1  0  0  0  0
 15 19  1  0  0  0  0
 15 16  2  0  0  0  0
 16 17  1  0  0  0  0
 17 18  2  0  0  0  0
 18 19  1  0  0  0  0
 18 39  1  0  0  0  0
 19 20  1  0  0  0  0
 20 21  1  0  0  0  0
 20 40  1  0  0  0  0
 20 41  1  0  0  0  0
 21 26  1  0  0  0  0
 21 22  1  0  0  0  0
 21 24  1  0  0  0  0
 22 23  1  0  0  0  0
 22 42  1  0  0  0  0
 22 43  1  0  0  0  0
 23 44  1  0  0  0  0
 24 25  1  0  0  0  0
 24 45  1  0  0  0  0
 24 46  1  0  0  0  0
 25 26  1  0  0  0  0
 26 47  1  0  0  0  0
 26 48  1  0  0  0  0
M  END
> <s_m_source_file>
AV-unprocessed.smi

> <i_m_source_file_index>
209

> <i_lp_mmshare_version>
43012

> <i_f3d_flags>
0

> <s_epik_input>
W0NIMl0xW05IXUMoPU8pW0NAQEhdKFtDQEBIXTEyKVtDSDJdW0NIMl1bQ0gyXU4yYyhuW2NIXW4zKWMoYzM0KW5bY0hdbjRbQ0gyXUM1KFtDSDJdW09IXSlbQ0gyXU9bQ0gyXTU=

> <s_epik_cmdline>
J2VwaWtfcHl0aG9uJywgJy1waCcsICc3LjAnLCAnLXRuJywgJzgnLCAnLW1hJywgJzIwMCcsICctbWV0YWxfYmluZGluZycsICctaW1hZScsICc8aW5maWxlLm1hZT4nLCAnLW9tYWUnLCAnPG91dGZpbGUubWFlPic=

> <r_lp_tautomer_probability>
1

> <r_epik_Ionization_Penalty>
0.00113306

> <r_epik_Ionization_Penalty_Charging>
0

> <r_epik_Ionization_Penalty_Neutral>
0.00113306

> <r_epik_State_Penalty>
0.000624042

> <r_epik_Charging_Adjusted_Penalty>
0.000624042

> <i_epik_Tot_Q>
0

> <i_epik_Tot_abs_Q>
0

> <r_epik_Metal_State_Penalty>
-0

> <b_epik_Metal_Only>
0

> <s_lp_Force_Field>
OPLS_2005

> <r_lp_Energy>
50.5129

> <b_lp_Chiralities_Consistent>
1

> <s_lp_Variant>
AV-unprocessed.smi:209-4

> <Gold.Version>
5.8.1

> <Gold.Id.Protein>
6NUR|6NUR_protein|mol2

> <Gold.PLP.Fitness>
38.0696

> <Gold.PLP.PLP>
-30.2570

> <Gold.PLP.part.hbond>
-4.1985

> <Gold.PLP.part.metal>
0.0000

> <Gold.PLP.part.buried>
-1.1847

> <Gold.PLP.part.nonpolar>
-25.0134

> <Gold.PLP.part.repulsive>
1.7677

> <Gold.PLP.ligand.clash>
0.0000

> <Gold.PLP.ligand.torsion>
0.8303

> <Gold.PLP.Chemscore.Hbond>
2.9280

> <Gold.PLP.Chemscore.CHOScore>
0.0000

> <Gold.PLP.Chemscore.Metal>
0.0000

> <Gold.Chemscore.Hbonds>
donor molecule, donor type, donor heavy atom, donor atom, acceptor molecule, acceptor atom, score
      L1  H     3    29       P1  7921  1.00
      L1  H    23    44       P1  7957  1.00
      P1  H  7989  7998       L1    23  0.84

> <Gold.PLP.Chemscore.Internal.Correction>
0.6893

> <Gold.Rescore>
     Score         DG    S(hbond)    S(metal)    S(lipo)     H(rot)  DE(clash)    DE(int)     intcor
     13.13     -14.99       2.42        0.00      70.55       2.66       0.99       0.86       ----

> <Gold.Chemscore.Fitness>
13.1348

> <Gold.Chemscore.DG>
-14.9888

> <Gold.Chemscore.ZeroCoef>
-5.4800

> <Gold.Chemscore.Hbond>
2.4161

> <Gold.Chemscore.Metal>
0.0000

> <Gold.Chemscore.Lipo>
70.5465

> <Gold.Chemscore.Internal_Hbond>
0.0000

> <Gold.Chemscore.DEClash>
0.9939

> <Gold.Chemscore.DEInternal>
0.8601

> <Gold.Chemscore.Rot>
2.6620

> <Gold.Chemscore.Internal.Correction>
   9.000000E+99

> <Gold.Chemscore.Hbonds>
donor molecule, donor type, donor heavy atom, donor atom, acceptor molecule, acceptor atom, score
      L1  H     3    29       P1  7921  0.79
      L1  H    23    44       P1  7957  0.98
      P1  H  7989  7998       L1    23  0.15

> <Gold.Chemscore.Hbond.Weighted>
-8.0697

> <Gold.Chemscore.Metal.Weighted>
-0.0000

> <Gold.Chemscore.Lipo.Weighted>
-8.2539

> <Gold.Chemscore.Internal_Hbond.Weighted>
0.0000

> <Gold.Chemscore.DEClash.Weighted>
0.9939

> <Gold.Chemscore.DEInternal.Weighted>
0.8601

> <Gold.Chemscore.Rot.Weighted>
6.8148

> <Gold.Chemscore.Internal.Correction.Weighted>
   9.000000E+99

> <Gold.Protein.RotatedTorsions>
[ 6907 6896 6895 6894 ] final  -17.09 input  -60.11 | X-H torsion
[ 7974 7965 7964 7962 ] final -150.89 input  175.53 | X-H torsion
[ 8008 7997 7996 7995 ] final  -61.07 input   59.86 | X-H torsion
[ 10167 10162 10161 10158 ] final -168.34 input  -65.29 | X-H torsion
[ 10718 10713 10712 10709 ] final   53.46 input   66.30 | X-H torsion
[ 10763 10752 10751 10750 ] final -121.19 input  -60.55 | X-H torsion
[ 11005 11000 10999 10996 ] final  101.47 input  -57.11 | X-H torsion

> <Gold.Protein.ActiveResidues>
 VAL166  LYS551  ARG553  GLY616  TRP617  ASP618  TYR619  PRO620  LYS621  CYS622 
 ASP623  PHE694  ASN695  SER759  ASP760  ASP761  ALA762  ILE779  LEU786  VAL792 
 PHE793  MET794  SER795  GLU796  ALA797  LYS798  CYS799  TRP800  GLU811  SER814 

> <Gold.Protein.RotatedAtoms>
  151.2987  135.0762  159.9230 H   0  0  0  0  0  0  0  0  0  0  0  0  # atno 6907 bound_to 6896
  152.5302  133.9856  159.7837 H   0  0  0  0  0  0  0  0  0  0  0  0  # atno 6908 bound_to 6896
  151.0139  133.5888  159.2710 H   0  0  0  0  0  0  0  0  0  0  0  0  # atno 6909 bound_to 6896
  144.7881  140.4870  143.5792 H   0  0  0  0  0  0  0  0  0  0  0  0  # atno 7974 bound_to 7965
  154.4429  140.1026  156.6373 H   0  0  0  0  0  0  0  0  0  0  0  0  # atno 8008 bound_to 7997
  155.5540  140.3486  155.4457 H   0  0  0  0  0  0  0  0  0  0  0  0  # atno 8009 bound_to 7997
  156.0508  140.1303  157.0041 H   0  0  0  0  0  0  0  0  0  0  0  0  # atno 8010 bound_to 7997
  139.5991  144.1048  152.1723 H   0  0  0  0  0  0  0  0  0  0  0  0  # atno 10167 bound_to 10162
  157.5169  130.8538  149.8507 H   0  0  0  0  0  0  0  0  0  0  0  0  # atno 10718 bound_to 10713
  154.8662  135.4176  154.2580 H   0  0  0  0  0  0  0  0  0  0  0  0  # atno 10763 bound_to 10752
  153.3514  135.6999  153.6791 H   0  0  0  0  0  0  0  0  0  0  0  0  # atno 10764 bound_to 10752
  153.5730  135.3587  155.2818 H   0  0  0  0  0  0  0  0  0  0  0  0  # atno 10765 bound_to 10752
  139.8773  134.9184  156.4912 H   0  0  0  0  0  0  0  0  0  0  0  0  # atno 11005 bound_to 11000
  145.5867  139.1492  143.3205 LP  0  0  0  0  0  0  0  0  0  0  0  0  # atno 17320 bound_to 7965
  146.2121  140.5995  142.9054 LP  0  0  0  0  0  0  0  0  0  0  0  0  # atno 17321 bound_to 7965
  140.0640  144.5833  150.7241 LP  0  0  0  0  0  0  0  0  0  0  0  0  # atno 17342 bound_to 10162
  140.7236  143.2613  151.4197 LP  0  0  0  0  0  0  0  0  0  0  0  0  # atno 17343 bound_to 10162
  156.0326  130.3760  150.1645 LP  0  0  0  0  0  0  0  0  0  0  0  0  # atno 17370 bound_to 10713
  156.9834  130.9871  151.3432 LP  0  0  0  0  0  0  0  0  0  0  0  0  # atno 17371 bound_to 10713
  140.8657  133.8026  155.9311 LP  0  0  0  0  0  0  0  0  0  0  0  0  # atno 17394 bound_to 11000
  140.9004  134.2385  157.5045 LP  0  0  0  0  0  0  0  0  0  0  0  0  # atno 17395 bound_to 11000

$$$$
