AV-unprocessed.smi:1116|AV-procd|sdf|4812|dock6
  -GOLD-   22720 3363D 1   1.00000     0.00000
 Structure written by MMmdl.
 35 36  0  0  0  0  0  0  0  0  2 V2000
  153.4496  142.3093  160.7978 C   0  0  0  0  0  0  0  0  0  0  0  0
  152.5715  142.8044  159.7003 C   0  0  0  0  0  0  0  0  0  0  0  0
  151.8207  142.0056  158.9372 N   0  0  0  0  0  0  0  0  0  0  0  0
  151.0906  142.7108  157.9751 C   0  0  0  0  0  0  0  0  0  0  0  0
  150.1992  141.9737  157.0222 C   0  0  0  0  0  0  0  0  0  0  0  0
  150.9843  141.3627  155.8496 C   0  0  0  0  0  0  0  0  0  0  0  0
  150.8412  139.9120  155.8017 N   0  0  0  0  0  0  0  0  0  0  0  0
  151.7320  139.0341  156.2879 C   0  0  0  0  0  0  0  0  0  0  0  0
  152.7880  139.3726  156.8231 O   0  0  0  0  0  0  0  0  0  0  0  0
  151.3786  137.5517  156.1372 C   0  0  0  0  0  0  0  0  0  0  0  0
  149.9212  137.2436  156.5311 C   0  0  0  0  0  0  0  0  0  0  0  0
  149.5488  137.7830  157.9262 C   0  0  1  0  0  0  0  0  0  0  0  0
  148.4660  137.0199  158.5086 N   0  0  0  0  0  0  0  0  0  0  0  0
  148.8222  136.4829  159.6738 C   0  0  0  0  0  0  0  0  0  0  0  0
  148.0399  135.8097  160.3409 O   0  0  0  0  0  0  0  0  0  0  0  0
  150.1030  136.7913  159.9553 N   0  5  0  0  0  0  0  0  0  0  0  0
  150.6351  137.5563  158.9777 C   0  0  0  0  0  0  0  0  0  0  0  0
  151.7622  138.0362  158.8677 O   0  0  0  0  0  0  0  0  0  0  0  0
  151.2981  144.0669  158.0251 C   0  0  0  0  0  0  0  0  0  0  0  0
  152.4214  144.5068  159.2820 S   0  0  0  0  0  0  0  0  0  0  0  0
  153.5484  141.2243  160.7510 H   0  0  0  0  0  0  0  0  0  0  0  0
  153.0263  142.5817  161.7646 H   0  0  0  0  0  0  0  0  0  0  0  0
  154.4415  142.7531  160.7110 H   0  0  0  0  0  0  0  0  0  0  0  0
  149.6627  141.1854  157.5520 H   0  0  0  0  0  0  0  0  0  0  0  0
  149.4336  142.6494  156.6388 H   0  0  0  0  0  0  0  0  0  0  0  0
  150.6617  141.8023  154.9041 H   0  0  0  0  0  0  0  0  0  0  0  0
  152.0450  141.5940  155.9517 H   0  0  0  0  0  0  0  0  0  0  0  0
  150.0012  139.5493  155.3746 H   0  0  0  0  0  0  0  0  0  0  0  0
  151.5511  137.2384  155.1062 H   0  0  0  0  0  0  0  0  0  0  0  0
  152.0660  136.9758  156.7576 H   0  0  0  0  0  0  0  0  0  0  0  0
  149.2347  137.6485  155.7851 H   0  0  0  0  0  0  0  0  0  0  0  0
  149.7766  136.1619  156.5199 H   0  0  0  0  0  0  0  0  0  0  0  0
  149.2880  138.8417  157.8894 H   0  0  0  0  0  0  0  0  0  0  0  0
  147.5547  136.9294  158.0847 H   0  0  0  0  0  0  0  0  0  0  0  0
  150.8612  144.8311  157.3991 H   0  0  0  0  0  0  0  0  0  0  0  0
  1  2  1  0  0  0  0
  1 21  1  0  0  0  0
  1 22  1  0  0  0  0
  1 23  1  0  0  0  0
  2 20  1  0  0  0  0
  2  3  2  0  0  0  0
  3  4  1  0  0  0  0
  4  5  1  0  0  0  0
  4 19  2  0  0  0  0
  5  6  1  0  0  0  0
  5 24  1  0  0  0  0
  5 25  1  0  0  0  0
  6  7  1  0  0  0  0
  6 26  1  0  0  0  0
  6 27  1  0  0  0  0
  7  8  1  0  0  0  0
  7 28  1  0  0  0  0
  8  9  2  0  0  0  0
  8 10  1  0  0  0  0
 10 11  1  0  0  0  0
 10 29  1  0  0  0  0
 10 30  1  0  0  0  0
 11 12  1  0  0  0  0
 11 31  1  0  0  0  0
 11 32  1  0  0  0  0
 12 17  1  0  0  0  0
 12 13  1  0  0  0  0
 12 33  1  0  0  0  0
 13 14  1  0  0  0  0
 13 34  1  0  0  0  0
 14 15  2  0  0  0  0
 14 16  1  0  0  0  0
 16 17  1  0  0  0  0
 17 18  2  0  0  0  0
 19 20  1  0  0  0  0
 19 35  1  0  0  0  0
M  CHG  1  16  -1
M  END
> <s_m_source_file>
AV-unprocessed.smi

> <i_m_source_file_index>
1116

> <i_lp_mmshare_version>
43012

> <i_f3d_flags>
0

> <s_epik_input>
W0NIM11jMW5jKFtjSF1zMSlbQ0gyXVtDSDJdW05IXUMoPU8pW0NIMl1bQ0gyXVtDQEBIXTJbTkhdQyg9TylbTkhdQzI9Tw==

> <s_epik_cmdline>
J2VwaWtfcHl0aG9uJywgJy1waCcsICc3LjAnLCAnLXRuJywgJzgnLCAnLW1hJywgJzIwMCcsICctbWV0YWxfYmluZGluZycsICctaW1hZScsICc8aW5maWxlLm1hZT4nLCAnLW9tYWUnLCAnPG91dGZpbGUubWFlPic=

> <r_lp_tautomer_probability>
1

> <r_epik_Ionization_Penalty>
2.5713

> <r_epik_Ionization_Penalty_Charging>
2.57023

> <r_epik_Ionization_Penalty_Neutral>
0.00106405

> <r_epik_State_Penalty>
2.56828

> <r_epik_Charging_Adjusted_Penalty>
5.13851

> <i_epik_Tot_Q>
-1

> <i_epik_Tot_abs_Q>
1

> <r_epik_Metal_State_Penalty>
0.44525

> <b_epik_Metal_Only>
1

> <s_lp_Force_Field>
OPLS_2005

> <r_lp_Energy>
2.19092

> <b_lp_Chiralities_Consistent>
1

> <s_lp_Variant>
AV-unprocessed.smi:1116-6

> <Gold.Version>
5.8.1

> <Gold.Id.Protein>
6NUR|6NUR_protein|mol2

> <Gold.PLP.Fitness>
42.8221

> <Gold.PLP.PLP>
-33.2245

> <Gold.PLP.part.hbond>
-2.6264

> <Gold.PLP.part.metal>
0.0000

> <Gold.PLP.part.buried>
-5.0412

> <Gold.PLP.part.nonpolar>
-26.3550

> <Gold.PLP.part.repulsive>
0.2206

> <Gold.PLP.ligand.clash>
0.0000

> <Gold.PLP.ligand.torsion>
1.2292

> <Gold.PLP.Chemscore.Hbond>
3.0000

> <Gold.PLP.Chemscore.CHOScore>
0.9998

> <Gold.PLP.Chemscore.Metal>
0.0000

> <Gold.Chemscore.Hbonds>
donor molecule, donor type, donor heavy atom, donor atom, acceptor molecule, acceptor atom, score
      P1  H  6896  6908       L1    16  2.00
      P1  H  7997  8008       L1     9  1.00
      L1  C    19    35       P1  8028  0.85

> <Gold.PLP.Chemscore.Internal.Correction>
0.0566

> <Gold.Rescore>
     Score         DG    S(hbond)    S(metal)    S(lipo)     H(rot)  DE(clash)    DE(int)     intcor
      9.67     -14.38       1.96        0.00      80.73       2.77       0.02       4.69       ----

> <Gold.Chemscore.Fitness>
9.6681

> <Gold.Chemscore.DG>
-14.3788

> <Gold.Chemscore.ZeroCoef>
-5.4800

> <Gold.Chemscore.Hbond>
1.9589

> <Gold.Chemscore.Metal>
0.0000

> <Gold.Chemscore.Lipo>
80.7269

> <Gold.Chemscore.Internal_Hbond>
0.0000

> <Gold.Chemscore.DEClash>
0.0241

> <Gold.Chemscore.DEInternal>
4.6867

> <Gold.Chemscore.Rot>
2.7691

> <Gold.Chemscore.Internal.Correction>
   9.000000E+99

> <Gold.Chemscore.Hbonds>
donor molecule, donor type, donor heavy atom, donor atom, acceptor molecule, acceptor atom, score
      P1  H  6896  6908       L1    16  0.24
      P1  H  7997  8008       L1     9  1.00

> <Gold.Chemscore.Hbond.Weighted>
-6.5427

> <Gold.Chemscore.Metal.Weighted>
-0.0000

> <Gold.Chemscore.Lipo.Weighted>
-9.4450

> <Gold.Chemscore.Internal_Hbond.Weighted>
0.0000

> <Gold.Chemscore.DEClash.Weighted>
0.0241

> <Gold.Chemscore.DEInternal.Weighted>
4.6867

> <Gold.Chemscore.Rot.Weighted>
7.0889

> <Gold.Chemscore.Internal.Correction.Weighted>
   9.000000E+99

> <Gold.Protein.RotatedTorsions>
[ 6907 6896 6895 6894 ] final -150.00 input  -60.11 | X-H torsion
[ 7974 7965 7964 7962 ] final -160.68 input  175.53 | X-H torsion
[ 8008 7997 7996 7995 ] final  -56.02 input   59.86 | X-H torsion
[ 10167 10162 10161 10158 ] final  107.54 input  -65.29 | X-H torsion
[ 10718 10713 10712 10709 ] final   -5.50 input   66.30 | X-H torsion
[ 10763 10752 10751 10750 ] final   -8.27 input  -60.55 | X-H torsion
[ 11005 11000 10999 10996 ] final  105.56 input  -57.11 | X-H torsion

> <Gold.Protein.ActiveResidues>
 VAL166  LYS551  ARG553  GLY616  TRP617  ASP618  TYR619  PRO620  LYS621  CYS622 
 ASP623  PHE694  ASN695  SER759  ASP760  ASP761  ALA762  ILE779  LEU786  VAL792 
 PHE793  MET794  SER795  GLU796  ALA797  LYS798  CYS799  TRP800  GLU811  SER814 

> <Gold.Protein.RotatedAtoms>
  151.1922  133.4661  159.2594 H   0  0  0  0  0  0  0  0  0  0  0  0  # atno 6907 bound_to 6896
  151.1153  135.0049  159.8523 H   0  0  0  0  0  0  0  0  0  0  0  0  # atno 6908 bound_to 6896
  152.5453  134.1837  159.8699 H   0  0  0  0  0  0  0  0  0  0  0  0  # atno 6909 bound_to 6896
  144.7418  140.3506  143.6116 H   0  0  0  0  0  0  0  0  0  0  0  0  # atno 7974 bound_to 7965
  154.4215  140.1139  156.5570 H   0  0  0  0  0  0  0  0  0  0  0  0  # atno 8008 bound_to 7997
  155.6351  140.3496  155.4677 H   0  0  0  0  0  0  0  0  0  0  0  0  # atno 8009 bound_to 7997
  155.9917  140.1181  157.0622 H   0  0  0  0  0  0  0  0  0  0  0  0  # atno 8010 bound_to 7997
  139.6919  144.7106  151.1334 H   0  0  0  0  0  0  0  0  0  0  0  0  # atno 10167 bound_to 10162
  156.7456  130.5223  149.5815 H   0  0  0  0  0  0  0  0  0  0  0  0  # atno 10718 bound_to 10713
  153.4381  135.7013  153.6187 H   0  0  0  0  0  0  0  0  0  0  0  0  # atno 10763 bound_to 10752
  153.4573  135.3744  155.2318 H   0  0  0  0  0  0  0  0  0  0  0  0  # atno 10764 bound_to 10752
  154.8727  135.4011  154.3775 H   0  0  0  0  0  0  0  0  0  0  0  0  # atno 10765 bound_to 10752
  139.8803  134.9340  156.5533 H   0  0  0  0  0  0  0  0  0  0  0  0  # atno 11005 bound_to 11000
  145.7280  139.1728  143.2447 LP  0  0  0  0  0  0  0  0  0  0  0  0  # atno 17320 bound_to 7965
  146.1228  140.7287  142.9449 LP  0  0  0  0  0  0  0  0  0  0  0  0  # atno 17321 bound_to 7965
  140.7685  143.5548  150.9165 LP  0  0  0  0  0  0  0  0  0  0  0  0  # atno 17342 bound_to 10162
  139.9225  143.6589  152.3094 LP  0  0  0  0  0  0  0  0  0  0  0  0  # atno 17343 bound_to 10162
  156.1435  130.6261  151.0500 LP  0  0  0  0  0  0  0  0  0  0  0  0  # atno 17370 bound_to 10713
  157.6799  131.0840  150.7396 LP  0  0  0  0  0  0  0  0  0  0  0  0  # atno 17371 bound_to 10713
  140.8223  133.8343  155.8907 LP  0  0  0  0  0  0  0  0  0  0  0  0  # atno 17394 bound_to 11000
  140.9406  134.1905  157.4800 LP  0  0  0  0  0  0  0  0  0  0  0  0  # atno 17395 bound_to 11000

$$$$
