AV-unprocessed.smi:304|AV-procd|sdf|2279|dock5
  -GOLD-   2262022173D 1   1.00000     0.00000
 Structure written by MMmdl.
 37 39  0  0  0  0  0  0  0  0  2 V2000
  151.4190  140.1145  155.2118 O   0  0  0  0  0  0  0  0  0  0  0  0
  150.9932  141.0644  156.1690 C   0  0  1  0  0  0  0  0  0  0  0  0
  149.5373  140.7559  156.5499 C   0  0  0  0  0  0  0  0  0  0  0  0
  148.6982  141.7318  155.9563 O   0  0  0  0  0  0  0  0  0  0  0  0
  147.7205  141.1706  155.0961 C   0  0  0  0  0  0  0  0  0  0  0  0
  146.6639  142.2059  154.8823 C   0  0  0  0  0  0  0  0  0  0  0  0
  146.4280  142.9228  153.7368 C   0  0  0  0  0  0  0  0  0  0  0  0
  145.3506  143.8482  153.8630 C   0  0  0  0  0  0  0  0  0  0  0  0
  144.7817  143.8347  155.1086 C   0  0  0  0  0  0  0  0  0  0  0  0
  145.5622  142.6806  156.1549 S   0  0  0  0  0  0  0  0  0  0  0  0
  151.9358  140.9997  157.3870 C   0  0  0  0  0  0  0  0  0  0  0  0
  151.6856  142.0742  158.3569 N   0  0  0  0  0  0  0  0  0  0  0  0
  150.9193  143.1931  158.2447 C   0  0  0  0  0  0  0  0  0  0  0  0
  151.0063  143.8700  159.4235 N   0  3  0  0  0  0  0  0  0  0  0  0
  151.8402  143.1732  160.3013 C   0  0  0  0  0  0  0  0  0  0  0  0
  152.2342  143.4566  161.6050 C   0  0  0  0  0  0  0  0  0  0  0  0
  153.1004  142.5300  162.2225 C   0  0  0  0  0  0  0  0  0  0  0  0
  153.5166  142.7585  163.4905 F   0  0  0  0  0  0  0  0  0  0  0  0
  153.5403  141.3724  161.5456 C   0  0  0  0  0  0  0  0  0  0  0  0
  154.3700  140.5078  162.1759 F   0  0  0  0  0  0  0  0  0  0  0  0
  153.1336  141.0956  160.2237 C   0  0  0  0  0  0  0  0  0  0  0  0
  152.2797  142.0181  159.6215 C   0  0  0  0  0  0  0  0  0  0  0  0
  151.9852  139.4916  155.6423 H   0  0  0  0  0  0  0  0  0  0  0  0
  151.0494  142.0595  155.7258 H   0  0  0  0  0  0  0  0  0  0  0  0
  149.2528  139.7461  156.2484 H   0  0  0  0  0  0  0  0  0  0  0  0
  149.4196  140.8167  157.6331 H   0  0  0  0  0  0  0  0  0  0  0  0
  148.1671  140.8898  154.1413 H   0  0  0  0  0  0  0  0  0  0  0  0
  147.2880  140.2741  155.5428 H   0  0  0  0  0  0  0  0  0  0  0  0
  146.9853  142.8137  152.8183 H   0  0  0  0  0  0  0  0  0  0  0  0
  145.0366  144.4831  153.0479 H   0  0  0  0  0  0  0  0  0  0  0  0
  143.9582  144.4299  155.4744 H   0  0  0  0  0  0  0  0  0  0  0  0
  151.8456  140.0428  157.9028 H   0  0  0  0  0  0  0  0  0  0  0  0
  152.9755  141.0819  157.0670 H   0  0  0  0  0  0  0  0  0  0  0  0
  150.3422  143.4864  157.3794 H   0  0  0  0  0  0  0  0  0  0  0  0
  151.8987  144.3406  162.1271 H   0  0  0  0  0  0  0  0  0  0  0  0
  153.4738  140.2063  159.7147 H   0  0  0  0  0  0  0  0  0  0  0  0
  150.5280  144.7419  159.6121 H   0  0  0  0  0  0  0  0  0  0  0  0
  1  2  1  0  0  0  0
  1 23  1  0  0  0  0
  2  3  1  0  0  0  0
  2 11  1  0  0  0  0
  2 24  1  0  0  0  0
  3  4  1  0  0  0  0
  3 25  1  0  0  0  0
  3 26  1  0  0  0  0
  4  5  1  0  0  0  0
  5  6  1  0  0  0  0
  5 27  1  0  0  0  0
  5 28  1  0  0  0  0
  6 10  1  0  0  0  0
  6  7  2  0  0  0  0
  7  8  1  0  0  0  0
  7 29  1  0  0  0  0
  8  9  2  0  0  0  0
  8 30  1  0  0  0  0
  9 10  1  0  0  0  0
  9 31  1  0  0  0  0
 11 12  1  0  0  0  0
 11 32  1  0  0  0  0
 11 33  1  0  0  0  0
 12 22  1  0  0  0  0
 12 13  1  0  0  0  0
 13 14  2  0  0  0  0
 13 34  1  0  0  0  0
 14 15  1  0  0  0  0
 14 37  1  0  0  0  0
 15 22  2  0  0  0  0
 15 16  1  0  0  0  0
 16 17  2  0  0  0  0
 16 35  1  0  0  0  0
 17 18  1  0  0  0  0
 17 19  1  0  0  0  0
 19 20  1  0  0  0  0
 19 21  2  0  0  0  0
 21 22  1  0  0  0  0
 21 36  1  0  0  0  0
M  CHG  1  14   1
M  END
> <s_m_source_file>
AV-unprocessed.smi

> <i_m_source_file_index>
304

> <i_lp_mmshare_version>
43012

> <i_f3d_flags>
0

> <s_epik_input>
W2NIXTFjKEYpYyhGKVtjSF1jKGMxMiluKFtjSF1uMilbQ0gyXVtDQEhdKFtPSF0pW0NIMl1PW0NIMl1jM1tjSF1bY0hdW2NIXXMz

> <s_epik_cmdline>
J2VwaWtfcHl0aG9uJywgJy1waCcsICc3LjAnLCAnLXRuJywgJzgnLCAnLW1hJywgJzIwMCcsICctbWV0YWxfYmluZGluZycsICctaW1hZScsICc8aW5maWxlLm1hZT4nLCAnLW9tYWUnLCAnPG91dGZpbGUubWFlPic=

> <r_epik_Ionization_Penalty>
2.17745

> <r_epik_Ionization_Penalty_Charging>
2.17744

> <r_epik_Ionization_Penalty_Neutral>
1.26231e-06

> <r_epik_State_Penalty>
2.31922

> <r_epik_Charging_Adjusted_Penalty>
4.49666

> <i_epik_Tot_Q>
1

> <i_epik_Tot_abs_Q>
1

> <r_epik_Metal_State_Penalty>
6.40003

> <b_epik_Metal_Only>
0

> <s_lp_Force_Field>
OPLS_2005

> <r_lp_Energy>
12.5781

> <b_lp_Chiralities_Consistent>
1

> <s_lp_Variant>
AV-unprocessed.smi:304-4

> <Gold.Version>
5.8.1

> <Gold.Id.Protein>
6NUR|6NUR_protein|mol2

> <Gold.PLP.Fitness>
56.5860

> <Gold.PLP.PLP>
-53.2000

> <Gold.PLP.part.hbond>
-1.0000

> <Gold.PLP.part.metal>
0.0000

> <Gold.PLP.part.buried>
-8.9896

> <Gold.PLP.part.nonpolar>
-43.5240

> <Gold.PLP.part.repulsive>
0.9470

> <Gold.PLP.ligand.clash>
0.0000

> <Gold.PLP.ligand.torsion>
1.3731

> <Gold.PLP.Chemscore.Hbond>
1.0000

> <Gold.PLP.Chemscore.CHOScore>
1.0000

> <Gold.PLP.Chemscore.Metal>
0.0000

> <Gold.Chemscore.Hbonds>
donor molecule, donor type, donor heavy atom, donor atom, acceptor molecule, acceptor atom, score
      P1  H  7989  7998       L1     1  1.00
      L1  C    13    34       P1  8028  0.94

> <Gold.PLP.Chemscore.Internal.Correction>
0.1322

> <Gold.Rescore>
     Score         DG    S(hbond)    S(metal)    S(lipo)     H(rot)  DE(clash)    DE(int)     intcor
     12.86     -14.51       0.81        0.00     113.73       2.73       0.38       1.27       ----

> <Gold.Chemscore.Fitness>
12.8627

> <Gold.Chemscore.DG>
-14.5122

> <Gold.Chemscore.ZeroCoef>
-5.4800

> <Gold.Chemscore.Hbond>
0.8095

> <Gold.Chemscore.Metal>
0.0000

> <Gold.Chemscore.Lipo>
113.7302

> <Gold.Chemscore.Internal_Hbond>
0.0000

> <Gold.Chemscore.DEClash>
0.3788

> <Gold.Chemscore.DEInternal>
1.2707

> <Gold.Chemscore.Rot>
2.7258

> <Gold.Chemscore.Internal.Correction>
   9.000000E+99

> <Gold.Chemscore.Hbonds>
donor molecule, donor type, donor heavy atom, donor atom, acceptor molecule, acceptor atom, score
      P1  H  7989  7998       L1     1  0.79

> <Gold.Chemscore.Hbond.Weighted>
-2.7038

> <Gold.Chemscore.Metal.Weighted>
-0.0000

> <Gold.Chemscore.Lipo.Weighted>
-13.3064

> <Gold.Chemscore.Internal_Hbond.Weighted>
0.0000

> <Gold.Chemscore.DEClash.Weighted>
0.3788

> <Gold.Chemscore.DEInternal.Weighted>
1.2707

> <Gold.Chemscore.Rot.Weighted>
6.9781

> <Gold.Chemscore.Internal.Correction.Weighted>
   9.000000E+99

> <Gold.Protein.RotatedTorsions>
[ 6907 6896 6895 6894 ] final  123.16 input  -60.11 | X-H torsion
[ 7974 7965 7964 7962 ] final  -80.09 input  175.53 | X-H torsion
[ 8008 7997 7996 7995 ] final  -72.30 input   59.86 | X-H torsion
[ 10167 10162 10161 10158 ] final   80.38 input  -65.29 | X-H torsion
[ 10718 10713 10712 10709 ] final  -88.61 input   66.30 | X-H torsion
[ 10763 10752 10751 10750 ] final  -53.75 input  -60.55 | X-H torsion
[ 11005 11000 10999 10996 ] final  -98.48 input  -57.11 | X-H torsion

> <Gold.Protein.ActiveResidues>
 VAL166  LYS551  ARG553  GLY616  TRP617  ASP618  TYR619  PRO620  LYS621  CYS622 
 ASP623  PHE694  ASN695  SER759  ASP760  ASP761  ALA762  ILE779  LEU786  VAL792 
 PHE793  MET794  SER795  GLU796  ALA797  LYS798  CYS799  TRP800  GLU811  SER814 

> <Gold.Protein.RotatedAtoms>
  152.4185  133.7077  159.6460 H   0  0  0  0  0  0  0  0  0  0  0  0  # atno 6907 bound_to 6896
  150.8061  133.8496  159.3210 H   0  0  0  0  0  0  0  0  0  0  0  0  # atno 6908 bound_to 6896
  151.6220  135.1033  160.0155 H   0  0  0  0  0  0  0  0  0  0  0  0  # atno 6909 bound_to 6896
  145.5646  140.9476  143.1429 H   0  0  0  0  0  0  0  0  0  0  0  0  # atno 7974 bound_to 7965
  154.5155  140.0800  156.8073 H   0  0  0  0  0  0  0  0  0  0  0  0  # atno 8008 bound_to 7997
  155.3690  140.3422  155.4224 H   0  0  0  0  0  0  0  0  0  0  0  0  # atno 8009 bound_to 7997
  156.1622  140.1592  156.8579 H   0  0  0  0  0  0  0  0  0  0  0  0  # atno 8010 bound_to 7997
  139.9504  144.6030  150.8167 H   0  0  0  0  0  0  0  0  0  0  0  0  # atno 10167 bound_to 10162
  155.9983  130.4842  150.5045 H   0  0  0  0  0  0  0  0  0  0  0  0  # atno 10718 bound_to 10713
  154.1638  135.6470  153.4992 H   0  0  0  0  0  0  0  0  0  0  0  0  # atno 10763 bound_to 10752
  153.0103  135.5367  154.6684 H   0  0  0  0  0  0  0  0  0  0  0  0  # atno 10764 bound_to 10752
  154.6004  135.2943  155.0513 H   0  0  0  0  0  0  0  0  0  0  0  0  # atno 10765 bound_to 10752
  141.1343  133.8249  157.0846 H   0  0  0  0  0  0  0  0  0  0  0  0  # atno 11005 bound_to 11000
  144.7467  139.7302  143.7289 LP  0  0  0  0  0  0  0  0  0  0  0  0  # atno 17320 bound_to 7965
  146.1827  139.5028  142.9856 LP  0  0  0  0  0  0  0  0  0  0  0  0  # atno 17321 bound_to 7965
  140.7585  143.3108  151.2850 LP  0  0  0  0  0  0  0  0  0  0  0  0  # atno 17342 bound_to 10162
  139.6633  144.0150  152.2707 LP  0  0  0  0  0  0  0  0  0  0  0  0  # atno 17343 bound_to 10162
  157.3025  131.0648  151.2058 LP  0  0  0  0  0  0  0  0  0  0  0  0  # atno 17370 bound_to 10713
  157.3032  130.6853  149.6175 LP  0  0  0  0  0  0  0  0  0  0  0  0  # atno 17371 bound_to 10713
  140.0430  134.9844  157.0997 LP  0  0  0  0  0  0  0  0  0  0  0  0  # atno 17394 bound_to 11000
  140.4105  134.1986  155.7163 LP  0  0  0  0  0  0  0  0  0  0  0  0  # atno 17395 bound_to 11000

$$$$
