AV-unprocessed.smi:644|AV-procd|sdf|3158|dock2
  -GOLD-   22720 0 83D 1   1.00000     0.00000
 Structure written by MMmdl.
 38 40  0  0  0  0  0  0  0  0  2 V2000
  151.9752  145.2055  160.4035 C   0  0  0  0  0  0  0  0  0  0  0  0
  151.8388  143.9869  159.5065 C   0  0  0  0  0  0  0  0  0  0  0  0
  151.1243  144.1181  158.2940 C   0  0  0  0  0  0  0  0  0  0  0  0
  151.0153  142.9853  157.4961 C   0  0  0  0  0  0  0  0  0  0  0  0
  150.3848  142.7883  156.2652 N   0  3  0  0  0  0  0  0  0  0  0  0
  150.5478  141.4940  155.8732 C   0  0  0  0  0  0  0  0  0  0  0  0
  151.2739  140.8633  156.8356 N   0  0  0  0  0  0  0  0  0  0  0  0
  151.7237  139.4678  156.9180 C   0  0  0  0  0  0  0  0  0  0  0  0
  151.9434  138.8302  155.5326 C   0  0  1  0  0  0  0  0  0  0  0  0
  153.2058  139.2243  155.0293 O   0  0  0  0  0  0  0  0  0  0  0  0
  151.8726  137.2962  155.5877 C   0  0  0  0  0  0  0  0  0  0  0  0
  150.2361  136.6733  155.0931 S   0  0  0  0  0  0  0  0  0  0  0  0
  150.2671  135.0792  155.8488 C   0  0  0  0  0  0  0  0  0  0  0  0
  150.4666  134.8454  157.1541 N   0  0  0  0  0  0  0  0  0  0  0  0
  150.4377  133.4911  157.4590 N   0  0  0  0  0  0  0  0  0  0  0  0
  150.2167  132.7502  156.3705 C   0  0  0  0  0  0  0  0  0  0  0  0
  150.0233  133.6372  154.8701 S   0  0  0  0  0  0  0  0  0  0  0  0
  151.5883  141.7536  157.8669 C   0  0  0  0  0  0  0  0  0  0  0  0
  152.2959  141.6064  159.0570 C   0  0  0  0  0  0  0  0  0  0  0  0
  152.4171  142.7467  159.8830 C   0  0  0  0  0  0  0  0  0  0  0  0
  153.1825  142.6165  161.1891 C   0  0  0  0  0  0  0  0  0  0  0  0
  151.4740  146.0742  159.9757 H   0  0  0  0  0  0  0  0  0  0  0  0
  153.0255  145.4624  160.5436 H   0  0  0  0  0  0  0  0  0  0  0  0
  151.5317  145.0134  161.3808 H   0  0  0  0  0  0  0  0  0  0  0  0
  150.6806  145.0586  158.0015 H   0  0  0  0  0  0  0  0  0  0  0  0
  150.1657  141.0471  154.9666 H   0  0  0  0  0  0  0  0  0  0  0  0
  152.6508  139.4552  157.4930 H   0  0  0  0  0  0  0  0  0  0  0  0
  150.9917  138.9041  157.4979 H   0  0  0  0  0  0  0  0  0  0  0  0
  151.1795  139.1942  154.8447 H   0  0  0  0  0  0  0  0  0  0  0  0
  153.3496  138.7833  154.2054 H   0  0  0  0  0  0  0  0  0  0  0  0
  152.6391  136.8584  154.9466 H   0  0  0  0  0  0  0  0  0  0  0  0
  152.0724  136.9594  156.6055 H   0  0  0  0  0  0  0  0  0  0  0  0
  150.1675  131.6745  156.4517 H   0  0  0  0  0  0  0  0  0  0  0  0
  152.7342  140.6616  159.3427 H   0  0  0  0  0  0  0  0  0  0  0  0
  153.5527  141.6015  161.3354 H   0  0  0  0  0  0  0  0  0  0  0  0
  152.5406  142.8613  162.0356 H   0  0  0  0  0  0  0  0  0  0  0  0
  154.0409  143.2887  161.1986 H   0  0  0  0  0  0  0  0  0  0  0  0
  149.8777  143.4824  155.7313 H   0  0  0  0  0  0  0  0  0  0  0  0
  1  2  1  0  0  0  0
  1 22  1  0  0  0  0
  1 23  1  0  0  0  0
  1 24  1  0  0  0  0
  2 20  1  0  0  0  0
  2  3  2  0  0  0  0
  3  4  1  0  0  0  0
  3 25  1  0  0  0  0
  4 18  2  0  0  0  0
  4  5  1  0  0  0  0
  5  6  2  0  0  0  0
  5 38  1  0  0  0  0
  6  7  1  0  0  0  0
  6 26  1  0  0  0  0
  7  8  1  0  0  0  0
  7 18  1  0  0  0  0
  8  9  1  0  0  0  0
  8 27  1  0  0  0  0
  8 28  1  0  0  0  0
  9 10  1  0  0  0  0
  9 11  1  0  0  0  0
  9 29  1  0  0  0  0
 10 30  1  0  0  0  0
 11 12  1  0  0  0  0
 11 31  1  0  0  0  0
 11 32  1  0  0  0  0
 12 13  1  0  0  0  0
 13 17  1  0  0  0  0
 13 14  2  0  0  0  0
 14 15  1  0  0  0  0
 15 16  2  0  0  0  0
 16 17  1  0  0  0  0
 16 33  1  0  0  0  0
 18 19  1  0  0  0  0
 19 20  2  0  0  0  0
 19 34  1  0  0  0  0
 20 21  1  0  0  0  0
 21 35  1  0  0  0  0
 21 36  1  0  0  0  0
 21 37  1  0  0  0  0
M  CHG  1   5   1
M  END
> <s_m_source_file>
AV-unprocessed.smi

> <i_m_source_file_index>
644

> <i_lp_mmshare_version>
43012

> <i_f3d_flags>
0

> <s_epik_input>
W0NIM11jKFtjSF0xKWMoW0NIM10pW2NIXWMoYzEyKW4oW2NIXW4yKVtDSDJdW0NASF0oW09IXSlbQ0gyXVNjM25uW2NIXXMz

> <s_epik_cmdline>
J2VwaWtfcHl0aG9uJywgJy1waCcsICc3LjAnLCAnLXRuJywgJzgnLCAnLW1hJywgJzIwMCcsICctbWV0YWxfYmluZGluZycsICctaW1hZScsICc8aW5maWxlLm1hZT4nLCAnLW9tYWUnLCAnPG91dGZpbGUubWFlPic=

> <r_lp_tautomer_probability>
1

> <r_epik_Ionization_Penalty>
1.07492

> <r_epik_Ionization_Penalty_Charging>
1.07491

> <r_epik_Ionization_Penalty_Neutral>
3.80549e-06

> <r_epik_State_Penalty>
1.12982

> <r_epik_Charging_Adjusted_Penalty>
2.20473

> <i_epik_Tot_Q>
1

> <i_epik_Tot_abs_Q>
1

> <r_epik_Metal_State_Penalty>
1.2206

> <b_epik_Metal_Only>
0

> <s_lp_Force_Field>
OPLS_2005

> <r_lp_Energy>
12.6095

> <b_lp_Chiralities_Consistent>
1

> <s_lp_Variant>
AV-unprocessed.smi:644-4

> <Gold.Version>
5.8.1

> <Gold.Id.Protein>
6NUR|6NUR_protein|mol2

> <Gold.PLP.Fitness>
56.2075

> <Gold.PLP.PLP>
-46.8783

> <Gold.PLP.part.hbond>
-3.8238

> <Gold.PLP.part.metal>
0.0000

> <Gold.PLP.part.buried>
-6.1995

> <Gold.PLP.part.nonpolar>
-38.0354

> <Gold.PLP.part.repulsive>
0.1081

> <Gold.PLP.ligand.clash>
0.0000

> <Gold.PLP.ligand.torsion>
1.2393

> <Gold.PLP.Chemscore.Hbond>
3.8960

> <Gold.PLP.Chemscore.CHOScore>
0.0000

> <Gold.PLP.Chemscore.Metal>
0.0000

> <Gold.Chemscore.Hbonds>
donor molecule, donor type, donor heavy atom, donor atom, acceptor molecule, acceptor atom, score
      L1  H     5    38       P1  8028  2.00
      P1  H  6896  6907       L1    15  0.90
      P1  H  7997  8008       L1    10  1.00

> <Gold.PLP.Chemscore.Internal.Correction>
0.1199

> <Gold.Rescore>
     Score         DG    S(hbond)    S(metal)    S(lipo)     H(rot)  DE(clash)    DE(int)     intcor
     20.29     -21.65       2.49        0.00     122.42       2.53       0.06       1.29       ----

> <Gold.Chemscore.Fitness>
20.2907

> <Gold.Chemscore.DG>
-21.6454

> <Gold.Chemscore.ZeroCoef>
-5.4800

> <Gold.Chemscore.Hbond>
2.4919

> <Gold.Chemscore.Metal>
0.0000

> <Gold.Chemscore.Lipo>
122.4200

> <Gold.Chemscore.Internal_Hbond>
0.0000

> <Gold.Chemscore.DEClash>
0.0614

> <Gold.Chemscore.DEInternal>
1.2934

> <Gold.Chemscore.Rot>
2.5315

> <Gold.Chemscore.Internal.Correction>
   9.000000E+99

> <Gold.Chemscore.Hbonds>
donor molecule, donor type, donor heavy atom, donor atom, acceptor molecule, acceptor atom, score
      L1  H     5    38       P1  8028  0.93
      P1  H  6896  6907       L1    15  0.23
      P1  H  7997  8008       L1    10  1.00

> <Gold.Chemscore.Hbond.Weighted>
-8.3228

> <Gold.Chemscore.Metal.Weighted>
-0.0000

> <Gold.Chemscore.Lipo.Weighted>
-14.3231

> <Gold.Chemscore.Internal_Hbond.Weighted>
0.0000

> <Gold.Chemscore.DEClash.Weighted>
0.0614

> <Gold.Chemscore.DEInternal.Weighted>
1.2934

> <Gold.Chemscore.Rot.Weighted>
6.4805

> <Gold.Chemscore.Internal.Correction.Weighted>
   9.000000E+99

> <Gold.Protein.RotatedTorsions>
[ 6907 6896 6895 6894 ] final -142.85 input  -60.11 | X-H torsion
[ 7974 7965 7964 7962 ] final -170.69 input  175.53 | X-H torsion
[ 8008 7997 7996 7995 ] final  -17.39 input   59.86 | X-H torsion
[ 10167 10162 10161 10158 ] final  135.39 input  -65.29 | X-H torsion
[ 10718 10713 10712 10709 ] final  122.39 input   66.30 | X-H torsion
[ 10763 10752 10751 10750 ] final  -54.73 input  -60.55 | X-H torsion
[ 11005 11000 10999 10996 ] final   76.87 input  -57.11 | X-H torsion

> <Gold.Protein.ActiveResidues>
 VAL166  LYS551  ARG553  GLY616  TRP617  ASP618  TYR619  PRO620  LYS621  CYS622 
 ASP623  PHE694  ASN695  SER759  ASP760  ASP761  ALA762  ILE779  LEU786  VAL792 
 PHE793  MET794  SER795  GLU796  ALA797  LYS798  CYS799  TRP800  GLU811  SER814 

> <Gold.Protein.RotatedAtoms>
  151.0926  133.5304  159.2613 H   0  0  0  0  0  0  0  0  0  0  0  0  # atno 6907 bound_to 6896
  151.2165  135.0501  159.8942 H   0  0  0  0  0  0  0  0  0  0  0  0  # atno 6908 bound_to 6896
  152.5435  134.0735  159.8258 H   0  0  0  0  0  0  0  0  0  0  0  0  # atno 6909 bound_to 6896
  144.7166  140.2034  143.6336 H   0  0  0  0  0  0  0  0  0  0  0  0  # atno 7974 bound_to 7965
  154.4982  140.2144  155.9402 H   0  0  0  0  0  0  0  0  0  0  0  0  # atno 8008 bound_to 7997
  156.1399  140.3181  155.8446 H   0  0  0  0  0  0  0  0  0  0  0  0  # atno 8009 bound_to 7997
  155.4140  140.0492  157.3020 H   0  0  0  0  0  0  0  0  0  0  0  0  # atno 8010 bound_to 7997
  139.5219  144.6519  151.5276 H   0  0  0  0  0  0  0  0  0  0  0  0  # atno 10167 bound_to 10162
  157.5746  131.1080  150.8304 H   0  0  0  0  0  0  0  0  0  0  0  0  # atno 10718 bound_to 10713
  154.1795  135.6445  153.5030 H   0  0  0  0  0  0  0  0  0  0  0  0  # atno 10763 bound_to 10752
  153.0063  135.5402  154.6529 H   0  0  0  0  0  0  0  0  0  0  0  0  # atno 10764 bound_to 10752
  154.5889  135.2932  155.0628 H   0  0  0  0  0  0  0  0  0  0  0  0  # atno 10765 bound_to 10752
  139.9279  134.7636  156.1450 H   0  0  0  0  0  0  0  0  0  0  0  0  # atno 11005 bound_to 11000
  145.8659  139.2246  143.1689 LP  0  0  0  0  0  0  0  0  0  0  0  0  # atno 17320 bound_to 7965
  146.0130  140.8418  142.9961 LP  0  0  0  0  0  0  0  0  0  0  0  0  # atno 17321 bound_to 7965
  140.6328  143.9043  150.6620 LP  0  0  0  0  0  0  0  0  0  0  0  0  # atno 17342 bound_to 10162
  140.2352  143.3705  152.1532 LP  0  0  0  0  0  0  0  0  0  0  0  0  # atno 17343 bound_to 10162
  156.8766  130.5165  149.5293 LP  0  0  0  0  0  0  0  0  0  0  0  0  # atno 17370 bound_to 10713
  156.0790  130.5805  150.9528 LP  0  0  0  0  0  0  0  0  0  0  0  0  # atno 17371 bound_to 10713
  141.0849  133.6738  156.2415 LP  0  0  0  0  0  0  0  0  0  0  0  0  # atno 17394 bound_to 11000
  140.6284  134.5289  157.5556 LP  0  0  0  0  0  0  0  0  0  0  0  0  # atno 17395 bound_to 11000

$$$$
