AV-unprocessed.smi:1199|AV-procd|sdf|5016|dock4
  -GOLD-   22720 4 33D 1   1.00000     0.00000
 Structure written by MMmdl.
 41 42  0  0  0  0  0  0  0  0  3 V2000
  146.4285  140.2309  152.9913 C   0  0  0  0  0  0  0  0  0  0  0  0
  147.0037  138.8507  152.6465 C   0  0  2  0  0  0  0  0  0  0  0  0
  146.2543  137.7159  153.3831 C   0  0  0  0  0  0  0  0  0  0  0  0
  146.3959  136.3898  152.7259 N   0  3  0  0  0  0  0  0  0  0  0  0
  146.0691  135.2609  153.6281 C   0  0  0  0  0  0  0  0  0  0  0  0
  146.3149  133.9201  152.9154 C   0  0  0  0  0  0  0  0  0  0  0  0
  145.5620  133.8672  151.7093 O   0  0  0  0  0  0  0  0  0  0  0  0
  145.9273  134.9038  150.8062 C   0  0  0  0  0  0  0  0  0  0  0  0
  145.6416  136.2675  151.4557 C   0  0  0  0  0  0  0  0  0  0  0  0
  148.4282  138.8154  152.9742 N   0  0  0  0  0  0  0  0  0  0  0  0
  148.9485  138.8637  154.2106 C   0  0  0  0  0  0  0  0  0  0  0  0
  148.2702  138.8047  155.2367 O   0  0  0  0  0  0  0  0  0  0  0  0
  150.4695  139.0257  154.2947 C   0  0  0  0  0  0  0  0  0  0  0  0
  150.8531  139.8514  155.4472 N   0  0  0  0  0  0  0  0  0  0  0  0
  151.8716  139.2323  156.2943 N   0  5  0  0  0  0  0  0  0  0  0  0
  152.3062  139.8974  157.3977 C   0  0  0  0  0  0  0  0  0  0  0  0
  153.1436  139.4331  158.1674 O   0  0  0  0  0  0  0  0  0  0  0  0
  151.7572  141.2162  157.6636 C   0  0  0  0  0  0  0  0  0  0  0  0
  150.8372  141.7721  156.8511 C   0  0  0  0  0  0  0  0  0  0  0  0
  150.3315  141.0923  155.6651 C   0  0  0  0  0  0  0  0  0  0  0  0
  149.4976  141.5996  154.9155 O   0  0  0  0  0  0  0  0  0  0  0  0
  145.3691  140.2865  152.7395 H   0  0  0  0  0  0  0  0  0  0  0  0
  146.9396  141.0186  152.4369 H   0  0  0  0  0  0  0  0  0  0  0  0
  146.5301  140.4517  154.0545 H   0  0  0  0  0  0  0  0  0  0  0  0
  146.8673  138.7124  151.5731 H   0  0  0  0  0  0  0  0  0  0  0  0
  146.6644  137.6422  154.3916 H   0  0  0  0  0  0  0  0  0  0  0  0
  145.1981  137.9627  153.5008 H   0  0  0  0  0  0  0  0  0  0  0  0
  146.6844  135.3128  154.5270 H   0  0  0  0  0  0  0  0  0  0  0  0
  145.0275  135.3340  153.9447 H   0  0  0  0  0  0  0  0  0  0  0  0
  147.3749  133.7869  152.7024 H   0  0  0  0  0  0  0  0  0  0  0  0
  146.0141  133.0916  153.5565 H   0  0  0  0  0  0  0  0  0  0  0  0
  146.9793  134.8151  150.5301 H   0  0  0  0  0  0  0  0  0  0  0  0
  145.3471  134.7952  149.8900 H   0  0  0  0  0  0  0  0  0  0  0  0
  144.5734  136.3746  151.6494 H   0  0  0  0  0  0  0  0  0  0  0  0
  145.9194  137.0621  150.7650 H   0  0  0  0  0  0  0  0  0  0  0  0
  149.0732  138.8474  152.1976 H   0  0  0  0  0  0  0  0  0  0  0  0
  150.9256  138.0357  154.3418 H   0  0  0  0  0  0  0  0  0  0  0  0
  150.8513  139.4783  153.3774 H   0  0  0  0  0  0  0  0  0  0  0  0
  152.0955  141.7639  158.5310 H   0  0  0  0  0  0  0  0  0  0  0  0
  150.4578  142.7551  157.0872 H   0  0  0  0  0  0  0  0  0  0  0  0
  147.3751  136.2890  152.4939 H   0  0  0  0  0  0  0  0  0  0  0  0
  1  2  1  0  0  0  0
  1 22  1  0  0  0  0
  1 23  1  0  0  0  0
  1 24  1  0  0  0  0
  2  3  1  0  0  0  0
  2 10  1  0  0  0  0
  2 25  1  0  0  0  0
  3  4  1  0  0  0  0
  3 26  1  0  0  0  0
  3 27  1  0  0  0  0
  4  9  1  0  0  0  0
  4  5  1  0  0  0  0
  4 41  1  0  0  0  0
  5  6  1  0  0  0  0
  5 28  1  0  0  0  0
  5 29  1  0  0  0  0
  6  7  1  0  0  0  0
  6 30  1  0  0  0  0
  6 31  1  0  0  0  0
  7  8  1  0  0  0  0
  8  9  1  0  0  0  0
  8 32  1  0  0  0  0
  8 33  1  0  0  0  0
  9 34  1  0  0  0  0
  9 35  1  0  0  0  0
 10 11  1  0  0  0  0
 10 36  1  0  0  0  0
 11 12  2  0  0  0  0
 11 13  1  0  0  0  0
 13 37  1  0  0  0  0
 13 38  1  0  0  0  0
 13 14  1  0  0  0  0
 14 15  1  0  0  0  0
 14 20  1  0  0  0  0
 15 16  1  0  0  0  0
 16 17  2  0  0  0  0
 16 18  1  0  0  0  0
 18 39  1  0  0  0  0
 18 19  2  0  0  0  0
 19 40  1  0  0  0  0
 19 20  1  0  0  0  0
 20 21  2  0  0  0  0
M  CHG  1   4   1
M  CHG  1  15  -1
M  END
> <s_m_source_file>
AV-unprocessed.smi

> <i_m_source_file_index>
1199

> <i_lp_mmshare_version>
43012

> <i_f3d_flags>
0

> <s_epik_input>
W0NIMl0xW0NIMl1PW0NIMl1bQ0gyXU4xW0NIMl1bQ0BASF0oW0NIM10pW05IXUMoPU8pW0NIMl1uMltuSF1jKD1PKVtjSF1bY0hdYzI9Tw==

> <s_epik_cmdline>
J2VwaWtfcHl0aG9uJywgJy1waCcsICc3LjAnLCAnLXRuJywgJzgnLCAnLW1hJywgJzIwMCcsICctbWV0YWxfYmluZGluZycsICctaW1hZScsICc8aW5maWxlLm1hZT4nLCAnLW9tYWUnLCAnPG91dGZpbGUubWFlPic=

> <r_lp_tautomer_probability>
1

> <r_epik_Ionization_Penalty>
0.741876

> <r_epik_Ionization_Penalty_Charging>
0.741876

> <r_epik_Ionization_Penalty_Neutral>
9.12373e-08

> <r_epik_State_Penalty>
0.692284

> <r_epik_Charging_Adjusted_Penalty>
1.43416

> <i_epik_Tot_Q>
0

> <i_epik_Tot_abs_Q>
2

> <r_epik_Metal_State_Penalty>
0.692284

> <b_epik_Metal_Only>
0

> <s_lp_Force_Field>
OPLS_2005

> <r_lp_Energy>
28.0654

> <b_lp_Chiralities_Consistent>
1

> <s_lp_Variant>
AV-unprocessed.smi:1199-3

> <Gold.Version>
5.8.1

> <Gold.Id.Protein>
6NUR|6NUR_protein|mol2

> <Gold.PLP.Fitness>
40.4917

> <Gold.PLP.PLP>
-30.7452

> <Gold.PLP.part.hbond>
-4.2008

> <Gold.PLP.part.metal>
0.0000

> <Gold.PLP.part.buried>
1.1664

> <Gold.PLP.part.nonpolar>
-26.7541

> <Gold.PLP.part.repulsive>
0.4284

> <Gold.PLP.ligand.clash>
0.0000

> <Gold.PLP.ligand.torsion>
0.7692

> <Gold.PLP.Chemscore.Hbond>
3.7360

> <Gold.PLP.Chemscore.CHOScore>
0.0000

> <Gold.PLP.Chemscore.Metal>
0.0000

> <Gold.Chemscore.Hbonds>
donor molecule, donor type, donor heavy atom, donor atom, acceptor molecule, acceptor atom, score
      L1  H     4    41       P1  7948  2.00
      L1  H    10    36       P1  7957  0.72
      P1  H  7997  8009       L1    17  0.80

> <Gold.PLP.Chemscore.Internal.Correction>
0.0768

> <Gold.Rescore>
     Score         DG    S(hbond)    S(metal)    S(lipo)     H(rot)  DE(clash)    DE(int)     intcor
     10.00     -15.03       2.65        0.00      58.03       2.37       1.95       3.07       ----

> <Gold.Chemscore.Fitness>
10.0028

> <Gold.Chemscore.DG>
-15.0271

> <Gold.Chemscore.ZeroCoef>
-5.4800

> <Gold.Chemscore.Hbond>
2.6458

> <Gold.Chemscore.Metal>
0.0000

> <Gold.Chemscore.Lipo>
58.0268

> <Gold.Chemscore.Internal_Hbond>
0.0000

> <Gold.Chemscore.DEClash>
1.9519

> <Gold.Chemscore.DEInternal>
3.0725

> <Gold.Chemscore.Rot>
2.3747

> <Gold.Chemscore.Internal.Correction>
   9.000000E+99

> <Gold.Chemscore.Hbonds>
donor molecule, donor type, donor heavy atom, donor atom, acceptor molecule, acceptor atom, score
      L1  H     4    41       P1  7948  1.00
      L1  H    10    36       P1  7957  0.61
      P1  H  7997  8009       L1    17  0.12

> <Gold.Chemscore.Hbond.Weighted>
-8.8371

> <Gold.Chemscore.Metal.Weighted>
-0.0000

> <Gold.Chemscore.Lipo.Weighted>
-6.7891

> <Gold.Chemscore.Internal_Hbond.Weighted>
0.0000

> <Gold.Chemscore.DEClash.Weighted>
1.9519

> <Gold.Chemscore.DEInternal.Weighted>
3.0725

> <Gold.Chemscore.Rot.Weighted>
6.0791

> <Gold.Chemscore.Internal.Correction.Weighted>
   9.000000E+99

> <Gold.Protein.RotatedTorsions>
[ 6907 6896 6895 6894 ] final   59.81 input  -60.11 | X-H torsion
[ 7974 7965 7964 7962 ] final   89.50 input  175.53 | X-H torsion
[ 8008 7997 7996 7995 ] final  143.86 input   59.86 | X-H torsion
[ 10167 10162 10161 10158 ] final -103.13 input  -65.29 | X-H torsion
[ 10718 10713 10712 10709 ] final  108.69 input   66.30 | X-H torsion
[ 10763 10752 10751 10750 ] final  105.51 input  -60.55 | X-H torsion
[ 11005 11000 10999 10996 ] final  -89.89 input  -57.11 | X-H torsion

> <Gold.Protein.ActiveResidues>
 VAL166  LYS551  ARG553  GLY616  TRP617  ASP618  TYR619  PRO620  LYS621  CYS622 
 ASP623  PHE694  ASN695  SER759  ASP760  ASP761  ALA762  ILE779  LEU786  VAL792 
 PHE793  MET794  SER795  GLU796  ALA797  LYS798  CYS799  TRP800  GLU811  SER814 

> <Gold.Protein.RotatedAtoms>
  152.3948  134.6384  160.0093 H   0  0  0  0  0  0  0  0  0  0  0  0  # atno 6907 bound_to 6896
  151.6607  133.3311  159.3181 H   0  0  0  0  0  0  0  0  0  0  0  0  # atno 6908 bound_to 6896
  150.7857  134.6883  159.6527 H   0  0  0  0  0  0  0  0  0  0  0  0  # atno 6909 bound_to 6896
  145.5315  139.2283  143.2616 H   0  0  0  0  0  0  0  0  0  0  0  0  # atno 7974 bound_to 7965
  156.2921  140.2251  156.4959 H   0  0  0  0  0  0  0  0  0  0  0  0  # atno 8008 bound_to 7997
  154.7731  140.0465  157.1088 H   0  0  0  0  0  0  0  0  0  0  0  0  # atno 8009 bound_to 7997
  154.9850  140.3083  155.4933 H   0  0  0  0  0  0  0  0  0  0  0  0  # atno 8010 bound_to 7997
  140.2233  143.3660  152.0951 H   0  0  0  0  0  0  0  0  0  0  0  0  # atno 10167 bound_to 10162
  157.6575  131.0899  150.6342 H   0  0  0  0  0  0  0  0  0  0  0  0  # atno 10718 bound_to 10713
  153.3803  135.3907  155.1852 H   0  0  0  0  0  0  0  0  0  0  0  0  # atno 10763 bound_to 10752
  154.8707  135.3724  154.4865 H   0  0  0  0  0  0  0  0  0  0  0  0  # atno 10764 bound_to 10752
  153.5341  135.7085  153.5729 H   0  0  0  0  0  0  0  0  0  0  0  0  # atno 10765 bound_to 10752
  141.1576  133.7658  156.9659 H   0  0  0  0  0  0  0  0  0  0  0  0  # atno 11005 bound_to 11000
  146.2041  140.6131  142.9089 LP  0  0  0  0  0  0  0  0  0  0  0  0  # atno 17320 bound_to 7965
  144.7624  140.5452  143.6727 LP  0  0  0  0  0  0  0  0  0  0  0  0  # atno 17321 bound_to 7965
  139.5136  144.6935  151.5694 LP  0  0  0  0  0  0  0  0  0  0  0  0  # atno 17342 bound_to 10162
  140.6239  143.9205  150.6549 LP  0  0  0  0  0  0  0  0  0  0  0  0  # atno 17343 bound_to 10162
  156.6647  130.4522  149.5676 LP  0  0  0  0  0  0  0  0  0  0  0  0  # atno 17370 bound_to 10713
  156.2041  130.6638  151.1199 LP  0  0  0  0  0  0  0  0  0  0  0  0  # atno 17371 bound_to 10713
  140.1161  134.9446  157.2137 LP  0  0  0  0  0  0  0  0  0  0  0  0  # atno 17394 bound_to 11000
  140.3131  134.3001  155.7262 LP  0  0  0  0  0  0  0  0  0  0  0  0  # atno 17395 bound_to 11000

$$$$
