AV-unprocessed.smi:2217|AV-procd|sdf|8969|dock2
  -GOLD-   2272012183D 1   1.00000     0.00000
 Structure written by MMmdl.
 45 48  0  0  0  0  0  0  0  0  1 V2000
  143.2901  131.9417  150.4801 C   0  0  0  0  0  0  0  0  0  0  0  0
  144.2254  132.9559  151.1041 C   0  0  0  0  0  0  0  0  0  0  0  0
  145.5646  132.6317  151.3913 C   0  0  0  0  0  0  0  0  0  0  0  0
  146.3922  133.6149  151.9672 C   0  0  0  0  0  0  0  0  0  0  0  0
  145.8676  134.8982  152.2425 C   0  0  0  0  0  0  0  0  0  0  0  0
  146.8042  135.8078  152.8184 N   0  0  0  0  0  0  0  0  0  0  0  0
  146.6586  136.7628  153.7621 C   0  0  0  0  0  0  0  0  0  0  0  0
  145.5699  136.9715  154.2947 O   0  0  0  0  0  0  0  0  0  0  0  0
  147.7634  137.4529  154.0806 N   0  0  0  0  0  0  0  0  0  0  0  0
  147.8420  138.5010  155.1020 C   0  0  1  0  0  0  0  0  0  0  0  0
  149.2577  138.7421  155.6344 C   0  0  1  0  0  0  0  0  0  0  0  0
  150.5217  137.9618  155.6775 C   0  0  0  0  0  0  0  0  0  0  0  0
  151.4816  139.1211  155.3002 C   0  0  0  0  0  0  0  0  0  0  0  0
  150.6339  140.2240  154.8906 O   0  0  0  0  0  0  0  0  0  0  0  0
  149.4638  139.5972  154.4012 C   0  0  2  0  0  0  0  0  0  0  0  0
  147.9648  139.9622  154.5208 C   0  0  0  0  0  0  0  0  0  0  0  0
  147.2181  140.2751  153.2174 C   0  0  0  0  0  0  0  0  0  0  0  0
  146.8341  141.7514  153.2465 C   0  0  0  0  0  0  0  0  0  0  0  0
  146.5983  142.0341  154.7228 C   0  0  0  0  0  0  0  0  0  0  0  0
  147.6080  141.1429  155.4464 C   0  0  0  0  0  0  0  0  0  0  0  0
  144.5737  135.1976  151.9599 N   0  0  0  0  0  0  0  0  0  0  0  0
  143.7801  134.2559  151.4087 C   0  0  0  0  0  0  0  0  0  0  0  0
  143.6607  130.9259  150.6214 H   0  0  0  0  0  0  0  0  0  0  0  0
  143.1945  132.1275  149.4101 H   0  0  0  0  0  0  0  0  0  0  0  0
  142.2992  132.0071  150.9304 H   0  0  0  0  0  0  0  0  0  0  0  0
  145.9556  131.6485  151.1745 H   0  0  0  0  0  0  0  0  0  0  0  0
  147.4229  133.3813  152.1919 H   0  0  0  0  0  0  0  0  0  0  0  0
  147.7321  135.7517  152.4248 H   0  0  0  0  0  0  0  0  0  0  0  0
  148.6186  137.2219  153.5944 H   0  0  0  0  0  0  0  0  0  0  0  0
  147.0877  138.4103  155.8852 H   0  0  0  0  0  0  0  0  0  0  0  0
  149.1799  139.3432  156.5463 H   0  0  0  0  0  0  0  0  0  0  0  0
  150.7300  137.5448  156.6630 H   0  0  0  0  0  0  0  0  0  0  0  0
  150.5390  137.1611  154.9371 H   0  0  0  0  0  0  0  0  0  0  0  0
  152.0998  139.4296  156.1437 H   0  0  0  0  0  0  0  0  0  0  0  0
  152.1430  138.8265  154.4844 H   0  0  0  0  0  0  0  0  0  0  0  0
  149.6883  139.0316  153.4909 H   0  0  0  0  0  0  0  0  0  0  0  0
  147.8090  140.0414  152.3310 H   0  0  0  0  0  0  0  0  0  0  0  0
  146.3097  139.6743  153.1550 H   0  0  0  0  0  0  0  0  0  0  0  0
  147.6674  142.3554  152.8849 H   0  0  0  0  0  0  0  0  0  0  0  0
  145.9637  141.9746  152.6287 H   0  0  0  0  0  0  0  0  0  0  0  0
  146.7101  143.0891  154.9742 H   0  0  0  0  0  0  0  0  0  0  0  0
  145.5859  141.7322  154.9936 H   0  0  0  0  0  0  0  0  0  0  0  0
  147.2063  140.8114  156.4044 H   0  0  0  0  0  0  0  0  0  0  0  0
  148.5010  141.7276  155.6696 H   0  0  0  0  0  0  0  0  0  0  0  0
  142.7613  134.5514  151.2049 H   0  0  0  0  0  0  0  0  0  0  0  0
  1  2  1  0  0  0  0
  1 23  1  0  0  0  0
  1 24  1  0  0  0  0
  1 25  1  0  0  0  0
  2 22  1  0  0  0  0
  2  3  2  0  0  0  0
  3  4  1  0  0  0  0
  3 26  1  0  0  0  0
  4  5  2  0  0  0  0
  4 27  1  0  0  0  0
  5  6  1  0  0  0  0
  5 21  1  0  0  0  0
  6  7  1  0  0  0  0
  6 28  1  0  0  0  0
  7  8  2  0  0  0  0
  7  9  1  0  0  0  0
  9 10  1  0  0  0  0
  9 29  1  0  0  0  0
 10 16  1  0  0  0  0
 10 11  1  0  0  0  0
 10 30  1  0  0  0  0
 11 15  1  0  0  0  0
 11 12  1  0  0  0  0
 11 31  1  0  0  0  0
 12 13  1  0  0  0  0
 12 32  1  0  0  0  0
 12 33  1  0  0  0  0
 13 14  1  0  0  0  0
 13 34  1  0  0  0  0
 13 35  1  0  0  0  0
 14 15  1  0  0  0  0
 15 16  1  0  0  0  0
 15 36  1  0  0  0  0
 16 20  1  0  0  0  0
 16 17  1  0  0  0  0
 17 18  1  0  0  0  0
 17 37  1  0  0  0  0
 17 38  1  0  0  0  0
 18 19  1  0  0  0  0
 18 39  1  0  0  0  0
 18 40  1  0  0  0  0
 19 20  1  0  0  0  0
 19 41  1  0  0  0  0
 19 42  1  0  0  0  0
 20 43  1  0  0  0  0
 20 44  1  0  0  0  0
 21 22  2  0  0  0  0
 22 45  1  0  0  0  0
M  END
> <s_m_source_file>
AV-unprocessed.smi

> <i_m_source_file_index>
2217

> <i_lp_mmshare_version>
43012

> <i_f3d_flags>
0

> <s_epik_input>
W0NIM11jMVtjSF1bY0hdYyhuW2NIXTEpW05IXUMoPU8pW05IXVtDQEBIXTJbQ0BASF0oW0NIMl1bQ0gyXU8zKVtDQEhdM0MyNFtDSDJdW0NIMl1bQ0gyXVtDSDJdNA==

> <s_epik_cmdline>
J2VwaWtfcHl0aG9uJywgJy1waCcsICc3LjAnLCAnLXRuJywgJzgnLCAnLW1hJywgJzIwMCcsICctbWV0YWxfYmluZGluZycsICctaW1hZScsICc8aW5maWxlLm1hZT4nLCAnLW9tYWUnLCAnPG91dGZpbGUubWFlPic=

> <r_lp_tautomer_probability>
1

> <r_epik_Ionization_Penalty>
6.14796e-05

> <r_epik_Ionization_Penalty_Charging>
0

> <r_epik_Ionization_Penalty_Neutral>
6.14796e-05

> <r_epik_State_Penalty>
-0

> <r_epik_Charging_Adjusted_Penalty>
0

> <i_epik_Tot_Q>
0

> <i_epik_Tot_abs_Q>
0

> <r_epik_Metal_State_Penalty>
-0

> <b_epik_Metal_Only>
0

> <s_lp_Force_Field>
OPLS_2005

> <r_lp_Energy>
82.2592

> <b_lp_Chiralities_Consistent>
1

> <s_lp_Variant>
AV-unprocessed.smi:2217-2

> <Gold.Version>
5.8.1

> <Gold.Id.Protein>
6NUR|6NUR_protein|mol2

> <Gold.PLP.Fitness>
38.3692

> <Gold.PLP.PLP>
-29.9920

> <Gold.PLP.part.hbond>
-2.4581

> <Gold.PLP.part.metal>
0.0000

> <Gold.PLP.part.buried>
-3.7555

> <Gold.PLP.part.nonpolar>
-25.0027

> <Gold.PLP.part.repulsive>
0.2733

> <Gold.PLP.ligand.clash>
0.0000

> <Gold.PLP.ligand.torsion>
0.5077

> <Gold.PLP.Chemscore.Hbond>
2.3385

> <Gold.PLP.Chemscore.CHOScore>
0.7012

> <Gold.PLP.Chemscore.Metal>
0.0000

> <Gold.Chemscore.Hbonds>
donor molecule, donor type, donor heavy atom, donor atom, acceptor molecule, acceptor atom, score
      L1  H     6    28       P1  7948  0.70
      L1  H     9    29       P1  7948  0.66
      P1  H  7989  7998       L1    14  1.00
      L1  C    22    45       P1 10186  0.69

> <Gold.PLP.Chemscore.Internal.Correction>
0.2736

> <Gold.Rescore>
     Score         DG    S(hbond)    S(metal)    S(lipo)     H(rot)  DE(clash)    DE(int)     intcor
     19.81     -21.07       2.47        0.00      84.63       1.00       0.75       0.51       ----

> <Gold.Chemscore.Fitness>
19.8055

> <Gold.Chemscore.DG>
-21.0694

> <Gold.Chemscore.ZeroCoef>
-5.4800

> <Gold.Chemscore.Hbond>
2.4693

> <Gold.Chemscore.Metal>
0.0000

> <Gold.Chemscore.Lipo>
84.6314

> <Gold.Chemscore.Internal_Hbond>
0.0000

> <Gold.Chemscore.DEClash>
0.7512

> <Gold.Chemscore.DEInternal>
0.5127

> <Gold.Chemscore.Rot>
1.0000

> <Gold.Chemscore.Internal.Correction>
   9.000000E+99

> <Gold.Chemscore.Hbonds>
donor molecule, donor type, donor heavy atom, donor atom, acceptor molecule, acceptor atom, score
      L1  H     6    28       P1  7948  0.70
      L1  H     9    29       P1  7948  0.63
      P1  H  7989  7998       L1    14  0.19

> <Gold.Chemscore.Hbond.Weighted>
-8.2476

> <Gold.Chemscore.Metal.Weighted>
-0.0000

> <Gold.Chemscore.Lipo.Weighted>
-9.9019

> <Gold.Chemscore.Internal_Hbond.Weighted>
0.0000

> <Gold.Chemscore.DEClash.Weighted>
0.7512

> <Gold.Chemscore.DEInternal.Weighted>
0.5127

> <Gold.Chemscore.Rot.Weighted>
2.5600

> <Gold.Chemscore.Internal.Correction.Weighted>
   9.000000E+99

> <Gold.Protein.RotatedTorsions>
[ 6907 6896 6895 6894 ] final   21.33 input  -60.11 | X-H torsion
[ 7974 7965 7964 7962 ] final -169.64 input  175.53 | X-H torsion
[ 8008 7997 7996 7995 ] final   64.54 input   59.86 | X-H torsion
[ 10167 10162 10161 10158 ] final  -31.73 input  -65.29 | X-H torsion
[ 10718 10713 10712 10709 ] final   45.32 input   66.30 | X-H torsion
[ 10763 10752 10751 10750 ] final  144.93 input  -60.55 | X-H torsion
[ 11005 11000 10999 10996 ] final  -83.47 input  -57.11 | X-H torsion

> <Gold.Protein.ActiveResidues>
 VAL166  LYS551  ARG553  GLY616  TRP617  ASP618  TYR619  PRO620  LYS621  CYS622 
 ASP623  PHE694  ASN695  SER759  ASP760  ASP761  ALA762  ILE779  LEU786  VAL792 
 PHE793  MET794  SER795  GLU796  ALA797  LYS798  CYS799  TRP800  GLU811  SER814 

> <Gold.Protein.RotatedAtoms>
  151.9101  135.0342  160.0513 H   0  0  0  0  0  0  0  0  0  0  0  0  # atno 6907 bound_to 6896
  152.2286  133.5036  159.5211 H   0  0  0  0  0  0  0  0  0  0  0  0  # atno 6908 bound_to 6896
  150.7019  134.1163  159.4061 H   0  0  0  0  0  0  0  0  0  0  0  0  # atno 6909 bound_to 6896
  144.7182  140.2191  143.6318 H   0  0  0  0  0  0  0  0  0  0  0  0  # atno 7974 bound_to 7965
  155.6476  140.3497  155.4736 H   0  0  0  0  0  0  0  0  0  0  0  0  # atno 8008 bound_to 7997
  155.9875  140.1187  157.0693 H   0  0  0  0  0  0  0  0  0  0  0  0  # atno 8009 bound_to 7997
  154.4209  140.1126  156.5505 H   0  0  0  0  0  0  0  0  0  0  0  0  # atno 8010 bound_to 7997
  140.7232  143.3748  151.1709 H   0  0  0  0  0  0  0  0  0  0  0  0  # atno 10167 bound_to 10162
  157.4363  130.8054  149.7651 H   0  0  0  0  0  0  0  0  0  0  0  0  # atno 10718 bound_to 10713
  153.9971  135.2926  155.3406 H   0  0  0  0  0  0  0  0  0  0  0  0  # atno 10763 bound_to 10752
  154.7181  135.5121  153.8772 H   0  0  0  0  0  0  0  0  0  0  0  0  # atno 10764 bound_to 10752
  153.0783  135.6670  154.0216 H   0  0  0  0  0  0  0  0  0  0  0  0  # atno 10765 bound_to 10752
  141.1657  133.7296  156.8725 H   0  0  0  0  0  0  0  0  0  0  0  0  # atno 11005 bound_to 11000
  145.8518  139.2179  143.1767 LP  0  0  0  0  0  0  0  0  0  0  0  0  # atno 17320 bound_to 7965
  146.0254  140.8309  142.9903 LP  0  0  0  0  0  0  0  0  0  0  0  0  # atno 17321 bound_to 7965
  139.7326  143.9048  152.3024 LP  0  0  0  0  0  0  0  0  0  0  0  0  # atno 17342 bound_to 10162
  139.8842  144.7001  150.8843 LP  0  0  0  0  0  0  0  0  0  0  0  0  # atno 17343 bound_to 10162
  155.9931  130.3926  150.2912 LP  0  0  0  0  0  0  0  0  0  0  0  0  # atno 17370 bound_to 10713
  157.1073  131.0212  151.3062 LP  0  0  0  0  0  0  0  0  0  0  0  0  # atno 17371 bound_to 10713
  140.1772  134.9059  157.2905 LP  0  0  0  0  0  0  0  0  0  0  0  0  # atno 17394 bound_to 11000
  140.2436  134.3766  155.7470 LP  0  0  0  0  0  0  0  0  0  0  0  0  # atno 17395 bound_to 11000

$$$$
