AV-unprocessed.smi:2568|AV-procd|sdf|10088|dock3
  -GOLD-   2272014113D 1   1.00000     0.00000
 Structure written by MMmdl.
 25 26  0  0  0  0  0  0  0  0  2 V2000
  152.2316  137.8459  154.3949 C   0  0  0  0  0  0  0  0  0  0  0  0
  150.9591  138.6125  154.2647 C   0  0  0  0  0  0  0  0  0  0  0  0
  149.9118  138.1385  153.5876 N   0  0  0  0  0  0  0  0  0  0  0  0
  148.9073  139.0392  153.6312 N   0  0  0  0  0  0  0  0  0  0  0  0
  149.4374  140.0123  154.3711 C   0  0  0  0  0  0  0  0  0  0  0  0
  148.6692  141.2674  154.6469 C   0  0  2  0  0  0  0  0  0  0  0  0
  148.3100  141.4143  156.1375 C   0  0  0  0  0  0  0  0  0  0  0  0
  147.4752  142.6149  156.3355 N   0  3  0  0  0  0  0  0  0  0  0  0
  146.2781  142.5892  155.4714 C   0  0  0  0  0  0  0  0  0  0  0  0
  146.6871  142.3870  154.0012 C   0  0  0  0  0  0  0  0  0  0  0  0
  147.4711  141.2047  153.8757 O   0  0  0  0  0  0  0  0  0  0  0  0
  150.7277  139.8137  154.7831 N   0  0  0  0  0  0  0  0  0  0  0  0
  149.8428  137.2566  153.0996 H   0  0  0  0  0  0  0  0  0  0  0  0
  152.9502  138.3985  155.0011 H   0  0  0  0  0  0  0  0  0  0  0  0
  152.6663  137.6721  153.4104 H   0  0  0  0  0  0  0  0  0  0  0  0
  152.0421  136.8833  154.8706 H   0  0  0  0  0  0  0  0  0  0  0  0
  149.2642  142.1214  154.3162 H   0  0  0  0  0  0  0  0  0  0  0  0
  147.7622  140.5378  156.4868 H   0  0  0  0  0  0  0  0  0  0  0  0
  149.2111  141.4955  156.7463 H   0  0  0  0  0  0  0  0  0  0  0  0
  147.1909  142.6712  157.3032 H   0  0  0  0  0  0  0  0  0  0  0  0
  145.6210  141.7806  155.7942 H   0  0  0  0  0  0  0  0  0  0  0  0
  145.7250  143.5208  155.5915 H   0  0  0  0  0  0  0  0  0  0  0  0
  145.8004  142.2916  153.3744 H   0  0  0  0  0  0  0  0  0  0  0  0
  147.2469  143.2471  153.6306 H   0  0  0  0  0  0  0  0  0  0  0  0
  148.0237  143.4315  156.1053 H   0  0  0  0  0  0  0  0  0  0  0  0
  1 14  1  0  0  0  0
  1 15  1  0  0  0  0
  1 16  1  0  0  0  0
  1  2  1  0  0  0  0
  2 12  2  0  0  0  0
  2  3  1  0  0  0  0
  3  4  1  0  0  0  0
  3 13  1  0  0  0  0
  4  5  2  0  0  0  0
  5 12  1  0  0  0  0
  5  6  1  0  0  0  0
  6 11  1  0  0  0  0
  6  7  1  0  0  0  0
  6 17  1  0  0  0  0
  7  8  1  0  0  0  0
  7 18  1  0  0  0  0
  7 19  1  0  0  0  0
  8  9  1  0  0  0  0
  8 20  1  0  0  0  0
  8 25  1  0  0  0  0
  9 10  1  0  0  0  0
  9 21  1  0  0  0  0
  9 22  1  0  0  0  0
 10 11  1  0  0  0  0
 10 23  1  0  0  0  0
 10 24  1  0  0  0  0
M  CHG  1   8   1
M  END
> <s_m_source_file>
AV-unprocessed.smi

> <i_m_source_file_index>
2568

> <i_lp_mmshare_version>
43012

> <i_f3d_flags>
0

> <s_epik_input>
W0NIM11jMW5bbkhdYyhuMSlbQ0BASF0yW0NIMl1bTkhdW0NIMl1bQ0gyXU8y

> <s_epik_cmdline>
J2VwaWtfcHl0aG9uJywgJy1waCcsICc3LjAnLCAnLXRuJywgJzgnLCAnLW1hJywgJzIwMCcsICctbWV0YWxfYmluZGluZycsICctaW1hZScsICc8aW5maWxlLm1hZT4nLCAnLW9tYWUnLCAnPG91dGZpbGUubWFlPic=

> <r_lp_tautomer_probability>
0.948284

> <r_epik_Ionization_Penalty>
0.107151

> <r_epik_Ionization_Penalty_Charging>
0.100865

> <r_epik_Ionization_Penalty_Neutral>
0.00628602

> <r_epik_State_Penalty>
0.200426

> <r_epik_Charging_Adjusted_Penalty>
0.30129

> <i_epik_Tot_Q>
1

> <i_epik_Tot_abs_Q>
1

> <r_epik_Metal_State_Penalty>
0.501686

> <b_epik_Metal_Only>
0

> <s_lp_Force_Field>
OPLS_2005

> <r_lp_Energy>
11.0041

> <b_lp_Chiralities_Consistent>
1

> <s_lp_Variant>
AV-unprocessed.smi:2568-1

> <Gold.Version>
5.8.1

> <Gold.Id.Protein>
6NUR|6NUR_protein|mol2

> <Gold.PLP.Fitness>
31.6881

> <Gold.PLP.PLP>
-20.0517

> <Gold.PLP.part.hbond>
-3.9126

> <Gold.PLP.part.metal>
0.0000

> <Gold.PLP.part.buried>
-2.4057

> <Gold.PLP.part.nonpolar>
-15.6548

> <Gold.PLP.part.repulsive>
2.3328

> <Gold.PLP.ligand.clash>
0.0000

> <Gold.PLP.ligand.torsion>
0.1290

> <Gold.PLP.Chemscore.Hbond>
3.9600

> <Gold.PLP.Chemscore.CHOScore>
0.0000

> <Gold.PLP.Chemscore.Metal>
0.0000

> <Gold.Chemscore.Hbonds>
donor molecule, donor type, donor heavy atom, donor atom, acceptor molecule, acceptor atom, score
      L1  H     3    13       P1  7948  0.98
      L1  H     8    25       P1  8028  1.90
      P1  H  7989  7998       L1    12  0.90

> <Gold.PLP.Chemscore.Internal.Correction>
0.0143

> <Gold.Rescore>
     Score         DG    S(hbond)    S(metal)    S(lipo)     H(rot)  DE(clash)    DE(int)     intcor
     12.35     -13.48       2.13        0.00      29.54       1.00       0.95       0.18       ----

> <Gold.Chemscore.Fitness>
12.3536

> <Gold.Chemscore.DG>
-13.4816

> <Gold.Chemscore.ZeroCoef>
-5.4800

> <Gold.Chemscore.Hbond>
2.1274

> <Gold.Chemscore.Metal>
0.0000

> <Gold.Chemscore.Lipo>
29.5389

> <Gold.Chemscore.Internal_Hbond>
0.0000

> <Gold.Chemscore.DEClash>
0.9500

> <Gold.Chemscore.DEInternal>
0.1780

> <Gold.Chemscore.Rot>
1.0000

> <Gold.Chemscore.Internal.Correction>
   9.000000E+99

> <Gold.Chemscore.Hbonds>
donor molecule, donor type, donor heavy atom, donor atom, acceptor molecule, acceptor atom, score
      L1  H     3    13       P1  7948  0.32
      L1  H     8    25       P1  8028  0.21
      P1  H  7989  7998       L1    12  0.05

> <Gold.Chemscore.Hbond.Weighted>
-7.1056

> <Gold.Chemscore.Metal.Weighted>
-0.0000

> <Gold.Chemscore.Lipo.Weighted>
-3.4561

> <Gold.Chemscore.Internal_Hbond.Weighted>
0.0000

> <Gold.Chemscore.DEClash.Weighted>
0.9500

> <Gold.Chemscore.DEInternal.Weighted>
0.1780

> <Gold.Chemscore.Rot.Weighted>
2.5600

> <Gold.Chemscore.Internal.Correction.Weighted>
   9.000000E+99

> <Gold.Protein.RotatedTorsions>
[ 6907 6896 6895 6894 ] final  -53.63 input  -60.11 | X-H torsion
[ 7974 7965 7964 7962 ] final   96.94 input  175.53 | X-H torsion
[ 8008 7997 7996 7995 ] final  125.92 input   59.86 | X-H torsion
[ 10167 10162 10161 10158 ] final -149.36 input  -65.29 | X-H torsion
[ 10718 10713 10712 10709 ] final  -97.64 input   66.30 | X-H torsion
[ 10763 10752 10751 10750 ] final  -74.56 input  -60.55 | X-H torsion
[ 11005 11000 10999 10996 ] final  100.23 input  -57.11 | X-H torsion

> <Gold.Protein.ActiveResidues>
 VAL166  LYS551  ARG553  GLY616  TRP617  ASP618  TYR619  PRO620  LYS621  CYS622 
 ASP623  PHE694  ASN695  SER759  ASP760  ASP761  ALA762  ILE779  LEU786  VAL792 
 PHE793  MET794  SER795  GLU796  ALA797  LYS798  CYS799  TRP800  GLU811  SER814 

> <Gold.Protein.RotatedAtoms>
  150.8410  134.7701  159.6931 H   0  0  0  0  0  0  0  0  0  0  0  0  # atno 6907 bound_to 6896
  152.4497  134.5417  159.9850 H   0  0  0  0  0  0  0  0  0  0  0  0  # atno 6908 bound_to 6896
  151.5557  133.3373  159.2997 H   0  0  0  0  0  0  0  0  0  0  0  0  # atno 6909 bound_to 6896
  145.4321  139.2309  143.3138 H   0  0  0  0  0  0  0  0  0  0  0  0  # atno 7974 bound_to 7965
  156.2849  140.2705  156.2028 H   0  0  0  0  0  0  0  0  0  0  0  0  # atno 8008 bound_to 7997
  155.0344  140.0386  157.2504 H   0  0  0  0  0  0  0  0  0  0  0  0  # atno 8009 bound_to 7997
  154.7327  140.2709  155.6447 H   0  0  0  0  0  0  0  0  0  0  0  0  # atno 8010 bound_to 7997
  139.7450  143.8605  152.2572 H   0  0  0  0  0  0  0  0  0  0  0  0  # atno 10167 bound_to 10162
  156.0088  130.5203  150.6404 H   0  0  0  0  0  0  0  0  0  0  0  0  # atno 10718 bound_to 10713
  154.4748  135.5860  153.6347 H   0  0  0  0  0  0  0  0  0  0  0  0  # atno 10763 bound_to 10752
  152.9839  135.6075  154.3321 H   0  0  0  0  0  0  0  0  0  0  0  0  # atno 10764 bound_to 10752
  154.3206  135.2843  155.2500 H   0  0  0  0  0  0  0  0  0  0  0  0  # atno 10765 bound_to 10752
  139.8771  134.9131  156.4725 H   0  0  0  0  0  0  0  0  0  0  0  0  # atno 11005 bound_to 11000
  146.2601  140.5059  142.8857 LP  0  0  0  0  0  0  0  0  0  0  0  0  # atno 17320 bound_to 7965
  144.8176  140.6494  143.6374 LP  0  0  0  0  0  0  0  0  0  0  0  0  # atno 17321 bound_to 7965
  139.8566  144.7138  150.9149 LP  0  0  0  0  0  0  0  0  0  0  0  0  # atno 17342 bound_to 10162
  140.7791  143.3853  151.1405 LP  0  0  0  0  0  0  0  0  0  0  0  0  # atno 17343 bound_to 10162
  157.4185  131.0833  151.1154 LP  0  0  0  0  0  0  0  0  0  0  0  0  # atno 17370 bound_to 10713
  157.1763  130.6289  149.5657 LP  0  0  0  0  0  0  0  0  0  0  0  0  # atno 17371 bound_to 10713
  140.8785  133.7935  155.9441 LP  0  0  0  0  0  0  0  0  0  0  0  0  # atno 17394 bound_to 11000
  140.8878  134.2532  157.5110 LP  0  0  0  0  0  0  0  0  0  0  0  0  # atno 17395 bound_to 11000

$$$$
