AV-unprocessed.smi:1144|AV-procd|sdf|4880|dock2
  -GOLD-   22720 3453D 1   1.00000     0.00000
 Structure written by MMmdl.
 34 35  0  0  0  0  0  0  0  0  1 V2000
  145.4191  141.0737  156.4583 C   0  0  0  0  0  0  0  0  0  0  0  0
  146.5262  140.9608  155.5209 N   0  0  0  0  0  0  0  0  0  0  0  0
  146.4071  141.9222  154.4329 C   0  0  0  0  0  0  0  0  0  0  0  0
  147.5878  141.8201  153.4529 C   0  0  0  0  0  0  0  0  0  0  0  0
  148.8108  141.9831  154.1645 O   0  0  0  0  0  0  0  0  0  0  0  0
  148.9908  141.0164  155.1981 C   0  0  1  0  0  0  0  0  0  0  0  0
  150.3351  141.2859  155.8870 C   0  0  0  0  0  0  0  0  0  0  0  0
  150.3646  142.5989  156.5136 N   0  0  0  0  0  0  0  0  0  0  0  0
  151.2564  142.9655  157.5033 C   0  0  0  0  0  0  0  0  0  0  0  0
  151.4867  144.2757  157.6143 N   0  0  0  0  0  0  0  0  0  0  0  0
  152.3538  144.6679  158.5725 C   0  0  0  0  0  0  0  0  0  0  0  0
  152.9915  143.7422  159.4216 C   0  0  0  0  0  0  0  0  0  0  0  0
  152.6735  142.3812  159.2149 C   0  0  0  0  0  0  0  0  0  0  0  0
  153.2852  141.2703  160.0547 C   0  0  0  0  0  0  0  0  0  0  0  0
  153.0347  141.4922  161.3454 F   0  0  0  0  0  0  0  0  0  0  0  0
  152.7862  140.0781  159.7263 F   0  0  0  0  0  0  0  0  0  0  0  0
  154.6052  141.2410  159.8707 F   0  0  0  0  0  0  0  0  0  0  0  0
  151.8035  142.0004  158.2510 N   0  0  0  0  0  0  0  0  0  0  0  0
  147.8121  141.1314  156.1855 C   0  0  0  0  0  0  0  0  0  0  0  0
  144.4666  140.9165  155.9514 H   0  0  0  0  0  0  0  0  0  0  0  0
  145.3969  142.0593  156.9252 H   0  0  0  0  0  0  0  0  0  0  0  0
  145.5027  140.3260  157.2474 H   0  0  0  0  0  0  0  0  0  0  0  0
  145.4724  141.7592  153.8949 H   0  0  0  0  0  0  0  0  0  0  0  0
  146.3629  142.9346  154.8375 H   0  0  0  0  0  0  0  0  0  0  0  0
  147.5834  140.8575  152.9391 H   0  0  0  0  0  0  0  0  0  0  0  0
  147.5141  142.5932  152.6880 H   0  0  0  0  0  0  0  0  0  0  0  0
  149.0002  140.0153  154.7624 H   0  0  0  0  0  0  0  0  0  0  0  0
  150.5384  140.5180  156.6346 H   0  0  0  0  0  0  0  0  0  0  0  0
  151.1388  141.2395  155.1512 H   0  0  0  0  0  0  0  0  0  0  0  0
  149.6547  143.2690  156.2560 H   0  0  0  0  0  0  0  0  0  0  0  0
  152.5398  145.7279  158.6627 H   0  0  0  0  0  0  0  0  0  0  0  0
  153.6836  144.0656  160.1849 H   0  0  0  0  0  0  0  0  0  0  0  0
  147.8455  142.1049  156.6777 H   0  0  0  0  0  0  0  0  0  0  0  0
  147.9217  140.3823  156.9707 H   0  0  0  0  0  0  0  0  0  0  0  0
  1  2  1  0  0  0  0
  1 20  1  0  0  0  0
  1 21  1  0  0  0  0
  1 22  1  0  0  0  0
  2 19  1  0  0  0  0
  2  3  1  0  0  0  0
  3  4  1  0  0  0  0
  3 23  1  0  0  0  0
  3 24  1  0  0  0  0
  4  5  1  0  0  0  0
  4 25  1  0  0  0  0
  4 26  1  0  0  0  0
  5  6  1  0  0  0  0
  6  7  1  0  0  0  0
  6 19  1  0  0  0  0
  6 27  1  0  0  0  0
  7  8  1  0  0  0  0
  7 28  1  0  0  0  0
  7 29  1  0  0  0  0
  8  9  1  0  0  0  0
  8 30  1  0  0  0  0
  9 18  1  0  0  0  0
  9 10  2  0  0  0  0
 10 11  1  0  0  0  0
 11 12  2  0  0  0  0
 11 31  1  0  0  0  0
 12 13  1  0  0  0  0
 12 32  1  0  0  0  0
 13 14  1  0  0  0  0
 13 18  2  0  0  0  0
 14 15  1  0  0  0  0
 14 16  1  0  0  0  0
 14 17  1  0  0  0  0
 19 33  1  0  0  0  0
 19 34  1  0  0  0  0
M  END
> <s_m_source_file>
AV-unprocessed.smi

> <i_m_source_file_index>
1144

> <i_lp_mmshare_version>
43012

> <i_f3d_flags>
0

> <s_epik_input>
W0NIM11OMVtDSDJdW0NIMl1PW0NASF0oW0NIMl0xKVtDSDJdW05IXWMybltjSF1bY0hdYyhuMilDKEYpKEYpRg==

> <s_epik_cmdline>
J2VwaWtfcHl0aG9uJywgJy1waCcsICc3LjAnLCAnLXRuJywgJzgnLCAnLW1hJywgJzIwMCcsICctbWV0YWxfYmluZGluZycsICctaW1hZScsICc8aW5maWxlLm1hZT4nLCAnLW9tYWUnLCAnPG91dGZpbGUubWFlPic=

> <r_lp_tautomer_probability>
1

> <r_epik_Ionization_Penalty>
0.797829

> <r_epik_Ionization_Penalty_Charging>
0

> <r_epik_Ionization_Penalty_Neutral>
0.797829

> <r_epik_State_Penalty>
0.828842

> <r_epik_Charging_Adjusted_Penalty>
0.828842

> <i_epik_Tot_Q>
0

> <i_epik_Tot_abs_Q>
0

> <r_epik_Metal_State_Penalty>
0.828842

> <b_epik_Metal_Only>
0

> <s_lp_Force_Field>
OPLS_2005

> <r_lp_Energy>
13.1173

> <b_lp_Chiralities_Consistent>
1

> <s_lp_Variant>
AV-unprocessed.smi:1144-5

> <Gold.Version>
5.8.1

> <Gold.Id.Protein>
6NUR|6NUR_protein|mol2

> <Gold.PLP.Fitness>
44.1037

> <Gold.PLP.PLP>
-40.9983

> <Gold.PLP.part.hbond>
-2.0000

> <Gold.PLP.part.metal>
0.0000

> <Gold.PLP.part.buried>
-6.5681

> <Gold.PLP.part.nonpolar>
-31.6799

> <Gold.PLP.part.repulsive>
0.5134

> <Gold.PLP.ligand.clash>
0.0000

> <Gold.PLP.ligand.torsion>
0.2928

> <Gold.PLP.Chemscore.Hbond>
1.2228

> <Gold.PLP.Chemscore.CHOScore>
0.0000

> <Gold.PLP.Chemscore.Metal>
0.0000

> <Gold.Chemscore.Hbonds>
donor molecule, donor type, donor heavy atom, donor atom, acceptor molecule, acceptor atom, score
      L1  H     8    30       P1  8028  1.00
      P1  H  8011  8017       L1     5  0.14

> <Gold.PLP.Chemscore.Internal.Correction>
0.0227

> <Gold.Rescore>
     Score         DG    S(hbond)    S(metal)    S(lipo)     H(rot)  DE(clash)    DE(int)     intcor
     14.20     -14.60       1.01        0.00      77.96       1.31       0.10       0.29       ----

> <Gold.Chemscore.Fitness>
14.2043

> <Gold.Chemscore.DG>
-14.5989

> <Gold.Chemscore.ZeroCoef>
-5.4800

> <Gold.Chemscore.Hbond>
1.0072

> <Gold.Chemscore.Metal>
0.0000

> <Gold.Chemscore.Lipo>
77.9564

> <Gold.Chemscore.Internal_Hbond>
0.0000

> <Gold.Chemscore.DEClash>
0.1034

> <Gold.Chemscore.DEInternal>
0.2911

> <Gold.Chemscore.Rot>
1.3149

> <Gold.Chemscore.Internal.Correction>
   9.000000E+99

> <Gold.Chemscore.Hbonds>
donor molecule, donor type, donor heavy atom, donor atom, acceptor molecule, acceptor atom, score
      L1  H     8    30       P1  8028  1.00

> <Gold.Chemscore.Hbond.Weighted>
-3.3642

> <Gold.Chemscore.Metal.Weighted>
-0.0000

> <Gold.Chemscore.Lipo.Weighted>
-9.1209

> <Gold.Chemscore.Internal_Hbond.Weighted>
0.0000

> <Gold.Chemscore.DEClash.Weighted>
0.1034

> <Gold.Chemscore.DEInternal.Weighted>
0.2911

> <Gold.Chemscore.Rot.Weighted>
3.3662

> <Gold.Chemscore.Internal.Correction.Weighted>
   9.000000E+99

> <Gold.Protein.RotatedTorsions>
[ 6907 6896 6895 6894 ] final -155.02 input  -60.11 | X-H torsion
[ 7974 7965 7964 7962 ] final -102.04 input  175.53 | X-H torsion
[ 8008 7997 7996 7995 ] final  -44.35 input   59.86 | X-H torsion
[ 10167 10162 10161 10158 ] final  -31.74 input  -65.29 | X-H torsion
[ 10718 10713 10712 10709 ] final  -52.17 input   66.30 | X-H torsion
[ 10763 10752 10751 10750 ] final -145.68 input  -60.55 | X-H torsion
[ 11005 11000 10999 10996 ] final  156.17 input  -57.11 | X-H torsion

> <Gold.Protein.ActiveResidues>
 VAL166  LYS551  ARG553  GLY616  TRP617  ASP618  TYR619  PRO620  LYS621  CYS622 
 ASP623  PHE694  ASN695  SER759  ASP760  ASP761  ALA762  ILE779  LEU786  VAL792 
 PHE793  MET794  SER795  GLU796  ALA797  LYS798  CYS799  TRP800  GLU811  SER814 

> <Gold.Protein.RotatedAtoms>
  151.2662  133.4278  159.2618 H   0  0  0  0  0  0  0  0  0  0  0  0  # atno 6907 bound_to 6896
  151.0486  134.9658  159.8210 H   0  0  0  0  0  0  0  0  0  0  0  0  # atno 6908 bound_to 6896
  152.5378  134.2617  159.8990 H   0  0  0  0  0  0  0  0  0  0  0  0  # atno 6909 bound_to 6896
  145.2738  140.9306  143.2971 H   0  0  0  0  0  0  0  0  0  0  0  0  # atno 7974 bound_to 7965
  154.3997  140.1424  156.3669 H   0  0  0  0  0  0  0  0  0  0  0  0  # atno 8008 bound_to 7997
  155.8129  140.3472  155.5447 H   0  0  0  0  0  0  0  0  0  0  0  0  # atno 8009 bound_to 7997
  155.8368  140.0920  157.1749 H   0  0  0  0  0  0  0  0  0  0  0  0  # atno 8010 bound_to 7997
  140.7232  143.3748  151.1710 H   0  0  0  0  0  0  0  0  0  0  0  0  # atno 10167 bound_to 10162
  156.1645  130.4149  149.9742 H   0  0  0  0  0  0  0  0  0  0  0  0  # atno 10718 bound_to 10713
  154.8372  135.3407  154.6542 H   0  0  0  0  0  0  0  0  0  0  0  0  # atno 10763 bound_to 10752
  153.7156  135.6961  153.5030 H   0  0  0  0  0  0  0  0  0  0  0  0  # atno 10764 bound_to 10752
  153.2419  135.4381  155.0660 H   0  0  0  0  0  0  0  0  0  0  0  0  # atno 10765 bound_to 10752
  140.1650  134.8583  157.2621 H   0  0  0  0  0  0  0  0  0  0  0  0  # atno 11005 bound_to 11000
  144.9312  139.4297  143.6494 LP  0  0  0  0  0  0  0  0  0  0  0  0  # atno 17320 bound_to 7965
  146.3238  139.8223  142.8924 LP  0  0  0  0  0  0  0  0  0  0  0  0  # atno 17321 bound_to 7965
  139.7326  143.9049  152.3024 LP  0  0  0  0  0  0  0  0  0  0  0  0  # atno 17342 bound_to 10162
  139.8843  144.7000  150.8842 LP  0  0  0  0  0  0  0  0  0  0  0  0  # atno 17343 bound_to 10162
  156.7561  130.9133  151.3639 LP  0  0  0  0  0  0  0  0  0  0  0  0  # atno 17370 bound_to 10713
  157.6757  130.9092  150.0145 LP  0  0  0  0  0  0  0  0  0  0  0  0  # atno 17371 bound_to 10713
  140.2444  134.3757  155.7467 LP  0  0  0  0  0  0  0  0  0  0  0  0  # atno 17394 bound_to 11000
  141.2213  133.7283  156.8839 LP  0  0  0  0  0  0  0  0  0  0  0  0  # atno 17395 bound_to 11000

$$$$
