AV-unprocessed.smi:2126|AV-procd|sdf|8678|dock1
  -GOLD-   2272011433D 1   1.00000     0.00000
 Structure written by MMmdl.
 41 43  0  0  0  0  0  0  0  0  2 V2000
  144.1967  144.2538  156.8321 C   0  0  0  0  0  0  0  0  0  0  0  0
  145.0118  144.1457  155.6743 O   0  0  0  0  0  0  0  0  0  0  0  0
  145.4700  142.8954  155.3188 C   0  0  0  0  0  0  0  0  0  0  0  0
  145.1297  141.6990  155.9962 C   0  0  0  0  0  0  0  0  0  0  0  0
  145.6437  140.4628  155.5598 C   0  0  0  0  0  0  0  0  0  0  0  0
  146.5055  140.3874  154.4478 C   0  0  0  0  0  0  0  0  0  0  0  0
  146.9601  139.1361  154.0907 O   0  0  0  0  0  0  0  0  0  0  0  0
  147.2728  138.8973  152.7245 C   0  0  0  0  0  0  0  0  0  0  0  0
  146.1455  138.0638  152.0986 C   0  0  1  0  0  0  0  0  0  0  0  0
  146.4791  137.7870  150.7525 O   0  0  0  0  0  0  0  0  0  0  0  0
  145.9045  136.7419  152.8548 C   0  0  0  0  0  0  0  0  0  0  0  0
  145.1494  135.7617  152.0645 N   0  0  0  0  0  0  0  0  0  0  0  0
  144.0116  135.9156  151.3346 C   0  0  0  0  0  0  0  0  0  0  0  0
  143.7094  134.7064  150.7853 N   0  3  0  0  0  0  0  0  0  0  0  0
  144.6676  133.7664  151.1712 C   0  0  0  0  0  0  0  0  0  0  0  0
  144.7906  132.4130  150.8719 C   0  0  0  0  0  0  0  0  0  0  0  0
  145.8941  131.7382  151.4345 C   0  0  0  0  0  0  0  0  0  0  0  0
  146.8233  132.4075  152.2578 C   0  0  0  0  0  0  0  0  0  0  0  0
  146.6898  133.7802  152.5534 C   0  0  0  0  0  0  0  0  0  0  0  0
  145.5960  134.4387  151.9938 C   0  0  0  0  0  0  0  0  0  0  0  0
  146.8474  141.5841  153.7717 C   0  0  0  0  0  0  0  0  0  0  0  0
  146.3313  142.8199  154.2065 C   0  0  0  0  0  0  0  0  0  0  0  0
  143.9124  145.2960  156.9763 H   0  0  0  0  0  0  0  0  0  0  0  0
  144.7312  143.9307  157.7264 H   0  0  0  0  0  0  0  0  0  0  0  0
  143.2787  143.6737  156.7298 H   0  0  0  0  0  0  0  0  0  0  0  0
  144.4746  141.7017  156.8538 H   0  0  0  0  0  0  0  0  0  0  0  0
  145.3726  139.5599  156.0873 H   0  0  0  0  0  0  0  0  0  0  0  0
  147.3586  139.8506  152.1997 H   0  0  0  0  0  0  0  0  0  0  0  0
  148.2245  138.3710  152.6317 H   0  0  0  0  0  0  0  0  0  0  0  0
  145.2308  138.6571  152.0921 H   0  0  0  0  0  0  0  0  0  0  0  0
  145.6914  137.8342  150.2322 H   0  0  0  0  0  0  0  0  0  0  0  0
  146.8557  136.2815  153.1255 H   0  0  0  0  0  0  0  0  0  0  0  0
  145.3679  136.9148  153.7887 H   0  0  0  0  0  0  0  0  0  0  0  0
  143.4495  136.8306  151.2153 H   0  0  0  0  0  0  0  0  0  0  0  0
  144.0804  131.8979  150.2418 H   0  0  0  0  0  0  0  0  0  0  0  0
  146.0305  130.6861  151.2306 H   0  0  0  0  0  0  0  0  0  0  0  0
  147.6559  131.8569  152.6713 H   0  0  0  0  0  0  0  0  0  0  0  0
  147.4056  134.2853  153.1854 H   0  0  0  0  0  0  0  0  0  0  0  0
  147.5026  141.5822  152.9141 H   0  0  0  0  0  0  0  0  0  0  0  0
  146.6006  143.7228  153.6783 H   0  0  0  0  0  0  0  0  0  0  0  0
  142.9070  134.5385  150.1921 H   0  0  0  0  0  0  0  0  0  0  0  0
  1  2  1  0  0  0  0
  1 23  1  0  0  0  0
  1 24  1  0  0  0  0
  1 25  1  0  0  0  0
  2  3  1  0  0  0  0
  3 22  1  0  0  0  0
  3  4  2  0  0  0  0
  4  5  1  0  0  0  0
  4 26  1  0  0  0  0
  5  6  2  0  0  0  0
  5 27  1  0  0  0  0
  6  7  1  0  0  0  0
  6 21  1  0  0  0  0
  7  8  1  0  0  0  0
  8  9  1  0  0  0  0
  8 28  1  0  0  0  0
  8 29  1  0  0  0  0
  9 10  1  0  0  0  0
  9 11  1  0  0  0  0
  9 30  1  0  0  0  0
 10 31  1  0  0  0  0
 11 12  1  0  0  0  0
 11 32  1  0  0  0  0
 11 33  1  0  0  0  0
 12 20  1  0  0  0  0
 12 13  1  0  0  0  0
 13 14  2  0  0  0  0
 13 34  1  0  0  0  0
 14 15  1  0  0  0  0
 14 41  1  0  0  0  0
 15 20  2  0  0  0  0
 15 16  1  0  0  0  0
 16 17  2  0  0  0  0
 16 35  1  0  0  0  0
 17 18  1  0  0  0  0
 17 36  1  0  0  0  0
 18 19  2  0  0  0  0
 18 37  1  0  0  0  0
 19 20  1  0  0  0  0
 19 38  1  0  0  0  0
 21 22  2  0  0  0  0
 21 39  1  0  0  0  0
 22 40  1  0  0  0  0
M  CHG  1  14   1
M  END
> <s_m_source_file>
AV-unprocessed.smi

> <i_m_source_file_index>
2126

> <i_lp_mmshare_version>
43012

> <i_f3d_flags>
0

> <s_epik_input>
W0NIM11PYzFbY0hdW2NIXWMoW2NIXVtjSF0xKU9bQ0gyXVtDQEhdKFtPSF0pW0NIMl1uKFtjSF1uMiljKGMyMylbY0hdW2NIXVtjSF1bY0hdMw==

> <s_epik_cmdline>
J2VwaWtfcHl0aG9uJywgJy1waCcsICc3LjAnLCAnLXRuJywgJzgnLCAnLW1hJywgJzIwMCcsICctbWV0YWxfYmluZGluZycsICctaW1hZScsICc8aW5maWxlLm1hZT4nLCAnLW9tYWUnLCAnPG91dGZpbGUubWFlPic=

> <r_lp_tautomer_probability>
1

> <r_epik_Ionization_Penalty>
1.37822

> <r_epik_Ionization_Penalty_Charging>
1.37822

> <r_epik_Ionization_Penalty_Neutral>
2.3993e-06

> <r_epik_State_Penalty>
1.45852

> <r_epik_Charging_Adjusted_Penalty>
2.83674

> <i_epik_Tot_Q>
1

> <i_epik_Tot_abs_Q>
1

> <r_epik_Metal_State_Penalty>
5.4985

> <b_epik_Metal_Only>
0

> <s_lp_Force_Field>
OPLS_2005

> <r_lp_Energy>
22.1455

> <b_lp_Chiralities_Consistent>
1

> <s_lp_Variant>
AV-unprocessed.smi:2126-4

> <Gold.Version>
5.8.1

> <Gold.Id.Protein>
6NUR|6NUR_protein|mol2

> <Gold.PLP.Fitness>
50.4145

> <Gold.PLP.PLP>
-37.2633

> <Gold.PLP.part.hbond>
-3.9095

> <Gold.PLP.part.metal>
0.0000

> <Gold.PLP.part.buried>
-3.0416

> <Gold.PLP.part.nonpolar>
-31.0518

> <Gold.PLP.part.repulsive>
0.3138

> <Gold.PLP.ligand.clash>
0.0000

> <Gold.PLP.ligand.torsion>
1.0033

> <Gold.PLP.Chemscore.Hbond>
4.0000

> <Gold.PLP.Chemscore.CHOScore>
1.0000

> <Gold.PLP.Chemscore.Metal>
0.0000

> <Gold.Chemscore.Hbonds>
donor molecule, donor type, donor heavy atom, donor atom, acceptor molecule, acceptor atom, score
      L1  H    10    31       P1 10171  1.00
      L1  H    14    41       P1 10186  2.00
      P1  H  7954  7966       L1    10  1.00
      L1  C    13    34       P1 10171  0.98

> <Gold.PLP.Chemscore.Internal.Correction>
0.1579

> <Gold.Rescore>
     Score         DG    S(hbond)    S(metal)    S(lipo)     H(rot)  DE(clash)    DE(int)     intcor
     16.97     -17.90       2.73        0.00      85.30       2.60       0.22       0.72       ----

> <Gold.Chemscore.Fitness>
16.9670

> <Gold.Chemscore.DG>
-17.9028

> <Gold.Chemscore.ZeroCoef>
-5.4800

> <Gold.Chemscore.Hbond>
2.7275

> <Gold.Chemscore.Metal>
0.0000

> <Gold.Chemscore.Lipo>
85.2977

> <Gold.Chemscore.Internal_Hbond>
0.0000

> <Gold.Chemscore.DEClash>
0.2188

> <Gold.Chemscore.DEInternal>
0.7170

> <Gold.Chemscore.Rot>
2.6043

> <Gold.Chemscore.Internal.Correction>
   9.000000E+99

> <Gold.Chemscore.Hbonds>
donor molecule, donor type, donor heavy atom, donor atom, acceptor molecule, acceptor atom, score
      L1  H    10    31       P1 10171  0.93
      L1  H    14    41       P1 10186  0.67
      P1  H  7954  7966       L1    10  0.94

> <Gold.Chemscore.Hbond.Weighted>
-9.1100

> <Gold.Chemscore.Metal.Weighted>
-0.0000

> <Gold.Chemscore.Lipo.Weighted>
-9.9798

> <Gold.Chemscore.Internal_Hbond.Weighted>
0.0000

> <Gold.Chemscore.DEClash.Weighted>
0.2188

> <Gold.Chemscore.DEInternal.Weighted>
0.7170

> <Gold.Chemscore.Rot.Weighted>
6.6670

> <Gold.Chemscore.Internal.Correction.Weighted>
   9.000000E+99

> <Gold.Protein.RotatedTorsions>
[ 6907 6896 6895 6894 ] final -157.27 input  -60.11 | X-H torsion
[ 7974 7965 7964 7962 ] final  -43.99 input  175.53 | X-H torsion
[ 8008 7997 7996 7995 ] final   54.77 input   59.86 | X-H torsion
[ 10167 10162 10161 10158 ] final  149.70 input  -65.29 | X-H torsion
[ 10718 10713 10712 10709 ] final   80.23 input   66.30 | X-H torsion
[ 10763 10752 10751 10750 ] final  -50.86 input  -60.55 | X-H torsion
[ 11005 11000 10999 10996 ] final    7.71 input  -57.11 | X-H torsion

> <Gold.Protein.ActiveResidues>
 VAL166  LYS551  ARG553  GLY616  TRP617  ASP618  TYR619  PRO620  LYS621  CYS622 
 ASP623  PHE694  ASN695  SER759  ASP760  ASP761  ALA762  ILE779  LEU786  VAL792 
 PHE793  MET794  SER795  GLU796  ALA797  LYS798  CYS799  TRP800  GLU811  SER814 

> <Gold.Protein.RotatedAtoms>
  151.3002  133.4125  159.2638 H   0  0  0  0  0  0  0  0  0  0  0  0  # atno 6907 bound_to 6896
  151.0201  134.9463  159.8065 H   0  0  0  0  0  0  0  0  0  0  0  0  # atno 6908 bound_to 6896
  152.5322  134.2966  159.9115 H   0  0  0  0  0  0  0  0  0  0  0  0  # atno 6909 bound_to 6896
  145.9965  140.7123  142.9291 H   0  0  0  0  0  0  0  0  0  0  0  0  # atno 7974 bound_to 7965
  155.4901  140.3471  155.4353 H   0  0  0  0  0  0  0  0  0  0  0  0  # atno 8008 bound_to 7997
  156.0982  140.1428  156.9531 H   0  0  0  0  0  0  0  0  0  0  0  0  # atno 8009 bound_to 7997
  154.4677  140.0912  156.7041 H   0  0  0  0  0  0  0  0  0  0  0  0  # atno 8010 bound_to 7997
  139.4858  144.5581  151.7281 H   0  0  0  0  0  0  0  0  0  0  0  0  # atno 10167 bound_to 10162
  157.6800  130.9950  150.2048 H   0  0  0  0  0  0  0  0  0  0  0  0  # atno 10718 bound_to 10713
  154.1171  135.6540  153.4896 H   0  0  0  0  0  0  0  0  0  0  0  0  # atno 10763 bound_to 10752
  153.0237  135.5261  154.7133 H   0  0  0  0  0  0  0  0  0  0  0  0  # atno 10764 bound_to 10752
  154.6330  135.2978  155.0163 H   0  0  0  0  0  0  0  0  0  0  0  0  # atno 10765 bound_to 10752
  140.5451  134.0337  155.7917 H   0  0  0  0  0  0  0  0  0  0  0  0  # atno 11005 bound_to 11000
  144.6905  140.3159  143.7240 LP  0  0  0  0  0  0  0  0  0  0  0  0  # atno 17320 bound_to 7965
  145.7552  139.1806  143.2298 LP  0  0  0  0  0  0  0  0  0  0  0  0  # atno 17321 bound_to 7965
  140.5146  144.0973  150.6004 LP  0  0  0  0  0  0  0  0  0  0  0  0  # atno 17342 bound_to 10162
  140.3910  143.2752  152.0060 LP  0  0  0  0  0  0  0  0  0  0  0  0  # atno 17343 bound_to 10162
  156.2731  130.3724  149.8011 LP  0  0  0  0  0  0  0  0  0  0  0  0  # atno 17370 bound_to 10713
  156.5722  130.8429  151.3359 LP  0  0  0  0  0  0  0  0  0  0  0  0  # atno 17371 bound_to 10713
  141.1204  133.9470  157.2740 LP  0  0  0  0  0  0  0  0  0  0  0  0  # atno 17394 bound_to 11000
  139.9484  135.0180  156.8920 LP  0  0  0  0  0  0  0  0  0  0  0  0  # atno 17395 bound_to 11000

$$$$
