AV-unprocessed.smi:735|AV-procd|sdf|3533|dock9
  -GOLD-   22720 0523D 1   1.00000     0.00000
 Structure written by MMmdl.
 17 17  0  0  0  0  0  0  0  0  2 V2000
  150.9048  138.3738  157.4670 O   0  0  0  0  0  0  0  0  0  0  0  0
  151.7954  138.8027  156.6999 C   0  0  0  0  0  0  0  0  0  0  0  0
  152.9071  139.2413  157.0735 O   0  5  0  0  0  0  0  0  0  0  0  0
  151.4809  138.7908  155.1935 C   0  0  0  0  0  0  0  0  0  0  0  0
  152.5787  139.2033  154.5547 F   0  0  0  0  0  0  0  0  0  0  0  0
  151.2787  137.5228  154.8278 F   0  0  0  0  0  0  0  0  0  0  0  0
  150.2983  139.6957  154.8170 C   0  0  0  0  0  0  0  0  0  0  0  0
  149.3063  139.2477  154.0004 C   0  0  0  0  0  0  0  0  0  0  0  0
  148.2067  140.0053  153.6570 N   0  0  0  0  0  0  0  0  0  0  0  0
  148.0442  141.2987  154.1487 C   0  0  0  0  0  0  0  0  0  0  0  0
  147.0689  141.9850  153.8535 O   0  0  0  0  0  0  0  0  0  0  0  0
  149.0463  141.7716  154.9932 N   0  0  0  0  0  0  0  0  0  0  0  0
  150.1887  141.0571  155.3766 C   0  0  0  0  0  0  0  0  0  0  0  0
  151.0031  141.6050  156.1177 O   0  0  0  0  0  0  0  0  0  0  0  0
  147.4961  139.6359  153.0420 H   0  0  0  0  0  0  0  0  0  0  0  0
  148.9452  142.7088  155.3541 H   0  0  0  0  0  0  0  0  0  0  0  0
  149.3643  138.2511  153.5872 H   0  0  0  0  0  0  0  0  0  0  0  0
  1  2  2  0  0  0  0
  2  3  1  0  0  0  0
  2  4  1  0  0  0  0
  4  5  1  0  0  0  0
  4  6  1  0  0  0  0
  4  7  1  0  0  0  0
  7 13  1  0  0  0  0
  7  8  2  0  0  0  0
  8  9  1  0  0  0  0
  8 17  1  0  0  0  0
  9 15  1  0  0  0  0
  9 10  1  0  0  0  0
 10 11  2  0  0  0  0
 10 12  1  0  0  0  0
 12 16  1  0  0  0  0
 12 13  1  0  0  0  0
 13 14  2  0  0  0  0
M  CHG  1   3  -1
M  END
> <s_m_source_file>
AV-unprocessed.smi

> <i_m_source_file_index>
735

> <i_lp_mmshare_version>
43012

> <i_f3d_flags>
0

> <s_epik_input>
Tz1DKFtPSF0pQyhGKShGKWMxW2NIXVtuSF1jKD1PKVtuSF1jMT1P

> <s_epik_cmdline>
J2VwaWtfcHl0aG9uJywgJy1waCcsICc3LjAnLCAnLXRuJywgJzgnLCAnLW1hJywgJzIwMCcsICctbWV0YWxfYmluZGluZycsICctaW1hZScsICc8aW5maWxlLm1hZT4nLCAnLW9tYWUnLCAnPG91dGZpbGUubWFlPic=

> <r_lp_tautomer_probability>
0.999514

> <r_epik_Ionization_Penalty>
0.138461

> <r_epik_Ionization_Penalty_Charging>
0.138461

> <r_epik_Ionization_Penalty_Neutral>
0

> <r_epik_State_Penalty>
0.812948

> <r_epik_Charging_Adjusted_Penalty>
0.951409

> <i_epik_Tot_Q>
-1

> <i_epik_Tot_abs_Q>
1

> <r_epik_Metal_State_Penalty>
4.31017

> <b_epik_Metal_Only>
0

> <s_lp_Force_Field>
OPLS_2005

> <r_lp_Energy>
7.04955

> <b_lp_Chiralities_Consistent>
1

> <s_lp_Variant>
AV-unprocessed.smi:735-2

> <Gold.Version>
5.8.1

> <Gold.Id.Protein>
6NUR|6NUR_protein|mol2

> <Gold.PLP.Fitness>
32.3459

> <Gold.PLP.PLP>
-22.5471

> <Gold.PLP.part.hbond>
-3.0000

> <Gold.PLP.part.metal>
0.0000

> <Gold.PLP.part.buried>
-0.0441

> <Gold.PLP.part.nonpolar>
-19.0369

> <Gold.PLP.part.repulsive>
0.5151

> <Gold.PLP.ligand.clash>
0.0816

> <Gold.PLP.ligand.torsion>
0.4837

> <Gold.PLP.Chemscore.Hbond>
3.0000

> <Gold.PLP.Chemscore.CHOScore>
0.5997

> <Gold.PLP.Chemscore.Metal>
0.0000

> <Gold.Chemscore.Hbonds>
donor molecule, donor type, donor heavy atom, donor atom, acceptor molecule, acceptor atom, score
      L1  H    12    16       P1  8028  1.00
      P1  H  7997  8009       L1     3  2.00
      L1  C     8    17       P1  7948  0.68

> <Gold.PLP.Chemscore.Internal.Correction>
0.0489

> <Gold.Rescore>
     Score         DG    S(hbond)    S(metal)    S(lipo)     H(rot)  DE(clash)    DE(int)     intcor
      8.21      -9.86       1.99        0.00      20.58       1.82       0.03       1.62       ----

> <Gold.Chemscore.Fitness>
8.2127

> <Gold.Chemscore.DG>
-9.8630

> <Gold.Chemscore.ZeroCoef>
-5.4800

> <Gold.Chemscore.Hbond>
1.9855

> <Gold.Chemscore.Metal>
0.0000

> <Gold.Chemscore.Lipo>
20.5753

> <Gold.Chemscore.Internal_Hbond>
0.0000

> <Gold.Chemscore.DEClash>
0.0314

> <Gold.Chemscore.DEInternal>
1.6188

> <Gold.Chemscore.Rot>
1.8187

> <Gold.Chemscore.Internal.Correction>
   9.000000E+99

> <Gold.Chemscore.Hbonds>
donor molecule, donor type, donor heavy atom, donor atom, acceptor molecule, acceptor atom, score
      L1  H    12    16       P1  8028  0.93
      P1  H  7997  8009       L1     3  1.00

> <Gold.Chemscore.Hbond.Weighted>
-6.6316

> <Gold.Chemscore.Metal.Weighted>
-0.0000

> <Gold.Chemscore.Lipo.Weighted>
-2.4073

> <Gold.Chemscore.Internal_Hbond.Weighted>
0.0000

> <Gold.Chemscore.DEClash.Weighted>
0.0314

> <Gold.Chemscore.DEInternal.Weighted>
1.6188

> <Gold.Chemscore.Rot.Weighted>
4.6559

> <Gold.Chemscore.Internal.Correction.Weighted>
   9.000000E+99

> <Gold.Protein.RotatedTorsions>
[ 6907 6896 6895 6894 ] final   26.57 input  -60.11 | X-H torsion
[ 7974 7965 7964 7962 ] final  159.09 input  175.53 | X-H torsion
[ 8008 7997 7996 7995 ] final -177.58 input   59.86 | X-H torsion
[ 10167 10162 10161 10158 ] final   52.02 input  -65.29 | X-H torsion
[ 10718 10713 10712 10709 ] final   63.56 input   66.30 | X-H torsion
[ 10763 10752 10751 10750 ] final -125.89 input  -60.55 | X-H torsion
[ 11005 11000 10999 10996 ] final   93.59 input  -57.11 | X-H torsion

> <Gold.Protein.ActiveResidues>
 VAL166  LYS551  ARG553  GLY616  TRP617  ASP618  TYR619  PRO620  LYS621  CYS622 
 ASP623  PHE694  ASN695  SER759  ASP760  ASP761  ALA762  ILE779  LEU786  VAL792 
 PHE793  MET794  SER795  GLU796  ALA797  LYS798  CYS799  TRP800  GLU811  SER814 

> <Gold.Protein.RotatedAtoms>
  151.9894  134.9987  160.0560 H   0  0  0  0  0  0  0  0  0  0  0  0  # atno 6907 bound_to 6896
  152.1623  133.4585  159.4875 H   0  0  0  0  0  0  0  0  0  0  0  0  # atno 6908 bound_to 6896
  150.6889  134.1974  159.4352 H   0  0  0  0  0  0  0  0  0  0  0  0  # atno 6909 bound_to 6896
  144.7809  139.7569  143.6260 H   0  0  0  0  0  0  0  0  0  0  0  0  # atno 7974 bound_to 7965
  156.0086  140.1236  157.0476 H   0  0  0  0  0  0  0  0  0  0  0  0  # atno 8008 bound_to 7997
  154.4267  140.1092  156.5867 H   0  0  0  0  0  0  0  0  0  0  0  0  # atno 8009 bound_to 7997
  155.6111  140.3471  155.4625 H   0  0  0  0  0  0  0  0  0  0  0  0  # atno 8010 bound_to 7997
  140.2558  144.3428  150.6333 H   0  0  0  0  0  0  0  0  0  0  0  0  # atno 10167 bound_to 10162
  157.5979  130.9112  149.9731 H   0  0  0  0  0  0  0  0  0  0  0  0  # atno 10718 bound_to 10713
  154.8740  135.4014  154.3342 H   0  0  0  0  0  0  0  0  0  0  0  0  # atno 10763 bound_to 10752
  153.4151  135.7022  153.6338 H   0  0  0  0  0  0  0  0  0  0  0  0  # atno 10764 bound_to 10752
  153.5024  135.3725  155.2516 H   0  0  0  0  0  0  0  0  0  0  0  0  # atno 10765 bound_to 10752
  139.8808  134.8798  156.3740 H   0  0  0  0  0  0  0  0  0  0  0  0  # atno 11005 bound_to 11000
  146.2017  139.5315  142.9739 LP  0  0  0  0  0  0  0  0  0  0  0  0  # atno 17320 bound_to 7965
  145.6053  141.0349  143.1996 LP  0  0  0  0  0  0  0  0  0  0  0  0  # atno 17321 bound_to 7965
  140.6005  143.2167  151.7082 LP  0  0  0  0  0  0  0  0  0  0  0  0  # atno 17342 bound_to 10162
  139.5032  144.3801  152.0385 LP  0  0  0  0  0  0  0  0  0  0  0  0  # atno 17343 bound_to 10162
  156.1046  130.3653  150.0157 LP  0  0  0  0  0  0  0  0  0  0  0  0  # atno 17370 bound_to 10713
  156.8266  130.9377  151.3639 LP  0  0  0  0  0  0  0  0  0  0  0  0  # atno 17371 bound_to 10713
  140.9444  133.7492  156.0189 LP  0  0  0  0  0  0  0  0  0  0  0  0  # atno 17394 bound_to 11000
  140.8180  134.3322  157.5391 LP  0  0  0  0  0  0  0  0  0  0  0  0  # atno 17395 bound_to 11000

$$$$
