AV-unprocessed.smi:487|AV-procd|sdf|2700|dock5
  -GOLD-   2262023133D 1   1.00000     0.00000
 Structure written by MMmdl.
 40 41  0  0  0  0  0  0  0  0  2 V2000
  149.7388  141.3548  157.6594 O   0  0  0  0  0  0  0  0  0  0  0  0
  150.8460  141.0387  157.2246 C   0  0  0  0  0  0  0  0  0  0  0  0
  150.9311  140.1500  155.9714 C   0  0  0  0  0  0  0  0  0  0  0  0
  151.4137  138.7779  156.2147 N   0  0  0  0  0  0  0  0  0  0  0  0
  151.7922  138.4459  157.5275 C   0  0  0  0  0  0  0  0  0  0  0  0
  152.2539  137.2216  157.8460 C   0  0  0  0  0  0  0  0  0  0  0  0
  152.3568  136.2258  156.7868 C   0  0  0  0  0  0  0  0  0  0  0  0
  152.7755  135.1024  157.0592 O   0  0  0  0  0  0  0  0  0  0  0  0
  151.9792  136.5966  155.5284 N   0  5  0  0  0  0  0  0  0  0  0  0
  151.5135  137.8462  155.2186 C   0  0  0  0  0  0  0  0  0  0  0  0
  151.1890  138.1635  154.0742 O   0  0  0  0  0  0  0  0  0  0  0  0
  151.9953  141.4303  157.8018 N   0  0  0  0  0  0  0  0  0  0  0  0
  152.1218  142.2795  158.9833 C   0  0  0  0  0  0  0  0  0  0  0  0
  152.5866  143.6913  158.5555 C   0  0  0  0  0  0  0  0  0  0  0  0
  151.6624  144.8406  159.0021 C   0  0  0  0  0  0  0  0  0  0  0  0
  151.1272  144.8075  160.4491 C   0  0  0  0  0  0  0  0  0  0  0  0
  152.1738  144.6359  161.5639 C   0  0  0  0  0  0  0  0  0  0  0  0
  152.4483  143.1787  161.9957 C   0  0  0  0  0  0  0  0  0  0  0  0
  153.5442  142.4542  161.1949 C   0  0  0  0  0  0  0  0  0  0  0  0
  153.0690  141.6020  159.9998 C   0  0  0  0  0  0  0  0  0  0  0  0
  149.9416  140.1194  155.5133 H   0  0  0  0  0  0  0  0  0  0  0  0
  151.5649  140.6488  155.2363 H   0  0  0  0  0  0  0  0  0  0  0  0
  151.6909  139.2418  158.2506 H   0  0  0  0  0  0  0  0  0  0  0  0
  152.5430  136.9836  158.8591 H   0  0  0  0  0  0  0  0  0  0  0  0
  152.8564  141.1270  157.3694 H   0  0  0  0  0  0  0  0  0  0  0  0
  151.1309  142.3470  159.4299 H   0  0  0  0  0  0  0  0  0  0  0  0
  153.5984  143.8862  158.9066 H   0  0  0  0  0  0  0  0  0  0  0  0
  152.6735  143.7475  157.4691 H   0  0  0  0  0  0  0  0  0  0  0  0
  152.1876  145.7824  158.8397 H   0  0  0  0  0  0  0  0  0  0  0  0
  150.8025  144.8687  158.3318 H   0  0  0  0  0  0  0  0  0  0  0  0
  150.6196  145.7584  160.6145 H   0  0  0  0  0  0  0  0  0  0  0  0
  150.3410  144.0607  160.5574 H   0  0  0  0  0  0  0  0  0  0  0  0
  153.0983  145.1586  161.3158 H   0  0  0  0  0  0  0  0  0  0  0  0
  151.7826  145.1520  162.4416 H   0  0  0  0  0  0  0  0  0  0  0  0
  152.7915  143.2197  163.0302 H   0  0  0  0  0  0  0  0  0  0  0  0
  151.5299  142.5911  162.0243 H   0  0  0  0  0  0  0  0  0  0  0  0
  154.3099  143.1646  160.8843 H   0  0  0  0  0  0  0  0  0  0  0  0
  154.0628  141.7776  161.8750 H   0  0  0  0  0  0  0  0  0  0  0  0
  152.5776  140.7081  160.3860 H   0  0  0  0  0  0  0  0  0  0  0  0
  153.9571  141.2433  159.4773 H   0  0  0  0  0  0  0  0  0  0  0  0
  1  2  2  0  0  0  0
  2  3  1  0  0  0  0
  2 12  1  0  0  0  0
  3  4  1  0  0  0  0
  3 21  1  0  0  0  0
  3 22  1  0  0  0  0
  4 10  1  0  0  0  0
  4  5  1  0  0  0  0
  5  6  2  0  0  0  0
  5 23  1  0  0  0  0
  6  7  1  0  0  0  0
  6 24  1  0  0  0  0
  7  8  2  0  0  0  0
  7  9  1  0  0  0  0
  9 10  1  0  0  0  0
 10 11  2  0  0  0  0
 12 13  1  0  0  0  0
 12 25  1  0  0  0  0
 13 20  1  0  0  0  0
 13 14  1  0  0  0  0
 13 26  1  0  0  0  0
 14 15  1  0  0  0  0
 14 27  1  0  0  0  0
 14 28  1  0  0  0  0
 15 16  1  0  0  0  0
 15 29  1  0  0  0  0
 15 30  1  0  0  0  0
 16 17  1  0  0  0  0
 16 31  1  0  0  0  0
 16 32  1  0  0  0  0
 17 18  1  0  0  0  0
 17 33  1  0  0  0  0
 17 34  1  0  0  0  0
 18 19  1  0  0  0  0
 18 35  1  0  0  0  0
 18 36  1  0  0  0  0
 19 20  1  0  0  0  0
 19 37  1  0  0  0  0
 19 38  1  0  0  0  0
 20 39  1  0  0  0  0
 20 40  1  0  0  0  0
M  CHG  1   9  -1
M  END
> <s_m_source_file>
AV-unprocessed.smi

> <i_m_source_file_index>
487

> <i_lp_mmshare_version>
43012

> <i_f3d_flags>
0

> <s_epik_input>
Tz1jMVtuSF1jKD1PKVtjSF1bY0hdbjFbQ0gyXUMoPU8pW05IXVtDSF0yW0NIMl1bQ0gyXVtDSDJdW0NIMl1bQ0gyXVtDSDJdW0NIMl0y

> <s_epik_cmdline>
J2VwaWtfcHl0aG9uJywgJy1waCcsICc3LjAnLCAnLXRuJywgJzgnLCAnLW1hJywgJzIwMCcsICctbWV0YWxfYmluZGluZycsICctaW1hZScsICc8aW5maWxlLm1hZT4nLCAnLW9tYWUnLCAnPG91dGZpbGUubWFlPic=

> <r_lp_tautomer_probability>
0.999537

> <r_epik_Ionization_Penalty>
3.09244

> <r_epik_Ionization_Penalty_Charging>
2.84692e-08

> <r_epik_Ionization_Penalty_Neutral>
3.09244

> <r_epik_State_Penalty>
3.09149

> <r_epik_Charging_Adjusted_Penalty>
3.09149

> <i_epik_Tot_Q>
-1

> <i_epik_Tot_abs_Q>
1

> <r_epik_Metal_State_Penalty>
0.461034

> <b_epik_Metal_Only>
1

> <s_lp_Force_Field>
OPLS_2005

> <r_lp_Energy>
30.2877

> <b_lp_Chiralities_Consistent>
1

> <s_lp_Variant>
AV-unprocessed.smi:487-2

> <Gold.Version>
5.8.1

> <Gold.Id.Protein>
6NUR|6NUR_protein|mol2

> <Gold.PLP.Fitness>
45.5514

> <Gold.PLP.PLP>
-39.9858

> <Gold.PLP.part.hbond>
-2.1206

> <Gold.PLP.part.metal>
0.0000

> <Gold.PLP.part.buried>
-2.6919

> <Gold.PLP.part.nonpolar>
-35.2776

> <Gold.PLP.part.repulsive>
0.4340

> <Gold.PLP.ligand.clash>
0.0000

> <Gold.PLP.ligand.torsion>
0.2236

> <Gold.PLP.Chemscore.Hbond>
2.0000

> <Gold.PLP.Chemscore.CHOScore>
0.0000

> <Gold.PLP.Chemscore.Metal>
0.0000

> <Gold.Chemscore.Hbonds>
donor molecule, donor type, donor heavy atom, donor atom, acceptor molecule, acceptor atom, score
      P1  H 10752 10763       L1     9  1.98

> <Gold.PLP.Chemscore.Internal.Correction>
0.0127

> <Gold.Rescore>
     Score         DG    S(hbond)    S(metal)    S(lipo)     H(rot)  DE(clash)    DE(int)     intcor
     15.31     -16.25       0.75        0.00     106.67       1.64       0.51       0.44       ----

> <Gold.Chemscore.Fitness>
15.3073

> <Gold.Chemscore.DG>
-16.2517

> <Gold.Chemscore.ZeroCoef>
-5.4800

> <Gold.Chemscore.Hbond>
0.7483

> <Gold.Chemscore.Metal>
0.0000

> <Gold.Chemscore.Lipo>
106.6688

> <Gold.Chemscore.Internal_Hbond>
0.0000

> <Gold.Chemscore.DEClash>
0.5053

> <Gold.Chemscore.DEInternal>
0.4390

> <Gold.Chemscore.Rot>
1.6438

> <Gold.Chemscore.Internal.Correction>
   9.000000E+99

> <Gold.Chemscore.Hbonds>
donor molecule, donor type, donor heavy atom, donor atom, acceptor molecule, acceptor atom, score
      P1  H 10752 10763       L1     9  0.33

> <Gold.Chemscore.Hbond.Weighted>
-2.4995

> <Gold.Chemscore.Metal.Weighted>
-0.0000

> <Gold.Chemscore.Lipo.Weighted>
-12.4802

> <Gold.Chemscore.Internal_Hbond.Weighted>
0.0000

> <Gold.Chemscore.DEClash.Weighted>
0.5053

> <Gold.Chemscore.DEInternal.Weighted>
0.4390

> <Gold.Chemscore.Rot.Weighted>
4.2080

> <Gold.Chemscore.Internal.Correction.Weighted>
   9.000000E+99

> <Gold.Protein.RotatedTorsions>
[ 6907 6896 6895 6894 ] final  -58.13 input  -60.11 | X-H torsion
[ 7974 7965 7964 7962 ] final  -26.19 input  175.53 | X-H torsion
[ 8008 7997 7996 7995 ] final   67.00 input   59.86 | X-H torsion
[ 10167 10162 10161 10158 ] final   49.88 input  -65.29 | X-H torsion
[ 10718 10713 10712 10709 ] final  -79.32 input   66.30 | X-H torsion
[ 10763 10752 10751 10750 ] final   57.72 input  -60.55 | X-H torsion
[ 11005 11000 10999 10996 ] final   18.37 input  -57.11 | X-H torsion

> <Gold.Protein.ActiveResidues>
 VAL166  LYS551  ARG553  GLY616  TRP617  ASP618  TYR619  PRO620  LYS621  CYS622 
 ASP623  PHE694  ASN695  SER759  ASP760  ASP761  ALA762  ILE779  LEU786  VAL792 
 PHE793  MET794  SER795  GLU796  ALA797  LYS798  CYS799  TRP800  GLU811  SER814 

> <Gold.Protein.RotatedAtoms>
  150.8031  134.7138  159.6618 H   0  0  0  0  0  0  0  0  0  0  0  0  # atno 6907 bound_to 6896
  152.4149  134.6056  160.0021 H   0  0  0  0  0  0  0  0  0  0  0  0  # atno 6908 bound_to 6896
  151.6288  133.3296  159.3140 H   0  0  0  0  0  0  0  0  0  0  0  0  # atno 6909 bound_to 6896
  146.1442  140.4986  142.8639 H   0  0  0  0  0  0  0  0  0  0  0  0  # atno 7974 bound_to 7965
  155.6862  140.3496  155.4875 H   0  0  0  0  0  0  0  0  0  0  0  0  # atno 8008 bound_to 7997
  155.9564  140.1129  157.0955 H   0  0  0  0  0  0  0  0  0  0  0  0  # atno 8009 bound_to 7997
  154.4133  140.1184  156.5107 H   0  0  0  0  0  0  0  0  0  0  0  0  # atno 8010 bound_to 7997
  140.2783  144.3186  150.6271 H   0  0  0  0  0  0  0  0  0  0  0  0  # atno 10167 bound_to 10162
  156.0095  130.4542  150.3631 H   0  0  0  0  0  0  0  0  0  0  0  0  # atno 10718 bound_to 10713
  152.9855  135.5632  154.5436 H   0  0  0  0  0  0  0  0  0  0  0  0  # atno 10763 bound_to 10752
  154.4886  135.2792  155.1517 H   0  0  0  0  0  0  0  0  0  0  0  0  # atno 10764 bound_to 10752
  154.2996  135.6310  153.5472 H   0  0  0  0  0  0  0  0  0  0  0  0  # atno 10765 bound_to 10752
  140.4255  134.1474  155.7676 H   0  0  0  0  0  0  0  0  0  0  0  0  # atno 11005 bound_to 11000
  144.7827  140.5873  143.6595 LP  0  0  0  0  0  0  0  0  0  0  0  0  # atno 17320 bound_to 7965
  145.4977  139.1485  143.3675 LP  0  0  0  0  0  0  0  0  0  0  0  0  # atno 17321 bound_to 7965
  140.5833  143.2171  151.7388 LP  0  0  0  0  0  0  0  0  0  0  0  0  # atno 17342 bound_to 10162
  139.4969  144.4048  152.0143 LP  0  0  0  0  0  0  0  0  0  0  0  0  # atno 17343 bound_to 10162
  157.1718  131.0371  151.2791 LP  0  0  0  0  0  0  0  0  0  0  0  0  # atno 17370 bound_to 10713
  157.4222  130.7444  149.6922 LP  0  0  0  0  0  0  0  0  0  0  0  0  # atno 17371 bound_to 10713
  141.1767  133.8500  157.1398 LP  0  0  0  0  0  0  0  0  0  0  0  0  # atno 17394 bound_to 11000
  140.0170  134.9963  157.0514 LP  0  0  0  0  0  0  0  0  0  0  0  0  # atno 17395 bound_to 11000

$$$$
