AV-unprocessed.smi:2583|AV-procd|sdf|10136|dock6
  -GOLD-   2272014153D 1   1.00000     0.00000
 Structure written by MMmdl.
 55 57  0  0  0  0  0  0  0  0  3 V2000
  153.4786  142.2870  161.1789 C   0  0  0  0  0  0  0  0  0  0  0  0
  152.4748  143.1452  160.4378 C   0  0  0  0  0  0  0  0  0  0  0  0
  152.1233  144.4264  160.9103 C   0  0  0  0  0  0  0  0  0  0  0  0
  151.2247  145.2223  160.2936 N   0  0  0  0  0  0  0  0  0  0  0  0
  150.6430  144.7621  159.1661 C   0  0  0  0  0  0  0  0  0  0  0  0
  150.9287  143.5044  158.5943 C   0  0  0  0  0  0  0  0  0  0  0  0
  150.2290  143.1357  157.4141 N   0  0  0  0  0  0  0  0  0  0  0  0
  150.4505  142.0873  156.6033 C   0  0  0  0  0  0  0  0  0  0  0  0
  151.3566  141.2650  156.7349 O   0  0  0  0  0  0  0  0  0  0  0  0
  149.5592  142.0570  155.6017 N   0  0  0  0  0  0  0  0  0  0  0  0
  149.5097  141.0634  154.5321 C   0  0  2  0  0  0  0  0  0  0  0  0
  148.1231  141.0805  153.8615 C   0  0  0  0  0  0  0  0  0  0  0  0
  147.9764  139.9239  152.8532 C   0  0  0  0  0  0  0  0  0  0  0  0
  148.2239  138.5975  153.4893 N   0  3  2  0  0  0  0  0  0  0  0  0
  147.1515  138.1274  154.4336 C   0  0  2  0  0  0  0  0  0  0  0  0
  147.4508  136.7214  155.0134 C   0  0  0  0  0  0  0  0  0  0  0  0
  146.3206  136.2046  155.9198 C   0  0  0  0  0  0  0  0  0  0  0  0
  145.0266  136.1814  155.2007 N   0  3  1  0  0  0  0  0  0  0  0  0
  143.9442  135.5755  156.0058 C   0  0  0  0  0  0  0  0  0  0  0  0
  144.6689  137.5254  154.6925 C   0  0  0  0  0  0  0  0  0  0  0  0
  145.7589  138.0731  153.7556 C   0  0  0  0  0  0  0  0  0  0  0  0
  149.6120  138.5743  154.0342 C   0  0  0  0  0  0  0  0  0  0  0  0
  149.8260  139.6672  155.0995 C   0  0  0  0  0  0  0  0  0  0  0  0
  151.8639  142.6743  159.2582 C   0  0  0  0  0  0  0  0  0  0  0  0
  153.8850  142.8094  162.0454 H   0  0  0  0  0  0  0  0  0  0  0  0
  154.3069  142.0208  160.5219 H   0  0  0  0  0  0  0  0  0  0  0  0
  153.0060  141.3678  161.5255 H   0  0  0  0  0  0  0  0  0  0  0  0
  152.5676  144.8232  161.8112 H   0  0  0  0  0  0  0  0  0  0  0  0
  149.9265  145.4240  158.7020 H   0  0  0  0  0  0  0  0  0  0  0  0
  149.5023  143.7749  157.1272 H   0  0  0  0  0  0  0  0  0  0  0  0
  148.8576  142.7825  155.5795 H   0  0  0  0  0  0  0  0  0  0  0  0
  150.2554  141.2872  153.7671 H   0  0  0  0  0  0  0  0  0  0  0  0
  147.3371  141.0199  154.6148 H   0  0  0  0  0  0  0  0  0  0  0  0
  147.9754  142.0321  153.3491 H   0  0  0  0  0  0  0  0  0  0  0  0
  147.0145  139.9666  152.3474 H   0  0  0  0  0  0  0  0  0  0  0  0
  148.7090  140.0579  152.0559 H   0  0  0  0  0  0  0  0  0  0  0  0
  147.0893  138.8242  155.2695 H   0  0  0  0  0  0  0  0  0  0  0  0
  147.6193  136.0130  154.2009 H   0  0  0  0  0  0  0  0  0  0  0  0
  148.3576  136.7303  155.6161 H   0  0  0  0  0  0  0  0  0  0  0  0
  146.5637  135.1991  156.2662 H   0  0  0  0  0  0  0  0  0  0  0  0
  146.2350  136.8332  156.8081 H   0  0  0  0  0  0  0  0  0  0  0  0
  143.7467  136.1627  156.9037 H   0  0  0  0  0  0  0  0  0  0  0  0
  144.2118  134.5633  156.3108 H   0  0  0  0  0  0  0  0  0  0  0  0
  143.0219  135.5147  155.4271 H   0  0  0  0  0  0  0  0  0  0  0  0
  143.7210  137.4718  154.1552 H   0  0  0  0  0  0  0  0  0  0  0  0
  144.5184  138.2065  155.5321 H   0  0  0  0  0  0  0  0  0  0  0  0
  145.4351  139.0638  153.4412 H   0  0  0  0  0  0  0  0  0  0  0  0
  145.8084  137.4585  152.8557 H   0  0  0  0  0  0  0  0  0  0  0  0
  149.8902  137.5945  154.4160 H   0  0  0  0  0  0  0  0  0  0  0  0
  150.3029  138.7486  153.2079 H   0  0  0  0  0  0  0  0  0  0  0  0
  150.8586  139.6388  155.4494 H   0  0  0  0  0  0  0  0  0  0  0  0
  149.2059  139.4630  155.9730 H   0  0  0  0  0  0  0  0  0  0  0  0
  152.1096  141.6876  158.8972 H   0  0  0  0  0  0  0  0  0  0  0  0
  148.2205  137.9286  152.7321 H   0  0  0  0  0  0  0  0  0  0  0  0
  145.1493  135.5854  154.3943 H   0  0  0  0  0  0  0  0  0  0  0  0
  1  2  1  0  0  0  0
  1 25  1  0  0  0  0
  1 26  1  0  0  0  0
  1 27  1  0  0  0  0
  2 24  1  0  0  0  0
  2  3  2  0  0  0  0
  3  4  1  0  0  0  0
  3 28  1  0  0  0  0
  4  5  2  0  0  0  0
  5  6  1  0  0  0  0
  5 29  1  0  0  0  0
  6  7  1  0  0  0  0
  6 24  2  0  0  0  0
  7  8  1  0  0  0  0
  7 30  1  0  0  0  0
  8  9  2  0  0  0  0
  8 10  1  0  0  0  0
 10 11  1  0  0  0  0
 10 31  1  0  0  0  0
 11 23  1  0  0  0  0
 11 12  1  0  0  0  0
 11 32  1  0  0  0  0
 12 13  1  0  0  0  0
 12 33  1  0  0  0  0
 12 34  1  0  0  0  0
 13 14  1  0  0  0  0
 13 35  1  0  0  0  0
 13 36  1  0  0  0  0
 14 15  1  0  0  0  0
 14 22  1  0  0  0  0
 14 54  1  0  0  0  0
 15 21  1  0  0  0  0
 15 16  1  0  0  0  0
 15 37  1  0  0  0  0
 16 17  1  0  0  0  0
 16 38  1  0  0  0  0
 16 39  1  0  0  0  0
 17 18  1  0  0  0  0
 17 40  1  0  0  0  0
 17 41  1  0  0  0  0
 18 19  1  0  0  0  0
 18 20  1  0  0  0  0
 18 55  1  0  0  0  0
 19 42  1  0  0  0  0
 19 43  1  0  0  0  0
 19 44  1  0  0  0  0
 20 21  1  0  0  0  0
 20 45  1  0  0  0  0
 20 46  1  0  0  0  0
 21 47  1  0  0  0  0
 21 48  1  0  0  0  0
 22 23  1  0  0  0  0
 22 49  1  0  0  0  0
 22 50  1  0  0  0  0
 23 51  1  0  0  0  0
 23 52  1  0  0  0  0
 24 53  1  0  0  0  0
M  CHG  1  14   1
M  CHG  1  18   1
M  END
> <s_m_source_file>
AV-unprocessed.smi

> <i_m_source_file_index>
2583

> <i_lp_mmshare_version>
43012

> <i_f3d_flags>
0

> <s_epik_input>
W0NIM11jMVtjSF1uW2NIXWMoW2NIXTEpW05IXUMoPU8pW05IXVtDSF0yW0NIMl1bQ0gyXU4oW0NIMl1bQ0gyXTIpW0NIXTNbQ0gyXVtDSDJdTihbQ0gzXSlbQ0gyXVtDSDJdMw==

> <s_epik_cmdline>
J2VwaWtfcHl0aG9uJywgJy1waCcsICc3LjAnLCAnLXRuJywgJzgnLCAnLW1hJywgJzIwMCcsICctbWV0YWxfYmluZGluZycsICctaW1hZScsICc8aW5maWxlLm1hZT4nLCAnLW9tYWUnLCAnPG91dGZpbGUubWFlPic=

> <r_epik_Ionization_Penalty>
0.188357

> <r_epik_Ionization_Penalty_Charging>
0.180787

> <r_epik_Ionization_Penalty_Neutral>
0.00756971

> <r_epik_State_Penalty>
0.157948

> <r_epik_Charging_Adjusted_Penalty>
0.338735

> <i_epik_Tot_Q>
2

> <i_epik_Tot_abs_Q>
2

> <r_epik_Metal_State_Penalty>
0.153874

> <b_epik_Metal_Only>
0

> <s_lp_Force_Field>
OPLS_2005

> <r_lp_Energy>
45.5267

> <b_lp_Chiralities_Consistent>
1

> <s_lp_Variant>
AV-unprocessed.smi:2583-2

> <Gold.Version>
5.8.1

> <Gold.Id.Protein>
6NUR|6NUR_protein|mol2

> <Gold.PLP.Fitness>
49.9806

> <Gold.PLP.PLP>
-36.6295

> <Gold.PLP.part.hbond>
-3.9015

> <Gold.PLP.part.metal>
0.0000

> <Gold.PLP.part.buried>
1.4971

> <Gold.PLP.part.nonpolar>
-34.5237

> <Gold.PLP.part.repulsive>
0.4213

> <Gold.PLP.ligand.clash>
0.0000

> <Gold.PLP.ligand.torsion>
0.3177

> <Gold.PLP.Chemscore.Hbond>
3.6480

> <Gold.PLP.Chemscore.CHOScore>
1.0000

> <Gold.PLP.Chemscore.Metal>
0.0000

> <Gold.Chemscore.Hbonds>
donor molecule, donor type, donor heavy atom, donor atom, acceptor molecule, acceptor atom, score
      L1  H     7    30       P1  8028  0.86
      L1  H    10    31       P1  8028  0.72
      L1  H    14    54       P1  7948  2.00
      L1  C     5    29       P1  8029  1.00

> <Gold.PLP.Chemscore.Internal.Correction>
0.0425

> <Gold.Rescore>
     Score         DG    S(hbond)    S(metal)    S(lipo)     H(rot)  DE(clash)    DE(int)     intcor
     18.93     -24.43       2.65        0.00     112.67       1.21       2.49       3.02       ----

> <Gold.Chemscore.Fitness>
18.9257

> <Gold.Chemscore.DG>
-24.4334

> <Gold.Chemscore.ZeroCoef>
-5.4800

> <Gold.Chemscore.Hbond>
2.6545

> <Gold.Chemscore.Metal>
0.0000

> <Gold.Chemscore.Lipo>
112.6738

> <Gold.Chemscore.Internal_Hbond>
0.0000

> <Gold.Chemscore.DEClash>
2.4862

> <Gold.Chemscore.DEInternal>
3.0214

> <Gold.Chemscore.Rot>
1.2092

> <Gold.Chemscore.Internal.Correction>
   9.000000E+99

> <Gold.Chemscore.Hbonds>
donor molecule, donor type, donor heavy atom, donor atom, acceptor molecule, acceptor atom, score
      L1  H     7    30       P1  8028  0.63
      L1  H    10    31       P1  8028  0.71
      L1  H    14    54       P1  7948  0.89

> <Gold.Chemscore.Hbond.Weighted>
-8.8660

> <Gold.Chemscore.Metal.Weighted>
-0.0000

> <Gold.Chemscore.Lipo.Weighted>
-13.1828

> <Gold.Chemscore.Internal_Hbond.Weighted>
0.0000

> <Gold.Chemscore.DEClash.Weighted>
2.4862

> <Gold.Chemscore.DEInternal.Weighted>
3.0214

> <Gold.Chemscore.Rot.Weighted>
3.0955

> <Gold.Chemscore.Internal.Correction.Weighted>
   9.000000E+99

> <Gold.Protein.RotatedTorsions>
[ 6907 6896 6895 6894 ] final  175.43 input  -60.11 | X-H torsion
[ 7974 7965 7964 7962 ] final  -32.11 input  175.53 | X-H torsion
[ 8008 7997 7996 7995 ] final -129.34 input   59.86 | X-H torsion
[ 10167 10162 10161 10158 ] final   56.85 input  -65.29 | X-H torsion
[ 10718 10713 10712 10709 ] final   76.11 input   66.30 | X-H torsion
[ 10763 10752 10751 10750 ] final   91.90 input  -60.55 | X-H torsion
[ 11005 11000 10999 10996 ] final   52.79 input  -57.11 | X-H torsion

> <Gold.Protein.ActiveResidues>
 VAL166  LYS551  ARG553  GLY616  TRP617  ASP618  TYR619  PRO620  LYS621  CYS622 
 ASP623  PHE694  ASN695  SER759  ASP760  ASP761  ALA762  ILE779  LEU786  VAL792 
 PHE793  MET794  SER795  GLU796  ALA797  LYS798  CYS799  TRP800  GLU811  SER814 

> <Gold.Protein.RotatedAtoms>
  151.7363  133.3320  159.3353 H   0  0  0  0  0  0  0  0  0  0  0  0  # atno 6907 bound_to 6896
  150.7592  134.6318  159.6200 H   0  0  0  0  0  0  0  0  0  0  0  0  # atno 6908 bound_to 6896
  152.3559  134.6942  160.0274 H   0  0  0  0  0  0  0  0  0  0  0  0  # atno 6909 bound_to 6896
  146.1016  140.5751  142.8818 H   0  0  0  0  0  0  0  0  0  0  0  0  # atno 7974 bound_to 7965
  155.2776  140.0442  157.3012 H   0  0  0  0  0  0  0  0  0  0  0  0  # atno 8008 bound_to 7997
  154.5616  140.2347  155.8295 H   0  0  0  0  0  0  0  0  0  0  0  0  # atno 8009 bound_to 7997
  156.2051  140.3014  155.9618 H   0  0  0  0  0  0  0  0  0  0  0  0  # atno 8010 bound_to 7997
  140.2043  144.3955  150.6515 H   0  0  0  0  0  0  0  0  0  0  0  0  # atno 10167 bound_to 10162
  157.6661  130.9759  150.1450 H   0  0  0  0  0  0  0  0  0  0  0  0  # atno 10718 bound_to 10713
  153.2133  135.4381  155.0405 H   0  0  0  0  0  0  0  0  0  0  0  0  # atno 10763 bound_to 10752
  154.8212  135.3338  154.7036 H   0  0  0  0  0  0  0  0  0  0  0  0  # atno 10764 bound_to 10752
  153.7473  135.7000  153.5009 H   0  0  0  0  0  0  0  0  0  0  0  0  # atno 10765 bound_to 10752
  140.0820  134.5325  155.8937 H   0  0  0  0  0  0  0  0  0  0  0  0  # atno 11005 bound_to 11000
  144.7437  140.5011  143.6851 LP  0  0  0  0  0  0  0  0  0  0  0  0  # atno 17320 bound_to 7965
  145.5844  139.1491  143.3217 LP  0  0  0  0  0  0  0  0  0  0  0  0  # atno 17321 bound_to 7965
  140.6368  143.2196  151.6377 LP  0  0  0  0  0  0  0  0  0  0  0  0  # atno 17342 bound_to 10162
  139.5205  144.3222  152.0900 LP  0  0  0  0  0  0  0  0  0  0  0  0  # atno 17343 bound_to 10162
  156.2263  130.3678  149.8496 LP  0  0  0  0  0  0  0  0  0  0  0  0  # atno 17370 bound_to 10713
  156.6335  130.8675  151.3500 LP  0  0  0  0  0  0  0  0  0  0  0  0  # atno 17371 bound_to 10713
  141.2050  133.6643  156.6154 LP  0  0  0  0  0  0  0  0  0  0  0  0  # atno 17394 bound_to 11000
  140.3474  134.7798  157.4442 LP  0  0  0  0  0  0  0  0  0  0  0  0  # atno 17395 bound_to 11000

$$$$
