AV-unprocessed.smi:1278|AV-procd|sdf|5349|dock1
  -GOLD-   22720 4483D 1   1.00000     0.00000
 Structure written by MMmdl.
 39 40  0  0  0  0  0  0  0  0  2 V2000
  147.7701  139.0942  153.3269 C   0  0  0  0  0  0  0  0  0  0  0  0
  148.4079  139.0437  154.7265 C   0  0  2  0  0  0  0  0  0  0  0  0
  149.8161  139.6658  154.7646 C   0  0  0  0  0  0  0  0  0  0  0  0
  150.8496  138.7448  154.1012 C   0  0  0  0  0  0  0  0  0  0  0  0
  150.8012  137.3335  154.7080 C   0  0  0  0  0  0  0  0  0  0  0  0
  149.4353  136.7558  154.6154 N   0  3  1  0  0  0  0  0  0  0  0  0
  149.3944  135.3377  155.0528 C   0  0  0  0  0  0  0  0  0  0  0  0
  150.1680  135.1057  156.3652 C   0  0  0  0  0  0  0  0  0  0  0  0
  149.5492  135.8087  157.4833 N   0  0  0  0  0  0  0  0  0  0  0  0
  149.0520  135.2173  158.5794 C   0  0  0  0  0  0  0  0  0  0  0  0
  149.0780  133.9994  158.7598 O   0  0  0  0  0  0  0  0  0  0  0  0
  148.5387  136.1209  159.4325 N   0  0  0  0  0  0  0  0  0  0  0  0
  147.9252  135.8892  160.6918 C   0  0  0  0  0  0  0  0  0  0  0  0
  147.4256  136.8513  161.4763 N   0  0  0  0  0  0  0  0  0  0  0  0
  146.8842  136.3363  162.6572 C   0  0  0  0  0  0  0  0  0  0  0  0
  146.9791  134.9705  162.7546 C   0  0  0  0  0  0  0  0  0  0  0  0
  147.7579  134.2721  161.3598 S   0  0  0  0  0  0  0  0  0  0  0  0
  148.4321  137.6130  155.3039 C   0  0  0  0  0  0  0  0  0  0  0  0
  148.3254  138.4976  152.6031 H   0  0  0  0  0  0  0  0  0  0  0  0
  147.7296  140.1169  152.9515 H   0  0  0  0  0  0  0  0  0  0  0  0
  146.7483  138.7147  153.3504 H   0  0  0  0  0  0  0  0  0  0  0  0
  147.7706  139.6467  155.3750 H   0  0  0  0  0  0  0  0  0  0  0  0
  149.8172  140.6452  154.2847 H   0  0  0  0  0  0  0  0  0  0  0  0
  150.1056  139.8349  155.8029 H   0  0  0  0  0  0  0  0  0  0  0  0
  150.6675  138.6907  153.0274 H   0  0  0  0  0  0  0  0  0  0  0  0
  151.8488  139.1648  154.2193 H   0  0  0  0  0  0  0  0  0  0  0  0
  151.5105  136.6962  154.1784 H   0  0  0  0  0  0  0  0  0  0  0  0
  151.1161  137.3599  155.7524 H   0  0  0  0  0  0  0  0  0  0  0  0
  148.3551  135.0474  155.2127 H   0  0  0  0  0  0  0  0  0  0  0  0
  149.7738  134.6932  154.2583 H   0  0  0  0  0  0  0  0  0  0  0  0
  150.1898  134.0476  156.6231 H   0  0  0  0  0  0  0  0  0  0  0  0
  151.2076  135.4205  156.2572 H   0  0  0  0  0  0  0  0  0  0  0  0
  149.4863  136.8140  157.4136 H   0  0  0  0  0  0  0  0  0  0  0  0
  148.5900  137.0883  159.1490 H   0  0  0  0  0  0  0  0  0  0  0  0
  146.4502  137.0157  163.3760 H   0  0  0  0  0  0  0  0  0  0  0  0
  146.6396  134.3355  163.5594 H   0  0  0  0  0  0  0  0  0  0  0  0
  148.6683  137.6500  156.3687 H   0  0  0  0  0  0  0  0  0  0  0  0
  147.4359  137.1792  155.2251 H   0  0  0  0  0  0  0  0  0  0  0  0
  149.1991  136.7560  153.6332 H   0  0  0  0  0  0  0  0  0  0  0  0
  1  2  1  0  0  0  0
  1 19  1  0  0  0  0
  1 20  1  0  0  0  0
  1 21  1  0  0  0  0
  2 18  1  0  0  0  0
  2  3  1  0  0  0  0
  2 22  1  0  0  0  0
  3  4  1  0  0  0  0
  3 23  1  0  0  0  0
  3 24  1  0  0  0  0
  4  5  1  0  0  0  0
  4 25  1  0  0  0  0
  4 26  1  0  0  0  0
  5  6  1  0  0  0  0
  5 27  1  0  0  0  0
  5 28  1  0  0  0  0
  6  7  1  0  0  0  0
  6 18  1  0  0  0  0
  6 39  1  0  0  0  0
  7  8  1  0  0  0  0
  7 29  1  0  0  0  0
  7 30  1  0  0  0  0
  8  9  1  0  0  0  0
  8 31  1  0  0  0  0
  8 32  1  0  0  0  0
  9 10  1  0  0  0  0
  9 33  1  0  0  0  0
 10 11  2  0  0  0  0
 10 12  1  0  0  0  0
 12 13  1  0  0  0  0
 12 34  1  0  0  0  0
 13 17  1  0  0  0  0
 13 14  2  0  0  0  0
 14 15  1  0  0  0  0
 15 16  2  0  0  0  0
 15 35  1  0  0  0  0
 16 17  1  0  0  0  0
 16 36  1  0  0  0  0
 18 37  1  0  0  0  0
 18 38  1  0  0  0  0
M  CHG  1   6   1
M  END
> <s_m_source_file>
AV-unprocessed.smi

> <i_m_source_file_index>
1278

> <i_lp_mmshare_version>
43012

> <i_f3d_flags>
0

> <s_epik_input>
W0NIM11bQ0BASF0xW0NIMl1bQ0gyXVtDSDJdTihbQ0gyXTEpW0NIMl1bQ0gyXVtOSF1DKD1PKVtOSF1jMm5bY0hdW2NIXXMy

> <s_epik_cmdline>
J2VwaWtfcHl0aG9uJywgJy1waCcsICc3LjAnLCAnLXRuJywgJzgnLCAnLW1hJywgJzIwMCcsICctbWV0YWxfYmluZGluZycsICctaW1hZScsICc8aW5maWxlLm1hZT4nLCAnLW9tYWUnLCAnPG91dGZpbGUubWFlPic=

> <r_lp_tautomer_probability>
0.999

> <r_epik_Ionization_Penalty>
0.00222194

> <r_epik_Ionization_Penalty_Charging>
0.00208169

> <r_epik_Ionization_Penalty_Neutral>
0.000140251

> <r_epik_State_Penalty>
0.00142585

> <r_epik_Charging_Adjusted_Penalty>
0.00350754

> <i_epik_Tot_Q>
1

> <i_epik_Tot_abs_Q>
1

> <r_epik_Metal_State_Penalty>
0.0570424

> <b_epik_Metal_Only>
0

> <s_lp_Force_Field>
OPLS_2005

> <r_lp_Energy>
16.5942

> <b_lp_Chiralities_Consistent>
1

> <s_lp_Variant>
AV-unprocessed.smi:1278-3

> <Gold.Version>
5.8.1

> <Gold.Id.Protein>
6NUR|6NUR_protein|mol2

> <Gold.PLP.Fitness>
41.9105

> <Gold.PLP.PLP>
-28.4506

> <Gold.PLP.part.hbond>
-4.0000

> <Gold.PLP.part.metal>
0.0000

> <Gold.PLP.part.buried>
-0.8451

> <Gold.PLP.part.nonpolar>
-23.5671

> <Gold.PLP.part.repulsive>
0.2403

> <Gold.PLP.ligand.clash>
0.0000

> <Gold.PLP.ligand.torsion>
0.1684

> <Gold.PLP.Chemscore.Hbond>
4.5920

> <Gold.PLP.Chemscore.CHOScore>
0.0000

> <Gold.PLP.Chemscore.Metal>
0.0000

> <Gold.Chemscore.Hbonds>
donor molecule, donor type, donor heavy atom, donor atom, acceptor molecule, acceptor atom, score
      L1  H     6    39       P1  7948  2.00
      P1  H  6896  6909       L1    11  0.80
      P1  H  6931  6943       L1    14  0.65
      P1  H  6934  6947       L1    14  0.43

> <Gold.PLP.Chemscore.Internal.Correction>
0.0207

> <Gold.Rescore>
     Score         DG    S(hbond)    S(metal)    S(lipo)     H(rot)  DE(clash)    DE(int)     intcor
     14.91     -18.01       2.52        0.00      70.09       1.60       1.55       1.55       ----

> <Gold.Chemscore.Fitness>
14.9094

> <Gold.Chemscore.DG>
-18.0143

> <Gold.Chemscore.ZeroCoef>
-5.4800

> <Gold.Chemscore.Hbond>
2.5238

> <Gold.Chemscore.Metal>
0.0000

> <Gold.Chemscore.Lipo>
70.0949

> <Gold.Chemscore.Internal_Hbond>
0.0000

> <Gold.Chemscore.DEClash>
1.5546

> <Gold.Chemscore.DEInternal>
1.5502

> <Gold.Chemscore.Rot>
1.6001

> <Gold.Chemscore.Internal.Correction>
   9.000000E+99

> <Gold.Chemscore.Hbonds>
donor molecule, donor type, donor heavy atom, donor atom, acceptor molecule, acceptor atom, score
      L1  H     6    39       P1  7948  0.98
      P1  H  6896  6909       L1    11  0.24
      P1  H  6931  6943       L1    14  0.32
      P1  H  6934  6947       L1    14  0.41

> <Gold.Chemscore.Hbond.Weighted>
-8.4295

> <Gold.Chemscore.Metal.Weighted>
-0.0000

> <Gold.Chemscore.Lipo.Weighted>
-8.2011

> <Gold.Chemscore.Internal_Hbond.Weighted>
0.0000

> <Gold.Chemscore.DEClash.Weighted>
1.5546

> <Gold.Chemscore.DEInternal.Weighted>
1.5502

> <Gold.Chemscore.Rot.Weighted>
4.0963

> <Gold.Chemscore.Internal.Correction.Weighted>
   9.000000E+99

> <Gold.Protein.RotatedTorsions>
[ 6907 6896 6895 6894 ] final   -4.66 input  -60.11 | X-H torsion
[ 7974 7965 7964 7962 ] final -110.80 input  175.53 | X-H torsion
[ 8008 7997 7996 7995 ] final   -9.08 input   59.86 | X-H torsion
[ 10167 10162 10161 10158 ] final -145.94 input  -65.29 | X-H torsion
[ 10718 10713 10712 10709 ] final  100.99 input   66.30 | X-H torsion
[ 10763 10752 10751 10750 ] final  -54.57 input  -60.55 | X-H torsion
[ 11005 11000 10999 10996 ] final -134.63 input  -57.11 | X-H torsion

> <Gold.Protein.ActiveResidues>
 VAL166  LYS551  ARG553  GLY616  TRP617  ASP618  TYR619  PRO620  LYS621  CYS622 
 ASP623  PHE694  ASN695  SER759  ASP760  ASP761  ALA762  ILE779  LEU786  VAL792 
 PHE793  MET794  SER795  GLU796  ALA797  LYS798  CYS799  TRP800  GLU811  SER814 

> <Gold.Protein.RotatedAtoms>
  151.4941  135.1059  159.9811 H   0  0  0  0  0  0  0  0  0  0  0  0  # atno 6907 bound_to 6896
  152.4729  133.8066  159.6992 H   0  0  0  0  0  0  0  0  0  0  0  0  # atno 6908 bound_to 6896
  150.8748  133.7391  159.2976 H   0  0  0  0  0  0  0  0  0  0  0  0  # atno 6909 bound_to 6896
  145.1639  140.8892  143.3575 H   0  0  0  0  0  0  0  0  0  0  0  0  # atno 7974 bound_to 7965
  154.5680  140.2364  155.8234 H   0  0  0  0  0  0  0  0  0  0  0  0  # atno 8008 bound_to 7997
  156.2084  140.3033  155.9636 H   0  0  0  0  0  0  0  0  0  0  0  0  # atno 8009 bound_to 7997
  155.2764  140.0420  157.3002 H   0  0  0  0  0  0  0  0  0  0  0  0  # atno 8010 bound_to 7997
  139.7759  143.8170  152.2632 H   0  0  0  0  0  0  0  0  0  0  0  0  # atno 10167 bound_to 10162
  157.6841  131.0713  150.5184 H   0  0  0  0  0  0  0  0  0  0  0  0  # atno 10718 bound_to 10713
  154.1769  135.6450  153.5024 H   0  0  0  0  0  0  0  0  0  0  0  0  # atno 10763 bound_to 10752
  153.0069  135.5397  154.6554 H   0  0  0  0  0  0  0  0  0  0  0  0  # atno 10764 bound_to 10752
  154.5908  135.2934  155.0609 H   0  0  0  0  0  0  0  0  0  0  0  0  # atno 10765 bound_to 10752
  140.8973  134.1736  157.4486 H   0  0  0  0  0  0  0  0  0  0  0  0  # atno 11005 bound_to 11000
  145.0303  139.3347  143.6028 LP  0  0  0  0  0  0  0  0  0  0  0  0  # atno 17320 bound_to 7965
  146.3478  139.9637  142.8714 LP  0  0  0  0  0  0  0  0  0  0  0  0  # atno 17321 bound_to 7965
  139.8219  144.7292  150.9562 LP  0  0  0  0  0  0  0  0  0  0  0  0  # atno 17342 bound_to 10162
  140.7816  143.4151  151.0930 LP  0  0  0  0  0  0  0  0  0  0  0  0  # atno 17343 bound_to 10162
  156.5498  130.4229  149.6113 LP  0  0  0  0  0  0  0  0  0  0  0  0  # atno 17370 bound_to 10713
  156.2912  130.7125  151.1975 LP  0  0  0  0  0  0  0  0  0  0  0  0  # atno 17371 bound_to 10713
  139.8737  134.9883  156.5407 LP  0  0  0  0  0  0  0  0  0  0  0  0  # atno 17394 bound_to 11000
  140.8274  133.8306  155.8952 LP  0  0  0  0  0  0  0  0  0  0  0  0  # atno 17395 bound_to 11000

$$$$
