AV-unprocessed.smi:3129|AV-procd|sdf|11922|dock9
  -GOLD-   2272017303D 1   1.00000     0.00000
 Structure written by MMmdl.
 40 40  0  0  0  0  0  0  0  0  2 V2000
  143.5806  144.5539  156.6161 C   0  0  0  0  0  0  0  0  0  0  0  0
  144.9956  143.9630  156.5451 C   0  0  0  0  0  0  0  0  0  0  0  0
  145.1286  143.0105  155.3441 C   0  0  0  0  0  0  0  0  0  0  0  0
  145.3748  143.2903  157.8837 C   0  0  0  0  0  0  0  0  0  0  0  0
  146.4297  144.0006  158.6007 N   0  0  0  0  0  0  0  0  0  0  0  0
  146.9981  143.5874  159.7433 C   0  0  0  0  0  0  0  0  0  0  0  0
  146.7012  142.5314  160.3033 O   0  0  0  0  0  0  0  0  0  0  0  0
  148.0606  144.5074  160.3579 C   0  0  2  0  0  0  0  0  0  0  0  0
  147.4486  145.8770  160.6886 C   0  0  0  0  0  0  0  0  0  0  0  0
  149.1926  144.6733  159.4215 N   0  3  0  0  0  0  0  0  0  0  0  0
  150.3854  145.3332  159.9976 C   0  0  0  0  0  0  0  0  0  0  0  0
  151.6691  144.8843  159.2825 C   0  0  0  0  0  0  0  0  0  0  0  0
  152.3620  143.8422  160.0200 N   0  0  0  0  0  0  0  0  0  0  0  0
  153.3181  142.9582  159.5659 C   0  0  0  0  0  0  0  0  0  0  0  0
  153.6677  142.1622  160.6186 C   0  0  0  0  0  0  0  0  0  0  0  0
  152.8679  142.6474  161.6904 C   0  0  0  0  0  0  0  0  0  0  0  0
  152.0904  143.6552  161.3297 N   0  0  0  0  0  0  0  0  0  0  0  0
  142.8328  143.7761  156.7733 H   0  0  0  0  0  0  0  0  0  0  0  0
  143.3271  145.0784  155.6944 H   0  0  0  0  0  0  0  0  0  0  0  0
  143.4941  145.2693  157.4346 H   0  0  0  0  0  0  0  0  0  0  0  0
  145.6778  144.7968  156.3782 H   0  0  0  0  0  0  0  0  0  0  0  0
  144.4840  142.1384  155.4571 H   0  0  0  0  0  0  0  0  0  0  0  0
  146.1522  142.6562  155.2226 H   0  0  0  0  0  0  0  0  0  0  0  0
  144.8511  143.5111  154.4162 H   0  0  0  0  0  0  0  0  0  0  0  0
  144.4971  143.2041  158.5267 H   0  0  0  0  0  0  0  0  0  0  0  0
  145.7216  142.2727  157.7015 H   0  0  0  0  0  0  0  0  0  0  0  0
  146.7355  144.8778  158.2045 H   0  0  0  0  0  0  0  0  0  0  0  0
  148.4364  144.0721  161.2858 H   0  0  0  0  0  0  0  0  0  0  0  0
  146.6155  145.7798  161.3859 H   0  0  0  0  0  0  0  0  0  0  0  0
  147.0768  146.3798  159.7944 H   0  0  0  0  0  0  0  0  0  0  0  0
  148.1863  146.5321  161.1530 H   0  0  0  0  0  0  0  0  0  0  0  0
  149.4550  143.7505  159.1045 H   0  0  0  0  0  0  0  0  0  0  0  0
  150.2583  146.4125  159.9114 H   0  0  0  0  0  0  0  0  0  0  0  0
  150.4706  145.1184  161.0638 H   0  0  0  0  0  0  0  0  0  0  0  0
  151.4449  144.5212  158.2787 H   0  0  0  0  0  0  0  0  0  0  0  0
  152.3489  145.7295  159.1680 H   0  0  0  0  0  0  0  0  0  0  0  0
  153.6634  142.9648  158.5425 H   0  0  0  0  0  0  0  0  0  0  0  0
  154.3867  141.3566  160.6233 H   0  0  0  0  0  0  0  0  0  0  0  0
  152.8281  142.2999  162.7121 H   0  0  0  0  0  0  0  0  0  0  0  0
  148.8884  145.2143  158.6248 H   0  0  0  0  0  0  0  0  0  0  0  0
  1  2  1  0  0  0  0
  1 18  1  0  0  0  0
  1 19  1  0  0  0  0
  1 20  1  0  0  0  0
  2  3  1  0  0  0  0
  2  4  1  0  0  0  0
  2 21  1  0  0  0  0
  3 22  1  0  0  0  0
  3 23  1  0  0  0  0
  3 24  1  0  0  0  0
  4  5  1  0  0  0  0
  4 25  1  0  0  0  0
  4 26  1  0  0  0  0
  5  6  1  0  0  0  0
  5 27  1  0  0  0  0
  6  7  2  0  0  0  0
  6  8  1  0  0  0  0
  8  9  1  0  0  0  0
  8 10  1  0  0  0  0
  8 28  1  0  0  0  0
  9 29  1  0  0  0  0
  9 30  1  0  0  0  0
  9 31  1  0  0  0  0
 10 11  1  0  0  0  0
 10 32  1  0  0  0  0
 10 40  1  0  0  0  0
 11 12  1  0  0  0  0
 11 33  1  0  0  0  0
 11 34  1  0  0  0  0
 12 13  1  0  0  0  0
 12 35  1  0  0  0  0
 12 36  1  0  0  0  0
 13 17  1  0  0  0  0
 13 14  1  0  0  0  0
 14 15  2  0  0  0  0
 14 37  1  0  0  0  0
 15 16  1  0  0  0  0
 15 38  1  0  0  0  0
 16 17  2  0  0  0  0
 16 39  1  0  0  0  0
M  CHG  1  10   1
M  END
> <s_m_source_file>
AV-unprocessed.smi

> <i_m_source_file_index>
3129

> <i_lp_mmshare_version>
43012

> <i_f3d_flags>
0

> <s_epik_input>
W0NIM11bQ0hdKFtDSDNdKVtDSDJdW05IXUMoPU8pW0NASF0oW0NIM10pW05IXVtDSDJdW0NIMl1uMVtjSF1bY0hdW2NIXW4x

> <s_epik_cmdline>
J2VwaWtfcHl0aG9uJywgJy1waCcsICc3LjAnLCAnLXRuJywgJzgnLCAnLW1hJywgJzIwMCcsICctbWV0YWxfYmluZGluZycsICctaW1hZScsICc8aW5maWxlLm1hZT4nLCAnLW9tYWUnLCAnPG91dGZpbGUubWFlPic=

> <r_lp_tautomer_probability>
1

> <r_epik_Ionization_Penalty>
0.20724

> <r_epik_Ionization_Penalty_Charging>
0.207237

> <r_epik_Ionization_Penalty_Neutral>
3.32432e-06

> <r_epik_State_Penalty>
0.197234

> <r_epik_Charging_Adjusted_Penalty>
0.404471

> <i_epik_Tot_Q>
1

> <i_epik_Tot_abs_Q>
1

> <r_epik_Metal_State_Penalty>
0.197522

> <b_epik_Metal_Only>
0

> <s_lp_Force_Field>
OPLS_2005

> <r_lp_Energy>
5.48994

> <b_lp_Chiralities_Consistent>
1

> <s_lp_Variant>
AV-unprocessed.smi:3129-1

> <Gold.Version>
5.8.1

> <Gold.Id.Protein>
6NUR|6NUR_protein|mol2

> <Gold.PLP.Fitness>
49.7558

> <Gold.PLP.PLP>
-39.4356

> <Gold.PLP.part.hbond>
-4.0000

> <Gold.PLP.part.metal>
0.0000

> <Gold.PLP.part.buried>
-6.0772

> <Gold.PLP.part.nonpolar>
-30.3027

> <Gold.PLP.part.repulsive>
0.3659

> <Gold.PLP.ligand.clash>
0.0000

> <Gold.PLP.ligand.torsion>
1.4808

> <Gold.PLP.Chemscore.Hbond>
4.3715

> <Gold.PLP.Chemscore.CHOScore>
0.0000

> <Gold.PLP.Chemscore.Metal>
0.0000

> <Gold.Chemscore.Hbonds>
donor molecule, donor type, donor heavy atom, donor atom, acceptor molecule, acceptor atom, score
      L1  H     5    27       P1  8029  1.00
      L1  H    10    40       P1  8029  2.00
      P1  H  6933  6944       L1     7  0.48
      P1  H  6934  6946       L1     7  1.00

> <Gold.PLP.Chemscore.Internal.Correction>
0.1675

> <Gold.Rescore>
     Score         DG    S(hbond)    S(metal)    S(lipo)     H(rot)  DE(clash)    DE(int)     intcor
     17.44     -18.70       2.93        0.00      78.02       2.22       0.03       1.24       ----

> <Gold.Chemscore.Fitness>
17.4356

> <Gold.Chemscore.DG>
-18.7009

> <Gold.Chemscore.ZeroCoef>
-5.4800

> <Gold.Chemscore.Hbond>
2.9308

> <Gold.Chemscore.Metal>
0.0000

> <Gold.Chemscore.Lipo>
78.0151

> <Gold.Chemscore.Internal_Hbond>
0.0000

> <Gold.Chemscore.DEClash>
0.0272

> <Gold.Chemscore.DEInternal>
1.2381

> <Gold.Chemscore.Rot>
2.2249

> <Gold.Chemscore.Internal.Correction>
   9.000000E+99

> <Gold.Chemscore.Hbonds>
donor molecule, donor type, donor heavy atom, donor atom, acceptor molecule, acceptor atom, score
      L1  H     5    27       P1  8029  0.91
      L1  H    10    40       P1  8029  0.98
      P1  H  6933  6944       L1     7  0.08
      P1  H  6934  6946       L1     7  0.96

> <Gold.Chemscore.Hbond.Weighted>
-9.7889

> <Gold.Chemscore.Metal.Weighted>
-0.0000

> <Gold.Chemscore.Lipo.Weighted>
-9.1278

> <Gold.Chemscore.Internal_Hbond.Weighted>
0.0000

> <Gold.Chemscore.DEClash.Weighted>
0.0272

> <Gold.Chemscore.DEInternal.Weighted>
1.2381

> <Gold.Chemscore.Rot.Weighted>
5.6957

> <Gold.Chemscore.Internal.Correction.Weighted>
   9.000000E+99

> <Gold.Protein.RotatedTorsions>
[ 6907 6896 6895 6894 ] final  -22.00 input  -60.11 | X-H torsion
[ 7974 7965 7964 7962 ] final  160.37 input  175.53 | X-H torsion
[ 8008 7997 7996 7995 ] final  108.84 input   59.86 | X-H torsion
[ 10167 10162 10161 10158 ] final  -33.39 input  -65.29 | X-H torsion
[ 10718 10713 10712 10709 ] final   63.22 input   66.30 | X-H torsion
[ 10763 10752 10751 10750 ] final   23.00 input  -60.55 | X-H torsion
[ 11005 11000 10999 10996 ] final   15.36 input  -57.11 | X-H torsion

> <Gold.Protein.ActiveResidues>
 VAL166  LYS551  ARG553  GLY616  TRP617  ASP618  TYR619  PRO620  LYS621  CYS622 
 ASP623  PHE694  ASN695  SER759  ASP760  ASP761  ALA762  ILE779  LEU786  VAL792 
 PHE793  MET794  SER795  GLU796  ALA797  LYS798  CYS799  TRP800  GLU811  SER814 

> <Gold.Protein.RotatedAtoms>
  151.2251  135.0533  159.8964 H   0  0  0  0  0  0  0  0  0  0  0  0  # atno 6907 bound_to 6896
  152.5411  134.0598  159.8157 H   0  0  0  0  0  0  0  0  0  0  0  0  # atno 6908 bound_to 6896
  151.0770  133.5372  159.2655 H   0  0  0  0  0  0  0  0  0  0  0  0  # atno 6909 bound_to 6896
  144.7741  139.7747  143.6285 H   0  0  0  0  0  0  0  0  0  0  0  0  # atno 7974 bound_to 7965
  156.1934  140.3069  155.9377 H   0  0  0  0  0  0  0  0  0  0  0  0  # atno 8008 bound_to 7997
  155.3122  140.0451  157.3052 H   0  0  0  0  0  0  0  0  0  0  0  0  # atno 8009 bound_to 7997
  154.5479  140.2282  155.8542 H   0  0  0  0  0  0  0  0  0  0  0  0  # atno 8010 bound_to 7997
  140.7205  143.3623  151.1938 H   0  0  0  0  0  0  0  0  0  0  0  0  # atno 10167 bound_to 10162
  157.5956  130.9093  149.9688 H   0  0  0  0  0  0  0  0  0  0  0  0  # atno 10718 bound_to 10713
  153.0872  135.6636  153.9926 H   0  0  0  0  0  0  0  0  0  0  0  0  # atno 10763 bound_to 10752
  153.9532  135.2981  155.3439 H   0  0  0  0  0  0  0  0  0  0  0  0  # atno 10764 bound_to 10752
  154.7282  135.5135  153.8992 H   0  0  0  0  0  0  0  0  0  0  0  0  # atno 10765 bound_to 10752
  140.4592  134.1145  155.7714 H   0  0  0  0  0  0  0  0  0  0  0  0  # atno 11005 bound_to 11000
  146.1908  139.5147  142.9806 LP  0  0  0  0  0  0  0  0  0  0  0  0  # atno 17320 bound_to 7965
  145.6238  141.0317  143.1900 LP  0  0  0  0  0  0  0  0  0  0  0  0  # atno 17321 bound_to 7965
  139.7178  143.9272  152.2973 LP  0  0  0  0  0  0  0  0  0  0  0  0  # atno 17342 bound_to 10162
  139.9019  144.6907  150.8656 LP  0  0  0  0  0  0  0  0  0  0  0  0  # atno 17343 bound_to 10162
  156.1018  130.3655  150.0204 LP  0  0  0  0  0  0  0  0  0  0  0  0  # atno 17370 bound_to 10713
  156.8318  130.9395  151.3636 LP  0  0  0  0  0  0  0  0  0  0  0  0  # atno 17371 bound_to 10713
  141.1629  133.8758  157.1797 LP  0  0  0  0  0  0  0  0  0  0  0  0  # atno 17394 bound_to 11000
  139.9956  135.0048  157.0076 LP  0  0  0  0  0  0  0  0  0  0  0  0  # atno 17395 bound_to 11000

$$$$
