AV-unprocessed.smi:1120|AV-procd|sdf|4818|dock3
  -GOLD-   22720 3373D 1   1.00000     0.00000
 Structure written by MMmdl.
 48 49  0  0  0  0  0  0  0  0  1 V2000
  151.3404  145.1331  159.8493 C   0  0  0  0  0  0  0  0  0  0  0  0
  151.5432  143.6121  159.7990 C   0  0  2  0  0  0  0  0  0  0  0  0
  152.9939  143.2250  160.1450 C   0  0  0  0  0  0  0  0  0  0  0  0
  153.1989  141.7025  160.0952 C   0  0  0  0  0  0  0  0  0  0  0  0
  152.7994  141.1242  158.7260 C   0  0  1  0  0  0  0  0  0  0  0  0
  152.9478  139.6667  158.7554 N   0  0  0  0  0  0  0  0  0  0  0  0
  152.4723  138.7345  157.3808 S   0  0  0  0  0  0  0  0  0  0  0  0
  152.5845  139.5984  156.1949 O   0  0  0  0  0  0  0  0  0  0  0  0
  153.2095  137.4629  157.4397 O   0  0  0  0  0  0  0  0  0  0  0  0
  150.6929  138.3886  157.7363 C   0  0  0  0  0  0  0  0  0  0  0  0
  150.5674  137.4099  158.9032 C   0  0  0  0  0  0  0  0  0  0  0  0
  151.5762  137.0418  159.5041 O   0  0  0  0  0  0  0  0  0  0  0  0
  149.3285  136.9998  159.2170 N   0  0  0  0  0  0  0  0  0  0  0  0
  149.0004  136.0896  160.3084 C   0  0  0  0  0  0  0  0  0  0  0  0
  148.3426  134.7977  159.7948 C   0  0  0  0  0  0  0  0  0  0  0  0
  147.4259  134.1698  160.8281 C   0  0  0  0  0  0  0  0  0  0  0  0
  147.2300  134.7815  162.0849 C   0  0  0  0  0  0  0  0  0  0  0  0
  146.3737  134.1535  163.0102 C   0  0  0  0  0  0  0  0  0  0  0  0
  145.7504  132.9446  162.6462 C   0  0  0  0  0  0  0  0  0  0  0  0
  146.0127  132.4143  161.3674 C   0  0  0  0  0  0  0  0  0  0  0  0
  146.8324  133.0079  160.4729 N   0  0  0  0  0  0  0  0  0  0  0  0
  151.3516  141.5126  158.3691 C   0  0  0  0  0  0  0  0  0  0  0  0
  151.1489  143.0354  158.4258 C   0  0  0  0  0  0  0  0  0  0  0  0
  151.9746  145.6421  159.1229 H   0  0  0  0  0  0  0  0  0  0  0  0
  151.5806  145.5288  160.8365 H   0  0  0  0  0  0  0  0  0  0  0  0
  150.3056  145.3985  159.6315 H   0  0  0  0  0  0  0  0  0  0  0  0
  150.8881  143.1686  160.5504 H   0  0  0  0  0  0  0  0  0  0  0  0
  153.6812  143.7068  159.4482 H   0  0  0  0  0  0  0  0  0  0  0  0
  153.2521  143.5946  161.1380 H   0  0  0  0  0  0  0  0  0  0  0  0
  154.2417  141.4661  160.3106 H   0  0  0  0  0  0  0  0  0  0  0  0
  152.6069  141.2339  160.8828 H   0  0  0  0  0  0  0  0  0  0  0  0
  153.4748  141.5286  157.9710 H   0  0  0  0  0  0  0  0  0  0  0  0
  152.5672  139.2726  159.6159 H   0  0  0  0  0  0  0  0  0  0  0  0
  150.2030  139.3321  157.9778 H   0  0  0  0  0  0  0  0  0  0  0  0
  150.2234  137.9884  156.8375 H   0  0  0  0  0  0  0  0  0  0  0  0
  148.5561  137.3560  158.6731 H   0  0  0  0  0  0  0  0  0  0  0  0
  149.8978  135.8613  160.8858 H   0  0  0  0  0  0  0  0  0  0  0  0
  148.3199  136.6071  160.9850 H   0  0  0  0  0  0  0  0  0  0  0  0
  147.7723  135.0045  158.8883 H   0  0  0  0  0  0  0  0  0  0  0  0
  149.1056  134.0694  159.5161 H   0  0  0  0  0  0  0  0  0  0  0  0
  147.7239  135.7085  162.3369 H   0  0  0  0  0  0  0  0  0  0  0  0
  146.1987  134.5913  163.9817 H   0  0  0  0  0  0  0  0  0  0  0  0
  145.0880  132.4352  163.3300 H   0  0  0  0  0  0  0  0  0  0  0  0
  145.5525  131.4888  161.0546 H   0  0  0  0  0  0  0  0  0  0  0  0
  151.0971  141.1554  157.3712 H   0  0  0  0  0  0  0  0  0  0  0  0
  150.6573  141.0290  159.0577 H   0  0  0  0  0  0  0  0  0  0  0  0
  150.1072  143.2719  158.2067 H   0  0  0  0  0  0  0  0  0  0  0  0
  151.7433  143.5084  157.6429 H   0  0  0  0  0  0  0  0  0  0  0  0
  1  2  1  0  0  0  0
  1 24  1  0  0  0  0
  1 25  1  0  0  0  0
  1 26  1  0  0  0  0
  2 23  1  0  0  0  0
  2  3  1  0  0  0  0
  2 27  1  0  0  0  0
  3  4  1  0  0  0  0
  3 28  1  0  0  0  0
  3 29  1  0  0  0  0
  4  5  1  0  0  0  0
  4 30  1  0  0  0  0
  4 31  1  0  0  0  0
  5  6  1  0  0  0  0
  5 22  1  0  0  0  0
  5 32  1  0  0  0  0
  6  7  1  0  0  0  0
  6 33  1  0  0  0  0
  7  8  2  0  0  0  0
  7  9  2  0  0  0  0
  7 10  1  0  0  0  0
 10 11  1  0  0  0  0
 10 34  1  0  0  0  0
 10 35  1  0  0  0  0
 11 12  2  0  0  0  0
 11 13  1  0  0  0  0
 13 14  1  0  0  0  0
 13 36  1  0  0  0  0
 14 15  1  0  0  0  0
 14 37  1  0  0  0  0
 14 38  1  0  0  0  0
 15 16  1  0  0  0  0
 15 39  1  0  0  0  0
 15 40  1  0  0  0  0
 16 21  1  0  0  0  0
 16 17  2  0  0  0  0
 17 18  1  0  0  0  0
 17 41  1  0  0  0  0
 18 19  2  0  0  0  0
 18 42  1  0  0  0  0
 19 20  1  0  0  0  0
 19 43  1  0  0  0  0
 20 21  2  0  0  0  0
 20 44  1  0  0  0  0
 22 23  1  0  0  0  0
 22 45  1  0  0  0  0
 22 46  1  0  0  0  0
 23 47  1  0  0  0  0
 23 48  1  0  0  0  0
M  END
> <s_m_source_file>
AV-unprocessed.smi

> <i_m_source_file_index>
1120

> <i_lp_mmshare_version>
43012

> <i_f3d_flags>
0

> <s_epik_input>
W0NIM11bQ0BASF0xW0NIMl1bQ0gyXVtDQEhdKFtDSDJdW0NIMl0xKVtOSF1TKD1PKSg9TylbQ0gyXUMoPU8pW05IXVtDSDJdW0NIMl1jMltjSF1bY0hdW2NIXVtjSF1uMg==

> <s_epik_cmdline>
J2VwaWtfcHl0aG9uJywgJy1waCcsICc3LjAnLCAnLXRuJywgJzgnLCAnLW1hJywgJzIwMCcsICctbWV0YWxfYmluZGluZycsICctaW1hZScsICc8aW5maWxlLm1hZT4nLCAnLW9tYWUnLCAnPG91dGZpbGUubWFlPic=

> <r_epik_Ionization_Penalty>
0.0216068

> <r_epik_Ionization_Penalty_Charging>
0

> <r_epik_Ionization_Penalty_Neutral>
0.0216068

> <r_epik_State_Penalty>
0.01735

> <r_epik_Charging_Adjusted_Penalty>
0.01735

> <i_epik_Tot_Q>
0

> <i_epik_Tot_abs_Q>
0

> <r_epik_Metal_State_Penalty>
0.0535325

> <b_epik_Metal_Only>
0

> <s_lp_Force_Field>
OPLS_2005

> <r_lp_Energy>
6.02559

> <b_lp_Chiralities_Consistent>
1

> <s_lp_Variant>
AV-unprocessed.smi:1120-1

> <Gold.Version>
5.8.1

> <Gold.Id.Protein>
6NUR|6NUR_protein|mol2

> <Gold.PLP.Fitness>
46.8107

> <Gold.PLP.PLP>
-42.3066

> <Gold.PLP.part.hbond>
-2.0000

> <Gold.PLP.part.metal>
0.0000

> <Gold.PLP.part.buried>
-6.3019

> <Gold.PLP.part.nonpolar>
-34.4897

> <Gold.PLP.part.repulsive>
0.2007

> <Gold.PLP.ligand.clash>
0.0000

> <Gold.PLP.ligand.torsion>
0.8975

> <Gold.PLP.Chemscore.Hbond>
2.0000

> <Gold.PLP.Chemscore.CHOScore>
0.0000

> <Gold.PLP.Chemscore.Metal>
0.0000

> <Gold.Chemscore.Hbonds>
donor molecule, donor type, donor heavy atom, donor atom, acceptor molecule, acceptor atom, score
      P1  H  6896  6908       L1    12  1.00
      P1  H  7997  8009       L1     8  1.00

> <Gold.PLP.Chemscore.Internal.Correction>
0.2991

> <Gold.Rescore>
     Score         DG    S(hbond)    S(metal)    S(lipo)     H(rot)  DE(clash)    DE(int)     intcor
     18.38     -20.84       1.92        0.00     122.85       2.12       0.02       2.44       ----

> <Gold.Chemscore.Fitness>
18.3790

> <Gold.Chemscore.DG>
-20.8408

> <Gold.Chemscore.ZeroCoef>
-5.4800

> <Gold.Chemscore.Hbond>
1.9217

> <Gold.Chemscore.Metal>
0.0000

> <Gold.Chemscore.Lipo>
122.8458

> <Gold.Chemscore.Internal_Hbond>
0.0000

> <Gold.Chemscore.DEClash>
0.0241

> <Gold.Chemscore.DEInternal>
2.4376

> <Gold.Chemscore.Rot>
2.1213

> <Gold.Chemscore.Internal.Correction>
   9.000000E+99

> <Gold.Chemscore.Hbonds>
donor molecule, donor type, donor heavy atom, donor atom, acceptor molecule, acceptor atom, score
      P1  H  6896  6908       L1    12  0.64
      P1  H  7997  8009       L1     8  0.67

> <Gold.Chemscore.Hbond.Weighted>
-6.4183

> <Gold.Chemscore.Metal.Weighted>
-0.0000

> <Gold.Chemscore.Lipo.Weighted>
-14.3730

> <Gold.Chemscore.Internal_Hbond.Weighted>
0.0000

> <Gold.Chemscore.DEClash.Weighted>
0.0241

> <Gold.Chemscore.DEInternal.Weighted>
2.4376

> <Gold.Chemscore.Rot.Weighted>
5.4305

> <Gold.Chemscore.Internal.Correction.Weighted>
   9.000000E+99

> <Gold.Protein.RotatedTorsions>
[ 6907 6896 6895 6894 ] final -133.63 input  -60.11 | X-H torsion
[ 7974 7965 7964 7962 ] final  -78.99 input  175.53 | X-H torsion
[ 8008 7997 7996 7995 ] final -141.99 input   59.86 | X-H torsion
[ 10167 10162 10161 10158 ] final  123.29 input  -65.29 | X-H torsion
[ 10718 10713 10712 10709 ] final  -39.88 input   66.30 | X-H torsion
[ 10763 10752 10751 10750 ] final   69.82 input  -60.55 | X-H torsion
[ 11005 11000 10999 10996 ] final   34.78 input  -57.11 | X-H torsion

> <Gold.Protein.ActiveResidues>
 VAL166  LYS551  ARG553  GLY616  TRP617  ASP618  TYR619  PRO620  LYS621  CYS622 
 ASP623  PHE694  ASN695  SER759  ASP760  ASP761  ALA762  ILE779  LEU786  VAL792 
 PHE793  MET794  SER795  GLU796  ALA797  LYS798  CYS799  TRP800  GLU811  SER814 

> <Gold.Protein.RotatedAtoms>
  150.9763  133.6291  159.2729 H   0  0  0  0  0  0  0  0  0  0  0  0  # atno 6907 bound_to 6896
  151.3562  135.0893  159.9429 H   0  0  0  0  0  0  0  0  0  0  0  0  # atno 6908 bound_to 6896
  152.5200  133.9346  159.7652 H   0  0  0  0  0  0  0  0  0  0  0  0  # atno 6909 bound_to 6896
  145.5791  140.9452  143.1353 H   0  0  0  0  0  0  0  0  0  0  0  0  # atno 7974 bound_to 7965
  155.4869  140.0565  157.2959 H   0  0  0  0  0  0  0  0  0  0  0  0  # atno 8008 bound_to 7997
  154.4638  140.2009  156.0124 H   0  0  0  0  0  0  0  0  0  0  0  0  # atno 8009 bound_to 7997
  156.0938  140.3229  155.7855 H   0  0  0  0  0  0  0  0  0  0  0  0  # atno 8010 bound_to 7997
  139.5808  144.6985  151.3533 H   0  0  0  0  0  0  0  0  0  0  0  0  # atno 10167 bound_to 10162
  156.2876  130.4224  149.8272 H   0  0  0  0  0  0  0  0  0  0  0  0  # atno 10718 bound_to 10713
  153.0308  135.5196  154.7347 H   0  0  0  0  0  0  0  0  0  0  0  0  # atno 10763 bound_to 10752
  154.6364  135.2906  155.0158 H   0  0  0  0  0  0  0  0  0  0  0  0  # atno 10764 bound_to 10752
  154.1091  135.6624  153.4934 H   0  0  0  0  0  0  0  0  0  0  0  0  # atno 10765 bound_to 10752
  140.2494  134.3321  155.7896 H   0  0  0  0  0  0  0  0  0  0  0  0  # atno 11005 bound_to 11000
  144.7402  139.7471  143.7314 LP  0  0  0  0  0  0  0  0  0  0  0  0  # atno 17320 bound_to 7965
  146.1729  139.4887  142.9916 LP  0  0  0  0  0  0  0  0  0  0  0  0  # atno 17321 bound_to 7965
  140.7086  143.7448  150.7527 LP  0  0  0  0  0  0  0  0  0  0  0  0  # atno 17342 bound_to 10162
  140.0980  143.4814  152.2441 LP  0  0  0  0  0  0  0  0  0  0  0  0  # atno 17343 bound_to 10162
  156.5697  130.8419  151.3353 LP  0  0  0  0  0  0  0  0  0  0  0  0  # atno 17370 bound_to 10713
  157.7333  130.9728  150.1971 LP  0  0  0  0  0  0  0  0  0  0  0  0  # atno 17371 bound_to 10713
  141.2203  133.7344  156.9013 LP  0  0  0  0  0  0  0  0  0  0  0  0  # atno 17394 bound_to 11000
  140.1573  134.9189  157.2670 LP  0  0  0  0  0  0  0  0  0  0  0  0  # atno 17395 bound_to 11000

$$$$
