AV-unprocessed.smi:3140|AV-procd|sdf|11958|dock2
  -GOLD-   2272017353D 1   1.00000     0.00000
 Structure written by MMmdl.
 38 39  0  0  0  0  0  0  0  0  2 V2000
  149.3014  144.3224  159.6655 C   0  0  0  0  0  0  0  0  0  0  0  0
  150.4779  143.4650  159.1696 C   0  0  2  0  0  0  0  0  0  0  0  0
  151.8229  144.0797  159.6050 C   0  0  0  0  0  0  0  0  0  0  0  0
  152.6982  143.1072  160.2359 N   0  0  0  0  0  0  0  0  0  0  0  0
  153.0082  142.9744  161.5731 C   0  0  0  0  0  0  0  0  0  0  0  0
  153.8632  141.9160  161.6885 C   0  0  0  0  0  0  0  0  0  0  0  0
  154.0214  141.4608  160.3498 C   0  0  0  0  0  0  0  0  0  0  0  0
  153.3209  142.1743  159.4828 N   0  0  0  0  0  0  0  0  0  0  0  0
  150.4395  143.3105  157.6970 N   0  3  0  0  0  0  0  0  0  0  0  0
  150.1925  141.9394  157.2070 C   0  0  0  0  0  0  0  0  0  0  0  0
  150.2521  141.8918  155.6728 C   0  0  0  0  0  0  0  0  0  0  0  0
  150.4827  140.5344  155.1867 N   0  0  0  0  0  0  0  0  0  0  0  0
  149.5284  139.8856  154.3033 C   0  0  0  0  0  0  0  0  0  0  0  0
  150.2146  138.5831  153.8665 C   0  0  0  0  0  0  0  0  0  0  0  0
  151.3917  138.3896  154.8288 C   0  0  0  0  0  0  0  0  0  0  0  0
  151.5105  139.7416  155.5116 C   0  0  0  0  0  0  0  0  0  0  0  0
  152.4422  140.0347  156.2593 O   0  0  0  0  0  0  0  0  0  0  0  0
  149.3488  144.4624  160.7458 H   0  0  0  0  0  0  0  0  0  0  0  0
  148.3402  143.8573  159.4471 H   0  0  0  0  0  0  0  0  0  0  0  0
  149.3078  145.3103  159.2038 H   0  0  0  0  0  0  0  0  0  0  0  0
  150.4000  142.4756  159.6232 H   0  0  0  0  0  0  0  0  0  0  0  0
  152.3405  144.5254  158.7536 H   0  0  0  0  0  0  0  0  0  0  0  0
  151.6526  144.8864  160.3195 H   0  0  0  0  0  0  0  0  0  0  0  0
  152.5988  143.6354  162.3231 H   0  0  0  0  0  0  0  0  0  0  0  0
  154.3100  141.5273  162.5917 H   0  0  0  0  0  0  0  0  0  0  0  0
  154.6188  140.6382  159.9846 H   0  0  0  0  0  0  0  0  0  0  0  0
  149.7393  143.9326  157.3187 H   0  0  0  0  0  0  0  0  0  0  0  0
  150.9413  141.2648  157.6244 H   0  0  0  0  0  0  0  0  0  0  0  0
  149.2180  141.5980  157.5561 H   0  0  0  0  0  0  0  0  0  0  0  0
  149.3226  142.2732  155.2463 H   0  0  0  0  0  0  0  0  0  0  0  0
  151.0473  142.5446  155.3098 H   0  0  0  0  0  0  0  0  0  0  0  0
  148.6101  139.6780  154.8542 H   0  0  0  0  0  0  0  0  0  0  0  0
  149.2802  140.5179  153.4498 H   0  0  0  0  0  0  0  0  0  0  0  0
  149.5266  137.7371  153.8860 H   0  0  0  0  0  0  0  0  0  0  0  0
  150.5858  138.6800  152.8452 H   0  0  0  0  0  0  0  0  0  0  0  0
  151.1748  137.6247  155.5752 H   0  0  0  0  0  0  0  0  0  0  0  0
  152.3113  138.1214  154.3079 H   0  0  0  0  0  0  0  0  0  0  0  0
  151.3418  143.5978  157.3439 H   0  0  0  0  0  0  0  0  0  0  0  0
  1  2  1  0  0  0  0
  1 18  1  0  0  0  0
  1 19  1  0  0  0  0
  1 20  1  0  0  0  0
  2  3  1  0  0  0  0
  2  9  1  0  0  0  0
  2 21  1  0  0  0  0
  3  4  1  0  0  0  0
  3 22  1  0  0  0  0
  3 23  1  0  0  0  0
  4  8  1  0  0  0  0
  4  5  1  0  0  0  0
  5  6  2  0  0  0  0
  5 24  1  0  0  0  0
  6  7  1  0  0  0  0
  6 25  1  0  0  0  0
  7  8  2  0  0  0  0
  7 26  1  0  0  0  0
  9 10  1  0  0  0  0
  9 27  1  0  0  0  0
  9 38  1  0  0  0  0
 10 11  1  0  0  0  0
 10 28  1  0  0  0  0
 10 29  1  0  0  0  0
 11 12  1  0  0  0  0
 11 30  1  0  0  0  0
 11 31  1  0  0  0  0
 12 16  1  0  0  0  0
 12 13  1  0  0  0  0
 13 14  1  0  0  0  0
 13 32  1  0  0  0  0
 13 33  1  0  0  0  0
 14 15  1  0  0  0  0
 14 34  1  0  0  0  0
 14 35  1  0  0  0  0
 15 16  1  0  0  0  0
 15 36  1  0  0  0  0
 15 37  1  0  0  0  0
 16 17  2  0  0  0  0
M  CHG  1   9   1
M  END
> <s_m_source_file>
AV-unprocessed.smi

> <i_m_source_file_index>
3140

> <i_lp_mmshare_version>
43012

> <i_f3d_flags>
0

> <s_epik_input>
bjFbY0hdW2NIXVtjSF1uMVtDSDJdW0NAQEhdKFtDSDNdKVtOSF1bQ0gyXVtDSDJdTjJbQ0gyXVtDSDJdW0NIMl1DMj1P

> <s_epik_cmdline>
J2VwaWtfcHl0aG9uJywgJy1waCcsICc3LjAnLCAnLXRuJywgJzgnLCAnLW1hJywgJzIwMCcsICctbWV0YWxfYmluZGluZycsICctaW1hZScsICc8aW5maWxlLm1hZT4nLCAnLW9tYWUnLCAnPG91dGZpbGUubWFlPic=

> <r_lp_tautomer_probability>
1

> <r_epik_Ionization_Penalty>
0.00826299

> <r_epik_Ionization_Penalty_Charging>
0.00825899

> <r_epik_Ionization_Penalty_Neutral>
3.99893e-06

> <r_epik_State_Penalty>
0.00621436

> <r_epik_Charging_Adjusted_Penalty>
0.0144734

> <i_epik_Tot_Q>
1

> <i_epik_Tot_abs_Q>
1

> <r_epik_Metal_State_Penalty>
0.00621472

> <b_epik_Metal_Only>
0

> <s_lp_Force_Field>
OPLS_2005

> <r_lp_Energy>
18.6849

> <b_lp_Chiralities_Consistent>
1

> <s_lp_Variant>
AV-unprocessed.smi:3140-1

> <Gold.Version>
5.8.1

> <Gold.Id.Protein>
6NUR|6NUR_protein|mol2

> <Gold.PLP.Fitness>
48.4185

> <Gold.PLP.PLP>
-42.6010

> <Gold.PLP.part.hbond>
-2.0000

> <Gold.PLP.part.metal>
0.0000

> <Gold.PLP.part.buried>
-3.5810

> <Gold.PLP.part.nonpolar>
-36.5865

> <Gold.PLP.part.repulsive>
0.0206

> <Gold.PLP.ligand.clash>
0.0000

> <Gold.PLP.ligand.torsion>
1.6915

> <Gold.PLP.Chemscore.Hbond>
3.0000

> <Gold.PLP.Chemscore.CHOScore>
0.0000

> <Gold.PLP.Chemscore.Metal>
0.0000

> <Gold.Chemscore.Hbonds>
donor molecule, donor type, donor heavy atom, donor atom, acceptor molecule, acceptor atom, score
      L1  H     9    27       P1  8028  1.92
      P1  H  7997  8010       L1    17  0.93

> <Gold.PLP.Chemscore.Internal.Correction>
0.2005

> <Gold.Rescore>
     Score         DG    S(hbond)    S(metal)    S(lipo)     H(rot)  DE(clash)    DE(int)     intcor
     15.55     -16.98       1.79        0.00      92.27       2.06       0.10       1.33       ----

> <Gold.Chemscore.Fitness>
15.5503

> <Gold.Chemscore.DG>
-16.9822

> <Gold.Chemscore.ZeroCoef>
-5.4800

> <Gold.Chemscore.Hbond>
1.7872

> <Gold.Chemscore.Metal>
0.0000

> <Gold.Chemscore.Lipo>
92.2715

> <Gold.Chemscore.Internal_Hbond>
0.0000

> <Gold.Chemscore.DEClash>
0.1017

> <Gold.Chemscore.DEInternal>
1.3302

> <Gold.Chemscore.Rot>
2.0557

> <Gold.Chemscore.Internal.Correction>
   9.000000E+99

> <Gold.Chemscore.Hbonds>
donor molecule, donor type, donor heavy atom, donor atom, acceptor molecule, acceptor atom, score
      L1  H     9    27       P1  8028  0.58
      P1  H  7997  8010       L1    17  0.89

> <Gold.Chemscore.Hbond.Weighted>
-5.9691

> <Gold.Chemscore.Metal.Weighted>
-0.0000

> <Gold.Chemscore.Lipo.Weighted>
-10.7958

> <Gold.Chemscore.Internal_Hbond.Weighted>
0.0000

> <Gold.Chemscore.DEClash.Weighted>
0.1017

> <Gold.Chemscore.DEInternal.Weighted>
1.3302

> <Gold.Chemscore.Rot.Weighted>
5.2627

> <Gold.Chemscore.Internal.Correction.Weighted>
   9.000000E+99

> <Gold.Protein.RotatedTorsions>
[ 6907 6896 6895 6894 ] final   46.93 input  -60.11 | X-H torsion
[ 7974 7965 7964 7962 ] final   99.66 input  175.53 | X-H torsion
[ 8008 7997 7996 7995 ] final   58.87 input   59.86 | X-H torsion
[ 10167 10162 10161 10158 ] final  -14.08 input  -65.29 | X-H torsion
[ 10718 10713 10712 10709 ] final  -74.22 input   66.30 | X-H torsion
[ 10763 10752 10751 10750 ] final   50.27 input  -60.55 | X-H torsion
[ 11005 11000 10999 10996 ] final  -90.52 input  -57.11 | X-H torsion

> <Gold.Protein.ActiveResidues>
 VAL166  LYS551  ARG553  GLY616  TRP617  ASP618  TYR619  PRO620  LYS621  CYS622 
 ASP623  PHE694  ASN695  SER759  ASP760  ASP761  ALA762  ILE779  LEU786  VAL792 
 PHE793  MET794  SER795  GLU796  ALA797  LYS798  CYS799  TRP800  GLU811  SER814 

> <Gold.Protein.RotatedAtoms>
  152.2622  134.8022  160.0428 H   0  0  0  0  0  0  0  0  0  0  0  0  # atno 6907 bound_to 6896
  151.8665  133.3462  159.3729 H   0  0  0  0  0  0  0  0  0  0  0  0  # atno 6908 bound_to 6896
  150.7120  134.5082  159.5639 H   0  0  0  0  0  0  0  0  0  0  0  0  # atno 6909 bound_to 6896
  145.3959  139.2355  143.3326 H   0  0  0  0  0  0  0  0  0  0  0  0  # atno 7974 bound_to 7965
  155.5569  140.3487  155.4482 H   0  0  0  0  0  0  0  0  0  0  0  0  # atno 8008 bound_to 7997
  156.0542  140.1325  157.0041 H   0  0  0  0  0  0  0  0  0  0  0  0  # atno 8009 bound_to 7997
  154.4448  140.0998  156.6406 H   0  0  0  0  0  0  0  0  0  0  0  0  # atno 8010 bound_to 7997
  140.7194  143.5359  150.9465 H   0  0  0  0  0  0  0  0  0  0  0  0  # atno 10167 bound_to 10162
  156.0250  130.4412  150.2860 H   0  0  0  0  0  0  0  0  0  0  0  0  # atno 10718 bound_to 10713
  152.9785  135.5884  154.4225 H   0  0  0  0  0  0  0  0  0  0  0  0  # atno 10763 bound_to 10752
  154.3848  135.2767  155.2192 H   0  0  0  0  0  0  0  0  0  0  0  0  # atno 10764 bound_to 10752
  154.4090  135.6086  153.5996 H   0  0  0  0  0  0  0  0  0  0  0  0  # atno 10765 bound_to 10752
  141.1564  133.7697  156.9749 H   0  0  0  0  0  0  0  0  0  0  0  0  # atno 11005 bound_to 11000
  146.2775  140.4649  142.8789 LP  0  0  0  0  0  0  0  0  0  0  0  0  # atno 17320 bound_to 7965
  144.8407  140.6853  143.6231 LP  0  0  0  0  0  0  0  0  0  0  0  0  # atno 17321 bound_to 7965
  139.9080  143.6754  152.3120 LP  0  0  0  0  0  0  0  0  0  0  0  0  # atno 17342 bound_to 10162
  139.7127  144.7617  151.1085 LP  0  0  0  0  0  0  0  0  0  0  0  0  # atno 17343 bound_to 10162
  157.0964  131.0183  151.3102 LP  0  0  0  0  0  0  0  0  0  0  0  0  # atno 17370 bound_to 10713
  157.4814  130.7767  149.7418 LP  0  0  0  0  0  0  0  0  0  0  0  0  # atno 17371 bound_to 10713
  140.1104  134.9480  157.2057 LP  0  0  0  0  0  0  0  0  0  0  0  0  # atno 17394 bound_to 11000
  140.3201  134.2926  155.7248 LP  0  0  0  0  0  0  0  0  0  0  0  0  # atno 17395 bound_to 11000

$$$$
