AV-unprocessed.smi:2060|AV-procd|sdf|8354|dock2
  -GOLD-   2272011 23D 1   1.00000     0.00000
 Structure written by MMmdl.
 45 46  0  0  0  0  0  0  0  0  1 V2000
  146.9447  138.9849  152.1553 C   0  0  0  0  0  0  0  0  0  0  0  0
  146.9493  140.3010  152.9545 C   0  0  0  0  0  0  0  0  0  0  0  0
  146.9964  140.1482  154.5084 C   0  0  1  0  0  0  0  0  0  0  0  0
  146.2879  141.4003  155.0922 C   0  0  0  0  0  0  0  0  0  0  0  0
  146.1728  138.8781  154.9018 C   0  0  0  0  0  0  0  0  0  0  0  0
  144.8404  138.8215  154.2998 N   0  0  0  0  0  0  0  0  0  0  0  0
  143.8158  138.0708  154.7303 C   0  0  0  0  0  0  0  0  0  0  0  0
  143.8828  137.3234  155.7060 O   0  0  0  0  0  0  0  0  0  0  0  0
  142.7284  138.2517  153.9623 N   0  0  0  0  0  0  0  0  0  0  0  0
  141.4426  137.6682  154.1021 C   0  0  0  0  0  0  0  0  0  0  0  0
  140.1914  138.3237  153.9096 C   0  0  0  0  0  0  0  0  0  0  0  0
  139.2849  137.3311  154.1536 C   0  0  0  0  0  0  0  0  0  0  0  0
  137.7952  137.2904  154.1330 C   0  0  0  0  0  0  0  0  0  0  0  0
  139.9240  136.1723  154.4686 O   0  0  0  0  0  0  0  0  0  0  0  0
  141.3051  136.3973  154.4328 N   0  0  0  0  0  0  0  0  0  0  0  0
  148.4031  140.0741  154.9965 N   0  0  0  0  0  0  0  0  0  0  0  0
  149.1574  141.3314  154.9240 C   0  0  0  0  0  0  0  0  0  0  0  0
  150.5447  141.2109  155.5771 C   0  0  0  0  0  0  0  0  0  0  0  0
  151.2737  140.1553  154.9627 O   0  0  0  0  0  0  0  0  0  0  0  0
  150.6033  138.9044  155.0593 C   0  0  0  0  0  0  0  0  0  0  0  0
  149.2164  139.0065  154.4019 C   0  0  0  0  0  0  0  0  0  0  0  0
  146.9062  139.1894  151.0854 H   0  0  0  0  0  0  0  0  0  0  0  0
  146.0817  138.3647  152.3976 H   0  0  0  0  0  0  0  0  0  0  0  0
  147.8430  138.3964  152.3391 H   0  0  0  0  0  0  0  0  0  0  0  0
  147.8048  140.8841  152.6122 H   0  0  0  0  0  0  0  0  0  0  0  0
  146.0831  140.8928  152.6585 H   0  0  0  0  0  0  0  0  0  0  0  0
  145.3541  141.6220  154.5749 H   0  0  0  0  0  0  0  0  0  0  0  0
  146.9136  142.2901  155.0173 H   0  0  0  0  0  0  0  0  0  0  0  0
  146.0327  141.2710  156.1442 H   0  0  0  0  0  0  0  0  0  0  0  0
  146.6859  137.9760  154.5704 H   0  0  0  0  0  0  0  0  0  0  0  0
  146.0872  138.7858  155.9846 H   0  0  0  0  0  0  0  0  0  0  0  0
  144.6897  139.4045  153.4894 H   0  0  0  0  0  0  0  0  0  0  0  0
  142.8291  138.8893  153.1864 H   0  0  0  0  0  0  0  0  0  0  0  0
  139.9761  139.3453  153.6357 H   0  0  0  0  0  0  0  0  0  0  0  0
  137.3793  138.2949  154.0532 H   0  0  0  0  0  0  0  0  0  0  0  0
  137.4068  136.8354  155.0443 H   0  0  0  0  0  0  0  0  0  0  0  0
  137.4377  136.7078  153.2839 H   0  0  0  0  0  0  0  0  0  0  0  0
  149.2892  141.6336  153.8852 H   0  0  0  0  0  0  0  0  0  0  0  0
  148.6232  142.1379  155.4226 H   0  0  0  0  0  0  0  0  0  0  0  0
  151.1003  142.1415  155.4598 H   0  0  0  0  0  0  0  0  0  0  0  0
  150.4524  141.0258  156.6484 H   0  0  0  0  0  0  0  0  0  0  0  0
  151.2019  138.1407  154.5630 H   0  0  0  0  0  0  0  0  0  0  0  0
  150.5133  138.6104  156.1061 H   0  0  0  0  0  0  0  0  0  0  0  0
  148.7284  138.0391  154.5079 H   0  0  0  0  0  0  0  0  0  0  0  0
  149.3488  139.1799  153.3342 H   0  0  0  0  0  0  0  0  0  0  0  0
  1  2  1  0  0  0  0
  1 22  1  0  0  0  0
  1 23  1  0  0  0  0
  1 24  1  0  0  0  0
  2  3  1  0  0  0  0
  2 25  1  0  0  0  0
  2 26  1  0  0  0  0
  3  4  1  0  0  0  0
  3  5  1  0  0  0  0
  3 16  1  0  0  0  0
  4 27  1  0  0  0  0
  4 28  1  0  0  0  0
  4 29  1  0  0  0  0
  5  6  1  0  0  0  0
  5 30  1  0  0  0  0
  5 31  1  0  0  0  0
  6  7  1  0  0  0  0
  6 32  1  0  0  0  0
  7  8  2  0  0  0  0
  7  9  1  0  0  0  0
  9 10  1  0  0  0  0
  9 33  1  0  0  0  0
 10 15  2  0  0  0  0
 10 11  1  0  0  0  0
 11 12  2  0  0  0  0
 11 34  1  0  0  0  0
 12 13  1  0  0  0  0
 12 14  1  0  0  0  0
 13 35  1  0  0  0  0
 13 36  1  0  0  0  0
 13 37  1  0  0  0  0
 14 15  1  0  0  0  0
 16 21  1  0  0  0  0
 16 17  1  0  0  0  0
 17 18  1  0  0  0  0
 17 38  1  0  0  0  0
 17 39  1  0  0  0  0
 18 19  1  0  0  0  0
 18 40  1  0  0  0  0
 18 41  1  0  0  0  0
 19 20  1  0  0  0  0
 20 21  1  0  0  0  0
 20 42  1  0  0  0  0
 20 43  1  0  0  0  0
 21 44  1  0  0  0  0
 21 45  1  0  0  0  0
M  END
> <s_m_source_file>
AV-unprocessed.smi

> <i_m_source_file_index>
2060

> <i_lp_mmshare_version>
43012

> <i_f3d_flags>
0

> <s_epik_input>
W0NIMl0xW0NIMl1PW0NIMl1bQ0gyXU4xW0NAQF0oW0NIM10pKFtDSDJdW0NIM10pW0NIMl1bTkhdQyg9TylbTkhdYzJbY0hdYyhbQ0gzXSlvbjI=

> <s_epik_cmdline>
J2VwaWtfcHl0aG9uJywgJy1waCcsICc3LjAnLCAnLXRuJywgJzgnLCAnLW1hJywgJzIwMCcsICctbWV0YWxfYmluZGluZycsICctaW1hZScsICc8aW5maWxlLm1hZT4nLCAnLW9tYWUnLCAnPG91dGZpbGUubWFlPic=

> <r_epik_Ionization_Penalty>
0.289127

> <r_epik_Ionization_Penalty_Charging>
0

> <r_epik_Ionization_Penalty_Neutral>
0.289127

> <r_epik_State_Penalty>
0.282056

> <r_epik_Charging_Adjusted_Penalty>
0.282056

> <i_epik_Tot_Q>
0

> <i_epik_Tot_abs_Q>
0

> <r_epik_Metal_State_Penalty>
0.284526

> <b_epik_Metal_Only>
0

> <s_lp_Force_Field>
OPLS_2005

> <r_lp_Energy>
41.8264

> <b_lp_Chiralities_Consistent>
1

> <s_lp_Variant>
AV-unprocessed.smi:2060-1

> <Gold.Version>
5.8.1

> <Gold.Id.Protein>
6NUR|6NUR_protein|mol2

> <Gold.PLP.Fitness>
42.0852

> <Gold.PLP.PLP>
-32.5027

> <Gold.PLP.part.hbond>
-4.1763

> <Gold.PLP.part.metal>
0.0000

> <Gold.PLP.part.buried>
-3.1016

> <Gold.PLP.part.nonpolar>
-25.2676

> <Gold.PLP.part.repulsive>
0.2761

> <Gold.PLP.ligand.clash>
0.0000

> <Gold.PLP.ligand.torsion>
1.1137

> <Gold.PLP.Chemscore.Hbond>
3.8920

> <Gold.PLP.Chemscore.CHOScore>
0.0000

> <Gold.PLP.Chemscore.Metal>
0.0000

> <Gold.Chemscore.Hbonds>
donor molecule, donor type, donor heavy atom, donor atom, acceptor molecule, acceptor atom, score
      L1  H     6    32       P1 10175  1.00
      L1  H     9    33       P1 10175  0.98
      P1  H  7989  7998       L1    19  1.00
      P1  H 11000 11005       L1    14  0.68

> <Gold.PLP.Chemscore.Internal.Correction>
0.1339

> <Gold.Rescore>
     Score         DG    S(hbond)    S(metal)    S(lipo)     H(rot)  DE(clash)    DE(int)     intcor
     17.30     -18.63       2.65        0.00      74.16       1.71       0.29       1.03       ----

> <Gold.Chemscore.Fitness>
17.3029

> <Gold.Chemscore.DG>
-18.6271

> <Gold.Chemscore.ZeroCoef>
-5.4800

> <Gold.Chemscore.Hbond>
2.6523

> <Gold.Chemscore.Metal>
0.0000

> <Gold.Chemscore.Lipo>
74.1608

> <Gold.Chemscore.Internal_Hbond>
0.0000

> <Gold.Chemscore.DEClash>
0.2907

> <Gold.Chemscore.DEInternal>
1.0335

> <Gold.Chemscore.Rot>
1.7143

> <Gold.Chemscore.Internal.Correction>
   9.000000E+99

> <Gold.Chemscore.Hbonds>
donor molecule, donor type, donor heavy atom, donor atom, acceptor molecule, acceptor atom, score
      L1  H     6    32       P1 10175  0.96
      L1  H     9    33       P1 10175  0.93
      P1  H  7989  7998       L1    19  0.25
      P1  H 11000 11005       L1    14  0.10

> <Gold.Chemscore.Hbond.Weighted>
-8.8588

> <Gold.Chemscore.Metal.Weighted>
-0.0000

> <Gold.Chemscore.Lipo.Weighted>
-8.6768

> <Gold.Chemscore.Internal_Hbond.Weighted>
0.0000

> <Gold.Chemscore.DEClash.Weighted>
0.2907

> <Gold.Chemscore.DEInternal.Weighted>
1.0335

> <Gold.Chemscore.Rot.Weighted>
4.3885

> <Gold.Chemscore.Internal.Correction.Weighted>
   9.000000E+99

> <Gold.Protein.RotatedTorsions>
[ 6907 6896 6895 6894 ] final  104.87 input  -60.11 | X-H torsion
[ 7974 7965 7964 7962 ] final   24.20 input  175.53 | X-H torsion
[ 8008 7997 7996 7995 ] final -126.77 input   59.86 | X-H torsion
[ 10167 10162 10161 10158 ] final  151.82 input  -65.29 | X-H torsion
[ 10718 10713 10712 10709 ] final  -13.98 input   66.30 | X-H torsion
[ 10763 10752 10751 10750 ] final   12.16 input  -60.55 | X-H torsion
[ 11005 11000 10999 10996 ] final   65.39 input  -57.11 | X-H torsion

> <Gold.Protein.ActiveResidues>
 VAL166  LYS551  ARG553  GLY616  TRP617  ASP618  TYR619  PRO620  LYS621  CYS622 
 ASP623  PHE694  ASN695  SER759  ASP760  ASP761  ALA762  ILE779  LEU786  VAL792 
 PHE793  MET794  SER795  GLU796  ALA797  LYS798  CYS799  TRP800  GLU811  SER814 

> <Gold.Protein.RotatedAtoms>
  152.5250  133.9612  159.7717 H   0  0  0  0  0  0  0  0  0  0  0  0  # atno 6907 bound_to 6896
  150.9902  133.6149  159.2716 H   0  0  0  0  0  0  0  0  0  0  0  0  # atno 6908 bound_to 6896
  151.3295  135.0844  159.9386 H   0  0  0  0  0  0  0  0  0  0  0  0  # atno 6909 bound_to 6896
  146.1949  139.7638  142.8805 H   0  0  0  0  0  0  0  0  0  0  0  0  # atno 7974 bound_to 7965
  155.2352  140.0426  157.2967 H   0  0  0  0  0  0  0  0  0  0  0  0  # atno 8008 bound_to 7997
  154.5863  140.2414  155.7953 H   0  0  0  0  0  0  0  0  0  0  0  0  # atno 8009 bound_to 7997
  156.2228  140.2964  156.0002 H   0  0  0  0  0  0  0  0  0  0  0  0  # atno 8010 bound_to 7997
  139.4837  144.5409  151.7566 H   0  0  0  0  0  0  0  0  0  0  0  0  # atno 10167 bound_to 10162
  156.6225  130.4879  149.6159 H   0  0  0  0  0  0  0  0  0  0  0  0  # atno 10718 bound_to 10713
  153.1851  135.6834  153.8426 H   0  0  0  0  0  0  0  0  0  0  0  0  # atno 10763 bound_to 10752
  153.7744  135.3191  155.3358 H   0  0  0  0  0  0  0  0  0  0  0  0  # atno 10764 bound_to 10752
  154.8084  135.4734  154.0547 H   0  0  0  0  0  0  0  0  0  0  0  0  # atno 10765 bound_to 10752
  139.9897  134.6611  156.0112 H   0  0  0  0  0  0  0  0  0  0  0  0  # atno 11005 bound_to 11000
  145.3676  141.0337  143.3249 LP  0  0  0  0  0  0  0  0  0  0  0  0  # atno 17320 bound_to 7965
  144.8560  139.5249  143.6834 LP  0  0  0  0  0  0  0  0  0  0  0  0  # atno 17321 bound_to 7965
  140.4948  144.1256  150.5958 LP  0  0  0  0  0  0  0  0  0  0  0  0  # atno 17342 bound_to 10162
  140.4129  143.2648  151.9810 LP  0  0  0  0  0  0  0  0  0  0  0  0  # atno 17343 bound_to 10162
  156.2300  130.6788  151.1454 LP  0  0  0  0  0  0  0  0  0  0  0  0  # atno 17370 bound_to 10713
  157.7223  131.0673  150.6082 LP  0  0  0  0  0  0  0  0  0  0  0  0  # atno 17371 bound_to 10713
  141.1555  133.6543  156.4149 LP  0  0  0  0  0  0  0  0  0  0  0  0  # atno 17394 bound_to 11000
  140.4932  134.6556  157.5219 LP  0  0  0  0  0  0  0  0  0  0  0  0  # atno 17395 bound_to 11000

$$$$
