AV-unprocessed.smi:6|AV-procd|sdf|40|dock8
  -GOLD-   2262015153D 1   1.00000     0.00000
 Structure written by MMmdl.
 38 39  0  0  0  0  0  0  0  0  2 V2000
  152.1746  144.1531  161.4888 C   0  0  0  0  0  0  0  0  0  0  0  0
  152.5655  144.0455  160.0068 C   0  0  0  0  0  0  0  0  0  0  0  0
  151.7003  144.9259  159.0922 C   0  0  0  0  0  0  0  0  0  0  0  0
  152.6077  142.6006  159.5303 C   0  0  0  0  0  0  0  0  0  0  0  0
  153.4335  141.7367  160.1432 N   0  3  0  0  0  0  0  0  0  0  0  0
  153.4894  140.4488  159.7241 C   0  0  0  0  0  0  0  0  0  0  0  0
  152.6875  140.0125  158.6528 C   0  0  0  0  0  0  0  0  0  0  0  0
  151.8448  140.9668  158.0575 C   0  0  0  0  0  0  0  0  0  0  0  0
  151.0238  140.5920  156.9851 N   0  0  0  0  0  0  0  0  0  0  0  0
  151.1612  141.2511  155.6916 C   0  0  0  0  0  0  0  0  0  0  0  0
  150.1000  140.8231  154.6896 C   0  0  0  0  0  0  0  0  0  0  0  0
  149.0844  141.6474  154.3256 C   0  0  0  0  0  0  0  0  0  0  0  0
  148.1136  141.3022  153.3986 N   0  0  0  0  0  0  0  0  0  0  0  0
  147.0396  142.1795  153.0204 C   0  0  0  0  0  0  0  0  0  0  0  0
  148.1565  140.0384  152.7740 C   0  0  0  0  0  0  0  0  0  0  0  0
  147.3250  139.6684  151.9448 O   0  0  0  0  0  0  0  0  0  0  0  0
  149.2075  139.1972  153.1365 N   0  0  0  0  0  0  0  0  0  0  0  0
  150.2090  139.4994  154.0644 C   0  0  0  0  0  0  0  0  0  0  0  0
  151.0899  138.6730  154.2961 O   0  0  0  0  0  0  0  0  0  0  0  0
  151.8214  142.2418  158.5049 N   0  0  0  0  0  0  0  0  0  0  0  0
  149.2490  138.2927  152.6894 H   0  0  0  0  0  0  0  0  0  0  0  0
  152.8570  143.5811  162.1177 H   0  0  0  0  0  0  0  0  0  0  0  0
  151.1658  143.7774  161.6636 H   0  0  0  0  0  0  0  0  0  0  0  0
  152.2036  145.1891  161.8273 H   0  0  0  0  0  0  0  0  0  0  0  0
  153.5827  144.4339  159.9312 H   0  0  0  0  0  0  0  0  0  0  0  0
  152.0543  144.8876  158.0615 H   0  0  0  0  0  0  0  0  0  0  0  0
  151.7269  145.9680  159.4116 H   0  0  0  0  0  0  0  0  0  0  0  0
  150.6582  144.6046  159.0989 H   0  0  0  0  0  0  0  0  0  0  0  0
  154.1757  139.8094  160.2597 H   0  0  0  0  0  0  0  0  0  0  0  0
  152.7227  138.9896  158.3070 H   0  0  0  0  0  0  0  0  0  0  0  0
  150.1669  140.0936  157.1786 H   0  0  0  0  0  0  0  0  0  0  0  0
  151.1131  142.3303  155.8408 H   0  0  0  0  0  0  0  0  0  0  0  0
  152.1418  141.0346  155.2653 H   0  0  0  0  0  0  0  0  0  0  0  0
  149.0306  142.6236  154.7861 H   0  0  0  0  0  0  0  0  0  0  0  0
  146.1006  141.6865  153.2797 H   0  0  0  0  0  0  0  0  0  0  0  0
  147.1242  142.3660  151.9479 H   0  0  0  0  0  0  0  0  0  0  0  0
  147.1442  143.1121  153.5759 H   0  0  0  0  0  0  0  0  0  0  0  0
  154.0217  142.0401  160.9198 H   0  0  0  0  0  0  0  0  0  0  0  0
  1  2  1  0  0  0  0
  1 22  1  0  0  0  0
  1 23  1  0  0  0  0
  1 24  1  0  0  0  0
  2  3  1  0  0  0  0
  2  4  1  0  0  0  0
  2 25  1  0  0  0  0
  3 26  1  0  0  0  0
  3 27  1  0  0  0  0
  3 28  1  0  0  0  0
  4 20  1  0  0  0  0
  4  5  2  0  0  0  0
  5  6  1  0  0  0  0
  5 38  1  0  0  0  0
  6  7  2  0  0  0  0
  6 29  1  0  0  0  0
  7  8  1  0  0  0  0
  7 30  1  0  0  0  0
  8  9  1  0  0  0  0
  8 20  2  0  0  0  0
  9 10  1  0  0  0  0
  9 31  1  0  0  0  0
 10 11  1  0  0  0  0
 10 32  1  0  0  0  0
 10 33  1  0  0  0  0
 11 18  1  0  0  0  0
 11 12  2  0  0  0  0
 12 13  1  0  0  0  0
 12 34  1  0  0  0  0
 13 14  1  0  0  0  0
 13 15  1  0  0  0  0
 14 35  1  0  0  0  0
 14 36  1  0  0  0  0
 14 37  1  0  0  0  0
 15 16  2  0  0  0  0
 15 17  1  0  0  0  0
 17 21  1  0  0  0  0
 17 18  1  0  0  0  0
 18 19  2  0  0  0  0
M  CHG  1   5   1
M  END
> <s_m_source_file>
AV-unprocessed.smi

> <i_m_source_file_index>
6

> <i_lp_mmshare_version>
43012

> <i_f3d_flags>
0

> <s_epik_input>
W0NIM11bQ0hdKFtDSDNdKWMxbltjSF1bY0hdYyhuMSlbTkhdW0NIMl1jMltjSF1uKFtDSDNdKWMoPU8pW25IXWMyPU8=

> <s_epik_cmdline>
J2VwaWtfcHl0aG9uJywgJy1waCcsICc3LjAnLCAnLXRuJywgJzgnLCAnLW1hJywgJzIwMCcsICctbWV0YWxfYmluZGluZycsICctaW1hZScsICc8aW5maWxlLm1hZT4nLCAnLW9tYWUnLCAnPG91dGZpbGUubWFlPic=

> <r_lp_tautomer_probability>
0.998874

> <r_epik_Ionization_Penalty>
0.537311

> <r_epik_Ionization_Penalty_Charging>
0.537291

> <r_epik_Ionization_Penalty_Neutral>
2.09214e-05

> <r_epik_State_Penalty>
0.545757

> <r_epik_Charging_Adjusted_Penalty>
1.08305

> <i_epik_Tot_Q>
1

> <i_epik_Tot_abs_Q>
1

> <r_epik_Metal_State_Penalty>
0.947272

> <b_epik_Metal_Only>
0

> <s_lp_Force_Field>
OPLS_2005

> <r_lp_Energy>
10.386

> <b_lp_Chiralities_Consistent>
1

> <s_lp_Variant>
AV-unprocessed.smi:6-2

> <Gold.Version>
5.8.1

> <Gold.Id.Protein>
6NUR|6NUR_protein|mol2

> <Gold.PLP.Fitness>
46.8983

> <Gold.PLP.PLP>
-43.2025

> <Gold.PLP.part.hbond>
-1.6332

> <Gold.PLP.part.metal>
0.0000

> <Gold.PLP.part.buried>
-4.8289

> <Gold.PLP.part.nonpolar>
-37.2121

> <Gold.PLP.part.repulsive>
0.9533

> <Gold.PLP.ligand.clash>
0.0000

> <Gold.PLP.ligand.torsion>
0.7849

> <Gold.PLP.Chemscore.Hbond>
0.7313

> <Gold.PLP.Chemscore.CHOScore>
1.0000

> <Gold.PLP.Chemscore.Metal>
0.0000

> <Gold.Chemscore.Hbonds>
donor molecule, donor type, donor heavy atom, donor atom, acceptor molecule, acceptor atom, score
      L1  H    17    21       P1  7948  0.57
      L1  C    12    34       P1  8028  1.00

> <Gold.PLP.Chemscore.Internal.Correction>
0.0719

> <Gold.Rescore>
     Score         DG    S(hbond)    S(metal)    S(lipo)     H(rot)  DE(clash)    DE(int)     intcor
     12.87     -13.84       0.99        0.00      79.78       1.68       0.01       0.95       ----

> <Gold.Chemscore.Fitness>
12.8684

> <Gold.Chemscore.DG>
-13.8373

> <Gold.Chemscore.ZeroCoef>
-5.4800

> <Gold.Chemscore.Hbond>
0.9944

> <Gold.Chemscore.Metal>
0.0000

> <Gold.Chemscore.Lipo>
79.7775

> <Gold.Chemscore.Internal_Hbond>
0.0000

> <Gold.Chemscore.DEClash>
0.0141

> <Gold.Chemscore.DEInternal>
0.9547

> <Gold.Chemscore.Rot>
1.6789

> <Gold.Chemscore.Internal.Correction>
   9.000000E+99

> <Gold.Chemscore.Hbonds>
donor molecule, donor type, donor heavy atom, donor atom, acceptor molecule, acceptor atom, score
      L1  H    17    21       P1  7948  0.55

> <Gold.Chemscore.Hbond.Weighted>
-3.3213

> <Gold.Chemscore.Metal.Weighted>
-0.0000

> <Gold.Chemscore.Lipo.Weighted>
-9.3340

> <Gold.Chemscore.Internal_Hbond.Weighted>
0.0000

> <Gold.Chemscore.DEClash.Weighted>
0.0141

> <Gold.Chemscore.DEInternal.Weighted>
0.9547

> <Gold.Chemscore.Rot.Weighted>
4.2980

> <Gold.Chemscore.Internal.Correction.Weighted>
   9.000000E+99

> <Gold.Protein.RotatedTorsions>
[ 6907 6896 6895 6894 ] final -162.18 input  -60.11 | X-H torsion
[ 7974 7965 7964 7962 ] final  -96.79 input  175.53 | X-H torsion
[ 8008 7997 7996 7995 ] final -154.67 input   59.86 | X-H torsion
[ 10167 10162 10161 10158 ] final -178.28 input  -65.29 | X-H torsion
[ 10718 10713 10712 10709 ] final   -1.01 input   66.30 | X-H torsion
[ 10763 10752 10751 10750 ] final   20.48 input  -60.55 | X-H torsion
[ 11005 11000 10999 10996 ] final  102.80 input  -57.11 | X-H torsion

> <Gold.Protein.ActiveResidues>
 VAL166  LYS551  ARG553  GLY616  TRP617  ASP618  TYR619  PRO620  LYS621  CYS622 
 ASP623  PHE694  ASN695  SER759  ASP760  ASP761  ALA762  ILE779  LEU786  VAL792 
 PHE793  MET794  SER795  GLU796  ALA797  LYS798  CYS799  TRP800  GLU811  SER814 

> <Gold.Protein.RotatedAtoms>
  151.3763  133.3837  159.2704 H   0  0  0  0  0  0  0  0  0  0  0  0  # atno 6907 bound_to 6896
  150.9612  134.9001  159.7742 H   0  0  0  0  0  0  0  0  0  0  0  0  # atno 6908 bound_to 6896
  152.5150  134.3722  159.9374 H   0  0  0  0  0  0  0  0  0  0  0  0  # atno 6909 bound_to 6896
  145.3422  140.9462  143.2601 H   0  0  0  0  0  0  0  0  0  0  0  0  # atno 7974 bound_to 7965
  155.6900  140.0754  157.2452 H   0  0  0  0  0  0  0  0  0  0  0  0  # atno 8008 bound_to 7997
  154.4090  140.1666  156.2128 H   0  0  0  0  0  0  0  0  0  0  0  0  # atno 8009 bound_to 7997
  155.9460  140.3381  155.6370 H   0  0  0  0  0  0  0  0  0  0  0  0  # atno 8010 bound_to 7997
  139.5440  144.2286  152.0951 H   0  0  0  0  0  0  0  0  0  0  0  0  # atno 10167 bound_to 10162
  156.8120  130.5427  149.5707 H   0  0  0  0  0  0  0  0  0  0  0  0  # atno 10718 bound_to 10713
  153.1073  135.6688  153.9562 H   0  0  0  0  0  0  0  0  0  0  0  0  # atno 10763 bound_to 10752
  153.9116  135.3024  155.3450 H   0  0  0  0  0  0  0  0  0  0  0  0  # atno 10764 bound_to 10752
  154.7494  135.5042  153.9339 H   0  0  0  0  0  0  0  0  0  0  0  0  # atno 10765 bound_to 10752
  139.8779  134.9238  156.5113 H   0  0  0  0  0  0  0  0  0  0  0  0  # atno 11005 bound_to 11000
  144.8781  139.4942  143.6736 LP  0  0  0  0  0  0  0  0  0  0  0  0  # atno 17320 bound_to 7965
  146.3002  139.7404  142.9096 LP  0  0  0  0  0  0  0  0  0  0  0  0  # atno 17321 bound_to 7965
  140.1769  144.4882  150.6549 LP  0  0  0  0  0  0  0  0  0  0  0  0  # atno 17342 bound_to 10162
  140.6681  143.2275  151.5693 LP  0  0  0  0  0  0  0  0  0  0  0  0  # atno 17343 bound_to 10162
  156.1039  130.5989  150.9939 LP  0  0  0  0  0  0  0  0  0  0  0  0  # atno 17370 bound_to 10713
  157.6501  131.0898  150.8069 LP  0  0  0  0  0  0  0  0  0  0  0  0  # atno 17371 bound_to 10713
  140.8518  133.8126  155.9176 LP  0  0  0  0  0  0  0  0  0  0  0  0  # atno 17394 bound_to 11000
  140.9137  134.2229  157.4970 LP  0  0  0  0  0  0  0  0  0  0  0  0  # atno 17395 bound_to 11000

$$$$
