AV-unprocessed.smi:2355|AV-procd|sdf|9391|dock9
  -GOLD-   2272013 23D 1   1.00000     0.00000
 Structure written by MMmdl.
 49 50  0  0  0  0  0  0  0  0  2 V2000
  151.6388  145.7852  159.7618 C   0  0  0  0  0  0  0  0  0  0  0  0
  151.7080  144.3629  159.2467 C   0  0  0  0  0  0  0  0  0  0  0  0
  152.5740  143.4225  159.8364 C   0  0  0  0  0  0  0  0  0  0  0  0
  152.5929  142.1155  159.3114 C   0  0  0  0  0  0  0  0  0  0  0  0
  153.5037  141.0560  159.8945 C   0  0  0  0  0  0  0  0  0  0  0  0
  151.8228  141.7276  158.2723 N   0  0  0  0  0  0  0  0  0  0  0  0
  150.9850  142.6248  157.6962 C   0  0  0  0  0  0  0  0  0  0  0  0
  150.1358  142.3171  156.5997 N   0  0  0  0  0  0  0  0  0  0  0  0
  149.7394  141.1053  156.1722 C   0  0  0  0  0  0  0  0  0  0  0  0
  150.0626  140.0291  156.6760 O   0  0  0  0  0  0  0  0  0  0  0  0
  148.9270  141.2048  155.1093 N   0  0  0  0  0  0  0  0  0  0  0  0
  148.3215  140.0758  154.4038 C   0  0  2  0  0  0  0  0  0  0  0  0
  149.4431  139.2113  153.8013 C   0  0  0  0  0  0  0  0  0  0  0  0
  147.2696  140.5473  153.3510 C   0  0  1  0  0  0  0  0  0  0  0  0
  146.8299  139.3819  152.4282 C   0  0  0  0  0  0  0  0  0  0  0  0
  146.1230  141.2611  154.0066 N   0  3  0  0  0  0  0  0  0  0  0  0
  145.7040  140.6239  155.2855 C   0  0  0  0  0  0  0  0  0  0  0  0
  144.4828  141.3351  155.8904 C   0  0  0  0  0  0  0  0  0  0  0  0
  144.7837  142.7074  156.0932 O   0  0  0  0  0  0  0  0  0  0  0  0
  145.0774  143.3601  154.8675 C   0  0  0  0  0  0  0  0  0  0  0  0
  146.3183  142.7222  154.2201 C   0  0  0  0  0  0  0  0  0  0  0  0
  150.9032  143.9561  158.1633 C   0  0  0  0  0  0  0  0  0  0  0  0
  152.3621  145.9529  160.5605 H   0  0  0  0  0  0  0  0  0  0  0  0
  150.6436  145.9974  160.1529 H   0  0  0  0  0  0  0  0  0  0  0  0
  151.8505  146.4900  158.9574 H   0  0  0  0  0  0  0  0  0  0  0  0
  153.2073  143.6951  160.6681 H   0  0  0  0  0  0  0  0  0  0  0  0
  153.9338  141.3832  160.8416 H   0  0  0  0  0  0  0  0  0  0  0  0
  154.3200  140.8402  159.2045 H   0  0  0  0  0  0  0  0  0  0  0  0
  152.9515  140.1330  160.0743 H   0  0  0  0  0  0  0  0  0  0  0  0
  149.7909  143.1124  156.0831 H   0  0  0  0  0  0  0  0  0  0  0  0
  148.7144  142.1274  154.7587 H   0  0  0  0  0  0  0  0  0  0  0  0
  147.8344  139.4701  155.1669 H   0  0  0  0  0  0  0  0  0  0  0  0
  149.0442  138.3225  153.3120 H   0  0  0  0  0  0  0  0  0  0  0  0
  150.1294  138.8704  154.5772 H   0  0  0  0  0  0  0  0  0  0  0  0
  150.0307  139.7622  153.0667 H   0  0  0  0  0  0  0  0  0  0  0  0
  147.7513  141.2753  152.6963 H   0  0  0  0  0  0  0  0  0  0  0  0
  147.6842  138.8569  152.0020 H   0  0  0  0  0  0  0  0  0  0  0  0
  146.2501  139.7369  151.5762 H   0  0  0  0  0  0  0  0  0  0  0  0
  146.2273  138.6468  152.9618 H   0  0  0  0  0  0  0  0  0  0  0  0
  145.4466  139.5771  155.1394 H   0  0  0  0  0  0  0  0  0  0  0  0
  146.5328  140.6500  155.9948 H   0  0  0  0  0  0  0  0  0  0  0  0
  143.6086  141.2289  155.2461 H   0  0  0  0  0  0  0  0  0  0  0  0
  144.2260  140.8866  156.8502 H   0  0  0  0  0  0  0  0  0  0  0  0
  144.2175  143.3077  154.1975 H   0  0  0  0  0  0  0  0  0  0  0  0
  145.2601  144.4164  155.0662 H   0  0  0  0  0  0  0  0  0  0  0  0
  147.1951  142.8879  154.8484 H   0  0  0  0  0  0  0  0  0  0  0  0
  146.4905  143.2346  153.2742 H   0  0  0  0  0  0  0  0  0  0  0  0
  150.2311  144.6616  157.6960 H   0  0  0  0  0  0  0  0  0  0  0  0
  145.3428  141.1802  153.3704 H   0  0  0  0  0  0  0  0  0  0  0  0
  1  2  1  0  0  0  0
  1 23  1  0  0  0  0
  1 24  1  0  0  0  0
  1 25  1  0  0  0  0
  2 22  1  0  0  0  0
  2  3  2  0  0  0  0
  3  4  1  0  0  0  0
  3 26  1  0  0  0  0
  4  5  1  0  0  0  0
  4  6  2  0  0  0  0
  5 27  1  0  0  0  0
  5 28  1  0  0  0  0
  5 29  1  0  0  0  0
  6  7  1  0  0  0  0
  7  8  1  0  0  0  0
  7 22  2  0  0  0  0
  8  9  1  0  0  0  0
  8 30  1  0  0  0  0
  9 10  2  0  0  0  0
  9 11  1  0  0  0  0
 11 12  1  0  0  0  0
 11 31  1  0  0  0  0
 12 13  1  0  0  0  0
 12 14  1  0  0  0  0
 12 32  1  0  0  0  0
 13 33  1  0  0  0  0
 13 34  1  0  0  0  0
 13 35  1  0  0  0  0
 14 15  1  0  0  0  0
 14 16  1  0  0  0  0
 14 36  1  0  0  0  0
 15 37  1  0  0  0  0
 15 38  1  0  0  0  0
 15 39  1  0  0  0  0
 16 21  1  0  0  0  0
 16 17  1  0  0  0  0
 16 49  1  0  0  0  0
 17 18  1  0  0  0  0
 17 40  1  0  0  0  0
 17 41  1  0  0  0  0
 18 19  1  0  0  0  0
 18 42  1  0  0  0  0
 18 43  1  0  0  0  0
 19 20  1  0  0  0  0
 20 21  1  0  0  0  0
 20 44  1  0  0  0  0
 20 45  1  0  0  0  0
 21 46  1  0  0  0  0
 21 47  1  0  0  0  0
 22 48  1  0  0  0  0
M  CHG  1  16   1
M  END
> <s_m_source_file>
AV-unprocessed.smi

> <i_m_source_file_index>
2355

> <i_lp_mmshare_version>
43012

> <i_f3d_flags>
0

> <s_epik_input>
W0NIM11jMVtjSF1jKFtDSDNdKW5jKFtjSF0xKVtOSF1DKD1PKVtOSF1bQ0BIXShbQ0gzXSlbQ0BIXShbQ0gzXSlOMltDSDJdW0NIMl1PW0NIMl1bQ0gyXTI=

> <s_epik_cmdline>
J2VwaWtfcHl0aG9uJywgJy1waCcsICc3LjAnLCAnLXRuJywgJzgnLCAnLW1hJywgJzIwMCcsICctbWV0YWxfYmluZGluZycsICctaW1hZScsICc8aW5maWxlLm1hZT4nLCAnLW9tYWUnLCAnPG91dGZpbGUubWFlPic=

> <r_epik_Ionization_Penalty>
0.602711

> <r_epik_Ionization_Penalty_Charging>
0.602531

> <r_epik_Ionization_Penalty_Neutral>
0.000180055

> <r_epik_State_Penalty>
0.617039

> <r_epik_Charging_Adjusted_Penalty>
1.21957

> <i_epik_Tot_Q>
1

> <i_epik_Tot_abs_Q>
1

> <r_epik_Metal_State_Penalty>
0.617075

> <b_epik_Metal_Only>
0

> <s_lp_Force_Field>
OPLS_2005

> <r_lp_Energy>
24.3328

> <b_lp_Chiralities_Consistent>
1

> <s_lp_Variant>
AV-unprocessed.smi:2355-7

> <Gold.Version>
5.8.1

> <Gold.Id.Protein>
6NUR|6NUR_protein|mol2

> <Gold.PLP.Fitness>
50.1344

> <Gold.PLP.PLP>
-42.7471

> <Gold.PLP.part.hbond>
-2.0000

> <Gold.PLP.part.metal>
0.0000

> <Gold.PLP.part.buried>
-0.7757

> <Gold.PLP.part.nonpolar>
-41.2563

> <Gold.PLP.part.repulsive>
0.3074

> <Gold.PLP.ligand.clash>
0.0000

> <Gold.PLP.ligand.torsion>
0.8369

> <Gold.PLP.Chemscore.Hbond>
2.9825

> <Gold.PLP.Chemscore.CHOScore>
0.0000

> <Gold.PLP.Chemscore.Metal>
0.0000

> <Gold.Chemscore.Hbonds>
donor molecule, donor type, donor heavy atom, donor atom, acceptor molecule, acceptor atom, score
      L1  H     8    30       P1  8028  1.00
      L1  H    16    49       P1 10175  2.00

> <Gold.PLP.Chemscore.Internal.Correction>
0.1136

> <Gold.Rescore>
     Score         DG    S(hbond)    S(metal)    S(lipo)     H(rot)  DE(clash)    DE(int)     intcor
     17.28     -20.29       1.88        0.00     104.40       1.45       0.81       2.20       ----

> <Gold.Chemscore.Fitness>
17.2787

> <Gold.Chemscore.DG>
-20.2884

> <Gold.Chemscore.ZeroCoef>
-5.4800

> <Gold.Chemscore.Hbond>
1.8850

> <Gold.Chemscore.Metal>
0.0000

> <Gold.Chemscore.Lipo>
104.4012

> <Gold.Chemscore.Internal_Hbond>
0.0000

> <Gold.Chemscore.DEClash>
0.8101

> <Gold.Chemscore.DEInternal>
2.1996

> <Gold.Chemscore.Rot>
1.4462

> <Gold.Chemscore.Internal.Correction>
   9.000000E+99

> <Gold.Chemscore.Hbonds>
donor molecule, donor type, donor heavy atom, donor atom, acceptor molecule, acceptor atom, score
      L1  H     8    30       P1  8028  1.00
      L1  H    16    49       P1 10175  0.33

> <Gold.Chemscore.Hbond.Weighted>
-6.2958

> <Gold.Chemscore.Metal.Weighted>
-0.0000

> <Gold.Chemscore.Lipo.Weighted>
-12.2149

> <Gold.Chemscore.Internal_Hbond.Weighted>
0.0000

> <Gold.Chemscore.DEClash.Weighted>
0.8101

> <Gold.Chemscore.DEInternal.Weighted>
2.1996

> <Gold.Chemscore.Rot.Weighted>
3.7023

> <Gold.Chemscore.Internal.Correction.Weighted>
   9.000000E+99

> <Gold.Protein.RotatedTorsions>
[ 6907 6896 6895 6894 ] final  -71.89 input  -60.11 | X-H torsion
[ 7974 7965 7964 7962 ] final  140.50 input  175.53 | X-H torsion
[ 8008 7997 7996 7995 ] final   71.68 input   59.86 | X-H torsion
[ 10167 10162 10161 10158 ] final  145.24 input  -65.29 | X-H torsion
[ 10718 10713 10712 10709 ] final -160.22 input   66.30 | X-H torsion
[ 10763 10752 10751 10750 ] final   -2.88 input  -60.55 | X-H torsion
[ 11005 11000 10999 10996 ] final   56.46 input  -57.11 | X-H torsion

> <Gold.Protein.ActiveResidues>
 VAL166  LYS551  ARG553  GLY616  TRP617  ASP618  TYR619  PRO620  LYS621  CYS622 
 ASP623  PHE694  ASN695  SER759  ASP760  ASP761  ALA762  ILE779  LEU786  VAL792 
 PHE793  MET794  SER795  GLU796  ALA797  LYS798  CYS799  TRP800  GLU811  SER814 

> <Gold.Protein.RotatedAtoms>
  150.7193  134.5243  159.5668 H   0  0  0  0  0  0  0  0  0  0  0  0  # atno 6907 bound_to 6896
  152.2791  134.7845  160.0409 H   0  0  0  0  0  0  0  0  0  0  0  0  # atno 6908 bound_to 6896
  151.8498  133.3402  159.3706 H   0  0  0  0  0  0  0  0  0  0  0  0  # atno 6909 bound_to 6896
  144.9181  139.5204  143.5676 H   0  0  0  0  0  0  0  0  0  0  0  0  # atno 7974 bound_to 7965
  155.7576  140.3487  155.5181 H   0  0  0  0  0  0  0  0  0  0  0  0  # atno 8008 bound_to 7997
  155.8945  140.1023  157.1416 H   0  0  0  0  0  0  0  0  0  0  0  0  # atno 8009 bound_to 7997
  154.4037  140.1298  156.4345 H   0  0  0  0  0  0  0  0  0  0  0  0  # atno 8010 bound_to 7997
  139.4930  144.5915  151.6670 H   0  0  0  0  0  0  0  0  0  0  0  0  # atno 10167 bound_to 10162
  156.5790  130.8721  151.2859 H   0  0  0  0  0  0  0  0  0  0  0  0  # atno 10718 bound_to 10713
  153.3639  135.6991  153.6690 H   0  0  0  0  0  0  0  0  0  0  0  0  # atno 10763 bound_to 10752
  153.5367  135.3581  155.2701 H   0  0  0  0  0  0  0  0  0  0  0  0  # atno 10764 bound_to 10752
  154.8672  135.4194  154.2903 H   0  0  0  0  0  0  0  0  0  0  0  0  # atno 10765 bound_to 10752
  140.0527  134.5714  155.9244 H   0  0  0  0  0  0  0  0  0  0  0  0  # atno 11005 bound_to 11000
  146.3191  139.8039  142.8959 LP  0  0  0  0  0  0  0  0  0  0  0  0  # atno 17320 bound_to 7965
  145.3342  141.0273  143.3429 LP  0  0  0  0  0  0  0  0  0  0  0  0  # atno 17321 bound_to 7965
  140.5543  144.0373  150.6141 LP  0  0  0  0  0  0  0  0  0  0  0  0  # atno 17342 bound_to 10162
  140.3438  143.3004  152.0560 LP  0  0  0  0  0  0  0  0  0  0  0  0  # atno 17343 bound_to 10162
  157.7331  130.9725  150.1960 LP  0  0  0  0  0  0  0  0  0  0  0  0  # atno 17370 bound_to 10713
  156.2648  130.3715  149.8093 LP  0  0  0  0  0  0  0  0  0  0  0  0  # atno 17371 bound_to 10713
  141.1938  133.6580  156.5564 LP  0  0  0  0  0  0  0  0  0  0  0  0  # atno 17394 bound_to 11000
  140.3892  134.7455  157.4710 LP  0  0  0  0  0  0  0  0  0  0  0  0  # atno 17395 bound_to 11000

$$$$
