AV-unprocessed.smi:72|AV-procd|sdf|736|dock2
  -GOLD-   2262017 63D 1   1.00000     0.00000
 Structure written by MMmdl.
 28 29  0  0  0  0  0  0  0  0  2 V2000
  148.6140  136.8273  160.8951 N   0  0  0  0  0  0  0  0  0  0  0  0
  148.6683  136.8302  159.6354 C   0  0  0  0  0  0  0  0  0  0  0  0
  147.9669  137.8472  158.8836 N   0  0  0  0  0  0  0  0  0  0  0  0
  148.0762  137.8280  157.5907 C   0  0  0  0  0  0  0  0  0  0  0  0
  148.8939  136.8371  156.8990 N   0  0  0  0  0  0  0  0  0  0  0  0
  149.0226  136.7930  155.3826 C   0  0  1  0  0  0  0  0  0  0  0  0
  148.0131  137.5535  154.7847 O   0  0  0  0  0  0  0  0  0  0  0  0
  148.5229  138.8395  154.4655 C   0  0  2  0  0  0  0  0  0  0  0  0
  147.6118  139.5568  153.4531 C   0  0  0  0  0  0  0  0  0  0  0  0
  147.3939  138.7876  152.2883 O   0  0  0  0  0  0  0  0  0  0  0  0
  149.9706  138.5790  154.0439 C   0  0  1  0  0  0  0  0  0  0  0  0
  150.7729  139.7072  154.3309 O   0  0  0  0  0  0  0  0  0  0  0  0
  150.3739  137.3920  154.9185 C   0  0  2  0  0  0  0  0  0  0  0  0
  151.1194  136.4610  154.1608 O   0  0  0  0  0  0  0  0  0  0  0  0
  149.5271  135.8195  157.6639 C   0  0  0  0  0  0  0  0  0  0  0  0
  150.1619  134.9525  157.0626 O   0  0  0  0  0  0  0  0  0  0  0  0
  149.4046  135.8429  159.0203 N   0  5  0  0  0  0  0  0  0  0  0  0
  148.8821  135.7416  155.1253 H   0  0  0  0  0  0  0  0  0  0  0  0
  148.5217  139.4187  155.3906 H   0  0  0  0  0  0  0  0  0  0  0  0
  150.0387  138.3216  152.9865 H   0  0  0  0  0  0  0  0  0  0  0  0
  150.9572  137.7149  155.7824 H   0  0  0  0  0  0  0  0  0  0  0  0
  149.1392  136.0701  161.3072 H   0  0  0  0  0  0  0  0  0  0  0  0
  147.5615  138.5478  156.9551 H   0  0  0  0  0  0  0  0  0  0  0  0
  146.6539  139.8051  153.9108 H   0  0  0  0  0  0  0  0  0  0  0  0
  148.0729  140.4968  153.1494 H   0  0  0  0  0  0  0  0  0  0  0  0
  147.9914  139.0818  151.6181 H   0  0  0  0  0  0  0  0  0  0  0  0
  151.0069  139.6785  155.2461 H   0  0  0  0  0  0  0  0  0  0  0  0
  150.9110  136.5911  153.2476 H   0  0  0  0  0  0  0  0  0  0  0  0
  1  2  2  0  0  0  0
  1 22  1  0  0  0  0
  2 17  1  0  0  0  0
  2  3  1  0  0  0  0
  3  4  2  0  0  0  0
  4  5  1  0  0  0  0
  4 23  1  0  0  0  0
  5  6  1  0  0  0  0
  5 15  1  0  0  0  0
  6 18  1  0  0  0  0
  6 13  1  0  0  0  0
  6  7  1  0  0  0  0
  7  8  1  0  0  0  0
  8 19  1  0  0  0  0
  8  9  1  0  0  0  0
  8 11  1  0  0  0  0
  9 10  1  0  0  0  0
  9 24  1  0  0  0  0
  9 25  1  0  0  0  0
 10 26  1  0  0  0  0
 11 20  1  0  0  0  0
 11 12  1  0  0  0  0
 11 13  1  0  0  0  0
 12 27  1  0  0  0  0
 13 21  1  0  0  0  0
 13 14  1  0  0  0  0
 14 28  1  0  0  0  0
 15 16  2  0  0  0  0
 15 17  1  0  0  0  0
M  CHG  1  17  -1
M  END
> <s_m_source_file>
AV-unprocessed.smi

> <i_m_source_file_index>
72

> <i_lp_mmshare_version>
43012

> <i_f3d_flags>
0

> <s_epik_input>
W05IMl1jMW5bY0hdbihjKD1PKW4xKVtDQEBIXTJPW0NASF0oW0NIMl1bT0hdKVtDQEBIXShbT0hdKVtDQEhdMltPSF0=

> <s_epik_cmdline>
J2VwaWtfcHl0aG9uJywgJy1waCcsICc3LjAnLCAnLXRuJywgJzgnLCAnLW1hJywgJzIwMCcsICctbWV0YWxfYmluZGluZycsICctaW1hZScsICc8aW5maWxlLm1hZT4nLCAnLW9tYWUnLCAnPG91dGZpbGUubWFlPic=

> <r_lp_tautomer_probability>
7.17554e-07

> <r_epik_Ionization_Penalty>
12.8705

> <r_epik_Ionization_Penalty_Charging>
5.64144

> <r_epik_Ionization_Penalty_Neutral>
7.22905

> <r_epik_State_Penalty>
3.30104

> <r_epik_Charging_Adjusted_Penalty>
8.94249

> <i_epik_Tot_Q>
-1

> <i_epik_Tot_abs_Q>
1

> <r_epik_Metal_State_Penalty>
0.529074

> <b_epik_Metal_Only>
1

> <s_epik_Chemistry_Notes>
This compound contains an acetal/aminal-like group ( X-CH(R)-Y where X, Y are N, S, or O) that may be acid/base labile, releasing an aldehyde.

> <s_lp_Force_Field>
OPLS_2005

> <r_lp_Energy>
32.432

> <b_lp_Chiralities_Consistent>
1

> <s_lp_Variant>
AV-unprocessed.smi:72-74

> <Gold.Version>
5.8.1

> <Gold.Id.Protein>
6NUR|6NUR_protein|mol2

> <Gold.PLP.Fitness>
42.4358

> <Gold.PLP.PLP>
-22.6248

> <Gold.PLP.part.hbond>
-8.7591

> <Gold.PLP.part.metal>
0.0000

> <Gold.PLP.part.buried>
-4.2438

> <Gold.PLP.part.nonpolar>
-10.1779

> <Gold.PLP.part.repulsive>
0.1155

> <Gold.PLP.ligand.clash>
0.0000

> <Gold.PLP.ligand.torsion>
0.5205

> <Gold.PLP.Chemscore.Hbond>
6.9440

> <Gold.PLP.Chemscore.CHOScore>
0.0000

> <Gold.PLP.Chemscore.Metal>
0.0000

> <Gold.Chemscore.Hbonds>
donor molecule, donor type, donor heavy atom, donor atom, acceptor molecule, acceptor atom, score
      L1  H    10    26       P1  7957  1.00
      L1  H    14    28       P1  7949  0.79
      P1  H  6896  6908       L1    17  2.00
      P1  H  6931  6943       L1     1  1.00
      P1  H  7989  7998       L1    12  1.00
      P1  H 10752 10763       L1    14  0.96

> <Gold.PLP.Chemscore.Internal.Correction>
0.0199

> <Gold.Rescore>
     Score         DG    S(hbond)    S(metal)    S(lipo)     H(rot)  DE(clash)    DE(int)     intcor
     13.90     -14.86       5.03        0.00      24.97       4.04       0.32       0.64       ----

> <Gold.Chemscore.Fitness>
13.8952

> <Gold.Chemscore.DG>
-14.8565

> <Gold.Chemscore.ZeroCoef>
-5.4800

> <Gold.Chemscore.Hbond>
5.0295

> <Gold.Chemscore.Metal>
0.0000

> <Gold.Chemscore.Lipo>
24.9668

> <Gold.Chemscore.Internal_Hbond>
0.0000

> <Gold.Chemscore.DEClash>
0.3164

> <Gold.Chemscore.DEInternal>
0.6449

> <Gold.Chemscore.Rot>
4.0403

> <Gold.Chemscore.Internal.Correction>
   9.000000E+99

> <Gold.Chemscore.Hbonds>
donor molecule, donor type, donor heavy atom, donor atom, acceptor molecule, acceptor atom, score
      L1  H    10    26       P1  7957  0.85
      L1  H    14    28       P1  7949  0.13
      P1  H  6896  6908       L1    17  0.40
      P1  H  6931  6943       L1     1  0.42
      P1  H  7989  7998       L1    12  0.85
      P1  H 10752 10763       L1    14  0.83

> <Gold.Chemscore.Hbond.Weighted>
-16.7985

> <Gold.Chemscore.Metal.Weighted>
-0.0000

> <Gold.Chemscore.Lipo.Weighted>
-2.9211

> <Gold.Chemscore.Internal_Hbond.Weighted>
0.0000

> <Gold.Chemscore.DEClash.Weighted>
0.3164

> <Gold.Chemscore.DEInternal.Weighted>
0.6449

> <Gold.Chemscore.Rot.Weighted>
10.3431

> <Gold.Chemscore.Internal.Correction.Weighted>
   9.000000E+99

> <Gold.Protein.RotatedTorsions>
[ 6907 6896 6895 6894 ] final  171.27 input  -60.11 | X-H torsion
[ 7974 7965 7964 7962 ] final  177.44 input  175.53 | X-H torsion
[ 8008 7997 7996 7995 ] final   75.76 input   59.86 | X-H torsion
[ 10167 10162 10161 10158 ] final -163.61 input  -65.29 | X-H torsion
[ 10718 10713 10712 10709 ] final   -5.43 input   66.30 | X-H torsion
[ 10763 10752 10751 10750 ] final   58.88 input  -60.55 | X-H torsion
[ 11005 11000 10999 10996 ] final   88.49 input  -57.11 | X-H torsion

> <Gold.Protein.ActiveResidues>
 VAL166  LYS551  ARG553  GLY616  TRP617  ASP618  TYR619  PRO620  LYS621  CYS622 
 ASP623  PHE694  ASN695  SER759  ASP760  ASP761  ALA762  ILE779  LEU786  VAL792 
 PHE793  MET794  SER795  GLU796  ALA797  LYS798  CYS799  TRP800  GLU811  SER814 

> <Gold.Protein.RotatedAtoms>
  151.8029  133.3372  159.3531 H   0  0  0  0  0  0  0  0  0  0  0  0  # atno 6907 bound_to 6896
  150.7352  134.5737  159.5912 H   0  0  0  0  0  0  0  0  0  0  0  0  # atno 6908 bound_to 6896
  152.3130  134.7475  160.0383 H   0  0  0  0  0  0  0  0  0  0  0  0  # atno 6909 bound_to 6896
  144.7169  140.0248  143.6439 H   0  0  0  0  0  0  0  0  0  0  0  0  # atno 7974 bound_to 7965
  155.8175  140.3471  155.5494 H   0  0  0  0  0  0  0  0  0  0  0  0  # atno 8008 bound_to 7997
  155.8376  140.0936  157.1774 H   0  0  0  0  0  0  0  0  0  0  0  0  # atno 8009 bound_to 7997
  154.4004  140.1400  156.3677 H   0  0  0  0  0  0  0  0  0  0  0  0  # atno 8010 bound_to 7997
  139.6308  144.0443  152.2014 H   0  0  0  0  0  0  0  0  0  0  0  0  # atno 10167 bound_to 10162
  156.7466  130.5226  149.5812 H   0  0  0  0  0  0  0  0  0  0  0  0  # atno 10718 bound_to 10713
  152.9881  135.5591  154.5623 H   0  0  0  0  0  0  0  0  0  0  0  0  # atno 10763 bound_to 10752
  154.5039  135.2799  155.1400 H   0  0  0  0  0  0  0  0  0  0  0  0  # atno 10764 bound_to 10752
  154.2819  135.6343  153.5403 H   0  0  0  0  0  0  0  0  0  0  0  0  # atno 10765 bound_to 10752
  139.8895  134.8491  156.3008 H   0  0  0  0  0  0  0  0  0  0  0  0  # atno 11005 bound_to 11000
  146.0151  139.3203  143.0847 LP  0  0  0  0  0  0  0  0  0  0  0  0  # atno 17320 bound_to 7965
  145.8635  140.9461  143.0687 LP  0  0  0  0  0  0  0  0  0  0  0  0  # atno 17321 bound_to 7965
  140.0108  144.6225  150.7649 LP  0  0  0  0  0  0  0  0  0  0  0  0  # atno 17342 bound_to 10162
  140.7438  143.2851  151.3486 LP  0  0  0  0  0  0  0  0  0  0  0  0  # atno 17343 bound_to 10162
  156.1429  130.6257  151.0491 LP  0  0  0  0  0  0  0  0  0  0  0  0  # atno 17370 bound_to 10713
  157.6795  131.0842  150.7407 LP  0  0  0  0  0  0  0  0  0  0  0  0  # atno 17371 bound_to 10713
  140.9914  133.7206  156.0820 LP  0  0  0  0  0  0  0  0  0  0  0  0  # atno 17394 bound_to 11000
  140.7619  134.3929  157.5524 LP  0  0  0  0  0  0  0  0  0  0  0  0  # atno 17395 bound_to 11000

$$$$
