AV-unprocessed.smi:2390|AV-procd|sdf|9475|dock5
  -GOLD-   2272013103D 1   1.00000     0.00000
 Structure written by MMmdl.
 45 46  0  0  0  0  0  0  0  0  1 V2000
  153.4696  141.6369  160.9119 C   0  0  0  0  0  0  0  0  0  0  0  0
  152.6164  142.7589  160.3587 C   0  0  0  0  0  0  0  0  0  0  0  0
  152.6360  144.0401  160.9440 C   0  0  0  0  0  0  0  0  0  0  0  0
  151.8233  145.0392  160.3794 C   0  0  0  0  0  0  0  0  0  0  0  0
  151.0315  144.7191  159.2598 C   0  0  0  0  0  0  0  0  0  0  0  0
  151.0706  143.4086  158.7326 C   0  0  0  0  0  0  0  0  0  0  0  0
  150.2437  143.1908  157.5988 N   0  0  0  0  0  0  0  0  0  0  0  0
  149.8410  142.0191  157.0760 C   0  0  0  0  0  0  0  0  0  0  0  0
  150.0908  140.9066  157.5413 O   0  0  0  0  0  0  0  0  0  0  0  0
  149.1123  142.2109  155.9665 N   0  0  0  0  0  0  0  0  0  0  0  0
  148.5160  141.1561  155.1474 C   0  0  2  0  0  0  0  0  0  0  0  0
  149.6413  140.2705  154.5839 C   0  0  0  0  0  0  0  0  0  0  0  0
  147.5714  141.7370  154.0447 C   0  0  1  0  0  0  0  0  0  0  0  0
  146.8919  140.5796  153.2662 C   0  0  0  0  0  0  0  0  0  0  0  0
  146.6041  142.7403  154.5508 N   0  0  0  0  0  0  0  0  0  0  0  0
  145.8687  143.4166  153.4759 C   0  0  0  0  0  0  0  0  0  0  0  0
  144.8506  144.4423  154.0041 C   0  0  0  0  0  0  0  0  0  0  0  0
  143.9446  143.8071  154.8958 O   0  0  0  0  0  0  0  0  0  0  0  0
  144.6126  143.2030  155.9946 C   0  0  0  0  0  0  0  0  0  0  0  0
  145.6226  142.1646  155.4768 C   0  0  0  0  0  0  0  0  0  0  0  0
  151.8572  142.4516  159.2849 N   0  0  0  0  0  0  0  0  0  0  0  0
  153.8780  141.8962  161.8890 H   0  0  0  0  0  0  0  0  0  0  0  0
  154.3010  141.4285  160.2382 H   0  0  0  0  0  0  0  0  0  0  0  0
  152.8799  140.7262  161.0224 H   0  0  0  0  0  0  0  0  0  0  0  0
  153.2567  144.2545  161.8017 H   0  0  0  0  0  0  0  0  0  0  0  0
  151.8078  146.0353  160.7965 H   0  0  0  0  0  0  0  0  0  0  0  0
  150.4028  145.4758  158.8129 H   0  0  0  0  0  0  0  0  0  0  0  0
  149.9366  144.0242  157.1197 H   0  0  0  0  0  0  0  0  0  0  0  0
  148.9557  143.1601  155.6611 H   0  0  0  0  0  0  0  0  0  0  0  0
  147.9414  140.5417  155.8395 H   0  0  0  0  0  0  0  0  0  0  0  0
  149.2401  139.4400  154.0029 H   0  0  0  0  0  0  0  0  0  0  0  0
  150.2389  139.8419  155.3889 H   0  0  0  0  0  0  0  0  0  0  0  0
  150.3166  140.8332  153.9390 H   0  0  0  0  0  0  0  0  0  0  0  0
  148.2153  142.2457  153.3254 H   0  0  0  0  0  0  0  0  0  0  0  0
  147.5941  139.7982  152.9785 H   0  0  0  0  0  0  0  0  0  0  0  0
  146.4498  140.9240  152.3320 H   0  0  0  0  0  0  0  0  0  0  0  0
  146.1032  140.1109  153.8549 H   0  0  0  0  0  0  0  0  0  0  0  0
  146.5495  143.9579  152.8222 H   0  0  0  0  0  0  0  0  0  0  0  0
  145.3539  142.6789  152.8583 H   0  0  0  0  0  0  0  0  0  0  0  0
  145.3589  145.2630  154.5126 H   0  0  0  0  0  0  0  0  0  0  0  0
  144.2886  144.8773  153.1774 H   0  0  0  0  0  0  0  0  0  0  0  0
  145.1140  143.9667  156.5915 H   0  0  0  0  0  0  0  0  0  0  0  0
  143.8753  142.7257  156.6401 H   0  0  0  0  0  0  0  0  0  0  0  0
  145.0858  141.3504  154.9876 H   0  0  0  0  0  0  0  0  0  0  0  0
  146.1194  141.7397  156.3474 H   0  0  0  0  0  0  0  0  0  0  0  0
  1  2  1  0  0  0  0
  1 22  1  0  0  0  0
  1 23  1  0  0  0  0
  1 24  1  0  0  0  0
  2 21  1  0  0  0  0
  2  3  2  0  0  0  0
  3  4  1  0  0  0  0
  3 25  1  0  0  0  0
  4  5  2  0  0  0  0
  4 26  1  0  0  0  0
  5  6  1  0  0  0  0
  5 27  1  0  0  0  0
  6  7  1  0  0  0  0
  6 21  2  0  0  0  0
  7  8  1  0  0  0  0
  7 28  1  0  0  0  0
  8  9  2  0  0  0  0
  8 10  1  0  0  0  0
 10 11  1  0  0  0  0
 10 29  1  0  0  0  0
 11 12  1  0  0  0  0
 11 13  1  0  0  0  0
 11 30  1  0  0  0  0
 12 31  1  0  0  0  0
 12 32  1  0  0  0  0
 12 33  1  0  0  0  0
 13 14  1  0  0  0  0
 13 15  1  0  0  0  0
 13 34  1  0  0  0  0
 14 35  1  0  0  0  0
 14 36  1  0  0  0  0
 14 37  1  0  0  0  0
 15 20  1  0  0  0  0
 15 16  1  0  0  0  0
 16 17  1  0  0  0  0
 16 38  1  0  0  0  0
 16 39  1  0  0  0  0
 17 18  1  0  0  0  0
 17 40  1  0  0  0  0
 17 41  1  0  0  0  0
 18 19  1  0  0  0  0
 19 20  1  0  0  0  0
 19 42  1  0  0  0  0
 19 43  1  0  0  0  0
 20 44  1  0  0  0  0
 20 45  1  0  0  0  0
M  END
> <s_m_source_file>
AV-unprocessed.smi

> <i_m_source_file_index>
2390

> <i_lp_mmshare_version>
43012

> <i_f3d_flags>
0

> <s_epik_input>
W0NIM11jMVtjSF1bY0hdW2NIXWMobjEpW05IXUMoPU8pW05IXVtDQEhdKFtDSDNdKVtDQEhdKFtDSDNdKU4yW0NIMl1bQ0gyXU9bQ0gyXVtDSDJdMg==

> <s_epik_cmdline>
J2VwaWtfcHl0aG9uJywgJy1waCcsICc3LjAnLCAnLXRuJywgJzgnLCAnLW1hJywgJzIwMCcsICctbWV0YWxfYmluZGluZycsICctaW1hZScsICc8aW5maWxlLm1hZT4nLCAnLW9tYWUnLCAnPG91dGZpbGUubWFlPic=

> <r_epik_Ionization_Penalty>
0.266074

> <r_epik_Ionization_Penalty_Charging>
0

> <r_epik_Ionization_Penalty_Neutral>
0.266074

> <r_epik_State_Penalty>
0.257924

> <r_epik_Charging_Adjusted_Penalty>
0.257924

> <i_epik_Tot_Q>
0

> <i_epik_Tot_abs_Q>
0

> <r_epik_Metal_State_Penalty>
0.257919

> <b_epik_Metal_Only>
0

> <s_lp_Force_Field>
OPLS_2005

> <r_lp_Energy>
33.31

> <b_lp_Chiralities_Consistent>
1

> <s_lp_Variant>
AV-unprocessed.smi:2390-3

> <Gold.Version>
5.8.1

> <Gold.Id.Protein>
6NUR|6NUR_protein|mol2

> <Gold.PLP.Fitness>
49.5687

> <Gold.PLP.PLP>
-43.9877

> <Gold.PLP.part.hbond>
-2.0000

> <Gold.PLP.part.metal>
0.0000

> <Gold.PLP.part.buried>
-7.7568

> <Gold.PLP.part.nonpolar>
-35.3192

> <Gold.PLP.part.repulsive>
0.4929

> <Gold.PLP.ligand.clash>
0.0000

> <Gold.PLP.ligand.torsion>
0.1779

> <Gold.PLP.Chemscore.Hbond>
1.9440

> <Gold.PLP.Chemscore.CHOScore>
0.0000

> <Gold.PLP.Chemscore.Metal>
0.0000

> <Gold.Chemscore.Hbonds>
donor molecule, donor type, donor heavy atom, donor atom, acceptor molecule, acceptor atom, score
      L1  H     7    28       P1  8028  0.94
      L1  H    10    29       P1  8028  1.00

> <Gold.PLP.Chemscore.Internal.Correction>
0.1048

> <Gold.Rescore>
     Score         DG    S(hbond)    S(metal)    S(lipo)     H(rot)  DE(clash)    DE(int)     intcor
     18.94     -20.53       1.87        0.00     106.81       1.44       0.15       1.44       ----

> <Gold.Chemscore.Fitness>
18.9363

> <Gold.Chemscore.DG>
-20.5311

> <Gold.Chemscore.ZeroCoef>
-5.4800

> <Gold.Chemscore.Hbond>
1.8682

> <Gold.Chemscore.Metal>
0.0000

> <Gold.Chemscore.Lipo>
106.8100

> <Gold.Chemscore.Internal_Hbond>
0.0000

> <Gold.Chemscore.DEClash>
0.1541

> <Gold.Chemscore.DEInternal>
1.4407

> <Gold.Chemscore.Rot>
1.4396

> <Gold.Chemscore.Internal.Correction>
   9.000000E+99

> <Gold.Chemscore.Hbonds>
donor molecule, donor type, donor heavy atom, donor atom, acceptor molecule, acceptor atom, score
      L1  H     7    28       P1  8028  0.77
      L1  H    10    29       P1  8028  0.96

> <Gold.Chemscore.Hbond.Weighted>
-6.2398

> <Gold.Chemscore.Metal.Weighted>
-0.0000

> <Gold.Chemscore.Lipo.Weighted>
-12.4968

> <Gold.Chemscore.Internal_Hbond.Weighted>
0.0000

> <Gold.Chemscore.DEClash.Weighted>
0.1541

> <Gold.Chemscore.DEInternal.Weighted>
1.4407

> <Gold.Chemscore.Rot.Weighted>
3.6855

> <Gold.Chemscore.Internal.Correction.Weighted>
   9.000000E+99

> <Gold.Protein.RotatedTorsions>
[ 6907 6896 6895 6894 ] final -176.00 input  -60.11 | X-H torsion
[ 7974 7965 7964 7962 ] final   27.73 input  175.53 | X-H torsion
[ 8008 7997 7996 7995 ] final   75.56 input   59.86 | X-H torsion
[ 10167 10162 10161 10158 ] final  127.84 input  -65.29 | X-H torsion
[ 10718 10713 10712 10709 ] final   14.77 input   66.30 | X-H torsion
[ 10763 10752 10751 10750 ] final -140.16 input  -60.55 | X-H torsion
[ 11005 11000 10999 10996 ] final  -18.10 input  -57.11 | X-H torsion

> <Gold.Protein.ActiveResidues>
 VAL166  LYS551  ARG553  GLY616  TRP617  ASP618  TYR619  PRO620  LYS621  CYS622 
 ASP623  PHE694  ASN695  SER759  ASP760  ASP761  ALA762  ILE779  LEU786  VAL792 
 PHE793  MET794  SER795  GLU796  ALA797  LYS798  CYS799  TRP800  GLU811  SER814 

> <Gold.Protein.RotatedAtoms>
  151.5977  133.3359  159.3040 H   0  0  0  0  0  0  0  0  0  0  0  0  # atno 6907 bound_to 6896
  150.8225  134.7443  159.6796 H   0  0  0  0  0  0  0  0  0  0  0  0  # atno 6908 bound_to 6896
  152.4317  134.5770  159.9989 H   0  0  0  0  0  0  0  0  0  0  0  0  # atno 6909 bound_to 6896
  146.1768  139.7152  142.8928 H   0  0  0  0  0  0  0  0  0  0  0  0  # atno 7974 bound_to 7965
  155.8147  140.3472  155.5479 H   0  0  0  0  0  0  0  0  0  0  0  0  # atno 8008 bound_to 7997
  155.8404  140.0940  157.1758 H   0  0  0  0  0  0  0  0  0  0  0  0  # atno 8009 bound_to 7997
  154.4005  140.1395  156.3709 H   0  0  0  0  0  0  0  0  0  0  0  0  # atno 8010 bound_to 7997
  139.5557  144.6847  151.4189 H   0  0  0  0  0  0  0  0  0  0  0  0  # atno 10167 bound_to 10162
  157.0438  130.6242  149.5755 H   0  0  0  0  0  0  0  0  0  0  0  0  # atno 10718 bound_to 10713
  154.8587  135.3561  154.5663 H   0  0  0  0  0  0  0  0  0  0  0  0  # atno 10763 bound_to 10752
  153.6277  135.7003  153.5292 H   0  0  0  0  0  0  0  0  0  0  0  0  # atno 10764 bound_to 10752
  153.3076  135.4188  155.1267 H   0  0  0  0  0  0  0  0  0  0  0  0  # atno 10765 bound_to 10752
  140.8234  133.8051  155.9683 H   0  0  0  0  0  0  0  0  0  0  0  0  # atno 11005 bound_to 11000
  145.4188  141.0404  143.2975 LP  0  0  0  0  0  0  0  0  0  0  0  0  # atno 17320 bound_to 7965
  144.8249  139.5726  143.6970 LP  0  0  0  0  0  0  0  0  0  0  0  0  # atno 17321 bound_to 7965
  140.6830  143.8039  150.7147 LP  0  0  0  0  0  0  0  0  0  0  0  0  # atno 17342 bound_to 10162
  140.1498  143.4367  152.2139 LP  0  0  0  0  0  0  0  0  0  0  0  0  # atno 17343 bound_to 10162
  156.0029  130.5111  150.7728 LP  0  0  0  0  0  0  0  0  0  0  0  0  # atno 17370 bound_to 10713
  157.5083  131.0923  151.0229 LP  0  0  0  0  0  0  0  0  0  0  0  0  # atno 17371 bound_to 10713
  140.9075  134.2302  157.5006 LP  0  0  0  0  0  0  0  0  0  0  0  0  # atno 17394 bound_to 11000
  139.8707  134.9735  156.4810 LP  0  0  0  0  0  0  0  0  0  0  0  0  # atno 17395 bound_to 11000

$$$$
