AV-unprocessed.smi:107|AV-procd|sdf|1021|dock4
  -GOLD-   2262018 23D 1   1.00000     0.00000
 Structure written by MMmdl.
 30 31  0  0  0  0  0  0  0  0  2 V2000
  148.9837  135.7335  156.8222 C   0  0  0  0  0  0  0  0  0  0  0  0
  150.3155  136.4500  156.6809 C   0  0  0  0  0  0  0  0  0  0  0  0
  150.4032  137.7947  156.5738 C   0  0  0  0  0  0  0  0  0  0  0  0
  151.6203  138.4449  156.4474 N   0  0  0  0  0  0  0  0  0  0  0  0
  151.7137  139.9545  156.3204 C   0  0  2  0  0  0  0  0  0  0  0  0
  151.0650  140.6484  157.5332 C   0  0  0  0  0  0  0  0  0  0  0  0
  150.0511  141.5864  156.9004 C   0  0  1  0  0  0  0  0  0  0  0  0
  150.6055  142.8773  156.7221 O   0  0  0  0  0  0  0  0  0  0  0  0
  149.7468  140.9026  155.5632 C   0  0  1  0  0  0  0  0  0  0  0  0
  149.1678  141.8133  154.4668 C   0  0  0  0  0  0  0  0  0  0  0  0
  149.5172  141.3193  153.1913 O   0  0  0  0  0  0  0  0  0  0  0  0
  151.0177  140.3841  155.1858 O   0  0  0  0  0  0  0  0  0  0  0  0
  152.8175  137.6824  156.4040 C   0  0  0  0  0  0  0  0  0  0  0  0
  153.8823  138.2860  156.2694 O   0  0  0  0  0  0  0  0  0  0  0  0
  152.7387  136.3257  156.5139 N   0  5  0  0  0  0  0  0  0  0  0  0
  151.5548  135.6641  156.6570 C   0  0  0  0  0  0  0  0  0  0  0  0
  151.4989  134.4392  156.7641 O   0  0  0  0  0  0  0  0  0  0  0  0
  148.1501  136.4359  156.7959 H   0  0  0  0  0  0  0  0  0  0  0  0
  148.9411  135.1937  157.7685 H   0  0  0  0  0  0  0  0  0  0  0  0
  148.8475  135.0179  156.0108 H   0  0  0  0  0  0  0  0  0  0  0  0
  149.4868  138.3639  156.5869 H   0  0  0  0  0  0  0  0  0  0  0  0
  152.7761  140.1714  156.1974 H   0  0  0  0  0  0  0  0  0  0  0  0
  150.5555  139.9103  158.1549 H   0  0  0  0  0  0  0  0  0  0  0  0
  151.8149  141.1550  158.1422 H   0  0  0  0  0  0  0  0  0  0  0  0
  149.1546  141.6827  157.5138 H   0  0  0  0  0  0  0  0  0  0  0  0
  149.9526  143.4337  156.3261 H   0  0  0  0  0  0  0  0  0  0  0  0
  149.0649  140.0728  155.7585 H   0  0  0  0  0  0  0  0  0  0  0  0
  148.0791  141.8242  154.5241 H   0  0  0  0  0  0  0  0  0  0  0  0
  149.5115  142.8419  154.5810 H   0  0  0  0  0  0  0  0  0  0  0  0
  150.1065  140.5892  153.3028 H   0  0  0  0  0  0  0  0  0  0  0  0
  1  2  1  0  0  0  0
  1 18  1  0  0  0  0
  1 19  1  0  0  0  0
  1 20  1  0  0  0  0
  2 16  1  0  0  0  0
  2  3  2  0  0  0  0
  3  4  1  0  0  0  0
  3 21  1  0  0  0  0
  4  5  1  0  0  0  0
  4 13  1  0  0  0  0
  5 12  1  0  0  0  0
  5  6  1  0  0  0  0
  5 22  1  0  0  0  0
  6  7  1  0  0  0  0
  6 23  1  0  0  0  0
  6 24  1  0  0  0  0
  7  8  1  0  0  0  0
  7  9  1  0  0  0  0
  7 25  1  0  0  0  0
  8 26  1  0  0  0  0
  9 10  1  0  0  0  0
  9 12  1  0  0  0  0
  9 27  1  0  0  0  0
 10 11  1  0  0  0  0
 10 28  1  0  0  0  0
 10 29  1  0  0  0  0
 11 30  1  0  0  0  0
 13 14  2  0  0  0  0
 13 15  1  0  0  0  0
 15 16  1  0  0  0  0
 16 17  2  0  0  0  0
M  CHG  1  15  -1
M  END
> <s_m_source_file>
AV-unprocessed.smi

> <i_m_source_file_index>
107

> <i_lp_mmshare_version>
43012

> <i_f3d_flags>
0

> <s_epik_input>
Tz1jMVtuSF1jKD1PKW4oW2NIXWMxW0NIM10pW0NAQEhdMltDSDJdW0NAQEhdKFtPSF0pW0NASF0oTzIpW0NIMl1bT0hd

> <s_epik_cmdline>
J2VwaWtfcHl0aG9uJywgJy1waCcsICc3LjAnLCAnLXRuJywgJzgnLCAnLW1hJywgJzIwMCcsICctbWV0YWxfYmluZGluZycsICctaW1hZScsICc8aW5maWxlLm1hZT4nLCAnLW9tYWUnLCAnPG91dGZpbGUubWFlPic=

> <r_lp_tautomer_probability>
0.999537

> <r_epik_Ionization_Penalty>
3.66603

> <r_epik_Ionization_Penalty_Charging>
1.09773e-07

> <r_epik_Ionization_Penalty_Neutral>
3.66603

> <r_epik_State_Penalty>
3.66562

> <r_epik_Charging_Adjusted_Penalty>
3.66562

> <i_epik_Tot_Q>
-1

> <i_epik_Tot_abs_Q>
1

> <r_epik_Metal_State_Penalty>
0.234536

> <b_epik_Metal_Only>
1

> <s_epik_Chemistry_Notes>
This compound contains an acetal/aminal-like group ( X-CH(R)-Y where X, Y are N, S, or O) that may be acid/base labile, releasing an aldehyde.

> <s_lp_Force_Field>
OPLS_2005

> <r_lp_Energy>
39.3758

> <b_lp_Chiralities_Consistent>
1

> <s_lp_Variant>
AV-unprocessed.smi:107-9

> <Gold.Version>
5.8.1

> <Gold.Id.Protein>
6NUR|6NUR_protein|mol2

> <Gold.PLP.Fitness>
40.8907

> <Gold.PLP.PLP>
-25.0933

> <Gold.PLP.part.hbond>
-7.3571

> <Gold.PLP.part.metal>
0.0000

> <Gold.PLP.part.buried>
-2.9350

> <Gold.PLP.part.nonpolar>
-14.4845

> <Gold.PLP.part.repulsive>
0.0468

> <Gold.PLP.ligand.clash>
0.0000

> <Gold.PLP.ligand.torsion>
0.3114

> <Gold.PLP.Chemscore.Hbond>
5.4702

> <Gold.PLP.Chemscore.CHOScore>
0.0000

> <Gold.PLP.Chemscore.Metal>
0.0000

> <Gold.Chemscore.Hbonds>
donor molecule, donor type, donor heavy atom, donor atom, acceptor molecule, acceptor atom, score
      L1  H     8    26       P1  8028  1.00
      P1  H  7989  7998       L1    12  1.00
      P1  H  7997  8008       L1    14  0.56
      P1  H  8011  8017       L1    11  0.71
      P1  H 10752 10765       L1    15  2.00

> <Gold.PLP.Chemscore.Internal.Correction>
0.0095

> <Gold.Rescore>
     Score         DG    S(hbond)    S(metal)    S(lipo)     H(rot)  DE(clash)    DE(int)     intcor
     15.27     -15.77       4.04        0.00      31.58       2.69       0.01       0.49       ----

> <Gold.Chemscore.Fitness>
15.2708

> <Gold.Chemscore.DG>
-15.7732

> <Gold.Chemscore.ZeroCoef>
-5.4800

> <Gold.Chemscore.Hbond>
4.0351

> <Gold.Chemscore.Metal>
0.0000

> <Gold.Chemscore.Lipo>
31.5811

> <Gold.Chemscore.Internal_Hbond>
0.0000

> <Gold.Chemscore.DEClash>
0.0077

> <Gold.Chemscore.DEInternal>
0.4947

> <Gold.Chemscore.Rot>
2.6871

> <Gold.Chemscore.Internal.Correction>
   9.000000E+99

> <Gold.Chemscore.Hbonds>
donor molecule, donor type, donor heavy atom, donor atom, acceptor molecule, acceptor atom, score
      L1  H     8    26       P1  8028  1.00
      P1  H  7989  7998       L1    12  0.89
      P1  H  7997  8008       L1    14  0.56
      P1  H  8011  8017       L1    11  0.48
      P1  H 10752 10765       L1    15  0.37

> <Gold.Chemscore.Hbond.Weighted>
-13.4773

> <Gold.Chemscore.Metal.Weighted>
-0.0000

> <Gold.Chemscore.Lipo.Weighted>
-3.6950

> <Gold.Chemscore.Internal_Hbond.Weighted>
0.0000

> <Gold.Chemscore.DEClash.Weighted>
0.0077

> <Gold.Chemscore.DEInternal.Weighted>
0.4947

> <Gold.Chemscore.Rot.Weighted>
6.8791

> <Gold.Chemscore.Internal.Correction.Weighted>
   9.000000E+99

> <Gold.Protein.RotatedTorsions>
[ 6907 6896 6895 6894 ] final  -19.63 input  -60.11 | X-H torsion
[ 7974 7965 7964 7962 ] final  152.23 input  175.53 | X-H torsion
[ 8008 7997 7996 7995 ] final  -57.87 input   59.86 | X-H torsion
[ 10167 10162 10161 10158 ] final  169.92 input  -65.29 | X-H torsion
[ 10718 10713 10712 10709 ] final   12.15 input   66.30 | X-H torsion
[ 10763 10752 10751 10750 ] final -120.75 input  -60.55 | X-H torsion
[ 11005 11000 10999 10996 ] final   32.11 input  -57.11 | X-H torsion

> <Gold.Protein.ActiveResidues>
 VAL166  LYS551  ARG553  GLY616  TRP617  ASP618  TYR619  PRO620  LYS621  CYS622 
 ASP623  PHE694  ASN695  SER759  ASP760  ASP761  ALA762  ILE779  LEU786  VAL792 
 PHE793  MET794  SER795  GLU796  ALA797  LYS798  CYS799  TRP800  GLU811  SER814 

> <Gold.Protein.RotatedAtoms>
  151.2602  135.0651  159.9094 H   0  0  0  0  0  0  0  0  0  0  0  0  # atno 6907 bound_to 6896
  152.5367  134.0239  159.8004 H   0  0  0  0  0  0  0  0  0  0  0  0  # atno 6908 bound_to 6896
  151.0461  133.5614  159.2677 H   0  0  0  0  0  0  0  0  0  0  0  0  # atno 6909 bound_to 6896
  144.8237  139.6641  143.6089 H   0  0  0  0  0  0  0  0  0  0  0  0  # atno 7974 bound_to 7965
  154.4285  140.1097  156.5867 H   0  0  0  0  0  0  0  0  0  0  0  0  # atno 8008 bound_to 7997
  155.6055  140.3493  155.4588 H   0  0  0  0  0  0  0  0  0  0  0  0  # atno 8009 bound_to 7997
  156.0140  140.1225  157.0415 H   0  0  0  0  0  0  0  0  0  0  0  0  # atno 8010 bound_to 7997
  139.5005  144.3653  151.9782 H   0  0  0  0  0  0  0  0  0  0  0  0  # atno 10167 bound_to 10162
  157.0059  130.6098  149.5702 H   0  0  0  0  0  0  0  0  0  0  0  0  # atno 10718 bound_to 10713
  154.8652  135.4192  154.2509 H   0  0  0  0  0  0  0  0  0  0  0  0  # atno 10763 bound_to 10752
  153.3456  135.6996  153.6836 H   0  0  0  0  0  0  0  0  0  0  0  0  # atno 10764 bound_to 10752
  153.5797  135.3575  155.2843 H   0  0  0  0  0  0  0  0  0  0  0  0  # atno 10765 bound_to 10752
  140.2769  134.3017  155.7811 H   0  0  0  0  0  0  0  0  0  0  0  0  # atno 11005 bound_to 11000
  146.2542  139.6267  142.9406 LP  0  0  0  0  0  0  0  0  0  0  0  0  # atno 17320 bound_to 7965
  145.5048  141.0437  143.2520 LP  0  0  0  0  0  0  0  0  0  0  0  0  # atno 17321 bound_to 7965
  140.3089  144.3561  150.6039 LP  0  0  0  0  0  0  0  0  0  0  0  0  # atno 17342 bound_to 10162
  140.5814  143.2172  151.7421 LP  0  0  0  0  0  0  0  0  0  0  0  0  # atno 17343 bound_to 10162
  156.0154  130.5247  150.8117 LP  0  0  0  0  0  0  0  0  0  0  0  0  # atno 17370 bound_to 10713
  157.5356  131.0938  150.9897 LP  0  0  0  0  0  0  0  0  0  0  0  0  # atno 17371 bound_to 10713
  141.2169  133.7501  156.9421 LP  0  0  0  0  0  0  0  0  0  0  0  0  # atno 17394 bound_to 11000
  140.1320  134.9350  157.2350 LP  0  0  0  0  0  0  0  0  0  0  0  0  # atno 17395 bound_to 11000

$$$$
