AV-unprocessed.smi:121|AV-procd|sdf|1140|dock9
  -GOLD-   2262018273D 1   1.00000     0.00000
 Structure written by MMmdl.
 37 39  0  0  0  0  0  0  0  0  1 V2000
  155.5869  138.5387  153.8981 N   0  0  0  0  0  0  0  0  0  0  0  0
  154.5262  138.4776  154.3561 C   0  0  0  0  0  0  0  0  0  0  0  0
  153.1938  138.4012  154.9315 C   0  0  0  0  0  0  0  0  0  0  0  0
  152.0836  138.1245  154.1084 C   0  0  0  0  0  0  0  0  0  0  0  0
  150.7936  138.0555  154.6681 C   0  0  0  0  0  0  0  0  0  0  0  0
  150.6119  138.2601  156.0492 C   0  0  0  0  0  0  0  0  0  0  0  0
  151.7179  138.5296  156.8824 C   0  0  0  0  0  0  0  0  0  0  0  0
  151.4909  138.7450  158.3749 C   0  0  0  0  0  0  0  0  0  0  0  0
  152.0861  139.9501  158.9324 N   0  0  0  0  0  0  0  0  0  0  0  0
  153.0588  139.7760  159.9472 C   0  0  0  0  0  0  0  0  0  0  0  0
  153.3889  138.6590  160.3504 O   0  0  0  0  0  0  0  0  0  0  0  0
  153.6304  141.0162  160.4593 C   0  0  0  0  0  0  0  0  0  0  0  0
  154.5463  140.9704  161.4415 F   0  0  0  0  0  0  0  0  0  0  0  0
  153.2518  142.2141  159.9644 C   0  0  0  0  0  0  0  0  0  0  0  0
  152.3169  142.3528  158.9527 N   0  0  0  0  0  0  0  0  0  0  0  0
  151.9308  143.7190  158.4326 C   0  0  1  0  0  0  0  0  0  0  0  0
  150.4464  143.9904  158.7034 C   0  0  0  0  0  0  0  0  0  0  0  0
  150.5012  144.8133  159.9726 C   0  0  0  0  0  0  0  0  0  0  0  0
  151.7956  145.5931  159.7766 C   0  0  0  0  0  0  0  0  0  0  0  0
  152.6739  144.6891  159.1134 O   0  0  0  0  0  0  0  0  0  0  0  0
  151.6935  141.2070  158.4110 C   0  0  0  0  0  0  0  0  0  0  0  0
  150.8495  141.3098  157.5178 O   0  0  0  0  0  0  0  0  0  0  0  0
  153.0101  138.6050  156.3146 C   0  0  0  0  0  0  0  0  0  0  0  0
  152.2140  137.9659  153.0474 H   0  0  0  0  0  0  0  0  0  0  0  0
  149.9423  137.8448  154.0377 H   0  0  0  0  0  0  0  0  0  0  0  0
  149.6179  138.2043  156.4685 H   0  0  0  0  0  0  0  0  0  0  0  0
  150.4220  138.7460  158.5889 H   0  0  0  0  0  0  0  0  0  0  0  0
  151.8859  137.9082  158.9546 H   0  0  0  0  0  0  0  0  0  0  0  0
  153.7060  143.0981  160.3871 H   0  0  0  0  0  0  0  0  0  0  0  0
  152.1964  143.7390  157.3748 H   0  0  0  0  0  0  0  0  0  0  0  0
  150.0458  144.5844  157.8812 H   0  0  0  0  0  0  0  0  0  0  0  0
  149.8644  143.0720  158.7928 H   0  0  0  0  0  0  0  0  0  0  0  0
  149.6313  145.4577  160.1035 H   0  0  0  0  0  0  0  0  0  0  0  0
  150.5787  144.1613  160.8436 H   0  0  0  0  0  0  0  0  0  0  0  0
  151.6259  146.4557  159.1308 H   0  0  0  0  0  0  0  0  0  0  0  0
  152.2205  145.9482  160.7156 H   0  0  0  0  0  0  0  0  0  0  0  0
  153.8656  138.8210  156.9378 H   0  0  0  0  0  0  0  0  0  0  0  0
  1  2  3  0  0  0  0
  2  3  1  0  0  0  0
  3 23  1  0  0  0  0
  3  4  2  0  0  0  0
  4  5  1  0  0  0  0
  4 24  1  0  0  0  0
  5  6  2  0  0  0  0
  5 25  1  0  0  0  0
  6  7  1  0  0  0  0
  6 26  1  0  0  0  0
  7  8  1  0  0  0  0
  7 23  2  0  0  0  0
  8  9  1  0  0  0  0
  8 27  1  0  0  0  0
  8 28  1  0  0  0  0
  9 21  1  0  0  0  0
  9 10  1  0  0  0  0
 10 11  2  0  0  0  0
 10 12  1  0  0  0  0
 12 13  1  0  0  0  0
 12 14  2  0  0  0  0
 14 15  1  0  0  0  0
 14 29  1  0  0  0  0
 15 16  1  0  0  0  0
 15 21  1  0  0  0  0
 16 20  1  0  0  0  0
 16 17  1  0  0  0  0
 16 30  1  0  0  0  0
 17 18  1  0  0  0  0
 17 31  1  0  0  0  0
 17 32  1  0  0  0  0
 18 19  1  0  0  0  0
 18 33  1  0  0  0  0
 18 34  1  0  0  0  0
 19 20  1  0  0  0  0
 19 35  1  0  0  0  0
 19 36  1  0  0  0  0
 21 22  2  0  0  0  0
 23 37  1  0  0  0  0
M  END
> <s_m_source_file>
AV-unprocessed.smi

> <i_m_source_file_index>
121

> <i_lp_mmshare_version>
43012

> <i_f3d_flags>
0

> <s_epik_input>
TiNDYzFbY0hdW2NIXVtjSF1jKFtjSF0xKVtDSDJdbjJjKD1PKWMoRilbY0hdbihjMj1PKVtDQEBIXTNbQ0gyXVtDSDJdW0NIMl1PMw==

> <s_epik_cmdline>
J2VwaWtfcHl0aG9uJywgJy1waCcsICc3LjAnLCAnLXRuJywgJzgnLCAnLW1hJywgJzIwMCcsICctbWV0YWxfYmluZGluZycsICctaW1hZScsICc8aW5maWxlLm1hZT4nLCAnLW9tYWUnLCAnPG91dGZpbGUubWFlPic=

> <r_lp_tautomer_probability>
1

> <r_epik_Ionization_Penalty>
1.69864e-08

> <r_epik_Ionization_Penalty_Charging>
1.69802e-08

> <r_epik_Ionization_Penalty_Neutral>
6.20402e-12

> <r_epik_State_Penalty>
-0

> <r_epik_Charging_Adjusted_Penalty>
1.69802e-08

> <i_epik_Tot_Q>
0

> <i_epik_Tot_abs_Q>
0

> <r_epik_Metal_State_Penalty>
-0

> <b_epik_Metal_Only>
0

> <s_epik_Chemistry_Notes>
This compound contains an acetal/aminal-like group ( X-CH(R)-Y where X, Y are N, S, or O) that may be acid/base labile, releasing an aldehyde.

> <s_lp_Force_Field>
OPLS_2005

> <r_lp_Energy>
33.8546

> <b_lp_Chiralities_Consistent>
1

> <s_lp_Variant>
AV-unprocessed.smi:121-2

> <Gold.Version>
5.8.1

> <Gold.Id.Protein>
6NUR|6NUR_protein|mol2

> <Gold.PLP.Fitness>
41.8098

> <Gold.PLP.PLP>
-41.9772

> <Gold.PLP.part.hbond>
-0.6129

> <Gold.PLP.part.metal>
0.0000

> <Gold.PLP.part.buried>
-0.0337

> <Gold.PLP.part.nonpolar>
-41.8975

> <Gold.PLP.part.repulsive>
0.0316

> <Gold.PLP.ligand.clash>
0.0000

> <Gold.PLP.ligand.torsion>
0.0885

> <Gold.PLP.Chemscore.Hbond>
0.0000

> <Gold.PLP.Chemscore.CHOScore>
0.0000

> <Gold.PLP.Chemscore.Metal>
0.0000

> <Gold.PLP.Chemscore.Internal.Correction>
0.0095

> <Gold.Rescore>
     Score         DG    S(hbond)    S(metal)    S(lipo)     H(rot)  DE(clash)    DE(int)     intcor
      9.33     -12.61       0.00        0.00      95.73       1.59       1.08       2.21       ----

> <Gold.Chemscore.Fitness>
9.3282

> <Gold.Chemscore.DG>
-12.6149

> <Gold.Chemscore.ZeroCoef>
-5.4800

> <Gold.Chemscore.Hbond>
0.0000

> <Gold.Chemscore.Metal>
0.0000

> <Gold.Chemscore.Lipo>
95.7318

> <Gold.Chemscore.Internal_Hbond>
0.0000

> <Gold.Chemscore.DEClash>
1.0757

> <Gold.Chemscore.DEInternal>
2.2110

> <Gold.Chemscore.Rot>
1.5882

> <Gold.Chemscore.Internal.Correction>
   9.000000E+99

> <Gold.Chemscore.Hbond.Weighted>
-0.0000

> <Gold.Chemscore.Metal.Weighted>
-0.0000

> <Gold.Chemscore.Lipo.Weighted>
-11.2006

> <Gold.Chemscore.Internal_Hbond.Weighted>
0.0000

> <Gold.Chemscore.DEClash.Weighted>
1.0757

> <Gold.Chemscore.DEInternal.Weighted>
2.2110

> <Gold.Chemscore.Rot.Weighted>
4.0657

> <Gold.Chemscore.Internal.Correction.Weighted>
   9.000000E+99

> <Gold.Protein.RotatedTorsions>
[ 6907 6896 6895 6894 ] final   39.58 input  -60.11 | X-H torsion
[ 7974 7965 7964 7962 ] final  -44.69 input  175.53 | X-H torsion
[ 8008 7997 7996 7995 ] final   93.08 input   59.86 | X-H torsion
[ 10167 10162 10161 10158 ] final  121.83 input  -65.29 | X-H torsion
[ 10718 10713 10712 10709 ] final   11.63 input   66.30 | X-H torsion
[ 10763 10752 10751 10750 ] final -134.26 input  -60.55 | X-H torsion
[ 11005 11000 10999 10996 ] final  -41.63 input  -57.11 | X-H torsion

> <Gold.Protein.ActiveResidues>
 VAL166  LYS551  ARG553  GLY616  TRP617  ASP618  TYR619  PRO620  LYS621  CYS622 
 ASP623  PHE694  ASN695  SER759  ASP760  ASP761  ALA762  ILE779  LEU786  VAL792 
 PHE793  MET794  SER795  GLU796  ALA797  LYS798  CYS799  TRP800  GLU811  SER814 

> <Gold.Protein.RotatedAtoms>
  152.1715  134.8830  160.0533 H   0  0  0  0  0  0  0  0  0  0  0  0  # atno 6907 bound_to 6896
  151.9789  133.3746  159.4108 H   0  0  0  0  0  0  0  0  0  0  0  0  # atno 6908 bound_to 6896
  150.6902  134.3983  159.5151 H   0  0  0  0  0  0  0  0  0  0  0  0  # atno 6909 bound_to 6896
  145.9896  140.7195  142.9323 H   0  0  0  0  0  0  0  0  0  0  0  0  # atno 7974 bound_to 7965
  156.0427  140.3317  155.7261 H   0  0  0  0  0  0  0  0  0  0  0  0  # atno 8008 bound_to 7997
  155.5720  140.0629  157.2822 H   0  0  0  0  0  0  0  0  0  0  0  0  # atno 8009 bound_to 7997
  154.4400  140.1859  156.0878 H   0  0  0  0  0  0  0  0  0  0  0  0  # atno 8010 bound_to 7997
  139.5895  144.7020  151.3324 H   0  0  0  0  0  0  0  0  0  0  0  0  # atno 10167 bound_to 10162
  156.9984  130.6070  149.5693 H   0  0  0  0  0  0  0  0  0  0  0  0  # atno 10718 bound_to 10713
  154.8722  135.3740  154.4706 H   0  0  0  0  0  0  0  0  0  0  0  0  # atno 10763 bound_to 10752
  153.5367  135.7027  153.5661 H   0  0  0  0  0  0  0  0  0  0  0  0  # atno 10764 bound_to 10752
  153.3842  135.3989  155.1843 H   0  0  0  0  0  0  0  0  0  0  0  0  # atno 10765 bound_to 10752
  141.0259  133.6841  156.2484 H   0  0  0  0  0  0  0  0  0  0  0  0  # atno 11005 bound_to 11000
  144.6885  140.3047  143.7258 LP  0  0  0  0  0  0  0  0  0  0  0  0  # atno 17320 bound_to 7965
  145.7650  139.1837  143.2245 LP  0  0  0  0  0  0  0  0  0  0  0  0  # atno 17321 bound_to 7965
  140.7161  143.7262  150.7658 LP  0  0  0  0  0  0  0  0  0  0  0  0  # atno 17342 bound_to 10162
  140.0815  143.4964  152.2527 LP  0  0  0  0  0  0  0  0  0  0  0  0  # atno 17343 bound_to 10162
  156.0180  130.5275  150.8193 LP  0  0  0  0  0  0  0  0  0  0  0  0  # atno 17370 bound_to 10713
  157.5408  131.0940  150.9830 LP  0  0  0  0  0  0  0  0  0  0  0  0  # atno 17371 bound_to 10713
  140.6491  134.5085  157.5576 LP  0  0  0  0  0  0  0  0  0  0  0  0  # atno 17394 bound_to 11000
  139.9176  134.8214  156.1316 LP  0  0  0  0  0  0  0  0  0  0  0  0  # atno 17395 bound_to 11000

$$$$
