AV-unprocessed.smi:1345|AV-procd|sdf|5511|dock3
  -GOLD-   22720 5 93D 1   1.00000     0.00000
 Structure written by MMmdl.
 40 41  0  0  0  0  0  0  0  0  1 V2000
  153.8697  140.4433  160.5493 C   0  0  0  0  0  0  0  0  0  0  0  0
  153.4996  141.9361  160.6514 C   0  0  0  0  0  0  0  0  0  0  0  0
  153.5213  142.3683  162.1288 C   0  0  0  0  0  0  0  0  0  0  0  0
  152.1469  142.2539  159.9607 C   0  0  1  0  0  0  0  0  0  0  0  0
  151.9804  143.7434  159.6035 C   0  0  0  0  0  0  0  0  0  0  0  0
  152.0081  141.4618  158.7399 N   0  0  0  0  0  0  0  0  0  0  0  0
  151.0747  141.6372  157.7905 C   0  0  0  0  0  0  0  0  0  0  0  0
  150.1953  142.4963  157.8512 O   0  0  0  0  0  0  0  0  0  0  0  0
  151.1465  140.6989  156.5847 C   0  0  0  0  0  0  0  0  0  0  0  0
  149.8704  140.7688  155.7964 C   0  0  0  0  0  0  0  0  0  0  0  0
  149.2494  141.9033  155.3341 C   0  0  0  0  0  0  0  0  0  0  0  0
  147.7951  141.5370  154.4478 S   0  0  0  0  0  0  0  0  0  0  0  0
  148.0854  139.8207  154.7464 C   0  0  0  0  0  0  0  0  0  0  0  0
  147.2730  138.7350  154.3038 N   0  0  0  0  0  0  0  0  0  0  0  0
  146.3367  138.8804  153.1933 C   0  0  0  0  0  0  0  0  0  0  0  0
  145.6935  137.5021  153.0738 C   0  0  0  0  0  0  0  0  0  0  0  0
  146.3512  136.7677  154.1287 N   0  0  0  0  0  0  0  0  0  0  0  0
  147.2427  137.4876  154.8139 C   0  0  0  0  0  0  0  0  0  0  0  0
  147.9073  137.0479  155.7505 O   0  0  0  0  0  0  0  0  0  0  0  0
  149.1929  139.5917  155.4600 N   0  0  0  0  0  0  0  0  0  0  0  0
  153.1045  139.8153  161.0065 H   0  0  0  0  0  0  0  0  0  0  0  0
  154.8129  140.2366  161.0560 H   0  0  0  0  0  0  0  0  0  0  0  0
  153.9900  140.1221  159.5148 H   0  0  0  0  0  0  0  0  0  0  0  0
  154.2811  142.4976  160.1374 H   0  0  0  0  0  0  0  0  0  0  0  0
  152.7159  141.8955  162.6919 H   0  0  0  0  0  0  0  0  0  0  0  0
  153.4199  143.4475  162.2382 H   0  0  0  0  0  0  0  0  0  0  0  0
  154.4630  142.0921  162.6040 H   0  0  0  0  0  0  0  0  0  0  0  0
  151.3468  141.9767  160.6498 H   0  0  0  0  0  0  0  0  0  0  0  0
  151.9561  144.3728  160.4923 H   0  0  0  0  0  0  0  0  0  0  0  0
  151.0453  143.9187  159.0706 H   0  0  0  0  0  0  0  0  0  0  0  0
  152.7934  144.0921  158.9659 H   0  0  0  0  0  0  0  0  0  0  0  0
  152.6887  140.7294  158.5972 H   0  0  0  0  0  0  0  0  0  0  0  0
  152.0039  140.9724  155.9684 H   0  0  0  0  0  0  0  0  0  0  0  0
  151.3276  139.6799  156.9292 H   0  0  0  0  0  0  0  0  0  0  0  0
  149.5634  142.9296  155.4555 H   0  0  0  0  0  0  0  0  0  0  0  0
  145.5943  139.6493  153.4128 H   0  0  0  0  0  0  0  0  0  0  0  0
  146.8634  139.1549  152.2781 H   0  0  0  0  0  0  0  0  0  0  0  0
  144.6164  137.5355  153.2424 H   0  0  0  0  0  0  0  0  0  0  0  0
  145.8889  137.0402  152.1053 H   0  0  0  0  0  0  0  0  0  0  0  0
  146.1467  135.7976  154.3211 H   0  0  0  0  0  0  0  0  0  0  0  0
  1  2  1  0  0  0  0
  1 21  1  0  0  0  0
  1 22  1  0  0  0  0
  1 23  1  0  0  0  0
  2  3  1  0  0  0  0
  2  4  1  0  0  0  0
  2 24  1  0  0  0  0
  3 25  1  0  0  0  0
  3 26  1  0  0  0  0
  3 27  1  0  0  0  0
  4  5  1  0  0  0  0
  4  6  1  0  0  0  0
  4 28  1  0  0  0  0
  5 29  1  0  0  0  0
  5 30  1  0  0  0  0
  5 31  1  0  0  0  0
  6  7  1  0  0  0  0
  6 32  1  0  0  0  0
  7  8  2  0  0  0  0
  7  9  1  0  0  0  0
  9 10  1  0  0  0  0
  9 33  1  0  0  0  0
  9 34  1  0  0  0  0
 10 20  1  0  0  0  0
 10 11  2  0  0  0  0
 11 12  1  0  0  0  0
 11 35  1  0  0  0  0
 12 13  1  0  0  0  0
 13 14  1  0  0  0  0
 13 20  2  0  0  0  0
 14 18  1  0  0  0  0
 14 15  1  0  0  0  0
 15 16  1  0  0  0  0
 15 36  1  0  0  0  0
 15 37  1  0  0  0  0
 16 17  1  0  0  0  0
 16 38  1  0  0  0  0
 16 39  1  0  0  0  0
 17 18  1  0  0  0  0
 17 40  1  0  0  0  0
 18 19  2  0  0  0  0
M  END
> <s_m_source_file>
AV-unprocessed.smi

> <i_m_source_file_index>
1345

> <i_lp_mmshare_version>
43012

> <i_f3d_flags>
0

> <s_epik_input>
W0NIM11bQ0hdKFtDSDNdKVtDQEhdKFtDSDNdKVtOSF1DKD1PKVtDSDJdYzFbY0hdc2MobjEpTjJbQ0gyXVtDSDJdW05IXUMyPU8=

> <s_epik_cmdline>
J2VwaWtfcHl0aG9uJywgJy1waCcsICc3LjAnLCAnLXRuJywgJzgnLCAnLW1hJywgJzIwMCcsICctbWV0YWxfYmluZGluZycsICctaW1hZScsICc8aW5maWxlLm1hZT4nLCAnLW9tYWUnLCAnPG91dGZpbGUubWFlPic=

> <r_lp_tautomer_probability>
1

> <r_epik_Ionization_Penalty>
0.000122034

> <r_epik_Ionization_Penalty_Charging>
0

> <r_epik_Ionization_Penalty_Neutral>
0.000122034

> <r_epik_State_Penalty>
-0

> <r_epik_Charging_Adjusted_Penalty>
0

> <i_epik_Tot_Q>
0

> <i_epik_Tot_abs_Q>
0

> <r_epik_Metal_State_Penalty>
-0

> <b_epik_Metal_Only>
0

> <s_lp_Force_Field>
OPLS_2005

> <r_lp_Energy>
32.8432

> <b_lp_Chiralities_Consistent>
1

> <s_lp_Variant>
AV-unprocessed.smi:1345-2

> <Gold.Version>
5.8.1

> <Gold.Id.Protein>
6NUR|6NUR_protein|mol2

> <Gold.PLP.Fitness>
38.9196

> <Gold.PLP.PLP>
-37.8066

> <Gold.PLP.part.hbond>
-1.0000

> <Gold.PLP.part.metal>
0.0000

> <Gold.PLP.part.buried>
-0.5478

> <Gold.PLP.part.nonpolar>
-36.4398

> <Gold.PLP.part.repulsive>
0.3509

> <Gold.PLP.ligand.clash>
0.0000

> <Gold.PLP.ligand.torsion>
0.9500

> <Gold.PLP.Chemscore.Hbond>
0.0000

> <Gold.PLP.Chemscore.CHOScore>
0.9935

> <Gold.PLP.Chemscore.Metal>
0.0000

> <Gold.Chemscore.Hbonds>
donor molecule, donor type, donor heavy atom, donor atom, acceptor molecule, acceptor atom, score
      L1  C    11    35       P1  8028  0.73

> <Gold.PLP.Chemscore.Internal.Correction>
0.0325

> <Gold.Rescore>
     Score         DG    S(hbond)    S(metal)    S(lipo)     H(rot)  DE(clash)    DE(int)     intcor
      7.05     -12.33       0.00        0.00      96.51       1.74       0.40       4.88       ----

> <Gold.Chemscore.Fitness>
7.0509

> <Gold.Chemscore.DG>
-12.3297

> <Gold.Chemscore.ZeroCoef>
-5.4800

> <Gold.Chemscore.Hbond>
0.0000

> <Gold.Chemscore.Metal>
0.0000

> <Gold.Chemscore.Lipo>
96.5121

> <Gold.Chemscore.Internal_Hbond>
0.0000

> <Gold.Chemscore.DEClash>
0.4019

> <Gold.Chemscore.DEInternal>
4.8769

> <Gold.Chemscore.Rot>
1.7353

> <Gold.Chemscore.Internal.Correction>
   9.000000E+99

> <Gold.Chemscore.Hbond.Weighted>
-0.0000

> <Gold.Chemscore.Metal.Weighted>
-0.0000

> <Gold.Chemscore.Lipo.Weighted>
-11.2919

> <Gold.Chemscore.Internal_Hbond.Weighted>
0.0000

> <Gold.Chemscore.DEClash.Weighted>
0.4019

> <Gold.Chemscore.DEInternal.Weighted>
4.8769

> <Gold.Chemscore.Rot.Weighted>
4.4423

> <Gold.Chemscore.Internal.Correction.Weighted>
   9.000000E+99

> <Gold.Protein.RotatedTorsions>
[ 6907 6896 6895 6894 ] final  -39.16 input  -60.11 | X-H torsion
[ 7974 7965 7964 7962 ] final  169.20 input  175.53 | X-H torsion
[ 8008 7997 7996 7995 ] final  -76.37 input   59.86 | X-H torsion
[ 10167 10162 10161 10158 ] final   15.04 input  -65.29 | X-H torsion
[ 10718 10713 10712 10709 ] final  -66.60 input   66.30 | X-H torsion
[ 10763 10752 10751 10750 ] final   55.27 input  -60.55 | X-H torsion
[ 11005 11000 10999 10996 ] final  -64.56 input  -57.11 | X-H torsion

> <Gold.Protein.ActiveResidues>
 VAL166  LYS551  ARG553  GLY616  TRP617  ASP618  TYR619  PRO620  LYS621  CYS622 
 ASP623  PHE694  ASN695  SER759  ASP760  ASP761  ALA762  ILE779  LEU786  VAL792 
 PHE793  MET794  SER795  GLU796  ALA797  LYS798  CYS799  TRP800  GLU811  SER814 

> <Gold.Protein.RotatedAtoms>
  150.9936  134.9265  159.7913 H   0  0  0  0  0  0  0  0  0  0  0  0  # atno 6907 bound_to 6896
  152.5258  134.3248  159.9171 H   0  0  0  0  0  0  0  0  0  0  0  0  # atno 6908 bound_to 6896
  151.3254  133.3981  159.2692 H   0  0  0  0  0  0  0  0  0  0  0  0  # atno 6909 bound_to 6896
  144.7363  139.9020  143.6410 H   0  0  0  0  0  0  0  0  0  0  0  0  # atno 7974 bound_to 7965
  154.5499  140.0728  156.8650 H   0  0  0  0  0  0  0  0  0  0  0  0  # atno 8008 bound_to 7997
  155.3014  140.3384  155.4229 H   0  0  0  0  0  0  0  0  0  0  0  0  # atno 8009 bound_to 7997
  156.1952  140.1701  156.7999 H   0  0  0  0  0  0  0  0  0  0  0  0  # atno 8010 bound_to 7997
  140.5894  143.8824  150.6860 H   0  0  0  0  0  0  0  0  0  0  0  0  # atno 10167 bound_to 10162
  156.0604  130.4264  150.1732 H   0  0  0  0  0  0  0  0  0  0  0  0  # atno 10718 bound_to 10713
  152.9815  135.5716  154.5039 H   0  0  0  0  0  0  0  0  0  0  0  0  # atno 10763 bound_to 10752
  154.4554  135.2780  155.1753 H   0  0  0  0  0  0  0  0  0  0  0  0  # atno 10764 bound_to 10752
  154.3363  135.6239  153.5628 H   0  0  0  0  0  0  0  0  0  0  0  0  # atno 10765 bound_to 10752
  141.1428  133.6668  156.5852 H   0  0  0  0  0  0  0  0  0  0  0  0  # atno 11005 bound_to 11000
  146.1065  139.4065  143.0314 LP  0  0  0  0  0  0  0  0  0  0  0  0  # atno 17320 bound_to 7965
  145.7504  140.9974  143.1253 LP  0  0  0  0  0  0  0  0  0  0  0  0  # atno 17321 bound_to 7965
  140.2344  143.3711  152.1539 LP  0  0  0  0  0  0  0  0  0  0  0  0  # atno 17342 bound_to 10162
  139.5218  144.7051  151.5379 LP  0  0  0  0  0  0  0  0  0  0  0  0  # atno 17343 bound_to 10162
  156.9801  130.9861  151.3439 LP  0  0  0  0  0  0  0  0  0  0  0  0  # atno 17370 bound_to 10713
  157.5607  130.8244  149.8262 LP  0  0  0  0  0  0  0  0  0  0  0  0  # atno 17371 bound_to 10713
  140.3806  134.7527  157.4658 LP  0  0  0  0  0  0  0  0  0  0  0  0  # atno 17394 bound_to 11000
  140.0641  134.5955  155.8716 LP  0  0  0  0  0  0  0  0  0  0  0  0  # atno 17395 bound_to 11000

$$$$
