AV-unprocessed.smi:283|AV-procd|sdf|2142|dock1
  -GOLD-   2262021473D 1   1.00000     0.00000
 Structure written by MMmdl.
 48 51  0  0  0  0  0  0  0  0  1 V2000
  151.2253  143.4351  156.9283 C   0  0  0  0  0  0  0  0  0  0  0  0
  151.1478  142.0169  157.5097 C   0  0  1  0  0  0  0  0  0  0  0  0
  151.4149  141.0398  156.4567 N   0  0  0  0  0  0  0  0  0  0  0  0
  150.4265  140.2884  155.9225 C   0  0  0  0  0  0  0  0  0  0  0  0
  150.7093  139.7220  154.7251 N   0  0  0  0  0  0  0  0  0  0  0  0
  149.8053  138.9487  154.1175 C   0  0  0  0  0  0  0  0  0  0  0  0
  148.5784  138.6237  154.5260 N   0  0  0  0  0  0  0  0  0  0  0  0
  148.2802  139.1983  155.7265 C   0  0  0  0  0  0  0  0  0  0  0  0
  149.1387  140.0439  156.4860 C   0  0  0  0  0  0  0  0  0  0  0  0
  148.4757  140.4475  157.6396 N   0  0  0  0  0  0  0  0  0  0  0  0
  147.3109  139.8636  157.5692 C   0  0  0  0  0  0  0  0  0  0  0  0
  147.1077  139.0944  156.4469 N   0  0  0  0  0  0  0  0  0  0  0  0
  145.8916  138.2969  156.0883 C   0  0  2  0  0  0  0  0  0  0  0  0
  146.2911  136.9705  155.9372 O   0  0  0  0  0  0  0  0  0  0  0  0
  145.5960  136.4033  154.8394 C   0  0  2  0  0  0  0  0  0  0  0  0
  146.3111  135.1389  154.3282 C   0  0  0  0  0  0  0  0  0  0  0  0
  147.7007  135.3367  154.1690 O   0  0  0  0  0  0  0  0  0  0  0  0
  145.4153  137.5557  153.8456 C   0  0  1  0  0  0  0  0  0  0  0  0
  144.2657  137.3443  153.0505 O   0  0  0  0  0  0  0  0  0  0  0  0
  145.2196  138.7546  154.7686 C   0  0  2  0  0  0  0  0  0  0  0  0
  145.7712  139.9287  154.1999 O   0  0  0  0  0  0  0  0  0  0  0  0
  152.0506  141.8969  158.7414 C   0  0  0  0  0  0  0  0  0  0  0  0
  152.1478  142.9729  159.6548 C   0  0  0  0  0  0  0  0  0  0  0  0
  152.9740  142.8792  160.7904 C   0  0  0  0  0  0  0  0  0  0  0  0
  153.7068  141.7035  161.0313 C   0  0  0  0  0  0  0  0  0  0  0  0
  153.6066  140.6209  160.1382 C   0  0  0  0  0  0  0  0  0  0  0  0
  152.7811  140.7092  158.9993 C   0  0  0  0  0  0  0  0  0  0  0  0
  152.6853  139.3418  157.9452 Cl  0  0  0  0  0  0  0  0  0  0  0  0
  145.2317  138.3966  156.9510 H   0  0  0  0  0  0  0  0  0  0  0  0
  144.6184  136.1114  155.2287 H   0  0  0  0  0  0  0  0  0  0  0  0
  146.2984  137.6880  153.2200 H   0  0  0  0  0  0  0  0  0  0  0  0
  144.1615  138.9167  154.9803 H   0  0  0  0  0  0  0  0  0  0  0  0
  150.9448  144.1802  157.6731 H   0  0  0  0  0  0  0  0  0  0  0  0
  150.5500  143.5499  156.0798 H   0  0  0  0  0  0  0  0  0  0  0  0
  152.2339  143.6699  156.5866 H   0  0  0  0  0  0  0  0  0  0  0  0
  150.1140  141.8579  157.8113 H   0  0  0  0  0  0  0  0  0  0  0  0
  152.3878  140.7919  156.3496 H   0  0  0  0  0  0  0  0  0  0  0  0
  150.1078  138.5292  153.1695 H   0  0  0  0  0  0  0  0  0  0  0  0
  146.5632  139.9813  158.3398 H   0  0  0  0  0  0  0  0  0  0  0  0
  146.1371  134.3017  155.0047 H   0  0  0  0  0  0  0  0  0  0  0  0
  145.9031  134.8543  153.3579 H   0  0  0  0  0  0  0  0  0  0  0  0
  147.8545  135.7193  153.3188 H   0  0  0  0  0  0  0  0  0  0  0  0
  143.8365  138.1765  152.9225 H   0  0  0  0  0  0  0  0  0  0  0  0
  145.1472  140.2782  153.5812 H   0  0  0  0  0  0  0  0  0  0  0  0
  151.5893  143.8822  159.4890 H   0  0  0  0  0  0  0  0  0  0  0  0
  153.0437  143.7099  161.4773 H   0  0  0  0  0  0  0  0  0  0  0  0
  154.3412  141.6295  161.9024 H   0  0  0  0  0  0  0  0  0  0  0  0
  154.1651  139.7165  160.3304 H   0  0  0  0  0  0  0  0  0  0  0  0
  1  2  1  0  0  0  0
  1 33  1  0  0  0  0
  1 34  1  0  0  0  0
  1 35  1  0  0  0  0
  2  3  1  0  0  0  0
  2 22  1  0  0  0  0
  2 36  1  0  0  0  0
  3  4  1  0  0  0  0
  3 37  1  0  0  0  0
  4  9  1  0  0  0  0
  4  5  2  0  0  0  0
  5  6  1  0  0  0  0
  6  7  2  0  0  0  0
  6 38  1  0  0  0  0
  7  8  1  0  0  0  0
  8 12  1  0  0  0  0
  8  9  2  0  0  0  0
  9 10  1  0  0  0  0
 10 11  2  0  0  0  0
 11 12  1  0  0  0  0
 11 39  1  0  0  0  0
 12 13  1  0  0  0  0
 13 29  1  0  0  0  0
 13 20  1  0  0  0  0
 13 14  1  0  0  0  0
 14 15  1  0  0  0  0
 15 30  1  0  0  0  0
 15 16  1  0  0  0  0
 15 18  1  0  0  0  0
 16 17  1  0  0  0  0
 16 40  1  0  0  0  0
 16 41  1  0  0  0  0
 17 42  1  0  0  0  0
 18 31  1  0  0  0  0
 18 19  1  0  0  0  0
 18 20  1  0  0  0  0
 19 43  1  0  0  0  0
 20 32  1  0  0  0  0
 20 21  1  0  0  0  0
 21 44  1  0  0  0  0
 22 27  1  0  0  0  0
 22 23  2  0  0  0  0
 23 24  1  0  0  0  0
 23 45  1  0  0  0  0
 24 25  2  0  0  0  0
 24 46  1  0  0  0  0
 25 26  1  0  0  0  0
 25 47  1  0  0  0  0
 26 27  2  0  0  0  0
 26 48  1  0  0  0  0
 27 28  1  0  0  0  0
M  END
> <s_m_source_file>
AV-unprocessed.smi

> <i_m_source_file_index>
283

> <i_lp_mmshare_version>
43012

> <i_f3d_flags>
0

> <s_epik_input>
Q2xjMVtjSF1bY0hdW2NIXVtjSF1jMVtDQEhdKFtDSDNdKVtOSF1jKG5bY0hdbjIpYyhjMjMpbltjSF1uM1tDQEBIXTRPW0NASF0oW0NIMl1bT0hdKVtDQEBIXShbT0hdKVtDQEhdNFtPSF0=

> <s_epik_cmdline>
J2VwaWtfcHl0aG9uJywgJy1waCcsICc3LjAnLCAnLXRuJywgJzgnLCAnLW1hJywgJzIwMCcsICctbWV0YWxfYmluZGluZycsICctaW1hZScsICc8aW5maWxlLm1hZT4nLCAnLW9tYWUnLCAnPG91dGZpbGUubWFlPic=

> <r_lp_tautomer_probability>
1

> <r_epik_Ionization_Penalty>
0.000266407

> <r_epik_Ionization_Penalty_Charging>
0

> <r_epik_Ionization_Penalty_Neutral>
0.000266407

> <r_epik_State_Penalty>
-0

> <r_epik_Charging_Adjusted_Penalty>
0

> <i_epik_Tot_Q>
0

> <i_epik_Tot_abs_Q>
0

> <r_epik_Metal_State_Penalty>
-0

> <b_epik_Metal_Only>
0

> <s_epik_Chemistry_Notes>
This compound contains an acetal/aminal-like group ( X-CH(R)-Y where X, Y are N, S, or O) that may be acid/base labile, releasing an aldehyde.

> <s_lp_Force_Field>
OPLS_2005

> <r_lp_Energy>
48.5102

> <b_lp_Chiralities_Consistent>
1

> <s_lp_Variant>
AV-unprocessed.smi:283-18

> <Gold.Version>
5.8.1

> <Gold.Id.Protein>
6NUR|6NUR_protein|mol2

> <Gold.PLP.Fitness>
46.4585

> <Gold.PLP.PLP>
-33.2030

> <Gold.PLP.part.hbond>
-4.2662

> <Gold.PLP.part.metal>
0.0000

> <Gold.PLP.part.buried>
-1.8161

> <Gold.PLP.part.nonpolar>
-27.8669

> <Gold.PLP.part.repulsive>
0.3666

> <Gold.PLP.ligand.clash>
0.0000

> <Gold.PLP.ligand.torsion>
0.8364

> <Gold.PLP.Chemscore.Hbond>
4.0000

> <Gold.PLP.Chemscore.CHOScore>
0.9046

> <Gold.PLP.Chemscore.Metal>
0.0000

> <Gold.Chemscore.Hbonds>
donor molecule, donor type, donor heavy atom, donor atom, acceptor molecule, acceptor atom, score
      L1  H    17    42       P1  7948  1.00
      L1  H    19    43       P1 10175  0.29
      L1  H    21    44       P1 10175  1.00
      P1  H  7989  7998       L1     5  1.00
      L1  C     6    38       P1  7948  0.23
      L1  C     6    38       P1  7957  0.67

> <Gold.PLP.Chemscore.Internal.Correction>
0.2145

> <Gold.Rescore>
     Score         DG    S(hbond)    S(metal)    S(lipo)     H(rot)  DE(clash)    DE(int)     intcor
     13.79     -17.59       3.56        0.00      91.56       4.10       0.58       3.22       ----

> <Gold.Chemscore.Fitness>
13.7860

> <Gold.Chemscore.DG>
-17.5930

> <Gold.Chemscore.ZeroCoef>
-5.4800

> <Gold.Chemscore.Hbond>
3.5595

> <Gold.Chemscore.Metal>
0.0000

> <Gold.Chemscore.Lipo>
91.5576

> <Gold.Chemscore.Internal_Hbond>
0.0000

> <Gold.Chemscore.DEClash>
0.5840

> <Gold.Chemscore.DEInternal>
3.2230

> <Gold.Chemscore.Rot>
4.0968

> <Gold.Chemscore.Internal.Correction>
   9.000000E+99

> <Gold.Chemscore.Hbonds>
donor molecule, donor type, donor heavy atom, donor atom, acceptor molecule, acceptor atom, score
      L1  H    17    42       P1  7948  0.97
      L1  H    19    43       P1 10175  0.29
      L1  H    21    44       P1 10175  1.00
      P1  H  7989  7998       L1     5  0.74

> <Gold.Chemscore.Hbond.Weighted>
-11.8887

> <Gold.Chemscore.Metal.Weighted>
-0.0000

> <Gold.Chemscore.Lipo.Weighted>
-10.7122

> <Gold.Chemscore.Internal_Hbond.Weighted>
0.0000

> <Gold.Chemscore.DEClash.Weighted>
0.5840

> <Gold.Chemscore.DEInternal.Weighted>
3.2230

> <Gold.Chemscore.Rot.Weighted>
10.4879

> <Gold.Chemscore.Internal.Correction.Weighted>
   9.000000E+99

> <Gold.Protein.RotatedTorsions>
[ 6907 6896 6895 6894 ] final -152.66 input  -60.11 | X-H torsion
[ 7974 7965 7964 7962 ] final -138.00 input  175.53 | X-H torsion
[ 8008 7997 7996 7995 ] final   83.23 input   59.86 | X-H torsion
[ 10167 10162 10161 10158 ] final    2.49 input  -65.29 | X-H torsion
[ 10718 10713 10712 10709 ] final   46.18 input   66.30 | X-H torsion
[ 10763 10752 10751 10750 ] final  151.19 input  -60.55 | X-H torsion
[ 11005 11000 10999 10996 ] final  135.76 input  -57.11 | X-H torsion

> <Gold.Protein.ActiveResidues>
 VAL166  LYS551  ARG553  GLY616  TRP617  ASP618  TYR619  PRO620  LYS621  CYS622 
 ASP623  PHE694  ASN695  SER759  ASP760  ASP761  ALA762  ILE779  LEU786  VAL792 
 PHE793  MET794  SER795  GLU796  ALA797  LYS798  CYS799  TRP800  GLU811  SER814 

> <Gold.Protein.RotatedAtoms>
  151.2311  133.4450  159.2603 H   0  0  0  0  0  0  0  0  0  0  0  0  # atno 6907 bound_to 6896
  151.0794  134.9848  159.8358 H   0  0  0  0  0  0  0  0  0  0  0  0  # atno 6908 bound_to 6896
  152.5422  134.2251  159.8856 H   0  0  0  0  0  0  0  0  0  0  0  0  # atno 6909 bound_to 6896
  144.8795  140.6486  143.5215 H   0  0  0  0  0  0  0  0  0  0  0  0  # atno 7974 bound_to 7965
  155.9211  140.3421  155.6173 H   0  0  0  0  0  0  0  0  0  0  0  0  # atno 8008 bound_to 7997
  155.7272  140.0791  157.2323 H   0  0  0  0  0  0  0  0  0  0  0  0  # atno 8009 bound_to 7997
  154.4070  140.1594  156.2455 H   0  0  0  0  0  0  0  0  0  0  0  0  # atno 8010 bound_to 7997
  140.6633  143.7247  150.7778 H   0  0  0  0  0  0  0  0  0  0  0  0  # atno 10167 bound_to 10162
  157.4454  130.8106  149.7735 H   0  0  0  0  0  0  0  0  0  0  0  0  # atno 10718 bound_to 10713
  154.0998  135.2846  155.3254 H   0  0  0  0  0  0  0  0  0  0  0  0  # atno 10763 bound_to 10752
  154.6563  135.5350  153.7966 H   0  0  0  0  0  0  0  0  0  0  0  0  # atno 10764 bound_to 10752
  153.0383  135.6523  154.1162 H   0  0  0  0  0  0  0  0  0  0  0  0  # atno 10765 bound_to 10752
  140.0001  134.9482  157.0052 H   0  0  0  0  0  0  0  0  0  0  0  0  # atno 11005 bound_to 11000
  145.3980  139.1603  143.4193 LP  0  0  0  0  0  0  0  0  0  0  0  0  # atno 17320 bound_to 7965
  146.2985  140.4075  142.8713 LP  0  0  0  0  0  0  0  0  0  0  0  0  # atno 17321 bound_to 7965
  140.0920  143.4869  152.2473 LP  0  0  0  0  0  0  0  0  0  0  0  0  # atno 17342 bound_to 10162
  139.5873  144.7536  151.3488 LP  0  0  0  0  0  0  0  0  0  0  0  0  # atno 17343 bound_to 10162
  155.9965  130.3905  150.2776 LP  0  0  0  0  0  0  0  0  0  0  0  0  # atno 17370 bound_to 10713
  157.0944  131.0178  151.3109 LP  0  0  0  0  0  0  0  0  0  0  0  0  # atno 17371 bound_to 10713
  140.4744  134.1353  155.7207 LP  0  0  0  0  0  0  0  0  0  0  0  0  # atno 17394 bound_to 11000
  141.1635  133.8748  157.1781 LP  0  0  0  0  0  0  0  0  0  0  0  0  # atno 17395 bound_to 11000

$$$$
