AV-unprocessed.smi:1604|AV-procd|sdf|6449|dock4
  -GOLD-   22720 7103D 1   1.00000     0.00000
 Structure written by MMmdl.
 47 49  0  0  0  0  0  0  0  0  2 V2000
  149.5910  134.8496  155.8906 O   0  0  0  0  0  0  0  0  0  0  0  0
  149.3000  135.2719  154.7713 C   0  0  0  0  0  0  0  0  0  0  0  0
  148.8806  134.5113  153.7477 N   0  0  0  0  0  0  0  0  0  0  0  0
  148.7941  133.0927  153.7131 C   0  0  0  0  0  0  0  0  0  0  0  0
  149.5909  132.2978  154.5754 C   0  0  0  0  0  0  0  0  0  0  0  0
  149.4384  130.8987  154.5798 C   0  0  0  0  0  0  0  0  0  0  0  0
  148.4800  130.3168  153.7323 C   0  0  0  0  0  0  0  0  0  0  0  0
  147.7303  131.1017  152.9310 N   0  3  0  0  0  0  0  0  0  0  0  0
  147.8405  132.4527  152.8696 C   0  0  0  0  0  0  0  0  0  0  0  0
  146.9993  133.1451  151.9685 N   0  0  0  0  0  0  0  0  0  0  0  0
  146.1865  134.2647  152.4293 C   0  0  0  0  0  0  0  0  0  0  0  0
  145.1833  134.5138  151.3065 C   0  0  0  0  0  0  0  0  0  0  0  0
  144.9120  133.1036  150.7912 C   0  0  0  0  0  0  0  0  0  0  0  0
  146.2550  132.3868  150.9668 C   0  0  0  0  0  0  0  0  0  0  0  0
  149.3924  136.5610  154.4126 N   0  0  0  0  0  0  0  0  0  0  0  0
  149.9151  137.6399  155.2540 C   0  0  2  0  0  0  0  0  0  0  0  0
  150.0608  138.8966  154.3655 C   0  0  0  0  0  0  0  0  0  0  0  0
  150.0806  140.2164  155.1560 C   0  0  0  0  0  0  0  0  0  0  0  0
  151.2886  140.3973  156.0879 C   0  0  0  0  0  0  0  0  0  0  0  0
  151.3707  139.3442  157.2061 C   0  0  0  0  0  0  0  0  0  0  0  0
  151.8812  138.0684  156.7216 N   0  0  0  0  0  0  0  0  0  0  0  0
  151.3012  137.2570  155.8242 C   0  0  0  0  0  0  0  0  0  0  0  0
  151.8683  136.2268  155.4586 O   0  0  0  0  0  0  0  0  0  0  0  0
  148.7664  134.9802  152.8610 H   0  0  0  0  0  0  0  0  0  0  0  0
  150.3045  132.7473  155.2502 H   0  0  0  0  0  0  0  0  0  0  0  0
  150.0398  130.2833  155.2330 H   0  0  0  0  0  0  0  0  0  0  0  0
  148.2886  129.2552  153.6728 H   0  0  0  0  0  0  0  0  0  0  0  0
  145.6537  133.9967  153.3425 H   0  0  0  0  0  0  0  0  0  0  0  0
  146.7961  135.1460  152.6307 H   0  0  0  0  0  0  0  0  0  0  0  0
  144.2830  135.0261  151.6463 H   0  0  0  0  0  0  0  0  0  0  0  0
  145.6419  135.1158  150.5206 H   0  0  0  0  0  0  0  0  0  0  0  0
  144.1564  132.6260  151.4166 H   0  0  0  0  0  0  0  0  0  0  0  0
  144.5541  133.0870  149.7612 H   0  0  0  0  0  0  0  0  0  0  0  0
  146.8104  132.4042  150.0287 H   0  0  0  0  0  0  0  0  0  0  0  0
  146.1126  131.3454  151.2594 H   0  0  0  0  0  0  0  0  0  0  0  0
  149.1340  136.8123  153.4698 H   0  0  0  0  0  0  0  0  0  0  0  0
  149.2129  137.8322  156.0673 H   0  0  0  0  0  0  0  0  0  0  0  0
  150.9441  138.8256  153.7280 H   0  0  0  0  0  0  0  0  0  0  0  0
  149.2123  138.9486  153.6812 H   0  0  0  0  0  0  0  0  0  0  0  0
  150.0646  141.0446  154.4468 H   0  0  0  0  0  0  0  0  0  0  0  0
  149.1604  140.3053  155.7347 H   0  0  0  0  0  0  0  0  0  0  0  0
  152.2136  140.4063  155.5098 H   0  0  0  0  0  0  0  0  0  0  0  0
  151.2155  141.3834  156.5482 H   0  0  0  0  0  0  0  0  0  0  0  0
  152.0586  139.6927  157.9767 H   0  0  0  0  0  0  0  0  0  0  0  0
  150.4050  139.2099  157.6954 H   0  0  0  0  0  0  0  0  0  0  0  0
  152.7806  137.7841  157.0821 H   0  0  0  0  0  0  0  0  0  0  0  0
  147.0441  130.6490  152.3270 H   0  0  0  0  0  0  0  0  0  0  0  0
  1  2  2  0  0  0  0
  2  3  1  0  0  0  0
  2 15  1  0  0  0  0
  3  4  1  0  0  0  0
  3 24  1  0  0  0  0
  4  9  1  0  0  0  0
  4  5  2  0  0  0  0
  5  6  1  0  0  0  0
  5 25  1  0  0  0  0
  6  7  2  0  0  0  0
  6 26  1  0  0  0  0
  7  8  1  0  0  0  0
  7 27  1  0  0  0  0
  8  9  2  0  0  0  0
  8 47  1  0  0  0  0
  9 10  1  0  0  0  0
 10 14  1  0  0  0  0
 10 11  1  0  0  0  0
 11 12  1  0  0  0  0
 11 28  1  0  0  0  0
 11 29  1  0  0  0  0
 12 13  1  0  0  0  0
 12 30  1  0  0  0  0
 12 31  1  0  0  0  0
 13 14  1  0  0  0  0
 13 32  1  0  0  0  0
 13 33  1  0  0  0  0
 14 34  1  0  0  0  0
 14 35  1  0  0  0  0
 15 16  1  0  0  0  0
 15 36  1  0  0  0  0
 16 22  1  0  0  0  0
 16 17  1  0  0  0  0
 16 37  1  0  0  0  0
 17 18  1  0  0  0  0
 17 38  1  0  0  0  0
 17 39  1  0  0  0  0
 18 19  1  0  0  0  0
 18 40  1  0  0  0  0
 18 41  1  0  0  0  0
 19 20  1  0  0  0  0
 19 42  1  0  0  0  0
 19 43  1  0  0  0  0
 20 21  1  0  0  0  0
 20 44  1  0  0  0  0
 20 45  1  0  0  0  0
 21 22  1  0  0  0  0
 21 46  1  0  0  0  0
 22 23  2  0  0  0  0
M  CHG  1   8   1
M  END
> <s_m_source_file>
AV-unprocessed.smi

> <i_m_source_file_index>
1604

> <i_lp_mmshare_version>
43012

> <i_f3d_flags>
0

> <s_epik_input>
Tz1DMVtOSF1bQ0gyXVtDSDJdW0NIMl1bQ0gyXVtDQEhdMVtOSF1DKD1PKVtOSF1jMltjSF1bY0hdW2NIXW5jMk4zW0NIMl1bQ0gyXVtDSDJdW0NIMl0z

> <s_epik_cmdline>
J2VwaWtfcHl0aG9uJywgJy1waCcsICc3LjAnLCAnLXRuJywgJzgnLCAnLW1hJywgJzIwMCcsICctbWV0YWxfYmluZGluZycsICctaW1hZScsICc8aW5maWxlLm1hZT4nLCAnLW9tYWUnLCAnPG91dGZpbGUubWFlPic=

> <r_lp_tautomer_probability>
0.999994

> <r_epik_Ionization_Penalty>
1.20452

> <r_epik_Ionization_Penalty_Charging>
1.2045

> <r_epik_Ionization_Penalty_Neutral>
1.88134e-05

> <r_epik_State_Penalty>
1.2704

> <r_epik_Charging_Adjusted_Penalty>
2.4749

> <i_epik_Tot_Q>
1

> <i_epik_Tot_abs_Q>
1

> <r_epik_Metal_State_Penalty>
1.34433

> <b_epik_Metal_Only>
0

> <s_lp_Force_Field>
OPLS_2005

> <r_lp_Energy>
45.117

> <b_lp_Chiralities_Consistent>
1

> <s_lp_Variant>
AV-unprocessed.smi:1604-3

> <Gold.Version>
5.8.1

> <Gold.Id.Protein>
6NUR|6NUR_protein|mol2

> <Gold.PLP.Fitness>
44.0025

> <Gold.PLP.PLP>
-35.7387

> <Gold.PLP.part.hbond>
-3.9377

> <Gold.PLP.part.metal>
0.0000

> <Gold.PLP.part.buried>
-2.8784

> <Gold.PLP.part.nonpolar>
-30.1273

> <Gold.PLP.part.repulsive>
0.3642

> <Gold.PLP.ligand.clash>
0.0000

> <Gold.PLP.ligand.torsion>
0.4127

> <Gold.PLP.Chemscore.Hbond>
2.9033

> <Gold.PLP.Chemscore.CHOScore>
0.0000

> <Gold.PLP.Chemscore.Metal>
0.0000

> <Gold.Chemscore.Hbonds>
donor molecule, donor type, donor heavy atom, donor atom, acceptor molecule, acceptor atom, score
      L1  H     3    24       P1  7948  1.00
      L1  H    15    36       P1  7948  0.88
      P1  H 10752 10765       L1    23  0.89

> <Gold.PLP.Chemscore.Internal.Correction>
0.3793

> <Gold.Rescore>
     Score         DG    S(hbond)    S(metal)    S(lipo)     H(rot)  DE(clash)    DE(int)     intcor
     16.93     -18.81       2.56        0.00      68.44       1.26       0.06       1.83       ----

> <Gold.Chemscore.Fitness>
16.9267

> <Gold.Chemscore.DG>
-18.8138

> <Gold.Chemscore.ZeroCoef>
-5.4800

> <Gold.Chemscore.Hbond>
2.5579

> <Gold.Chemscore.Metal>
0.0000

> <Gold.Chemscore.Lipo>
68.4382

> <Gold.Chemscore.Internal_Hbond>
0.0000

> <Gold.Chemscore.DEClash>
0.0598

> <Gold.Chemscore.DEInternal>
1.8274

> <Gold.Chemscore.Rot>
1.2566

> <Gold.Chemscore.Internal.Correction>
   9.000000E+99

> <Gold.Chemscore.Hbonds>
donor molecule, donor type, donor heavy atom, donor atom, acceptor molecule, acceptor atom, score
      L1  H     3    24       P1  7948  0.24
      L1  H    15    36       P1  7948  0.86
      P1  H 10752 10765       L1    23  0.86

> <Gold.Chemscore.Hbond.Weighted>
-8.5434

> <Gold.Chemscore.Metal.Weighted>
-0.0000

> <Gold.Chemscore.Lipo.Weighted>
-8.0073

> <Gold.Chemscore.Internal_Hbond.Weighted>
0.0000

> <Gold.Chemscore.DEClash.Weighted>
0.0598

> <Gold.Chemscore.DEInternal.Weighted>
1.8274

> <Gold.Chemscore.Rot.Weighted>
3.2168

> <Gold.Chemscore.Internal.Correction.Weighted>
   9.000000E+99

> <Gold.Protein.RotatedTorsions>
[ 6907 6896 6895 6894 ] final   97.81 input  -60.11 | X-H torsion
[ 7974 7965 7964 7962 ] final  -68.95 input  175.53 | X-H torsion
[ 8008 7997 7996 7995 ] final -149.95 input   59.86 | X-H torsion
[ 10167 10162 10161 10158 ] final   75.63 input  -65.29 | X-H torsion
[ 10718 10713 10712 10709 ] final  160.96 input   66.30 | X-H torsion
[ 10763 10752 10751 10750 ] final -175.43 input  -60.55 | X-H torsion
[ 11005 11000 10999 10996 ] final -106.20 input  -57.11 | X-H torsion

> <Gold.Protein.ActiveResidues>
 VAL166  LYS551  ARG553  GLY616  TRP617  ASP618  TYR619  PRO620  LYS621  CYS622 
 ASP623  PHE694  ASN695  SER759  ASP760  ASP761  ALA762  ILE779  LEU786  VAL792 
 PHE793  MET794  SER795  GLU796  ALA797  LYS798  CYS799  TRP800  GLU811  SER814 

> <Gold.Protein.RotatedAtoms>
  152.5418  134.0676  159.8179 H   0  0  0  0  0  0  0  0  0  0  0  0  # atno 6907 bound_to 6896
  151.0795  133.5394  159.2629 H   0  0  0  0  0  0  0  0  0  0  0  0  # atno 6908 bound_to 6896
  151.2226  135.0533  159.9010 H   0  0  0  0  0  0  0  0  0  0  0  0  # atno 6909 bound_to 6896
  145.7099  140.9082  143.0686 H   0  0  0  0  0  0  0  0  0  0  0  0  # atno 7974 bound_to 7965
  155.6157  140.0676  157.2693 H   0  0  0  0  0  0  0  0  0  0  0  0  # atno 8008 bound_to 7997
  154.4242  140.1793  156.1367 H   0  0  0  0  0  0  0  0  0  0  0  0  # atno 8009 bound_to 7997
  156.0049  140.3332  155.6886 H   0  0  0  0  0  0  0  0  0  0  0  0  # atno 8010 bound_to 7997
  140.0009  144.5687  150.7738 H   0  0  0  0  0  0  0  0  0  0  0  0  # atno 10167 bound_to 10162
  157.1431  131.0545  151.2317 H   0  0  0  0  0  0  0  0  0  0  0  0  # atno 10718 bound_to 10713
  154.5845  135.2839  155.0699 H   0  0  0  0  0  0  0  0  0  0  0  0  # atno 10763 bound_to 10752
  154.2023  135.6422  153.5094 H   0  0  0  0  0  0  0  0  0  0  0  0  # atno 10764 bound_to 10752
  153.0099  135.5472  154.6509 H   0  0  0  0  0  0  0  0  0  0  0  0  # atno 10765 bound_to 10752
  141.1016  133.8873  157.1827 H   0  0  0  0  0  0  0  0  0  0  0  0  # atno 11005 bound_to 11000
  144.6945  139.9061  143.7461 LP  0  0  0  0  0  0  0  0  0  0  0  0  # atno 17320 bound_to 7965
  146.0722  139.3710  143.0516 LP  0  0  0  0  0  0  0  0  0  0  0  0  # atno 17321 bound_to 7965
  140.7419  143.2824  151.3559 LP  0  0  0  0  0  0  0  0  0  0  0  0  # atno 17342 bound_to 10162
  139.6272  144.0791  152.2445 LP  0  0  0  0  0  0  0  0  0  0  0  0  # atno 17343 bound_to 10162
  157.4289  130.7479  149.6973 LP  0  0  0  0  0  0  0  0  0  0  0  0  # atno 17370 bound_to 10713
  155.9784  130.4051  150.3647 LP  0  0  0  0  0  0  0  0  0  0  0  0  # atno 17371 bound_to 10713
  139.9870  135.0078  156.9885 LP  0  0  0  0  0  0  0  0  0  0  0  0  # atno 17394 bound_to 11000
  140.5008  134.1100  155.7250 LP  0  0  0  0  0  0  0  0  0  0  0  0  # atno 17395 bound_to 11000

$$$$
