AV-unprocessed.smi:3311|AV-procd|sdf|12723|dock1
  -GOLD-   2272019 63D 1   1.00000     0.00000
 Structure written by MMmdl.
 43 44  0  0  0  0  0  0  0  0  1 V2000
  147.3310  141.7362  155.7101 C   0  0  0  0  0  0  0  0  0  0  0  0
  148.6135  140.8902  155.7904 C   0  0  2  0  0  0  0  0  0  0  0  0
  149.6848  141.7468  156.3103 N   0  0  0  0  0  0  0  0  0  0  0  0
  149.3828  142.4128  157.5798 C   0  0  0  0  0  0  0  0  0  0  0  0
  150.5745  143.2353  158.1182 C   0  0  0  0  0  0  0  0  0  0  0  0
  151.1601  143.8881  157.0061 O   0  0  0  0  0  0  0  0  0  0  0  0
  150.1526  144.2828  159.1796 C   0  0  0  0  0  0  0  0  0  0  0  0
  151.3521  145.0052  159.8185 C   0  0  0  0  0  0  0  0  0  0  0  0
  152.3584  144.0092  160.4103 C   0  0  0  0  0  0  0  0  0  0  0  0
  152.8275  143.0062  159.3474 C   0  0  0  0  0  0  0  0  0  0  0  0
  151.6356  142.2741  158.7047 C   0  0  0  0  0  0  0  0  0  0  0  0
  148.9967  140.2774  154.4112 C   0  0  2  0  0  0  0  0  0  0  0  0
  147.8495  139.4890  153.7514 C   0  0  0  0  0  0  0  0  0  0  0  0
  150.1789  139.4276  154.4969 N   0  0  0  0  0  0  0  0  0  0  0  0
  150.2835  138.0649  154.2951 C   0  0  0  0  0  0  0  0  0  0  0  0
  151.5852  137.7175  154.5172 C   0  0  0  0  0  0  0  0  0  0  0  0
  152.2096  138.9491  154.8589 C   0  0  0  0  0  0  0  0  0  0  0  0
  151.3678  139.9691  154.8436 N   0  0  0  0  0  0  0  0  0  0  0  0
  146.4596  141.1292  155.4659 H   0  0  0  0  0  0  0  0  0  0  0  0
  147.4170  142.5208  154.9577 H   0  0  0  0  0  0  0  0  0  0  0  0
  147.1202  142.2164  156.6664 H   0  0  0  0  0  0  0  0  0  0  0  0
  148.4187  140.0817  156.4969 H   0  0  0  0  0  0  0  0  0  0  0  0
  150.5261  141.1907  156.4293 H   0  0  0  0  0  0  0  0  0  0  0  0
  148.5238  143.0694  157.4376 H   0  0  0  0  0  0  0  0  0  0  0  0
  149.0828  141.6899  158.3362 H   0  0  0  0  0  0  0  0  0  0  0  0
  150.4977  144.4156  156.5870 H   0  0  0  0  0  0  0  0  0  0  0  0
  149.4837  145.0255  158.7432 H   0  0  0  0  0  0  0  0  0  0  0  0
  149.5818  143.7858  159.9652 H   0  0  0  0  0  0  0  0  0  0  0  0
  151.8479  145.6275  159.0724 H   0  0  0  0  0  0  0  0  0  0  0  0
  151.0015  145.6834  160.5968 H   0  0  0  0  0  0  0  0  0  0  0  0
  153.2150  144.5447  160.8208 H   0  0  0  0  0  0  0  0  0  0  0  0
  151.8989  143.4743  161.2425 H   0  0  0  0  0  0  0  0  0  0  0  0
  153.4020  143.5258  158.5800 H   0  0  0  0  0  0  0  0  0  0  0  0
  153.5058  142.2813  159.7981 H   0  0  0  0  0  0  0  0  0  0  0  0
  151.1678  141.6451  159.4634 H   0  0  0  0  0  0  0  0  0  0  0  0
  151.9970  141.5933  157.9325 H   0  0  0  0  0  0  0  0  0  0  0  0
  149.2383  141.1018  153.7368 H   0  0  0  0  0  0  0  0  0  0  0  0
  147.0178  140.1386  153.4802 H   0  0  0  0  0  0  0  0  0  0  0  0
  147.4659  138.7117  154.4126 H   0  0  0  0  0  0  0  0  0  0  0  0
  148.1850  139.0080  152.8321 H   0  0  0  0  0  0  0  0  0  0  0  0
  149.4313  137.4616  154.0194 H   0  0  0  0  0  0  0  0  0  0  0  0
  152.0237  136.7329  154.4511 H   0  0  0  0  0  0  0  0  0  0  0  0
  153.2423  139.1316  155.1170 H   0  0  0  0  0  0  0  0  0  0  0  0
  1  2  1  0  0  0  0
  1 19  1  0  0  0  0
  1 20  1  0  0  0  0
  1 21  1  0  0  0  0
  2  3  1  0  0  0  0
  2 12  1  0  0  0  0
  2 22  1  0  0  0  0
  3  4  1  0  0  0  0
  3 23  1  0  0  0  0
  4  5  1  0  0  0  0
  4 24  1  0  0  0  0
  4 25  1  0  0  0  0
  5 11  1  0  0  0  0
  5  6  1  0  0  0  0
  5  7  1  0  0  0  0
  6 26  1  0  0  0  0
  7  8  1  0  0  0  0
  7 27  1  0  0  0  0
  7 28  1  0  0  0  0
  8  9  1  0  0  0  0
  8 29  1  0  0  0  0
  8 30  1  0  0  0  0
  9 10  1  0  0  0  0
  9 31  1  0  0  0  0
  9 32  1  0  0  0  0
 10 11  1  0  0  0  0
 10 33  1  0  0  0  0
 10 34  1  0  0  0  0
 11 35  1  0  0  0  0
 11 36  1  0  0  0  0
 12 13  1  0  0  0  0
 12 14  1  0  0  0  0
 12 37  1  0  0  0  0
 13 38  1  0  0  0  0
 13 39  1  0  0  0  0
 13 40  1  0  0  0  0
 14 18  1  0  0  0  0
 14 15  1  0  0  0  0
 15 16  2  0  0  0  0
 15 41  1  0  0  0  0
 16 17  1  0  0  0  0
 16 42  1  0  0  0  0
 17 18  2  0  0  0  0
 17 43  1  0  0  0  0
M  END
> <s_m_source_file>
AV-unprocessed.smi

> <i_m_source_file_index>
3311

> <i_lp_mmshare_version>
43012

> <i_f3d_flags>
0

> <s_epik_input>
bjFbY0hdW2NIXVtjSF1uMVtDQEBIXShbQ0gzXSlbQ0BIXShbQ0gzXSlbTkhdW0NIMl1DMihbT0hdKVtDSDJdW0NIMl1bQ0gyXVtDSDJdW0NIMl0y

> <s_epik_cmdline>
J2VwaWtfcHl0aG9uJywgJy1waCcsICc3LjAnLCAnLXRuJywgJzgnLCAnLW1hJywgJzIwMCcsICctbWV0YWxfYmluZGluZycsICctaW1hZScsICc8aW5maWxlLm1hZT4nLCAnLW9tYWUnLCAnPG91dGZpbGUubWFlPic=

> <r_lp_tautomer_probability>
1

> <r_epik_Ionization_Penalty>
2.222

> <r_epik_Ionization_Penalty_Charging>
0

> <r_epik_Ionization_Penalty_Neutral>
2.222

> <r_epik_State_Penalty>
2.36562

> <r_epik_Charging_Adjusted_Penalty>
2.36562

> <i_epik_Tot_Q>
0

> <i_epik_Tot_abs_Q>
0

> <r_epik_Metal_State_Penalty>
2.36435

> <b_epik_Metal_Only>
0

> <s_lp_Force_Field>
OPLS_2005

> <r_lp_Energy>
30.3398

> <b_lp_Chiralities_Consistent>
1

> <s_lp_Variant>
AV-unprocessed.smi:3311-5

> <Gold.Version>
5.8.1

> <Gold.Id.Protein>
6NUR|6NUR_protein|mol2

> <Gold.PLP.Fitness>
48.0023

> <Gold.PLP.PLP>
-39.6659

> <Gold.PLP.part.hbond>
-2.4210

> <Gold.PLP.part.metal>
0.0000

> <Gold.PLP.part.buried>
-4.5692

> <Gold.PLP.part.nonpolar>
-32.9943

> <Gold.PLP.part.repulsive>
0.0646

> <Gold.PLP.ligand.clash>
0.0000

> <Gold.PLP.ligand.torsion>
0.4021

> <Gold.PLP.Chemscore.Hbond>
2.0000

> <Gold.PLP.Chemscore.CHOScore>
0.9888

> <Gold.PLP.Chemscore.Metal>
0.0000

> <Gold.Chemscore.Hbonds>
donor molecule, donor type, donor heavy atom, donor atom, acceptor molecule, acceptor atom, score
      L1  H     6    26       P1  8028  1.00
      P1  H  7989  7998       L1    18  0.95
      L1  C    15    41       P1  7948  0.97

> <Gold.PLP.Chemscore.Internal.Correction>
0.1740

> <Gold.Rescore>
     Score         DG    S(hbond)    S(metal)    S(lipo)     H(rot)  DE(clash)    DE(int)     intcor
     18.21     -19.26       1.91        0.00     108.48       2.07       0.00       1.05       ----

> <Gold.Chemscore.Fitness>
18.2063

> <Gold.Chemscore.DG>
-19.2552

> <Gold.Chemscore.ZeroCoef>
-5.4800

> <Gold.Chemscore.Hbond>
1.9099

> <Gold.Chemscore.Metal>
0.0000

> <Gold.Chemscore.Lipo>
108.4786

> <Gold.Chemscore.Internal_Hbond>
0.0000

> <Gold.Chemscore.DEClash>
0.0021

> <Gold.Chemscore.DEInternal>
1.0467

> <Gold.Chemscore.Rot>
2.0686

> <Gold.Chemscore.Internal.Correction>
   9.000000E+99

> <Gold.Chemscore.Hbonds>
donor molecule, donor type, donor heavy atom, donor atom, acceptor molecule, acceptor atom, score
      L1  H     6    26       P1  8028  0.98
      P1  H  7989  7998       L1    18  0.15

> <Gold.Chemscore.Hbond.Weighted>
-6.3789

> <Gold.Chemscore.Metal.Weighted>
-0.0000

> <Gold.Chemscore.Lipo.Weighted>
-12.6920

> <Gold.Chemscore.Internal_Hbond.Weighted>
0.0000

> <Gold.Chemscore.DEClash.Weighted>
0.0021

> <Gold.Chemscore.DEInternal.Weighted>
1.0467

> <Gold.Chemscore.Rot.Weighted>
5.2957

> <Gold.Chemscore.Internal.Correction.Weighted>
   9.000000E+99

> <Gold.Protein.RotatedTorsions>
[ 6907 6896 6895 6894 ] final  -22.83 input  -60.11 | X-H torsion
[ 7974 7965 7964 7962 ] final  138.32 input  175.53 | X-H torsion
[ 8008 7997 7996 7995 ] final  154.02 input   59.86 | X-H torsion
[ 10167 10162 10161 10158 ] final   64.61 input  -65.29 | X-H torsion
[ 10718 10713 10712 10709 ] final -165.79 input   66.30 | X-H torsion
[ 10763 10752 10751 10750 ] final -162.51 input  -60.55 | X-H torsion
[ 11005 11000 10999 10996 ] final   34.26 input  -57.11 | X-H torsion

> <Gold.Protein.ActiveResidues>
 VAL166  LYS551  ARG553  GLY616  TRP617  ASP618  TYR619  PRO620  LYS621  CYS622 
 ASP623  PHE694  ASN695  SER759  ASP760  ASP761  ALA762  ILE779  LEU786  VAL792 
 PHE793  MET794  SER795  GLU796  ALA797  LYS798  CYS799  TRP800  GLU811  SER814 

> <Gold.Protein.RotatedAtoms>
  151.2129  135.0488  159.8918 H   0  0  0  0  0  0  0  0  0  0  0  0  # atno 6907 bound_to 6896
  152.5423  134.0725  159.8210 H   0  0  0  0  0  0  0  0  0  0  0  0  # atno 6908 bound_to 6896
  151.0881  133.5289  159.2648 H   0  0  0  0  0  0  0  0  0  0  0  0  # atno 6909 bound_to 6896
  144.9383  139.4962  143.5584 H   0  0  0  0  0  0  0  0  0  0  0  0  # atno 7974 bound_to 7965
  156.2552  140.1978  156.6581 H   0  0  0  0  0  0  0  0  0  0  0  0  # atno 8008 bound_to 7997
  154.6486  140.0575  156.9954 H   0  0  0  0  0  0  0  0  0  0  0  0  # atno 8009 bound_to 7997
  155.1453  140.3246  155.4446 H   0  0  0  0  0  0  0  0  0  0  0  0  # atno 8010 bound_to 7997
  140.1203  144.4737  150.6924 H   0  0  0  0  0  0  0  0  0  0  0  0  # atno 10167 bound_to 10162
  156.6586  130.9036  151.3025 H   0  0  0  0  0  0  0  0  0  0  0  0  # atno 10718 bound_to 10713
  154.7207  135.3025  154.9051 H   0  0  0  0  0  0  0  0  0  0  0  0  # atno 10763 bound_to 10752
  153.9924  135.6717  153.4759 H   0  0  0  0  0  0  0  0  0  0  0  0  # atno 10764 bound_to 10752
  153.0832  135.4998  154.8461 H   0  0  0  0  0  0  0  0  0  0  0  0  # atno 10765 bound_to 10752
  140.2547  134.3262  155.7878 H   0  0  0  0  0  0  0  0  0  0  0  0  # atno 11005 bound_to 11000
  146.3275  139.8384  142.8895 LP  0  0  0  0  0  0  0  0  0  0  0  0  # atno 17320 bound_to 7965
  145.3031  141.0200  143.3597 LP  0  0  0  0  0  0  0  0  0  0  0  0  # atno 17321 bound_to 7965
  140.6876  143.2358  151.5219 LP  0  0  0  0  0  0  0  0  0  0  0  0  # atno 17342 bound_to 10162
  139.5572  144.2246  152.1632 LP  0  0  0  0  0  0  0  0  0  0  0  0  # atno 17343 bound_to 10162
  157.7117  130.9448  150.1113 LP  0  0  0  0  0  0  0  0  0  0  0  0  # atno 17370 bound_to 10713
  156.2029  130.3661  149.8766 LP  0  0  0  0  0  0  0  0  0  0  0  0  # atno 17371 bound_to 10713
  141.2197  133.7374  156.9092 LP  0  0  0  0  0  0  0  0  0  0  0  0  # atno 17394 bound_to 11000
  140.1524  134.9221  157.2609 LP  0  0  0  0  0  0  0  0  0  0  0  0  # atno 17395 bound_to 11000

$$$$
