AV-unprocessed.smi:1863|AV-procd|sdf|7551|dock10
  -GOLD-   22720 9263D 1   1.00000     0.00000
 Structure written by MMmdl.
 37 38  0  0  0  0  0  0  0  0  1 V2000
  153.9824  139.9339  160.2944 C   0  0  0  0  0  0  0  0  0  0  0  0
  153.0393  141.1434  160.3553 C   0  0  1  0  0  0  0  0  0  0  0  0
  153.7326  142.4152  159.8143 C   0  0  0  0  0  0  0  0  0  0  0  0
  152.8010  143.5255  159.6214 N   0  0  0  0  0  0  0  0  0  0  0  0
  152.5343  144.0486  158.2915 C   0  0  0  0  0  0  0  0  0  0  0  0
  151.3165  144.9659  158.4677 C   0  0  0  0  0  0  0  0  0  0  0  0
  151.2243  145.2409  159.9722 C   0  0  0  0  0  0  0  0  0  0  0  0
  152.1263  144.1777  160.5760 C   0  0  0  0  0  0  0  0  0  0  0  0
  152.1938  143.9674  161.7861 O   0  0  0  0  0  0  0  0  0  0  0  0
  151.8445  140.8358  159.5705 N   0  0  0  0  0  0  0  0  0  0  0  0
  151.8352  140.3755  158.3107 C   0  0  0  0  0  0  0  0  0  0  0  0
  152.8555  140.1656  157.6552 O   0  0  0  0  0  0  0  0  0  0  0  0
  150.5800  140.1507  157.8871 N   0  0  0  0  0  0  0  0  0  0  0  0
  150.1490  139.6253  156.6391 C   0  0  0  0  0  0  0  0  0  0  0  0
  148.8721  139.0576  156.4102 C   0  0  0  0  0  0  0  0  0  0  0  0
  148.5714  138.5557  155.1292 C   0  0  0  0  0  0  0  0  0  0  0  0
  149.5586  138.6323  154.1276 C   0  0  0  0  0  0  0  0  0  0  0  0
  150.7841  139.1581  154.3355 N   0  0  0  0  0  0  0  0  0  0  0  0
  151.0653  139.6365  155.5662 C   0  0  0  0  0  0  0  0  0  0  0  0
  154.8781  140.1054  160.8922 H   0  0  0  0  0  0  0  0  0  0  0  0
  154.2999  139.7268  159.2716 H   0  0  0  0  0  0  0  0  0  0  0  0
  153.4978  139.0372  160.6820 H   0  0  0  0  0  0  0  0  0  0  0  0
  152.7710  141.2857  161.4034 H   0  0  0  0  0  0  0  0  0  0  0  0
  154.5018  142.7429  160.5156 H   0  0  0  0  0  0  0  0  0  0  0  0
  154.2528  142.1984  158.8800 H   0  0  0  0  0  0  0  0  0  0  0  0
  153.4028  144.6127  157.9491 H   0  0  0  0  0  0  0  0  0  0  0  0
  152.3398  143.2508  157.5738 H   0  0  0  0  0  0  0  0  0  0  0  0
  151.4106  145.8830  157.8858 H   0  0  0  0  0  0  0  0  0  0  0  0
  150.4137  144.4535  158.1321 H   0  0  0  0  0  0  0  0  0  0  0  0
  151.6119  146.2291  160.2221 H   0  0  0  0  0  0  0  0  0  0  0  0
  150.2030  145.1577  160.3445 H   0  0  0  0  0  0  0  0  0  0  0  0
  150.9560  140.9726  160.0297 H   0  0  0  0  0  0  0  0  0  0  0  0
  149.8494  140.3032  158.5668 H   0  0  0  0  0  0  0  0  0  0  0  0
  148.1276  138.9835  157.1873 H   0  0  0  0  0  0  0  0  0  0  0  0
  147.6066  138.1172  154.9208 H   0  0  0  0  0  0  0  0  0  0  0  0
  149.3609  138.2554  153.1351 H   0  0  0  0  0  0  0  0  0  0  0  0
  152.0563  140.0468  155.6965 H   0  0  0  0  0  0  0  0  0  0  0  0
  1  2  1  0  0  0  0
  1 20  1  0  0  0  0
  1 21  1  0  0  0  0
  1 22  1  0  0  0  0
  2  3  1  0  0  0  0
  2 10  1  0  0  0  0
  2 23  1  0  0  0  0
  3  4  1  0  0  0  0
  3 24  1  0  0  0  0
  3 25  1  0  0  0  0
  4  8  1  0  0  0  0
  4  5  1  0  0  0  0
  5  6  1  0  0  0  0
  5 26  1  0  0  0  0
  5 27  1  0  0  0  0
  6  7  1  0  0  0  0
  6 28  1  0  0  0  0
  6 29  1  0  0  0  0
  7  8  1  0  0  0  0
  7 30  1  0  0  0  0
  7 31  1  0  0  0  0
  8  9  2  0  0  0  0
 10 11  1  0  0  0  0
 10 32  1  0  0  0  0
 11 12  2  0  0  0  0
 11 13  1  0  0  0  0
 13 14  1  0  0  0  0
 13 33  1  0  0  0  0
 14 19  1  0  0  0  0
 14 15  2  0  0  0  0
 15 16  1  0  0  0  0
 15 34  1  0  0  0  0
 16 17  2  0  0  0  0
 16 35  1  0  0  0  0
 17 18  1  0  0  0  0
 17 36  1  0  0  0  0
 18 19  2  0  0  0  0
 19 37  1  0  0  0  0
M  END
> <s_m_source_file>
AV-unprocessed.smi

> <i_m_source_file_index>
1863

> <i_lp_mmshare_version>
43012

> <i_f3d_flags>
0

> <s_epik_input>
Tz1DMVtDSDJdW0NIMl1bQ0gyXU4xW0NIMl1bQ0BASF0oW0NIM10pW05IXUMoPU8pW05IXWMyW2NIXVtjSF1bY0hdbltjSF0y

> <s_epik_cmdline>
J2VwaWtfcHl0aG9uJywgJy1waCcsICc3LjAnLCAnLXRuJywgJzgnLCAnLW1hJywgJzIwMCcsICctbWV0YWxfYmluZGluZycsICctaW1hZScsICc8aW5maWxlLm1hZT4nLCAnLW9tYWUnLCAnPG91dGZpbGUubWFlPic=

> <r_epik_Ionization_Penalty>
0.0047799

> <r_epik_Ionization_Penalty_Charging>
0

> <r_epik_Ionization_Penalty_Neutral>
0.0047799

> <r_epik_State_Penalty>
0.0034394

> <r_epik_Charging_Adjusted_Penalty>
0.0034394

> <i_epik_Tot_Q>
0

> <i_epik_Tot_abs_Q>
0

> <r_epik_Metal_State_Penalty>
-0

> <b_epik_Metal_Only>
0

> <s_lp_Force_Field>
OPLS_2005

> <r_lp_Energy>
21.1293

> <b_lp_Chiralities_Consistent>
1

> <s_lp_Variant>
AV-unprocessed.smi:1863-2

> <Gold.Version>
5.8.1

> <Gold.Id.Protein>
6NUR|6NUR_protein|mol2

> <Gold.PLP.Fitness>
49.0316

> <Gold.PLP.PLP>
-39.2221

> <Gold.PLP.part.hbond>
-2.0000

> <Gold.PLP.part.metal>
0.0000

> <Gold.PLP.part.buried>
-4.3219

> <Gold.PLP.part.nonpolar>
-33.6663

> <Gold.PLP.part.repulsive>
0.6172

> <Gold.PLP.ligand.clash>
0.0000

> <Gold.PLP.ligand.torsion>
0.2572

> <Gold.PLP.Chemscore.Hbond>
1.6420

> <Gold.PLP.Chemscore.CHOScore>
1.7971

> <Gold.PLP.Chemscore.Metal>
0.0000

> <Gold.Chemscore.Hbonds>
donor molecule, donor type, donor heavy atom, donor atom, acceptor molecule, acceptor atom, score
      P1  H  7989  7998       L1    18  0.44
      P1  H  7997  8008       L1    12  1.00
      L1  C    17    36       P1  7948  1.00
      L1  C    17    36       P1  7957  0.50

> <Gold.PLP.Chemscore.Internal.Correction>
0.0065

> <Gold.Rescore>
     Score         DG    S(hbond)    S(metal)    S(lipo)     H(rot)  DE(clash)    DE(int)     intcor
     12.54     -15.36       1.03        0.00      88.87       1.54       0.02       2.80       ----

> <Gold.Chemscore.Fitness>
12.5388

> <Gold.Chemscore.DG>
-15.3572

> <Gold.Chemscore.ZeroCoef>
-5.4800

> <Gold.Chemscore.Hbond>
1.0268

> <Gold.Chemscore.Metal>
0.0000

> <Gold.Chemscore.Lipo>
88.8662

> <Gold.Chemscore.Internal_Hbond>
0.0000

> <Gold.Chemscore.DEClash>
0.0183

> <Gold.Chemscore.DEInternal>
2.8001

> <Gold.Chemscore.Rot>
1.5428

> <Gold.Chemscore.Internal.Correction>
   9.000000E+99

> <Gold.Chemscore.Hbonds>
donor molecule, donor type, donor heavy atom, donor atom, acceptor molecule, acceptor atom, score
      P1  H  7989  7998       L1    18  0.02
      P1  H  7997  8008       L1    12  0.95

> <Gold.Chemscore.Hbond.Weighted>
-3.4295

> <Gold.Chemscore.Metal.Weighted>
-0.0000

> <Gold.Chemscore.Lipo.Weighted>
-10.3974

> <Gold.Chemscore.Internal_Hbond.Weighted>
0.0000

> <Gold.Chemscore.DEClash.Weighted>
0.0183

> <Gold.Chemscore.DEInternal.Weighted>
2.8001

> <Gold.Chemscore.Rot.Weighted>
3.9497

> <Gold.Chemscore.Internal.Correction.Weighted>
   9.000000E+99

> <Gold.Protein.RotatedTorsions>
[ 6907 6896 6895 6894 ] final  101.94 input  -60.11 | X-H torsion
[ 7974 7965 7964 7962 ] final  -88.78 input  175.53 | X-H torsion
[ 8008 7997 7996 7995 ] final  -73.33 input   59.86 | X-H torsion
[ 10167 10162 10161 10158 ] final -167.31 input  -65.29 | X-H torsion
[ 10718 10713 10712 10709 ] final  -14.75 input   66.30 | X-H torsion
[ 10763 10752 10751 10750 ] final   43.29 input  -60.55 | X-H torsion
[ 11005 11000 10999 10996 ] final  -29.04 input  -57.11 | X-H torsion

> <Gold.Protein.ActiveResidues>
 VAL166  LYS551  ARG553  GLY616  TRP617  ASP618  TYR619  PRO620  LYS621  CYS622 
 ASP623  PHE694  ASN695  SER759  ASP760  ASP761  ALA762  ILE779  LEU786  VAL792 
 PHE793  MET794  SER795  GLU796  ALA797  LYS798  CYS799  TRP800  GLU811  SER814 

> <Gold.Protein.RotatedAtoms>
  152.5336  134.0050  159.7911 H   0  0  0  0  0  0  0  0  0  0  0  0  # atno 6907 bound_to 6896
  151.0262  133.5824  159.2673 H   0  0  0  0  0  0  0  0  0  0  0  0  # atno 6908 bound_to 6896
  151.2845  135.0731  159.9235 H   0  0  0  0  0  0  0  0  0  0  0  0  # atno 6909 bound_to 6896
  145.4486  140.9560  143.2035 H   0  0  0  0  0  0  0  0  0  0  0  0  # atno 7974 bound_to 7965
  154.5238  140.0781  156.8221 H   0  0  0  0  0  0  0  0  0  0  0  0  # atno 8008 bound_to 7997
  155.3519  140.3413  155.4221 H   0  0  0  0  0  0  0  0  0  0  0  0  # atno 8009 bound_to 7997
  156.1710  140.1619  156.8434 H   0  0  0  0  0  0  0  0  0  0  0  0  # atno 8010 bound_to 7997
  139.6058  144.0917  152.1791 H   0  0  0  0  0  0  0  0  0  0  0  0  # atno 10167 bound_to 10162
  156.6116  130.4851  149.6199 H   0  0  0  0  0  0  0  0  0  0  0  0  # atno 10718 bound_to 10713
  152.9864  135.6106  154.3087 H   0  0  0  0  0  0  0  0  0  0  0  0  # atno 10763 bound_to 10752
  154.2804  135.2777  155.2701 H   0  0  0  0  0  0  0  0  0  0  0  0  # atno 10764 bound_to 10752
  154.5043  135.5858  153.6611 H   0  0  0  0  0  0  0  0  0  0  0  0  # atno 10765 bound_to 10752
  140.9261  133.7367  156.0870 H   0  0  0  0  0  0  0  0  0  0  0  0  # atno 11005 bound_to 11000
  144.8076  139.6022  143.7044 LP  0  0  0  0  0  0  0  0  0  0  0  0  # atno 17320 bound_to 7965
  146.2517  139.6214  142.9422 LP  0  0  0  0  0  0  0  0  0  0  0  0  # atno 17321 bound_to 7965
  140.0523  144.5922  150.7326 LP  0  0  0  0  0  0  0  0  0  0  0  0  # atno 17342 bound_to 10162
  140.7283  143.2661  151.4041 LP  0  0  0  0  0  0  0  0  0  0  0  0  # atno 17343 bound_to 10162
  156.2385  130.6837  151.1533 LP  0  0  0  0  0  0  0  0  0  0  0  0  # atno 17370 bound_to 10713
  157.7253  131.0654  150.5960 LP  0  0  0  0  0  0  0  0  0  0  0  0  # atno 17371 bound_to 10713
  140.7924  134.3602  157.5461 LP  0  0  0  0  0  0  0  0  0  0  0  0  # atno 17394 bound_to 11000
  139.8786  134.9148  156.3116 LP  0  0  0  0  0  0  0  0  0  0  0  0  # atno 17395 bound_to 11000

$$$$
