AV-unprocessed.smi:3333|AV-procd|sdf|12832|dock10
  -GOLD-   2272019213D 1   1.00000     0.00000
 Structure written by MMmdl.
 41 43  0  0  0  0  0  0  0  0  1 V2000
  147.4072  143.1056  158.9453 C   0  0  0  0  0  0  0  0  0  0  0  0
  146.0917  142.8426  158.2047 C   0  0  0  0  0  0  0  0  0  0  0  0
  146.3078  142.3570  156.8103 C   0  0  0  0  0  0  0  0  0  0  0  0
  147.5169  142.1457  156.2841 N   0  0  0  0  0  0  0  0  0  0  0  0
  147.4607  141.7389  154.9467 C   0  0  0  0  0  0  0  0  0  0  0  0
  148.7315  141.4656  154.1918 C   0  0  0  0  0  0  0  0  0  0  0  0
  149.9391  141.3456  155.1304 C   0  0  0  0  0  0  0  0  0  0  0  0
  150.7077  140.3851  155.0603 O   0  0  0  0  0  0  0  0  0  0  0  0
  150.0991  142.3452  156.0112 N   0  0  0  0  0  0  0  0  0  0  0  0
  151.1743  142.4299  156.9937 C   0  0  0  0  0  0  0  0  0  0  0  0
  151.2380  143.8183  157.6657 C   0  0  1  0  0  0  0  0  0  0  0  0
  150.3437  143.9609  158.9147 C   0  0  0  0  0  0  0  0  0  0  0  0
  151.3086  144.5494  159.9616 C   0  0  1  0  0  0  0  0  0  0  0  0
  152.2788  143.4486  160.4277 C   0  0  0  0  0  0  0  0  0  0  0  0
  153.2059  143.2784  159.2102 C   0  0  0  0  0  0  0  0  0  0  0  0
  152.6206  144.2771  158.1904 C   0  0  2  0  0  0  0  0  0  0  0  0
  152.2167  145.4278  159.1072 C   0  0  0  0  0  0  0  0  0  0  0  0
  146.1778  141.6366  154.4672 C   0  0  0  0  0  0  0  0  0  0  0  0
  144.9966  142.0735  155.6710 S   0  0  0  0  0  0  0  0  0  0  0  0
  147.2187  143.4633  159.9576 H   0  0  0  0  0  0  0  0  0  0  0  0
  148.0048  143.8586  158.4307 H   0  0  0  0  0  0  0  0  0  0  0  0
  148.0047  142.1962  159.0188 H   0  0  0  0  0  0  0  0  0  0  0  0
  145.4994  142.1053  158.7481 H   0  0  0  0  0  0  0  0  0  0  0  0
  145.4971  143.7559  158.1689 H   0  0  0  0  0  0  0  0  0  0  0  0
  148.6481  140.5419  153.6181 H   0  0  0  0  0  0  0  0  0  0  0  0
  148.9167  142.2620  153.4695 H   0  0  0  0  0  0  0  0  0  0  0  0
  149.4286  143.1002  156.0015 H   0  0  0  0  0  0  0  0  0  0  0  0
  151.0421  141.6569  157.7523 H   0  0  0  0  0  0  0  0  0  0  0  0
  152.1143  142.1940  156.4959 H   0  0  0  0  0  0  0  0  0  0  0  0
  150.9038  144.5556  156.9334 H   0  0  0  0  0  0  0  0  0  0  0  0
  149.5175  144.6449  158.7160 H   0  0  0  0  0  0  0  0  0  0  0  0
  149.9156  143.0129  159.2433 H   0  0  0  0  0  0  0  0  0  0  0  0
  150.8049  145.0629  160.7807 H   0  0  0  0  0  0  0  0  0  0  0  0
  152.8477  143.7732  161.3000 H   0  0  0  0  0  0  0  0  0  0  0  0
  151.7616  142.5249  160.6902 H   0  0  0  0  0  0  0  0  0  0  0  0
  154.2263  143.5602  159.4729 H   0  0  0  0  0  0  0  0  0  0  0  0
  153.2398  142.2534  158.8435 H   0  0  0  0  0  0  0  0  0  0  0  0
  153.3184  144.5525  157.3990 H   0  0  0  0  0  0  0  0  0  0  0  0
  151.6838  146.2290  158.5920 H   0  0  0  0  0  0  0  0  0  0  0  0
  153.0536  145.8551  159.6628 H   0  0  0  0  0  0  0  0  0  0  0  0
  145.8580  141.3454  153.4777 H   0  0  0  0  0  0  0  0  0  0  0  0
  1  2  1  0  0  0  0
  1 20  1  0  0  0  0
  1 21  1  0  0  0  0
  1 22  1  0  0  0  0
  2  3  1  0  0  0  0
  2 23  1  0  0  0  0
  2 24  1  0  0  0  0
  3 19  1  0  0  0  0
  3  4  2  0  0  0  0
  4  5  1  0  0  0  0
  5  6  1  0  0  0  0
  5 18  2  0  0  0  0
  6  7  1  0  0  0  0
  6 25  1  0  0  0  0
  6 26  1  0  0  0  0
  7  8  2  0  0  0  0
  7  9  1  0  0  0  0
  9 10  1  0  0  0  0
  9 27  1  0  0  0  0
 10 11  1  0  0  0  0
 10 28  1  0  0  0  0
 10 29  1  0  0  0  0
 11 16  1  0  0  0  0
 11 12  1  0  0  0  0
 11 30  1  0  0  0  0
 12 13  1  0  0  0  0
 12 31  1  0  0  0  0
 12 32  1  0  0  0  0
 13 17  1  0  0  0  0
 13 14  1  0  0  0  0
 13 33  1  0  0  0  0
 14 15  1  0  0  0  0
 14 34  1  0  0  0  0
 14 35  1  0  0  0  0
 15 16  1  0  0  0  0
 15 36  1  0  0  0  0
 15 37  1  0  0  0  0
 16 17  1  0  0  0  0
 16 38  1  0  0  0  0
 17 39  1  0  0  0  0
 17 40  1  0  0  0  0
 18 19  1  0  0  0  0
 18 41  1  0  0  0  0
M  END
> <s_m_source_file>
AV-unprocessed.smi

> <i_m_source_file_index>
3333

> <i_lp_mmshare_version>
43012

> <i_f3d_flags>
0

> <s_epik_input>
W0NIM11bQ0gyXWMxbmMoW2NIXXMxKVtDSDJdQyg9TylbTkhdW0NIMl1bQ0BIXShbQ0gyXVtDQEBIXTIzKVtDQEBIXShbQ0gyXTMpW0NIMl1bQ0gyXTI=

> <s_epik_cmdline>
J2VwaWtfcHl0aG9uJywgJy1waCcsICc3LjAnLCAnLXRuJywgJzgnLCAnLW1hJywgJzIwMCcsICctbWV0YWxfYmluZGluZycsICctaW1hZScsICc8aW5maWxlLm1hZT4nLCAnLW9tYWUnLCAnPG91dGZpbGUubWFlPic=

> <r_lp_tautomer_probability>
1

> <r_epik_Ionization_Penalty>
6.68371e-05

> <r_epik_Ionization_Penalty_Charging>
0

> <r_epik_Ionization_Penalty_Neutral>
6.68371e-05

> <r_epik_State_Penalty>
-0

> <r_epik_Charging_Adjusted_Penalty>
0

> <i_epik_Tot_Q>
0

> <i_epik_Tot_abs_Q>
0

> <r_epik_Metal_State_Penalty>
-0

> <b_epik_Metal_Only>
0

> <s_lp_Force_Field>
OPLS_2005

> <r_lp_Energy>
44.5958

> <b_lp_Chiralities_Consistent>
1

> <s_lp_Variant>
AV-unprocessed.smi:3333-2

> <Gold.Version>
5.8.1

> <Gold.Id.Protein>
6NUR|6NUR_protein|mol2

> <Gold.PLP.Fitness>
51.1259

> <Gold.PLP.PLP>
-43.4020

> <Gold.PLP.part.hbond>
-2.0000

> <Gold.PLP.part.metal>
0.0000

> <Gold.PLP.part.buried>
-4.4299

> <Gold.PLP.part.nonpolar>
-38.2829

> <Gold.PLP.part.repulsive>
1.1831

> <Gold.PLP.ligand.clash>
0.0000

> <Gold.PLP.ligand.torsion>
0.6517

> <Gold.PLP.Chemscore.Hbond>
2.0000

> <Gold.PLP.Chemscore.CHOScore>
1.0000

> <Gold.PLP.Chemscore.Metal>
0.0000

> <Gold.Chemscore.Hbonds>
donor molecule, donor type, donor heavy atom, donor atom, acceptor molecule, acceptor atom, score
      L1  H     9    27       P1  8028  1.00
      P1  H  7989  7998       L1     8  0.90
      L1  C    18    41       P1 10175  0.99

> <Gold.PLP.Chemscore.Internal.Correction>
0.0272

> <Gold.Rescore>
     Score         DG    S(hbond)    S(metal)    S(lipo)     H(rot)  DE(clash)    DE(int)     intcor
     19.64     -20.72       1.50        0.00     118.44       1.42       0.46       0.62       ----

> <Gold.Chemscore.Fitness>
19.6376

> <Gold.Chemscore.DG>
-20.7191

> <Gold.Chemscore.ZeroCoef>
-5.4800

> <Gold.Chemscore.Hbond>
1.5040

> <Gold.Chemscore.Metal>
0.0000

> <Gold.Chemscore.Lipo>
118.4432

> <Gold.Chemscore.Internal_Hbond>
0.0000

> <Gold.Chemscore.DEClash>
0.4621

> <Gold.Chemscore.DEInternal>
0.6194

> <Gold.Chemscore.Rot>
1.4227

> <Gold.Chemscore.Internal.Correction>
   9.000000E+99

> <Gold.Chemscore.Hbonds>
donor molecule, donor type, donor heavy atom, donor atom, acceptor molecule, acceptor atom, score
      L1  H     9    27       P1  8028  0.98
      P1  H  7989  7998       L1     8  0.17

> <Gold.Chemscore.Hbond.Weighted>
-5.0234

> <Gold.Chemscore.Metal.Weighted>
-0.0000

> <Gold.Chemscore.Lipo.Weighted>
-13.8579

> <Gold.Chemscore.Internal_Hbond.Weighted>
0.0000

> <Gold.Chemscore.DEClash.Weighted>
0.4621

> <Gold.Chemscore.DEInternal.Weighted>
0.6194

> <Gold.Chemscore.Rot.Weighted>
3.6421

> <Gold.Chemscore.Internal.Correction.Weighted>
   9.000000E+99

> <Gold.Protein.RotatedTorsions>
[ 6907 6896 6895 6894 ] final  -88.90 input  -60.11 | X-H torsion
[ 7974 7965 7964 7962 ] final  -58.62 input  175.53 | X-H torsion
[ 8008 7997 7996 7995 ] final   39.62 input   59.86 | X-H torsion
[ 10167 10162 10161 10158 ] final  173.00 input  -65.29 | X-H torsion
[ 10718 10713 10712 10709 ] final   82.34 input   66.30 | X-H torsion
[ 10763 10752 10751 10750 ] final   54.17 input  -60.55 | X-H torsion
[ 11005 11000 10999 10996 ] final  -66.96 input  -57.11 | X-H torsion

> <Gold.Protein.ActiveResidues>
 VAL166  LYS551  ARG553  GLY616  TRP617  ASP618  TYR619  PRO620  LYS621  CYS622 
 ASP623  PHE694  ASN695  SER759  ASP760  ASP761  ALA762  ILE779  LEU786  VAL792 
 PHE793  MET794  SER795  GLU796  ALA797  LYS798  CYS799  TRP800  GLU811  SER814 

> <Gold.Protein.RotatedAtoms>
  150.6871  134.2670  159.4572 H   0  0  0  0  0  0  0  0  0  0  0  0  # atno 6907 bound_to 6896
  152.0595  134.9600  160.0584 H   0  0  0  0  0  0  0  0  0  0  0  0  # atno 6908 bound_to 6896
  152.1033  133.4226  159.4634 H   0  0  0  0  0  0  0  0  0  0  0  0  # atno 6909 bound_to 6896
  145.8371  140.8441  143.0053 H   0  0  0  0  0  0  0  0  0  0  0  0  # atno 7974 bound_to 7965
  155.2397  140.3344  155.4293 H   0  0  0  0  0  0  0  0  0  0  0  0  # atno 8008 bound_to 7997
  156.2261  140.1830  156.7404 H   0  0  0  0  0  0  0  0  0  0  0  0  # atno 8009 bound_to 7997
  154.5901  140.0639  156.9212 H   0  0  0  0  0  0  0  0  0  0  0  0  # atno 8010 bound_to 7997
  139.5094  144.3310  152.0111 H   0  0  0  0  0  0  0  0  0  0  0  0  # atno 10167 bound_to 10162
  157.6855  131.0043  150.2360 H   0  0  0  0  0  0  0  0  0  0  0  0  # atno 10718 bound_to 10713
  152.9802  135.5754  154.4861 H   0  0  0  0  0  0  0  0  0  0  0  0  # atno 10763 bound_to 10752
  154.4403  135.2775  155.1854 H   0  0  0  0  0  0  0  0  0  0  0  0  # atno 10764 bound_to 10752
  154.3525  135.6206  153.5703 H   0  0  0  0  0  0  0  0  0  0  0  0  # atno 10765 bound_to 10752
  141.1496  133.6709  156.6219 H   0  0  0  0  0  0  0  0  0  0  0  0  # atno 11005 bound_to 11000
  144.6736  140.0758  143.7471 LP  0  0  0  0  0  0  0  0  0  0  0  0  # atno 17320 bound_to 7965
  145.9506  139.2731  143.1214 LP  0  0  0  0  0  0  0  0  0  0  0  0  # atno 17321 bound_to 7965
  140.2750  144.3923  150.6138 LP  0  0  0  0  0  0  0  0  0  0  0  0  # atno 17342 bound_to 10162
  140.6061  143.2168  151.6979 LP  0  0  0  0  0  0  0  0  0  0  0  0  # atno 17343 bound_to 10162
  156.2983  130.3755  149.7775 LP  0  0  0  0  0  0  0  0  0  0  0  0  # atno 17370 bound_to 10713
  156.5413  130.8301  151.3270 LP  0  0  0  0  0  0  0  0  0  0  0  0  # atno 17371 bound_to 10713
  140.3533  134.7749  157.4483 LP  0  0  0  0  0  0  0  0  0  0  0  0  # atno 17394 bound_to 11000
  140.0843  134.5688  155.8508 LP  0  0  0  0  0  0  0  0  0  0  0  0  # atno 17395 bound_to 11000

$$$$
