AV-unprocessed.smi:824|AV-procd|sdf|3848|dock2
  -GOLD-   22720 1293D 1   1.00000     0.00000
 Structure written by MMmdl.
 52 53  0  0  0  0  0  0  0  0  1 V2000
  155.8165  139.3117  161.8356 C   0  0  0  0  0  0  0  0  0  0  0  0
  154.9176  140.5232  162.0102 C   0  0  0  0  0  0  0  0  0  0  0  0
  154.2593  140.9609  160.8543 N   0  0  0  0  0  0  0  0  0  0  0  0
  153.4734  141.9907  160.8993 C   0  0  0  0  0  0  0  0  0  0  0  0
  152.7577  142.5215  159.8234 N   0  0  0  0  0  0  0  0  0  0  0  0
  151.7665  141.7285  159.0913 C   0  0  0  0  0  0  0  0  0  0  0  0
  151.5298  142.2919  157.6800 C   0  0  0  0  0  0  0  0  0  0  0  0
  151.1553  143.6598  157.7660 O   0  0  0  0  0  0  0  0  0  0  0  0
  152.1825  144.4404  158.3608 C   0  0  0  0  0  0  0  0  0  0  0  0
  152.4418  143.9497  159.7949 C   0  0  0  0  0  0  0  0  0  0  0  0
  153.2683  142.6643  162.1085 N   0  0  0  0  0  0  0  0  0  0  0  0
  153.8509  142.3183  163.2775 C   0  0  0  0  0  0  0  0  0  0  0  0
  153.6175  142.9563  164.3030 O   0  0  0  0  0  0  0  0  0  0  0  0
  154.7462  141.1522  163.2063 C   0  0  0  0  0  0  0  0  0  0  0  0
  155.4546  140.7204  164.4873 C   0  0  0  0  0  0  0  0  0  0  0  0
  156.5590  141.7136  164.8996 C   0  0  0  0  0  0  0  0  0  0  0  0
  156.0336  142.9680  165.6216 C   0  0  0  0  0  0  0  0  0  0  0  0
  156.2316  144.0775  165.1227 O   0  0  0  0  0  0  0  0  0  0  0  0
  155.3631  142.8114  166.7888 N   0  0  0  0  0  0  0  0  0  0  0  0
  155.1501  141.4995  167.4089 C   0  0  0  0  0  0  0  0  0  0  0  0
  154.8435  143.9663  167.5383 C   0  0  0  0  0  0  0  0  0  0  0  0
  155.5942  144.2143  168.8675 C   0  0  0  0  0  0  0  0  0  0  0  0
  157.1047  144.3387  168.6205 C   0  0  0  0  0  0  0  0  0  0  0  0
  155.3072  143.1310  169.9213 C   0  0  0  0  0  0  0  0  0  0  0  0
  152.6436  143.4571  162.1174 H   0  0  0  0  0  0  0  0  0  0  0  0
  155.5715  138.5412  162.5669 H   0  0  0  0  0  0  0  0  0  0  0  0
  156.8621  139.5931  161.9632 H   0  0  0  0  0  0  0  0  0  0  0  0
  155.7050  138.8753  160.8421 H   0  0  0  0  0  0  0  0  0  0  0  0
  152.0676  140.6848  159.0027 H   0  0  0  0  0  0  0  0  0  0  0  0
  150.8318  141.7367  159.6536 H   0  0  0  0  0  0  0  0  0  0  0  0
  152.4234  142.1833  157.0631 H   0  0  0  0  0  0  0  0  0  0  0  0
  150.7328  141.7377  157.1839 H   0  0  0  0  0  0  0  0  0  0  0  0
  153.0926  144.3860  157.7609 H   0  0  0  0  0  0  0  0  0  0  0  0
  151.8721  145.4851  158.3726 H   0  0  0  0  0  0  0  0  0  0  0  0
  151.5632  144.1286  160.4160 H   0  0  0  0  0  0  0  0  0  0  0  0
  153.2589  144.5309  160.2246 H   0  0  0  0  0  0  0  0  0  0  0  0
  154.7305  140.6162  165.2953 H   0  0  0  0  0  0  0  0  0  0  0  0
  155.8729  139.7220  164.3485 H   0  0  0  0  0  0  0  0  0  0  0  0
  157.2688  141.2093  165.5563 H   0  0  0  0  0  0  0  0  0  0  0  0
  157.1085  142.0201  164.0090 H   0  0  0  0  0  0  0  0  0  0  0  0
  156.0960  141.0803  167.7534 H   0  0  0  0  0  0  0  0  0  0  0  0
  154.6959  140.7997  166.7068 H   0  0  0  0  0  0  0  0  0  0  0  0
  154.4822  141.5502  168.2692 H   0  0  0  0  0  0  0  0  0  0  0  0
  154.8789  144.8675  166.9247 H   0  0  0  0  0  0  0  0  0  0  0  0
  153.7817  143.8131  167.7404 H   0  0  0  0  0  0  0  0  0  0  0  0
  155.2587  145.1672  169.2783 H   0  0  0  0  0  0  0  0  0  0  0  0
  157.5175  143.4139  168.2156 H   0  0  0  0  0  0  0  0  0  0  0  0
  157.6371  144.5642  169.5448 H   0  0  0  0  0  0  0  0  0  0  0  0
  157.3238  145.1389  167.9129 H   0  0  0  0  0  0  0  0  0  0  0  0
  155.5917  142.1422  169.5603 H   0  0  0  0  0  0  0  0  0  0  0  0
  154.2501  143.0993  170.1859 H   0  0  0  0  0  0  0  0  0  0  0  0
  155.8623  143.3212  170.8401 H   0  0  0  0  0  0  0  0  0  0  0  0
  1  2  1  0  0  0  0
  1 26  1  0  0  0  0
  1 27  1  0  0  0  0
  1 28  1  0  0  0  0
  2 14  2  0  0  0  0
  2  3  1  0  0  0  0
  3  4  2  0  0  0  0
  4  5  1  0  0  0  0
  4 11  1  0  0  0  0
  5 10  1  0  0  0  0
  5  6  1  0  0  0  0
  6  7  1  0  0  0  0
  6 29  1  0  0  0  0
  6 30  1  0  0  0  0
  7  8  1  0  0  0  0
  7 31  1  0  0  0  0
  7 32  1  0  0  0  0
  8  9  1  0  0  0  0
  9 10  1  0  0  0  0
  9 33  1  0  0  0  0
  9 34  1  0  0  0  0
 10 35  1  0  0  0  0
 10 36  1  0  0  0  0
 11 25  1  0  0  0  0
 11 12  1  0  0  0  0
 12 13  2  0  0  0  0
 12 14  1  0  0  0  0
 14 15  1  0  0  0  0
 15 16  1  0  0  0  0
 15 37  1  0  0  0  0
 15 38  1  0  0  0  0
 16 17  1  0  0  0  0
 16 39  1  0  0  0  0
 16 40  1  0  0  0  0
 17 18  2  0  0  0  0
 17 19  1  0  0  0  0
 19 20  1  0  0  0  0
 19 21  1  0  0  0  0
 20 41  1  0  0  0  0
 20 42  1  0  0  0  0
 20 43  1  0  0  0  0
 21 22  1  0  0  0  0
 21 44  1  0  0  0  0
 21 45  1  0  0  0  0
 22 23  1  0  0  0  0
 22 24  1  0  0  0  0
 22 46  1  0  0  0  0
 23 47  1  0  0  0  0
 23 48  1  0  0  0  0
 23 49  1  0  0  0  0
 24 50  1  0  0  0  0
 24 51  1  0  0  0  0
 24 52  1  0  0  0  0
M  END
> <s_m_source_file>
AV-unprocessed.smi

> <i_m_source_file_index>
824

> <i_lp_mmshare_version>
43012

> <i_f3d_flags>
0

> <s_epik_input>
W0NIMl0xW0NIMl1PW0NIMl1bQ0gyXU4xYyhuYzJbQ0gzXSlbbkhdYyg9TyljMltDSDJdW0NIMl1DKD1PKU4oW0NIM10pW0NIMl1bQ0hdKFtDSDNdKVtDSDNd

> <s_epik_cmdline>
J2VwaWtfcHl0aG9uJywgJy1waCcsICc3LjAnLCAnLXRuJywgJzgnLCAnLW1hJywgJzIwMCcsICctbWV0YWxfYmluZGluZycsICctaW1hZScsICc8aW5maWxlLm1hZT4nLCAnLW9tYWUnLCAnPG91dGZpbGUubWFlPic=

> <r_lp_tautomer_probability>
0.878553

> <r_epik_Ionization_Penalty>
0.00115806

> <r_epik_Ionization_Penalty_Charging>
0.00113132

> <r_epik_Ionization_Penalty_Neutral>
2.67354e-05

> <r_epik_State_Penalty>
0.0423856

> <r_epik_Charging_Adjusted_Penalty>
0.0435169

> <i_epik_Tot_Q>
0

> <i_epik_Tot_abs_Q>
0

> <r_epik_Metal_State_Penalty>
1.05917

> <b_epik_Metal_Only>
0

> <s_lp_Force_Field>
OPLS_2005

> <r_lp_Energy>
33.2944

> <b_lp_Chiralities_Consistent>
1

> <s_lp_Variant>
AV-unprocessed.smi:824-1

> <Gold.Version>
5.8.1

> <Gold.Id.Protein>
6NUR|6NUR_protein|mol2

> <Gold.PLP.Fitness>
47.9112

> <Gold.PLP.PLP>
-49.6560

> <Gold.PLP.part.hbond>
-2.9424

> <Gold.PLP.part.metal>
0.0000

> <Gold.PLP.part.buried>
-1.1368

> <Gold.PLP.part.nonpolar>
-45.0327

> <Gold.PLP.part.repulsive>
0.3213

> <Gold.PLP.ligand.clash>
0.0057

> <Gold.PLP.ligand.torsion>
1.0699

> <Gold.PLP.Chemscore.Hbond>
0.0000

> <Gold.PLP.Chemscore.CHOScore>
0.0000

> <Gold.PLP.Chemscore.Metal>
0.0000

> <Gold.PLP.Chemscore.Internal.Correction>
0.4008

> <Gold.Rescore>
     Score         DG    S(hbond)    S(metal)    S(lipo)     H(rot)  DE(clash)    DE(int)     intcor
      9.27     -14.03       0.00        0.00     110.47       1.71       0.87       3.89       ----

> <Gold.Chemscore.Fitness>
9.2750

> <Gold.Chemscore.DG>
-14.0292

> <Gold.Chemscore.ZeroCoef>
-5.4800

> <Gold.Chemscore.Hbond>
0.0000

> <Gold.Chemscore.Metal>
0.0000

> <Gold.Chemscore.Lipo>
110.4712

> <Gold.Chemscore.Internal_Hbond>
0.0000

> <Gold.Chemscore.DEClash>
0.8688

> <Gold.Chemscore.DEInternal>
3.8855

> <Gold.Chemscore.Rot>
1.7093

> <Gold.Chemscore.Internal.Correction>
   9.000000E+99

> <Gold.Chemscore.Hbond.Weighted>
-0.0000

> <Gold.Chemscore.Metal.Weighted>
-0.0000

> <Gold.Chemscore.Lipo.Weighted>
-12.9251

> <Gold.Chemscore.Internal_Hbond.Weighted>
0.0000

> <Gold.Chemscore.DEClash.Weighted>
0.8688

> <Gold.Chemscore.DEInternal.Weighted>
3.8855

> <Gold.Chemscore.Rot.Weighted>
4.3759

> <Gold.Chemscore.Internal.Correction.Weighted>
   9.000000E+99

> <Gold.Protein.RotatedTorsions>
[ 6907 6896 6895 6894 ] final  105.78 input  -60.11 | X-H torsion
[ 7974 7965 7964 7962 ] final -118.68 input  175.53 | X-H torsion
[ 8008 7997 7996 7995 ] final -140.75 input   59.86 | X-H torsion
[ 10167 10162 10161 10158 ] final  134.66 input  -65.29 | X-H torsion
[ 10718 10713 10712 10709 ] final   70.45 input   66.30 | X-H torsion
[ 10763 10752 10751 10750 ] final  -93.39 input  -60.55 | X-H torsion
[ 11005 11000 10999 10996 ] final  -62.28 input  -57.11 | X-H torsion

> <Gold.Protein.ActiveResidues>
 VAL166  LYS551  ARG553  GLY616  TRP617  ASP618  TYR619  PRO620  LYS621  CYS622 
 ASP623  PHE694  ASN695  SER759  ASP760  ASP761  ALA762  ILE779  LEU786  VAL792 
 PHE793  MET794  SER795  GLU796  ALA797  LYS798  CYS799  TRP800  GLU811  SER814 

> <Gold.Protein.RotatedAtoms>
  152.5218  133.9478  159.7657 H   0  0  0  0  0  0  0  0  0  0  0  0  # atno 6907 bound_to 6896
  150.9794  133.6252  159.2732 H   0  0  0  0  0  0  0  0  0  0  0  0  # atno 6908 bound_to 6896
  151.3435  135.0874  159.9432 H   0  0  0  0  0  0  0  0  0  0  0  0  # atno 6909 bound_to 6896
  145.0711  140.8360  143.4095 H   0  0  0  0  0  0  0  0  0  0  0  0  # atno 7974 bound_to 7965
  155.4664  140.0549  157.2985 H   0  0  0  0  0  0  0  0  0  0  0  0  # atno 8008 bound_to 7997
  154.4716  140.2043  155.9935 H   0  0  0  0  0  0  0  0  0  0  0  0  # atno 8009 bound_to 7997
  156.1065  140.3211  155.8017 H   0  0  0  0  0  0  0  0  0  0  0  0  # atno 8010 bound_to 7997
  139.5247  144.6556  151.5171 H   0  0  0  0  0  0  0  0  0  0  0  0  # atno 10167 bound_to 10162
  157.6400  130.9478  150.0653 H   0  0  0  0  0  0  0  0  0  0  0  0  # atno 10718 bound_to 10713
  154.6954  135.5196  153.8451 H   0  0  0  0  0  0  0  0  0  0  0  0  # atno 10763 bound_to 10752
  153.0663  135.6586  154.0355 H   0  0  0  0  0  0  0  0  0  0  0  0  # atno 10764 bound_to 10752
  154.0223  135.2992  155.3359 H   0  0  0  0  0  0  0  0  0  0  0  0  # atno 10765 bound_to 10752
  141.1354  133.6638  156.5504 H   0  0  0  0  0  0  0  0  0  0  0  0  # atno 11005 bound_to 11000
  145.1291  139.2643  143.5549 LP  0  0  0  0  0  0  0  0  0  0  0  0  # atno 17320 bound_to 7965
  146.3528  140.0937  142.8611 LP  0  0  0  0  0  0  0  0  0  0  0  0  # atno 17321 bound_to 7965
  140.6381  143.8945  150.6665 LP  0  0  0  0  0  0  0  0  0  0  0  0  # atno 17342 bound_to 10162
  140.2270  143.3765  152.1597 LP  0  0  0  0  0  0  0  0  0  0  0  0  # atno 17343 bound_to 10162
  156.1673  130.3645  149.9214 LP  0  0  0  0  0  0  0  0  0  0  0  0  # atno 17370 bound_to 10713
  156.7198  130.9002  151.3617 LP  0  0  0  0  0  0  0  0  0  0  0  0  # atno 17371 bound_to 10713
  140.4068  134.7307  157.4813 LP  0  0  0  0  0  0  0  0  0  0  0  0  # atno 17394 bound_to 11000
  140.0456  134.6205  155.8926 LP  0  0  0  0  0  0  0  0  0  0  0  0  # atno 17395 bound_to 11000

$$$$
