AV-unprocessed.smi:1127|AV-procd|sdf|4840|dock6
  -GOLD-   22720 3403D 1   1.00000     0.00000
 Structure written by MMmdl.
 42 43  0  0  0  0  0  0  0  0  1 V2000
  147.2767  135.7065  155.6971 C   0  0  0  0  0  0  0  0  0  0  0  0
  148.1154  137.1367  156.5287 S   0  0  2  0  0  0  0  0  0  0  0  0
  147.4137  138.4101  156.0532 O   0  0  0  0  0  0  0  0  0  0  0  0
  149.6278  137.0459  155.5064 C   0  0  0  0  0  0  0  0  0  0  0  0
  150.1655  135.9016  155.0734 N   0  0  0  0  0  0  0  0  0  0  0  0
  151.2864  136.2820  154.3602 N   0  0  0  0  0  0  0  0  0  0  0  0
  151.3019  137.6143  154.4379 C   0  0  0  0  0  0  0  0  0  0  0  0
  150.2924  138.1570  155.1369 N   0  0  0  0  0  0  0  0  0  0  0  0
  150.0271  139.5585  155.4095 C   0  0  0  0  0  0  0  0  0  0  0  0
  151.2555  140.2374  156.0139 C   0  0  0  0  0  0  0  0  0  0  0  0
  152.3128  140.2690  155.3853 O   0  0  0  0  0  0  0  0  0  0  0  0
  151.1028  140.7611  157.2398 N   0  0  0  0  0  0  0  0  0  0  0  0
  152.1401  141.4292  158.0227 C   0  0  0  0  0  0  0  0  0  0  0  0
  152.1477  140.8495  159.4560 C   0  0  0  0  0  0  0  0  0  0  0  0
  153.2497  141.3495  160.4096 C   0  0  0  0  0  0  0  0  0  0  0  0
  153.1904  142.8240  160.8581 C   0  0  0  0  0  0  0  0  0  0  0  0
  151.7856  143.3777  161.1727 C   0  0  0  0  0  0  0  0  0  0  0  0
  151.1677  144.2392  160.0521 C   0  0  0  0  0  0  0  0  0  0  0  0
  150.7427  143.5046  158.7653 C   0  0  0  0  0  0  0  0  0  0  0  0
  151.9133  142.9534  157.9238 C   0  0  0  0  0  0  0  0  0  0  0  0
  148.0038  134.9619  155.3723 H   0  0  0  0  0  0  0  0  0  0  0  0
  146.7195  136.0506  154.8259 H   0  0  0  0  0  0  0  0  0  0  0  0
  146.5802  135.2289  156.3859 H   0  0  0  0  0  0  0  0  0  0  0  0
  152.0732  138.2106  153.9727 H   0  0  0  0  0  0  0  0  0  0  0  0
  149.7571  140.0547  154.4763 H   0  0  0  0  0  0  0  0  0  0  0  0
  149.1668  139.6417  156.0750 H   0  0  0  0  0  0  0  0  0  0  0  0
  150.1933  140.6869  157.6715 H   0  0  0  0  0  0  0  0  0  0  0  0
  153.1051  141.2165  157.5589 H   0  0  0  0  0  0  0  0  0  0  0  0
  151.1709  140.9714  159.9195 H   0  0  0  0  0  0  0  0  0  0  0  0
  152.2740  139.7690  159.3784 H   0  0  0  0  0  0  0  0  0  0  0  0
  153.1982  140.7323  161.3072 H   0  0  0  0  0  0  0  0  0  0  0  0
  154.2288  141.1460  159.9750 H   0  0  0  0  0  0  0  0  0  0  0  0
  153.7967  142.9044  161.7612 H   0  0  0  0  0  0  0  0  0  0  0  0
  153.7002  143.4659  160.1414 H   0  0  0  0  0  0  0  0  0  0  0  0
  151.1033  142.5865  161.4834 H   0  0  0  0  0  0  0  0  0  0  0  0
  151.8793  144.0224  162.0473 H   0  0  0  0  0  0  0  0  0  0  0  0
  150.2818  144.7263  160.4611 H   0  0  0  0  0  0  0  0  0  0  0  0
  151.8508  145.0506  159.7986 H   0  0  0  0  0  0  0  0  0  0  0  0
  150.0099  142.7289  158.9865 H   0  0  0  0  0  0  0  0  0  0  0  0
  150.2068  144.2273  158.1490 H   0  0  0  0  0  0  0  0  0  0  0  0
  152.8320  143.4915  158.1487 H   0  0  0  0  0  0  0  0  0  0  0  0
  151.7251  143.1963  156.8766 H   0  0  0  0  0  0  0  0  0  0  0  0
  1  2  1  0  0  0  0
  1 21  1  0  0  0  0
  1 22  1  0  0  0  0
  1 23  1  0  0  0  0
  2  3  2  0  0  0  0
  2  4  1  0  0  0  0
  4  8  1  0  0  0  0
  4  5  2  0  0  0  0
  5  6  1  0  0  0  0
  6  7  2  0  0  0  0
  7  8  1  0  0  0  0
  7 24  1  0  0  0  0
  8  9  1  0  0  0  0
  9 10  1  0  0  0  0
  9 25  1  0  0  0  0
  9 26  1  0  0  0  0
 10 11  2  0  0  0  0
 10 12  1  0  0  0  0
 12 13  1  0  0  0  0
 12 27  1  0  0  0  0
 13 20  1  0  0  0  0
 13 14  1  0  0  0  0
 13 28  1  0  0  0  0
 14 15  1  0  0  0  0
 14 29  1  0  0  0  0
 14 30  1  0  0  0  0
 15 16  1  0  0  0  0
 15 31  1  0  0  0  0
 15 32  1  0  0  0  0
 16 17  1  0  0  0  0
 16 33  1  0  0  0  0
 16 34  1  0  0  0  0
 17 18  1  0  0  0  0
 17 35  1  0  0  0  0
 17 36  1  0  0  0  0
 18 19  1  0  0  0  0
 18 37  1  0  0  0  0
 18 38  1  0  0  0  0
 19 20  1  0  0  0  0
 19 39  1  0  0  0  0
 19 40  1  0  0  0  0
 20 41  1  0  0  0  0
 20 42  1  0  0  0  0
M  END
> <s_m_source_file>
AV-unprocessed.smi

> <i_m_source_file_index>
1127

> <i_lp_mmshare_version>
43012

> <i_f3d_flags>
0

> <s_epik_input>
W0NIM11bU0BdKD1PKWMxbm5bY0hdbjFbQ0gyXUMoPU8pW05IXVtDSF0yW0NIMl1bQ0gyXVtDSDJdW0NIMl1bQ0gyXVtDSDJdW0NIMl0y

> <s_epik_cmdline>
J2VwaWtfcHl0aG9uJywgJy1waCcsICc3LjAnLCAnLXRuJywgJzgnLCAnLW1hJywgJzIwMCcsICctbWV0YWxfYmluZGluZycsICctaW1hZScsICc8aW5maWxlLm1hZT4nLCAnLW9tYWUnLCAnPG91dGZpbGUubWFlPic=

> <r_lp_tautomer_probability>
1

> <r_epik_Ionization_Penalty>
7.34999e-08

> <r_epik_Ionization_Penalty_Charging>
0

> <r_epik_Ionization_Penalty_Neutral>
7.34999e-08

> <r_epik_State_Penalty>
-0

> <r_epik_Charging_Adjusted_Penalty>
0

> <i_epik_Tot_Q>
0

> <i_epik_Tot_abs_Q>
0

> <r_epik_Metal_State_Penalty>
-0

> <b_epik_Metal_Only>
0

> <s_lp_Force_Field>
OPLS_2005

> <r_lp_Energy>
17.7529

> <b_lp_Chiralities_Consistent>
1

> <s_lp_Variant>
AV-unprocessed.smi:1127-1

> <Gold.Version>
5.8.1

> <Gold.Id.Protein>
6NUR|6NUR_protein|mol2

> <Gold.PLP.Fitness>
37.5841

> <Gold.PLP.PLP>
-31.2864

> <Gold.PLP.part.hbond>
-3.0000

> <Gold.PLP.part.metal>
0.0000

> <Gold.PLP.part.buried>
-4.1608

> <Gold.PLP.part.nonpolar>
-24.7719

> <Gold.PLP.part.repulsive>
1.1645

> <Gold.PLP.ligand.clash>
0.0000

> <Gold.PLP.ligand.torsion>
0.7370

> <Gold.PLP.Chemscore.Hbond>
2.2440

> <Gold.PLP.Chemscore.CHOScore>
0.0000

> <Gold.PLP.Chemscore.Metal>
0.0000

> <Gold.Chemscore.Hbonds>
donor molecule, donor type, donor heavy atom, donor atom, acceptor molecule, acceptor atom, score
      P1  H  7989  7998       L1    11  0.54
      P1  H  7997  8009       L1    11  0.62
      P1  H 10752 10764       L1     6  1.00

> <Gold.PLP.Chemscore.Internal.Correction>
1.0397

> <Gold.Rescore>
     Score         DG    S(hbond)    S(metal)    S(lipo)     H(rot)  DE(clash)    DE(int)     intcor
     14.51     -15.29       1.34        0.00      82.96       1.70       0.21       0.57       ----

> <Gold.Chemscore.Fitness>
14.5103

> <Gold.Chemscore.DG>
-15.2880

> <Gold.Chemscore.ZeroCoef>
-5.4800

> <Gold.Chemscore.Hbond>
1.3369

> <Gold.Chemscore.Metal>
0.0000

> <Gold.Chemscore.Lipo>
82.9572

> <Gold.Chemscore.Internal_Hbond>
0.0000

> <Gold.Chemscore.DEClash>
0.2113

> <Gold.Chemscore.DEInternal>
0.5665

> <Gold.Chemscore.Rot>
1.7044

> <Gold.Chemscore.Internal.Correction>
   9.000000E+99

> <Gold.Chemscore.Hbonds>
donor molecule, donor type, donor heavy atom, donor atom, acceptor molecule, acceptor atom, score
      P1  H  7989  7998       L1    11  0.18
      P1  H  7997  8009       L1    11  0.62
      P1  H 10752 10764       L1     6  0.78

> <Gold.Chemscore.Hbond.Weighted>
-4.4651

> <Gold.Chemscore.Metal.Weighted>
-0.0000

> <Gold.Chemscore.Lipo.Weighted>
-9.7060

> <Gold.Chemscore.Internal_Hbond.Weighted>
0.0000

> <Gold.Chemscore.DEClash.Weighted>
0.2113

> <Gold.Chemscore.DEInternal.Weighted>
0.5665

> <Gold.Chemscore.Rot.Weighted>
4.3631

> <Gold.Chemscore.Internal.Correction.Weighted>
   9.000000E+99

> <Gold.Protein.RotatedTorsions>
[ 6907 6896 6895 6894 ] final -135.87 input  -60.11 | X-H torsion
[ 7974 7965 7964 7962 ] final  -99.68 input  175.53 | X-H torsion
[ 8008 7997 7996 7995 ] final -153.21 input   59.86 | X-H torsion
[ 10167 10162 10161 10158 ] final -151.44 input  -65.29 | X-H torsion
[ 10718 10713 10712 10709 ] final   70.51 input   66.30 | X-H torsion
[ 10763 10752 10751 10750 ] final  -53.69 input  -60.55 | X-H torsion
[ 11005 11000 10999 10996 ] final   -9.36 input  -57.11 | X-H torsion

> <Gold.Protein.ActiveResidues>
 VAL166  LYS551  ARG553  GLY616  TRP617  ASP618  TYR619  PRO620  LYS621  CYS622 
 ASP623  PHE694  ASN695  SER759  ASP760  ASP761  ALA762  ILE779  LEU786  VAL792 
 PHE793  MET794  SER795  GLU796  ALA797  LYS798  CYS799  TRP800  GLU811  SER814 

> <Gold.Protein.RotatedAtoms>
  151.0031  133.6036  159.2692 H   0  0  0  0  0  0  0  0  0  0  0  0  # atno 6907 bound_to 6896
  151.3215  135.0819  159.9317 H   0  0  0  0  0  0  0  0  0  0  0  0  # atno 6908 bound_to 6896
  152.5279  133.9678  159.7802 H   0  0  0  0  0  0  0  0  0  0  0  0  # atno 6909 bound_to 6896
  145.3044  140.9385  143.2805 H   0  0  0  0  0  0  0  0  0  0  0  0  # atno 7974 bound_to 7965
  155.6672  140.0729  157.2533 H   0  0  0  0  0  0  0  0  0  0  0  0  # atno 8008 bound_to 7997
  154.4130  140.1705  156.1891 H   0  0  0  0  0  0  0  0  0  0  0  0  # atno 8009 bound_to 7997
  155.9647  140.3367  155.6525 H   0  0  0  0  0  0  0  0  0  0  0  0  # atno 8010 bound_to 7997
  139.7267  143.8872  152.2521 H   0  0  0  0  0  0  0  0  0  0  0  0  # atno 10167 bound_to 10162
  157.6404  130.9481  150.0661 H   0  0  0  0  0  0  0  0  0  0  0  0  # atno 10718 bound_to 10713
  154.1628  135.6472  153.4990 H   0  0  0  0  0  0  0  0  0  0  0  0  # atno 10763 bound_to 10752
  153.0105  135.5365  154.6693 H   0  0  0  0  0  0  0  0  0  0  0  0  # atno 10764 bound_to 10752
  154.6011  135.2944  155.0506 H   0  0  0  0  0  0  0  0  0  0  0  0  # atno 10765 bound_to 10752
  140.7333  133.8731  155.8910 H   0  0  0  0  0  0  0  0  0  0  0  0  # atno 11005 bound_to 11000
  144.9067  139.4580  143.6606 LP  0  0  0  0  0  0  0  0  0  0  0  0  # atno 17320 bound_to 7965
  146.3140  139.7852  142.8997 LP  0  0  0  0  0  0  0  0  0  0  0  0  # atno 17321 bound_to 7965
  139.8783  144.7031  150.8907 LP  0  0  0  0  0  0  0  0  0  0  0  0  # atno 17342 bound_to 10162
  140.7764  143.3681  151.1700 LP  0  0  0  0  0  0  0  0  0  0  0  0  # atno 17343 bound_to 10162
  156.1679  130.3645  149.9206 LP  0  0  0  0  0  0  0  0  0  0  0  0  # atno 17370 bound_to 10713
  156.7189  130.8999  151.3616 LP  0  0  0  0  0  0  0  0  0  0  0  0  # atno 17371 bound_to 10713
  140.9902  134.1289  157.4415 LP  0  0  0  0  0  0  0  0  0  0  0  0  # atno 17394 bound_to 11000
  139.8821  135.0038  156.6209 LP  0  0  0  0  0  0  0  0  0  0  0  0  # atno 17395 bound_to 11000

$$$$
