AV-unprocessed.smi:811|AV-procd|sdf|3814|dock4
  -GOLD-   22720 1253D 1   1.00000     0.00000
 Structure written by MMmdl.
 46 48  0  0  0  0  0  0  0  0  2 V2000
  142.7527  135.0809  154.0598 C   0  0  0  0  0  0  0  0  0  0  0  0
  143.4515  135.9999  153.1380 N   0  3  2  0  0  0  0  0  0  0  0  0
  143.8683  135.3886  151.8541 C   0  0  0  0  0  0  0  0  0  0  0  0
  145.2170  136.0253  151.4771 C   0  0  0  0  0  0  0  0  0  0  0  0
  145.4027  137.1598  152.4885 C   0  0  2  0  0  0  0  0  0  0  0  0
  146.7949  137.4665  152.7998 N   0  0  0  0  0  0  0  0  0  0  0  0
  147.1888  138.3220  153.7534 C   0  0  0  0  0  0  0  0  0  0  0  0
  146.4012  138.9332  154.4744 O   0  0  0  0  0  0  0  0  0  0  0  0
  148.5295  138.4030  153.8106 N   0  0  0  0  0  0  0  0  0  0  0  0
  149.3470  139.1917  154.6669 C   0  0  0  0  0  0  0  0  0  0  0  0
  150.7598  139.2412  154.6182 C   0  0  0  0  0  0  0  0  0  0  0  0
  151.4470  140.0611  155.5337 C   0  0  0  0  0  0  0  0  0  0  0  0
  150.7132  140.8072  156.4861 C   0  0  0  0  0  0  0  0  0  0  0  0
  151.3808  141.6389  157.4131 N   0  0  0  0  0  0  0  0  0  0  0  0
  151.5588  141.0938  158.7573 C   0  0  0  0  0  0  0  0  0  0  0  0
  152.5655  141.9436  159.5520 C   0  0  0  0  0  0  0  0  0  0  0  0
  152.1485  143.3045  159.5597 O   0  0  0  0  0  0  0  0  0  0  0  0
  152.0940  143.8469  158.2448 C   0  0  0  0  0  0  0  0  0  0  0  0
  151.0690  143.0676  157.4041 C   0  0  0  0  0  0  0  0  0  0  0  0
  149.3594  140.7536  156.5316 N   0  0  0  0  0  0  0  0  0  0  0  0
  148.7047  139.9674  155.6523 C   0  0  0  0  0  0  0  0  0  0  0  0
  144.6455  136.6468  153.7095 C   0  0  0  0  0  0  0  0  0  0  0  0
  143.3979  134.2522  154.3543 H   0  0  0  0  0  0  0  0  0  0  0  0
  141.8616  134.6702  153.5841 H   0  0  0  0  0  0  0  0  0  0  0  0
  142.4414  135.6100  154.9609 H   0  0  0  0  0  0  0  0  0  0  0  0
  143.9776  134.3065  151.9437 H   0  0  0  0  0  0  0  0  0  0  0  0
  143.1070  135.5833  151.0982 H   0  0  0  0  0  0  0  0  0  0  0  0
  146.0118  135.2855  151.5847 H   0  0  0  0  0  0  0  0  0  0  0  0
  145.2368  136.3835  150.4472 H   0  0  0  0  0  0  0  0  0  0  0  0
  144.9010  138.0576  152.1206 H   0  0  0  0  0  0  0  0  0  0  0  0
  147.5041  136.9998  152.2535 H   0  0  0  0  0  0  0  0  0  0  0  0
  149.0345  137.7972  153.1806 H   0  0  0  0  0  0  0  0  0  0  0  0
  151.3365  138.6706  153.9082 H   0  0  0  0  0  0  0  0  0  0  0  0
  152.5238  140.1154  155.4820 H   0  0  0  0  0  0  0  0  0  0  0  0
  150.5932  141.0890  159.2644 H   0  0  0  0  0  0  0  0  0  0  0  0
  151.9098  140.0635  158.7365 H   0  0  0  0  0  0  0  0  0  0  0  0
  152.6283  141.5866  160.5800 H   0  0  0  0  0  0  0  0  0  0  0  0
  153.5664  141.8609  159.1253 H   0  0  0  0  0  0  0  0  0  0  0  0
  151.8081  144.8970  158.3052 H   0  0  0  0  0  0  0  0  0  0  0  0
  153.0825  143.8120  157.7836 H   0  0  0  0  0  0  0  0  0  0  0  0
  151.0768  143.4524  156.3837 H   0  0  0  0  0  0  0  0  0  0  0  0
  150.0652  143.2198  157.8031 H   0  0  0  0  0  0  0  0  0  0  0  0
  147.6277  139.9621  155.7382 H   0  0  0  0  0  0  0  0  0  0  0  0
  144.3765  137.4445  154.4028 H   0  0  0  0  0  0  0  0  0  0  0  0
  145.2433  135.9100  154.2500 H   0  0  0  0  0  0  0  0  0  0  0  0
  142.8101  136.7444  152.9037 H   0  0  0  0  0  0  0  0  0  0  0  0
  1  2  1  0  0  0  0
  1 23  1  0  0  0  0
  1 24  1  0  0  0  0
  1 25  1  0  0  0  0
  2 22  1  0  0  0  0
  2  3  1  0  0  0  0
  2 46  1  0  0  0  0
  3  4  1  0  0  0  0
  3 26  1  0  0  0  0
  3 27  1  0  0  0  0
  4  5  1  0  0  0  0
  4 28  1  0  0  0  0
  4 29  1  0  0  0  0
  5  6  1  0  0  0  0
  5 22  1  0  0  0  0
  5 30  1  0  0  0  0
  6  7  1  0  0  0  0
  6 31  1  0  0  0  0
  7  8  2  0  0  0  0
  7  9  1  0  0  0  0
  9 10  1  0  0  0  0
  9 32  1  0  0  0  0
 10 21  1  0  0  0  0
 10 11  2  0  0  0  0
 11 12  1  0  0  0  0
 11 33  1  0  0  0  0
 12 13  2  0  0  0  0
 12 34  1  0  0  0  0
 13 14  1  0  0  0  0
 13 20  1  0  0  0  0
 14 19  1  0  0  0  0
 14 15  1  0  0  0  0
 15 16  1  0  0  0  0
 15 35  1  0  0  0  0
 15 36  1  0  0  0  0
 16 17  1  0  0  0  0
 16 37  1  0  0  0  0
 16 38  1  0  0  0  0
 17 18  1  0  0  0  0
 18 19  1  0  0  0  0
 18 39  1  0  0  0  0
 18 40  1  0  0  0  0
 19 41  1  0  0  0  0
 19 42  1  0  0  0  0
 20 21  2  0  0  0  0
 21 43  1  0  0  0  0
 22 44  1  0  0  0  0
 22 45  1  0  0  0  0
M  CHG  1   2   1
M  END
> <s_m_source_file>
AV-unprocessed.smi

> <i_m_source_file_index>
811

> <i_lp_mmshare_version>
43012

> <i_f3d_flags>
0

> <s_epik_input>
W0NIM11OMVtDSDJdW0NIMl1bQ0BIXShbQ0gyXTEpW05IXUMoPU8pW05IXWMyW2NIXVtjSF1jKG5bY0hdMilOM1tDSDJdW0NIMl1PW0NIMl1bQ0gyXTM=

> <s_epik_cmdline>
J2VwaWtfcHl0aG9uJywgJy1waCcsICc3LjAnLCAnLXRuJywgJzgnLCAnLW1hJywgJzIwMCcsICctbWV0YWxfYmluZGluZycsICctaW1hZScsICc8aW5maWxlLm1hZT4nLCAnLW9tYWUnLCAnPG91dGZpbGUubWFlPic=

> <r_lp_tautomer_probability>
1

> <r_epik_Ionization_Penalty>
0.00503422

> <r_epik_Ionization_Penalty_Charging>
0.00366104

> <r_epik_Ionization_Penalty_Neutral>
0.00137318

> <r_epik_State_Penalty>
-0

> <r_epik_Charging_Adjusted_Penalty>
0.00366104

> <i_epik_Tot_Q>
1

> <i_epik_Tot_abs_Q>
1

> <r_epik_Metal_State_Penalty>
-0

> <b_epik_Metal_Only>
0

> <s_lp_Force_Field>
OPLS_2005

> <r_lp_Energy>
43.0214

> <b_lp_Chiralities_Consistent>
1

> <s_lp_Variant>
AV-unprocessed.smi:811-4

> <Gold.Version>
5.8.1

> <Gold.Id.Protein>
6NUR|6NUR_protein|mol2

> <Gold.PLP.Fitness>
41.2946

> <Gold.PLP.PLP>
-35.6241

> <Gold.PLP.part.hbond>
-2.2740

> <Gold.PLP.part.metal>
0.0000

> <Gold.PLP.part.buried>
-5.1761

> <Gold.PLP.part.nonpolar>
-29.8102

> <Gold.PLP.part.repulsive>
0.2680

> <Gold.PLP.ligand.clash>
0.0000

> <Gold.PLP.ligand.torsion>
0.3155

> <Gold.PLP.Chemscore.Hbond>
1.9760

> <Gold.PLP.Chemscore.CHOScore>
0.0000

> <Gold.PLP.Chemscore.Metal>
0.0000

> <Gold.Chemscore.Hbonds>
donor molecule, donor type, donor heavy atom, donor atom, acceptor molecule, acceptor atom, score
      L1  H     6    31       P1  7948  1.00
      L1  H     9    32       P1  7948  0.98

> <Gold.PLP.Chemscore.Internal.Correction>
0.3736

> <Gold.Rescore>
     Score         DG    S(hbond)    S(metal)    S(lipo)     H(rot)  DE(clash)    DE(int)     intcor
     17.28     -19.02       1.93        0.00      87.43       1.23       0.05       1.69       ----

> <Gold.Chemscore.Fitness>
17.2822

> <Gold.Chemscore.DG>
-19.0220

> <Gold.Chemscore.ZeroCoef>
-5.4800

> <Gold.Chemscore.Hbond>
1.9342

> <Gold.Chemscore.Metal>
0.0000

> <Gold.Chemscore.Lipo>
87.4291

> <Gold.Chemscore.Internal_Hbond>
0.0000

> <Gold.Chemscore.DEClash>
0.0484

> <Gold.Chemscore.DEInternal>
1.6914

> <Gold.Chemscore.Rot>
1.2295

> <Gold.Chemscore.Internal.Correction>
   9.000000E+99

> <Gold.Chemscore.Hbonds>
donor molecule, donor type, donor heavy atom, donor atom, acceptor molecule, acceptor atom, score
      L1  H     6    31       P1  7948  1.00
      L1  H     9    32       P1  7948  0.87

> <Gold.Chemscore.Hbond.Weighted>
-6.4602

> <Gold.Chemscore.Metal.Weighted>
-0.0000

> <Gold.Chemscore.Lipo.Weighted>
-10.2292

> <Gold.Chemscore.Internal_Hbond.Weighted>
0.0000

> <Gold.Chemscore.DEClash.Weighted>
0.0484

> <Gold.Chemscore.DEInternal.Weighted>
1.6914

> <Gold.Chemscore.Rot.Weighted>
3.1474

> <Gold.Chemscore.Internal.Correction.Weighted>
   9.000000E+99

> <Gold.Protein.RotatedTorsions>
[ 6907 6896 6895 6894 ] final    3.80 input  -60.11 | X-H torsion
[ 7974 7965 7964 7962 ] final -146.05 input  175.53 | X-H torsion
[ 8008 7997 7996 7995 ] final  159.23 input   59.86 | X-H torsion
[ 10167 10162 10161 10158 ] final -136.34 input  -65.29 | X-H torsion
[ 10718 10713 10712 10709 ] final    4.37 input   66.30 | X-H torsion
[ 10763 10752 10751 10750 ] final -155.14 input  -60.55 | X-H torsion
[ 11005 11000 10999 10996 ] final  117.78 input  -57.11 | X-H torsion

> <Gold.Protein.ActiveResidues>
 VAL166  LYS551  ARG553  GLY616  TRP617  ASP618  TYR619  PRO620  LYS621  CYS622 
 ASP623  PHE694  ASN695  SER759  ASP760  ASP761  ALA762  ILE779  LEU786  VAL792 
 PHE793  MET794  SER795  GLU796  ALA797  LYS798  CYS799  TRP800  GLU811  SER814 

> <Gold.Protein.RotatedAtoms>
  151.6310  135.1023  160.0121 H   0  0  0  0  0  0  0  0  0  0  0  0  # atno 6907 bound_to 6896
  152.4106  133.6954  159.6403 H   0  0  0  0  0  0  0  0  0  0  0  0  # atno 6908 bound_to 6896
  150.7997  133.8547  159.3256 H   0  0  0  0  0  0  0  0  0  0  0  0  # atno 6909 bound_to 6896
  144.8186  140.5506  143.5594 H   0  0  0  0  0  0  0  0  0  0  0  0  # atno 7974 bound_to 7965
  156.2252  140.1837  156.7381 H   0  0  0  0  0  0  0  0  0  0  0  0  # atno 8008 bound_to 7997
  154.5929  140.0648  156.9292 H   0  0  0  0  0  0  0  0  0  0  0  0  # atno 8009 bound_to 7997
  155.2305  140.3314  155.4306 H   0  0  0  0  0  0  0  0  0  0  0  0  # atno 8010 bound_to 7997
  139.8687  143.6984  152.2642 H   0  0  0  0  0  0  0  0  0  0  0  0  # atno 10167 bound_to 10162
  156.8916  130.5689  149.5650 H   0  0  0  0  0  0  0  0  0  0  0  0  # atno 10718 bound_to 10713
  154.7808  135.3174  154.7993 H   0  0  0  0  0  0  0  0  0  0  0  0  # atno 10763 bound_to 10752
  153.8705  135.6845  153.4779 H   0  0  0  0  0  0  0  0  0  0  0  0  # atno 10764 bound_to 10752
  153.1444  135.4725  154.9482 H   0  0  0  0  0  0  0  0  0  0  0  0  # atno 10765 bound_to 10752
  139.9086  134.9614  156.7403 H   0  0  0  0  0  0  0  0  0  0  0  0  # atno 11005 bound_to 11000
  145.5157  139.1478  143.3580 LP  0  0  0  0  0  0  0  0  0  0  0  0  # atno 17320 bound_to 7965
  146.2490  140.5298  142.8901 LP  0  0  0  0  0  0  0  0  0  0  0  0  # atno 17321 bound_to 7965
  139.7304  144.7583  151.0811 LP  0  0  0  0  0  0  0  0  0  0  0  0  # atno 17342 bound_to 10162
  140.7764  143.5095  150.9670 LP  0  0  0  0  0  0  0  0  0  0  0  0  # atno 17343 bound_to 10162
  156.0626  130.5676  150.9224 LP  0  0  0  0  0  0  0  0  0  0  0  0  # atno 17370 bound_to 10713
  157.6080  131.0938  150.8845 LP  0  0  0  0  0  0  0  0  0  0  0  0  # atno 17371 bound_to 10713
  140.6855  133.9437  155.7935 LP  0  0  0  0  0  0  0  0  0  0  0  0  # atno 17394 bound_to 11000
  141.0480  134.0526  157.3820 LP  0  0  0  0  0  0  0  0  0  0  0  0  # atno 17395 bound_to 11000

$$$$
