AV-unprocessed.smi:1692|AV-procd|sdf|6781|dock2
  -GOLD-   22720 7543D 1   1.00000     0.00000
 Structure written by MMmdl.
 46 47  0  0  0  0  0  0  0  0  2 V2000
  144.6495  135.1902  151.3928 C   0  0  0  0  0  0  0  0  0  0  0  0
  145.6535  135.7964  152.3793 C   0  0  1  0  0  0  0  0  0  0  0  0
  145.8984  137.2914  152.1087 C   0  0  0  0  0  0  0  0  0  0  0  0
  146.8069  137.8619  153.1306 N   0  3  1  0  0  0  0  0  0  0  0  0
  147.1555  139.2770  152.8499 C   0  0  0  0  0  0  0  0  0  0  0  0
  147.9868  139.9177  153.9790 C   0  0  0  0  0  0  0  0  0  0  0  0
  148.5489  141.3087  153.6318 C   0  0  0  0  0  0  0  0  0  0  0  0
  149.0117  142.0394  154.8087 N   0  0  0  0  0  0  0  0  0  0  0  0
  149.9515  141.6148  155.6664 C   0  0  0  0  0  0  0  0  0  0  0  0
  150.5149  140.5243  155.5678 O   0  0  0  0  0  0  0  0  0  0  0  0
  150.1809  142.5251  156.6291 N   0  0  0  0  0  0  0  0  0  0  0  0
  151.0775  142.4334  157.7272 C   0  0  0  0  0  0  0  0  0  0  0  0
  151.5969  143.6672  158.1807 C   0  0  0  0  0  0  0  0  0  0  0  0
  152.4961  143.6839  159.2644 C   0  0  0  0  0  0  0  0  0  0  0  0
  152.8511  142.4652  159.8694 C   0  0  0  0  0  0  0  0  0  0  0  0
  152.2866  141.2819  159.3584 C   0  0  0  0  0  0  0  0  0  0  0  0
  151.4248  141.2635  158.3196 N   0  0  0  0  0  0  0  0  0  0  0  0
  146.2496  137.6455  154.4886 C   0  0  0  0  0  0  0  0  0  0  0  0
  145.9529  136.1533  154.7375 C   0  0  2  0  0  0  0  0  0  0  0  0
  147.2165  135.3037  154.9623 C   0  0  0  0  0  0  0  0  0  0  0  0
  145.1297  135.6322  153.6942 O   0  0  0  0  0  0  0  0  0  0  0  0
  145.0057  135.2772  150.3660 H   0  0  0  0  0  0  0  0  0  0  0  0
  143.6824  135.6900  151.4556 H   0  0  0  0  0  0  0  0  0  0  0  0
  144.4908  134.1317  151.6003 H   0  0  0  0  0  0  0  0  0  0  0  0
  146.5911  135.2483  152.2845 H   0  0  0  0  0  0  0  0  0  0  0  0
  146.3342  137.4140  151.1162 H   0  0  0  0  0  0  0  0  0  0  0  0
  144.9548  137.8399  152.1139 H   0  0  0  0  0  0  0  0  0  0  0  0
  147.7422  139.3089  151.9320 H   0  0  0  0  0  0  0  0  0  0  0  0
  146.2500  139.8545  152.6577 H   0  0  0  0  0  0  0  0  0  0  0  0
  147.3728  140.0247  154.8725 H   0  0  0  0  0  0  0  0  0  0  0  0
  148.8065  139.2526  154.2542 H   0  0  0  0  0  0  0  0  0  0  0  0
  149.3408  141.2248  152.8853 H   0  0  0  0  0  0  0  0  0  0  0  0
  147.7635  141.9062  153.1683 H   0  0  0  0  0  0  0  0  0  0  0  0
  148.6001  142.9474  154.9684 H   0  0  0  0  0  0  0  0  0  0  0  0
  149.6536  143.3836  156.5712 H   0  0  0  0  0  0  0  0  0  0  0  0
  151.3135  144.5946  157.7045 H   0  0  0  0  0  0  0  0  0  0  0  0
  152.9058  144.6160  159.6243 H   0  0  0  0  0  0  0  0  0  0  0  0
  153.5374  142.4375  160.7029 H   0  0  0  0  0  0  0  0  0  0  0  0
  152.5330  140.3251  159.7945 H   0  0  0  0  0  0  0  0  0  0  0  0
  146.9315  138.0134  155.2544 H   0  0  0  0  0  0  0  0  0  0  0  0
  145.3278  138.2209  154.5886 H   0  0  0  0  0  0  0  0  0  0  0  0
  145.3613  136.0818  155.6506 H   0  0  0  0  0  0  0  0  0  0  0  0
  147.7557  135.6415  155.8477 H   0  0  0  0  0  0  0  0  0  0  0  0
  147.9086  135.3585  154.1227 H   0  0  0  0  0  0  0  0  0  0  0  0
  146.9576  134.2556  155.1150 H   0  0  0  0  0  0  0  0  0  0  0  0
  147.6663  137.3346  153.0716 H   0  0  0  0  0  0  0  0  0  0  0  0
  1  2  1  0  0  0  0
  1 22  1  0  0  0  0
  1 23  1  0  0  0  0
  1 24  1  0  0  0  0
  2 21  1  0  0  0  0
  2  3  1  0  0  0  0
  2 25  1  0  0  0  0
  3  4  1  0  0  0  0
  3 26  1  0  0  0  0
  3 27  1  0  0  0  0
  4  5  1  0  0  0  0
  4 18  1  0  0  0  0
  4 46  1  0  0  0  0
  5  6  1  0  0  0  0
  5 28  1  0  0  0  0
  5 29  1  0  0  0  0
  6  7  1  0  0  0  0
  6 30  1  0  0  0  0
  6 31  1  0  0  0  0
  7  8  1  0  0  0  0
  7 32  1  0  0  0  0
  7 33  1  0  0  0  0
  8  9  1  0  0  0  0
  8 34  1  0  0  0  0
  9 10  2  0  0  0  0
  9 11  1  0  0  0  0
 11 12  1  0  0  0  0
 11 35  1  0  0  0  0
 12 17  1  0  0  0  0
 12 13  2  0  0  0  0
 13 14  1  0  0  0  0
 13 36  1  0  0  0  0
 14 15  2  0  0  0  0
 14 37  1  0  0  0  0
 15 16  1  0  0  0  0
 15 38  1  0  0  0  0
 16 17  2  0  0  0  0
 16 39  1  0  0  0  0
 18 19  1  0  0  0  0
 18 40  1  0  0  0  0
 18 41  1  0  0  0  0
 19 20  1  0  0  0  0
 19 21  1  0  0  0  0
 19 42  1  0  0  0  0
 20 43  1  0  0  0  0
 20 44  1  0  0  0  0
 20 45  1  0  0  0  0
M  CHG  1   4   1
M  END
> <s_m_source_file>
AV-unprocessed.smi

> <i_m_source_file_index>
1692

> <i_lp_mmshare_version>
43012

> <i_f3d_flags>
0

> <s_epik_input>
W0NIM11bQ0BASF0xW0NIMl1OKFtDSDJdW0NASF0oTzEpW0NIM10pW0NIMl1bQ0gyXVtDSDJdW05IXUMoPU8pW05IXWMyW2NIXVtjSF1bY0hdW2NIXW4y

> <s_epik_cmdline>
J2VwaWtfcHl0aG9uJywgJy1waCcsICc3LjAnLCAnLXRuJywgJzgnLCAnLW1hJywgJzIwMCcsICctbWV0YWxfYmluZGluZycsICctaW1hZScsICc8aW5maWxlLm1hZT4nLCAnLW9tYWUnLCAnPG91dGZpbGUubWFlPic=

> <r_epik_Ionization_Penalty>
0.270538

> <r_epik_Ionization_Penalty_Charging>
0.270496

> <r_epik_Ionization_Penalty_Neutral>
4.22978e-05

> <r_epik_State_Penalty>
0.262618

> <r_epik_Charging_Adjusted_Penalty>
0.533114

> <i_epik_Tot_Q>
1

> <i_epik_Tot_abs_Q>
1

> <r_epik_Metal_State_Penalty>
0.262618

> <b_epik_Metal_Only>
0

> <s_lp_Force_Field>
OPLS_2005

> <r_lp_Energy>
21.4343

> <b_lp_Chiralities_Consistent>
1

> <s_lp_Variant>
AV-unprocessed.smi:1692-4

> <Gold.Version>
5.8.1

> <Gold.Id.Protein>
6NUR|6NUR_protein|mol2

> <Gold.PLP.Fitness>
49.1743

> <Gold.PLP.PLP>
-35.8634

> <Gold.PLP.part.hbond>
-4.0000

> <Gold.PLP.part.metal>
0.0000

> <Gold.PLP.part.buried>
0.2021

> <Gold.PLP.part.nonpolar>
-30.1470

> <Gold.PLP.part.repulsive>
0.4356

> <Gold.PLP.ligand.clash>
0.0000

> <Gold.PLP.ligand.torsion>
0.3030

> <Gold.PLP.Chemscore.Hbond>
4.6207

> <Gold.PLP.Chemscore.CHOScore>
0.0000

> <Gold.PLP.Chemscore.Metal>
0.0000

> <Gold.Chemscore.Hbonds>
donor molecule, donor type, donor heavy atom, donor atom, acceptor molecule, acceptor atom, score
      L1  H     4    46       P1  7948  1.63
      L1  H     8    34       P1  8028  0.93
      L1  H    11    35       P1  8028  1.00
      P1  H  7989  7998       L1    10  0.12

> <Gold.PLP.Chemscore.Internal.Correction>
0.0547

> <Gold.Rescore>
     Score         DG    S(hbond)    S(metal)    S(lipo)     H(rot)  DE(clash)    DE(int)     intcor
     19.29     -22.10       3.21        0.00      89.46       1.78       0.60       2.21       ----

> <Gold.Chemscore.Fitness>
19.2946

> <Gold.Chemscore.DG>
-22.1044

> <Gold.Chemscore.ZeroCoef>
-5.4800

> <Gold.Chemscore.Hbond>
3.2089

> <Gold.Chemscore.Metal>
0.0000

> <Gold.Chemscore.Lipo>
89.4626

> <Gold.Chemscore.Internal_Hbond>
0.0000

> <Gold.Chemscore.DEClash>
0.5956

> <Gold.Chemscore.DEInternal>
2.2143

> <Gold.Chemscore.Rot>
1.7814

> <Gold.Chemscore.Internal.Correction>
   9.000000E+99

> <Gold.Chemscore.Hbonds>
donor molecule, donor type, donor heavy atom, donor atom, acceptor molecule, acceptor atom, score
      L1  H     4    46       P1  7948  0.77
      L1  H     8    34       P1  8028  0.91
      L1  H    11    35       P1  8028  0.97
      P1  H  7989  7998       L1    10  0.03

> <Gold.Chemscore.Hbond.Weighted>
-10.7176

> <Gold.Chemscore.Metal.Weighted>
-0.0000

> <Gold.Chemscore.Lipo.Weighted>
-10.4671

> <Gold.Chemscore.Internal_Hbond.Weighted>
0.0000

> <Gold.Chemscore.DEClash.Weighted>
0.5956

> <Gold.Chemscore.DEInternal.Weighted>
2.2143

> <Gold.Chemscore.Rot.Weighted>
4.5603

> <Gold.Chemscore.Internal.Correction.Weighted>
   9.000000E+99

> <Gold.Protein.RotatedTorsions>
[ 6907 6896 6895 6894 ] final    1.85 input  -60.11 | X-H torsion
[ 7974 7965 7964 7962 ] final -142.74 input  175.53 | X-H torsion
[ 8008 7997 7996 7995 ] final   14.90 input   59.86 | X-H torsion
[ 10167 10162 10161 10158 ] final   -7.94 input  -65.29 | X-H torsion
[ 10718 10713 10712 10709 ] final  -40.23 input   66.30 | X-H torsion
[ 10763 10752 10751 10750 ] final -113.45 input  -60.55 | X-H torsion
[ 11005 11000 10999 10996 ] final   87.03 input  -57.11 | X-H torsion

> <Gold.Protein.ActiveResidues>
 VAL166  LYS551  ARG553  GLY616  TRP617  ASP618  TYR619  PRO620  LYS621  CYS622 
 ASP623  PHE694  ASN695  SER759  ASP760  ASP761  ALA762  ILE779  LEU786  VAL792 
 PHE793  MET794  SER795  GLU796  ALA797  LYS798  CYS799  TRP800  GLU811  SER814 

> <Gold.Protein.RotatedAtoms>
  151.5994  135.1048  160.0056 H   0  0  0  0  0  0  0  0  0  0  0  0  # atno 6907 bound_to 6896
  152.4266  133.7201  159.6539 H   0  0  0  0  0  0  0  0  0  0  0  0  # atno 6908 bound_to 6896
  150.8155  133.8273  159.3185 H   0  0  0  0  0  0  0  0  0  0  0  0  # atno 6909 bound_to 6896
  144.8421  140.5921  143.5445 H   0  0  0  0  0  0  0  0  0  0  0  0  # atno 7974 bound_to 7965
  154.8550  140.2935  155.5574 H   0  0  0  0  0  0  0  0  0  0  0  0  # atno 8008 bound_to 7997
  156.3018  140.2489  156.3448 H   0  0  0  0  0  0  0  0  0  0  0  0  # atno 8009 bound_to 7997
  154.8980  140.0392  157.1866 H   0  0  0  0  0  0  0  0  0  0  0  0  # atno 8010 bound_to 7997
  140.7044  143.6024  150.8784 H   0  0  0  0  0  0  0  0  0  0  0  0  # atno 10167 bound_to 10162
  156.2837  130.4220  149.8310 H   0  0  0  0  0  0  0  0  0  0  0  0  # atno 10718 bound_to 10713
  154.8396  135.4454  154.1351 H   0  0  0  0  0  0  0  0  0  0  0  0  # atno 10763 bound_to 10752
  153.2551  135.6930  153.7644 H   0  0  0  0  0  0  0  0  0  0  0  0  # atno 10764 bound_to 10752
  153.6942  135.3382  155.3185 H   0  0  0  0  0  0  0  0  0  0  0  0  # atno 10765 bound_to 10752
  139.8929  134.8395  156.2803 H   0  0  0  0  0  0  0  0  0  0  0  0  # atno 11005 bound_to 11000
  145.4673  139.1507  143.3833 LP  0  0  0  0  0  0  0  0  0  0  0  0  # atno 17320 bound_to 7965
  146.2712  140.4805  142.8814 LP  0  0  0  0  0  0  0  0  0  0  0  0  # atno 17321 bound_to 7965
  139.9748  143.6016  152.2962 LP  0  0  0  0  0  0  0  0  0  0  0  0  # atno 17342 bound_to 10162
  139.6616  144.7662  151.1952 LP  0  0  0  0  0  0  0  0  0  0  0  0  # atno 17343 bound_to 10162
  156.5748  130.8440  151.3367 LP  0  0  0  0  0  0  0  0  0  0  0  0  # atno 17370 bound_to 10713
  157.7322  130.9711  150.1917 LP  0  0  0  0  0  0  0  0  0  0  0  0  # atno 17371 bound_to 10713
  141.0043  133.7133  156.1009 LP  0  0  0  0  0  0  0  0  0  0  0  0  # atno 17394 bound_to 11000
  140.7455  134.4102  157.5549 LP  0  0  0  0  0  0  0  0  0  0  0  0  # atno 17395 bound_to 11000

$$$$
