AV-unprocessed.smi:775|AV-procd|sdf|3697|dock5
  -GOLD-   22720 1113D 1   1.00000     0.00000
 Structure written by MMmdl.
 38 39  0  0  0  0  0  0  0  0  1 V2000
  146.0889  130.0876  152.0497 C   0  0  0  0  0  0  0  0  0  0  0  0
  146.6413  131.2233  152.9230 C   0  0  2  0  0  0  0  0  0  0  0  0
  146.4816  132.5873  152.2107 C   0  0  0  0  0  0  0  0  0  0  0  0
  145.6259  132.5318  151.0383 N   0  0  0  0  0  0  0  0  0  0  0  0
  145.9359  132.0759  149.7740 C   0  0  0  0  0  0  0  0  0  0  0  0
  144.8147  132.2108  149.0065 C   0  0  0  0  0  0  0  0  0  0  0  0
  143.8607  132.7752  149.8986 C   0  0  0  0  0  0  0  0  0  0  0  0
  144.3496  132.9688  151.1128 N   0  0  0  0  0  0  0  0  0  0  0  0
  148.0479  130.9210  153.1743 N   0  0  0  0  0  0  0  0  0  0  0  0
  148.2421  130.0226  154.3227 C   0  0  0  0  0  0  0  0  0  0  0  0
  149.6334  129.3671  154.3472 C   0  0  0  0  0  0  0  0  0  0  0  0
  149.7473  128.2023  153.9597 O   0  0  0  0  0  0  0  0  0  0  0  0
  150.6936  130.0882  154.7909 N   0  0  0  0  0  0  0  0  0  0  0  0
  152.0702  129.5893  154.8644 C   0  0  0  0  0  0  0  0  0  0  0  0
  152.4134  129.3665  156.3473 C   0  0  0  0  0  0  0  0  0  0  0  0
  152.0280  130.5116  157.1757 N   0  0  0  0  0  0  0  0  0  0  0  0
  151.1775  131.4879  156.8045 C   0  0  0  0  0  0  0  0  0  0  0  0
  150.9093  132.4272  157.5499 O   0  0  0  0  0  0  0  0  0  0  0  0
  150.5303  131.4150  155.4067 C   0  0  0  0  0  0  0  0  0  0  0  0
  145.0305  130.2387  151.8356 H   0  0  0  0  0  0  0  0  0  0  0  0
  146.1854  129.1219  152.5474 H   0  0  0  0  0  0  0  0  0  0  0  0
  146.6132  130.0253  151.0951 H   0  0  0  0  0  0  0  0  0  0  0  0
  146.0757  131.2187  153.8567 H   0  0  0  0  0  0  0  0  0  0  0  0
  146.1013  133.3411  152.9027 H   0  0  0  0  0  0  0  0  0  0  0  0
  147.4569  132.9446  151.8777 H   0  0  0  0  0  0  0  0  0  0  0  0
  146.9160  131.6924  149.5315 H   0  0  0  0  0  0  0  0  0  0  0  0
  144.6948  131.9481  147.9660 H   0  0  0  0  0  0  0  0  0  0  0  0
  142.8342  133.0469  149.7020 H   0  0  0  0  0  0  0  0  0  0  0  0
  148.4542  130.5231  152.3394 H   0  0  0  0  0  0  0  0  0  0  0  0
  148.1097  130.5870  155.2423 H   0  0  0  0  0  0  0  0  0  0  0  0
  147.4840  129.2386  154.3023 H   0  0  0  0  0  0  0  0  0  0  0  0
  152.2634  128.6917  154.2787 H   0  0  0  0  0  0  0  0  0  0  0  0
  152.7322  130.3494  154.4465 H   0  0  0  0  0  0  0  0  0  0  0  0
  151.8914  128.4854  156.7218 H   0  0  0  0  0  0  0  0  0  0  0  0
  153.4805  129.1777  156.4664 H   0  0  0  0  0  0  0  0  0  0  0  0
  152.4393  130.5699  158.0962 H   0  0  0  0  0  0  0  0  0  0  0  0
  151.0042  132.1590  154.7655 H   0  0  0  0  0  0  0  0  0  0  0  0
  149.4864  131.7162  155.5045 H   0  0  0  0  0  0  0  0  0  0  0  0
  1  2  1  0  0  0  0
  1 20  1  0  0  0  0
  1 21  1  0  0  0  0
  1 22  1  0  0  0  0
  2  3  1  0  0  0  0
  2  9  1  0  0  0  0
  2 23  1  0  0  0  0
  3  4  1  0  0  0  0
  3 24  1  0  0  0  0
  3 25  1  0  0  0  0
  4  8  1  0  0  0  0
  4  5  1  0  0  0  0
  5  6  2  0  0  0  0
  5 26  1  0  0  0  0
  6  7  1  0  0  0  0
  6 27  1  0  0  0  0
  7  8  2  0  0  0  0
  7 28  1  0  0  0  0
  9 10  1  0  0  0  0
  9 29  1  0  0  0  0
 10 11  1  0  0  0  0
 10 30  1  0  0  0  0
 10 31  1  0  0  0  0
 11 12  2  0  0  0  0
 11 13  1  0  0  0  0
 13 19  1  0  0  0  0
 13 14  1  0  0  0  0
 14 15  1  0  0  0  0
 14 32  1  0  0  0  0
 14 33  1  0  0  0  0
 15 16  1  0  0  0  0
 15 34  1  0  0  0  0
 15 35  1  0  0  0  0
 16 17  1  0  0  0  0
 16 36  1  0  0  0  0
 17 18  2  0  0  0  0
 17 19  1  0  0  0  0
 19 37  1  0  0  0  0
 19 38  1  0  0  0  0
M  END
> <s_m_source_file>
AV-unprocessed.smi

> <i_m_source_file_index>
775

> <i_lp_mmshare_version>
43012

> <i_f3d_flags>
0

> <s_epik_input>
bjFbY0hdW2NIXVtjSF1uMVtDSDJdW0NAQEhdKFtDSDNdKVtOSF1bQ0gyXUMoPU8pTjJbQ0gyXVtDSDJdW05IXUMoPU8pW0NIMl0y

> <s_epik_cmdline>
J2VwaWtfcHl0aG9uJywgJy1waCcsICc3LjAnLCAnLXRuJywgJzgnLCAnLW1hJywgJzIwMCcsICctbWV0YWxfYmluZGluZycsICctaW1hZScsICc8aW5maWxlLm1hZT4nLCAnLW9tYWUnLCAnPG91dGZpbGUubWFlPic=

> <r_lp_tautomer_probability>
1

> <r_epik_Ionization_Penalty>
0.836058

> <r_epik_Ionization_Penalty_Charging>
0

> <r_epik_Ionization_Penalty_Neutral>
0.836058

> <r_epik_State_Penalty>
0.870309

> <r_epik_Charging_Adjusted_Penalty>
0.870309

> <i_epik_Tot_Q>
0

> <i_epik_Tot_abs_Q>
0

> <r_epik_Metal_State_Penalty>
0.870266

> <b_epik_Metal_Only>
0

> <s_lp_Force_Field>
OPLS_2005

> <r_lp_Energy>
24.9182

> <b_lp_Chiralities_Consistent>
1

> <s_lp_Variant>
AV-unprocessed.smi:775-3

> <Gold.Version>
5.8.1

> <Gold.Id.Protein>
6NUR|6NUR_protein|mol2

> <Gold.PLP.Fitness>
42.5608

> <Gold.PLP.PLP>
-33.7138

> <Gold.PLP.part.hbond>
-2.0000

> <Gold.PLP.part.metal>
0.0000

> <Gold.PLP.part.buried>
-4.7617

> <Gold.PLP.part.nonpolar>
-28.2337

> <Gold.PLP.part.repulsive>
0.8587

> <Gold.PLP.ligand.clash>
0.0000

> <Gold.PLP.ligand.torsion>
1.5817

> <Gold.PLP.Chemscore.Hbond>
1.9833

> <Gold.PLP.Chemscore.CHOScore>
2.0000

> <Gold.PLP.Chemscore.Metal>
0.0000

> <Gold.Chemscore.Hbonds>
donor molecule, donor type, donor heavy atom, donor atom, acceptor molecule, acceptor atom, score
      L1  H     9    29       P1 10747  0.71
      P1  H  6896  6909       L1    18  1.00
      L1  C     5    26       P1 10747  1.00
      L1  C     7    28       P1 10186  1.00

> <Gold.PLP.Chemscore.Internal.Correction>
0.0607

> <Gold.Rescore>
     Score         DG    S(hbond)    S(metal)    S(lipo)     H(rot)  DE(clash)    DE(int)     intcor
     13.14     -15.01       1.79        0.00      76.83       2.12       0.17       1.70       ----

> <Gold.Chemscore.Fitness>
13.1376

> <Gold.Chemscore.DG>
-15.0134

> <Gold.Chemscore.ZeroCoef>
-5.4800

> <Gold.Chemscore.Hbond>
1.7908

> <Gold.Chemscore.Metal>
0.0000

> <Gold.Chemscore.Lipo>
76.8311

> <Gold.Chemscore.Internal_Hbond>
0.0000

> <Gold.Chemscore.DEClash>
0.1738

> <Gold.Chemscore.DEInternal>
1.7019

> <Gold.Chemscore.Rot>
2.1239

> <Gold.Chemscore.Internal.Correction>
   9.000000E+99

> <Gold.Chemscore.Hbonds>
donor molecule, donor type, donor heavy atom, donor atom, acceptor molecule, acceptor atom, score
      L1  H     9    29       P1 10747  0.56
      P1  H  6896  6909       L1    18  0.95

> <Gold.Chemscore.Hbond.Weighted>
-5.9812

> <Gold.Chemscore.Metal.Weighted>
-0.0000

> <Gold.Chemscore.Lipo.Weighted>
-8.9892

> <Gold.Chemscore.Internal_Hbond.Weighted>
0.0000

> <Gold.Chemscore.DEClash.Weighted>
0.1738

> <Gold.Chemscore.DEInternal.Weighted>
1.7019

> <Gold.Chemscore.Rot.Weighted>
5.4371

> <Gold.Chemscore.Internal.Correction.Weighted>
   9.000000E+99

> <Gold.Protein.RotatedTorsions>
[ 6907 6896 6895 6894 ] final  -50.56 input  -60.11 | X-H torsion
[ 7974 7965 7964 7962 ] final -179.95 input  175.53 | X-H torsion
[ 8008 7997 7996 7995 ] final   76.92 input   59.86 | X-H torsion
[ 10167 10162 10161 10158 ] final  157.17 input  -65.29 | X-H torsion
[ 10718 10713 10712 10709 ] final  150.83 input   66.30 | X-H torsion
[ 10763 10752 10751 10750 ] final -121.49 input  -60.55 | X-H torsion
[ 11005 11000 10999 10996 ] final -146.41 input  -57.11 | X-H torsion

> <Gold.Protein.ActiveResidues>
 VAL166  LYS551  ARG553  GLY616  TRP617  ASP618  TYR619  PRO620  LYS621  CYS622 
 ASP623  PHE694  ASN695  SER759  ASP760  ASP761  ALA762  ILE779  LEU786  VAL792 
 PHE793  MET794  SER795  GLU796  ALA797  LYS798  CYS799  TRP800  GLU811  SER814 

> <Gold.Protein.RotatedAtoms>
  150.8696  134.8066  159.7144 H   0  0  0  0  0  0  0  0  0  0  0  0  # atno 6907 bound_to 6896
  152.4705  134.4969  159.9722 H   0  0  0  0  0  0  0  0  0  0  0  0  # atno 6908 bound_to 6896
  151.5059  133.3456  159.2912 H   0  0  0  0  0  0  0  0  0  0  0  0  # atno 6909 bound_to 6896
  144.7140  140.0641  143.6431 H   0  0  0  0  0  0  0  0  0  0  0  0  # atno 7974 bound_to 7965
  155.8343  140.3465  155.5591 H   0  0  0  0  0  0  0  0  0  0  0  0  # atno 8008 bound_to 7997
  155.8209  140.0912  157.1869 H   0  0  0  0  0  0  0  0  0  0  0  0  # atno 8009 bound_to 7997
  154.4004  140.1430  156.3486 H   0  0  0  0  0  0  0  0  0  0  0  0  # atno 8010 bound_to 7997
  139.4822  144.4942  151.8264 H   0  0  0  0  0  0  0  0  0  0  0  0  # atno 10167 bound_to 10162
  157.2784  131.0830  151.1549 H   0  0  0  0  0  0  0  0  0  0  0  0  # atno 10718 bound_to 10713
  154.8669  135.4166  154.2629 H   0  0  0  0  0  0  0  0  0  0  0  0  # atno 10763 bound_to 10752
  153.3554  135.7001  153.6761 H   0  0  0  0  0  0  0  0  0  0  0  0  # atno 10764 bound_to 10752
  153.5683  135.3596  155.2800 H   0  0  0  0  0  0  0  0  0  0  0  0  # atno 10765 bound_to 10752
  140.7823  134.3065  157.5041 H   0  0  0  0  0  0  0  0  0  0  0  0  # atno 11005 bound_to 11000
  145.9839  139.2962  143.1025 LP  0  0  0  0  0  0  0  0  0  0  0  0  # atno 17320 bound_to 7965
  145.8979  140.9261  143.0518 LP  0  0  0  0  0  0  0  0  0  0  0  0  # atno 17321 bound_to 7965
  140.4429  144.1961  150.5892 LP  0  0  0  0  0  0  0  0  0  0  0  0  # atno 17342 bound_to 10162
  140.4664  143.2429  151.9149 LP  0  0  0  0  0  0  0  0  0  0  0  0  # atno 17343 bound_to 10162
  157.2993  130.6835  149.6155 LP  0  0  0  0  0  0  0  0  0  0  0  0  # atno 17370 bound_to 10713
  155.9664  130.4397  150.5268 LP  0  0  0  0  0  0  0  0  0  0  0  0  # atno 17371 bound_to 10713
  139.8741  134.9325  156.3557 LP  0  0  0  0  0  0  0  0  0  0  0  0  # atno 17394 bound_to 11000
  140.9471  133.7476  156.0222 LP  0  0  0  0  0  0  0  0  0  0  0  0  # atno 17395 bound_to 11000

$$$$
