AV-unprocessed.smi:236|AV-procd|sdf|1815|dock7
  -GOLD-   2262020403D 1   1.00000     0.00000
 Structure written by MMmdl.
 58 62  0  0  0  0  0  0  0  0  1 V2000
  146.4467  129.9869  152.5096 C   0  0  0  0  0  0  0  0  0  0  0  0
  146.0088  131.4564  152.4000 C   0  0  2  0  0  0  0  0  0  0  0  0
  145.7021  131.7899  151.0541 O   0  0  0  0  0  0  0  0  0  0  0  0
  145.6817  133.2034  150.9734 C   0  0  0  0  0  0  0  0  0  0  0  0
  146.9188  133.6052  151.7671 C   0  0  0  0  0  0  0  0  0  0  0  0
  147.0254  132.5350  152.8588 C   0  0  2  0  0  0  0  0  0  0  0  0
  148.3540  132.0377  152.8589 O   0  0  0  0  0  0  0  0  0  0  0  0
  146.7177  133.1053  154.2655 C   0  0  0  0  0  0  0  0  0  0  0  0
  147.4166  134.3484  154.5564 N   0  0  0  0  0  0  0  0  0  0  0  0
  146.9428  135.6256  154.3546 C   0  0  0  0  0  0  0  0  0  0  0  0
  147.7587  136.5840  154.6982 N   0  0  0  0  0  0  0  0  0  0  0  0
  148.8800  135.9183  155.1779 C   0  0  0  0  0  0  0  0  0  0  0  0
  150.1322  136.3346  155.7121 C   0  0  0  0  0  0  0  0  0  0  0  0
  150.5122  137.6188  155.8779 N   0  0  0  0  0  0  0  0  0  0  0  0
  151.5112  138.0529  154.9108 C   0  0  0  0  0  0  0  0  0  0  0  0
  151.7785  139.5575  155.0762 C   0  0  0  0  0  0  0  0  0  0  0  0
  152.1555  139.8258  156.4234 O   0  0  0  0  0  0  0  0  0  0  0  0
  151.1294  139.4857  157.3545 C   0  0  2  0  0  0  0  0  0  0  0  0
  151.6042  139.8819  158.7584 C   0  0  0  0  0  0  0  0  0  0  0  0
  151.4677  141.2846  158.9119 O   0  0  0  0  0  0  0  0  0  0  0  0
  152.2468  141.8010  159.9798 C   0  0  0  0  0  0  0  0  0  0  0  0
  152.3668  143.3122  159.8971 C   0  0  0  0  0  0  0  0  0  0  0  0
  151.1485  144.1820  159.6639 C   0  0  0  0  0  0  0  0  0  0  0  0
  152.1813  144.0365  158.5792 C   0  0  0  0  0  0  0  0  0  0  0  0
  150.8595  137.9720  157.2491 C   0  0  0  0  0  0  0  0  0  0  0  0
  151.0091  135.3770  156.1000 N   0  0  0  0  0  0  0  0  0  0  0  0
  150.6870  134.0860  155.9721 C   0  0  0  0  0  0  0  0  0  0  0  0
  149.5624  133.5486  155.4937 N   0  0  0  0  0  0  0  0  0  0  0  0
  148.6784  134.5114  155.1027 C   0  0  0  0  0  0  0  0  0  0  0  0
  146.7030  129.7279  153.5371 H   0  0  0  0  0  0  0  0  0  0  0  0
  147.3125  129.7775  151.8811 H   0  0  0  0  0  0  0  0  0  0  0  0
  145.6431  129.3221  152.1926 H   0  0  0  0  0  0  0  0  0  0  0  0
  145.0788  131.5804  152.9554 H   0  0  0  0  0  0  0  0  0  0  0  0
  145.7119  133.5501  149.9402 H   0  0  0  0  0  0  0  0  0  0  0  0
  144.7735  133.5871  151.4413 H   0  0  0  0  0  0  0  0  0  0  0  0
  147.7850  133.5783  151.1038 H   0  0  0  0  0  0  0  0  0  0  0  0
  146.8431  134.6202  152.1585 H   0  0  0  0  0  0  0  0  0  0  0  0
  148.5294  131.6492  152.0156 H   0  0  0  0  0  0  0  0  0  0  0  0
  145.6474  133.2841  154.3764 H   0  0  0  0  0  0  0  0  0  0  0  0
  146.9836  132.3756  155.0315 H   0  0  0  0  0  0  0  0  0  0  0  0
  145.9667  135.8261  153.9374 H   0  0  0  0  0  0  0  0  0  0  0  0
  152.4365  137.4949  155.0590 H   0  0  0  0  0  0  0  0  0  0  0  0
  151.1652  137.8432  153.8975 H   0  0  0  0  0  0  0  0  0  0  0  0
  152.5831  139.8722  154.4115 H   0  0  0  0  0  0  0  0  0  0  0  0
  150.8964  140.1420  154.8100 H   0  0  0  0  0  0  0  0  0  0  0  0
  150.2167  140.0356  157.1174 H   0  0  0  0  0  0  0  0  0  0  0  0
  150.9939  139.3806  159.5114 H   0  0  0  0  0  0  0  0  0  0  0  0
  152.6387  139.5716  158.9135 H   0  0  0  0  0  0  0  0  0  0  0  0
  151.7945  141.5373  160.9368 H   0  0  0  0  0  0  0  0  0  0  0  0
  153.2490  141.3706  159.9566 H   0  0  0  0  0  0  0  0  0  0  0  0
  153.1232  143.7251  160.5619 H   0  0  0  0  0  0  0  0  0  0  0  0
  150.1891  143.6913  159.5128 H   0  0  0  0  0  0  0  0  0  0  0  0
  151.1046  145.1332  160.1903 H   0  0  0  0  0  0  0  0  0  0  0  0
  152.8253  144.8909  158.3818 H   0  0  0  0  0  0  0  0  0  0  0  0
  151.9108  143.4480  157.7047 H   0  0  0  0  0  0  0  0  0  0  0  0
  150.0459  137.6880  157.9180 H   0  0  0  0  0  0  0  0  0  0  0  0
  151.7449  137.4196  157.5647 H   0  0  0  0  0  0  0  0  0  0  0  0
  151.4375  133.3825  156.3015 H   0  0  0  0  0  0  0  0  0  0  0  0
  1  2  1  0  0  0  0
  1 30  1  0  0  0  0
  1 31  1  0  0  0  0
  1 32  1  0  0  0  0
  2  6  1  0  0  0  0
  2  3  1  0  0  0  0
  2 33  1  0  0  0  0
  3  4  1  0  0  0  0
  4  5  1  0  0  0  0
  4 34  1  0  0  0  0
  4 35  1  0  0  0  0
  5  6  1  0  0  0  0
  5 36  1  0  0  0  0
  5 37  1  0  0  0  0
  6  7  1  0  0  0  0
  6  8  1  0  0  0  0
  7 38  1  0  0  0  0
  8  9  1  0  0  0  0
  8 39  1  0  0  0  0
  8 40  1  0  0  0  0
  9 29  1  0  0  0  0
  9 10  1  0  0  0  0
 10 11  2  0  0  0  0
 10 41  1  0  0  0  0
 11 12  1  0  0  0  0
 12 29  2  0  0  0  0
 12 13  1  0  0  0  0
 13 14  1  0  0  0  0
 13 26  2  0  0  0  0
 14 25  1  0  0  0  0
 14 15  1  0  0  0  0
 15 16  1  0  0  0  0
 15 42  1  0  0  0  0
 15 43  1  0  0  0  0
 16 17  1  0  0  0  0
 16 44  1  0  0  0  0
 16 45  1  0  0  0  0
 17 18  1  0  0  0  0
 18 19  1  0  0  0  0
 18 25  1  0  0  0  0
 18 46  1  0  0  0  0
 19 20  1  0  0  0  0
 19 47  1  0  0  0  0
 19 48  1  0  0  0  0
 20 21  1  0  0  0  0
 21 22  1  0  0  0  0
 21 49  1  0  0  0  0
 21 50  1  0  0  0  0
 22 24  1  0  0  0  0
 22 23  1  0  0  0  0
 22 51  1  0  0  0  0
 23 24  1  0  0  0  0
 23 52  1  0  0  0  0
 23 53  1  0  0  0  0
 24 54  1  0  0  0  0
 24 55  1  0  0  0  0
 25 56  1  0  0  0  0
 25 57  1  0  0  0  0
 26 27  1  0  0  0  0
 27 28  2  0  0  0  0
 27 58  1  0  0  0  0
 28 29  1  0  0  0  0
M  END
> <s_m_source_file>
AV-unprocessed.smi

> <i_m_source_file_index>
236

> <i_lp_mmshare_version>
43012

> <i_f3d_flags>
0

> <s_epik_input>
W0NIMl0xW0NIMl1PW0NAQEhdKFtDSDNdKVtDQEBdMShbT0hdKVtDSDJdbihbY0hdbjIpYyhjMjMpbltjSF1uYzNONFtDSDJdW0NIMl1PW0NASF0oW0NIMl00KVtDSDJdT1tDSDJdW0NIXTVbQ0gyXVtDSDJdNQ==

> <s_epik_cmdline>
J2VwaWtfcHl0aG9uJywgJy1waCcsICc3LjAnLCAnLXRuJywgJzgnLCAnLW1hJywgJzIwMCcsICctbWV0YWxfYmluZGluZycsICctaW1hZScsICc8aW5maWxlLm1hZT4nLCAnLW9tYWUnLCAnPG91dGZpbGUubWFlPic=

> <r_lp_tautomer_probability>
1

> <r_epik_Ionization_Penalty>
7.21838e-05

> <r_epik_Ionization_Penalty_Charging>
0

> <r_epik_Ionization_Penalty_Neutral>
7.21838e-05

> <r_epik_State_Penalty>
-0

> <r_epik_Charging_Adjusted_Penalty>
0

> <i_epik_Tot_Q>
0

> <i_epik_Tot_abs_Q>
0

> <r_epik_Metal_State_Penalty>
-0

> <b_epik_Metal_Only>
0

> <s_lp_Force_Field>
OPLS_2005

> <r_lp_Energy>
47.5689

> <b_lp_Chiralities_Consistent>
1

> <s_lp_Variant>
AV-unprocessed.smi:236-7

> <Gold.Version>
5.8.1

> <Gold.Id.Protein>
6NUR|6NUR_protein|mol2

> <Gold.PLP.Fitness>
53.1260

> <Gold.PLP.PLP>
-45.7367

> <Gold.PLP.part.hbond>
-3.0000

> <Gold.PLP.part.metal>
0.0000

> <Gold.PLP.part.buried>
-5.2262

> <Gold.PLP.part.nonpolar>
-37.9396

> <Gold.PLP.part.repulsive>
0.9824

> <Gold.PLP.ligand.clash>
0.0000

> <Gold.PLP.ligand.torsion>
1.2322

> <Gold.PLP.Chemscore.Hbond>
2.9913

> <Gold.PLP.Chemscore.CHOScore>
0.0000

> <Gold.PLP.Chemscore.Metal>
0.0000

> <Gold.Chemscore.Hbonds>
donor molecule, donor type, donor heavy atom, donor atom, acceptor molecule, acceptor atom, score
      L1  H     7    38       P1 10747  1.00
      P1  H  7997  8009       L1    17  0.46
      P1  H 10752 10765       L1    26  0.18

> <Gold.PLP.Chemscore.Internal.Correction>
0.8799

> <Gold.Rescore>
     Score         DG    S(hbond)    S(metal)    S(lipo)     H(rot)  DE(clash)    DE(int)     intcor
     17.89     -19.88       2.51        0.00     114.03       2.87       0.79       1.20       ----

> <Gold.Chemscore.Fitness>
17.8867

> <Gold.Chemscore.DG>
-19.8751

> <Gold.Chemscore.ZeroCoef>
-5.4800

> <Gold.Chemscore.Hbond>
2.5119

> <Gold.Chemscore.Metal>
0.0000

> <Gold.Chemscore.Lipo>
114.0258

> <Gold.Chemscore.Internal_Hbond>
0.0000

> <Gold.Chemscore.DEClash>
0.7914

> <Gold.Chemscore.DEInternal>
1.1970

> <Gold.Chemscore.Rot>
2.8655

> <Gold.Chemscore.Internal.Correction>
   9.000000E+99

> <Gold.Chemscore.Hbonds>
donor molecule, donor type, donor heavy atom, donor atom, acceptor molecule, acceptor atom, score
      L1  H     7    38       P1 10747  0.98
      P1  H  7997  8009       L1    17  0.11
      P1  H 10752 10765       L1    26  0.05

> <Gold.Chemscore.Hbond.Weighted>
-8.3898

> <Gold.Chemscore.Metal.Weighted>
-0.0000

> <Gold.Chemscore.Lipo.Weighted>
-13.3410

> <Gold.Chemscore.Internal_Hbond.Weighted>
0.0000

> <Gold.Chemscore.DEClash.Weighted>
0.7914

> <Gold.Chemscore.DEInternal.Weighted>
1.1970

> <Gold.Chemscore.Rot.Weighted>
7.3358

> <Gold.Chemscore.Internal.Correction.Weighted>
   9.000000E+99

> <Gold.Protein.RotatedTorsions>
[ 6907 6896 6895 6894 ] final -159.15 input  -60.11 | X-H torsion
[ 7974 7965 7964 7962 ] final -140.88 input  175.53 | X-H torsion
[ 8008 7997 7996 7995 ] final -149.26 input   59.86 | X-H torsion
[ 10167 10162 10161 10158 ] final  119.41 input  -65.29 | X-H torsion
[ 10718 10713 10712 10709 ] final -161.42 input   66.30 | X-H torsion
[ 10763 10752 10751 10750 ] final -162.41 input  -60.55 | X-H torsion
[ 11005 11000 10999 10996 ] final  -16.42 input  -57.11 | X-H torsion

> <Gold.Protein.ActiveResidues>
 VAL166  LYS551  ARG553  GLY616  TRP617  ASP618  TYR619  PRO620  LYS621  CYS622 
 ASP623  PHE694  ASN695  SER759  ASP760  ASP761  ALA762  ILE779  LEU786  VAL792 
 PHE793  MET794  SER795  GLU796  ALA797  LYS798  CYS799  TRP800  GLU811  SER814 

> <Gold.Protein.RotatedAtoms>
  151.3291  133.4008  159.2660 H   0  0  0  0  0  0  0  0  0  0  0  0  # atno 6907 bound_to 6896
  150.9970  134.9292  159.7943 H   0  0  0  0  0  0  0  0  0  0  0  0  # atno 6908 bound_to 6896
  152.5264  134.3256  159.9216 H   0  0  0  0  0  0  0  0  0  0  0  0  # atno 6909 bound_to 6896
  144.8562  140.6147  143.5357 H   0  0  0  0  0  0  0  0  0  0  0  0  # atno 7974 bound_to 7965
  155.6049  140.0666  157.2722 H   0  0  0  0  0  0  0  0  0  0  0  0  # atno 8008 bound_to 7997
  154.4269  140.1812  156.1259 H   0  0  0  0  0  0  0  0  0  0  0  0  # atno 8009 bound_to 7997
  156.0131  140.3324  155.6964 H   0  0  0  0  0  0  0  0  0  0  0  0  # atno 8010 bound_to 7997
  139.6048  144.7067  151.2979 H   0  0  0  0  0  0  0  0  0  0  0  0  # atno 10167 bound_to 10162
  156.5960  130.8790  151.2902 H   0  0  0  0  0  0  0  0  0  0  0  0  # atno 10718 bound_to 10713
  154.7217  135.3027  154.9037 H   0  0  0  0  0  0  0  0  0  0  0  0  # atno 10763 bound_to 10752
  153.9907  135.6719  153.4758 H   0  0  0  0  0  0  0  0  0  0  0  0  # atno 10764 bound_to 10752
  153.0839  135.4994  154.8476 H   0  0  0  0  0  0  0  0  0  0  0  0  # atno 10765 bound_to 10752
  140.8065  133.8173  155.9521 H   0  0  0  0  0  0  0  0  0  0  0  0  # atno 11005 bound_to 11000
  145.4401  139.1537  143.3975 LP  0  0  0  0  0  0  0  0  0  0  0  0  # atno 17320 bound_to 7965
  146.2825  140.4522  142.8771 LP  0  0  0  0  0  0  0  0  0  0  0  0  # atno 17321 bound_to 7965
  140.7277  143.6957  150.7886 LP  0  0  0  0  0  0  0  0  0  0  0  0  # atno 17342 bound_to 10162
  140.0540  143.5221  152.2660 LP  0  0  0  0  0  0  0  0  0  0  0  0  # atno 17343 bound_to 10162
  157.7292  130.9667  150.1775 LP  0  0  0  0  0  0  0  0  0  0  0  0  # atno 17370 bound_to 10713
  156.2509  130.3700  149.8233 LP  0  0  0  0  0  0  0  0  0  0  0  0  # atno 17371 bound_to 10713
  140.9241  134.2105  157.4907 LP  0  0  0  0  0  0  0  0  0  0  0  0  # atno 17394 bound_to 11000
  139.8717  134.9805  156.5078 LP  0  0  0  0  0  0  0  0  0  0  0  0  # atno 17395 bound_to 11000

$$$$
