AV-unprocessed.smi:2081|AV-procd|sdf|8488|dock4
  -GOLD-   2272011193D 1   1.00000     0.00000
 Structure written by MMmdl.
 45 46  0  0  0  0  0  0  0  0  1 V2000
  157.9890  135.4996  153.8625 C   0  0  0  0  0  0  0  0  0  0  0  0
  158.0072  136.9252  154.2367 N   0  0  0  0  0  0  0  0  0  0  0  0
  158.3617  137.2233  155.6404 C   0  0  0  0  0  0  0  0  0  0  0  0
  157.3430  136.8125  156.7055 C   0  0  0  0  0  0  0  0  0  0  0  0
  156.8518  135.6840  156.6899 O   0  0  0  0  0  0  0  0  0  0  0  0
  157.0476  137.7390  157.6297 N   0  0  0  0  0  0  0  0  0  0  0  0
  156.1488  137.5340  158.7602 C   0  0  0  0  0  0  0  0  0  0  0  0
  155.3806  138.7825  159.1665 C   0  0  0  0  0  0  0  0  0  0  0  0
  153.9759  138.7833  159.2924 C   0  0  0  0  0  0  0  0  0  0  0  0
  153.3240  139.9715  159.6726 C   0  0  0  0  0  0  0  0  0  0  0  0
  154.0939  141.1319  159.9262 C   0  0  0  0  0  0  0  0  0  0  0  0
  153.4627  142.3363  160.3079 N   0  0  0  0  0  0  0  0  0  0  0  0
  152.8443  142.3967  161.6314 C   0  0  0  0  0  0  0  0  0  0  0  0
  152.4767  143.8471  161.9861 C   0  0  0  0  0  0  0  0  0  0  0  0
  151.6451  144.3924  160.9675 O   0  0  0  0  0  0  0  0  0  0  0  0
  152.3074  144.4283  159.7078 C   0  0  0  0  0  0  0  0  0  0  0  0
  152.6761  142.9997  159.2705 C   0  0  0  0  0  0  0  0  0  0  0  0
  155.4447  141.1247  159.8054 N   0  0  0  0  0  0  0  0  0  0  0  0
  156.0650  139.9831  159.4403 C   0  0  0  0  0  0  0  0  0  0  0  0
  156.8610  137.9726  153.4629 S   0  0  0  0  0  0  0  0  0  0  0  0
  157.7206  138.4383  151.9044 C   0  0  0  0  0  0  0  0  0  0  0  0
  155.6751  137.1729  153.1198 O   0  0  0  0  0  0  0  0  0  0  0  0
  156.7165  139.1788  154.2922 O   0  0  0  0  0  0  0  0  0  0  0  0
  157.2278  134.9697  154.4354 H   0  0  0  0  0  0  0  0  0  0  0  0
  158.9542  135.0264  154.0397 H   0  0  0  0  0  0  0  0  0  0  0  0
  157.7645  135.3810  152.8030 H   0  0  0  0  0  0  0  0  0  0  0  0
  159.3045  136.7334  155.8842 H   0  0  0  0  0  0  0  0  0  0  0  0
  158.5462  138.2944  155.7307 H   0  0  0  0  0  0  0  0  0  0  0  0
  157.4980  138.6400  157.5591 H   0  0  0  0  0  0  0  0  0  0  0  0
  155.4276  136.7641  158.4859 H   0  0  0  0  0  0  0  0  0  0  0  0
  156.7083  137.1437  159.6121 H   0  0  0  0  0  0  0  0  0  0  0  0
  153.3996  137.8909  159.0973 H   0  0  0  0  0  0  0  0  0  0  0  0
  152.2471  139.9811  159.7493 H   0  0  0  0  0  0  0  0  0  0  0  0
  151.9501  141.7719  161.6409 H   0  0  0  0  0  0  0  0  0  0  0  0
  153.5264  142.0036  162.3865 H   0  0  0  0  0  0  0  0  0  0  0  0
  151.9426  143.8771  162.9358 H   0  0  0  0  0  0  0  0  0  0  0  0
  153.3732  144.4576  162.1053 H   0  0  0  0  0  0  0  0  0  0  0  0
  151.6461  144.8865  158.9724 H   0  0  0  0  0  0  0  0  0  0  0  0
  153.1973  145.0568  159.7704 H   0  0  0  0  0  0  0  0  0  0  0  0
  153.2117  143.0483  158.3239 H   0  0  0  0  0  0  0  0  0  0  0  0
  151.7703  142.4189  159.0917 H   0  0  0  0  0  0  0  0  0  0  0  0
  157.1408  140.0338  159.3610 H   0  0  0  0  0  0  0  0  0  0  0  0
  157.0854  139.1134  151.3312 H   0  0  0  0  0  0  0  0  0  0  0  0
  157.9209  137.5454  151.3133 H   0  0  0  0  0  0  0  0  0  0  0  0
  158.6592  138.9398  152.1384 H   0  0  0  0  0  0  0  0  0  0  0  0
  1  2  1  0  0  0  0
  1 24  1  0  0  0  0
  1 25  1  0  0  0  0
  1 26  1  0  0  0  0
  2  3  1  0  0  0  0
  2 20  1  0  0  0  0
  3  4  1  0  0  0  0
  3 27  1  0  0  0  0
  3 28  1  0  0  0  0
  4  5  2  0  0  0  0
  4  6  1  0  0  0  0
  6  7  1  0  0  0  0
  6 29  1  0  0  0  0
  7  8  1  0  0  0  0
  7 30  1  0  0  0  0
  7 31  1  0  0  0  0
  8 19  1  0  0  0  0
  8  9  2  0  0  0  0
  9 10  1  0  0  0  0
  9 32  1  0  0  0  0
 10 11  2  0  0  0  0
 10 33  1  0  0  0  0
 11 12  1  0  0  0  0
 11 18  1  0  0  0  0
 12 17  1  0  0  0  0
 12 13  1  0  0  0  0
 13 14  1  0  0  0  0
 13 34  1  0  0  0  0
 13 35  1  0  0  0  0
 14 15  1  0  0  0  0
 14 36  1  0  0  0  0
 14 37  1  0  0  0  0
 15 16  1  0  0  0  0
 16 17  1  0  0  0  0
 16 38  1  0  0  0  0
 16 39  1  0  0  0  0
 17 40  1  0  0  0  0
 17 41  1  0  0  0  0
 18 19  2  0  0  0  0
 19 42  1  0  0  0  0
 20 21  1  0  0  0  0
 20 22  2  0  0  0  0
 20 23  2  0  0  0  0
 21 43  1  0  0  0  0
 21 44  1  0  0  0  0
 21 45  1  0  0  0  0
M  END
> <s_m_source_file>
AV-unprocessed.smi

> <i_m_source_file_index>
2081

> <i_lp_mmshare_version>
43012

> <i_f3d_flags>
0

> <s_epik_input>
W0NIM11TKD1PKSg9TylOKFtDSDNdKVtDSDJdQyg9TylbTkhdW0NIMl1jMVtjSF1bY0hdYyhuW2NIXTEpTjJbQ0gyXVtDSDJdT1tDSDJdW0NIMl0y

> <s_epik_cmdline>
J2VwaWtfcHl0aG9uJywgJy1waCcsICc3LjAnLCAnLXRuJywgJzgnLCAnLW1hJywgJzIwMCcsICctbWV0YWxfYmluZGluZycsICctaW1hZScsICc8aW5maWxlLm1hZT4nLCAnLW9tYWUnLCAnPG91dGZpbGUubWFlPic=

> <r_lp_tautomer_probability>
1

> <r_epik_Ionization_Penalty>
0.00477463

> <r_epik_Ionization_Penalty_Charging>
0

> <r_epik_Ionization_Penalty_Neutral>
0.00477463

> <r_epik_State_Penalty>
0.00345982

> <r_epik_Charging_Adjusted_Penalty>
0.00345982

> <i_epik_Tot_Q>
0

> <i_epik_Tot_abs_Q>
0

> <r_epik_Metal_State_Penalty>
-0

> <b_epik_Metal_Only>
0

> <s_lp_Force_Field>
OPLS_2005

> <r_lp_Energy>
5.64261

> <b_lp_Chiralities_Consistent>
1

> <s_lp_Variant>
AV-unprocessed.smi:2081-1

> <Gold.Version>
5.8.1

> <Gold.Id.Protein>
6NUR|6NUR_protein|mol2

> <Gold.PLP.Fitness>
43.3716

> <Gold.PLP.PLP>
-38.5274

> <Gold.PLP.part.hbond>
-2.0000

> <Gold.PLP.part.metal>
0.0000

> <Gold.PLP.part.buried>
-3.2557

> <Gold.PLP.part.nonpolar>
-31.7748

> <Gold.PLP.part.repulsive>
0.2853

> <Gold.PLP.ligand.clash>
0.0000

> <Gold.PLP.ligand.torsion>
1.7500

> <Gold.PLP.Chemscore.Hbond>
1.8720

> <Gold.PLP.Chemscore.CHOScore>
0.0000

> <Gold.PLP.Chemscore.Metal>
0.0000

> <Gold.Chemscore.Hbonds>
donor molecule, donor type, donor heavy atom, donor atom, acceptor molecule, acceptor atom, score
      P1  H  7997  8009       L1    23  1.00
      P1  H 10752 10765       L1    22  0.98

> <Gold.PLP.Chemscore.Internal.Correction>
2.7283

> <Gold.Rescore>
     Score         DG    S(hbond)    S(metal)    S(lipo)     H(rot)  DE(clash)    DE(int)     intcor
     15.61     -17.33       1.69        0.00      98.35       2.07       0.06       1.67       ----

> <Gold.Chemscore.Fitness>
15.6070

> <Gold.Chemscore.DG>
-17.3340

> <Gold.Chemscore.ZeroCoef>
-5.4800

> <Gold.Chemscore.Hbond>
1.6942

> <Gold.Chemscore.Metal>
0.0000

> <Gold.Chemscore.Lipo>
98.3506

> <Gold.Chemscore.Internal_Hbond>
0.0000

> <Gold.Chemscore.DEClash>
0.0600

> <Gold.Chemscore.DEInternal>
1.6670

> <Gold.Chemscore.Rot>
2.0748

> <Gold.Chemscore.Internal.Correction>
   9.000000E+99

> <Gold.Chemscore.Hbonds>
donor molecule, donor type, donor heavy atom, donor atom, acceptor molecule, acceptor atom, score
      P1  H  7997  8009       L1    23  0.97
      P1  H 10752 10765       L1    22  0.91

> <Gold.Chemscore.Hbond.Weighted>
-5.6585

> <Gold.Chemscore.Metal.Weighted>
-0.0000

> <Gold.Chemscore.Lipo.Weighted>
-11.5070

> <Gold.Chemscore.Internal_Hbond.Weighted>
0.0000

> <Gold.Chemscore.DEClash.Weighted>
0.0600

> <Gold.Chemscore.DEInternal.Weighted>
1.6670

> <Gold.Chemscore.Rot.Weighted>
5.3115

> <Gold.Chemscore.Internal.Correction.Weighted>
   9.000000E+99

> <Gold.Protein.RotatedTorsions>
[ 6907 6896 6895 6894 ] final  156.24 input  -60.11 | X-H torsion
[ 7974 7965 7964 7962 ] final  -48.79 input  175.53 | X-H torsion
[ 8008 7997 7996 7995 ] final  -38.10 input   59.86 | X-H torsion
[ 10167 10162 10161 10158 ] final  151.70 input  -65.29 | X-H torsion
[ 10718 10713 10712 10709 ] final -102.62 input   66.30 | X-H torsion
[ 10763 10752 10751 10750 ] final   29.53 input  -60.55 | X-H torsion
[ 11005 11000 10999 10996 ] final  122.74 input  -57.11 | X-H torsion

> <Gold.Protein.ActiveResidues>
 VAL166  LYS551  ARG553  GLY616  TRP617  ASP618  TYR619  PRO620  LYS621  CYS622 
 ASP623  PHE694  ASN695  SER759  ASP760  ASP761  ALA762  ILE779  LEU786  VAL792 
 PHE793  MET794  SER795  GLU796  ALA797  LYS798  CYS799  TRP800  GLU811  SER814 

> <Gold.Protein.RotatedAtoms>
  152.0326  133.3943  159.4303 H   0  0  0  0  0  0  0  0  0  0  0  0  # atno 6907 bound_to 6896
  150.6881  134.3504  159.4916 H   0  0  0  0  0  0  0  0  0  0  0  0  # atno 6908 bound_to 6896
  152.1292  134.9147  160.0610 H   0  0  0  0  0  0  0  0  0  0  0  0  # atno 6909 bound_to 6896
  145.9475  140.7604  142.9521 H   0  0  0  0  0  0  0  0  0  0  0  0  # atno 7974 bound_to 7965
  154.4042  140.1586  156.2645 H   0  0  0  0  0  0  0  0  0  0  0  0  # atno 8008 bound_to 7997
  155.9007  140.3433  155.6002 H   0  0  0  0  0  0  0  0  0  0  0  0  # atno 8009 bound_to 7997
  155.7451  140.0797  157.2218 H   0  0  0  0  0  0  0  0  0  0  0  0  # atno 8010 bound_to 7997
  139.4838  144.5419  151.7550 H   0  0  0  0  0  0  0  0  0  0  0  0  # atno 10167 bound_to 10162
  156.0235  130.5429  150.7135 H   0  0  0  0  0  0  0  0  0  0  0  0  # atno 10718 bound_to 10713
  153.0425  135.6486  154.0905 H   0  0  0  0  0  0  0  0  0  0  0  0  # atno 10763 bound_to 10752
  154.0608  135.2888  155.3326 H   0  0  0  0  0  0  0  0  0  0  0  0  # atno 10764 bound_to 10752
  154.6658  135.5374  153.8141 H   0  0  0  0  0  0  0  0  0  0  0  0  # atno 10765 bound_to 10752
  139.9281  134.9641  156.8154 H   0  0  0  0  0  0  0  0  0  0  0  0  # atno 11005 bound_to 11000
  144.6789  140.2380  143.7347 LP  0  0  0  0  0  0  0  0  0  0  0  0  # atno 17320 bound_to 7965
  145.8217  139.2046  143.1934 LP  0  0  0  0  0  0  0  0  0  0  0  0  # atno 17321 bound_to 7965
  140.4959  144.1241  150.5960 LP  0  0  0  0  0  0  0  0  0  0  0  0  # atno 17342 bound_to 10162
  140.4117  143.2653  151.9824 LP  0  0  0  0  0  0  0  0  0  0  0  0  # atno 17343 bound_to 10162
  157.4768  131.0898  151.0581 LP  0  0  0  0  0  0  0  0  0  0  0  0  # atno 17370 bound_to 10713
  157.1026  130.5988  149.5463 LP  0  0  0  0  0  0  0  0  0  0  0  0  # atno 17371 bound_to 10713
  140.6278  133.9934  155.7648 LP  0  0  0  0  0  0  0  0  0  0  0  0  # atno 17394 bound_to 11000
  141.0853  134.0000  157.3323 LP  0  0  0  0  0  0  0  0  0  0  0  0  # atno 17395 bound_to 11000

$$$$
