AV-unprocessed.smi:2090|AV-procd|sdf|8536|dock5
  -GOLD-   2272011253D 1   1.00000     0.00000
 Structure written by MMmdl.
 41 42  0  0  0  0  0  0  0  0  3 V2000
  154.4379  136.5915  159.2404 C   0  0  0  0  0  0  0  0  0  0  0  0
  153.2003  137.1673  158.6420 C   0  0  0  0  0  0  0  0  0  0  0  0
  152.9748  137.9404  157.5382 C   0  0  0  0  0  0  0  0  0  0  0  0
  151.5664  138.1246  157.5572 C   0  0  0  0  0  0  0  0  0  0  0  0
  150.9224  138.8881  156.5475 N   0  0  0  0  0  0  0  0  0  0  0  0
  151.4739  139.6810  155.6108 C   0  0  0  0  0  0  0  0  0  0  0  0
  152.7020  139.8176  155.5515 O   0  0  0  0  0  0  0  0  0  0  0  0
  150.5379  140.2639  154.8111 N   0  5  0  0  0  0  0  0  0  0  0  0
  149.9123  141.5598  155.0701 C   0  0  0  0  0  0  0  0  0  0  0  0
  149.4074  141.6268  156.5259 C   0  0  0  0  0  0  0  0  0  0  0  0
  150.0387  142.7427  157.2786 N   0  3  2  0  0  0  0  0  0  0  0  0
  151.5213  142.7856  157.1412 C   0  0  0  0  0  0  0  0  0  0  0  0
  152.1043  144.0402  157.8121 C   0  0  0  0  0  0  0  0  0  0  0  0
  151.7033  144.1158  159.2949 C   0  0  1  0  0  0  0  0  0  0  0  0
  152.2576  145.3776  159.9709 C   0  0  0  0  0  0  0  0  0  0  0  0
  150.1721  144.0329  159.4099 C   0  0  0  0  0  0  0  0  0  0  0  0
  149.6250  142.7799  158.7055 C   0  0  0  0  0  0  0  0  0  0  0  0
  150.9858  137.5185  158.5825 N   0  0  0  0  0  0  0  0  0  0  0  0
  152.0297  136.9030  159.2830 O   0  0  0  0  0  0  0  0  0  0  0  0
  155.2216  136.4905  158.4895 H   0  0  0  0  0  0  0  0  0  0  0  0
  154.2440  135.6043  159.6601 H   0  0  0  0  0  0  0  0  0  0  0  0
  154.8137  137.2317  160.0386 H   0  0  0  0  0  0  0  0  0  0  0  0
  153.7011  138.3129  156.8311 H   0  0  0  0  0  0  0  0  0  0  0  0
  149.9150  138.8277  156.5315 H   0  0  0  0  0  0  0  0  0  0  0  0
  150.5968  142.3889  154.8868 H   0  0  0  0  0  0  0  0  0  0  0  0
  149.0691  141.7294  154.4003 H   0  0  0  0  0  0  0  0  0  0  0  0
  148.3248  141.7600  156.4999 H   0  0  0  0  0  0  0  0  0  0  0  0
  149.5789  140.6843  157.0487 H   0  0  0  0  0  0  0  0  0  0  0  0
  151.9552  141.8882  157.5853 H   0  0  0  0  0  0  0  0  0  0  0  0
  151.8022  142.7805  156.0874 H   0  0  0  0  0  0  0  0  0  0  0  0
  153.1907  144.0336  157.7187 H   0  0  0  0  0  0  0  0  0  0  0  0
  151.7543  144.9296  157.2860 H   0  0  0  0  0  0  0  0  0  0  0  0
  152.1293  143.2516  159.8069 H   0  0  0  0  0  0  0  0  0  0  0  0
  151.8737  146.2831  159.4996 H   0  0  0  0  0  0  0  0  0  0  0  0
  153.3459  145.4078  159.9120 H   0  0  0  0  0  0  0  0  0  0  0  0
  151.9843  145.4096  161.0260 H   0  0  0  0  0  0  0  0  0  0  0  0
  149.8757  144.0214  160.4594 H   0  0  0  0  0  0  0  0  0  0  0  0
  149.7191  144.9231  158.9707 H   0  0  0  0  0  0  0  0  0  0  0  0
  148.5363  142.7822  158.7728 H   0  0  0  0  0  0  0  0  0  0  0  0
  149.9738  141.8776  159.2107 H   0  0  0  0  0  0  0  0  0  0  0  0
  149.6796  143.5897  156.8618 H   0  0  0  0  0  0  0  0  0  0  0  0
  1  2  1  0  0  0  0
  1 20  1  0  0  0  0
  1 21  1  0  0  0  0
  1 22  1  0  0  0  0
  2 19  1  0  0  0  0
  2  3  2  0  0  0  0
  3  4  1  0  0  0  0
  3 23  1  0  0  0  0
  4  5  1  0  0  0  0
  4 18  2  0  0  0  0
  5  6  1  0  0  0  0
  5 24  1  0  0  0  0
  6  7  2  0  0  0  0
  6  8  1  0  0  0  0
  8  9  1  0  0  0  0
  9 10  1  0  0  0  0
  9 25  1  0  0  0  0
  9 26  1  0  0  0  0
 10 11  1  0  0  0  0
 10 27  1  0  0  0  0
 10 28  1  0  0  0  0
 11 17  1  0  0  0  0
 11 12  1  0  0  0  0
 11 41  1  0  0  0  0
 12 13  1  0  0  0  0
 12 29  1  0  0  0  0
 12 30  1  0  0  0  0
 13 14  1  0  0  0  0
 13 31  1  0  0  0  0
 13 32  1  0  0  0  0
 14 15  1  0  0  0  0
 14 16  1  0  0  0  0
 14 33  1  0  0  0  0
 15 34  1  0  0  0  0
 15 35  1  0  0  0  0
 15 36  1  0  0  0  0
 16 17  1  0  0  0  0
 16 37  1  0  0  0  0
 16 38  1  0  0  0  0
 17 39  1  0  0  0  0
 17 40  1  0  0  0  0
 18 19  1  0  0  0  0
M  CHG  1   8  -1
M  CHG  1  11   1
M  END
> <s_m_source_file>
AV-unprocessed.smi

> <i_m_source_file_index>
2090

> <i_lp_mmshare_version>
43012

> <i_f3d_flags>
0

> <s_epik_input>
W0NIM11jMVtjSF1jKG5vMSlbTkhdQyg9TylbTkhdW0NIMl1bQ0gyXU4yW0NIMl1bQ0gyXVtDSF0oW0NIM10pW0NIMl1bQ0gyXTI=

> <s_epik_cmdline>
J2VwaWtfcHl0aG9uJywgJy1waCcsICc3LjAnLCAnLXRuJywgJzgnLCAnLW1hJywgJzIwMCcsICctbWV0YWxfYmluZGluZycsICctaW1hZScsICc8aW5maWxlLm1hZT4nLCAnLW9tYWUnLCAnPG91dGZpbGUubWFlPic=

> <r_epik_Ionization_Penalty>
6.7721

> <r_epik_Ionization_Penalty_Charging>
6.7721

> <r_epik_Ionization_Penalty_Neutral>
5.78572e-06

> <r_epik_State_Penalty>
6.79704

> <r_epik_Charging_Adjusted_Penalty>
13.5691

> <i_epik_Tot_Q>
0

> <i_epik_Tot_abs_Q>
2

> <r_epik_Metal_State_Penalty>
2.73105

> <b_epik_Metal_Only>
1

> <s_lp_Force_Field>
OPLS_2005

> <r_lp_Energy>
11.0836

> <b_lp_Chiralities_Consistent>
1

> <s_lp_Variant>
AV-unprocessed.smi:2090-5

> <Gold.Version>
5.8.1

> <Gold.Id.Protein>
6NUR|6NUR_protein|mol2

> <Gold.PLP.Fitness>
45.0705

> <Gold.PLP.PLP>
-33.3757

> <Gold.PLP.part.hbond>
-4.0179

> <Gold.PLP.part.metal>
0.0000

> <Gold.PLP.part.buried>
-3.5382

> <Gold.PLP.part.nonpolar>
-24.7534

> <Gold.PLP.part.repulsive>
0.1000

> <Gold.PLP.ligand.clash>
0.1177

> <Gold.PLP.ligand.torsion>
1.2417

> <Gold.PLP.Chemscore.Hbond>
4.7500

> <Gold.PLP.Chemscore.CHOScore>
0.0000

> <Gold.PLP.Chemscore.Metal>
0.0000

> <Gold.Chemscore.Hbonds>
donor molecule, donor type, donor heavy atom, donor atom, acceptor molecule, acceptor atom, score
      L1  H    11    41       P1  8028  2.00
      P1  H  6896  6909       L1    19  1.00
      P1  H  7989  7998       L1     8  0.71
      P1  H  7997  8010       L1     7  1.00

> <Gold.PLP.Chemscore.Internal.Correction>
0.0459

> <Gold.Rescore>
     Score         DG    S(hbond)    S(metal)    S(lipo)     H(rot)  DE(clash)    DE(int)     intcor
     18.34     -21.08       2.91        0.00      84.00       1.54       0.03       2.71       ----

> <Gold.Chemscore.Fitness>
18.3408

> <Gold.Chemscore.DG>
-21.0850

> <Gold.Chemscore.ZeroCoef>
-5.4800

> <Gold.Chemscore.Hbond>
2.9107

> <Gold.Chemscore.Metal>
0.0000

> <Gold.Chemscore.Lipo>
83.9980

> <Gold.Chemscore.Internal_Hbond>
0.0000

> <Gold.Chemscore.DEClash>
0.0306

> <Gold.Chemscore.DEInternal>
2.7136

> <Gold.Chemscore.Rot>
1.5409

> <Gold.Chemscore.Internal.Correction>
   9.000000E+99

> <Gold.Chemscore.Hbonds>
donor molecule, donor type, donor heavy atom, donor atom, acceptor molecule, acceptor atom, score
      L1  H    11    41       P1  8028  0.98
      P1  H  6896  6909       L1    19  0.89
      P1  H  7989  7998       L1     8  0.02
      P1  H  7997  8010       L1     7  1.00

> <Gold.Chemscore.Hbond.Weighted>
-9.7218

> <Gold.Chemscore.Metal.Weighted>
-0.0000

> <Gold.Chemscore.Lipo.Weighted>
-9.8278

> <Gold.Chemscore.Internal_Hbond.Weighted>
0.0000

> <Gold.Chemscore.DEClash.Weighted>
0.0306

> <Gold.Chemscore.DEInternal.Weighted>
2.7136

> <Gold.Chemscore.Rot.Weighted>
3.9446

> <Gold.Chemscore.Internal.Correction.Weighted>
   9.000000E+99

> <Gold.Protein.RotatedTorsions>
[ 6907 6896 6895 6894 ] final  123.71 input  -60.11 | X-H torsion
[ 7974 7965 7964 7962 ] final  -56.45 input  175.53 | X-H torsion
[ 8008 7997 7996 7995 ] final   87.41 input   59.86 | X-H torsion
[ 10167 10162 10161 10158 ] final -114.99 input  -65.29 | X-H torsion
[ 10718 10713 10712 10709 ] final   36.41 input   66.30 | X-H torsion
[ 10763 10752 10751 10750 ] final  -84.31 input  -60.55 | X-H torsion
[ 11005 11000 10999 10996 ] final  -77.27 input  -57.11 | X-H torsion

> <Gold.Protein.ActiveResidues>
 VAL166  LYS551  ARG553  GLY616  TRP617  ASP618  TYR619  PRO620  LYS621  CYS622 
 ASP623  PHE694  ASN695  SER759  ASP760  ASP761  ALA762  ILE779  LEU786  VAL792 
 PHE793  MET794  SER795  GLU796  ALA797  LYS798  CYS799  TRP800  GLU811  SER814 

> <Gold.Protein.RotatedAtoms>
  152.4139  133.7007  159.6421 H   0  0  0  0  0  0  0  0  0  0  0  0  # atno 6907 bound_to 6896
  150.8017  133.8575  159.3231 H   0  0  0  0  0  0  0  0  0  0  0  0  # atno 6908 bound_to 6896
  151.6310  135.1025  160.0173 H   0  0  0  0  0  0  0  0  0  0  0  0  # atno 6909 bound_to 6896
  145.8625  140.8275  142.9929 H   0  0  0  0  0  0  0  0  0  0  0  0  # atno 7974 bound_to 7965
  155.9750  140.3382  155.6610 H   0  0  0  0  0  0  0  0  0  0  0  0  # atno 8008 bound_to 7997
  155.6624  140.0717  157.2567 H   0  0  0  0  0  0  0  0  0  0  0  0  # atno 8009 bound_to 7997
  154.4176  140.1706  156.1778 H   0  0  0  0  0  0  0  0  0  0  0  0  # atno 8010 bound_to 7997
  140.0950  143.4665  152.1847 H   0  0  0  0  0  0  0  0  0  0  0  0  # atno 10167 bound_to 10162
  157.3345  130.7515  149.6870 H   0  0  0  0  0  0  0  0  0  0  0  0  # atno 10718 bound_to 10713
  154.5980  135.5525  153.7345 H   0  0  0  0  0  0  0  0  0  0  0  0  # atno 10763 bound_to 10752
  153.0143  135.6359  154.1755 H   0  0  0  0  0  0  0  0  0  0  0  0  # atno 10764 bound_to 10752
  154.1695  135.2893  155.3065 H   0  0  0  0  0  0  0  0  0  0  0  0  # atno 10765 bound_to 10752
  141.1659  133.7016  156.7795 H   0  0  0  0  0  0  0  0  0  0  0  0  # atno 11005 bound_to 11000
  144.6726  140.1117  143.7455 LP  0  0  0  0  0  0  0  0  0  0  0  0  # atno 17320 bound_to 7965
  145.9231  139.2558  143.1369 LP  0  0  0  0  0  0  0  0  0  0  0  0  # atno 17321 bound_to 7965
  139.5703  144.7459  151.3908 LP  0  0  0  0  0  0  0  0  0  0  0  0  # atno 17342 bound_to 10162
  140.7008  143.7635  150.7401 LP  0  0  0  0  0  0  0  0  0  0  0  0  # atno 17343 bound_to 10162
  155.9700  130.4185  150.4333 LP  0  0  0  0  0  0  0  0  0  0  0  0  # atno 17370 bound_to 10713
  157.2370  131.0517  151.2459 LP  0  0  0  0  0  0  0  0  0  0  0  0  # atno 17371 bound_to 10713
  140.2405  134.8617  157.3568 LP  0  0  0  0  0  0  0  0  0  0  0  0  # atno 17394 bound_to 11000
  140.1801  134.4500  155.7777 LP  0  0  0  0  0  0  0  0  0  0  0  0  # atno 17395 bound_to 11000

$$$$
