AV-unprocessed.smi:1326|AV-procd|sdf|5476|dock3
  -GOLD-   22720 5 43D 1   1.00000     0.00000
 Structure written by MMmdl.
 38 38  0  0  0  0  0  0  0  0  2 V2000
  150.7430  142.8827  157.7337 C   0  0  0  0  0  0  0  0  0  0  0  0
  150.7943  141.8121  156.6647 C   0  0  0  0  0  0  0  0  0  0  0  0
  149.7135  141.4600  156.0793 N   0  0  0  0  0  0  0  0  0  0  0  0
  149.7568  140.4678  155.0849 C   0  0  0  0  0  0  0  0  0  0  0  0
  148.4279  140.1149  154.4399 C   0  0  0  0  0  0  0  0  0  0  0  0
  150.9324  139.8729  154.7328 C   0  0  0  0  0  0  0  0  0  0  0  0
  151.0348  138.7923  153.6561 C   0  0  0  0  0  0  0  0  0  0  0  0
  151.5829  137.4399  154.1166 C   0  0  0  0  0  0  0  0  0  0  0  0
  152.6036  137.3907  154.8030 O   0  0  0  0  0  0  0  0  0  0  0  0
  150.8854  136.3531  153.7512 N   0  0  0  0  0  0  0  0  0  0  0  0
  151.2071  134.9809  154.1224 C   0  0  0  0  0  0  0  0  0  0  0  0
  150.0264  134.0370  153.8303 C   0  0  0  0  0  0  0  0  0  0  0  0
  150.3812  132.8423  152.9219 C   0  0  0  0  0  0  0  0  0  0  0  0
  149.1964  131.8826  152.7203 C   0  0  0  0  0  0  0  0  0  0  0  0
  151.5950  132.0821  153.4778 C   0  0  0  0  0  0  0  0  0  0  0  0
  152.1540  140.3013  155.4380 C   0  0  0  0  0  0  0  0  0  0  0  0
  153.2376  139.7816  155.1733 O   0  0  0  0  0  0  0  0  0  0  0  0
  152.0298  141.2718  156.3872 N   0  5  0  0  0  0  0  0  0  0  0  0
  149.7612  143.3569  157.7689 H   0  0  0  0  0  0  0  0  0  0  0  0
  151.4865  143.6553  157.5348 H   0  0  0  0  0  0  0  0  0  0  0  0
  150.9491  142.4475  158.7119 H   0  0  0  0  0  0  0  0  0  0  0  0
  148.2294  139.0465  154.5269 H   0  0  0  0  0  0  0  0  0  0  0  0
  148.4344  140.3823  153.3831 H   0  0  0  0  0  0  0  0  0  0  0  0
  147.6036  140.6477  154.9153 H   0  0  0  0  0  0  0  0  0  0  0  0
  150.0449  138.6328  153.2284 H   0  0  0  0  0  0  0  0  0  0  0  0
  151.6394  139.1408  152.8182 H   0  0  0  0  0  0  0  0  0  0  0  0
  150.0592  136.4918  153.1862 H   0  0  0  0  0  0  0  0  0  0  0  0
  152.0847  134.6854  153.5485 H   0  0  0  0  0  0  0  0  0  0  0  0
  151.4907  134.9294  155.1749 H   0  0  0  0  0  0  0  0  0  0  0  0
  149.6504  133.6531  154.7800 H   0  0  0  0  0  0  0  0  0  0  0  0
  149.2045  134.6029  153.3890 H   0  0  0  0  0  0  0  0  0  0  0  0
  150.6655  133.2338  151.9443 H   0  0  0  0  0  0  0  0  0  0  0  0
  148.8334  131.4957  153.6728 H   0  0  0  0  0  0  0  0  0  0  0  0
  149.4842  131.0295  152.1052 H   0  0  0  0  0  0  0  0  0  0  0  0
  148.3623  132.3717  152.2180 H   0  0  0  0  0  0  0  0  0  0  0  0
  151.3847  131.6668  154.4641 H   0  0  0  0  0  0  0  0  0  0  0  0
  152.4620  132.7369  153.5704 H   0  0  0  0  0  0  0  0  0  0  0  0
  151.8773  131.2575  152.8229 H   0  0  0  0  0  0  0  0  0  0  0  0
  1  2  1  0  0  0  0
  1 19  1  0  0  0  0
  1 20  1  0  0  0  0
  1 21  1  0  0  0  0
  2 18  1  0  0  0  0
  2  3  2  0  0  0  0
  3  4  1  0  0  0  0
  4  5  1  0  0  0  0
  4  6  2  0  0  0  0
  5 22  1  0  0  0  0
  5 23  1  0  0  0  0
  5 24  1  0  0  0  0
  6  7  1  0  0  0  0
  6 16  1  0  0  0  0
  7  8  1  0  0  0  0
  7 25  1  0  0  0  0
  7 26  1  0  0  0  0
  8  9  2  0  0  0  0
  8 10  1  0  0  0  0
 10 11  1  0  0  0  0
 10 27  1  0  0  0  0
 11 12  1  0  0  0  0
 11 28  1  0  0  0  0
 11 29  1  0  0  0  0
 12 13  1  0  0  0  0
 12 30  1  0  0  0  0
 12 31  1  0  0  0  0
 13 14  1  0  0  0  0
 13 15  1  0  0  0  0
 13 32  1  0  0  0  0
 14 33  1  0  0  0  0
 14 34  1  0  0  0  0
 14 35  1  0  0  0  0
 15 36  1  0  0  0  0
 15 37  1  0  0  0  0
 15 38  1  0  0  0  0
 16 17  2  0  0  0  0
 16 18  1  0  0  0  0
M  CHG  1  18  -1
M  END
> <s_m_source_file>
AV-unprocessed.smi

> <i_m_source_file_index>
1326

> <i_lp_mmshare_version>
43012

> <i_f3d_flags>
0

> <s_epik_input>
W0NIM11jMW5jKFtDSDNdKWMoYyg9TylbbkhdMSlbQ0gyXUMoPU8pW05IXVtDSDJdW0NIMl1bQ0hdKFtDSDNdKVtDSDNd

> <s_epik_cmdline>
J2VwaWtfcHl0aG9uJywgJy1waCcsICc3LjAnLCAnLXRuJywgJzgnLCAnLW1hJywgJzIwMCcsICctbWV0YWxfYmluZGluZycsICctaW1hZScsICc8aW5maWxlLm1hZT4nLCAnLW9tYWUnLCAnPG91dGZpbGUubWFlPic=

> <r_lp_tautomer_probability>
0.839158

> <r_epik_Ionization_Penalty>
6.68288

> <r_epik_Ionization_Penalty_Charging>
7.3825e-08

> <r_epik_Ionization_Penalty_Neutral>
6.68288

> <r_epik_State_Penalty>
4.52336

> <r_epik_Charging_Adjusted_Penalty>
4.52336

> <i_epik_Tot_Q>
-1

> <i_epik_Tot_abs_Q>
1

> <r_epik_Metal_State_Penalty>
0.854958

> <b_epik_Metal_Only>
1

> <s_lp_Force_Field>
OPLS_2005

> <r_lp_Energy>
8.11969

> <b_lp_Chiralities_Consistent>
1

> <s_lp_Variant>
AV-unprocessed.smi:1326-3

> <Gold.Version>
5.8.1

> <Gold.Id.Protein>
6NUR|6NUR_protein|mol2

> <Gold.PLP.Fitness>
43.0199

> <Gold.PLP.PLP>
-35.1819

> <Gold.PLP.part.hbond>
-4.0000

> <Gold.PLP.part.metal>
0.0000

> <Gold.PLP.part.buried>
-1.3042

> <Gold.PLP.part.nonpolar>
-30.3361

> <Gold.PLP.part.repulsive>
0.1919

> <Gold.PLP.ligand.clash>
0.0000

> <Gold.PLP.ligand.torsion>
0.6003

> <Gold.PLP.Chemscore.Hbond>
3.0000

> <Gold.PLP.Chemscore.CHOScore>
0.0000

> <Gold.PLP.Chemscore.Metal>
0.0000

> <Gold.Chemscore.Hbonds>
donor molecule, donor type, donor heavy atom, donor atom, acceptor molecule, acceptor atom, score
      L1  H    10    27       P1  7948  0.50
      P1  H  7997  8010       L1    17  0.88
      P1  H 10752 10765       L1     9  0.38

> <Gold.PLP.Chemscore.Internal.Correction>
0.0385

> <Gold.Rescore>
     Score         DG    S(hbond)    S(metal)    S(lipo)     H(rot)  DE(clash)    DE(int)     intcor
     14.22     -16.20       2.51        0.00      59.92       1.83       0.03       1.94       ----

> <Gold.Chemscore.Fitness>
14.2229

> <Gold.Chemscore.DG>
-16.2009

> <Gold.Chemscore.ZeroCoef>
-5.4800

> <Gold.Chemscore.Hbond>
2.5138

> <Gold.Chemscore.Metal>
0.0000

> <Gold.Chemscore.Lipo>
59.9159

> <Gold.Chemscore.Internal_Hbond>
0.0000

> <Gold.Chemscore.DEClash>
0.0336

> <Gold.Chemscore.DEInternal>
1.9444

> <Gold.Chemscore.Rot>
1.8302

> <Gold.Chemscore.Internal.Correction>
   9.000000E+99

> <Gold.Chemscore.Hbonds>
donor molecule, donor type, donor heavy atom, donor atom, acceptor molecule, acceptor atom, score
      L1  H    10    27       P1  7948  0.02
      P1  H  7997  8010       L1    17  0.70
      P1  H 10752 10765       L1     9  0.22

> <Gold.Chemscore.Hbond.Weighted>
-8.3961

> <Gold.Chemscore.Metal.Weighted>
-0.0000

> <Gold.Chemscore.Lipo.Weighted>
-7.0102

> <Gold.Chemscore.Internal_Hbond.Weighted>
0.0000

> <Gold.Chemscore.DEClash.Weighted>
0.0336

> <Gold.Chemscore.DEInternal.Weighted>
1.9444

> <Gold.Chemscore.Rot.Weighted>
4.6854

> <Gold.Chemscore.Internal.Correction.Weighted>
   9.000000E+99

> <Gold.Protein.RotatedTorsions>
[ 6907 6896 6895 6894 ] final  -43.14 input  -60.11 | X-H torsion
[ 7974 7965 7964 7962 ] final -132.24 input  175.53 | X-H torsion
[ 8008 7997 7996 7995 ] final   80.11 input   59.86 | X-H torsion
[ 10167 10162 10161 10158 ] final  152.08 input  -65.29 | X-H torsion
[ 10718 10713 10712 10709 ] final  -51.62 input   66.30 | X-H torsion
[ 10763 10752 10751 10750 ] final -160.40 input  -60.55 | X-H torsion
[ 11005 11000 10999 10996 ] final  145.84 input  -57.11 | X-H torsion

> <Gold.Protein.ActiveResidues>
 VAL166  LYS551  ARG553  GLY616  TRP617  ASP618  TYR619  PRO620  LYS621  CYS622 
 ASP623  PHE694  ASN695  SER759  ASP760  ASP761  ALA762  ILE779  LEU786  VAL792 
 PHE793  MET794  SER795  GLU796  ALA797  LYS798  CYS799  TRP800  GLU811  SER814 

> <Gold.Protein.RotatedAtoms>
  150.9473  134.8877  159.7649 H   0  0  0  0  0  0  0  0  0  0  0  0  # atno 6907 bound_to 6896
  152.5105  134.3856  159.9376 H   0  0  0  0  0  0  0  0  0  0  0  0  # atno 6908 bound_to 6896
  151.3874  133.3760  159.2752 H   0  0  0  0  0  0  0  0  0  0  0  0  # atno 6909 bound_to 6896
  144.9303  140.7121  143.4910 H   0  0  0  0  0  0  0  0  0  0  0  0  # atno 7974 bound_to 7965
  155.8790  140.3445  155.5874 H   0  0  0  0  0  0  0  0  0  0  0  0  # atno 8008 bound_to 7997
  155.7741  140.0849  157.2112 H   0  0  0  0  0  0  0  0  0  0  0  0  # atno 8009 bound_to 7997
  154.4023  140.1513  156.2964 H   0  0  0  0  0  0  0  0  0  0  0  0  # atno 8010 bound_to 7997
  139.4835  144.5388  151.7600 H   0  0  0  0  0  0  0  0  0  0  0  0  # atno 10167 bound_to 10162
  156.1694  130.4149  149.9670 H   0  0  0  0  0  0  0  0  0  0  0  0  # atno 10718 bound_to 10713
  154.7393  135.3065  154.8756 H   0  0  0  0  0  0  0  0  0  0  0  0  # atno 10763 bound_to 10752
  153.9575  135.6757  153.4749 H   0  0  0  0  0  0  0  0  0  0  0  0  # atno 10764 bound_to 10752
  153.0993  135.4920  154.8762 H   0  0  0  0  0  0  0  0  0  0  0  0  # atno 10765 bound_to 10752
  140.0744  134.9133  157.1399 H   0  0  0  0  0  0  0  0  0  0  0  0  # atno 11005 bound_to 11000
  145.3152  139.1806  143.4617 LP  0  0  0  0  0  0  0  0  0  0  0  0  # atno 17320 bound_to 7965
  146.3244  140.3162  142.8630 LP  0  0  0  0  0  0  0  0  0  0  0  0  # atno 17321 bound_to 7965
  140.4924  144.1290  150.5953 LP  0  0  0  0  0  0  0  0  0  0  0  0  # atno 17342 bound_to 10162
  140.4156  143.2636  151.9779 LP  0  0  0  0  0  0  0  0  0  0  0  0  # atno 17343 bound_to 10162
  156.7475  130.9103  151.3635 LP  0  0  0  0  0  0  0  0  0  0  0  0  # atno 17370 bound_to 10713
  157.6792  130.9123  150.0224 LP  0  0  0  0  0  0  0  0  0  0  0  0  # atno 17371 bound_to 10713
  140.3579  134.2527  155.7190 LP  0  0  0  0  0  0  0  0  0  0  0  0  # atno 17394 bound_to 11000
  141.2024  133.7938  157.0392 LP  0  0  0  0  0  0  0  0  0  0  0  0  # atno 17395 bound_to 11000

$$$$
