AV-unprocessed.smi:264|AV-procd|sdf|2013|dock7
  -GOLD-   2262021213D 1   1.00000     0.00000
 Structure written by MMmdl.
 52 56  0  0  0  0  0  0  0  0  1 V2000
  149.9051  138.0787  154.5809 C   0  0  0  0  0  0  0  0  0  0  0  0
  149.9193  139.6087  154.4304 C   0  0  2  0  0  0  0  0  0  0  0  0
  151.1736  140.1417  154.8549 O   0  0  0  0  0  0  0  0  0  0  0  0
  150.9758  141.0683  155.9125 C   0  0  0  0  0  0  0  0  0  0  0  0
  149.5789  141.6209  155.6649 C   0  0  0  0  0  0  0  0  0  0  0  0
  148.8185  140.3913  155.1868 C   0  0  2  0  0  0  0  0  0  0  0  0
  148.3770  139.6719  156.3274 O   0  0  0  0  0  0  0  0  0  0  0  0
  147.5877  140.7160  154.3067 C   0  0  0  0  0  0  0  0  0  0  0  0
  147.0889  139.5660  153.5680 N   0  0  0  0  0  0  0  0  0  0  0  0
  146.8126  139.5096  152.2206 C   0  0  0  0  0  0  0  0  0  0  0  0
  146.3633  138.3618  151.7925 N   0  0  0  0  0  0  0  0  0  0  0  0
  146.3292  137.5631  152.9297 C   0  0  0  0  0  0  0  0  0  0  0  0
  145.9468  136.2152  153.1842 C   0  0  0  0  0  0  0  0  0  0  0  0
  145.4638  135.3939  152.2167 N   0  0  0  0  0  0  0  0  0  0  0  0
  144.2995  135.9042  151.5031 C   0  0  0  0  0  0  0  0  0  0  0  0
  144.0720  135.0908  150.2216 C   0  0  0  0  0  0  0  0  0  0  0  0
  143.9795  133.6999  150.5264 O   0  0  0  0  0  0  0  0  0  0  0  0
  145.1031  133.1523  151.2279 C   0  0  2  0  0  0  0  0  0  0  0  0
  146.3273  133.0031  150.3286 C   0  0  0  0  0  0  0  0  0  0  0  0
  146.0160  131.7208  149.5725 C   0  0  0  0  0  0  0  0  0  0  0  0
  145.4488  130.8822  150.5659 O   0  0  0  0  0  0  0  0  0  0  0  0
  144.7621  131.6818  151.5264 C   0  0  0  0  0  0  0  0  0  0  0  0
  145.3598  133.9676  152.5142 C   0  0  0  0  0  0  0  0  0  0  0  0
  146.0806  135.7601  154.4593 N   0  0  0  0  0  0  0  0  0  0  0  0
  146.5418  136.5655  155.4206 C   0  0  0  0  0  0  0  0  0  0  0  0
  146.9210  137.8413  155.3293 N   0  0  0  0  0  0  0  0  0  0  0  0
  146.7985  138.3026  154.0524 C   0  0  0  0  0  0  0  0  0  0  0  0
  148.9466  137.6628  154.2694 H   0  0  0  0  0  0  0  0  0  0  0  0
  150.0880  137.7745  155.6117 H   0  0  0  0  0  0  0  0  0  0  0  0
  150.6806  137.6234  153.9647 H   0  0  0  0  0  0  0  0  0  0  0  0
  149.8515  139.8428  153.3673 H   0  0  0  0  0  0  0  0  0  0  0  0
  151.0186  140.5395  156.8656 H   0  0  0  0  0  0  0  0  0  0  0  0
  151.7424  141.8432  155.9163 H   0  0  0  0  0  0  0  0  0  0  0  0
  149.1432  142.0952  156.5453 H   0  0  0  0  0  0  0  0  0  0  0  0
  149.6267  142.3672  154.8709 H   0  0  0  0  0  0  0  0  0  0  0  0
  147.4788  139.9076  156.5029 H   0  0  0  0  0  0  0  0  0  0  0  0
  146.7721  141.0934  154.9251 H   0  0  0  0  0  0  0  0  0  0  0  0
  147.8254  141.5108  153.5983 H   0  0  0  0  0  0  0  0  0  0  0  0
  146.9498  140.3543  151.5612 H   0  0  0  0  0  0  0  0  0  0  0  0
  143.4262  135.8267  152.1524 H   0  0  0  0  0  0  0  0  0  0  0  0
  144.4092  136.9574  151.2483 H   0  0  0  0  0  0  0  0  0  0  0  0
  143.1431  135.4033  149.7444 H   0  0  0  0  0  0  0  0  0  0  0  0
  144.8653  135.2803  149.4995 H   0  0  0  0  0  0  0  0  0  0  0  0
  146.5202  133.8483  149.6702 H   0  0  0  0  0  0  0  0  0  0  0  0
  147.2218  132.8526  150.9345 H   0  0  0  0  0  0  0  0  0  0  0  0
  145.2819  131.9020  148.7858 H   0  0  0  0  0  0  0  0  0  0  0  0
  146.9005  131.2690  149.1227 H   0  0  0  0  0  0  0  0  0  0  0  0
  145.1087  131.3850  152.5169 H   0  0  0  0  0  0  0  0  0  0  0  0
  143.6884  131.4944  151.4871 H   0  0  0  0  0  0  0  0  0  0  0  0
  146.2677  133.6136  153.0047 H   0  0  0  0  0  0  0  0  0  0  0  0
  144.5371  133.8158  153.2146 H   0  0  0  0  0  0  0  0  0  0  0  0
  146.6155  136.1255  156.4043 H   0  0  0  0  0  0  0  0  0  0  0  0
  1  2  1  0  0  0  0
  1 28  1  0  0  0  0
  1 29  1  0  0  0  0
  1 30  1  0  0  0  0
  2  6  1  0  0  0  0
  2  3  1  0  0  0  0
  2 31  1  0  0  0  0
  3  4  1  0  0  0  0
  4  5  1  0  0  0  0
  4 32  1  0  0  0  0
  4 33  1  0  0  0  0
  5  6  1  0  0  0  0
  5 34  1  0  0  0  0
  5 35  1  0  0  0  0
  6  7  1  0  0  0  0
  6  8  1  0  0  0  0
  7 36  1  0  0  0  0
  8  9  1  0  0  0  0
  8 37  1  0  0  0  0
  8 38  1  0  0  0  0
  9 27  1  0  0  0  0
  9 10  1  0  0  0  0
 10 11  2  0  0  0  0
 10 39  1  0  0  0  0
 11 12  1  0  0  0  0
 12 27  2  0  0  0  0
 12 13  1  0  0  0  0
 13 14  1  0  0  0  0
 13 24  2  0  0  0  0
 14 23  1  0  0  0  0
 14 15  1  0  0  0  0
 15 16  1  0  0  0  0
 15 40  1  0  0  0  0
 15 41  1  0  0  0  0
 16 17  1  0  0  0  0
 16 42  1  0  0  0  0
 16 43  1  0  0  0  0
 17 18  1  0  0  0  0
 18 22  1  0  0  0  0
 18 19  1  0  0  0  0
 18 23  1  0  0  0  0
 19 20  1  0  0  0  0
 19 44  1  0  0  0  0
 19 45  1  0  0  0  0
 20 21  1  0  0  0  0
 20 46  1  0  0  0  0
 20 47  1  0  0  0  0
 21 22  1  0  0  0  0
 22 48  1  0  0  0  0
 22 49  1  0  0  0  0
 23 50  1  0  0  0  0
 23 51  1  0  0  0  0
 24 25  1  0  0  0  0
 25 26  2  0  0  0  0
 25 52  1  0  0  0  0
 26 27  1  0  0  0  0
M  END
> <s_m_source_file>
AV-unprocessed.smi

> <i_m_source_file_index>
264

> <i_lp_mmshare_version>
43012

> <i_f3d_flags>
0

> <s_epik_input>
W0NIMl0xW0NIMl1PW0NAQEhdKFtDSDNdKVtDQEBdMShbT0hdKVtDSDJdbihbY0hdbjIpYyhjMjMpbltjSF1uYzNOKFtDSDJdNClbQ0gyXVtDSDJdT1tDQF00NVtDSDJdW0NIMl1PW0NIMl01

> <s_epik_cmdline>
J2VwaWtfcHl0aG9uJywgJy1waCcsICc3LjAnLCAnLXRuJywgJzgnLCAnLW1hJywgJzIwMCcsICctbWV0YWxfYmluZGluZycsICctaW1hZScsICc8aW5maWxlLm1hZT4nLCAnLW9tYWUnLCAnPG91dGZpbGUubWFlPic=

> <r_lp_tautomer_probability>
1

> <r_epik_Ionization_Penalty>
0.00539389

> <r_epik_Ionization_Penalty_Charging>
0

> <r_epik_Ionization_Penalty_Neutral>
0.00539389

> <r_epik_State_Penalty>
0.00375441

> <r_epik_Charging_Adjusted_Penalty>
0.00375441

> <i_epik_Tot_Q>
0

> <i_epik_Tot_abs_Q>
0

> <r_epik_Metal_State_Penalty>
-0

> <b_epik_Metal_Only>
0

> <s_lp_Force_Field>
OPLS_2005

> <r_lp_Energy>
54.0423

> <b_lp_Chiralities_Consistent>
1

> <s_lp_Variant>
AV-unprocessed.smi:264-7

> <Gold.Version>
5.8.1

> <Gold.Id.Protein>
6NUR|6NUR_protein|mol2

> <Gold.PLP.Fitness>
37.5287

> <Gold.PLP.PLP>
-33.9709

> <Gold.PLP.part.hbond>
-1.0000

> <Gold.PLP.part.metal>
0.0000

> <Gold.PLP.part.buried>
1.1092

> <Gold.PLP.part.nonpolar>
-35.9065

> <Gold.PLP.part.repulsive>
0.8958

> <Gold.PLP.ligand.clash>
0.0000

> <Gold.PLP.ligand.torsion>
0.3948

> <Gold.PLP.Chemscore.Hbond>
1.0000

> <Gold.PLP.Chemscore.CHOScore>
0.3563

> <Gold.PLP.Chemscore.Metal>
0.0000

> <Gold.Chemscore.Hbonds>
donor molecule, donor type, donor heavy atom, donor atom, acceptor molecule, acceptor atom, score
      P1  H  7989  7998       L1     3  1.00
      L1  C    10    39       P1  7957  0.24

> <Gold.PLP.Chemscore.Internal.Correction>
0.2785

> <Gold.Rescore>
     Score         DG    S(hbond)    S(metal)    S(lipo)     H(rot)  DE(clash)    DE(int)     intcor
      9.40     -12.12       0.39        0.00      91.61       2.11       0.66       2.06       ----

> <Gold.Chemscore.Fitness>
9.4009

> <Gold.Chemscore.DG>
-12.1219

> <Gold.Chemscore.ZeroCoef>
-5.4800

> <Gold.Chemscore.Hbond>
0.3939

> <Gold.Chemscore.Metal>
0.0000

> <Gold.Chemscore.Lipo>
91.6109

> <Gold.Chemscore.Internal_Hbond>
0.0000

> <Gold.Chemscore.DEClash>
0.6642

> <Gold.Chemscore.DEInternal>
2.0568

> <Gold.Chemscore.Rot>
2.1063

> <Gold.Chemscore.Internal.Correction>
   9.000000E+99

> <Gold.Chemscore.Hbonds>
donor molecule, donor type, donor heavy atom, donor atom, acceptor molecule, acceptor atom, score
      P1  H  7989  7998       L1     3  0.21

> <Gold.Chemscore.Hbond.Weighted>
-1.3156

> <Gold.Chemscore.Metal.Weighted>
-0.0000

> <Gold.Chemscore.Lipo.Weighted>
-10.7185

> <Gold.Chemscore.Internal_Hbond.Weighted>
0.0000

> <Gold.Chemscore.DEClash.Weighted>
0.6642

> <Gold.Chemscore.DEInternal.Weighted>
2.0568

> <Gold.Chemscore.Rot.Weighted>
5.3921

> <Gold.Chemscore.Internal.Correction.Weighted>
   9.000000E+99

> <Gold.Protein.RotatedTorsions>
[ 6907 6896 6895 6894 ] final  -76.44 input  -60.11 | X-H torsion
[ 7974 7965 7964 7962 ] final  150.00 input  175.53 | X-H torsion
[ 8008 7997 7996 7995 ] final  151.92 input   59.86 | X-H torsion
[ 10167 10162 10161 10158 ] final   16.51 input  -65.29 | X-H torsion
[ 10718 10713 10712 10709 ] final -121.03 input   66.30 | X-H torsion
[ 10763 10752 10751 10750 ] final   81.42 input  -60.55 | X-H torsion
[ 11005 11000 10999 10996 ] final  -66.96 input  -57.11 | X-H torsion

> <Gold.Protein.ActiveResidues>
 VAL166  LYS551  ARG553  GLY616  TRP617  ASP618  TYR619  PRO620  LYS621  CYS622 
 ASP623  PHE694  ASN695  SER759  ASP760  ASP761  ALA762  ILE779  LEU786  VAL792 
 PHE793  MET794  SER795  GLU796  ALA797  LYS798  CYS799  TRP800  GLU811  SER814 

> <Gold.Protein.RotatedAtoms>
  150.7027  134.4571  159.5363 H   0  0  0  0  0  0  0  0  0  0  0  0  # atno 6907 bound_to 6896
  152.2253  134.8371  160.0490 H   0  0  0  0  0  0  0  0  0  0  0  0  # atno 6908 bound_to 6896
  151.9207  133.3550  159.3933 H   0  0  0  0  0  0  0  0  0  0  0  0  # atno 6909 bound_to 6896
  144.8396  139.6352  143.6022 H   0  0  0  0  0  0  0  0  0  0  0  0  # atno 7974 bound_to 7965
  156.2652  140.2035  156.6252 H   0  0  0  0  0  0  0  0  0  0  0  0  # atno 8008 bound_to 7997
  154.6726  140.0548  157.0206 H   0  0  0  0  0  0  0  0  0  0  0  0  # atno 8009 bound_to 7997
  155.1115  140.3216  155.4523 H   0  0  0  0  0  0  0  0  0  0  0  0  # atno 8010 bound_to 7997
  140.5792  143.9014  150.6775 H   0  0  0  0  0  0  0  0  0  0  0  0  # atno 10167 bound_to 10162
  156.1305  130.6392  150.9613 H   0  0  0  0  0  0  0  0  0  0  0  0  # atno 10718 bound_to 10713
  153.1115  135.4766  154.9043 H   0  0  0  0  0  0  0  0  0  0  0  0  # atno 10763 bound_to 10752
  154.7485  135.3100  154.8603 H   0  0  0  0  0  0  0  0  0  0  0  0  # atno 10764 bound_to 10752
  153.9190  135.6857  153.4802 H   0  0  0  0  0  0  0  0  0  0  0  0  # atno 10765 bound_to 10752
  141.1496  133.6709  156.6219 H   0  0  0  0  0  0  0  0  0  0  0  0  # atno 11005 bound_to 11000
  146.2691  139.6591  142.9309 LP  0  0  0  0  0  0  0  0  0  0  0  0  # atno 17320 bound_to 7965
  145.4721  141.0436  143.2693 LP  0  0  0  0  0  0  0  0  0  0  0  0  # atno 17321 bound_to 7965
  140.2509  143.3594  152.1406 LP  0  0  0  0  0  0  0  0  0  0  0  0  # atno 17342 bound_to 10162
  139.5160  144.6971  151.5600 LP  0  0  0  0  0  0  0  0  0  0  0  0  # atno 17343 bound_to 10162
  157.6483  131.0901  150.8105 LP  0  0  0  0  0  0  0  0  0  0  0  0  # atno 17370 bound_to 10713
  156.8191  130.4978  149.5345 LP  0  0  0  0  0  0  0  0  0  0  0  0  # atno 17371 bound_to 10713
  140.3534  134.7749  157.4483 LP  0  0  0  0  0  0  0  0  0  0  0  0  # atno 17394 bound_to 11000
  140.0843  134.5688  155.8509 LP  0  0  0  0  0  0  0  0  0  0  0  0  # atno 17395 bound_to 11000

$$$$
