AV-unprocessed.smi:2881|AV-procd|sdf|11061|dock4
  -GOLD-   2272015533D 1   1.00000     0.00000
 Structure written by MMmdl.
 40 42  0  0  0  0  0  0  0  0  1 V2000
  146.6080  134.0457  162.3991 C   0  0  0  0  0  0  0  0  0  0  0  0
  146.9329  135.2528  161.5866 C   0  0  0  0  0  0  0  0  0  0  0  0
  147.2637  135.3926  160.2685 C   0  0  0  0  0  0  0  0  0  0  0  0
  147.4468  136.7967  160.0965 C   0  0  0  0  0  0  0  0  0  0  0  0
  147.7994  137.5358  158.8329 C   0  0  0  0  0  0  0  0  0  0  0  0
  149.1869  137.1023  158.3620 C   0  0  0  0  0  0  0  0  0  0  0  0
  149.7800  136.1934  158.9426 O   0  0  0  0  0  0  0  0  0  0  0  0
  149.6721  137.7398  157.2857 N   0  0  0  0  0  0  0  0  0  0  0  0
  150.8983  137.3889  156.5692 C   0  0  2  0  0  0  0  0  0  0  0  0
  152.1456  138.1140  157.1317 C   0  0  2  0  0  0  0  0  0  0  0  0
  151.9037  139.6327  157.2673 C   0  0  0  0  0  0  0  0  0  0  0  0
  151.8614  140.0974  155.8008 C   0  0  0  0  0  0  0  0  0  0  0  0
  152.1125  138.7920  155.0163 C   0  0  1  0  0  0  0  0  0  0  0  0
  153.0947  138.0787  155.9380 C   0  0  0  0  0  0  0  0  0  0  0  0
  150.8987  137.8317  155.0768 C   0  0  2  0  0  0  0  0  0  0  0  0
  149.5723  138.3802  154.4989 C   0  0  0  0  0  0  0  0  0  0  0  0
  149.7607  138.8356  153.1761 O   0  0  0  0  0  0  0  0  0  0  0  0
  147.2515  137.4720  161.2214 N   0  0  0  0  0  0  0  0  0  0  0  0
  146.9373  136.5208  162.1204 N   0  0  0  0  0  0  0  0  0  0  0  0
  146.7328  136.7482  163.0831 H   0  0  0  0  0  0  0  0  0  0  0  0
  146.8051  133.1330  161.8364 H   0  0  0  0  0  0  0  0  0  0  0  0
  145.5561  134.0442  162.6852 H   0  0  0  0  0  0  0  0  0  0  0  0
  147.2078  134.0156  163.3091 H   0  0  0  0  0  0  0  0  0  0  0  0
  147.3537  134.6095  159.5300 H   0  0  0  0  0  0  0  0  0  0  0  0
  147.0685  137.3446  158.0456 H   0  0  0  0  0  0  0  0  0  0  0  0
  147.7949  138.6121  159.0083 H   0  0  0  0  0  0  0  0  0  0  0  0
  149.1097  138.4762  156.8840 H   0  0  0  0  0  0  0  0  0  0  0  0
  151.0699  136.3120  156.6229 H   0  0  0  0  0  0  0  0  0  0  0  0
  152.5391  137.6567  158.0401 H   0  0  0  0  0  0  0  0  0  0  0  0
  150.9978  139.8885  157.8168 H   0  0  0  0  0  0  0  0  0  0  0  0
  152.7388  140.1042  157.7873 H   0  0  0  0  0  0  0  0  0  0  0  0
  150.9236  140.5856  155.5402 H   0  0  0  0  0  0  0  0  0  0  0  0
  152.6605  140.8151  155.6113 H   0  0  0  0  0  0  0  0  0  0  0  0
  152.4837  138.9581  154.0045 H   0  0  0  0  0  0  0  0  0  0  0  0
  154.0198  138.6348  156.1018 H   0  0  0  0  0  0  0  0  0  0  0  0
  153.3425  137.0672  155.6112 H   0  0  0  0  0  0  0  0  0  0  0  0
  151.1527  136.9513  154.4832 H   0  0  0  0  0  0  0  0  0  0  0  0
  148.8182  137.5930  154.4783 H   0  0  0  0  0  0  0  0  0  0  0  0
  149.1621  139.1903  155.1009 H   0  0  0  0  0  0  0  0  0  0  0  0
  149.3309  138.2334  152.5880 H   0  0  0  0  0  0  0  0  0  0  0  0
  1  2  1  0  0  0  0
  1 21  1  0  0  0  0
  1 22  1  0  0  0  0
  1 23  1  0  0  0  0
  2 19  1  0  0  0  0
  2  3  2  0  0  0  0
  3  4  1  0  0  0  0
  3 24  1  0  0  0  0
  4  5  1  0  0  0  0
  4 18  2  0  0  0  0
  5  6  1  0  0  0  0
  5 25  1  0  0  0  0
  5 26  1  0  0  0  0
  6  7  2  0  0  0  0
  6  8  1  0  0  0  0
  8  9  1  0  0  0  0
  8 27  1  0  0  0  0
  9 15  1  0  0  0  0
  9 10  1  0  0  0  0
  9 28  1  0  0  0  0
 10 14  1  0  0  0  0
 10 11  1  0  0  0  0
 10 29  1  0  0  0  0
 11 12  1  0  0  0  0
 11 30  1  0  0  0  0
 11 31  1  0  0  0  0
 12 13  1  0  0  0  0
 12 32  1  0  0  0  0
 12 33  1  0  0  0  0
 13 14  1  0  0  0  0
 13 15  1  0  0  0  0
 13 34  1  0  0  0  0
 14 35  1  0  0  0  0
 14 36  1  0  0  0  0
 15 16  1  0  0  0  0
 15 37  1  0  0  0  0
 16 17  1  0  0  0  0
 16 38  1  0  0  0  0
 16 39  1  0  0  0  0
 17 40  1  0  0  0  0
 18 19  1  0  0  0  0
 19 20  1  0  0  0  0
M  END
> <s_m_source_file>
AV-unprocessed.smi

> <i_m_source_file_index>
2881

> <i_lp_mmshare_version>
43012

> <i_f3d_flags>
0

> <s_epik_input>
W0NIM11jMVtjSF1jKG5bbkhdMSlbQ0gyXUMoPU8pW05IXVtDQEhdKFtDQEBIXTIzKVtDQEhdKFtDSDJdW09IXSlbQ0BASF0oW0NIMl0zKVtDSDJdW0NIMl0y

> <s_epik_cmdline>
J2VwaWtfcHl0aG9uJywgJy1waCcsICc3LjAnLCAnLXRuJywgJzgnLCAnLW1hJywgJzIwMCcsICctbWV0YWxfYmluZGluZycsICctaW1hZScsICc8aW5maWxlLm1hZT4nLCAnLW9tYWUnLCAnPG91dGZpbGUubWFlPic=

> <r_lp_tautomer_probability>
0.5

> <r_epik_Ionization_Penalty>
9.4349e-05

> <r_epik_Ionization_Penalty_Charging>
0

> <r_epik_Ionization_Penalty_Neutral>
9.4349e-05

> <r_epik_State_Penalty>
0.41068

> <r_epik_Charging_Adjusted_Penalty>
0.41068

> <i_epik_Tot_Q>
0

> <i_epik_Tot_abs_Q>
0

> <r_epik_Metal_State_Penalty>
0.4107

> <b_epik_Metal_Only>
0

> <s_lp_Force_Field>
OPLS_2005

> <r_lp_Energy>
48.5283

> <b_lp_Chiralities_Consistent>
1

> <s_lp_Variant>
AV-unprocessed.smi:2881-7

> <Gold.Version>
5.8.1

> <Gold.Id.Protein>
6NUR|6NUR_protein|mol2

> <Gold.PLP.Fitness>
42.8999

> <Gold.PLP.PLP>
-32.1721

> <Gold.PLP.part.hbond>
-4.5535

> <Gold.PLP.part.metal>
0.0000

> <Gold.PLP.part.buried>
-3.4358

> <Gold.PLP.part.nonpolar>
-24.3627

> <Gold.PLP.part.repulsive>
0.1686

> <Gold.PLP.ligand.clash>
0.0000

> <Gold.PLP.ligand.torsion>
0.4153

> <Gold.PLP.Chemscore.Hbond>
3.8480

> <Gold.PLP.Chemscore.CHOScore>
0.0000

> <Gold.PLP.Chemscore.Metal>
0.0000

> <Gold.Chemscore.Hbonds>
donor molecule, donor type, donor heavy atom, donor atom, acceptor molecule, acceptor atom, score
      L1  H    17    40       P1  7948  0.78
      P1  H  6896  6908       L1     7  1.00
      P1  H  6931  6943       L1    18  0.66
      P1  H  6934  6947       L1    18  1.00

> <Gold.PLP.Chemscore.Internal.Correction>
0.0144

> <Gold.Rescore>
     Score         DG    S(hbond)    S(metal)    S(lipo)     H(rot)  DE(clash)    DE(int)     intcor
     17.83     -18.67       3.06        0.00      75.11       2.28       0.04       0.80       ----

> <Gold.Chemscore.Fitness>
17.8273

> <Gold.Chemscore.DG>
-18.6722

> <Gold.Chemscore.ZeroCoef>
-5.4800

> <Gold.Chemscore.Hbond>
3.0627

> <Gold.Chemscore.Metal>
0.0000

> <Gold.Chemscore.Lipo>
75.1098

> <Gold.Chemscore.Internal_Hbond>
0.0000

> <Gold.Chemscore.DEClash>
0.0432

> <Gold.Chemscore.DEInternal>
0.8016

> <Gold.Chemscore.Rot>
2.2755

> <Gold.Chemscore.Internal.Correction>
   9.000000E+99

> <Gold.Chemscore.Hbonds>
donor molecule, donor type, donor heavy atom, donor atom, acceptor molecule, acceptor atom, score
      L1  H    17    40       P1  7948  0.65
      P1  H  6896  6908       L1     7  0.99
      P1  H  6931  6943       L1    18  0.25
      P1  H  6934  6947       L1    18  0.73

> <Gold.Chemscore.Hbond.Weighted>
-10.2296

> <Gold.Chemscore.Metal.Weighted>
-0.0000

> <Gold.Chemscore.Lipo.Weighted>
-8.7878

> <Gold.Chemscore.Internal_Hbond.Weighted>
0.0000

> <Gold.Chemscore.DEClash.Weighted>
0.0432

> <Gold.Chemscore.DEInternal.Weighted>
0.8016

> <Gold.Chemscore.Rot.Weighted>
5.8252

> <Gold.Chemscore.Internal.Correction.Weighted>
   9.000000E+99

> <Gold.Protein.RotatedTorsions>
[ 6907 6896 6895 6894 ] final  175.09 input  -60.11 | X-H torsion
[ 7974 7965 7964 7962 ] final  -47.21 input  175.53 | X-H torsion
[ 8008 7997 7996 7995 ] final -153.50 input   59.86 | X-H torsion
[ 10167 10162 10161 10158 ] final -133.08 input  -65.29 | X-H torsion
[ 10718 10713 10712 10709 ] final  -84.84 input   66.30 | X-H torsion
[ 10763 10752 10751 10750 ] final -101.50 input  -60.55 | X-H torsion
[ 11005 11000 10999 10996 ] final  -35.97 input  -57.11 | X-H torsion

> <Gold.Protein.ActiveResidues>
 VAL166  LYS551  ARG553  GLY616  TRP617  ASP618  TYR619  PRO620  LYS621  CYS622 
 ASP623  PHE694  ASN695  SER759  ASP760  ASP761  ALA762  ILE779  LEU786  VAL792 
 PHE793  MET794  SER795  GLU796  ALA797  LYS798  CYS799  TRP800  GLU811  SER814 

> <Gold.Protein.RotatedAtoms>
  151.7418  133.3322  159.3367 H   0  0  0  0  0  0  0  0  0  0  0  0  # atno 6907 bound_to 6896
  150.7570  134.6271  159.6176 H   0  0  0  0  0  0  0  0  0  0  0  0  # atno 6908 bound_to 6896
  152.3525  134.6987  160.0283 H   0  0  0  0  0  0  0  0  0  0  0  0  # atno 6909 bound_to 6896
  145.9640  140.7451  142.9443 H   0  0  0  0  0  0  0  0  0  0  0  0  # atno 7974 bound_to 7965
  155.6717  140.0734  157.2517 H   0  0  0  0  0  0  0  0  0  0  0  0  # atno 8008 bound_to 7997
  154.4122  140.1698  156.1938 H   0  0  0  0  0  0  0  0  0  0  0  0  # atno 8009 bound_to 7997
  155.9611  140.3370  155.6494 H   0  0  0  0  0  0  0  0  0  0  0  0  # atno 8010 bound_to 7997
  139.9019  143.6597  152.2593 H   0  0  0  0  0  0  0  0  0  0  0  0  # atno 10167 bound_to 10162
  156.0002  130.4711  150.4472 H   0  0  0  0  0  0  0  0  0  0  0  0  # atno 10718 bound_to 10713
  154.7662  135.4895  153.9559 H   0  0  0  0  0  0  0  0  0  0  0  0  # atno 10763 bound_to 10752
  153.1311  135.6753  153.9185 H   0  0  0  0  0  0  0  0  0  0  0  0  # atno 10764 bound_to 10752
  153.8888  135.3123  155.3425 H   0  0  0  0  0  0  0  0  0  0  0  0  # atno 10765 bound_to 10752
  140.9838  133.7041  156.1730 H   0  0  0  0  0  0  0  0  0  0  0  0  # atno 11005 bound_to 11000
  144.6821  140.2638  143.7315 LP  0  0  0  0  0  0  0  0  0  0  0  0  # atno 17320 bound_to 7965
  145.8000  139.1960  143.2053 LP  0  0  0  0  0  0  0  0  0  0  0  0  # atno 17321 bound_to 7965
  139.7018  144.7634  151.1261 LP  0  0  0  0  0  0  0  0  0  0  0  0  # atno 17342 bound_to 10162
  140.7705  143.5448  150.9271 LP  0  0  0  0  0  0  0  0  0  0  0  0  # atno 17343 bound_to 10162
  157.2508  131.0546  151.2380 LP  0  0  0  0  0  0  0  0  0  0  0  0  # atno 17370 bound_to 10713
  157.3530  130.7092  149.6453 LP  0  0  0  0  0  0  0  0  0  0  0  0  # atno 17371 bound_to 10713
  140.7145  134.4425  157.5579 LP  0  0  0  0  0  0  0  0  0  0  0  0  # atno 17394 bound_to 11000
  139.8962  134.8666  156.2099 LP  0  0  0  0  0  0  0  0  0  0  0  0  # atno 17395 bound_to 11000

$$$$
