AV-unprocessed.smi:884|AV-procd|sdf|4043|dock3
  -GOLD-   22720 1533D 1   1.00000     0.00000
 Structure written by MMmdl.
 48 50  0  0  0  0  0  0  0  0  2 V2000
  147.0413  137.2938  154.6873 O   0  0  0  0  0  0  0  0  0  0  0  0
  146.4795  138.3434  154.3711 C   0  0  0  0  0  0  0  0  0  0  0  0
  145.5023  138.3812  153.4477 N   0  0  0  0  0  0  0  0  0  0  0  0
  145.0053  137.2384  152.6844 C   0  0  0  0  0  0  0  0  0  0  0  0
  145.5899  137.1771  151.2598 C   0  0  0  0  0  0  0  0  0  0  0  0
  145.6911  135.7719  150.6907 C   0  0  0  0  0  0  0  0  0  0  0  0
  144.5727  135.1006  150.1513 C   0  0  0  0  0  0  0  0  0  0  0  0
  144.7284  133.7884  149.6579 C   0  0  0  0  0  0  0  0  0  0  0  0
  145.9984  133.1775  149.7095 C   0  0  0  0  0  0  0  0  0  0  0  0
  147.0811  133.8928  150.2604 C   0  0  0  0  0  0  0  0  0  0  0  0
  146.8896  135.1447  150.7311 N   0  3  0  0  0  0  0  0  0  0  0  0
  146.7924  139.5455  154.9198 N   0  0  0  0  0  0  0  0  0  0  0  0
  146.2862  140.8544  154.4797 C   0  0  0  0  0  0  0  0  0  0  0  0
  147.3549  141.5295  153.6108 C   0  0  0  0  0  0  0  0  0  0  0  0
  148.8645  141.8495  154.5736 S   0  0  0  0  0  0  0  0  0  0  0  0
  149.1717  140.2163  155.3496 C   0  0  0  0  0  0  0  0  0  0  0  0
  149.7610  139.2229  154.3134 C   0  0  0  0  0  0  0  0  0  0  0  0
  151.1769  139.5958  153.8396 C   0  0  0  0  0  0  0  0  0  0  0  0
  152.1391  139.7433  155.0250 C   0  0  0  0  0  0  0  0  0  0  0  0
  151.6028  140.7596  156.0413 C   0  0  0  0  0  0  0  0  0  0  0  0
  150.1841  140.3862  156.5101 C   0  0  0  0  0  0  0  0  0  0  0  0
  147.8374  139.6869  155.9452 C   0  0  0  0  0  0  0  0  0  0  0  0
  145.0743  139.2755  153.2559 H   0  0  0  0  0  0  0  0  0  0  0  0
  145.2167  136.3042  153.2068 H   0  0  0  0  0  0  0  0  0  0  0  0
  143.9188  137.3096  152.6303 H   0  0  0  0  0  0  0  0  0  0  0  0
  144.9822  137.7847  150.5882 H   0  0  0  0  0  0  0  0  0  0  0  0
  146.5829  137.6291  151.2571 H   0  0  0  0  0  0  0  0  0  0  0  0
  143.6057  135.5814  150.1230 H   0  0  0  0  0  0  0  0  0  0  0  0
  143.8834  133.2569  149.2449 H   0  0  0  0  0  0  0  0  0  0  0  0
  146.1383  132.1730  149.3374 H   0  0  0  0  0  0  0  0  0  0  0  0
  148.0840  133.5010  150.3468 H   0  0  0  0  0  0  0  0  0  0  0  0
  145.3464  140.7947  153.9310 H   0  0  0  0  0  0  0  0  0  0  0  0
  146.0631  141.4781  155.3466 H   0  0  0  0  0  0  0  0  0  0  0  0
  147.5991  140.9081  152.7489 H   0  0  0  0  0  0  0  0  0  0  0  0
  146.9839  142.4784  153.2232 H   0  0  0  0  0  0  0  0  0  0  0  0
  149.7948  138.2249  154.7522 H   0  0  0  0  0  0  0  0  0  0  0  0
  149.1084  139.1444  153.4468 H   0  0  0  0  0  0  0  0  0  0  0  0
  151.5499  138.8319  153.1570 H   0  0  0  0  0  0  0  0  0  0  0  0
  151.1488  140.5254  153.2701 H   0  0  0  0  0  0  0  0  0  0  0  0
  152.2732  138.7761  155.5106 H   0  0  0  0  0  0  0  0  0  0  0  0
  153.1231  140.0527  154.6716 H   0  0  0  0  0  0  0  0  0  0  0  0
  152.2725  140.8089  156.9002 H   0  0  0  0  0  0  0  0  0  0  0  0
  151.6028  141.7564  155.5995 H   0  0  0  0  0  0  0  0  0  0  0  0
  149.8248  141.1392  157.2128 H   0  0  0  0  0  0  0  0  0  0  0  0
  150.2448  139.4555  157.0760 H   0  0  0  0  0  0  0  0  0  0  0  0
  147.4830  140.3668  156.7216 H   0  0  0  0  0  0  0  0  0  0  0  0
  148.0092  138.7433  156.4657 H   0  0  0  0  0  0  0  0  0  0  0  0
  147.6861  135.6419  151.1302 H   0  0  0  0  0  0  0  0  0  0  0  0
  1  2  2  0  0  0  0
  2  3  1  0  0  0  0
  2 12  1  0  0  0  0
  3  4  1  0  0  0  0
  3 23  1  0  0  0  0
  4  5  1  0  0  0  0
  4 24  1  0  0  0  0
  4 25  1  0  0  0  0
  5  6  1  0  0  0  0
  5 26  1  0  0  0  0
  5 27  1  0  0  0  0
  6 11  1  0  0  0  0
  6  7  2  0  0  0  0
  7  8  1  0  0  0  0
  7 28  1  0  0  0  0
  8  9  2  0  0  0  0
  8 29  1  0  0  0  0
  9 10  1  0  0  0  0
  9 30  1  0  0  0  0
 10 11  2  0  0  0  0
 10 31  1  0  0  0  0
 11 48  1  0  0  0  0
 12 22  1  0  0  0  0
 12 13  1  0  0  0  0
 13 14  1  0  0  0  0
 13 32  1  0  0  0  0
 13 33  1  0  0  0  0
 14 15  1  0  0  0  0
 14 34  1  0  0  0  0
 14 35  1  0  0  0  0
 15 16  1  0  0  0  0
 16 21  1  0  0  0  0
 16 17  1  0  0  0  0
 16 22  1  0  0  0  0
 17 18  1  0  0  0  0
 17 36  1  0  0  0  0
 17 37  1  0  0  0  0
 18 19  1  0  0  0  0
 18 38  1  0  0  0  0
 18 39  1  0  0  0  0
 19 20  1  0  0  0  0
 19 40  1  0  0  0  0
 19 41  1  0  0  0  0
 20 21  1  0  0  0  0
 20 42  1  0  0  0  0
 20 43  1  0  0  0  0
 21 44  1  0  0  0  0
 21 45  1  0  0  0  0
 22 46  1  0  0  0  0
 22 47  1  0  0  0  0
M  CHG  1  11   1
M  END
> <s_m_source_file>
AV-unprocessed.smi

> <i_m_source_file_index>
884

> <i_lp_mmshare_version>
43012

> <i_f3d_flags>
0

> <s_epik_input>
bjFbY0hdW2NIXVtjSF1bY0hdYzFbQ0gyXVtDSDJdW05IXUMoPU8pTihbQ0gyXTIpW0NIMl1bQ0gyXVNDMjNbQ0gyXVtDSDJdW0NIMl1bQ0gyXVtDSDJdMw==

> <s_epik_cmdline>
J2VwaWtfcHl0aG9uJywgJy1waCcsICc3LjAnLCAnLXRuJywgJzgnLCAnLW1hJywgJzIwMCcsICctbWV0YWxfYmluZGluZycsICctaW1hZScsICc8aW5maWxlLm1hZT4nLCAnLW9tYWUnLCAnPG91dGZpbGUubWFlPic=

> <r_epik_Ionization_Penalty>
1.55139

> <r_epik_Ionization_Penalty_Charging>
1.55135

> <r_epik_Ionization_Penalty_Neutral>
4.66963e-05

> <r_epik_State_Penalty>
1.64559

> <r_epik_Charging_Adjusted_Penalty>
3.19693

> <i_epik_Tot_Q>
1

> <i_epik_Tot_abs_Q>
1

> <r_epik_Metal_State_Penalty>
1.68773

> <b_epik_Metal_Only>
0

> <s_lp_Force_Field>
OPLS_2005

> <r_lp_Energy>
36.5944

> <b_lp_Chiralities_Consistent>
1

> <s_lp_Variant>
AV-unprocessed.smi:884-2

> <Gold.Version>
5.8.1

> <Gold.Id.Protein>
6NUR|6NUR_protein|mol2

> <Gold.PLP.Fitness>
44.3201

> <Gold.PLP.PLP>
-36.6040

> <Gold.PLP.part.hbond>
-2.0000

> <Gold.PLP.part.metal>
0.0000

> <Gold.PLP.part.buried>
-2.7530

> <Gold.PLP.part.nonpolar>
-32.0620

> <Gold.PLP.part.repulsive>
0.1086

> <Gold.PLP.ligand.clash>
0.0000

> <Gold.PLP.ligand.torsion>
0.6053

> <Gold.PLP.Chemscore.Hbond>
2.9675

> <Gold.PLP.Chemscore.CHOScore>
0.0000

> <Gold.PLP.Chemscore.Metal>
0.0000

> <Gold.Chemscore.Hbonds>
donor molecule, donor type, donor heavy atom, donor atom, acceptor molecule, acceptor atom, score
      L1  H     3    23       P1 10175  1.00
      L1  H    11    48       P1  7948  1.92

> <Gold.PLP.Chemscore.Internal.Correction>
0.0244

> <Gold.Rescore>
     Score         DG    S(hbond)    S(metal)    S(lipo)     H(rot)  DE(clash)    DE(int)     intcor
     18.24     -20.23       1.90        0.00     100.19       1.30       1.38       0.60       ----

> <Gold.Chemscore.Fitness>
18.2395

> <Gold.Chemscore.DG>
-20.2258

> <Gold.Chemscore.ZeroCoef>
-5.4800

> <Gold.Chemscore.Hbond>
1.8979

> <Gold.Chemscore.Metal>
0.0000

> <Gold.Chemscore.Lipo>
100.1950

> <Gold.Chemscore.Internal_Hbond>
0.0000

> <Gold.Chemscore.DEClash>
1.3814

> <Gold.Chemscore.DEInternal>
0.6049

> <Gold.Chemscore.Rot>
1.2953

> <Gold.Chemscore.Internal.Correction>
   9.000000E+99

> <Gold.Chemscore.Hbonds>
donor molecule, donor type, donor heavy atom, donor atom, acceptor molecule, acceptor atom, score
      L1  H     3    23       P1 10175  0.94
      L1  H    11    48       P1  7948  0.55

> <Gold.Chemscore.Hbond.Weighted>
-6.3389

> <Gold.Chemscore.Metal.Weighted>
-0.0000

> <Gold.Chemscore.Lipo.Weighted>
-11.7228

> <Gold.Chemscore.Internal_Hbond.Weighted>
0.0000

> <Gold.Chemscore.DEClash.Weighted>
1.3814

> <Gold.Chemscore.DEInternal.Weighted>
0.6049

> <Gold.Chemscore.Rot.Weighted>
3.3159

> <Gold.Chemscore.Internal.Correction.Weighted>
   9.000000E+99

> <Gold.Protein.RotatedTorsions>
[ 6907 6896 6895 6894 ] final  -73.79 input  -60.11 | X-H torsion
[ 7974 7965 7964 7962 ] final  -20.55 input  175.53 | X-H torsion
[ 8008 7997 7996 7995 ] final    9.06 input   59.86 | X-H torsion
[ 10167 10162 10161 10158 ] final   59.76 input  -65.29 | X-H torsion
[ 10718 10713 10712 10709 ] final  -88.80 input   66.30 | X-H torsion
[ 10763 10752 10751 10750 ] final   82.60 input  -60.55 | X-H torsion
[ 11005 11000 10999 10996 ] final  100.77 input  -57.11 | X-H torsion

> <Gold.Protein.ActiveResidues>
 VAL166  LYS551  ARG553  GLY616  TRP617  ASP618  TYR619  PRO620  LYS621  CYS622 
 ASP623  PHE694  ASN695  SER759  ASP760  ASP761  ALA762  ILE779  LEU786  VAL792 
 PHE793  MET794  SER795  GLU796  ALA797  LYS798  CYS799  TRP800  GLU811  SER814 

> <Gold.Protein.RotatedAtoms>
  150.7117  134.4964  159.5539 H   0  0  0  0  0  0  0  0  0  0  0  0  # atno 6907 bound_to 6896
  152.2571  134.8070  160.0446 H   0  0  0  0  0  0  0  0  0  0  0  0  # atno 6908 bound_to 6896
  151.8797  133.3457  159.3799 H   0  0  0  0  0  0  0  0  0  0  0  0  # atno 6909 bound_to 6896
  146.1782  140.4217  142.8505 H   0  0  0  0  0  0  0  0  0  0  0  0  # atno 7974 bound_to 7965
  154.7750  140.2809  155.6108 H   0  0  0  0  0  0  0  0  0  0  0  0  # atno 8008 bound_to 7997
  156.2940  140.2634  156.2490 H   0  0  0  0  0  0  0  0  0  0  0  0  # atno 8009 bound_to 7997
  154.9853  140.0374  157.2285 H   0  0  0  0  0  0  0  0  0  0  0  0  # atno 8010 bound_to 7997
  140.1730  144.4258  150.6652 H   0  0  0  0  0  0  0  0  0  0  0  0  # atno 10167 bound_to 10162
  155.9983  130.4849  150.5074 H   0  0  0  0  0  0  0  0  0  0  0  0  # atno 10718 bound_to 10713
  153.1217  135.4722  154.9206 H   0  0  0  0  0  0  0  0  0  0  0  0  # atno 10763 bound_to 10752
  154.7582  135.3124  154.8432 H   0  0  0  0  0  0  0  0  0  0  0  0  # atno 10764 bound_to 10752
  153.8995  135.6876  153.4810 H   0  0  0  0  0  0  0  0  0  0  0  0  # atno 10765 bound_to 10752
  139.8771  134.9154  156.4806 H   0  0  0  0  0  0  0  0  0  0  0  0  # atno 11005 bound_to 11000
  144.8271  140.6646  143.6315 LP  0  0  0  0  0  0  0  0  0  0  0  0  # atno 17320 bound_to 7965
  145.4152  139.1573  143.4104 LP  0  0  0  0  0  0  0  0  0  0  0  0  # atno 17321 bound_to 7965
  140.6570  143.2240  151.5946 LP  0  0  0  0  0  0  0  0  0  0  0  0  # atno 17342 bound_to 10162
  139.5330  144.2862  152.1189 LP  0  0  0  0  0  0  0  0  0  0  0  0  # atno 17343 bound_to 10162
  157.3051  131.0653  151.2040 LP  0  0  0  0  0  0  0  0  0  0  0  0  # atno 17370 bound_to 10713
  157.3006  130.6841  149.6162 LP  0  0  0  0  0  0  0  0  0  0  0  0  # atno 17371 bound_to 10713
  140.8730  133.7974  155.9384 LP  0  0  0  0  0  0  0  0  0  0  0  0  # atno 17394 bound_to 11000
  140.8933  134.2468  157.5082 LP  0  0  0  0  0  0  0  0  0  0  0  0  # atno 17395 bound_to 11000

$$$$
