AV-unprocessed.smi:2963|AV-procd|sdf|11319|dock9
  -GOLD-   2272016223D 1   1.00000     0.00000
 Structure written by MMmdl.
 41 43  0  0  0  0  0  0  0  0  1 V2000
  148.6098  141.0499  154.1696 C   0  0  0  0  0  0  0  0  0  0  0  0
  149.9037  140.4919  154.3354 O   0  0  0  0  0  0  0  0  0  0  0  0
  149.9989  139.5919  155.4310 C   0  0  0  0  0  0  0  0  0  0  0  0
  149.8336  140.3073  156.7838 C   0  0  0  0  0  0  0  0  0  0  0  0
  150.7658  139.8048  157.7832 N   0  0  0  0  0  0  0  0  0  0  0  0
  150.9365  138.5305  158.2142 C   0  0  0  0  0  0  0  0  0  0  0  0
  149.9803  137.1909  157.5891 S   0  0  0  0  0  0  0  0  0  0  0  0
  149.0527  136.8278  159.1103 C   0  0  0  0  0  0  0  0  0  0  0  0
  148.7956  135.3328  159.3578 C   0  0  0  0  0  0  0  0  0  0  0  0
  149.2138  134.5160  158.5332 O   0  0  0  0  0  0  0  0  0  0  0  0
  148.1222  134.9887  160.4879 N   0  0  0  0  0  0  0  0  0  0  0  0
  147.8243  133.6042  160.8598 C   0  0  0  0  0  0  0  0  0  0  0  0
  147.0812  133.7211  162.1859 C   0  0  0  0  0  0  0  0  0  0  0  0
  147.0424  135.1487  162.3841 N   0  0  0  0  0  0  0  0  0  0  0  0
  147.6365  135.8486  161.4147 C   0  0  0  0  0  0  0  0  0  0  0  0
  147.7045  137.0784  161.4092 O   0  0  0  0  0  0  0  0  0  0  0  0
  151.8816  138.3532  159.1378 N   0  0  0  0  0  0  0  0  0  0  0  0
  152.3676  139.6317  159.3263 C   0  0  0  0  0  0  0  0  0  0  0  0
  153.3857  140.1112  160.1812 C   0  0  0  0  0  0  0  0  0  0  0  0
  153.7149  141.4824  160.2000 C   0  0  0  0  0  0  0  0  0  0  0  0
  153.0332  142.3915  159.3651 C   0  0  0  0  0  0  0  0  0  0  0  0
  152.0151  141.9345  158.5062 C   0  0  0  0  0  0  0  0  0  0  0  0
  151.6897  140.5650  158.4927 C   0  0  0  0  0  0  0  0  0  0  0  0
  148.6069  141.7121  153.3038 H   0  0  0  0  0  0  0  0  0  0  0  0
  148.3223  141.6390  155.0412 H   0  0  0  0  0  0  0  0  0  0  0  0
  147.8542  140.2818  154.0052 H   0  0  0  0  0  0  0  0  0  0  0  0
  149.2022  138.8559  155.3199 H   0  0  0  0  0  0  0  0  0  0  0  0
  150.9342  139.0308  155.3985 H   0  0  0  0  0  0  0  0  0  0  0  0
  150.0154  141.3752  156.6574 H   0  0  0  0  0  0  0  0  0  0  0  0
  148.8117  140.2217  157.1511 H   0  0  0  0  0  0  0  0  0  0  0  0
  149.6214  137.2282  159.9501 H   0  0  0  0  0  0  0  0  0  0  0  0
  148.1043  137.3642  159.0697 H   0  0  0  0  0  0  0  0  0  0  0  0
  147.1971  133.1218  160.1084 H   0  0  0  0  0  0  0  0  0  0  0  0
  148.7388  133.0210  160.9783 H   0  0  0  0  0  0  0  0  0  0  0  0
  146.0715  133.3126  162.1301 H   0  0  0  0  0  0  0  0  0  0  0  0
  147.6183  133.2358  163.0017 H   0  0  0  0  0  0  0  0  0  0  0  0
  146.6023  135.5699  163.1894 H   0  0  0  0  0  0  0  0  0  0  0  0
  153.9142  139.4230  160.8240 H   0  0  0  0  0  0  0  0  0  0  0  0
  154.4948  141.8381  160.8571 H   0  0  0  0  0  0  0  0  0  0  0  0
  153.2926  143.4399  159.3845 H   0  0  0  0  0  0  0  0  0  0  0  0
  151.4918  142.6277  157.8645 H   0  0  0  0  0  0  0  0  0  0  0  0
  1  2  1  0  0  0  0
  1 24  1  0  0  0  0
  1 25  1  0  0  0  0
  1 26  1  0  0  0  0
  2  3  1  0  0  0  0
  3  4  1  0  0  0  0
  3 27  1  0  0  0  0
  3 28  1  0  0  0  0
  4  5  1  0  0  0  0
  4 29  1  0  0  0  0
  4 30  1  0  0  0  0
  5 23  1  0  0  0  0
  5  6  1  0  0  0  0
  6  7  1  0  0  0  0
  6 17  2  0  0  0  0
  7  8  1  0  0  0  0
  8  9  1  0  0  0  0
  8 31  1  0  0  0  0
  8 32  1  0  0  0  0
  9 10  2  0  0  0  0
  9 11  1  0  0  0  0
 11 15  1  0  0  0  0
 11 12  1  0  0  0  0
 12 13  1  0  0  0  0
 12 33  1  0  0  0  0
 12 34  1  0  0  0  0
 13 14  1  0  0  0  0
 13 35  1  0  0  0  0
 13 36  1  0  0  0  0
 14 15  1  0  0  0  0
 14 37  1  0  0  0  0
 15 16  2  0  0  0  0
 17 18  1  0  0  0  0
 18 23  2  0  0  0  0
 18 19  1  0  0  0  0
 19 20  2  0  0  0  0
 19 38  1  0  0  0  0
 20 21  1  0  0  0  0
 20 39  1  0  0  0  0
 21 22  2  0  0  0  0
 21 40  1  0  0  0  0
 22 23  1  0  0  0  0
 22 41  1  0  0  0  0
M  END
> <s_m_source_file>
AV-unprocessed.smi

> <i_m_source_file_index>
2963

> <i_lp_mmshare_version>
43012

> <i_f3d_flags>
0

> <s_epik_input>
W2NIXTFbY0hdW2NIXVtjSF1jKGMxMiluKFtDSDJdW0NIMl1PW0NIM10pYyhuMilTW0NIMl1DKD1PKU4zW0NIMl1bQ0gyXVtOSF1DMz1P

> <s_epik_cmdline>
J2VwaWtfcHl0aG9uJywgJy1waCcsICc3LjAnLCAnLXRuJywgJzgnLCAnLW1hJywgJzIwMCcsICctbWV0YWxfYmluZGluZycsICctaW1hZScsICc8aW5maWxlLm1hZT4nLCAnLW9tYWUnLCAnPG91dGZpbGUubWFlPic=

> <r_lp_tautomer_probability>
0.9999

> <r_epik_Ionization_Penalty>
0.0341365

> <r_epik_Ionization_Penalty_Charging>
0

> <r_epik_Ionization_Penalty_Neutral>
0.0341365

> <r_epik_State_Penalty>
0.0283589

> <r_epik_Charging_Adjusted_Penalty>
0.0283589

> <i_epik_Tot_Q>
0

> <i_epik_Tot_abs_Q>
0

> <r_epik_Metal_State_Penalty>
0.0267964

> <b_epik_Metal_Only>
0

> <s_lp_Force_Field>
OPLS_2005

> <r_lp_Energy>
40.6732

> <b_lp_Chiralities_Consistent>
1

> <s_lp_Variant>
AV-unprocessed.smi:2963-1

> <Gold.Version>
5.8.1

> <Gold.Id.Protein>
6NUR|6NUR_protein|mol2

> <Gold.PLP.Fitness>
48.6437

> <Gold.PLP.PLP>
-42.6106

> <Gold.PLP.part.hbond>
-4.0000

> <Gold.PLP.part.metal>
0.0000

> <Gold.PLP.part.buried>
-4.9063

> <Gold.PLP.part.nonpolar>
-34.0109

> <Gold.PLP.part.repulsive>
0.2516

> <Gold.PLP.ligand.clash>
2.6274

> <Gold.PLP.ligand.torsion>
0.6303

> <Gold.PLP.Chemscore.Hbond>
3.2880

> <Gold.PLP.Chemscore.CHOScore>
0.0000

> <Gold.PLP.Chemscore.Metal>
0.0000

> <Gold.Chemscore.Hbonds>
donor molecule, donor type, donor heavy atom, donor atom, acceptor molecule, acceptor atom, score
      P1  H  6896  6909       L1    10  0.80
      P1  H  6931  6943       L1    16  1.00
      P1  H  6934  6947       L1    16  0.74
      P1  H  7989  7998       L1     2  0.80

> <Gold.PLP.Chemscore.Internal.Correction>
0.0570

> <Gold.Rescore>
     Score         DG    S(hbond)    S(metal)    S(lipo)     H(rot)  DE(clash)    DE(int)     intcor
     17.58     -20.31       3.07        0.00      90.13       2.33       0.11       2.62       ----

> <Gold.Chemscore.Fitness>
17.5791

> <Gold.Chemscore.DG>
-20.3078

> <Gold.Chemscore.ZeroCoef>
-5.4800

> <Gold.Chemscore.Hbond>
3.0665

> <Gold.Chemscore.Metal>
0.0000

> <Gold.Chemscore.Lipo>
90.1321

> <Gold.Chemscore.Internal_Hbond>
0.0000

> <Gold.Chemscore.DEClash>
0.1110

> <Gold.Chemscore.DEInternal>
2.6177

> <Gold.Chemscore.Rot>
2.3280

> <Gold.Chemscore.Internal.Correction>
   9.000000E+99

> <Gold.Chemscore.Hbonds>
donor molecule, donor type, donor heavy atom, donor atom, acceptor molecule, acceptor atom, score
      P1  H  6896  6909       L1    10  0.12
      P1  H  6931  6943       L1    16  0.96
      P1  H  6934  6947       L1    16  0.72
      P1  H  7989  7998       L1     2  0.70

> <Gold.Chemscore.Hbond.Weighted>
-10.2422

> <Gold.Chemscore.Metal.Weighted>
-0.0000

> <Gold.Chemscore.Lipo.Weighted>
-10.5455

> <Gold.Chemscore.Internal_Hbond.Weighted>
0.0000

> <Gold.Chemscore.DEClash.Weighted>
0.1110

> <Gold.Chemscore.DEInternal.Weighted>
2.6177

> <Gold.Chemscore.Rot.Weighted>
5.9598

> <Gold.Chemscore.Internal.Correction.Weighted>
   9.000000E+99

> <Gold.Protein.RotatedTorsions>
[ 6907 6896 6895 6894 ] final   21.99 input  -60.11 | X-H torsion
[ 7974 7965 7964 7962 ] final  -68.16 input  175.53 | X-H torsion
[ 8008 7997 7996 7995 ] final -115.82 input   59.86 | X-H torsion
[ 10167 10162 10161 10158 ] final  -86.99 input  -65.29 | X-H torsion
[ 10718 10713 10712 10709 ] final   39.07 input   66.30 | X-H torsion
[ 10763 10752 10751 10750 ] final  -88.38 input  -60.55 | X-H torsion
[ 11005 11000 10999 10996 ] final  -45.96 input  -57.11 | X-H torsion

> <Gold.Protein.ActiveResidues>
 VAL166  LYS551  ARG553  GLY616  TRP617  ASP618  TYR619  PRO620  LYS621  CYS622 
 ASP623  PHE694  ASN695  SER759  ASP760  ASP761  ALA762  ILE779  LEU786  VAL792 
 PHE793  MET794  SER795  GLU796  ALA797  LYS798  CYS799  TRP800  GLU811  SER814 

> <Gold.Protein.RotatedAtoms>
  151.9202  135.0301  160.0521 H   0  0  0  0  0  0  0  0  0  0  0  0  # atno 6907 bound_to 6896
  152.2206  133.4976  159.5168 H   0  0  0  0  0  0  0  0  0  0  0  0  # atno 6908 bound_to 6896
  150.6999  134.1264  159.4096 H   0  0  0  0  0  0  0  0  0  0  0  0  # atno 6909 bound_to 6896
  145.7200  140.9042  143.0635 H   0  0  0  0  0  0  0  0  0  0  0  0  # atno 7974 bound_to 7965
  155.0580  140.0393  157.2567 H   0  0  0  0  0  0  0  0  0  0  0  0  # atno 8008 bound_to 7997
  154.7083  140.2687  155.6629 H   0  0  0  0  0  0  0  0  0  0  0  0  # atno 8009 bound_to 7997
  156.2781  140.2727  156.1716 H   0  0  0  0  0  0  0  0  0  0  0  0  # atno 8010 bound_to 7997
  140.3888  143.2714  151.9291 H   0  0  0  0  0  0  0  0  0  0  0  0  # atno 10167 bound_to 10162
  157.3663  130.7676  149.7085 H   0  0  0  0  0  0  0  0  0  0  0  0  # atno 10718 bound_to 10713
  154.6439  135.5379  153.7822 H   0  0  0  0  0  0  0  0  0  0  0  0  # atno 10763 bound_to 10752
  153.0349  135.6466  154.1118 H   0  0  0  0  0  0  0  0  0  0  0  0  # atno 10764 bound_to 10752
  154.1040  135.2931  155.3225 H   0  0  0  0  0  0  0  0  0  0  0  0  # atno 10765 bound_to 10752
  141.0548  133.6729  156.3086 H   0  0  0  0  0  0  0  0  0  0  0  0  # atno 11005 bound_to 11000
  144.6919  139.9190  143.7467 LP  0  0  0  0  0  0  0  0  0  0  0  0  # atno 17320 bound_to 7965
  146.0634  139.3626  143.0567 LP  0  0  0  0  0  0  0  0  0  0  0  0  # atno 17321 bound_to 7965
  139.4790  144.5748  151.8030 LP  0  0  0  0  0  0  0  0  0  0  0  0  # atno 17342 bound_to 10162
  140.4862  144.1378  150.5941 LP  0  0  0  0  0  0  0  0  0  0  0  0  # atno 17343 bound_to 10162
  155.9747  130.4100  150.3906 LP  0  0  0  0  0  0  0  0  0  0  0  0  # atno 17370 bound_to 10713
  157.1991  131.0433  151.2660 LP  0  0  0  0  0  0  0  0  0  0  0  0  # atno 17371 bound_to 10713
  140.5984  134.5579  157.5513 LP  0  0  0  0  0  0  0  0  0  0  0  0  # atno 17394 bound_to 11000
  139.9381  134.7838  156.0749 LP  0  0  0  0  0  0  0  0  0  0  0  0  # atno 17395 bound_to 11000

$$$$
