AV-unprocessed.smi:1295|AV-procd|sdf|5409|dock1
  -GOLD-   22720 4563D 1   1.00000     0.00000
 Structure written by MMmdl.
 42 43  0  0  0  0  0  0  0  0  2 V2000
  150.1726  136.4925  154.8908 C   0  0  0  0  0  0  0  0  0  0  0  0
  150.2894  137.9613  155.2366 C   0  0  0  0  0  0  0  0  0  0  0  0
  149.4834  138.7962  154.7002 N   0  0  0  0  0  0  0  0  0  0  0  0
  149.5854  140.1602  155.0221 C   0  0  0  0  0  0  0  0  0  0  0  0
  148.5886  141.0797  154.3377 C   0  0  0  0  0  0  0  0  0  0  0  0
  150.5285  140.6098  155.8990 C   0  0  0  0  0  0  0  0  0  0  0  0
  150.6782  142.0819  156.2809 C   0  0  0  0  0  0  0  0  0  0  0  0
  150.9858  142.3555  157.7544 C   0  0  0  0  0  0  0  0  0  0  0  0
  150.0960  142.2722  158.6009 O   0  0  0  0  0  0  0  0  0  0  0  0
  152.2547  142.6852  158.0418 N   0  0  0  0  0  0  0  0  0  0  0  0
  152.7748  143.0324  159.3632 C   0  0  2  0  0  0  0  0  0  0  0  0
  153.0110  141.7299  160.1530 C   0  0  0  0  0  0  0  0  0  0  0  0
  153.4954  142.0090  161.5828 C   0  0  0  0  0  0  0  0  0  0  0  0
  152.5159  142.9278  162.3246 C   0  0  0  0  0  0  0  0  0  0  0  0
  152.2975  144.2363  161.5510 C   0  0  0  0  0  0  0  0  0  0  0  0
  151.8031  143.9805  160.1127 C   0  0  1  0  0  0  0  0  0  0  0  0
  151.5856  145.3146  159.3763 C   0  0  0  0  0  0  0  0  0  0  0  0
  151.4368  139.6148  156.4967 C   0  0  0  0  0  0  0  0  0  0  0  0
  152.2990  139.9642  157.3019 O   0  0  0  0  0  0  0  0  0  0  0  0
  151.2798  138.3119  156.1263 N   0  5  0  0  0  0  0  0  0  0  0  0
  149.2526  136.2901  154.3409 H   0  0  0  0  0  0  0  0  0  0  0  0
  150.1666  135.8871  155.7977 H   0  0  0  0  0  0  0  0  0  0  0  0
  151.0170  136.1839  154.2741 H   0  0  0  0  0  0  0  0  0  0  0  0
  149.1058  141.8036  153.7078 H   0  0  0  0  0  0  0  0  0  0  0  0
  147.9950  141.6207  155.0750 H   0  0  0  0  0  0  0  0  0  0  0  0
  147.9014  140.5160  153.7054 H   0  0  0  0  0  0  0  0  0  0  0  0
  151.4484  142.5647  155.6789 H   0  0  0  0  0  0  0  0  0  0  0  0
  149.7560  142.5973  156.0101 H   0  0  0  0  0  0  0  0  0  0  0  0
  152.9116  142.7211  157.2761 H   0  0  0  0  0  0  0  0  0  0  0  0
  153.7379  143.5372  159.2658 H   0  0  0  0  0  0  0  0  0  0  0  0
  152.0880  141.1494  160.1939 H   0  0  0  0  0  0  0  0  0  0  0  0
  153.7427  141.1085  159.6347 H   0  0  0  0  0  0  0  0  0  0  0  0
  153.6100  141.0708  162.1263 H   0  0  0  0  0  0  0  0  0  0  0  0
  154.4821  142.4729  161.5520 H   0  0  0  0  0  0  0  0  0  0  0  0
  151.5615  142.4168  162.4590 H   0  0  0  0  0  0  0  0  0  0  0  0
  152.8943  143.1453  163.3238 H   0  0  0  0  0  0  0  0  0  0  0  0
  151.5795  144.8578  162.0870 H   0  0  0  0  0  0  0  0  0  0  0  0
  153.2311  144.8001  161.5236 H   0  0  0  0  0  0  0  0  0  0  0  0
  150.8336  143.4846  160.1826 H   0  0  0  0  0  0  0  0  0  0  0  0
  152.5283  145.8422  159.2290 H   0  0  0  0  0  0  0  0  0  0  0  0
  150.9225  145.9706  159.9407 H   0  0  0  0  0  0  0  0  0  0  0  0
  151.1313  145.1655  158.3967 H   0  0  0  0  0  0  0  0  0  0  0  0
  1  2  1  0  0  0  0
  1 21  1  0  0  0  0
  1 22  1  0  0  0  0
  1 23  1  0  0  0  0
  2 20  1  0  0  0  0
  2  3  2  0  0  0  0
  3  4  1  0  0  0  0
  4  5  1  0  0  0  0
  4  6  2  0  0  0  0
  5 24  1  0  0  0  0
  5 25  1  0  0  0  0
  5 26  1  0  0  0  0
  6  7  1  0  0  0  0
  6 18  1  0  0  0  0
  7  8  1  0  0  0  0
  7 27  1  0  0  0  0
  7 28  1  0  0  0  0
  8  9  2  0  0  0  0
  8 10  1  0  0  0  0
 10 11  1  0  0  0  0
 10 29  1  0  0  0  0
 11 16  1  0  0  0  0
 11 12  1  0  0  0  0
 11 30  1  0  0  0  0
 12 13  1  0  0  0  0
 12 31  1  0  0  0  0
 12 32  1  0  0  0  0
 13 14  1  0  0  0  0
 13 33  1  0  0  0  0
 13 34  1  0  0  0  0
 14 15  1  0  0  0  0
 14 35  1  0  0  0  0
 14 36  1  0  0  0  0
 15 16  1  0  0  0  0
 15 37  1  0  0  0  0
 15 38  1  0  0  0  0
 16 17  1  0  0  0  0
 16 39  1  0  0  0  0
 17 40  1  0  0  0  0
 17 41  1  0  0  0  0
 17 42  1  0  0  0  0
 18 19  2  0  0  0  0
 18 20  1  0  0  0  0
M  CHG  1  20  -1
M  END
> <s_m_source_file>
AV-unprocessed.smi

> <i_m_source_file_index>
1295

> <i_lp_mmshare_version>
43012

> <i_f3d_flags>
0

> <s_epik_input>
W0NIM11jMW5jKFtDSDNdKWMoYyg9TylbbkhdMSlbQ0gyXUMoPU8pW05IXVtDQEBIXTJbQ0gyXVtDSDJdW0NIMl1bQ0gyXVtDQEhdMltDSDNd

> <s_epik_cmdline>
J2VwaWtfcHl0aG9uJywgJy1waCcsICc3LjAnLCAnLXRuJywgJzgnLCAnLW1hJywgJzIwMCcsICctbWV0YWxfYmluZGluZycsICctaW1hZScsICc8aW5maWxlLm1hZT4nLCAnLW9tYWUnLCAnPG91dGZpbGUubWFlPic=

> <r_lp_tautomer_probability>
0.839158

> <r_epik_Ionization_Penalty>
6.67742

> <r_epik_Ionization_Penalty_Charging>
7.78154e-08

> <r_epik_Ionization_Penalty_Neutral>
6.67742

> <r_epik_State_Penalty>
4.51991

> <r_epik_Charging_Adjusted_Penalty>
4.51991

> <i_epik_Tot_Q>
-1

> <i_epik_Tot_abs_Q>
1

> <r_epik_Metal_State_Penalty>
0.853272

> <b_epik_Metal_Only>
1

> <s_lp_Force_Field>
OPLS_2005

> <r_lp_Energy>
15.3241

> <b_lp_Chiralities_Consistent>
1

> <s_lp_Variant>
AV-unprocessed.smi:1295-9

> <Gold.Version>
5.8.1

> <Gold.Id.Protein>
6NUR|6NUR_protein|mol2

> <Gold.PLP.Fitness>
47.7440

> <Gold.PLP.PLP>
-46.2304

> <Gold.PLP.part.hbond>
-1.1285

> <Gold.PLP.part.metal>
0.0000

> <Gold.PLP.part.buried>
-3.9956

> <Gold.PLP.part.nonpolar>
-42.3073

> <Gold.PLP.part.repulsive>
0.2693

> <Gold.PLP.ligand.clash>
0.0000

> <Gold.PLP.ligand.torsion>
0.7472

> <Gold.PLP.Chemscore.Hbond>
1.0000

> <Gold.PLP.Chemscore.CHOScore>
0.0000

> <Gold.PLP.Chemscore.Metal>
0.0000

> <Gold.Chemscore.Hbonds>
donor molecule, donor type, donor heavy atom, donor atom, acceptor molecule, acceptor atom, score
      P1  H  7997  8008       L1    19  0.63

> <Gold.PLP.Chemscore.Internal.Correction>
0.0080

> <Gold.Rescore>
     Score         DG    S(hbond)    S(metal)    S(lipo)     H(rot)  DE(clash)    DE(int)     intcor
     14.35     -18.42       1.00        0.00     113.84       1.45       0.22       3.85       ----

> <Gold.Chemscore.Fitness>
14.3517

> <Gold.Chemscore.DG>
-18.4248

> <Gold.Chemscore.ZeroCoef>
-5.4800

> <Gold.Chemscore.Hbond>
0.9954

> <Gold.Chemscore.Metal>
0.0000

> <Gold.Chemscore.Lipo>
113.8402

> <Gold.Chemscore.Internal_Hbond>
0.0000

> <Gold.Chemscore.DEClash>
0.2235

> <Gold.Chemscore.DEInternal>
3.8496

> <Gold.Chemscore.Rot>
1.4450

> <Gold.Chemscore.Internal.Correction>
   9.000000E+99

> <Gold.Chemscore.Hbonds>
donor molecule, donor type, donor heavy atom, donor atom, acceptor molecule, acceptor atom, score
      P1  H  7997  8008       L1    19  0.61

> <Gold.Chemscore.Hbond.Weighted>
-3.3247

> <Gold.Chemscore.Metal.Weighted>
-0.0000

> <Gold.Chemscore.Lipo.Weighted>
-13.3193

> <Gold.Chemscore.Internal_Hbond.Weighted>
0.0000

> <Gold.Chemscore.DEClash.Weighted>
0.2235

> <Gold.Chemscore.DEInternal.Weighted>
3.8496

> <Gold.Chemscore.Rot.Weighted>
3.6992

> <Gold.Chemscore.Internal.Correction.Weighted>
   9.000000E+99

> <Gold.Protein.RotatedTorsions>
[ 6907 6896 6895 6894 ] final   91.20 input  -60.11 | X-H torsion
[ 7974 7965 7964 7962 ] final  -79.64 input  175.53 | X-H torsion
[ 8008 7997 7996 7995 ] final  -62.82 input   59.86 | X-H torsion
[ 10167 10162 10161 10158 ] final  -41.11 input  -65.29 | X-H torsion
[ 10718 10713 10712 10709 ] final  147.01 input   66.30 | X-H torsion
[ 10763 10752 10751 10750 ] final  169.14 input  -60.55 | X-H torsion
[ 11005 11000 10999 10996 ] final  -29.25 input  -57.11 | X-H torsion

> <Gold.Protein.ActiveResidues>
 VAL166  LYS551  ARG553  GLY616  TRP617  ASP618  TYR619  PRO620  LYS621  CYS622 
 ASP623  PHE694  ASN695  SER759  ASP760  ASP761  ALA762  ILE779  LEU786  VAL792 
 PHE793  MET794  SER795  GLU796  ALA797  LYS798  CYS799  TRP800  GLU811  SER814 

> <Gold.Protein.RotatedAtoms>
  152.5449  134.1694  159.8590 H   0  0  0  0  0  0  0  0  0  0  0  0  # atno 6907 bound_to 6896
  151.1705  133.4780  159.2601 H   0  0  0  0  0  0  0  0  0  0  0  0  # atno 6908 bound_to 6896
  151.1280  135.0126  159.8624 H   0  0  0  0  0  0  0  0  0  0  0  0  # atno 6909 bound_to 6896
  145.5705  140.9467  143.1398 H   0  0  0  0  0  0  0  0  0  0  0  0  # atno 7974 bound_to 7965
  154.4520  140.0988  156.6646 H   0  0  0  0  0  0  0  0  0  0  0  0  # atno 8008 bound_to 7997
  155.5255  140.3480  155.4397 H   0  0  0  0  0  0  0  0  0  0  0  0  # atno 8009 bound_to 7997
  156.0701  140.1347  156.9828 H   0  0  0  0  0  0  0  0  0  0  0  0  # atno 8010 bound_to 7997
  140.7013  143.3113  151.3020 H   0  0  0  0  0  0  0  0  0  0  0  0  # atno 10167 bound_to 10162
  157.3262  131.0913  151.1200 H   0  0  0  0  0  0  0  0  0  0  0  0  # atno 10718 bound_to 10713
  154.3787  135.2753  155.2224 H   0  0  0  0  0  0  0  0  0  0  0  0  # atno 10763 bound_to 10752
  154.4340  135.5970  153.6090 H   0  0  0  0  0  0  0  0  0  0  0  0  # atno 10764 bound_to 10752
  152.9835  135.6002  154.4028 H   0  0  0  0  0  0  0  0  0  0  0  0  # atno 10765 bound_to 10752
  140.9280  133.7356  156.0895 H   0  0  0  0  0  0  0  0  0  0  0  0  # atno 11005 bound_to 11000
  144.7440  139.7370  143.7299 LP  0  0  0  0  0  0  0  0  0  0  0  0  # atno 17320 bound_to 7965
  146.1788  139.4970  142.9880 LP  0  0  0  0  0  0  0  0  0  0  0  0  # atno 17321 bound_to 7965
  139.6537  144.0315  152.2644 LP  0  0  0  0  0  0  0  0  0  0  0  0  # atno 17342 bound_to 10162
  139.9860  144.6395  150.7857 LP  0  0  0  0  0  0  0  0  0  0  0  0  # atno 17343 bound_to 10162
  157.2465  130.6594  149.5912 LP  0  0  0  0  0  0  0  0  0  0  0  0  # atno 17370 bound_to 10713
  155.9691  130.4552  150.5877 LP  0  0  0  0  0  0  0  0  0  0  0  0  # atno 17371 bound_to 10713
  140.7900  134.3628  157.5467 LP  0  0  0  0  0  0  0  0  0  0  0  0  # atno 17394 bound_to 11000
  139.8790  134.9134  156.3084 LP  0  0  0  0  0  0  0  0  0  0  0  0  # atno 17395 bound_to 11000

$$$$
