AV-unprocessed.smi:937|AV-procd|sdf|4212|dock3
  -GOLD-   22720 2123D 1   1.00000     0.00000
 Structure written by MMmdl.
 45 46  0  0  0  0  0  0  0  0  1 V2000
  151.6684  145.5159  159.8487 C   0  0  0  0  0  0  0  0  0  0  0  0
  152.2640  144.2043  160.3160 C   0  0  0  0  0  0  0  0  0  0  0  0
  153.0628  143.4230  159.4544 C   0  0  0  0  0  0  0  0  0  0  0  0
  153.5849  142.2090  159.9413 C   0  0  0  0  0  0  0  0  0  0  0  0
  153.2908  141.8249  161.2658 C   0  0  0  0  0  0  0  0  0  0  0  0
  153.8173  140.5234  161.8378 C   0  0  0  0  0  0  0  0  0  0  0  0
  153.3372  139.3067  161.0357 C   0  0  0  0  0  0  0  0  0  0  0  0
  153.8465  138.0737  161.6192 N   0  0  0  0  0  0  0  0  0  0  0  0
  153.6082  136.8453  161.1325 C   0  0  0  0  0  0  0  0  0  0  0  0
  152.9345  136.6353  160.1257 O   0  0  0  0  0  0  0  0  0  0  0  0
  154.1558  135.8409  161.8404 N   0  0  0  0  0  0  0  0  0  0  0  0
  154.0889  134.3981  161.5859 C   0  0  1  0  0  0  0  0  0  0  0  0
  155.4913  133.7845  161.3817 C   0  0  0  0  0  0  0  0  0  0  0  0
  156.3090  133.7648  162.6831 C   0  0  0  0  0  0  0  0  0  0  0  0
  155.5511  133.0411  163.8066 C   0  0  0  0  0  0  0  0  0  0  0  0
  154.1626  133.6676  164.0538 C   0  0  2  0  0  0  0  0  0  0  0  0
  153.4007  132.9547  165.1901 C   0  0  0  0  0  0  0  0  0  0  0  0
  153.0731  131.7117  164.8357 F   0  0  0  0  0  0  0  0  0  0  0  0
  154.1569  132.9050  166.2868 F   0  0  0  0  0  0  0  0  0  0  0  0
  152.2874  133.6267  165.4834 F   0  0  0  0  0  0  0  0  0  0  0  0
  153.3470  133.6937  162.7400 C   0  0  0  0  0  0  0  0  0  0  0  0
  152.4842  142.6804  162.0456 C   0  0  0  0  0  0  0  0  0  0  0  0
  151.9783  143.8454  161.5871 N   0  0  0  0  0  0  0  0  0  0  0  0
  151.9604  145.7403  158.8224 H   0  0  0  0  0  0  0  0  0  0  0  0
  152.0060  146.3347  160.4846 H   0  0  0  0  0  0  0  0  0  0  0  0
  150.5797  145.4730  159.8903 H   0  0  0  0  0  0  0  0  0  0  0  0
  153.2701  143.7425  158.4435 H   0  0  0  0  0  0  0  0  0  0  0  0
  154.1972  141.5854  159.3067 H   0  0  0  0  0  0  0  0  0  0  0  0
  154.9076  140.5545  161.8582 H   0  0  0  0  0  0  0  0  0  0  0  0
  153.4915  140.4402  162.8755 H   0  0  0  0  0  0  0  0  0  0  0  0
  152.2463  139.2833  161.0174 H   0  0  0  0  0  0  0  0  0  0  0  0
  153.6760  139.3770  160.0013 H   0  0  0  0  0  0  0  0  0  0  0  0
  154.4091  138.1566  162.4534 H   0  0  0  0  0  0  0  0  0  0  0  0
  154.6580  136.1099  162.6740 H   0  0  0  0  0  0  0  0  0  0  0  0
  153.5021  134.2380  160.6795 H   0  0  0  0  0  0  0  0  0  0  0  0
  155.3810  132.7618  161.0188 H   0  0  0  0  0  0  0  0  0  0  0  0
  156.0409  134.3181  160.6058 H   0  0  0  0  0  0  0  0  0  0  0  0
  157.2673  133.2748  162.5095 H   0  0  0  0  0  0  0  0  0  0  0  0
  156.5387  134.7854  162.9917 H   0  0  0  0  0  0  0  0  0  0  0  0
  155.4408  131.9871  163.5488 H   0  0  0  0  0  0  0  0  0  0  0  0
  156.1454  133.0732  164.7201 H   0  0  0  0  0  0  0  0  0  0  0  0
  154.3197  134.6994  164.3719 H   0  0  0  0  0  0  0  0  0  0  0  0
  152.3833  134.1772  162.9050 H   0  0  0  0  0  0  0  0  0  0  0  0
  153.1203  132.6699  162.4395 H   0  0  0  0  0  0  0  0  0  0  0  0
  152.2337  142.4214  163.0638 H   0  0  0  0  0  0  0  0  0  0  0  0
  1  2  1  0  0  0  0
  1 24  1  0  0  0  0
  1 25  1  0  0  0  0
  1 26  1  0  0  0  0
  2 23  1  0  0  0  0
  2  3  2  0  0  0  0
  3  4  1  0  0  0  0
  3 27  1  0  0  0  0
  4  5  2  0  0  0  0
  4 28  1  0  0  0  0
  5  6  1  0  0  0  0
  5 22  1  0  0  0  0
  6  7  1  0  0  0  0
  6 29  1  0  0  0  0
  6 30  1  0  0  0  0
  7  8  1  0  0  0  0
  7 31  1  0  0  0  0
  7 32  1  0  0  0  0
  8  9  1  0  0  0  0
  8 33  1  0  0  0  0
  9 10  2  0  0  0  0
  9 11  1  0  0  0  0
 11 12  1  0  0  0  0
 11 34  1  0  0  0  0
 12 21  1  0  0  0  0
 12 13  1  0  0  0  0
 12 35  1  0  0  0  0
 13 14  1  0  0  0  0
 13 36  1  0  0  0  0
 13 37  1  0  0  0  0
 14 15  1  0  0  0  0
 14 38  1  0  0  0  0
 14 39  1  0  0  0  0
 15 16  1  0  0  0  0
 15 40  1  0  0  0  0
 15 41  1  0  0  0  0
 16 17  1  0  0  0  0
 16 21  1  0  0  0  0
 16 42  1  0  0  0  0
 17 18  1  0  0  0  0
 17 19  1  0  0  0  0
 17 20  1  0  0  0  0
 21 43  1  0  0  0  0
 21 44  1  0  0  0  0
 22 23  2  0  0  0  0
 22 45  1  0  0  0  0
M  END
> <s_m_source_file>
AV-unprocessed.smi

> <i_m_source_file_index>
937

> <i_lp_mmshare_version>
43012

> <i_f3d_flags>
0

> <s_epik_input>
W0NIM11jMVtjSF1bY0hdYyhbY0hdbjEpW0NIMl1bQ0gyXVtOSF1DKD1PKVtOSF1bQ0BASF0yW0NIMl1bQ0gyXVtDSDJdW0NAQEhdKEMoRikoRilGKVtDSDJdMg==

> <s_epik_cmdline>
J2VwaWtfcHl0aG9uJywgJy1waCcsICc3LjAnLCAnLXRuJywgJzgnLCAnLW1hJywgJzIwMCcsICctbWV0YWxfYmluZGluZycsICctaW1hZScsICc8aW5maWxlLm1hZT4nLCAnLW9tYWUnLCAnPG91dGZpbGUubWFlPic=

> <r_epik_Ionization_Penalty>
0.0563445

> <r_epik_Ionization_Penalty_Charging>
0

> <r_epik_Ionization_Penalty_Neutral>
0.0563445

> <r_epik_State_Penalty>
0.0485409

> <r_epik_Charging_Adjusted_Penalty>
0.0485409

> <i_epik_Tot_Q>
0

> <i_epik_Tot_abs_Q>
0

> <r_epik_Metal_State_Penalty>
0.0443056

> <b_epik_Metal_Only>
0

> <s_lp_Force_Field>
OPLS_2005

> <r_lp_Energy>
18.524

> <b_lp_Chiralities_Consistent>
1

> <s_lp_Variant>
AV-unprocessed.smi:937-4

> <Gold.Version>
5.8.1

> <Gold.Id.Protein>
6NUR|6NUR_protein|mol2

> <Gold.PLP.Fitness>
46.9226

> <Gold.PLP.PLP>
-44.0143

> <Gold.PLP.part.hbond>
-1.0000

> <Gold.PLP.part.metal>
0.0000

> <Gold.PLP.part.buried>
-4.7338

> <Gold.PLP.part.nonpolar>
-39.1194

> <Gold.PLP.part.repulsive>
0.1982

> <Gold.PLP.ligand.clash>
0.0000

> <Gold.PLP.ligand.torsion>
0.0565

> <Gold.PLP.Chemscore.Hbond>
0.9913

> <Gold.PLP.Chemscore.CHOScore>
0.0000

> <Gold.PLP.Chemscore.Metal>
0.0000

> <Gold.Chemscore.Hbonds>
donor molecule, donor type, donor heavy atom, donor atom, acceptor molecule, acceptor atom, score
      P1  H  6896  6909       L1    10  1.00

> <Gold.PLP.Chemscore.Internal.Correction>
0.0476

> <Gold.Rescore>
     Score         DG    S(hbond)    S(metal)    S(lipo)     H(rot)  DE(clash)    DE(int)     intcor
     17.82     -18.34       1.00        0.00     116.15       1.58       0.35       0.16       ----

> <Gold.Chemscore.Fitness>
17.8244

> <Gold.Chemscore.DG>
-18.3361

> <Gold.Chemscore.ZeroCoef>
-5.4800

> <Gold.Chemscore.Hbond>
0.9950

> <Gold.Chemscore.Metal>
0.0000

> <Gold.Chemscore.Lipo>
116.1546

> <Gold.Chemscore.Internal_Hbond>
0.0000

> <Gold.Chemscore.DEClash>
0.3543

> <Gold.Chemscore.DEInternal>
0.1575

> <Gold.Chemscore.Rot>
1.5849

> <Gold.Chemscore.Internal.Correction>
   9.000000E+99

> <Gold.Chemscore.Hbonds>
donor molecule, donor type, donor heavy atom, donor atom, acceptor molecule, acceptor atom, score
      P1  H  6896  6909       L1    10  0.93

> <Gold.Chemscore.Hbond.Weighted>
-3.3234

> <Gold.Chemscore.Metal.Weighted>
-0.0000

> <Gold.Chemscore.Lipo.Weighted>
-13.5901

> <Gold.Chemscore.Internal_Hbond.Weighted>
0.0000

> <Gold.Chemscore.DEClash.Weighted>
0.3543

> <Gold.Chemscore.DEInternal.Weighted>
0.1575

> <Gold.Chemscore.Rot.Weighted>
4.0574

> <Gold.Chemscore.Internal.Correction.Weighted>
   9.000000E+99

> <Gold.Protein.RotatedTorsions>
[ 6907 6896 6895 6894 ] final  147.90 input  -60.11 | X-H torsion
[ 7974 7965 7964 7962 ] final  -18.45 input  175.53 | X-H torsion
[ 8008 7997 7996 7995 ] final -116.00 input   59.86 | X-H torsion
[ 10167 10162 10161 10158 ] final -163.00 input  -65.29 | X-H torsion
[ 10718 10713 10712 10709 ] final  -88.10 input   66.30 | X-H torsion
[ 10763 10752 10751 10750 ] final   78.72 input  -60.55 | X-H torsion
[ 11005 11000 10999 10996 ] final  -92.44 input  -57.11 | X-H torsion

> <Gold.Protein.ActiveResidues>
 VAL166  LYS551  ARG553  GLY616  TRP617  ASP618  TYR619  PRO620  LYS621  CYS622 
 ASP623  PHE694  ASN695  SER759  ASP760  ASP761  ALA762  ILE779  LEU786  VAL792 
 PHE793  MET794  SER795  GLU796  ALA797  LYS798  CYS799  TRP800  GLU811  SER814 

> <Gold.Protein.RotatedAtoms>
  152.1487  133.4508  159.4802 H   0  0  0  0  0  0  0  0  0  0  0  0  # atno 6907 bound_to 6896
  150.6893  134.2216  159.4408 H   0  0  0  0  0  0  0  0  0  0  0  0  # atno 6908 bound_to 6896
  152.0112  134.9875  160.0619 H   0  0  0  0  0  0  0  0  0  0  0  0  # atno 6909 bound_to 6896
  146.1892  140.3922  142.8465 H   0  0  0  0  0  0  0  0  0  0  0  0  # atno 7974 bound_to 7965
  155.0609  140.0393  157.2576 H   0  0  0  0  0  0  0  0  0  0  0  0  # atno 8008 bound_to 7997
  154.7060  140.2683  155.6650 H   0  0  0  0  0  0  0  0  0  0  0  0  # atno 8009 bound_to 7997
  156.2775  140.2731  156.1686 H   0  0  0  0  0  0  0  0  0  0  0  0  # atno 8010 bound_to 7997
  139.6352  144.0364  152.2048 H   0  0  0  0  0  0  0  0  0  0  0  0  # atno 10167 bound_to 10162
  155.9984  130.4823  150.4967 H   0  0  0  0  0  0  0  0  0  0  0  0  # atno 10718 bound_to 10713
  153.0896  135.4866  154.8664 H   0  0  0  0  0  0  0  0  0  0  0  0  # atno 10763 bound_to 10752
  154.7253  135.3048  154.8983 H   0  0  0  0  0  0  0  0  0  0  0  0  # atno 10764 bound_to 10752
  153.9635  135.6809  153.4798 H   0  0  0  0  0  0  0  0  0  0  0  0  # atno 10765 bound_to 10752
  141.1522  133.7821  157.0020 H   0  0  0  0  0  0  0  0  0  0  0  0  # atno 11005 bound_to 11000
  144.8453  140.6920  143.6203 LP  0  0  0  0  0  0  0  0  0  0  0  0  # atno 17320 bound_to 7965
  145.3846  139.1629  143.4262 LP  0  0  0  0  0  0  0  0  0  0  0  0  # atno 17321 bound_to 7965
  140.0039  144.6273  150.7705 LP  0  0  0  0  0  0  0  0  0  0  0  0  # atno 17342 bound_to 10162
  140.7461  143.2886  151.3394 LP  0  0  0  0  0  0  0  0  0  0  0  0  # atno 17343 bound_to 10162
  157.2956  131.0635  151.2103 LP  0  0  0  0  0  0  0  0  0  0  0  0  # atno 17370 bound_to 10713
  157.3101  130.6885  149.6211 LP  0  0  0  0  0  0  0  0  0  0  0  0  # atno 17371 bound_to 10713
  140.0934  134.9579  157.1811 LP  0  0  0  0  0  0  0  0  0  0  0  0  # atno 17394 bound_to 11000
  140.3415  134.2698  155.7211 LP  0  0  0  0  0  0  0  0  0  0  0  0  # atno 17395 bound_to 11000

$$$$
