AV-unprocessed.smi:29|AV-procd|sdf|191|dock6
  -GOLD-   2262015463D 1   1.00000     0.00000
 Structure written by MMmdl.
 56 59  0  0  0  0  0  0  0  0  1 V2000
  147.3219  143.1201  160.0859 O   0  0  0  0  0  0  0  0  0  0  0  0
  146.8542  142.9292  158.9633 C   0  0  0  0  0  0  0  0  0  0  0  0
  145.3372  143.0140  158.7358 C   0  0  0  0  0  0  0  0  0  0  0  0
  144.9079  144.3144  158.1782 N   0  0  0  0  0  0  0  0  0  0  0  0
  145.2214  145.5027  158.8842 C   0  0  0  0  0  0  0  0  0  0  0  0
  145.8261  145.4683  159.9567 O   0  0  0  0  0  0  0  0  0  0  0  0
  144.7913  146.7440  158.2502 C   0  0  0  0  0  0  0  0  0  0  0  0
  145.0553  147.9205  158.8435 F   0  0  0  0  0  0  0  0  0  0  0  0
  144.1357  146.7312  157.0715 C   0  0  0  0  0  0  0  0  0  0  0  0
  143.8304  145.5630  156.3974 N   0  0  0  0  0  0  0  0  0  0  0  0
  143.1055  145.5848  155.0701 C   0  0  2  0  0  0  0  0  0  0  0  0
  142.7225  147.0220  154.6994 C   0  0  0  0  0  0  0  0  0  0  0  0
  141.3110  147.1155  155.2364 C   0  0  0  0  0  0  0  0  0  0  0  0
  140.7951  145.7022  154.9904 C   0  0  0  0  0  0  0  0  0  0  0  0
  141.9209  144.8492  155.1833 O   0  0  0  0  0  0  0  0  0  0  0  0
  144.2283  144.3209  156.9368 C   0  0  0  0  0  0  0  0  0  0  0  0
  143.9976  143.2698  156.3346 O   0  0  0  0  0  0  0  0  0  0  0  0
  147.5756  142.6016  157.8763 N   0  0  0  0  0  0  0  0  0  0  0  0
  148.9831  142.4223  157.7365 C   0  0  0  0  0  0  0  0  0  0  0  0
  149.9251  142.9969  158.6254 C   0  0  0  0  0  0  0  0  0  0  0  0
  151.3096  142.8035  158.4397 C   0  0  0  0  0  0  0  0  0  0  0  0
  152.2903  143.4339  159.4173 C   0  0  0  0  0  0  0  0  0  0  0  0
  153.5485  143.0690  159.1668 F   0  0  0  0  0  0  0  0  0  0  0  0
  152.2142  144.7623  159.3364 F   0  0  0  0  0  0  0  0  0  0  0  0
  151.9788  143.0602  160.6581 F   0  0  0  0  0  0  0  0  0  0  0  0
  151.7601  142.0285  157.3515 C   0  0  0  0  0  0  0  0  0  0  0  0
  150.8353  141.4686  156.4521 C   0  0  0  0  0  0  0  0  0  0  0  0
  149.4473  141.6662  156.6307 C   0  0  0  0  0  0  0  0  0  0  0  0
  148.5288  141.1204  155.7180 N   0  0  0  0  0  0  0  0  0  0  0  0
  148.5935  141.7148  154.3893 C   0  0  0  0  0  0  0  0  0  0  0  0
  147.4498  141.1705  153.5162 C   0  0  0  0  0  0  0  0  0  0  0  0
  147.5094  139.7470  153.4840 O   0  0  0  0  0  0  0  0  0  0  0  0
  147.3680  139.1749  154.7818 C   0  0  0  0  0  0  0  0  0  0  0  0
  148.5109  139.6639  155.6886 C   0  0  0  0  0  0  0  0  0  0  0  0
  145.0191  142.1983  158.0835 H   0  0  0  0  0  0  0  0  0  0  0  0
  144.8416  142.8001  159.6838 H   0  0  0  0  0  0  0  0  0  0  0  0
  143.8489  147.6812  156.6460 H   0  0  0  0  0  0  0  0  0  0  0  0
  143.7700  145.1020  154.3518 H   0  0  0  0  0  0  0  0  0  0  0  0
  143.4090  147.7593  155.1181 H   0  0  0  0  0  0  0  0  0  0  0  0
  142.7250  147.1130  153.6125 H   0  0  0  0  0  0  0  0  0  0  0  0
  141.3273  147.3333  156.3050 H   0  0  0  0  0  0  0  0  0  0  0  0
  140.7133  147.8805  154.7401 H   0  0  0  0  0  0  0  0  0  0  0  0
  139.9714  145.4338  155.6522 H   0  0  0  0  0  0  0  0  0  0  0  0
  140.4518  145.5984  153.9603 H   0  0  0  0  0  0  0  0  0  0  0  0
  147.0399  142.3926  157.0460 H   0  0  0  0  0  0  0  0  0  0  0  0
  149.6124  143.6081  159.4570 H   0  0  0  0  0  0  0  0  0  0  0  0
  152.8152  141.8636  157.1919 H   0  0  0  0  0  0  0  0  0  0  0  0
  151.2006  140.8874  155.6179 H   0  0  0  0  0  0  0  0  0  0  0  0
  148.5225  142.8006  154.4652 H   0  0  0  0  0  0  0  0  0  0  0  0
  149.5534  141.4842  153.9255 H   0  0  0  0  0  0  0  0  0  0  0  0
  146.4807  141.4959  153.8979 H   0  0  0  0  0  0  0  0  0  0  0  0
  147.5371  141.5541  152.4996 H   0  0  0  0  0  0  0  0  0  0  0  0
  146.3969  139.4402  155.2032 H   0  0  0  0  0  0  0  0  0  0  0  0
  147.3931  138.0885  154.6971 H   0  0  0  0  0  0  0  0  0  0  0  0
  149.4645  139.2879  155.3160 H   0  0  0  0  0  0  0  0  0  0  0  0
  148.3807  139.2746  156.6991 H   0  0  0  0  0  0  0  0  0  0  0  0
  1  2  2  0  0  0  0
  2  3  1  0  0  0  0
  2 18  1  0  0  0  0
  3  4  1  0  0  0  0
  3 35  1  0  0  0  0
  3 36  1  0  0  0  0
  4 16  1  0  0  0  0
  4  5  1  0  0  0  0
  5  6  2  0  0  0  0
  5  7  1  0  0  0  0
  7  8  1  0  0  0  0
  7  9  2  0  0  0  0
  9 10  1  0  0  0  0
  9 37  1  0  0  0  0
 10 11  1  0  0  0  0
 10 16  1  0  0  0  0
 11 15  1  0  0  0  0
 11 12  1  0  0  0  0
 11 38  1  0  0  0  0
 12 13  1  0  0  0  0
 12 39  1  0  0  0  0
 12 40  1  0  0  0  0
 13 14  1  0  0  0  0
 13 41  1  0  0  0  0
 13 42  1  0  0  0  0
 14 15  1  0  0  0  0
 14 43  1  0  0  0  0
 14 44  1  0  0  0  0
 16 17  2  0  0  0  0
 18 19  1  0  0  0  0
 18 45  1  0  0  0  0
 19 28  1  0  0  0  0
 19 20  2  0  0  0  0
 20 21  1  0  0  0  0
 20 46  1  0  0  0  0
 21 22  1  0  0  0  0
 21 26  2  0  0  0  0
 22 23  1  0  0  0  0
 22 24  1  0  0  0  0
 22 25  1  0  0  0  0
 26 27  1  0  0  0  0
 26 47  1  0  0  0  0
 27 28  2  0  0  0  0
 27 48  1  0  0  0  0
 28 29  1  0  0  0  0
 29 34  1  0  0  0  0
 29 30  1  0  0  0  0
 30 31  1  0  0  0  0
 30 49  1  0  0  0  0
 30 50  1  0  0  0  0
 31 32  1  0  0  0  0
 31 51  1  0  0  0  0
 31 52  1  0  0  0  0
 32 33  1  0  0  0  0
 33 34  1  0  0  0  0
 33 53  1  0  0  0  0
 33 54  1  0  0  0  0
 34 55  1  0  0  0  0
 34 56  1  0  0  0  0
M  END
> <s_m_source_file>
AV-unprocessed.smi

> <i_m_source_file_index>
29

> <i_lp_mmshare_version>
43012

> <i_f3d_flags>
0

> <s_epik_input>
TzFbQ0gyXVtDSDJdW0NIMl1bQ0BIXTFuKGMyPU8pW2NIXWMoRiljKD1PKW4yW0NIMl1DKD1PKVtOSF1jM1tjSF1jKEMoRikoRilGKVtjSF1bY0hdYzNONFtDSDJdW0NIMl1PW0NIMl1bQ0gyXTQ=

> <s_epik_cmdline>
J2VwaWtfcHl0aG9uJywgJy1waCcsICc3LjAnLCAnLXRuJywgJzgnLCAnLW1hJywgJzIwMCcsICctbWV0YWxfYmluZGluZycsICctaW1hZScsICc8aW5maWxlLm1hZT4nLCAnLW9tYWUnLCAnPG91dGZpbGUubWFlPic=

> <r_lp_tautomer_probability>
1

> <r_epik_Ionization_Penalty>
3.5967e-06

> <r_epik_Ionization_Penalty_Charging>
3.88729e-08

> <r_epik_Ionization_Penalty_Neutral>
3.55783e-06

> <r_epik_State_Penalty>
-0

> <r_epik_Charging_Adjusted_Penalty>
3.88729e-08

> <i_epik_Tot_Q>
0

> <i_epik_Tot_abs_Q>
0

> <r_epik_Metal_State_Penalty>
-0

> <b_epik_Metal_Only>
0

> <s_epik_Chemistry_Notes>
This compound contains an acetal/aminal-like group ( X-CH(R)-Y where X, Y are N, S, or O) that may be acid/base labile, releasing an aldehyde.

> <s_lp_Force_Field>
OPLS_2005

> <r_lp_Energy>
49.5757

> <b_lp_Chiralities_Consistent>
1

> <s_lp_Variant>
AV-unprocessed.smi:29-1

> <Gold.Version>
5.8.1

> <Gold.Id.Protein>
6NUR|6NUR_protein|mol2

> <Gold.PLP.Fitness>
52.0601

> <Gold.PLP.PLP>
-49.8095

> <Gold.PLP.part.hbond>
-1.5579

> <Gold.PLP.part.metal>
0.0000

> <Gold.PLP.part.buried>
-7.2643

> <Gold.PLP.part.nonpolar>
-40.9314

> <Gold.PLP.part.repulsive>
0.6596

> <Gold.PLP.ligand.clash>
0.0000

> <Gold.PLP.ligand.torsion>
0.5815

> <Gold.PLP.Chemscore.Hbond>
1.0572

> <Gold.PLP.Chemscore.CHOScore>
0.0000

> <Gold.PLP.Chemscore.Metal>
0.0000

> <Gold.Chemscore.Hbonds>
donor molecule, donor type, donor heavy atom, donor atom, acceptor molecule, acceptor atom, score
      P1  H  6933  6944       L1     1  0.99
      P1  H  6934  6946       L1     1  0.07

> <Gold.PLP.Chemscore.Internal.Correction>
0.2420

> <Gold.Rescore>
     Score         DG    S(hbond)    S(metal)    S(lipo)     H(rot)  DE(clash)    DE(int)     intcor
     10.16     -16.08       1.00        0.00     105.16       1.96       0.38       5.55       ----

> <Gold.Chemscore.Fitness>
10.1551

> <Gold.Chemscore.DG>
-16.0834

> <Gold.Chemscore.ZeroCoef>
-5.4800

> <Gold.Chemscore.Hbond>
0.9963

> <Gold.Chemscore.Metal>
0.0000

> <Gold.Chemscore.Lipo>
105.1611

> <Gold.Chemscore.Internal_Hbond>
0.0000

> <Gold.Chemscore.DEClash>
0.3815

> <Gold.Chemscore.DEInternal>
5.5468

> <Gold.Chemscore.Rot>
1.9641

> <Gold.Chemscore.Internal.Correction>
   9.000000E+99

> <Gold.Chemscore.Hbonds>
donor molecule, donor type, donor heavy atom, donor atom, acceptor molecule, acceptor atom, score
      P1  H  6933  6944       L1     1  0.94
      P1  H  6934  6946       L1     1  0.01

> <Gold.Chemscore.Hbond.Weighted>
-3.3275

> <Gold.Chemscore.Metal.Weighted>
-0.0000

> <Gold.Chemscore.Lipo.Weighted>
-12.3039

> <Gold.Chemscore.Internal_Hbond.Weighted>
0.0000

> <Gold.Chemscore.DEClash.Weighted>
0.3815

> <Gold.Chemscore.DEInternal.Weighted>
5.5468

> <Gold.Chemscore.Rot.Weighted>
5.0280

> <Gold.Chemscore.Internal.Correction.Weighted>
   9.000000E+99

> <Gold.Protein.RotatedTorsions>
[ 6907 6896 6895 6894 ] final -125.64 input  -60.11 | X-H torsion
[ 7974 7965 7964 7962 ] final   12.53 input  175.53 | X-H torsion
[ 8008 7997 7996 7995 ] final  109.08 input   59.86 | X-H torsion
[ 10167 10162 10161 10158 ] final -163.44 input  -65.29 | X-H torsion
[ 10718 10713 10712 10709 ] final   28.98 input   66.30 | X-H torsion
[ 10763 10752 10751 10750 ] final -124.68 input  -60.55 | X-H torsion
[ 11005 11000 10999 10996 ] final  143.22 input  -57.11 | X-H torsion

> <Gold.Protein.ActiveResidues>
 VAL166  LYS551  ARG553  GLY616  TRP617  ASP618  TYR619  PRO620  LYS621  CYS622 
 ASP623  PHE694  ASN695  SER759  ASP760  ASP761  ALA762  ILE779  LEU786  VAL792 
 PHE793  MET794  SER795  GLU796  ALA797  LYS798  CYS799  TRP800  GLU811  SER814 

> <Gold.Protein.RotatedAtoms>
  150.8888  133.7271  159.2910 H   0  0  0  0  0  0  0  0  0  0  0  0  # atno 6907 bound_to 6896
  151.4828  135.1052  159.9792 H   0  0  0  0  0  0  0  0  0  0  0  0  # atno 6908 bound_to 6896
  152.4807  133.8200  159.7104 H   0  0  0  0  0  0  0  0  0  0  0  0  # atno 6909 bound_to 6896
  146.2349  139.9323  142.8494 H   0  0  0  0  0  0  0  0  0  0  0  0  # atno 7974 bound_to 7965
  156.1952  140.3064  155.9413 H   0  0  0  0  0  0  0  0  0  0  0  0  # atno 8008 bound_to 7997
  155.3082  140.0450  157.3050 H   0  0  0  0  0  0  0  0  0  0  0  0  # atno 8009 bound_to 7997
  154.5501  140.2289  155.8508 H   0  0  0  0  0  0  0  0  0  0  0  0  # atno 8010 bound_to 7997
  139.6320  144.0421  152.2024 H   0  0  0  0  0  0  0  0  0  0  0  0  # atno 10167 bound_to 10162
  157.2406  130.7067  149.6356 H   0  0  0  0  0  0  0  0  0  0  0  0  # atno 10718 bound_to 10713
  154.8726  135.4055  154.3144 H   0  0  0  0  0  0  0  0  0  0  0  0  # atno 10763 bound_to 10752
  153.3983  135.7017  153.6450 H   0  0  0  0  0  0  0  0  0  0  0  0  # atno 10764 bound_to 10752
  153.5204  135.3688  155.2600 H   0  0  0  0  0  0  0  0  0  0  0  0  # atno 10765 bound_to 10752
  140.0537  134.9242  157.1062 H   0  0  0  0  0  0  0  0  0  0  0  0  # atno 11005 bound_to 11000
  145.2032  140.9863  143.4144 LP  0  0  0  0  0  0  0  0  0  0  0  0  # atno 17320 bound_to 7965
  144.9755  139.3836  143.6287 LP  0  0  0  0  0  0  0  0  0  0  0  0  # atno 17321 bound_to 7965
  140.0089  144.6239  150.7665 LP  0  0  0  0  0  0  0  0  0  0  0  0  # atno 17342 bound_to 10162
  140.7444  143.2861  151.3460 LP  0  0  0  0  0  0  0  0  0  0  0  0  # atno 17343 bound_to 10162
  155.9670  130.4459  150.5521 LP  0  0  0  0  0  0  0  0  0  0  0  0  # atno 17370 bound_to 10713
  157.3383  131.0712  151.1808 LP  0  0  0  0  0  0  0  0  0  0  0  0  # atno 17371 bound_to 10713
  140.3877  134.2218  155.7167 LP  0  0  0  0  0  0  0  0  0  0  0  0  # atno 17394 bound_to 11000
  141.1942  133.8133  157.0766 LP  0  0  0  0  0  0  0  0  0  0  0  0  # atno 17395 bound_to 11000

$$$$
