AV-unprocessed.smi:1719|AV-procd|sdf|6930|dock2
  -GOLD-   22720 8143D 1   1.00000     0.00000
 Structure written by MMmdl.
 40 41  0  0  0  0  0  0  0  0  1 V2000
  152.5472  144.3101  159.0901 C   0  0  0  0  0  0  0  0  0  0  0  0
  152.2993  143.0184  158.5633 O   0  0  0  0  0  0  0  0  0  0  0  0
  151.2991  143.0252  157.5583 C   0  0  0  0  0  0  0  0  0  0  0  0
  150.8015  141.5946  157.3315 C   0  0  0  0  0  0  0  0  0  0  0  0
  151.2714  141.1365  156.0670 O   0  0  0  0  0  0  0  0  0  0  0  0
  150.9638  139.8492  155.6774 C   0  0  0  0  0  0  0  0  0  0  0  0
  150.6277  138.9067  156.6696 C   0  0  0  0  0  0  0  0  0  0  0  0
  150.3209  137.5883  156.2815 C   0  0  0  0  0  0  0  0  0  0  0  0
  150.3685  137.2512  154.9077 C   0  0  0  0  0  0  0  0  0  0  0  0
  150.0689  135.9629  154.3886 N   0  0  0  0  0  0  0  0  0  0  0  0
  150.3453  134.7585  154.9223 C   0  0  0  0  0  0  0  0  0  0  0  0
  150.9280  134.5873  155.9931 O   0  0  0  0  0  0  0  0  0  0  0  0
  149.9064  133.5444  154.0919 C   0  0  0  0  0  0  0  0  0  0  0  0
  148.3948  133.5753  153.8039 C   0  0  0  0  0  0  0  0  0  0  0  0
  147.9644  132.3054  153.0512 C   0  0  0  0  0  0  0  0  0  0  0  0
  148.3183  131.1491  153.8030 O   0  0  0  0  0  0  0  0  0  0  0  0
  149.7225  131.0242  154.0033 C   0  0  0  0  0  0  0  0  0  0  0  0
  150.2477  132.2248  154.8073 C   0  0  0  0  0  0  0  0  0  0  0  0
  150.6981  138.2723  153.9927 C   0  0  0  0  0  0  0  0  0  0  0  0
  150.9948  139.5372  154.3580 N   0  0  0  0  0  0  0  0  0  0  0  0
  153.3281  144.2528  159.8482 H   0  0  0  0  0  0  0  0  0  0  0  0
  151.6534  144.7231  159.5597 H   0  0  0  0  0  0  0  0  0  0  0  0
  152.8833  144.9962  158.3116 H   0  0  0  0  0  0  0  0  0  0  0  0
  150.4663  143.6495  157.8859 H   0  0  0  0  0  0  0  0  0  0  0  0
  151.6807  143.4496  156.6283 H   0  0  0  0  0  0  0  0  0  0  0  0
  151.1393  140.9443  158.1404 H   0  0  0  0  0  0  0  0  0  0  0  0
  149.7102  141.5936  157.3339 H   0  0  0  0  0  0  0  0  0  0  0  0
  150.6028  139.1908  157.7112 H   0  0  0  0  0  0  0  0  0  0  0  0
  150.0461  136.8712  157.0390 H   0  0  0  0  0  0  0  0  0  0  0  0
  149.6581  135.9529  153.4662 H   0  0  0  0  0  0  0  0  0  0  0  0
  150.4360  133.5626  153.1373 H   0  0  0  0  0  0  0  0  0  0  0  0
  147.8305  133.6460  154.7352 H   0  0  0  0  0  0  0  0  0  0  0  0
  148.1393  134.4580  153.2161 H   0  0  0  0  0  0  0  0  0  0  0  0
  146.8850  132.3087  152.8986 H   0  0  0  0  0  0  0  0  0  0  0  0
  148.4253  132.2640  152.0632 H   0  0  0  0  0  0  0  0  0  0  0  0
  149.9198  130.0973  154.5421 H   0  0  0  0  0  0  0  0  0  0  0  0
  150.2320  130.9473  153.0413 H   0  0  0  0  0  0  0  0  0  0  0  0
  151.3264  132.1349  154.9423 H   0  0  0  0  0  0  0  0  0  0  0  0
  149.8052  132.2064  155.8047 H   0  0  0  0  0  0  0  0  0  0  0  0
  150.7342  138.0675  152.9326 H   0  0  0  0  0  0  0  0  0  0  0  0
  1  2  1  0  0  0  0
  1 21  1  0  0  0  0
  1 22  1  0  0  0  0
  1 23  1  0  0  0  0
  2  3  1  0  0  0  0
  3  4  1  0  0  0  0
  3 24  1  0  0  0  0
  3 25  1  0  0  0  0
  4  5  1  0  0  0  0
  4 26  1  0  0  0  0
  4 27  1  0  0  0  0
  5  6  1  0  0  0  0
  6 20  1  0  0  0  0
  6  7  2  0  0  0  0
  7  8  1  0  0  0  0
  7 28  1  0  0  0  0
  8  9  2  0  0  0  0
  8 29  1  0  0  0  0
  9 10  1  0  0  0  0
  9 19  1  0  0  0  0
 10 11  1  0  0  0  0
 10 30  1  0  0  0  0
 11 12  2  0  0  0  0
 11 13  1  0  0  0  0
 13 18  1  0  0  0  0
 13 14  1  0  0  0  0
 13 31  1  0  0  0  0
 14 15  1  0  0  0  0
 14 32  1  0  0  0  0
 14 33  1  0  0  0  0
 15 16  1  0  0  0  0
 15 34  1  0  0  0  0
 15 35  1  0  0  0  0
 16 17  1  0  0  0  0
 17 18  1  0  0  0  0
 17 36  1  0  0  0  0
 17 37  1  0  0  0  0
 18 38  1  0  0  0  0
 18 39  1  0  0  0  0
 19 20  2  0  0  0  0
 19 40  1  0  0  0  0
M  END
> <s_m_source_file>
AV-unprocessed.smi

> <i_m_source_file_index>
1719

> <i_lp_mmshare_version>
43012

> <i_f3d_flags>
0

> <s_epik_input>
W0NIM11PW0NIMl1bQ0gyXU9jMVtjSF1bY0hdYyhbY0hdbjEpW05IXUMoPU8pW0NIXTJbQ0gyXVtDSDJdT1tDSDJdW0NIMl0y

> <s_epik_cmdline>
J2VwaWtfcHl0aG9uJywgJy1waCcsICc3LjAnLCAnLXRuJywgJzgnLCAnLW1hJywgJzIwMCcsICctbWV0YWxfYmluZGluZycsICctaW1hZScsICc8aW5maWxlLm1hZT4nLCAnLW9tYWUnLCAnPG91dGZpbGUubWFlPic=

> <r_lp_tautomer_probability>
1

> <r_epik_Ionization_Penalty>
2.13501e-05

> <r_epik_Ionization_Penalty_Charging>
0

> <r_epik_Ionization_Penalty_Neutral>
2.13501e-05

> <r_epik_State_Penalty>
-0

> <r_epik_Charging_Adjusted_Penalty>
0

> <i_epik_Tot_Q>
0

> <i_epik_Tot_abs_Q>
0

> <r_epik_Metal_State_Penalty>
-0

> <b_epik_Metal_Only>
0

> <s_lp_Force_Field>
OPLS_2005

> <r_lp_Energy>
15.3527

> <b_lp_Chiralities_Consistent>
1

> <s_lp_Variant>
AV-unprocessed.smi:1719-1

> <Gold.Version>
5.8.1

> <Gold.Id.Protein>
6NUR|6NUR_protein|mol2

> <Gold.PLP.Fitness>
41.7219

> <Gold.PLP.PLP>
-34.7225

> <Gold.PLP.part.hbond>
-2.7803

> <Gold.PLP.part.metal>
0.0000

> <Gold.PLP.part.buried>
-4.1649

> <Gold.PLP.part.nonpolar>
-27.6354

> <Gold.PLP.part.repulsive>
0.3239

> <Gold.PLP.ligand.clash>
0.0000

> <Gold.PLP.ligand.torsion>
0.9900

> <Gold.PLP.Chemscore.Hbond>
2.0000

> <Gold.PLP.Chemscore.CHOScore>
0.9533

> <Gold.PLP.Chemscore.Metal>
0.0000

> <Gold.Chemscore.Hbonds>
donor molecule, donor type, donor heavy atom, donor atom, acceptor molecule, acceptor atom, score
      L1  H    10    30       P1  7948  0.90
      P1  H  7989  7998       L1    20  1.00
      L1  C    19    40       P1  7948  0.18
      L1  C    19    40       P1  7949  0.70
      L1  C    19    40       P1  7957  0.09

> <Gold.PLP.Chemscore.Internal.Correction>
0.1196

> <Gold.Rescore>
     Score         DG    S(hbond)    S(metal)    S(lipo)     H(rot)  DE(clash)    DE(int)     intcor
     15.05     -16.05       1.90        0.00      75.31       1.79       0.01       0.99       ----

> <Gold.Chemscore.Fitness>
15.0475

> <Gold.Chemscore.DG>
-16.0461

> <Gold.Chemscore.ZeroCoef>
-5.4800

> <Gold.Chemscore.Hbond>
1.8970

> <Gold.Chemscore.Metal>
0.0000

> <Gold.Chemscore.Lipo>
75.3087

> <Gold.Chemscore.Internal_Hbond>
0.0000

> <Gold.Chemscore.DEClash>
0.0118

> <Gold.Chemscore.DEInternal>
0.9868

> <Gold.Chemscore.Rot>
1.7895

> <Gold.Chemscore.Internal.Correction>
   9.000000E+99

> <Gold.Chemscore.Hbonds>
donor molecule, donor type, donor heavy atom, donor atom, acceptor molecule, acceptor atom, score
      L1  H    10    30       P1  7948  0.18
      P1  H  7989  7998       L1    20  0.70

> <Gold.Chemscore.Hbond.Weighted>
-6.3360

> <Gold.Chemscore.Metal.Weighted>
-0.0000

> <Gold.Chemscore.Lipo.Weighted>
-8.8111

> <Gold.Chemscore.Internal_Hbond.Weighted>
0.0000

> <Gold.Chemscore.DEClash.Weighted>
0.0118

> <Gold.Chemscore.DEInternal.Weighted>
0.9868

> <Gold.Chemscore.Rot.Weighted>
4.5810

> <Gold.Chemscore.Internal.Correction.Weighted>
   9.000000E+99

> <Gold.Protein.RotatedTorsions>
[ 6907 6896 6895 6894 ] final  -89.18 input  -60.11 | X-H torsion
[ 7974 7965 7964 7962 ] final  110.71 input  175.53 | X-H torsion
[ 8008 7997 7996 7995 ] final  -46.52 input   59.86 | X-H torsion
[ 10167 10162 10161 10158 ] final  -19.53 input  -65.29 | X-H torsion
[ 10718 10713 10712 10709 ] final -112.75 input   66.30 | X-H torsion
[ 10763 10752 10751 10750 ] final    9.38 input  -60.55 | X-H torsion
[ 11005 11000 10999 10996 ] final  174.71 input  -57.11 | X-H torsion

> <Gold.Protein.ActiveResidues>
 VAL166  LYS551  ARG553  GLY616  TRP617  ASP618  TYR619  PRO620  LYS621  CYS622 
 ASP623  PHE694  ASN695  SER759  ASP760  ASP761  ALA762  ILE779  LEU786  VAL792 
 PHE793  MET794  SER795  GLU796  ALA797  LYS798  CYS799  TRP800  GLU811  SER814 

> <Gold.Protein.RotatedAtoms>
  150.6872  134.2627  159.4555 H   0  0  0  0  0  0  0  0  0  0  0  0  # atno 6907 bound_to 6896
  152.0556  134.9624  160.0584 H   0  0  0  0  0  0  0  0  0  0  0  0  # atno 6908 bound_to 6896
  152.1071  133.4246  159.4650 H   0  0  0  0  0  0  0  0  0  0  0  0  # atno 6909 bound_to 6896
  145.2515  139.2738  143.4065 H   0  0  0  0  0  0  0  0  0  0  0  0  # atno 7974 bound_to 7965
  154.4008  140.1369  156.4025 H   0  0  0  0  0  0  0  0  0  0  0  0  # atno 8008 bound_to 7997
  155.7810  140.3481  155.5277 H   0  0  0  0  0  0  0  0  0  0  0  0  # atno 8009 bound_to 7997
  155.8673  140.0966  157.1564 H   0  0  0  0  0  0  0  0  0  0  0  0  # atno 8010 bound_to 7997
  140.7269  143.4810  151.0118 H   0  0  0  0  0  0  0  0  0  0  0  0  # atno 10167 bound_to 10162
  156.0724  130.5936  150.8550 H   0  0  0  0  0  0  0  0  0  0  0  0  # atno 10718 bound_to 10713
  153.2147  135.6873  153.8072 H   0  0  0  0  0  0  0  0  0  0  0  0  # atno 10763 bound_to 10752
  153.7292  135.3255  155.3283 H   0  0  0  0  0  0  0  0  0  0  0  0  # atno 10764 bound_to 10752
  154.8240  135.4631  154.0969 H   0  0  0  0  0  0  0  0  0  0  0  0  # atno 10765 bound_to 10752
  140.3542  134.7168  157.4288 H   0  0  0  0  0  0  0  0  0  0  0  0  # atno 11005 bound_to 11000
  146.3301  140.2907  142.8615 LP  0  0  0  0  0  0  0  0  0  0  0  0  # atno 17320 bound_to 7965
  144.9499  140.8167  143.5578 LP  0  0  0  0  0  0  0  0  0  0  0  0  # atno 17321 bound_to 7965
  139.8508  143.7441  152.3178 LP  0  0  0  0  0  0  0  0  0  0  0  0  # atno 17342 bound_to 10162
  139.7622  144.7503  151.0347 LP  0  0  0  0  0  0  0  0  0  0  0  0  # atno 17343 bound_to 10162
  157.5803  131.0946  150.9282 LP  0  0  0  0  0  0  0  0  0  0  0  0  # atno 17370 bound_to 10713
  156.9479  130.5409  149.5281 LP  0  0  0  0  0  0  0  0  0  0  0  0  # atno 17371 bound_to 10713
  140.0678  134.5905  155.8675 LP  0  0  0  0  0  0  0  0  0  0  0  0  # atno 17394 bound_to 11000
  141.2003  133.6612  156.5890 LP  0  0  0  0  0  0  0  0  0  0  0  0  # atno 17395 bound_to 11000

$$$$
