AV-unprocessed.smi:1795|AV-procd|sdf|7250|dock1
  -GOLD-   22720 8503D 1   1.00000     0.00000
 Structure written by MMmdl.
 48 49  0  0  0  0  0  0  0  0  2 V2000
  152.1261  144.4477  157.4978 C   0  0  0  0  0  0  0  0  0  0  0  0
  151.2191  144.0827  158.6866 C   0  0  1  0  0  0  0  0  0  0  0  0
  150.2713  142.9031  158.4004 C   0  0  0  0  0  0  0  0  0  0  0  0
  151.0029  141.6082  158.3559 N   0  3  2  0  0  0  0  0  0  0  0  0
  150.1204  140.4677  157.9435 C   0  0  1  0  0  0  0  0  0  0  0  0
  150.0303  140.4165  156.4015 C   0  0  0  0  0  0  0  0  0  0  0  0
  150.5563  139.0918  158.5208 C   0  0  0  0  0  0  0  0  0  0  0  0
  149.4698  138.1157  158.5400 N   0  0  0  0  0  0  0  0  0  0  0  0
  149.6093  136.7972  158.7477 C   0  0  0  0  0  0  0  0  0  0  0  0
  150.6941  136.2589  158.9712 O   0  0  0  0  0  0  0  0  0  0  0  0
  148.3212  135.9648  158.7000 C   0  0  0  0  0  0  0  0  0  0  0  0
  148.0385  135.2804  159.9724 N   0  0  0  0  0  0  0  0  0  0  0  0
  148.1900  133.8795  159.9985 C   0  0  0  0  0  0  0  0  0  0  0  0
  147.9575  133.1613  161.1084 C   0  0  0  0  0  0  0  0  0  0  0  0
  147.5423  133.8616  162.3006 C   0  0  0  0  0  0  0  0  0  0  0  0
  147.3903  135.2009  162.2855 C   0  0  0  0  0  0  0  0  0  0  0  0
  147.6392  135.9897  161.0734 C   0  0  0  0  0  0  0  0  0  0  0  0
  147.4968  137.2129  161.0482 O   0  0  0  0  0  0  0  0  0  0  0  0
  151.7627  141.4293  159.6223 C   0  0  0  0  0  0  0  0  0  0  0  0
  152.7036  142.6228  159.8729 C   0  0  2  0  0  0  0  0  0  0  0  0
  153.4279  142.5094  161.2190 C   0  0  0  0  0  0  0  0  0  0  0  0
  151.9566  143.8342  159.8808 O   0  0  0  0  0  0  0  0  0  0  0  0
  151.5310  144.7721  156.6440 H   0  0  0  0  0  0  0  0  0  0  0  0
  152.7345  143.6068  157.1657 H   0  0  0  0  0  0  0  0  0  0  0  0
  152.7985  145.2653  157.7589 H   0  0  0  0  0  0  0  0  0  0  0  0
  150.6037  144.9591  158.8924 H   0  0  0  0  0  0  0  0  0  0  0  0
  149.5133  142.8528  159.1841 H   0  0  0  0  0  0  0  0  0  0  0  0
  149.7379  143.0937  157.4706 H   0  0  0  0  0  0  0  0  0  0  0  0
  149.1214  140.6670  158.3350 H   0  0  0  0  0  0  0  0  0  0  0  0
  149.3046  139.6777  156.0630 H   0  0  0  0  0  0  0  0  0  0  0  0
  150.9939  140.1576  155.9617 H   0  0  0  0  0  0  0  0  0  0  0  0
  149.7165  141.3634  155.9661 H   0  0  0  0  0  0  0  0  0  0  0  0
  151.4169  138.7032  157.9733 H   0  0  0  0  0  0  0  0  0  0  0  0
  150.8689  139.1952  159.5598 H   0  0  0  0  0  0  0  0  0  0  0  0
  148.5388  138.4687  158.3704 H   0  0  0  0  0  0  0  0  0  0  0  0
  147.5002  136.6282  158.4257 H   0  0  0  0  0  0  0  0  0  0  0  0
  148.3798  135.2330  157.8920 H   0  0  0  0  0  0  0  0  0  0  0  0
  148.4976  133.4310  159.0652 H   0  0  0  0  0  0  0  0  0  0  0  0
  148.0746  132.0875  161.1089 H   0  0  0  0  0  0  0  0  0  0  0  0
  147.3517  133.3089  163.2087 H   0  0  0  0  0  0  0  0  0  0  0  0
  147.0787  135.7078  163.1869 H   0  0  0  0  0  0  0  0  0  0  0  0
  151.0656  141.3095  160.4535 H   0  0  0  0  0  0  0  0  0  0  0  0
  152.3827  140.5345  159.5813 H   0  0  0  0  0  0  0  0  0  0  0  0
  153.4595  142.6625  159.0884 H   0  0  0  0  0  0  0  0  0  0  0  0
  154.0340  141.6044  161.2649 H   0  0  0  0  0  0  0  0  0  0  0  0
  152.7201  142.4807  162.0480 H   0  0  0  0  0  0  0  0  0  0  0  0
  154.0912  143.3601  161.3774 H   0  0  0  0  0  0  0  0  0  0  0  0
  151.7020  141.6906  157.6314 H   0  0  0  0  0  0  0  0  0  0  0  0
  1  2  1  0  0  0  0
  1 23  1  0  0  0  0
  1 24  1  0  0  0  0
  1 25  1  0  0  0  0
  2 22  1  0  0  0  0
  2  3  1  0  0  0  0
  2 26  1  0  0  0  0
  3  4  1  0  0  0  0
  3 27  1  0  0  0  0
  3 28  1  0  0  0  0
  4  5  1  0  0  0  0
  4 19  1  0  0  0  0
  4 48  1  0  0  0  0
  5  6  1  0  0  0  0
  5  7  1  0  0  0  0
  5 29  1  0  0  0  0
  6 30  1  0  0  0  0
  6 31  1  0  0  0  0
  6 32  1  0  0  0  0
  7  8  1  0  0  0  0
  7 33  1  0  0  0  0
  7 34  1  0  0  0  0
  8  9  1  0  0  0  0
  8 35  1  0  0  0  0
  9 10  2  0  0  0  0
  9 11  1  0  0  0  0
 11 12  1  0  0  0  0
 11 36  1  0  0  0  0
 11 37  1  0  0  0  0
 12 17  1  0  0  0  0
 12 13  1  0  0  0  0
 13 14  2  0  0  0  0
 13 38  1  0  0  0  0
 14 15  1  0  0  0  0
 14 39  1  0  0  0  0
 15 16  2  0  0  0  0
 15 40  1  0  0  0  0
 16 17  1  0  0  0  0
 16 41  1  0  0  0  0
 17 18  2  0  0  0  0
 19 20  1  0  0  0  0
 19 42  1  0  0  0  0
 19 43  1  0  0  0  0
 20 21  1  0  0  0  0
 20 22  1  0  0  0  0
 20 44  1  0  0  0  0
 21 45  1  0  0  0  0
 21 46  1  0  0  0  0
 21 47  1  0  0  0  0
M  CHG  1   4   1
M  END
> <s_m_source_file>
AV-unprocessed.smi

> <i_m_source_file_index>
1795

> <i_lp_mmshare_version>
43012

> <i_f3d_flags>
0

> <s_epik_input>
W0NIM11bQ0BASF0xW0NIMl1OKFtDSDJdW0NASF0oTzEpW0NIM10pW0NASF0oW0NIM10pW0NIMl1bTkhdQyg9TylbQ0gyXW4yW2NIXVtjSF1bY0hdW2NIXWMyPU8=

> <s_epik_cmdline>
J2VwaWtfcHl0aG9uJywgJy1waCcsICc3LjAnLCAnLXRuJywgJzgnLCAnLW1hJywgJzIwMCcsICctbWV0YWxfYmluZGluZycsICctaW1hZScsICc8aW5maWxlLm1hZT4nLCAnLW9tYWUnLCAnPG91dGZpbGUubWFlPic=

> <r_lp_tautomer_probability>
1

> <r_epik_Ionization_Penalty>
0.656654

> <r_epik_Ionization_Penalty_Charging>
0.656654

> <r_epik_Ionization_Penalty_Neutral>
8.90321e-08

> <r_epik_State_Penalty>
0.675641

> <r_epik_Charging_Adjusted_Penalty>
1.33229

> <i_epik_Tot_Q>
1

> <i_epik_Tot_abs_Q>
1

> <r_epik_Metal_State_Penalty>
0.675691

> <b_epik_Metal_Only>
0

> <s_lp_Force_Field>
OPLS_2005

> <r_lp_Energy>
30.8259

> <b_lp_Chiralities_Consistent>
1

> <s_lp_Variant>
AV-unprocessed.smi:1795-14

> <Gold.Version>
5.8.1

> <Gold.Id.Protein>
6NUR|6NUR_protein|mol2

> <Gold.PLP.Fitness>
49.8992

> <Gold.PLP.PLP>
-43.7343

> <Gold.PLP.part.hbond>
-3.0000

> <Gold.PLP.part.metal>
0.0000

> <Gold.PLP.part.buried>
-6.0359

> <Gold.PLP.part.nonpolar>
-34.1090

> <Gold.PLP.part.repulsive>
0.3191

> <Gold.PLP.ligand.clash>
0.0000

> <Gold.PLP.ligand.torsion>
1.0927

> <Gold.PLP.Chemscore.Hbond>
2.7280

> <Gold.PLP.Chemscore.CHOScore>
0.0000

> <Gold.PLP.Chemscore.Metal>
0.0000

> <Gold.Chemscore.Hbonds>
donor molecule, donor type, donor heavy atom, donor atom, acceptor molecule, acceptor atom, score
      P1  H  6896  6907       L1    10  0.85
      P1  H  6931  6943       L1    18  0.83
      P1  H  6934  6947       L1    18  0.99

> <Gold.PLP.Chemscore.Internal.Correction>
0.1663

> <Gold.Rescore>
     Score         DG    S(hbond)    S(metal)    S(lipo)     H(rot)  DE(clash)    DE(int)     intcor
     21.31     -22.00       2.72        0.00     104.84       1.89       0.03       0.66       ----

> <Gold.Chemscore.Fitness>
21.3094

> <Gold.Chemscore.DG>
-21.9987

> <Gold.Chemscore.ZeroCoef>
-5.4800

> <Gold.Chemscore.Hbond>
2.7195

> <Gold.Chemscore.Metal>
0.0000

> <Gold.Chemscore.Lipo>
104.8420

> <Gold.Chemscore.Internal_Hbond>
0.0000

> <Gold.Chemscore.DEClash>
0.0272

> <Gold.Chemscore.DEInternal>
0.6621

> <Gold.Chemscore.Rot>
1.8870

> <Gold.Chemscore.Internal.Correction>
   9.000000E+99

> <Gold.Chemscore.Hbonds>
donor molecule, donor type, donor heavy atom, donor atom, acceptor molecule, acceptor atom, score
      P1  H  6896  6907       L1    10  0.82
      P1  H  6931  6943       L1    18  0.71
      P1  H  6934  6947       L1    18  0.93

> <Gold.Chemscore.Hbond.Weighted>
-9.0830

> <Gold.Chemscore.Metal.Weighted>
-0.0000

> <Gold.Chemscore.Lipo.Weighted>
-12.2665

> <Gold.Chemscore.Internal_Hbond.Weighted>
0.0000

> <Gold.Chemscore.DEClash.Weighted>
0.0272

> <Gold.Chemscore.DEInternal.Weighted>
0.6621

> <Gold.Chemscore.Rot.Weighted>
4.8308

> <Gold.Chemscore.Internal.Correction.Weighted>
   9.000000E+99

> <Gold.Protein.RotatedTorsions>
[ 6907 6896 6895 6894 ] final  -51.79 input  -60.11 | X-H torsion
[ 7974 7965 7964 7962 ] final  -31.26 input  175.53 | X-H torsion
[ 8008 7997 7996 7995 ] final  156.05 input   59.86 | X-H torsion
[ 10167 10162 10161 10158 ] final   68.61 input  -65.29 | X-H torsion
[ 10718 10713 10712 10709 ] final  134.32 input   66.30 | X-H torsion
[ 10763 10752 10751 10750 ] final  -31.27 input  -60.55 | X-H torsion
[ 11005 11000 10999 10996 ] final   20.04 input  -57.11 | X-H torsion

> <Gold.Protein.ActiveResidues>
 VAL166  LYS551  ARG553  GLY616  TRP617  ASP618  TYR619  PRO620  LYS621  CYS622 
 ASP623  PHE694  ASN695  SER759  ASP760  ASP761  ALA762  ILE779  LEU786  VAL792 
 PHE793  MET794  SER795  GLU796  ALA797  LYS798  CYS799  TRP800  GLU811  SER814 

> <Gold.Protein.RotatedAtoms>
  150.8578  134.7922  159.7059 H   0  0  0  0  0  0  0  0  0  0  0  0  # atno 6907 bound_to 6896
  152.4624  134.5149  159.9775 H   0  0  0  0  0  0  0  0  0  0  0  0  # atno 6908 bound_to 6896
  151.5258  133.3420  159.2945 H   0  0  0  0  0  0  0  0  0  0  0  0  # atno 6909 bound_to 6896
  146.1081  140.5645  142.8790 H   0  0  0  0  0  0  0  0  0  0  0  0  # atno 7974 bound_to 7965
  156.2444  140.1923  156.6895 H   0  0  0  0  0  0  0  0  0  0  0  0  # atno 8008 bound_to 7997
  154.6262  140.0602  156.9702 H   0  0  0  0  0  0  0  0  0  0  0  0  # atno 8009 bound_to 7997
  155.1783  140.3274  155.4382 H   0  0  0  0  0  0  0  0  0  0  0  0  # atno 8010 bound_to 7997
  140.0768  144.5106  150.7189 H   0  0  0  0  0  0  0  0  0  0  0  0  # atno 10167 bound_to 10162
  157.4685  131.1078  150.9833 H   0  0  0  0  0  0  0  0  0  0  0  0  # atno 10718 bound_to 10713
  153.7946  135.6895  153.4866 H   0  0  0  0  0  0  0  0  0  0  0  0  # atno 10763 bound_to 10752
  153.1727  135.4536  154.9923 H   0  0  0  0  0  0  0  0  0  0  0  0  # atno 10764 bound_to 10752
  154.8031  135.3345  154.7439 H   0  0  0  0  0  0  0  0  0  0  0  0  # atno 10765 bound_to 10752
  140.4070  134.1658  155.7665 H   0  0  0  0  0  0  0  0  0  0  0  0  # atno 11005 bound_to 11000
  144.7488  140.5136  143.6817 LP  0  0  0  0  0  0  0  0  0  0  0  0  # atno 17320 bound_to 7965
  145.5720  139.1484  143.3283 LP  0  0  0  0  0  0  0  0  0  0  0  0  # atno 17321 bound_to 7965
  140.7098  143.2496  151.4616 LP  0  0  0  0  0  0  0  0  0  0  0  0  # atno 17342 bound_to 10162
  139.5803  144.1724  152.1959 LP  0  0  0  0  0  0  0  0  0  0  0  0  # atno 17343 bound_to 10162
  157.0606  130.5824  149.5385 LP  0  0  0  0  0  0  0  0  0  0  0  0  # atno 17370 bound_to 10713
  156.0062  130.5148  150.7836 LP  0  0  0  0  0  0  0  0  0  0  0  0  # atno 17371 bound_to 10713
  141.1835  133.8362  157.1171 LP  0  0  0  0  0  0  0  0  0  0  0  0  # atno 17394 bound_to 11000
  140.0295  134.9908  157.0752 LP  0  0  0  0  0  0  0  0  0  0  0  0  # atno 17395 bound_to 11000

$$$$
