AV-unprocessed.smi:155|AV-procd|sdf|1282|dock2
  -GOLD-   2262018553D 1   1.00000     0.00000
 Structure written by MMmdl.
 64 67  0  0  0  0  0  0  0  0  3 V2000
  145.8136  131.9459  149.4810 C   0  0  0  0  0  0  0  0  0  0  0  0
  146.1999  131.8118  150.9055 N   0  3  0  0  0  0  0  0  0  0  0  0
  145.6678  130.5604  151.4908 C   0  0  0  0  0  0  0  0  0  0  0  0
  145.8562  133.0031  151.7251 C   0  0  0  0  0  0  0  0  0  0  0  0
  146.6020  134.2762  151.2694 C   0  0  0  0  0  0  0  0  0  0  0  0
  146.4695  135.4035  152.2312 N   0  3  1  0  0  0  0  0  0  0  0  0
  145.4783  136.4323  151.7985 C   0  0  0  0  0  0  0  0  0  0  0  0
  145.0720  137.4306  152.9023 C   0  0  0  0  0  0  0  0  0  0  0  0
  146.2573  138.1432  153.5739 C   0  0  0  0  0  0  0  0  0  0  0  0
  147.2471  137.2237  154.1385 N   0  0  0  0  0  0  0  0  0  0  0  0
  148.3372  137.8274  154.6725 C   0  0  0  0  0  0  0  0  0  0  0  0
  149.3419  137.0256  155.1100 N   0  0  0  0  0  0  0  0  0  0  0  0
  150.4429  137.5574  155.6496 C   0  0  0  0  0  0  0  0  0  0  0  0
  150.7408  138.8438  155.8403 N   0  0  0  0  0  0  0  0  0  0  0  0
  149.7394  139.6546  155.3945 C   0  0  0  0  0  0  0  0  0  0  0  0
  148.5133  139.2364  154.8028 C   0  0  0  0  0  0  0  0  0  0  0  0
  147.7525  140.3509  154.4649 N   0  0  0  0  0  0  0  0  0  0  0  0
  148.4814  141.3657  154.8425 C   0  0  0  0  0  0  0  0  0  0  0  0
  149.6918  141.0365  155.4076 N   0  0  0  0  0  0  0  0  0  0  0  0
  150.6990  141.9556  155.9066 C   0  0  0  0  0  0  0  0  0  0  0  0
  150.7750  141.9581  157.4481 C   0  0  1  0  0  0  0  0  0  0  0  0
  151.0273  140.6547  157.9355 O   0  0  0  0  0  0  0  0  0  0  0  0
  151.8277  142.9235  158.0307 C   0  0  2  0  0  0  0  0  0  0  0  0
  151.9641  142.8533  159.5530 C   0  0  0  0  0  0  0  0  0  0  0  0
  152.5488  144.2107  159.8693 C   0  0  0  0  0  0  0  0  0  0  0  0
  151.8014  145.1055  158.8856 C   0  0  0  0  0  0  0  0  0  0  0  0
  151.5068  144.2869  157.7566 O   0  0  0  0  0  0  0  0  0  0  0  0
  146.8390  135.9276  154.6880 C   0  0  0  0  0  0  0  0  0  0  0  0
  146.2756  134.9406  153.6343 C   0  0  0  0  0  0  0  0  0  0  0  0
  144.7344  132.0678  149.3779 H   0  0  0  0  0  0  0  0  0  0  0  0
  146.1075  131.0582  148.9196 H   0  0  0  0  0  0  0  0  0  0  0  0
  146.3000  132.7982  149.0083 H   0  0  0  0  0  0  0  0  0  0  0  0
  144.5774  130.5789  151.5275 H   0  0  0  0  0  0  0  0  0  0  0  0
  146.0428  130.4145  152.5046 H   0  0  0  0  0  0  0  0  0  0  0  0
  145.9747  129.6957  150.9009 H   0  0  0  0  0  0  0  0  0  0  0  0
  144.7762  133.1591  151.7103 H   0  0  0  0  0  0  0  0  0  0  0  0
  146.1246  132.7933  152.7608 H   0  0  0  0  0  0  0  0  0  0  0  0
  147.6576  134.0606  151.0977 H   0  0  0  0  0  0  0  0  0  0  0  0
  146.1919  134.5989  150.3135 H   0  0  0  0  0  0  0  0  0  0  0  0
  145.8940  136.9896  150.9590 H   0  0  0  0  0  0  0  0  0  0  0  0
  144.5781  135.9360  151.4328 H   0  0  0  0  0  0  0  0  0  0  0  0
  144.4173  138.1849  152.4648 H   0  0  0  0  0  0  0  0  0  0  0  0
  144.4604  136.9372  153.6583 H   0  0  0  0  0  0  0  0  0  0  0  0
  146.7379  138.7861  152.8353 H   0  0  0  0  0  0  0  0  0  0  0  0
  145.8903  138.7984  154.3652 H   0  0  0  0  0  0  0  0  0  0  0  0
  151.1936  136.8514  155.9737 H   0  0  0  0  0  0  0  0  0  0  0  0
  148.1578  142.3885  154.7124 H   0  0  0  0  0  0  0  0  0  0  0  0
  151.6616  141.6796  155.4742 H   0  0  0  0  0  0  0  0  0  0  0  0
  150.4635  142.9515  155.5308 H   0  0  0  0  0  0  0  0  0  0  0  0
  149.8012  142.2416  157.8497 H   0  0  0  0  0  0  0  0  0  0  0  0
  151.9506  140.5792  158.1220 H   0  0  0  0  0  0  0  0  0  0  0  0
  152.8090  142.7165  157.5991 H   0  0  0  0  0  0  0  0  0  0  0  0
  150.9901  142.7500  160.0326 H   0  0  0  0  0  0  0  0  0  0  0  0
  152.5953  142.0283  159.8847 H   0  0  0  0  0  0  0  0  0  0  0  0
  152.4103  144.5086  160.9090 H   0  0  0  0  0  0  0  0  0  0  0  0
  153.6175  144.2182  159.6494 H   0  0  0  0  0  0  0  0  0  0  0  0
  150.8599  145.4455  159.3189 H   0  0  0  0  0  0  0  0  0  0  0  0
  152.3804  145.9843  158.6010 H   0  0  0  0  0  0  0  0  0  0  0  0
  147.7025  135.4514  155.1546 H   0  0  0  0  0  0  0  0  0  0  0  0
  146.1095  136.0843  155.4835 H   0  0  0  0  0  0  0  0  0  0  0  0
  145.2177  134.7421  153.8126 H   0  0  0  0  0  0  0  0  0  0  0  0
  146.7741  133.9834  153.7905 H   0  0  0  0  0  0  0  0  0  0  0  0
  147.2058  131.7211  150.9295 H   0  0  0  0  0  0  0  0  0  0  0  0
  147.3678  135.8661  152.2403 H   0  0  0  0  0  0  0  0  0  0  0  0
  1  2  1  0  0  0  0
  1 30  1  0  0  0  0
  1 31  1  0  0  0  0
  1 32  1  0  0  0  0
  2  3  1  0  0  0  0
  2  4  1  0  0  0  0
  2 63  1  0  0  0  0
  3 33  1  0  0  0  0
  3 34  1  0  0  0  0
  3 35  1  0  0  0  0
  4  5  1  0  0  0  0
  4 36  1  0  0  0  0
  4 37  1  0  0  0  0
  5  6  1  0  0  0  0
  5 38  1  0  0  0  0
  5 39  1  0  0  0  0
  6 29  1  0  0  0  0
  6  7  1  0  0  0  0
  6 64  1  0  0  0  0
  7  8  1  0  0  0  0
  7 40  1  0  0  0  0
  7 41  1  0  0  0  0
  8  9  1  0  0  0  0
  8 42  1  0  0  0  0
  8 43  1  0  0  0  0
  9 10  1  0  0  0  0
  9 44  1  0  0  0  0
  9 45  1  0  0  0  0
 10 11  1  0  0  0  0
 10 28  1  0  0  0  0
 11 16  1  0  0  0  0
 11 12  2  0  0  0  0
 12 13  1  0  0  0  0
 13 14  2  0  0  0  0
 13 46  1  0  0  0  0
 14 15  1  0  0  0  0
 15 19  1  0  0  0  0
 15 16  2  0  0  0  0
 16 17  1  0  0  0  0
 17 18  2  0  0  0  0
 18 19  1  0  0  0  0
 18 47  1  0  0  0  0
 19 20  1  0  0  0  0
 20 21  1  0  0  0  0
 20 48  1  0  0  0  0
 20 49  1  0  0  0  0
 21 22  1  0  0  0  0
 21 23  1  0  0  0  0
 21 50  1  0  0  0  0
 22 51  1  0  0  0  0
 23 27  1  0  0  0  0
 23 24  1  0  0  0  0
 23 52  1  0  0  0  0
 24 25  1  0  0  0  0
 24 53  1  0  0  0  0
 24 54  1  0  0  0  0
 25 26  1  0  0  0  0
 25 55  1  0  0  0  0
 25 56  1  0  0  0  0
 26 27  1  0  0  0  0
 26 57  1  0  0  0  0
 26 58  1  0  0  0  0
 28 29  1  0  0  0  0
 28 59  1  0  0  0  0
 28 60  1  0  0  0  0
 29 61  1  0  0  0  0
 29 62  1  0  0  0  0
M  CHG  1   2   1
M  CHG  1   6   1
M  END
> <s_m_source_file>
AV-unprocessed.smi

> <i_m_source_file_index>
155

> <i_lp_mmshare_version>
43012

> <i_f3d_flags>
0

> <s_epik_input>
W0NIM11OKFtDSDNdKVtDSDJdW0NIMl1OMVtDSDJdW0NIMl1bQ0gyXU4oW0NIMl1bQ0gyXTEpYyhuW2NIXW4yKWMoYzIzKW5bY0hdbjNbQ0gyXVtDQEhdKFtPSF0pW0NAQEhdNFtDSDJdW0NIMl1bQ0gyXU80

> <s_epik_cmdline>
J2VwaWtfcHl0aG9uJywgJy1waCcsICc3LjAnLCAnLXRuJywgJzgnLCAnLW1hJywgJzIwMCcsICctbWV0YWxfYmluZGluZycsICctaW1hZScsICc8aW5maWxlLm1hZT4nLCAnLW9tYWUnLCAnPG91dGZpbGUubWFlPic=

> <r_lp_tautomer_probability>
1

> <r_epik_Ionization_Penalty>
3.0333

> <r_epik_Ionization_Penalty_Charging>
3.03317

> <r_epik_Ionization_Penalty_Neutral>
0.000131872

> <r_epik_State_Penalty>
1.99939

> <r_epik_Charging_Adjusted_Penalty>
5.03256

> <i_epik_Tot_Q>
2

> <i_epik_Tot_abs_Q>
2

> <r_epik_Metal_State_Penalty>
2.00021

> <b_epik_Metal_Only>
0

> <s_lp_Force_Field>
OPLS_2005

> <r_lp_Energy>
68.073

> <b_lp_Chiralities_Consistent>
1

> <s_lp_Variant>
AV-unprocessed.smi:155-16

> <Gold.Version>
5.8.1

> <Gold.Id.Protein>
6NUR|6NUR_protein|mol2

> <Gold.PLP.Fitness>
54.1359

> <Gold.PLP.PLP>
-43.7958

> <Gold.PLP.part.hbond>
-2.0000

> <Gold.PLP.part.metal>
0.0000

> <Gold.PLP.part.buried>
-6.5193

> <Gold.PLP.part.nonpolar>
-35.5551

> <Gold.PLP.part.repulsive>
0.4414

> <Gold.PLP.ligand.clash>
0.0000

> <Gold.PLP.ligand.torsion>
0.9805

> <Gold.PLP.Chemscore.Hbond>
2.9913

> <Gold.PLP.Chemscore.CHOScore>
0.8222

> <Gold.PLP.Chemscore.Metal>
0.0000

> <Gold.Chemscore.Hbonds>
donor molecule, donor type, donor heavy atom, donor atom, acceptor molecule, acceptor atom, score
      L1  H     2    63       P1 10747  0.89
      L1  H     6    64       P1  7948  2.00
      L1  C    18    47       P1  8028  0.84

> <Gold.PLP.Chemscore.Internal.Correction>
0.8606

> <Gold.Rescore>
     Score         DG    S(hbond)    S(metal)    S(lipo)     H(rot)  DE(clash)    DE(int)     intcor
     15.59     -18.55       1.92        0.00     117.03       2.75       0.39       2.57       ----

> <Gold.Chemscore.Fitness>
15.5861

> <Gold.Chemscore.DG>
-18.5453

> <Gold.Chemscore.ZeroCoef>
-5.4800

> <Gold.Chemscore.Hbond>
1.9197

> <Gold.Chemscore.Metal>
0.0000

> <Gold.Chemscore.Lipo>
117.0252

> <Gold.Chemscore.Internal_Hbond>
0.0000

> <Gold.Chemscore.DEClash>
0.3853

> <Gold.Chemscore.DEInternal>
2.5739

> <Gold.Chemscore.Rot>
2.7493

> <Gold.Chemscore.Internal.Correction>
   9.000000E+99

> <Gold.Chemscore.Hbonds>
donor molecule, donor type, donor heavy atom, donor atom, acceptor molecule, acceptor atom, score
      L1  H     2    63       P1 10747  0.82
      L1  H     6    64       P1  7948  0.99

> <Gold.Chemscore.Hbond.Weighted>
-6.4116

> <Gold.Chemscore.Metal.Weighted>
-0.0000

> <Gold.Chemscore.Lipo.Weighted>
-13.6920

> <Gold.Chemscore.Internal_Hbond.Weighted>
0.0000

> <Gold.Chemscore.DEClash.Weighted>
0.3853

> <Gold.Chemscore.DEInternal.Weighted>
2.5739

> <Gold.Chemscore.Rot.Weighted>
7.0383

> <Gold.Chemscore.Internal.Correction.Weighted>
   9.000000E+99

> <Gold.Protein.RotatedTorsions>
[ 6907 6896 6895 6894 ] final -176.50 input  -60.11 | X-H torsion
[ 7974 7965 7964 7962 ] final   96.83 input  175.53 | X-H torsion
[ 8008 7997 7996 7995 ] final -128.25 input   59.86 | X-H torsion
[ 10167 10162 10161 10158 ] final  171.92 input  -65.29 | X-H torsion
[ 10718 10713 10712 10709 ] final  143.11 input   66.30 | X-H torsion
[ 10763 10752 10751 10750 ] final  101.81 input  -60.55 | X-H torsion
[ 11005 11000 10999 10996 ] final  102.65 input  -57.11 | X-H torsion

> <Gold.Protein.ActiveResidues>
 VAL166  LYS551  ARG553  GLY616  TRP617  ASP618  TYR619  PRO620  LYS621  CYS622 
 ASP623  PHE694  ASN695  SER759  ASP760  ASP761  ALA762  ILE779  LEU786  VAL792 
 PHE793  MET794  SER795  GLU796  ALA797  LYS798  CYS799  TRP800  GLU811  SER814 

> <Gold.Protein.RotatedAtoms>
  151.6058  133.3352  159.3056 H   0  0  0  0  0  0  0  0  0  0  0  0  # atno 6907 bound_to 6896
  150.8183  134.7380  159.6761 H   0  0  0  0  0  0  0  0  0  0  0  0  # atno 6908 bound_to 6896
  152.4278  134.5841  160.0007 H   0  0  0  0  0  0  0  0  0  0  0  0  # atno 6909 bound_to 6896
  145.4336  139.2308  143.3131 H   0  0  0  0  0  0  0  0  0  0  0  0  # atno 7974 bound_to 7965
  155.2595  140.0435  157.2996 H   0  0  0  0  0  0  0  0  0  0  0  0  # atno 8008 bound_to 7997
  154.5719  140.2376  155.8148 H   0  0  0  0  0  0  0  0  0  0  0  0  # atno 8009 bound_to 7997
  156.2129  140.2993  155.9781 H   0  0  0  0  0  0  0  0  0  0  0  0  # atno 8010 bound_to 7997
  139.5061  144.3431  151.9998 H   0  0  0  0  0  0  0  0  0  0  0  0  # atno 10167 bound_to 10162
  157.3728  131.0981  151.0812 H   0  0  0  0  0  0  0  0  0  0  0  0  # atno 10718 bound_to 10713
  153.3315  135.4032  155.1499 H   0  0  0  0  0  0  0  0  0  0  0  0  # atno 10763 bound_to 10752
  154.8624  135.3611  154.5464 H   0  0  0  0  0  0  0  0  0  0  0  0  # atno 10764 bound_to 10752
  153.5903  135.7074  153.5485 H   0  0  0  0  0  0  0  0  0  0  0  0  # atno 10765 bound_to 10752
  139.8779  134.9232  156.5090 H   0  0  0  0  0  0  0  0  0  0  0  0  # atno 11005 bound_to 11000
  146.2594  140.5075  142.8860 LP  0  0  0  0  0  0  0  0  0  0  0  0  # atno 17320 bound_to 7965
  144.8167  140.6480  143.6380 LP  0  0  0  0  0  0  0  0  0  0  0  0  # atno 17321 bound_to 7965
  140.2869  144.3797  150.6101 LP  0  0  0  0  0  0  0  0  0  0  0  0  # atno 17342 bound_to 10162
  140.5976  143.2167  151.7134 LP  0  0  0  0  0  0  0  0  0  0  0  0  # atno 17343 bound_to 10162
  157.1910  130.6352  149.5704 LP  0  0  0  0  0  0  0  0  0  0  0  0  # atno 17370 bound_to 10713
  155.9759  130.4722  150.6491 LP  0  0  0  0  0  0  0  0  0  0  0  0  # atno 17371 bound_to 10713
  140.8534  133.8115  155.9191 LP  0  0  0  0  0  0  0  0  0  0  0  0  # atno 17394 bound_to 11000
  140.9122  134.2247  157.4979 LP  0  0  0  0  0  0  0  0  0  0  0  0  # atno 17395 bound_to 11000

$$$$
