AV-unprocessed.smi:49|AV-procd|sdf|471|dock3
  -GOLD-   2262016333D 1   1.00000     0.00000
 Structure written by MMmdl.
 27 28  0  0  0  0  0  0  0  0  1 V2000
  151.3667  144.1776  159.4528 C   0  0  0  0  0  0  0  0  0  0  0  0
  151.4150  144.3863  157.9353 C   0  0  0  0  0  0  0  0  0  0  0  0
  151.3567  143.1009  157.1773 C   0  0  0  0  0  0  0  0  0  0  0  0
  152.1399  142.0492  157.3915 N   0  0  0  0  0  0  0  0  0  0  0  0
  151.6384  141.1779  156.4645 C   0  0  0  0  0  0  0  0  0  0  0  0
  152.2255  139.8150  156.2542 C   0  0  2  0  0  0  0  0  0  0  0  0
  152.7715  139.6346  154.8243 C   0  0  0  0  0  0  0  0  0  0  0  0
  151.8691  138.5686  154.2089 C   0  0  1  0  0  0  0  0  0  0  0  0
  152.5243  137.7913  153.2295 O   0  0  0  0  0  0  0  0  0  0  0  0
  151.4566  137.7463  155.4226 C   0  0  0  0  0  0  0  0  0  0  0  0
  151.2609  138.7307  156.4765 N   0  0  0  0  0  0  0  0  0  0  0  0
  150.6388  141.6416  155.7120 N   0  0  0  0  0  0  0  0  0  0  0  0
  150.4682  142.8859  156.2052 N   0  0  0  0  0  0  0  0  0  0  0  0
  153.0560  139.6968  156.9514 H   0  0  0  0  0  0  0  0  0  0  0  0
  150.9893  139.0401  153.7680 H   0  0  0  0  0  0  0  0  0  0  0  0
  149.7679  143.5257  155.8587 H   0  0  0  0  0  0  0  0  0  0  0  0
  151.4110  145.1320  159.9776 H   0  0  0  0  0  0  0  0  0  0  0  0
  152.2060  143.5705  159.7937 H   0  0  0  0  0  0  0  0  0  0  0  0
  150.4463  143.6751  159.7511 H   0  0  0  0  0  0  0  0  0  0  0  0
  150.5876  145.0234  157.6208 H   0  0  0  0  0  0  0  0  0  0  0  0
  152.3319  144.9107  157.6631 H   0  0  0  0  0  0  0  0  0  0  0  0
  152.7856  140.5558  154.2401 H   0  0  0  0  0  0  0  0  0  0  0  0
  153.7981  139.2695  154.8811 H   0  0  0  0  0  0  0  0  0  0  0  0
  151.8840  137.5074  152.5950 H   0  0  0  0  0  0  0  0  0  0  0  0
  150.5591  137.1531  155.2456 H   0  0  0  0  0  0  0  0  0  0  0  0
  152.2608  137.0640  155.7024 H   0  0  0  0  0  0  0  0  0  0  0  0
  151.4389  138.2898  157.3729 H   0  0  0  0  0  0  0  0  0  0  0  0
  1  2  1  0  0  0  0
  1 17  1  0  0  0  0
  1 18  1  0  0  0  0
  1 19  1  0  0  0  0
  2  3  1  0  0  0  0
  2 20  1  0  0  0  0
  2 21  1  0  0  0  0
  3 13  1  0  0  0  0
  3  4  2  0  0  0  0
  4  5  1  0  0  0  0
  5  6  1  0  0  0  0
  5 12  2  0  0  0  0
  6 14  1  0  0  0  0
  6 11  1  0  0  0  0
  6  7  1  0  0  0  0
  7  8  1  0  0  0  0
  7 22  1  0  0  0  0
  7 23  1  0  0  0  0
  8 15  1  0  0  0  0
  8  9  1  0  0  0  0
  8 10  1  0  0  0  0
  9 24  1  0  0  0  0
 10 11  1  0  0  0  0
 10 25  1  0  0  0  0
 10 26  1  0  0  0  0
 11 27  1  0  0  0  0
 12 13  1  0  0  0  0
 13 16  1  0  0  0  0
M  END
> <s_m_source_file>
AV-unprocessed.smi

> <i_m_source_file_index>
49

> <i_lp_mmshare_version>
43012

> <i_f3d_flags>
0

> <s_epik_input>
W0NIM11bQ0gyXWMxbmMobltuSF0xKVtDQEBIXTJbQ0gyXVtDQEBIXShbT0hdKVtDSDJdW05IXTI=

> <s_epik_cmdline>
J2VwaWtfcHl0aG9uJywgJy1waCcsICc3LjAnLCAnLXRuJywgJzgnLCAnLW1hJywgJzIwMCcsICctbWV0YWxfYmluZGluZycsICctaW1hZScsICc8aW5maWxlLm1hZT4nLCAnLW9tYWUnLCAnPG91dGZpbGUubWFlPic=

> <r_lp_tautomer_probability>
0.948284

> <r_epik_Ionization_Penalty>
1.6657

> <r_epik_Ionization_Penalty_Charging>
0

> <r_epik_Ionization_Penalty_Neutral>
1.6657

> <r_epik_State_Penalty>
2.01417

> <r_epik_Charging_Adjusted_Penalty>
2.01417

> <i_epik_Tot_Q>
0

> <i_epik_Tot_abs_Q>
0

> <r_epik_Metal_State_Penalty>
2.28256

> <b_epik_Metal_Only>
0

> <s_lp_Force_Field>
OPLS_2005

> <r_lp_Energy>
18.5163

> <b_lp_Chiralities_Consistent>
1

> <s_lp_Variant>
AV-unprocessed.smi:49-9

> <Gold.Version>
5.8.1

> <Gold.Id.Protein>
6NUR|6NUR_protein|mol2

> <Gold.PLP.Fitness>
33.2078

> <Gold.PLP.PLP>
-24.4047

> <Gold.PLP.part.hbond>
-3.0000

> <Gold.PLP.part.metal>
0.0000

> <Gold.PLP.part.buried>
-3.4330

> <Gold.PLP.part.nonpolar>
-18.2144

> <Gold.PLP.part.repulsive>
0.1781

> <Gold.PLP.ligand.clash>
0.0000

> <Gold.PLP.ligand.torsion>
0.0695

> <Gold.PLP.Chemscore.Hbond>
2.9760

> <Gold.PLP.Chemscore.CHOScore>
0.0000

> <Gold.PLP.Chemscore.Metal>
0.0000

> <Gold.Chemscore.Hbonds>
donor molecule, donor type, donor heavy atom, donor atom, acceptor molecule, acceptor atom, score
      L1  H     9    24       P1  7949  0.94
      L1  H    13    16       P1  8028  0.91
      P1  H 10752 10764       L1     9  0.22

> <Gold.PLP.Chemscore.Internal.Correction>
0.0142

> <Gold.Rescore>
     Score         DG    S(hbond)    S(metal)    S(lipo)     H(rot)  DE(clash)    DE(int)     intcor
     15.43     -15.46       2.76        0.00      47.09       1.86       0.00       0.03       ----

> <Gold.Chemscore.Fitness>
15.4261

> <Gold.Chemscore.DG>
-15.4589

> <Gold.Chemscore.ZeroCoef>
-5.4800

> <Gold.Chemscore.Hbond>
2.7607

> <Gold.Chemscore.Metal>
0.0000

> <Gold.Chemscore.Lipo>
47.0852

> <Gold.Chemscore.Internal_Hbond>
0.0000

> <Gold.Chemscore.DEClash>
0.0048

> <Gold.Chemscore.DEInternal>
0.0280

> <Gold.Chemscore.Rot>
1.8558

> <Gold.Chemscore.Internal.Correction>
   9.000000E+99

> <Gold.Chemscore.Hbonds>
donor molecule, donor type, donor heavy atom, donor atom, acceptor molecule, acceptor atom, score
      L1  H     9    24       P1  7949  0.87
      L1  H    13    16       P1  8028  0.87
      P1  H 10752 10764       L1     9  0.03

> <Gold.Chemscore.Hbond.Weighted>
-9.2207

> <Gold.Chemscore.Metal.Weighted>
-0.0000

> <Gold.Chemscore.Lipo.Weighted>
-5.5090

> <Gold.Chemscore.Internal_Hbond.Weighted>
0.0000

> <Gold.Chemscore.DEClash.Weighted>
0.0048

> <Gold.Chemscore.DEInternal.Weighted>
0.0280

> <Gold.Chemscore.Rot.Weighted>
4.7507

> <Gold.Chemscore.Internal.Correction.Weighted>
   9.000000E+99

> <Gold.Protein.RotatedTorsions>
[ 6907 6896 6895 6894 ] final  128.65 input  -60.11 | X-H torsion
[ 7974 7965 7964 7962 ] final   55.44 input  175.53 | X-H torsion
[ 8008 7997 7996 7995 ] final   23.08 input   59.86 | X-H torsion
[ 10167 10162 10161 10158 ] final   44.97 input  -65.29 | X-H torsion
[ 10718 10713 10712 10709 ] final  -21.78 input   66.30 | X-H torsion
[ 10763 10752 10751 10750 ] final  -90.91 input  -60.55 | X-H torsion
[ 11005 11000 10999 10996 ] final  103.93 input  -57.11 | X-H torsion

> <Gold.Protein.ActiveResidues>
 VAL166  LYS551  ARG553  GLY616  TRP617  ASP618  TYR619  PRO620  LYS621  CYS622 
 ASP623  PHE694  ASN695  SER759  ASP760  ASP761  ALA762  ILE779  LEU786  VAL792 
 PHE793  MET794  SER795  GLU796  ALA797  LYS798  CYS799  TRP800  GLU811  SER814 

> <Gold.Protein.RotatedAtoms>
  152.3699  133.6405  159.6078 H   0  0  0  0  0  0  0  0  0  0  0  0  # atno 6907 bound_to 6896
  150.7661  133.9288  159.3429 H   0  0  0  0  0  0  0  0  0  0  0  0  # atno 6908 bound_to 6896
  151.7112  135.0913  160.0319 H   0  0  0  0  0  0  0  0  0  0  0  0  # atno 6909 bound_to 6896
  145.9504  139.3967  143.0309 H   0  0  0  0  0  0  0  0  0  0  0  0  # atno 7974 bound_to 7965
  154.9755  140.3095  155.4969 H   0  0  0  0  0  0  0  0  0  0  0  0  # atno 8008 bound_to 7997
  156.2960  140.2276  156.4790 H   0  0  0  0  0  0  0  0  0  0  0  0  # atno 8009 bound_to 7997
  154.7837  140.0444  157.1135 H   0  0  0  0  0  0  0  0  0  0  0  0  # atno 8010 bound_to 7997
  140.3289  144.2613  150.6171 H   0  0  0  0  0  0  0  0  0  0  0  0  # atno 10167 bound_to 10162
  156.5135  130.4615  149.6635 H   0  0  0  0  0  0  0  0  0  0  0  0  # atno 10718 bound_to 10713
  154.6707  135.5287  153.8134 H   0  0  0  0  0  0  0  0  0  0  0  0  # atno 10763 bound_to 10752
  153.0499  135.6528  154.0730 H   0  0  0  0  0  0  0  0  0  0  0  0  # atno 10764 bound_to 10752
  154.0629  135.2960  155.3301 H   0  0  0  0  0  0  0  0  0  0  0  0  # atno 10765 bound_to 10752
  139.8787  134.9282  156.5285 H   0  0  0  0  0  0  0  0  0  0  0  0  # atno 11005 bound_to 11000
  145.8179  140.9694  143.0914 LP  0  0  0  0  0  0  0  0  0  0  0  0  # atno 17320 bound_to 7965
  144.6795  140.0004  143.7484 LP  0  0  0  0  0  0  0  0  0  0  0  0  # atno 17321 bound_to 7965
  140.5415  143.2222  151.8076 LP  0  0  0  0  0  0  0  0  0  0  0  0  # atno 17342 bound_to 10162
  139.4860  144.4594  151.9559 LP  0  0  0  0  0  0  0  0  0  0  0  0  # atno 17343 bound_to 10162
  156.3217  130.7284  151.2197 LP  0  0  0  0  0  0  0  0  0  0  0  0  # atno 17370 bound_to 10713
  157.7447  131.0454  150.4840 LP  0  0  0  0  0  0  0  0  0  0  0  0  # atno 17371 bound_to 10713
  140.8398  133.8214  155.9064 LP  0  0  0  0  0  0  0  0  0  0  0  0  # atno 17394 bound_to 11000
  140.9248  134.2096  157.4903 LP  0  0  0  0  0  0  0  0  0  0  0  0  # atno 17395 bound_to 11000

$$$$
