AV-unprocessed.smi:2017|AV-procd|sdf|8168|dock7
  -GOLD-   2272010413D 1   1.00000     0.00000
 Structure written by MMmdl.
 44 45  0  0  0  0  0  0  0  0  2 V2000
  156.5411  136.1175  156.6226 O   0  0  0  0  0  0  0  0  0  0  0  0
  157.1958  137.1603  156.5790 C   0  0  0  0  0  0  0  0  0  0  0  0
  157.8361  137.6302  155.2657 C   0  0  0  0  0  0  0  0  0  0  0  0
  157.1000  137.1788  154.0737 N   0  0  0  0  0  0  0  0  0  0  0  0
  157.7845  136.3709  153.1487 C   0  0  0  0  0  0  0  0  0  0  0  0
  157.1898  135.9086  152.0324 C   0  0  0  0  0  0  0  0  0  0  0  0
  155.7972  136.2666  151.7937 C   0  0  0  0  0  0  0  0  0  0  0  0
  155.2395  135.8582  150.7769 O   0  0  0  0  0  0  0  0  0  0  0  0
  155.1745  137.0485  152.7235 N   0  5  0  0  0  0  0  0  0  0  0  0
  155.7914  137.5091  153.8558 C   0  0  0  0  0  0  0  0  0  0  0  0
  155.2096  138.2113  154.6837 O   0  0  0  0  0  0  0  0  0  0  0  0
  157.4203  137.9311  157.6538 N   0  0  0  0  0  0  0  0  0  0  0  0
  156.9149  137.6657  158.9955 C   0  0  0  0  0  0  0  0  0  0  0  0
  157.1162  138.8739  159.9259 C   0  0  0  0  0  0  0  0  0  0  0  0
  156.1358  140.0160  159.6347 C   0  0  0  0  0  0  0  0  0  0  0  0
  155.0887  139.9889  160.5947 O   0  0  0  0  0  0  0  0  0  0  0  0
  154.6766  141.2691  161.0558 C   0  0  0  0  0  0  0  0  0  0  0  0
  154.1369  141.1895  162.4998 C   0  0  0  0  0  0  0  0  0  0  0  0
  153.5638  142.5407  162.9587 C   0  0  0  0  0  0  0  0  0  0  0  0
  152.4800  143.0461  161.9934 C   0  0  0  0  0  0  0  0  0  0  0  0
  153.0117  143.1238  160.5538 C   0  0  0  0  0  0  0  0  0  0  0  0
  153.5806  141.7702  160.0988 C   0  0  0  0  0  0  0  0  0  0  0  0
  157.9207  138.7187  155.2637 H   0  0  0  0  0  0  0  0  0  0  0  0
  158.8631  137.2635  155.2400 H   0  0  0  0  0  0  0  0  0  0  0  0
  158.8098  136.1470  153.4039 H   0  0  0  0  0  0  0  0  0  0  0  0
  157.7286  135.2863  151.3332 H   0  0  0  0  0  0  0  0  0  0  0  0
  157.9714  138.7681  157.5297 H   0  0  0  0  0  0  0  0  0  0  0  0
  155.8536  137.4301  158.9136 H   0  0  0  0  0  0  0  0  0  0  0  0
  157.3976  136.7784  159.4089 H   0  0  0  0  0  0  0  0  0  0  0  0
  156.9867  138.5594  160.9622 H   0  0  0  0  0  0  0  0  0  0  0  0
  158.1394  139.2424  159.8425 H   0  0  0  0  0  0  0  0  0  0  0  0
  156.6637  140.9696  159.6512 H   0  0  0  0  0  0  0  0  0  0  0  0
  155.7188  139.8911  158.6343 H   0  0  0  0  0  0  0  0  0  0  0  0
  155.5143  141.9677  161.0117 H   0  0  0  0  0  0  0  0  0  0  0  0
  153.3600  140.4263  162.5580 H   0  0  0  0  0  0  0  0  0  0  0  0
  154.9223  140.8828  163.1897 H   0  0  0  0  0  0  0  0  0  0  0  0
  153.1517  142.4474  163.9637 H   0  0  0  0  0  0  0  0  0  0  0  0
  154.3675  143.2753  163.0216 H   0  0  0  0  0  0  0  0  0  0  0  0
  151.6184  142.3780  162.0293 H   0  0  0  0  0  0  0  0  0  0  0  0
  152.1253  144.0264  162.3125 H   0  0  0  0  0  0  0  0  0  0  0  0
  152.2150  143.4384  159.8793 H   0  0  0  0  0  0  0  0  0  0  0  0
  153.7890  143.8864  160.4916 H   0  0  0  0  0  0  0  0  0  0  0  0
  153.9821  141.8596  159.0889 H   0  0  0  0  0  0  0  0  0  0  0  0
  152.7748  141.0367  160.0466 H   0  0  0  0  0  0  0  0  0  0  0  0
  1  2  2  0  0  0  0
  2  3  1  0  0  0  0
  2 12  1  0  0  0  0
  3  4  1  0  0  0  0
  3 23  1  0  0  0  0
  3 24  1  0  0  0  0
  4 10  1  0  0  0  0
  4  5  1  0  0  0  0
  5  6  2  0  0  0  0
  5 25  1  0  0  0  0
  6  7  1  0  0  0  0
  6 26  1  0  0  0  0
  7  8  2  0  0  0  0
  7  9  1  0  0  0  0
  9 10  1  0  0  0  0
 10 11  2  0  0  0  0
 12 13  1  0  0  0  0
 12 27  1  0  0  0  0
 13 14  1  0  0  0  0
 13 28  1  0  0  0  0
 13 29  1  0  0  0  0
 14 15  1  0  0  0  0
 14 30  1  0  0  0  0
 14 31  1  0  0  0  0
 15 16  1  0  0  0  0
 15 32  1  0  0  0  0
 15 33  1  0  0  0  0
 16 17  1  0  0  0  0
 17 22  1  0  0  0  0
 17 18  1  0  0  0  0
 17 34  1  0  0  0  0
 18 19  1  0  0  0  0
 18 35  1  0  0  0  0
 18 36  1  0  0  0  0
 19 20  1  0  0  0  0
 19 37  1  0  0  0  0
 19 38  1  0  0  0  0
 20 21  1  0  0  0  0
 20 39  1  0  0  0  0
 20 40  1  0  0  0  0
 21 22  1  0  0  0  0
 21 41  1  0  0  0  0
 21 42  1  0  0  0  0
 22 43  1  0  0  0  0
 22 44  1  0  0  0  0
M  CHG  1   9  -1
M  END
> <s_m_source_file>
AV-unprocessed.smi

> <i_m_source_file_index>
2017

> <i_lp_mmshare_version>
43012

> <i_f3d_flags>
0

> <s_epik_input>
Tz1jMVtuSF1jKD1PKVtjSF1bY0hdbjFbQ0gyXUMoPU8pW05IXVtDSDJdW0NIMl1bQ0gyXU9bQ0hdMltDSDJdW0NIMl1bQ0gyXVtDSDJdW0NIMl0y

> <s_epik_cmdline>
J2VwaWtfcHl0aG9uJywgJy1waCcsICc3LjAnLCAnLXRuJywgJzgnLCAnLW1hJywgJzIwMCcsICctbWV0YWxfYmluZGluZycsICctaW1hZScsICc8aW5maWxlLm1hZT4nLCAnLW9tYWUnLCAnPG91dGZpbGUubWFlPic=

> <r_lp_tautomer_probability>
0.999537

> <r_epik_Ionization_Penalty>
3.07707

> <r_epik_Ionization_Penalty_Charging>
2.73667e-08

> <r_epik_Ionization_Penalty_Neutral>
3.07707

> <r_epik_State_Penalty>
3.07611

> <r_epik_Charging_Adjusted_Penalty>
3.07611

> <i_epik_Tot_Q>
-1

> <i_epik_Tot_abs_Q>
1

> <r_epik_Metal_State_Penalty>
0.459703

> <b_epik_Metal_Only>
1

> <s_lp_Force_Field>
OPLS_2005

> <r_lp_Energy>
18.9634

> <b_lp_Chiralities_Consistent>
1

> <s_lp_Variant>
AV-unprocessed.smi:2017-2

> <Gold.Version>
5.8.1

> <Gold.Id.Protein>
6NUR|6NUR_protein|mol2

> <Gold.PLP.Fitness>
45.6310

> <Gold.PLP.PLP>
-39.8201

> <Gold.PLP.part.hbond>
-4.2282

> <Gold.PLP.part.metal>
0.0000

> <Gold.PLP.part.buried>
0.1880

> <Gold.PLP.part.nonpolar>
-37.2623

> <Gold.PLP.part.repulsive>
2.1227

> <Gold.PLP.ligand.clash>
0.0000

> <Gold.PLP.ligand.torsion>
1.4004

> <Gold.PLP.Chemscore.Hbond>
2.8488

> <Gold.PLP.Chemscore.CHOScore>
0.0000

> <Gold.PLP.Chemscore.Metal>
0.0000

> <Gold.Chemscore.Hbonds>
donor molecule, donor type, donor heavy atom, donor atom, acceptor molecule, acceptor atom, score
      P1  H  7997  8010       L1    11  0.26
      P1  H 10708 10714       L1     8  0.63
      P1  H 10752 10764       L1     9  1.34

> <Gold.PLP.Chemscore.Internal.Correction>
0.0651

> <Gold.Rescore>
     Score         DG    S(hbond)    S(metal)    S(lipo)     H(rot)  DE(clash)    DE(int)     intcor
     10.42     -14.84       1.12        0.00     106.30       2.66       2.04       2.39       ----

> <Gold.Chemscore.Fitness>
10.4156

> <Gold.Chemscore.DG>
-14.8436

> <Gold.Chemscore.ZeroCoef>
-5.4800

> <Gold.Chemscore.Hbond>
1.1163

> <Gold.Chemscore.Metal>
0.0000

> <Gold.Chemscore.Lipo>
106.3036

> <Gold.Chemscore.Internal_Hbond>
0.0000

> <Gold.Chemscore.DEClash>
2.0423

> <Gold.Chemscore.DEInternal>
2.3857

> <Gold.Chemscore.Rot>
2.6572

> <Gold.Chemscore.Internal.Correction>
   9.000000E+99

> <Gold.Chemscore.Hbonds>
donor molecule, donor type, donor heavy atom, donor atom, acceptor molecule, acceptor atom, score
      P1  H  7997  8010       L1    11  0.26
      P1  H 10708 10714       L1     8  0.61
      P1  H 10752 10764       L1     9  0.02

> <Gold.Chemscore.Hbond.Weighted>
-3.7285

> <Gold.Chemscore.Metal.Weighted>
-0.0000

> <Gold.Chemscore.Lipo.Weighted>
-12.4375

> <Gold.Chemscore.Internal_Hbond.Weighted>
0.0000

> <Gold.Chemscore.DEClash.Weighted>
2.0423

> <Gold.Chemscore.DEInternal.Weighted>
2.3857

> <Gold.Chemscore.Rot.Weighted>
6.8024

> <Gold.Chemscore.Internal.Correction.Weighted>
   9.000000E+99

> <Gold.Protein.RotatedTorsions>
[ 6907 6896 6895 6894 ] final  165.67 input  -60.11 | X-H torsion
[ 7974 7965 7964 7962 ] final  131.70 input  175.53 | X-H torsion
[ 8008 7997 7996 7995 ] final  155.62 input   59.86 | X-H torsion
[ 10167 10162 10161 10158 ] final -129.10 input  -65.29 | X-H torsion
[ 10718 10713 10712 10709 ] final  111.77 input   66.30 | X-H torsion
[ 10763 10752 10751 10750 ] final -176.64 input  -60.55 | X-H torsion
[ 11005 11000 10999 10996 ] final  -19.15 input  -57.11 | X-H torsion

> <Gold.Protein.ActiveResidues>
 VAL166  LYS551  ARG553  GLY616  TRP617  ASP618  TYR619  PRO620  LYS621  CYS622 
 ASP623  PHE694  ASN695  SER759  ASP760  ASP761  ALA762  ILE779  LEU786  VAL792 
 PHE793  MET794  SER795  GLU796  ALA797  LYS798  CYS799  TRP800  GLU811  SER814 

> <Gold.Protein.RotatedAtoms>
  151.8909  133.3516  159.3797 H   0  0  0  0  0  0  0  0  0  0  0  0  # atno 6907 bound_to 6896
  150.7103  134.4925  159.5532 H   0  0  0  0  0  0  0  0  0  0  0  0  # atno 6908 bound_to 6896
  152.2495  134.8148  160.0499 H   0  0  0  0  0  0  0  0  0  0  0  0  # atno 6909 bound_to 6896
  145.0046  139.4279  143.5275 H   0  0  0  0  0  0  0  0  0  0  0  0  # atno 7974 bound_to 7965
  156.2468  140.1934  156.6829 H   0  0  0  0  0  0  0  0  0  0  0  0  # atno 8008 bound_to 7997
  154.6309  140.0596  156.9756 H   0  0  0  0  0  0  0  0  0  0  0  0  # atno 8009 bound_to 7997
  155.1713  140.3268  155.4395 H   0  0  0  0  0  0  0  0  0  0  0  0  # atno 8010 bound_to 7997
  139.9433  143.6138  152.2497 H   0  0  0  0  0  0  0  0  0  0  0  0  # atno 10167 bound_to 10162
  157.6428  131.0956  150.6797 H   0  0  0  0  0  0  0  0  0  0  0  0  # atno 10718 bound_to 10713
  154.5699  135.2827  155.0837 H   0  0  0  0  0  0  0  0  0  0  0  0  # atno 10763 bound_to 10752
  154.2214  135.6390  153.5149 H   0  0  0  0  0  0  0  0  0  0  0  0  # atno 10764 bound_to 10752
  153.0054  135.5515  154.6319 H   0  0  0  0  0  0  0  0  0  0  0  0  # atno 10765 bound_to 10752
  140.8338  133.7977  155.9787 H   0  0  0  0  0  0  0  0  0  0  0  0  # atno 11005 bound_to 11000
  146.3458  139.9454  142.8735 LP  0  0  0  0  0  0  0  0  0  0  0  0  # atno 17320 bound_to 7965
  145.2106  140.9894  143.4103 LP  0  0  0  0  0  0  0  0  0  0  0  0  # atno 17321 bound_to 7965
  139.6687  144.7661  151.1824 LP  0  0  0  0  0  0  0  0  0  0  0  0  # atno 17342 bound_to 10162
  140.7604  143.5898  150.8808 LP  0  0  0  0  0  0  0  0  0  0  0  0  # atno 17343 bound_to 10162
  156.7118  130.4654  149.5545 LP  0  0  0  0  0  0  0  0  0  0  0  0  # atno 17370 bound_to 10713
  156.1725  130.6446  151.0854 LP  0  0  0  0  0  0  0  0  0  0  0  0  # atno 17371 bound_to 10713
  140.8969  134.2426  157.5063 LP  0  0  0  0  0  0  0  0  0  0  0  0  # atno 17394 bound_to 11000
  139.8704  134.9688  156.4644 LP  0  0  0  0  0  0  0  0  0  0  0  0  # atno 17395 bound_to 11000

$$$$
