AV-unprocessed.smi:9|AV-procd|sdf|49|dock9
  -GOLD-   2262015163D 1   1.00000     0.00000
 Structure written by MMmdl.
 34 36  0  0  0  0  0  0  0  0  2 V2000
  150.6525  131.1447  157.4958 O   0  0  0  0  0  0  0  0  0  0  0  0
  149.9425  132.0611  157.0860 C   0  0  0  0  0  0  0  0  0  0  0  0
  149.6519  133.2070  157.7786 N   0  5  0  0  0  0  0  0  0  0  0  0
  148.8318  134.1935  157.2195 C   0  0  0  0  0  0  0  0  0  0  0  0
  148.5859  135.4244  158.0857 C   0  0  0  0  0  0  0  0  0  0  0  0
  147.7834  136.3024  157.4791 F   0  0  0  0  0  0  0  0  0  0  0  0
  148.0139  135.0780  159.2397 F   0  0  0  0  0  0  0  0  0  0  0  0
  149.7371  136.0407  158.3567 F   0  0  0  0  0  0  0  0  0  0  0  0
  148.2827  134.1378  156.0486 N   0  0  0  0  0  0  0  0  0  0  0  0
  148.5558  132.9977  155.3251 C   0  0  0  0  0  0  0  0  0  0  0  0
  149.3332  131.9512  155.7343 C   0  0  0  0  0  0  0  0  0  0  0  0
  149.3925  130.9580  154.7632 N   0  0  0  0  0  0  0  0  0  0  0  0
  148.6309  131.4682  153.7952 C   0  0  0  0  0  0  0  0  0  0  0  0
  148.1046  132.6833  154.0496 N   0  0  0  0  0  0  0  0  0  0  0  0
  147.2414  133.4718  153.1821 C   0  0  0  0  0  0  0  0  0  0  0  0
  145.8912  132.7927  152.8352 C   0  0  1  0  0  0  0  0  0  0  0  0
  145.2468  132.4840  154.0572 O   0  0  0  0  0  0  0  0  0  0  0  0
  144.9766  133.7117  151.9952 C   0  0  0  0  0  0  0  0  0  0  0  0
  143.7710  132.9534  151.4313 C   0  0  0  0  0  0  0  0  0  0  0  0
  144.2371  131.6885  150.7021 C   0  0  0  0  0  0  0  0  0  0  0  0
  144.9518  130.8637  151.6116 O   0  0  0  0  0  0  0  0  0  0  0  0
  146.1523  131.4535  152.1050 C   0  0  0  0  0  0  0  0  0  0  0  0
  148.4542  130.9435  152.8679 H   0  0  0  0  0  0  0  0  0  0  0  0
  147.0574  134.4255  153.6787 H   0  0  0  0  0  0  0  0  0  0  0  0
  147.7937  133.7095  152.2717 H   0  0  0  0  0  0  0  0  0  0  0  0
  144.3310  132.3305  153.8819 H   0  0  0  0  0  0  0  0  0  0  0  0
  144.6338  134.5654  152.5812 H   0  0  0  0  0  0  0  0  0  0  0  0
  145.5491  134.1210  151.1617 H   0  0  0  0  0  0  0  0  0  0  0  0
  143.0901  132.6818  152.2387 H   0  0  0  0  0  0  0  0  0  0  0  0
  143.2098  133.5954  150.7519 H   0  0  0  0  0  0  0  0  0  0  0  0
  143.3770  131.1343  150.3260 H   0  0  0  0  0  0  0  0  0  0  0  0
  144.8612  131.9353  149.8418 H   0  0  0  0  0  0  0  0  0  0  0  0
  146.8272  131.6108  151.2621 H   0  0  0  0  0  0  0  0  0  0  0  0
  146.6492  130.7431  152.7671 H   0  0  0  0  0  0  0  0  0  0  0  0
  1  2  2  0  0  0  0
  2 11  1  0  0  0  0
  2  3  1  0  0  0  0
  3  4  1  0  0  0  0
  4  5  1  0  0  0  0
  4  9  2  0  0  0  0
  5  6  1  0  0  0  0
  5  7  1  0  0  0  0
  5  8  1  0  0  0  0
  9 10  1  0  0  0  0
 10 14  1  0  0  0  0
 10 11  2  0  0  0  0
 11 12  1  0  0  0  0
 12 13  2  0  0  0  0
 13 14  1  0  0  0  0
 13 23  1  0  0  0  0
 14 15  1  0  0  0  0
 15 16  1  0  0  0  0
 15 24  1  0  0  0  0
 15 25  1  0  0  0  0
 16 22  1  0  0  0  0
 16 17  1  0  0  0  0
 16 18  1  0  0  0  0
 17 26  1  0  0  0  0
 18 19  1  0  0  0  0
 18 27  1  0  0  0  0
 18 28  1  0  0  0  0
 19 20  1  0  0  0  0
 19 29  1  0  0  0  0
 19 30  1  0  0  0  0
 20 21  1  0  0  0  0
 20 31  1  0  0  0  0
 20 32  1  0  0  0  0
 21 22  1  0  0  0  0
 22 33  1  0  0  0  0
 22 34  1  0  0  0  0
M  CHG  1   3  -1
M  END
> <s_m_source_file>
AV-unprocessed.smi

> <i_m_source_file_index>
9

> <i_lp_mmshare_version>
43012

> <i_f3d_flags>
0

> <s_epik_input>
RkMoRikoRiljKG4xKVtuSF1jKD1PKWMoYzEyKW5bY0hdbjJbQ0gyXVtDQEBdMyhbT0hdKVtDSDJdW0NIMl1bQ0gyXU9bQ0gyXTM=

> <s_epik_cmdline>
J2VwaWtfcHl0aG9uJywgJy1waCcsICc3LjAnLCAnLXRuJywgJzgnLCAnLW1hJywgJzIwMCcsICctbWV0YWxfYmluZGluZycsICctaW1hZScsICc8aW5maWxlLm1hZT4nLCAnLW9tYWUnLCAnPG91dGZpbGUubWFlPic=

> <r_lp_tautomer_probability>
1

> <r_epik_Ionization_Penalty>
0.188582

> <r_epik_Ionization_Penalty_Charging>
1.37005e-11

> <r_epik_Ionization_Penalty_Neutral>
0.188582

> <r_epik_State_Penalty>
0.012336

> <r_epik_Charging_Adjusted_Penalty>
0.012336

> <i_epik_Tot_Q>
-1

> <i_epik_Tot_abs_Q>
1

> <r_epik_Metal_State_Penalty>
0.0089237

> <b_epik_Metal_Only>
0

> <s_lp_Force_Field>
OPLS_2005

> <r_lp_Energy>
37.6166

> <b_lp_Chiralities_Consistent>
1

> <s_lp_Variant>
AV-unprocessed.smi:9-1

> <Gold.Version>
5.8.1

> <Gold.Id.Protein>
6NUR|6NUR_protein|mol2

> <Gold.PLP.Fitness>
38.8050

> <Gold.PLP.PLP>
-26.8259

> <Gold.PLP.part.hbond>
-2.0000

> <Gold.PLP.part.metal>
0.0000

> <Gold.PLP.part.buried>
-4.7466

> <Gold.PLP.part.nonpolar>
-21.4737

> <Gold.PLP.part.repulsive>
0.2397

> <Gold.PLP.ligand.clash>
0.0000

> <Gold.PLP.ligand.torsion>
0.0135

> <Gold.PLP.Chemscore.Hbond>
3.0000

> <Gold.PLP.Chemscore.CHOScore>
1.0000

> <Gold.PLP.Chemscore.Metal>
0.0000

> <Gold.Chemscore.Hbonds>
donor molecule, donor type, donor heavy atom, donor atom, acceptor molecule, acceptor atom, score
      L1  H    17    26       P1 10957  0.82
      P1  H  6896  6908       L1     3  2.00
      L1  C    13    23       P1 10747  0.77

> <Gold.PLP.Chemscore.Internal.Correction>
0.0061

> <Gold.Rescore>
     Score         DG    S(hbond)    S(metal)    S(lipo)     H(rot)  DE(clash)    DE(int)     intcor
      9.51     -10.76       1.83        0.00      39.40       2.12       0.00       1.25       ----

> <Gold.Chemscore.Fitness>
9.5080

> <Gold.Chemscore.DG>
-10.7607

> <Gold.Chemscore.ZeroCoef>
-5.4800

> <Gold.Chemscore.Hbond>
1.8287

> <Gold.Chemscore.Metal>
0.0000

> <Gold.Chemscore.Lipo>
39.4038

> <Gold.Chemscore.Internal_Hbond>
0.0000

> <Gold.Chemscore.DEClash>
0.0009

> <Gold.Chemscore.DEInternal>
1.2518

> <Gold.Chemscore.Rot>
2.1239

> <Gold.Chemscore.Internal.Correction>
   9.000000E+99

> <Gold.Chemscore.Hbonds>
donor molecule, donor type, donor heavy atom, donor atom, acceptor molecule, acceptor atom, score
      L1  H    17    26       P1 10957  0.24
      P1  H  6896  6908       L1     3  0.90

> <Gold.Chemscore.Hbond.Weighted>
-6.1077

> <Gold.Chemscore.Metal.Weighted>
-0.0000

> <Gold.Chemscore.Lipo.Weighted>
-4.6102

> <Gold.Chemscore.Internal_Hbond.Weighted>
0.0000

> <Gold.Chemscore.DEClash.Weighted>
0.0009

> <Gold.Chemscore.DEInternal.Weighted>
1.2518

> <Gold.Chemscore.Rot.Weighted>
5.4373

> <Gold.Chemscore.Internal.Correction.Weighted>
   9.000000E+99

> <Gold.Protein.RotatedTorsions>
[ 6907 6896 6895 6894 ] final  120.61 input  -60.11 | X-H torsion
[ 7974 7965 7964 7962 ] final -143.11 input  175.53 | X-H torsion
[ 8008 7997 7996 7995 ] final -162.64 input   59.86 | X-H torsion
[ 10167 10162 10161 10158 ] final   30.06 input  -65.29 | X-H torsion
[ 10718 10713 10712 10709 ] final -120.67 input   66.30 | X-H torsion
[ 10763 10752 10751 10750 ] final  153.70 input  -60.55 | X-H torsion
[ 11005 11000 10999 10996 ] final  179.10 input  -57.11 | X-H torsion

> <Gold.Protein.ActiveResidues>
 VAL166  LYS551  ARG553  GLY616  TRP617  ASP618  TYR619  PRO620  LYS621  CYS622 
 ASP623  PHE694  ASN695  SER759  ASP760  ASP761  ALA762  ILE779  LEU786  VAL792 
 PHE793  MET794  SER795  GLU796  ALA797  LYS798  CYS799  TRP800  GLU811  SER814 

> <Gold.Protein.RotatedAtoms>
  152.4385  133.7405  159.6637 H   0  0  0  0  0  0  0  0  0  0  0  0  # atno 6907 bound_to 6896
  150.8272  133.8141  159.3119 H   0  0  0  0  0  0  0  0  0  0  0  0  # atno 6908 bound_to 6896
  151.5806  135.1061  160.0068 H   0  0  0  0  0  0  0  0  0  0  0  0  # atno 6909 bound_to 6896
  144.8393  140.5875  143.5463 H   0  0  0  0  0  0  0  0  0  0  0  0  # atno 7974 bound_to 7965
  155.8098  140.0904  157.1910 H   0  0  0  0  0  0  0  0  0  0  0  0  # atno 8008 bound_to 7997
  154.3980  140.1457  156.3432 H   0  0  0  0  0  0  0  0  0  0  0  0  # atno 8009 bound_to 7997
  155.8377  140.3440  155.5614 H   0  0  0  0  0  0  0  0  0  0  0  0  # atno 8010 bound_to 7997
  140.4711  144.0761  150.6237 H   0  0  0  0  0  0  0  0  0  0  0  0  # atno 10167 bound_to 10162
  156.1277  130.6371  150.9569 H   0  0  0  0  0  0  0  0  0  0  0  0  # atno 10718 bound_to 10713
  154.1405  135.2821  155.3162 H   0  0  0  0  0  0  0  0  0  0  0  0  # atno 10763 bound_to 10752
  154.6290  135.5441  153.7663 H   0  0  0  0  0  0  0  0  0  0  0  0  # atno 10764 bound_to 10752
  153.0252  135.6458  154.1552 H   0  0  0  0  0  0  0  0  0  0  0  0  # atno 10765 bound_to 10752
  140.4024  134.6765  157.4569 H   0  0  0  0  0  0  0  0  0  0  0  0  # atno 11005 bound_to 11000
  145.4727  139.1502  143.3805 LP  0  0  0  0  0  0  0  0  0  0  0  0  # atno 17320 bound_to 7965
  146.2688  140.4861  142.8823 LP  0  0  0  0  0  0  0  0  0  0  0  0  # atno 17321 bound_to 7965
  140.3976  143.2720  151.9986 LP  0  0  0  0  0  0  0  0  0  0  0  0  # atno 17342 bound_to 10162
  139.4818  144.6025  151.7581 LP  0  0  0  0  0  0  0  0  0  0  0  0  # atno 17343 bound_to 10162
  157.6457  131.0904  150.8158 LP  0  0  0  0  0  0  0  0  0  0  0  0  # atno 17370 bound_to 10713
  156.8247  130.4995  149.5339 LP  0  0  0  0  0  0  0  0  0  0  0  0  # atno 17371 bound_to 10713
  140.0327  134.6383  155.9085 LP  0  0  0  0  0  0  0  0  0  0  0  0  # atno 17394 bound_to 11000
  141.1852  133.6554  156.5187 LP  0  0  0  0  0  0  0  0  0  0  0  0  # atno 17395 bound_to 11000

$$$$
