AV-unprocessed.smi:700|AV-procd|sdf|3407|dock4
  -GOLD-   22720 0383D 1   1.00000     0.00000
 Structure written by MMmdl.
 43 44  0  0  0  0  0  0  0  0  1 V2000
  151.6098  131.2498  155.1140 C   0  0  0  0  0  0  0  0  0  0  0  0
  151.1697  132.6635  155.2837 C   0  0  0  0  0  0  0  0  0  0  0  0
  150.4756  133.5243  154.4824 C   0  0  0  0  0  0  0  0  0  0  0  0
  150.3916  134.7137  155.2585 C   0  0  0  0  0  0  0  0  0  0  0  0
  149.7343  136.0210  154.8971 C   0  0  0  0  0  0  0  0  0  0  0  0
  150.7487  137.1666  154.7850 C   0  0  0  0  0  0  0  0  0  0  0  0
  151.9444  136.9862  155.0218 O   0  0  0  0  0  0  0  0  0  0  0  0
  150.2458  138.3593  154.4301 N   0  0  0  0  0  0  0  0  0  0  0  0
  151.0201  139.5857  154.2749 C   0  0  0  0  0  0  0  0  0  0  0  0
  151.8347  139.9067  155.5393 C   0  0  0  0  0  0  0  0  0  0  0  0
  151.1875  141.0045  156.3955 C   0  0  0  0  0  0  0  0  0  0  0  0
  151.8256  141.1117  157.7897 C   0  0  0  0  0  0  0  0  0  0  0  0
  151.3297  142.3243  158.5972 C   0  0  0  0  0  0  0  0  0  0  0  0
  151.4897  143.6530  157.8560 C   0  0  0  0  0  0  0  0  0  0  0  0
  151.3886  144.7200  158.9485 C   0  0  0  0  0  0  0  0  0  0  0  0
  151.8786  144.0496  160.2403 C   0  0  0  0  0  0  0  0  0  0  0  0
  152.0858  142.5655  159.9091 C   0  0  0  0  0  0  0  0  0  0  0  0
  150.9994  134.5794  156.4270 N   0  0  0  0  0  0  0  0  0  0  0  0
  151.4957  133.2712  156.4533 O   0  0  0  0  0  0  0  0  0  0  0  0
  151.6163  130.9687  154.0608 H   0  0  0  0  0  0  0  0  0  0  0  0
  150.9387  130.5714  155.6409 H   0  0  0  0  0  0  0  0  0  0  0  0
  152.6162  131.1055  155.5076 H   0  0  0  0  0  0  0  0  0  0  0  0
  150.0818  133.3321  153.4957 H   0  0  0  0  0  0  0  0  0  0  0  0
  149.1928  135.9255  153.9549 H   0  0  0  0  0  0  0  0  0  0  0  0
  148.9955  136.2883  155.6531 H   0  0  0  0  0  0  0  0  0  0  0  0
  149.2533  138.4226  154.2552 H   0  0  0  0  0  0  0  0  0  0  0  0
  151.6756  139.5063  153.4058 H   0  0  0  0  0  0  0  0  0  0  0  0
  150.3239  140.3980  154.0651 H   0  0  0  0  0  0  0  0  0  0  0  0
  151.9484  139.0023  156.1380 H   0  0  0  0  0  0  0  0  0  0  0  0
  152.8411  140.2186  155.2575 H   0  0  0  0  0  0  0  0  0  0  0  0
  151.2747  141.9636  155.8835 H   0  0  0  0  0  0  0  0  0  0  0  0
  150.1207  140.8010  156.4920 H   0  0  0  0  0  0  0  0  0  0  0  0
  151.6410  140.1950  158.3514 H   0  0  0  0  0  0  0  0  0  0  0  0
  152.9080  141.1836  157.6750 H   0  0  0  0  0  0  0  0  0  0  0  0
  150.2705  142.1936  158.8260 H   0  0  0  0  0  0  0  0  0  0  0  0
  152.4742  143.7032  157.3883 H   0  0  0  0  0  0  0  0  0  0  0  0
  150.7436  143.7879  157.0723 H   0  0  0  0  0  0  0  0  0  0  0  0
  151.9649  145.6119  158.7000 H   0  0  0  0  0  0  0  0  0  0  0  0
  150.3487  145.0262  159.0686 H   0  0  0  0  0  0  0  0  0  0  0  0
  152.8060  144.4994  160.5969 H   0  0  0  0  0  0  0  0  0  0  0  0
  151.1352  144.1687  161.0295 H   0  0  0  0  0  0  0  0  0  0  0  0
  151.7429  141.9126  160.7122 H   0  0  0  0  0  0  0  0  0  0  0  0
  153.1504  142.3750  159.7653 H   0  0  0  0  0  0  0  0  0  0  0  0
  1  2  1  0  0  0  0
  1 20  1  0  0  0  0
  1 21  1  0  0  0  0
  1 22  1  0  0  0  0
  2 19  1  0  0  0  0
  2  3  2  0  0  0  0
  3  4  1  0  0  0  0
  3 23  1  0  0  0  0
  4  5  1  0  0  0  0
  4 18  2  0  0  0  0
  5  6  1  0  0  0  0
  5 24  1  0  0  0  0
  5 25  1  0  0  0  0
  6  7  2  0  0  0  0
  6  8  1  0  0  0  0
  8  9  1  0  0  0  0
  8 26  1  0  0  0  0
  9 10  1  0  0  0  0
  9 27  1  0  0  0  0
  9 28  1  0  0  0  0
 10 11  1  0  0  0  0
 10 29  1  0  0  0  0
 10 30  1  0  0  0  0
 11 12  1  0  0  0  0
 11 31  1  0  0  0  0
 11 32  1  0  0  0  0
 12 13  1  0  0  0  0
 12 33  1  0  0  0  0
 12 34  1  0  0  0  0
 13 17  1  0  0  0  0
 13 14  1  0  0  0  0
 13 35  1  0  0  0  0
 14 15  1  0  0  0  0
 14 36  1  0  0  0  0
 14 37  1  0  0  0  0
 15 16  1  0  0  0  0
 15 38  1  0  0  0  0
 15 39  1  0  0  0  0
 16 17  1  0  0  0  0
 16 40  1  0  0  0  0
 16 41  1  0  0  0  0
 17 42  1  0  0  0  0
 17 43  1  0  0  0  0
 18 19  1  0  0  0  0
M  END
> <s_m_source_file>
AV-unprocessed.smi

> <i_m_source_file_index>
700

> <i_lp_mmshare_version>
43012

> <i_f3d_flags>
0

> <s_epik_input>
W0NIM11jMVtjSF1jKG5vMSlbQ0gyXUMoPU8pW05IXVtDSDJdW0NIMl1bQ0gyXVtDSDJdW0NIXTJbQ0gyXVtDSDJdW0NIMl1bQ0gyXTI=

> <s_epik_cmdline>
J2VwaWtfcHl0aG9uJywgJy1waCcsICc3LjAnLCAnLXRuJywgJzgnLCAnLW1hJywgJzIwMCcsICctbWV0YWxfYmluZGluZycsICctaW1hZScsICc8aW5maWxlLm1hZT4nLCAnLW9tYWUnLCAnPG91dGZpbGUubWFlPic=

> <r_lp_tautomer_probability>
1

> <r_epik_Ionization_Penalty>
7.08657e-08

> <r_epik_Ionization_Penalty_Charging>
0

> <r_epik_Ionization_Penalty_Neutral>
7.08657e-08

> <r_epik_State_Penalty>
-0

> <r_epik_Charging_Adjusted_Penalty>
0

> <i_epik_Tot_Q>
0

> <i_epik_Tot_abs_Q>
0

> <r_epik_Metal_State_Penalty>
-0

> <b_epik_Metal_Only>
0

> <s_lp_Force_Field>
OPLS_2005

> <r_lp_Energy>
19.5762

> <b_lp_Chiralities_Consistent>
1

> <s_lp_Variant>
AV-unprocessed.smi:700-1

> <Gold.Version>
5.8.1

> <Gold.Id.Protein>
6NUR|6NUR_protein|mol2

> <Gold.PLP.Fitness>
45.0277

> <Gold.PLP.PLP>
-41.2643

> <Gold.PLP.part.hbond>
-3.0000

> <Gold.PLP.part.metal>
0.0000

> <Gold.PLP.part.buried>
-3.6034

> <Gold.PLP.part.nonpolar>
-33.8951

> <Gold.PLP.part.repulsive>
0.1109

> <Gold.PLP.ligand.clash>
0.0000

> <Gold.PLP.ligand.torsion>
0.4157

> <Gold.PLP.Chemscore.Hbond>
1.5120

> <Gold.PLP.Chemscore.CHOScore>
0.0000

> <Gold.PLP.Chemscore.Metal>
0.0000

> <Gold.Chemscore.Hbonds>
donor molecule, donor type, donor heavy atom, donor atom, acceptor molecule, acceptor atom, score
      P1  H 10752 10765       L1     7  1.00

> <Gold.PLP.Chemscore.Internal.Correction>
0.0588

> <Gold.Rescore>
     Score         DG    S(hbond)    S(metal)    S(lipo)     H(rot)  DE(clash)    DE(int)     intcor
     16.50     -17.08       1.00        0.00     110.90       1.84       0.02       0.56       ----

> <Gold.Chemscore.Fitness>
16.5001

> <Gold.Chemscore.DG>
-17.0792

> <Gold.Chemscore.ZeroCoef>
-5.4800

> <Gold.Chemscore.Hbond>
0.9981

> <Gold.Chemscore.Metal>
0.0000

> <Gold.Chemscore.Lipo>
110.9046

> <Gold.Chemscore.Internal_Hbond>
0.0000

> <Gold.Chemscore.DEClash>
0.0186

> <Gold.Chemscore.DEInternal>
0.5605

> <Gold.Chemscore.Rot>
1.8399

> <Gold.Chemscore.Internal.Correction>
   9.000000E+99

> <Gold.Chemscore.Hbonds>
donor molecule, donor type, donor heavy atom, donor atom, acceptor molecule, acceptor atom, score
      P1  H 10752 10765       L1     7  0.95

> <Gold.Chemscore.Hbond.Weighted>
-3.3336

> <Gold.Chemscore.Metal.Weighted>
-0.0000

> <Gold.Chemscore.Lipo.Weighted>
-12.9758

> <Gold.Chemscore.Internal_Hbond.Weighted>
0.0000

> <Gold.Chemscore.DEClash.Weighted>
0.0186

> <Gold.Chemscore.DEInternal.Weighted>
0.5605

> <Gold.Chemscore.Rot.Weighted>
4.7103

> <Gold.Chemscore.Internal.Correction.Weighted>
   9.000000E+99

> <Gold.Protein.RotatedTorsions>
[ 6907 6896 6895 6894 ] final   64.96 input  -60.11 | X-H torsion
[ 7974 7965 7964 7962 ] final  -22.55 input  175.53 | X-H torsion
[ 8008 7997 7996 7995 ] final  -42.85 input   59.86 | X-H torsion
[ 10167 10162 10161 10158 ] final  -58.28 input  -65.29 | X-H torsion
[ 10718 10713 10712 10709 ] final  114.22 input   66.30 | X-H torsion
[ 10763 10752 10751 10750 ] final  177.93 input  -60.55 | X-H torsion
[ 11005 11000 10999 10996 ] final    2.67 input  -57.11 | X-H torsion

> <Gold.Protein.ActiveResidues>
 VAL166  LYS551  ARG553  GLY616  TRP617  ASP618  TYR619  PRO620  LYS621  CYS622 
 ASP623  PHE694  ASN695  SER759  ASP760  ASP761  ALA762  ILE779  LEU786  VAL792 
 PHE793  MET794  SER795  GLU796  ALA797  LYS798  CYS799  TRP800  GLU811  SER814 

> <Gold.Protein.RotatedAtoms>
  152.4372  134.5664  159.9908 H   0  0  0  0  0  0  0  0  0  0  0  0  # atno 6907 bound_to 6896
  151.5771  133.3376  159.3009 H   0  0  0  0  0  0  0  0  0  0  0  0  # atno 6908 bound_to 6896
  150.8272  134.7543  159.6887 H   0  0  0  0  0  0  0  0  0  0  0  0  # atno 6909 bound_to 6896
  146.1669  140.4495  142.8548 H   0  0  0  0  0  0  0  0  0  0  0  0  # atno 7974 bound_to 7965
  154.3998  140.1463  156.3423 H   0  0  0  0  0  0  0  0  0  0  0  0  # atno 8008 bound_to 7997
  155.8345  140.3464  155.5572 H   0  0  0  0  0  0  0  0  0  0  0  0  # atno 8009 bound_to 7997
  155.8153  140.0890  157.1871 H   0  0  0  0  0  0  0  0  0  0  0  0  # atno 8010 bound_to 7997
  140.6207  143.2418  151.5488 H   0  0  0  0  0  0  0  0  0  0  0  0  # atno 10167 bound_to 10162
  157.6293  131.0995  150.7155 H   0  0  0  0  0  0  0  0  0  0  0  0  # atno 10718 bound_to 10713
  154.5009  135.2783  155.1421 H   0  0  0  0  0  0  0  0  0  0  0  0  # atno 10763 bound_to 10752
  154.3055  135.6239  153.5446 H   0  0  0  0  0  0  0  0  0  0  0  0  # atno 10764 bound_to 10752
  152.9902  135.5707  154.5452 H   0  0  0  0  0  0  0  0  0  0  0  0  # atno 10765 bound_to 10752
  140.6016  133.9830  155.8135 H   0  0  0  0  0  0  0  0  0  0  0  0  # atno 11005 bound_to 11000
  144.8105  140.6377  143.6418 LP  0  0  0  0  0  0  0  0  0  0  0  0  # atno 17320 bound_to 7965
  145.4444  139.1531  143.3952 LP  0  0  0  0  0  0  0  0  0  0  0  0  # atno 17321 bound_to 7965
  139.5436  144.2581  152.1399 LP  0  0  0  0  0  0  0  0  0  0  0  0  # atno 17342 bound_to 10162
  140.1800  144.4853  150.6533 LP  0  0  0  0  0  0  0  0  0  0  0  0  # atno 17343 bound_to 10162
  156.7497  130.4765  149.5459 LP  0  0  0  0  0  0  0  0  0  0  0  0  # atno 17370 bound_to 10713
  156.1486  130.6294  151.0565 LP  0  0  0  0  0  0  0  0  0  0  0  0  # atno 17371 bound_to 10713
  141.0868  133.9978  157.3301 LP  0  0  0  0  0  0  0  0  0  0  0  0  # atno 17394 bound_to 11000
  139.9230  135.0201  156.8132 LP  0  0  0  0  0  0  0  0  0  0  0  0  # atno 17395 bound_to 11000

$$$$
