AV-unprocessed.smi:3287|AV-procd|sdf|12596|dock2
  -GOLD-   2272018523D 1   1.00000     0.00000
 Structure written by MMmdl.
 43 44  0  0  0  0  0  0  0  0  2 V2000
  152.1742  144.4150  161.5716 C   0  0  0  0  0  0  0  0  0  0  0  0
  152.3858  144.0045  160.1034 C   0  0  2  0  0  0  0  0  0  0  0  0
  151.5127  144.8832  159.1849 C   0  0  0  0  0  0  0  0  0  0  0  0
  151.6931  144.5258  157.7021 C   0  0  0  0  0  0  0  0  0  0  0  0
  151.4019  143.0368  157.4312 C   0  0  2  0  0  0  0  0  0  0  0  0
  149.9678  142.7023  157.5919 N   0  3  0  0  0  0  0  0  0  0  0  0
  149.5327  141.4353  156.9656 C   0  0  0  0  0  0  0  0  0  0  0  0
  150.0144  141.3390  155.5077 C   0  0  1  0  0  0  0  0  0  0  0  0
  151.2845  140.7162  155.4898 O   0  0  0  0  0  0  0  0  0  0  0  0
  149.0088  140.5935  154.6448 C   0  0  0  0  0  0  0  0  0  0  0  0
  149.1173  139.2019  154.4317 C   0  0  0  0  0  0  0  0  0  0  0  0
  148.1516  138.5661  153.6260 C   0  0  0  0  0  0  0  0  0  0  0  0
  147.1226  139.2206  153.0466 N   0  0  0  0  0  0  0  0  0  0  0  0
  147.0220  140.5506  153.2554 C   0  0  0  0  0  0  0  0  0  0  0  0
  147.9337  141.2812  154.0437 C   0  0  0  0  0  0  0  0  0  0  0  0
  152.2648  142.1543  158.3517 C   0  0  0  0  0  0  0  0  0  0  0  0
  152.1077  142.4990  159.8501 C   0  0  1  0  0  0  0  0  0  0  0  0
  153.0059  141.5750  160.6917 C   0  0  0  0  0  0  0  0  0  0  0  0
  151.1663  144.1736  161.9105 H   0  0  0  0  0  0  0  0  0  0  0  0
  152.3183  145.4879  161.7020 H   0  0  0  0  0  0  0  0  0  0  0  0
  152.8806  143.9197  162.2370 H   0  0  0  0  0  0  0  0  0  0  0  0
  153.4297  144.2034  159.8551 H   0  0  0  0  0  0  0  0  0  0  0  0
  150.4626  144.7801  159.4619 H   0  0  0  0  0  0  0  0  0  0  0  0
  151.7631  145.9345  159.3318 H   0  0  0  0  0  0  0  0  0  0  0  0
  151.0714  145.1711  157.0826 H   0  0  0  0  0  0  0  0  0  0  0  0
  152.7217  144.7436  157.4114 H   0  0  0  0  0  0  0  0  0  0  0  0
  151.6766  142.8068  156.4007 H   0  0  0  0  0  0  0  0  0  0  0  0
  149.7781  142.6294  158.5810 H   0  0  0  0  0  0  0  0  0  0  0  0
  149.9032  140.5832  157.5356 H   0  0  0  0  0  0  0  0  0  0  0  0
  148.4432  141.3904  156.9948 H   0  0  0  0  0  0  0  0  0  0  0  0
  150.1392  142.3440  155.1015 H   0  0  0  0  0  0  0  0  0  0  0  0
  151.4483  140.3451  156.3441 H   0  0  0  0  0  0  0  0  0  0  0  0
  149.9201  138.6299  154.8737 H   0  0  0  0  0  0  0  0  0  0  0  0
  148.2066  137.5032  153.4435 H   0  0  0  0  0  0  0  0  0  0  0  0
  146.1893  141.0483  152.7807 H   0  0  0  0  0  0  0  0  0  0  0  0
  147.8051  142.3450  154.1790 H   0  0  0  0  0  0  0  0  0  0  0  0
  152.0259  141.1035  158.1815 H   0  0  0  0  0  0  0  0  0  0  0  0
  153.3122  142.2712  158.0689 H   0  0  0  0  0  0  0  0  0  0  0  0
  151.0752  142.2928  160.1358 H   0  0  0  0  0  0  0  0  0  0  0  0
  154.0623  141.7794  160.5147 H   0  0  0  0  0  0  0  0  0  0  0  0
  152.8269  140.5272  160.4488 H   0  0  0  0  0  0  0  0  0  0  0  0
  152.8167  141.6871  161.7589 H   0  0  0  0  0  0  0  0  0  0  0  0
  149.4139  143.4594  157.2168 H   0  0  0  0  0  0  0  0  0  0  0  0
  1  2  1  0  0  0  0
  1 19  1  0  0  0  0
  1 20  1  0  0  0  0
  1 21  1  0  0  0  0
  2 17  1  0  0  0  0
  2  3  1  0  0  0  0
  2 22  1  0  0  0  0
  3  4  1  0  0  0  0
  3 23  1  0  0  0  0
  3 24  1  0  0  0  0
  4  5  1  0  0  0  0
  4 25  1  0  0  0  0
  4 26  1  0  0  0  0
  5  6  1  0  0  0  0
  5 16  1  0  0  0  0
  5 27  1  0  0  0  0
  6  7  1  0  0  0  0
  6 28  1  0  0  0  0
  6 43  1  0  0  0  0
  7  8  1  0  0  0  0
  7 29  1  0  0  0  0
  7 30  1  0  0  0  0
  8  9  1  0  0  0  0
  8 10  1  0  0  0  0
  8 31  1  0  0  0  0
  9 32  1  0  0  0  0
 10 15  1  0  0  0  0
 10 11  2  0  0  0  0
 11 12  1  0  0  0  0
 11 33  1  0  0  0  0
 12 13  2  0  0  0  0
 12 34  1  0  0  0  0
 13 14  1  0  0  0  0
 14 15  2  0  0  0  0
 14 35  1  0  0  0  0
 15 36  1  0  0  0  0
 16 17  1  0  0  0  0
 16 37  1  0  0  0  0
 16 38  1  0  0  0  0
 17 18  1  0  0  0  0
 17 39  1  0  0  0  0
 18 40  1  0  0  0  0
 18 41  1  0  0  0  0
 18 42  1  0  0  0  0
M  CHG  1   6   1
M  END
> <s_m_source_file>
AV-unprocessed.smi

> <i_m_source_file_index>
3287

> <i_lp_mmshare_version>
43012

> <i_f3d_flags>
0

> <s_epik_input>
W0NIM11bQ0BASF0xW0NIMl1bQ0gyXVtDQEhdKFtDSDJdW0NASF0xW0NIM10pW05IXVtDSDJdW0NASF0oW09IXSljMltjSF1bY0hdbltjSF1bY0hdMg==

> <s_epik_cmdline>
J2VwaWtfcHl0aG9uJywgJy1waCcsICc3LjAnLCAnLXRuJywgJzgnLCAnLW1hJywgJzIwMCcsICctbWV0YWxfYmluZGluZycsICctaW1hZScsICc8aW5maWxlLm1hZT4nLCAnLW9tYWUnLCAnPG91dGZpbGUubWFlPic=

> <r_lp_tautomer_probability>
1

> <r_epik_Ionization_Penalty>
0.00537262

> <r_epik_Ionization_Penalty_Charging>
0.00321624

> <r_epik_Ionization_Penalty_Neutral>
0.00215638

> <r_epik_State_Penalty>
-0

> <r_epik_Charging_Adjusted_Penalty>
0.00321624

> <i_epik_Tot_Q>
1

> <i_epik_Tot_abs_Q>
1

> <r_epik_Metal_State_Penalty>
-0

> <b_epik_Metal_Only>
0

> <s_lp_Force_Field>
OPLS_2005

> <r_lp_Energy>
19.2096

> <b_lp_Chiralities_Consistent>
1

> <s_lp_Variant>
AV-unprocessed.smi:3287-7

> <Gold.Version>
5.8.1

> <Gold.Id.Protein>
6NUR|6NUR_protein|mol2

> <Gold.PLP.Fitness>
53.1692

> <Gold.PLP.PLP>
-42.0927

> <Gold.PLP.part.hbond>
-2.0000

> <Gold.PLP.part.metal>
0.0000

> <Gold.PLP.part.buried>
-3.7114

> <Gold.PLP.part.nonpolar>
-37.9483

> <Gold.PLP.part.repulsive>
0.2823

> <Gold.PLP.ligand.clash>
0.0000

> <Gold.PLP.ligand.torsion>
1.3060

> <Gold.PLP.Chemscore.Hbond>
2.7840

> <Gold.PLP.Chemscore.CHOScore>
1.7599

> <Gold.PLP.Chemscore.Metal>
0.0000

> <Gold.Chemscore.Hbonds>
donor molecule, donor type, donor heavy atom, donor atom, acceptor molecule, acceptor atom, score
      L1  H     6    43       P1  8028  1.85
      P1  H  7989  7998       L1     9  0.71
      L1  C    12    34       P1  7948  1.00
      L1  C    14    35       P1 10175  0.82

> <Gold.PLP.Chemscore.Internal.Correction>
0.0567

> <Gold.Rescore>
     Score         DG    S(hbond)    S(metal)    S(lipo)     H(rot)  DE(clash)    DE(int)     intcor
     19.80     -21.43       1.52        0.00     134.47       1.90       0.90       0.74       ----

> <Gold.Chemscore.Fitness>
19.7981

> <Gold.Chemscore.DG>
-21.4298

> <Gold.Chemscore.ZeroCoef>
-5.4800

> <Gold.Chemscore.Hbond>
1.5239

> <Gold.Chemscore.Metal>
0.0000

> <Gold.Chemscore.Lipo>
134.4700

> <Gold.Chemscore.Internal_Hbond>
0.0000

> <Gold.Chemscore.DEClash>
0.8956

> <Gold.Chemscore.DEInternal>
0.7361

> <Gold.Chemscore.Rot>
1.9035

> <Gold.Chemscore.Internal.Correction>
   9.000000E+99

> <Gold.Chemscore.Hbonds>
donor molecule, donor type, donor heavy atom, donor atom, acceptor molecule, acceptor atom, score
      L1  H     6    43       P1  8028  0.70
      P1  H  7989  7998       L1     9  0.13

> <Gold.Chemscore.Hbond.Weighted>
-5.0897

> <Gold.Chemscore.Metal.Weighted>
-0.0000

> <Gold.Chemscore.Lipo.Weighted>
-15.7330

> <Gold.Chemscore.Internal_Hbond.Weighted>
0.0000

> <Gold.Chemscore.DEClash.Weighted>
0.8956

> <Gold.Chemscore.DEInternal.Weighted>
0.7361

> <Gold.Chemscore.Rot.Weighted>
4.8729

> <Gold.Chemscore.Internal.Correction.Weighted>
   9.000000E+99

> <Gold.Protein.RotatedTorsions>
[ 6907 6896 6895 6894 ] final   65.13 input  -60.11 | X-H torsion
[ 7974 7965 7964 7962 ] final  -93.59 input  175.53 | X-H torsion
[ 8008 7997 7996 7995 ] final -155.80 input   59.86 | X-H torsion
[ 10167 10162 10161 10158 ] final  -76.55 input  -65.29 | X-H torsion
[ 10718 10713 10712 10709 ] final   32.96 input   66.30 | X-H torsion
[ 10763 10752 10751 10750 ] final   17.25 input  -60.55 | X-H torsion
[ 11005 11000 10999 10996 ] final   39.32 input  -57.11 | X-H torsion

> <Gold.Protein.ActiveResidues>
 VAL166  LYS551  ARG553  GLY616  TRP617  ASP618  TYR619  PRO620  LYS621  CYS622 
 ASP623  PHE694  ASN695  SER759  ASP760  ASP761  ALA762  ILE779  LEU786  VAL792 
 PHE793  MET794  SER795  GLU796  ALA797  LYS798  CYS799  TRP800  GLU811  SER814 

> <Gold.Protein.RotatedAtoms>
  152.4384  134.5639  159.9901 H   0  0  0  0  0  0  0  0  0  0  0  0  # atno 6907 bound_to 6896
  151.5743  133.3380  159.3004 H   0  0  0  0  0  0  0  0  0  0  0  0  # atno 6908 bound_to 6896
  150.8286  134.7564  159.6899 H   0  0  0  0  0  0  0  0  0  0  0  0  # atno 6909 bound_to 6896
  145.3845  140.9521  143.2375 H   0  0  0  0  0  0  0  0  0  0  0  0  # atno 7974 bound_to 7965
  155.7075  140.0774  157.2385 H   0  0  0  0  0  0  0  0  0  0  0  0  # atno 8008 bound_to 7997
  154.4063  140.1636  156.2312 H   0  0  0  0  0  0  0  0  0  0  0  0  # atno 8009 bound_to 7997
  155.9313  140.3391  155.6254 H   0  0  0  0  0  0  0  0  0  0  0  0  # atno 8010 bound_to 7997
  140.4847  143.2394  151.8002 H   0  0  0  0  0  0  0  0  0  0  0  0  # atno 10167 bound_to 10162
  157.2918  130.7306  149.6615 H   0  0  0  0  0  0  0  0  0  0  0  0  # atno 10718 bound_to 10713
  153.1356  135.6749  153.9108 H   0  0  0  0  0  0  0  0  0  0  0  0  # atno 10763 bound_to 10752
  153.8581  135.3085  155.3437 H   0  0  0  0  0  0  0  0  0  0  0  0  # atno 10764 bound_to 10752
  154.7745  135.4922  153.9798 H   0  0  0  0  0  0  0  0  0  0  0  0  # atno 10765 bound_to 10752
  140.2039  134.3836  155.8082 H   0  0  0  0  0  0  0  0  0  0  0  0  # atno 11005 bound_to 11000
  144.8484  139.5361  143.6868 LP  0  0  0  0  0  0  0  0  0  0  0  0  # atno 17320 bound_to 7965
  146.2826  139.6919  142.9218 LP  0  0  0  0  0  0  0  0  0  0  0  0  # atno 17321 bound_to 7965
  139.4840  144.4727  151.9405 LP  0  0  0  0  0  0  0  0  0  0  0  0  # atno 17342 bound_to 10162
  140.3813  144.2733  150.5908 LP  0  0  0  0  0  0  0  0  0  0  0  0  # atno 17343 bound_to 10162
  155.9667  130.4306  150.4886 LP  0  0  0  0  0  0  0  0  0  0  0  0  # atno 17370 bound_to 10713
  157.2850  131.0614  151.2172 LP  0  0  0  0  0  0  0  0  0  0  0  0  # atno 17371 bound_to 10713
  141.2227  133.7108  156.8305 LP  0  0  0  0  0  0  0  0  0  0  0  0  # atno 17394 bound_to 11000
  140.2024  134.8887  157.3183 LP  0  0  0  0  0  0  0  0  0  0  0  0  # atno 17395 bound_to 11000

$$$$
