AV-unprocessed.smi:3337|AV-procd|sdf|12868|dock7
  -GOLD-   2272019263D 1   1.00000     0.00000
 Structure written by MMmdl.
 46 47  0  0  0  0  0  0  0  0  2 V2000
  150.5799  144.4608  159.4080 C   0  0  0  0  0  0  0  0  0  0  0  0
  151.6210  143.8759  158.4372 C   0  0  1  0  0  0  0  0  0  0  0  0
  152.9115  143.4218  159.1433 C   0  0  0  0  0  0  0  0  0  0  0  0
  152.7014  142.1147  159.9287 C   0  0  2  0  0  0  0  0  0  0  0  0
  154.0091  141.6351  160.5743 C   0  0  0  0  0  0  0  0  0  0  0  0
  152.0943  141.0333  159.0140 C   0  0  0  0  0  0  0  0  0  0  0  0
  150.8297  141.4987  158.3873 N   0  3  2  0  0  0  0  0  0  0  0  0
  150.1439  140.4168  157.6364 C   0  0  0  0  0  0  0  0  0  0  0  0
  150.3661  139.0290  158.2680 C   0  0  0  0  0  0  0  0  0  0  0  0
  149.1015  138.3658  158.5616 N   0  0  0  0  0  0  0  0  0  0  0  0
  148.9770  137.0962  158.9818 C   0  0  0  0  0  0  0  0  0  0  0  0
  149.9432  136.3451  159.1215 O   0  0  0  0  0  0  0  0  0  0  0  0
  147.5470  136.6063  159.2765 C   0  0  1  0  0  0  0  0  0  0  0  0
  147.1091  135.4385  158.3699 C   0  0  0  0  0  0  0  0  0  0  0  0
  147.3889  136.2706  160.6871 N   0  0  0  0  0  0  0  0  0  0  0  0
  147.0497  135.1154  161.2634 C   0  0  0  0  0  0  0  0  0  0  0  0
  146.9739  135.1751  162.5855 N   0  0  0  0  0  0  0  0  0  0  0  0
  147.3014  136.4877  162.7741 C   0  0  0  0  0  0  0  0  0  0  0  0
  147.5548  137.1907  161.6703 N   0  0  0  0  0  0  0  0  0  0  0  0
  151.0427  142.7315  157.5821 C   0  0  0  0  0  0  0  0  0  0  0  0
  150.2180  143.7168  160.1174 H   0  0  0  0  0  0  0  0  0  0  0  0
  149.7147  144.8453  158.8668 H   0  0  0  0  0  0  0  0  0  0  0  0
  150.9999  145.2882  159.9807 H   0  0  0  0  0  0  0  0  0  0  0  0
  151.8926  144.6849  157.7578 H   0  0  0  0  0  0  0  0  0  0  0  0
  153.6901  143.2689  158.3945 H   0  0  0  0  0  0  0  0  0  0  0  0
  153.2768  144.2090  159.8042 H   0  0  0  0  0  0  0  0  0  0  0  0
  151.9963  142.3078  160.7378 H   0  0  0  0  0  0  0  0  0  0  0  0
  154.7673  141.4158  159.8219 H   0  0  0  0  0  0  0  0  0  0  0  0
  153.8497  140.7294  161.1602 H   0  0  0  0  0  0  0  0  0  0  0  0
  154.4159  142.3921  161.2453 H   0  0  0  0  0  0  0  0  0  0  0  0
  152.8035  140.7505  158.2340 H   0  0  0  0  0  0  0  0  0  0  0  0
  151.8998  140.1369  159.6045 H   0  0  0  0  0  0  0  0  0  0  0  0
  149.0790  140.6402  157.5542 H   0  0  0  0  0  0  0  0  0  0  0  0
  150.5329  140.3938  156.6172 H   0  0  0  0  0  0  0  0  0  0  0  0
  150.9738  138.4027  157.6123 H   0  0  0  0  0  0  0  0  0  0  0  0
  150.9092  139.1096  159.2085 H   0  0  0  0  0  0  0  0  0  0  0  0
  148.2615  138.9187  158.4677 H   0  0  0  0  0  0  0  0  0  0  0  0
  146.8816  137.4459  159.0698 H   0  0  0  0  0  0  0  0  0  0  0  0
  147.1617  135.7131  157.3158 H   0  0  0  0  0  0  0  0  0  0  0  0
  146.0782  135.1504  158.5789 H   0  0  0  0  0  0  0  0  0  0  0  0
  147.7330  134.5556  158.5145 H   0  0  0  0  0  0  0  0  0  0  0  0
  146.8510  134.2125  160.7045 H   0  0  0  0  0  0  0  0  0  0  0  0
  147.3493  136.9400  163.7536 H   0  0  0  0  0  0  0  0  0  0  0  0
  150.1109  143.0641  157.1267 H   0  0  0  0  0  0  0  0  0  0  0  0
  151.7233  142.5055  156.7594 H   0  0  0  0  0  0  0  0  0  0  0  0
  150.2157  141.7474  159.1499 H   0  0  0  0  0  0  0  0  0  0  0  0
  1  2  1  0  0  0  0
  1 21  1  0  0  0  0
  1 22  1  0  0  0  0
  1 23  1  0  0  0  0
  2 20  1  0  0  0  0
  2  3  1  0  0  0  0
  2 24  1  0  0  0  0
  3  4  1  0  0  0  0
  3 25  1  0  0  0  0
  3 26  1  0  0  0  0
  4  5  1  0  0  0  0
  4  6  1  0  0  0  0
  4 27  1  0  0  0  0
  5 28  1  0  0  0  0
  5 29  1  0  0  0  0
  5 30  1  0  0  0  0
  6  7  1  0  0  0  0
  6 31  1  0  0  0  0
  6 32  1  0  0  0  0
  7  8  1  0  0  0  0
  7 20  1  0  0  0  0
  7 46  1  0  0  0  0
  8  9  1  0  0  0  0
  8 33  1  0  0  0  0
  8 34  1  0  0  0  0
  9 10  1  0  0  0  0
  9 35  1  0  0  0  0
  9 36  1  0  0  0  0
 10 11  1  0  0  0  0
 10 37  1  0  0  0  0
 11 12  2  0  0  0  0
 11 13  1  0  0  0  0
 13 14  1  0  0  0  0
 13 15  1  0  0  0  0
 13 38  1  0  0  0  0
 14 39  1  0  0  0  0
 14 40  1  0  0  0  0
 14 41  1  0  0  0  0
 15 19  1  0  0  0  0
 15 16  1  0  0  0  0
 16 17  2  0  0  0  0
 16 42  1  0  0  0  0
 17 18  1  0  0  0  0
 18 19  2  0  0  0  0
 18 43  1  0  0  0  0
 20 44  1  0  0  0  0
 20 45  1  0  0  0  0
M  CHG  1   7   1
M  END
> <s_m_source_file>
AV-unprocessed.smi

> <i_m_source_file_index>
3337

> <i_lp_mmshare_version>
43012

> <i_f3d_flags>
0

> <s_epik_input>
W0NIM11bQ0BASF0xW0NIMl1bQ0BASF0oW0NIM10pW0NIMl1OKFtDSDJdMSlbQ0gyXVtDSDJdW05IXUMoPU8pW0NASF0oW0NIM10pbjJbY0hdbltjSF1uMg==

> <s_epik_cmdline>
J2VwaWtfcHl0aG9uJywgJy1waCcsICc3LjAnLCAnLXRuJywgJzgnLCAnLW1hJywgJzIwMCcsICctbWV0YWxfYmluZGluZycsICctaW1hZScsICc8aW5maWxlLm1hZT4nLCAnLW9tYWUnLCAnPG91dGZpbGUubWFlPic=

> <r_lp_tautomer_probability>
1

> <r_epik_Ionization_Penalty>
0.00175613

> <r_epik_Ionization_Penalty_Charging>
0.00174812

> <r_epik_Ionization_Penalty_Neutral>
8.01354e-06

> <r_epik_State_Penalty>
0.00118332

> <r_epik_Charging_Adjusted_Penalty>
0.00293143

> <i_epik_Tot_Q>
1

> <i_epik_Tot_abs_Q>
1

> <r_epik_Metal_State_Penalty>
-0

> <b_epik_Metal_Only>
0

> <s_lp_Force_Field>
OPLS_2005

> <r_lp_Energy>
24.7561

> <b_lp_Chiralities_Consistent>
1

> <s_lp_Variant>
AV-unprocessed.smi:3337-8

> <Gold.Version>
5.8.1

> <Gold.Id.Protein>
6NUR|6NUR_protein|mol2

> <Gold.PLP.Fitness>
47.9360

> <Gold.PLP.PLP>
-41.2687

> <Gold.PLP.part.hbond>
-3.0000

> <Gold.PLP.part.metal>
0.0000

> <Gold.PLP.part.buried>
-6.5549

> <Gold.PLP.part.nonpolar>
-32.4068

> <Gold.PLP.part.repulsive>
0.3197

> <Gold.PLP.ligand.clash>
0.0141

> <Gold.PLP.ligand.torsion>
0.7264

> <Gold.PLP.Chemscore.Hbond>
2.6750

> <Gold.PLP.Chemscore.CHOScore>
0.0000

> <Gold.PLP.Chemscore.Metal>
0.0000

> <Gold.Chemscore.Hbonds>
donor molecule, donor type, donor heavy atom, donor atom, acceptor molecule, acceptor atom, score
      P1  H  6896  6909       L1    12  1.00
      P1  H  6931  6943       L1    19  0.98
      P1  H  6934  6947       L1    19  0.78

> <Gold.PLP.Chemscore.Internal.Correction>
0.1094

> <Gold.Rescore>
     Score         DG    S(hbond)    S(metal)    S(lipo)     H(rot)  DE(clash)    DE(int)     intcor
     16.46     -17.17       2.48        0.00      84.10       2.51       0.00       0.71       ----

> <Gold.Chemscore.Fitness>
16.4599

> <Gold.Chemscore.DG>
-17.1669

> <Gold.Chemscore.ZeroCoef>
-5.4800

> <Gold.Chemscore.Hbond>
2.4792

> <Gold.Chemscore.Metal>
0.0000

> <Gold.Chemscore.Lipo>
84.0977

> <Gold.Chemscore.Internal_Hbond>
0.0000

> <Gold.Chemscore.DEClash>
0.0000

> <Gold.Chemscore.DEInternal>
0.7070

> <Gold.Chemscore.Rot>
2.5129

> <Gold.Chemscore.Internal.Correction>
   9.000000E+99

> <Gold.Chemscore.Hbonds>
donor molecule, donor type, donor heavy atom, donor atom, acceptor molecule, acceptor atom, score
      P1  H  6896  6909       L1    12  0.98
      P1  H  6931  6943       L1    19  0.69
      P1  H  6934  6947       L1    19  0.56

> <Gold.Chemscore.Hbond.Weighted>
-8.2805

> <Gold.Chemscore.Metal.Weighted>
-0.0000

> <Gold.Chemscore.Lipo.Weighted>
-9.8394

> <Gold.Chemscore.Internal_Hbond.Weighted>
0.0000

> <Gold.Chemscore.DEClash.Weighted>
0.0000

> <Gold.Chemscore.DEInternal.Weighted>
0.7070

> <Gold.Chemscore.Rot.Weighted>
6.4331

> <Gold.Chemscore.Internal.Correction.Weighted>
   9.000000E+99

> <Gold.Protein.RotatedTorsions>
[ 6907 6896 6895 6894 ] final   60.13 input  -60.11 | X-H torsion
[ 7974 7965 7964 7962 ] final -102.97 input  175.53 | X-H torsion
[ 8008 7997 7996 7995 ] final   78.42 input   59.86 | X-H torsion
[ 10167 10162 10161 10158 ] final -174.50 input  -65.29 | X-H torsion
[ 10718 10713 10712 10709 ] final  111.23 input   66.30 | X-H torsion
[ 10763 10752 10751 10750 ] final  -76.36 input  -60.55 | X-H torsion
[ 11005 11000 10999 10996 ] final   93.44 input  -57.11 | X-H torsion

> <Gold.Protein.ActiveResidues>
 VAL166  LYS551  ARG553  GLY616  TRP617  ASP618  TYR619  PRO620  LYS621  CYS622 
 ASP623  PHE694  ASN695  SER759  ASP760  ASP761  ALA762  ILE779  LEU786  VAL792 
 PHE793  MET794  SER795  GLU796  ALA797  LYS798  CYS799  TRP800  GLU811  SER814 

> <Gold.Protein.RotatedAtoms>
  152.3976  134.6340  160.0082 H   0  0  0  0  0  0  0  0  0  0  0  0  # atno 6907 bound_to 6896
  151.6555  133.3313  159.3170 H   0  0  0  0  0  0  0  0  0  0  0  0  # atno 6908 bound_to 6896
  150.7881  134.6925  159.6549 H   0  0  0  0  0  0  0  0  0  0  0  0  # atno 6909 bound_to 6896
  145.2619  140.9272  143.3036 H   0  0  0  0  0  0  0  0  0  0  0  0  # atno 7974 bound_to 7965
  155.8555  140.3456  155.5721 H   0  0  0  0  0  0  0  0  0  0  0  0  # atno 8008 bound_to 7997
  155.7991  140.0882  157.1987 H   0  0  0  0  0  0  0  0  0  0  0  0  # atno 8009 bound_to 7997
  154.4009  140.1469  156.3240 H   0  0  0  0  0  0  0  0  0  0  0  0  # atno 8010 bound_to 7997
  139.5631  144.1822  152.1270 H   0  0  0  0  0  0  0  0  0  0  0  0  # atno 10167 bound_to 10162
  157.6455  131.0947  150.6719 H   0  0  0  0  0  0  0  0  0  0  0  0  # atno 10718 bound_to 10713
  154.4988  135.5800  153.6515 H   0  0  0  0  0  0  0  0  0  0  0  0  # atno 10763 bound_to 10752
  152.9875  135.6130  154.3029 H   0  0  0  0  0  0  0  0  0  0  0  0  # atno 10764 bound_to 10752
  154.2935  135.2848  155.2623 H   0  0  0  0  0  0  0  0  0  0  0  0  # atno 10765 bound_to 10752
  139.8810  134.8790  156.3719 H   0  0  0  0  0  0  0  0  0  0  0  0  # atno 11005 bound_to 11000
  144.9411  139.4188  143.6448 LP  0  0  0  0  0  0  0  0  0  0  0  0  # atno 17320 bound_to 7965
  146.3272  139.8371  142.8897 LP  0  0  0  0  0  0  0  0  0  0  0  0  # atno 17321 bound_to 7965
  140.1339  144.5263  150.6785 LP  0  0  0  0  0  0  0  0  0  0  0  0  # atno 17342 bound_to 10162
  140.6912  143.2377  151.5125 LP  0  0  0  0  0  0  0  0  0  0  0  0  # atno 17343 bound_to 10162
  156.7037  130.4631  149.5566 LP  0  0  0  0  0  0  0  0  0  0  0  0  # atno 17370 bound_to 10713
  156.1778  130.6479  151.0915 LP  0  0  0  0  0  0  0  0  0  0  0  0  # atno 17371 bound_to 10713
  140.9458  133.7484  156.0207 LP  0  0  0  0  0  0  0  0  0  0  0  0  # atno 17394 bound_to 11000
  140.8164  134.3339  157.5395 LP  0  0  0  0  0  0  0  0  0  0  0  0  # atno 17395 bound_to 11000

$$$$
