AV-unprocessed.smi:1487|AV-procd|sdf|6011|dock2
  -GOLD-   22720 6113D 1   1.00000     0.00000
 Structure written by MMmdl.
 48 50  0  0  0  0  0  0  0  0  2 V2000
  153.0408  143.0866  161.4922 C   0  0  0  0  0  0  0  0  0  0  0  0
  152.4667  142.6404  160.1592 C   0  0  0  0  0  0  0  0  0  0  0  0
  152.9719  141.4693  159.5513 C   0  0  0  0  0  0  0  0  0  0  0  0
  152.4642  141.0195  158.3129 C   0  0  0  0  0  0  0  0  0  0  0  0
  152.8066  139.9172  157.5486 N   0  0  0  0  0  0  0  0  0  0  0  0
  151.9815  140.0415  156.5138 C   0  0  0  0  0  0  0  0  0  0  0  0
  151.1471  141.0987  156.5135 N   0  0  0  0  0  0  0  0  0  0  0  0
  150.1686  141.4363  155.4949 C   0  0  0  0  0  0  0  0  0  0  0  0
  149.1115  140.3315  155.3078 C   0  0  2  0  0  0  0  0  0  0  0  0
  148.8642  139.7058  156.5524 O   0  0  0  0  0  0  0  0  0  0  0  0
  149.5765  139.2590  154.3035 C   0  0  0  0  0  0  0  0  0  0  0  0
  148.4377  138.5797  153.6348 N   0  3  1  0  0  0  0  0  0  0  0  0
  147.5806  137.8086  154.5734 C   0  0  0  0  0  0  0  0  0  0  0  0
  146.5319  136.9861  153.8093 C   0  0  0  0  0  0  0  0  0  0  0  0
  145.6703  137.8892  152.9151 C   0  0  0  0  0  0  0  0  0  0  0  0
  146.5475  138.7586  151.9983 C   0  0  2  0  0  0  0  0  0  0  0  0
  147.1511  137.9659  150.9951 O   0  0  0  0  0  0  0  0  0  0  0  0
  147.6375  139.5065  152.7913 C   0  0  0  0  0  0  0  0  0  0  0  0
  151.4293  141.7797  157.6934 C   0  0  0  0  0  0  0  0  0  0  0  0
  150.9201  142.9481  158.2874 C   0  0  0  0  0  0  0  0  0  0  0  0
  151.4379  143.3828  159.5255 C   0  0  0  0  0  0  0  0  0  0  0  0
  150.8794  144.6437  160.1608 C   0  0  0  0  0  0  0  0  0  0  0  0
  153.7888  142.3832  161.8593 H   0  0  0  0  0  0  0  0  0  0  0  0
  152.2543  143.1588  162.2436 H   0  0  0  0  0  0  0  0  0  0  0  0
  153.5181  144.0619  161.3941 H   0  0  0  0  0  0  0  0  0  0  0  0
  153.7562  140.9042  160.0333 H   0  0  0  0  0  0  0  0  0  0  0  0
  151.9858  139.3240  155.7061 H   0  0  0  0  0  0  0  0  0  0  0  0
  149.6884  142.3723  155.7838 H   0  0  0  0  0  0  0  0  0  0  0  0
  150.6901  141.6322  154.5569 H   0  0  0  0  0  0  0  0  0  0  0  0
  148.1844  140.7935  154.9694 H   0  0  0  0  0  0  0  0  0  0  0  0
  149.6469  139.2480  156.8209 H   0  0  0  0  0  0  0  0  0  0  0  0
  150.2273  139.6972  153.5451 H   0  0  0  0  0  0  0  0  0  0  0  0
  150.1862  138.5288  154.8383 H   0  0  0  0  0  0  0  0  0  0  0  0
  148.1872  137.1340  155.1765 H   0  0  0  0  0  0  0  0  0  0  0  0
  147.0886  138.4931  155.2666 H   0  0  0  0  0  0  0  0  0  0  0  0
  147.0311  136.2297  153.2022 H   0  0  0  0  0  0  0  0  0  0  0  0
  145.8971  136.4463  154.5125 H   0  0  0  0  0  0  0  0  0  0  0  0
  144.9733  137.2907  152.3272 H   0  0  0  0  0  0  0  0  0  0  0  0
  145.0611  138.5378  153.5461 H   0  0  0  0  0  0  0  0  0  0  0  0
  145.9169  139.4870  151.4874 H   0  0  0  0  0  0  0  0  0  0  0  0
  147.5574  137.2172  151.4054 H   0  0  0  0  0  0  0  0  0  0  0  0
  147.1765  140.2599  153.4322 H   0  0  0  0  0  0  0  0  0  0  0  0
  148.2898  140.0409  152.0986 H   0  0  0  0  0  0  0  0  0  0  0  0
  150.1374  143.5057  157.7947 H   0  0  0  0  0  0  0  0  0  0  0  0
  150.1226  145.1068  159.5270 H   0  0  0  0  0  0  0  0  0  0  0  0
  151.6721  145.3744  160.3233 H   0  0  0  0  0  0  0  0  0  0  0  0
  150.4173  144.4143  161.1211 H   0  0  0  0  0  0  0  0  0  0  0  0
  148.8476  137.9143  152.9939 H   0  0  0  0  0  0  0  0  0  0  0  0
  1  2  1  0  0  0  0
  1 23  1  0  0  0  0
  1 24  1  0  0  0  0
  1 25  1  0  0  0  0
  2 21  1  0  0  0  0
  2  3  2  0  0  0  0
  3  4  1  0  0  0  0
  3 26  1  0  0  0  0
  4 19  2  0  0  0  0
  4  5  1  0  0  0  0
  5  6  2  0  0  0  0
  6  7  1  0  0  0  0
  6 27  1  0  0  0  0
  7  8  1  0  0  0  0
  7 19  1  0  0  0  0
  8  9  1  0  0  0  0
  8 28  1  0  0  0  0
  8 29  1  0  0  0  0
  9 10  1  0  0  0  0
  9 11  1  0  0  0  0
  9 30  1  0  0  0  0
 10 31  1  0  0  0  0
 11 12  1  0  0  0  0
 11 32  1  0  0  0  0
 11 33  1  0  0  0  0
 12 18  1  0  0  0  0
 12 13  1  0  0  0  0
 12 48  1  0  0  0  0
 13 14  1  0  0  0  0
 13 34  1  0  0  0  0
 13 35  1  0  0  0  0
 14 15  1  0  0  0  0
 14 36  1  0  0  0  0
 14 37  1  0  0  0  0
 15 16  1  0  0  0  0
 15 38  1  0  0  0  0
 15 39  1  0  0  0  0
 16 17  1  0  0  0  0
 16 18  1  0  0  0  0
 16 40  1  0  0  0  0
 17 41  1  0  0  0  0
 18 42  1  0  0  0  0
 18 43  1  0  0  0  0
 19 20  1  0  0  0  0
 20 21  2  0  0  0  0
 20 44  1  0  0  0  0
 21 22  1  0  0  0  0
 22 45  1  0  0  0  0
 22 46  1  0  0  0  0
 22 47  1  0  0  0  0
M  CHG  1  12   1
M  END
> <s_m_source_file>
AV-unprocessed.smi

> <i_m_source_file_index>
1487

> <i_lp_mmshare_version>
43012

> <i_f3d_flags>
0

> <s_epik_input>
W0NIM11jKFtjSF0xKWMoW0NIM10pW2NIXWMoYzEyKW4oW2NIXW4yKVtDSDJdW0NASF0oW09IXSlbQ0gyXU4zW0NIMl1bQ0gyXVtDSDJdW0NAQEhdKFtPSF0pW0NIMl0z

> <s_epik_cmdline>
J2VwaWtfcHl0aG9uJywgJy1waCcsICc3LjAnLCAnLXRuJywgJzgnLCAnLW1hJywgJzIwMCcsICctbWV0YWxfYmluZGluZycsICctaW1hZScsICc8aW5maWxlLm1hZT4nLCAnLW9tYWUnLCAnPG91dGZpbGUubWFlPic=

> <r_epik_Ionization_Penalty>
0.0940186

> <r_epik_Ionization_Penalty_Charging>
0.00679686

> <r_epik_Ionization_Penalty_Neutral>
0.0872218

> <r_epik_State_Penalty>
0.0799311

> <r_epik_Charging_Adjusted_Penalty>
0.086728

> <i_epik_Tot_Q>
1

> <i_epik_Tot_abs_Q>
1

> <r_epik_Metal_State_Penalty>
7.95545e-05

> <b_epik_Metal_Only>
0

> <s_lp_Force_Field>
OPLS_2005

> <r_lp_Energy>
22.5409

> <b_lp_Chiralities_Consistent>
1

> <s_lp_Variant>
AV-unprocessed.smi:1487-5

> <Gold.Version>
5.8.1

> <Gold.Id.Protein>
6NUR|6NUR_protein|mol2

> <Gold.PLP.Fitness>
55.6803

> <Gold.PLP.PLP>
-42.8370

> <Gold.PLP.part.hbond>
-4.5349

> <Gold.PLP.part.metal>
0.0000

> <Gold.PLP.part.buried>
-2.9303

> <Gold.PLP.part.nonpolar>
-35.9715

> <Gold.PLP.part.repulsive>
0.0224

> <Gold.PLP.ligand.clash>
0.0000

> <Gold.PLP.ligand.torsion>
0.6179

> <Gold.PLP.Chemscore.Hbond>
4.6780

> <Gold.PLP.Chemscore.CHOScore>
0.0000

> <Gold.PLP.Chemscore.Metal>
0.0000

> <Gold.Chemscore.Hbonds>
donor molecule, donor type, donor heavy atom, donor atom, acceptor molecule, acceptor atom, score
      L1  H    12    48       P1  7948  2.00
      L1  H    17    41       P1  7948  1.00
      P1  H  7954  7966       L1    17  0.42
      P1  H  7997  8008       L1     5  1.00

> <Gold.PLP.Chemscore.Internal.Correction>
0.0451

> <Gold.Rescore>
     Score         DG    S(hbond)    S(metal)    S(lipo)     H(rot)  DE(clash)    DE(int)     intcor
     19.83     -22.04       2.69        0.00     123.13       2.67       1.53       0.68       ----

> <Gold.Chemscore.Fitness>
19.8312

> <Gold.Chemscore.DG>
-22.0354

> <Gold.Chemscore.ZeroCoef>
-5.4800

> <Gold.Chemscore.Hbond>
2.6909

> <Gold.Chemscore.Metal>
0.0000

> <Gold.Chemscore.Lipo>
123.1309

> <Gold.Chemscore.Internal_Hbond>
0.0000

> <Gold.Chemscore.DEClash>
1.5250

> <Gold.Chemscore.DEInternal>
0.6791

> <Gold.Chemscore.Rot>
2.6712

> <Gold.Chemscore.Internal.Correction>
   9.000000E+99

> <Gold.Chemscore.Hbonds>
donor molecule, donor type, donor heavy atom, donor atom, acceptor molecule, acceptor atom, score
      L1  H    12    48       P1  7948  0.94
      L1  H    17    41       P1  7948  0.96
      P1  H  7954  7966       L1    17  0.01
      P1  H  7997  8008       L1     5  0.25

> <Gold.Chemscore.Hbond.Weighted>
-8.9874

> <Gold.Chemscore.Metal.Weighted>
-0.0000

> <Gold.Chemscore.Lipo.Weighted>
-14.4063

> <Gold.Chemscore.Internal_Hbond.Weighted>
0.0000

> <Gold.Chemscore.DEClash.Weighted>
1.5250

> <Gold.Chemscore.DEInternal.Weighted>
0.6791

> <Gold.Chemscore.Rot.Weighted>
6.8383

> <Gold.Chemscore.Internal.Correction.Weighted>
   9.000000E+99

> <Gold.Protein.RotatedTorsions>
[ 6907 6896 6895 6894 ] final  119.70 input  -60.11 | X-H torsion
[ 7974 7965 7964 7962 ] final  143.02 input  175.53 | X-H torsion
[ 8008 7997 7996 7995 ] final  -65.70 input   59.86 | X-H torsion
[ 10167 10162 10161 10158 ] final  154.74 input  -65.29 | X-H torsion
[ 10718 10713 10712 10709 ] final   56.55 input   66.30 | X-H torsion
[ 10763 10752 10751 10750 ] final -173.25 input  -60.55 | X-H torsion
[ 11005 11000 10999 10996 ] final  101.01 input  -57.11 | X-H torsion

> <Gold.Protein.ActiveResidues>
 VAL166  LYS551  ARG553  GLY616  TRP617  ASP618  TYR619  PRO620  LYS621  CYS622 
 ASP623  PHE694  ASN695  SER759  ASP760  ASP761  ALA762  ILE779  LEU786  VAL792 
 PHE793  MET794  SER795  GLU796  ALA797  LYS798  CYS799  TRP800  GLU811  SER814 

> <Gold.Protein.RotatedAtoms>
  152.4453  133.7524  159.6701 H   0  0  0  0  0  0  0  0  0  0  0  0  # atno 6907 bound_to 6896
  150.8351  133.8016  159.3089 H   0  0  0  0  0  0  0  0  0  0  0  0  # atno 6908 bound_to 6896
  151.5658  135.1066  160.0035 H   0  0  0  0  0  0  0  0  0  0  0  0  # atno 6909 bound_to 6896
  144.8957  139.5495  143.5777 H   0  0  0  0  0  0  0  0  0  0  0  0  # atno 7974 bound_to 7965
  154.4688  140.0927  156.7091 H   0  0  0  0  0  0  0  0  0  0  0  0  # atno 8008 bound_to 7997
  155.4782  140.3467  155.4317 H   0  0  0  0  0  0  0  0  0  0  0  0  # atno 8009 bound_to 7997
  156.1003  140.1420  156.9464 H   0  0  0  0  0  0  0  0  0  0  0  0  # atno 8010 bound_to 7997
  139.4822  144.5160  151.7950 H   0  0  0  0  0  0  0  0  0  0  0  0  # atno 10167 bound_to 10162
  157.5440  130.8718  149.8864 H   0  0  0  0  0  0  0  0  0  0  0  0  # atno 10718 bound_to 10713
  154.6100  135.2863  155.0443 H   0  0  0  0  0  0  0  0  0  0  0  0  # atno 10763 bound_to 10752
  154.1676  135.6478  153.5005 H   0  0  0  0  0  0  0  0  0  0  0  0  # atno 10764 bound_to 10752
  153.0191  135.5393  154.6850 H   0  0  0  0  0  0  0  0  0  0  0  0  # atno 10765 bound_to 10752
  139.8772  134.9165  156.4842 H   0  0  0  0  0  0  0  0  0  0  0  0  # atno 11005 bound_to 11000
  146.3079  139.7645  142.9042 LP  0  0  0  0  0  0  0  0  0  0  0  0  # atno 17320 bound_to 7965
  145.3705  141.0342  143.3234 LP  0  0  0  0  0  0  0  0  0  0  0  0  # atno 17321 bound_to 7965
  140.4669  144.1643  150.5913 LP  0  0  0  0  0  0  0  0  0  0  0  0  # atno 17342 bound_to 10162
  140.4424  143.2520  151.9455 LP  0  0  0  0  0  0  0  0  0  0  0  0  # atno 17343 bound_to 10162
  156.0520  130.3715  150.1179 LP  0  0  0  0  0  0  0  0  0  0  0  0  # atno 17370 bound_to 10713
  156.9356  130.9728  151.3525 LP  0  0  0  0  0  0  0  0  0  0  0  0  # atno 17371 bound_to 10713
  140.8705  133.7992  155.9359 LP  0  0  0  0  0  0  0  0  0  0  0  0  # atno 17394 bound_to 11000
  140.8957  134.2440  157.5070 LP  0  0  0  0  0  0  0  0  0  0  0  0  # atno 17395 bound_to 11000

$$$$
