AV-unprocessed.smi:2339|AV-procd|sdf|9341|dock3
  -GOLD-   2272012563D 1   1.00000     0.00000
 Structure written by MMmdl.
 49 52  0  0  0  0  0  0  0  0  1 V2000
  144.4998  130.6108  151.7346 C   0  0  0  0  0  0  0  0  0  0  0  0
  144.7629  131.7707  150.7680 C   0  0  0  0  0  0  0  0  0  0  0  0
  144.4959  133.0606  151.3880 N   0  0  0  0  0  0  0  0  0  0  0  0
  143.1988  133.5464  151.5170 C   0  0  0  0  0  0  0  0  0  0  0  0
  142.8917  134.7486  152.0413 C   0  0  0  0  0  0  0  0  0  0  0  0
  143.9779  135.6309  152.5130 C   0  0  0  0  0  0  0  0  0  0  0  0
  143.7336  136.7313  153.0085 O   0  0  0  0  0  0  0  0  0  0  0  0
  145.3649  135.1184  152.3598 C   0  0  0  0  0  0  0  0  0  0  0  0
  146.3879  135.9643  152.8152 N   0  0  0  0  0  0  0  0  0  0  0  0
  146.4254  136.7703  153.8956 C   0  0  0  0  0  0  0  0  0  0  0  0
  145.5412  136.8701  154.7432 O   0  0  0  0  0  0  0  0  0  0  0  0
  147.5540  137.4956  153.9835 N   0  0  0  0  0  0  0  0  0  0  0  0
  147.9116  138.4658  155.0318 C   0  0  1  0  0  0  0  0  0  0  0  0
  149.4074  138.5093  155.3683 C   0  0  1  0  0  0  0  0  0  0  0  0
  150.5636  137.5899  155.1983 C   0  0  0  0  0  0  0  0  0  0  0  0
  151.5961  138.6529  154.7406 C   0  0  0  0  0  0  0  0  0  0  0  0
  150.8396  139.8673  154.5043 O   0  0  0  0  0  0  0  0  0  0  0  0
  149.5459  139.4096  154.1590 C   0  0  2  0  0  0  0  0  0  0  0  0
  148.1341  139.9375  154.5091 C   0  0  0  0  0  0  0  0  0  0  0  0
  148.0568  141.0896  155.5323 C   0  0  0  0  0  0  0  0  0  0  0  0
  147.1138  142.1622  154.9842 C   0  0  0  0  0  0  0  0  0  0  0  0
  147.1104  141.9340  153.4800 C   0  0  0  0  0  0  0  0  0  0  0  0
  147.2621  140.4220  153.3444 C   0  0  0  0  0  0  0  0  0  0  0  0
  145.5335  133.8856  151.8173 C   0  0  0  0  0  0  0  0  0  0  0  0
  144.7078  129.6536  151.2564 H   0  0  0  0  0  0  0  0  0  0  0  0
  143.4603  130.6001  152.0636 H   0  0  0  0  0  0  0  0  0  0  0  0
  145.1316  130.6847  152.6203 H   0  0  0  0  0  0  0  0  0  0  0  0
  145.7976  131.7398  150.4243 H   0  0  0  0  0  0  0  0  0  0  0  0
  144.1425  131.6590  149.8778 H   0  0  0  0  0  0  0  0  0  0  0  0
  142.4332  132.8712  151.1630 H   0  0  0  0  0  0  0  0  0  0  0  0
  141.8681  135.0832  152.1247 H   0  0  0  0  0  0  0  0  0  0  0  0
  147.2113  135.9720  152.2305 H   0  0  0  0  0  0  0  0  0  0  0  0
  148.2367  137.3641  153.2511 H   0  0  0  0  0  0  0  0  0  0  0  0
  147.2654  138.4195  155.9099 H   0  0  0  0  0  0  0  0  0  0  0  0
  149.5268  139.0574  156.3086 H   0  0  0  0  0  0  0  0  0  0  0  0
  150.8512  137.0935  156.1254 H   0  0  0  0  0  0  0  0  0  0  0  0
  150.3870  136.8382  154.4283 H   0  0  0  0  0  0  0  0  0  0  0  0
  152.3563  138.8366  155.5003 H   0  0  0  0  0  0  0  0  0  0  0  0
  152.0997  138.3351  153.8269 H   0  0  0  0  0  0  0  0  0  0  0  0
  149.5725  138.8784  153.2021 H   0  0  0  0  0  0  0  0  0  0  0  0
  147.7186  140.7500  156.5119 H   0  0  0  0  0  0  0  0  0  0  0  0
  149.0444  141.5282  155.6805 H   0  0  0  0  0  0  0  0  0  0  0  0
  146.1095  142.0022  155.3790 H   0  0  0  0  0  0  0  0  0  0  0  0
  147.4211  143.1724  155.2561 H   0  0  0  0  0  0  0  0  0  0  0  0
  146.2101  142.3144  152.9966 H   0  0  0  0  0  0  0  0  0  0  0  0
  147.9703  142.4316  153.0299 H   0  0  0  0  0  0  0  0  0  0  0  0
  147.6779  140.1551  152.3722 H   0  0  0  0  0  0  0  0  0  0  0  0
  146.2751  139.9609  153.4016 H   0  0  0  0  0  0  0  0  0  0  0  0
  146.5008  133.4280  151.6856 H   0  0  0  0  0  0  0  0  0  0  0  0
  1  2  1  0  0  0  0
  1 25  1  0  0  0  0
  1 26  1  0  0  0  0
  1 27  1  0  0  0  0
  2  3  1  0  0  0  0
  2 28  1  0  0  0  0
  2 29  1  0  0  0  0
  3 24  1  0  0  0  0
  3  4  1  0  0  0  0
  4  5  2  0  0  0  0
  4 30  1  0  0  0  0
  5  6  1  0  0  0  0
  5 31  1  0  0  0  0
  6  7  2  0  0  0  0
  6  8  1  0  0  0  0
  8  9  1  0  0  0  0
  8 24  2  0  0  0  0
  9 10  1  0  0  0  0
  9 32  1  0  0  0  0
 10 11  2  0  0  0  0
 10 12  1  0  0  0  0
 12 13  1  0  0  0  0
 12 33  1  0  0  0  0
 13 19  1  0  0  0  0
 13 14  1  0  0  0  0
 13 34  1  0  0  0  0
 14 18  1  0  0  0  0
 14 15  1  0  0  0  0
 14 35  1  0  0  0  0
 15 16  1  0  0  0  0
 15 36  1  0  0  0  0
 15 37  1  0  0  0  0
 16 17  1  0  0  0  0
 16 38  1  0  0  0  0
 16 39  1  0  0  0  0
 17 18  1  0  0  0  0
 18 19  1  0  0  0  0
 18 40  1  0  0  0  0
 19 23  1  0  0  0  0
 19 20  1  0  0  0  0
 20 21  1  0  0  0  0
 20 41  1  0  0  0  0
 20 42  1  0  0  0  0
 21 22  1  0  0  0  0
 21 43  1  0  0  0  0
 21 44  1  0  0  0  0
 22 23  1  0  0  0  0
 22 45  1  0  0  0  0
 22 46  1  0  0  0  0
 23 47  1  0  0  0  0
 23 48  1  0  0  0  0
 24 49  1  0  0  0  0
M  END
> <s_m_source_file>
AV-unprocessed.smi

> <i_m_source_file_index>
2339

> <i_lp_mmshare_version>
43012

> <i_f3d_flags>
0

> <s_epik_input>
W0NIM11bQ0gyXW4xW2NIXVtjSF1jKD1PKWMoW2NIXTEpW05IXUMoPU8pW05IXVtDQEBIXTJbQ0BASF0oW0NIMl1bQ0gyXU8zKVtDQEBIXTNDMjRbQ0gyXVtDSDJdW0NIMl1bQ0gyXTQ=

> <s_epik_cmdline>
J2VwaWtfcHl0aG9uJywgJy1waCcsICc3LjAnLCAnLXRuJywgJzgnLCAnLW1hJywgJzIwMCcsICctbWV0YWxfYmluZGluZycsICctaW1hZScsICc8aW5maWxlLm1hZT4nLCAnLW9tYWUnLCAnPG91dGZpbGUubWFlPic=

> <r_lp_tautomer_probability>
1

> <r_epik_Ionization_Penalty>
0.00145966

> <r_epik_Ionization_Penalty_Charging>
0.00143969

> <r_epik_Ionization_Penalty_Neutral>
1.99697e-05

> <r_epik_State_Penalty>
0.000961843

> <r_epik_Charging_Adjusted_Penalty>
0.00240153

> <i_epik_Tot_Q>
0

> <i_epik_Tot_abs_Q>
0

> <r_epik_Metal_State_Penalty>
-0

> <b_epik_Metal_Only>
0

> <s_lp_Force_Field>
OPLS_2005

> <r_lp_Energy>
82.1358

> <b_lp_Chiralities_Consistent>
1

> <s_lp_Variant>
AV-unprocessed.smi:2339-6

> <Gold.Version>
5.8.1

> <Gold.Id.Protein>
6NUR|6NUR_protein|mol2

> <Gold.PLP.Fitness>
45.5708

> <Gold.PLP.PLP>
-38.1463

> <Gold.PLP.part.hbond>
-2.8629

> <Gold.PLP.part.metal>
0.0000

> <Gold.PLP.part.buried>
-5.4331

> <Gold.PLP.part.nonpolar>
-30.1461

> <Gold.PLP.part.repulsive>
0.2398

> <Gold.PLP.ligand.clash>
0.0000

> <Gold.PLP.ligand.torsion>
0.7092

> <Gold.PLP.Chemscore.Hbond>
2.8553

> <Gold.PLP.Chemscore.CHOScore>
0.0000

> <Gold.PLP.Chemscore.Metal>
0.0000

> <Gold.Chemscore.Hbonds>
donor molecule, donor type, donor heavy atom, donor atom, acceptor molecule, acceptor atom, score
      L1  H     9    32       P1  7948  1.00
      L1  H    12    33       P1  7948  0.98
      P1  H  7989  7998       L1    17  1.00
      L1  C     4    30       P1 10186  0.33

> <Gold.PLP.Chemscore.Internal.Correction>
0.2770

> <Gold.Rescore>
     Score         DG    S(hbond)    S(metal)    S(lipo)     H(rot)  DE(clash)    DE(int)     intcor
     17.78     -22.46       2.74        0.00      92.61       1.17       0.12       4.56       ----

> <Gold.Chemscore.Fitness>
17.7796

> <Gold.Chemscore.DG>
-22.4638

> <Gold.Chemscore.ZeroCoef>
-5.4800

> <Gold.Chemscore.Hbond>
2.7351

> <Gold.Chemscore.Metal>
0.0000

> <Gold.Chemscore.Lipo>
92.6142

> <Gold.Chemscore.Internal_Hbond>
0.0000

> <Gold.Chemscore.DEClash>
0.1229

> <Gold.Chemscore.DEInternal>
4.5612

> <Gold.Chemscore.Rot>
1.1670

> <Gold.Chemscore.Internal.Correction>
   9.000000E+99

> <Gold.Chemscore.Hbonds>
donor molecule, donor type, donor heavy atom, donor atom, acceptor molecule, acceptor atom, score
      L1  H     9    32       P1  7948  0.99
      L1  H    12    33       P1  7948  0.93
      P1  H  7989  7998       L1    17  0.76

> <Gold.Chemscore.Hbond.Weighted>
-9.1353

> <Gold.Chemscore.Metal.Weighted>
-0.0000

> <Gold.Chemscore.Lipo.Weighted>
-10.8359

> <Gold.Chemscore.Internal_Hbond.Weighted>
0.0000

> <Gold.Chemscore.DEClash.Weighted>
0.1229

> <Gold.Chemscore.DEInternal.Weighted>
4.5612

> <Gold.Chemscore.Rot.Weighted>
2.9874

> <Gold.Chemscore.Internal.Correction.Weighted>
   9.000000E+99

> <Gold.Protein.RotatedTorsions>
[ 6907 6896 6895 6894 ] final  -36.27 input  -60.11 | X-H torsion
[ 7974 7965 7964 7962 ] final -100.31 input  175.53 | X-H torsion
[ 8008 7997 7996 7995 ] final   -8.92 input   59.86 | X-H torsion
[ 10167 10162 10161 10158 ] final  -35.79 input  -65.29 | X-H torsion
[ 10718 10713 10712 10709 ] final   42.07 input   66.30 | X-H torsion
[ 10763 10752 10751 10750 ] final   -8.46 input  -60.55 | X-H torsion
[ 11005 11000 10999 10996 ] final  157.41 input  -57.11 | X-H torsion

> <Gold.Protein.ActiveResidues>
 VAL166  LYS551  ARG553  GLY616  TRP617  ASP618  TYR619  PRO620  LYS621  CYS622 
 ASP623  PHE694  ASN695  SER759  ASP760  ASP761  ALA762  ILE779  LEU786  VAL792 
 PHE793  MET794  SER795  GLU796  ALA797  LYS798  CYS799  TRP800  GLU811  SER814 

> <Gold.Protein.RotatedAtoms>
  151.0292  134.9527  159.8101 H   0  0  0  0  0  0  0  0  0  0  0  0  # atno 6907 bound_to 6896
  152.5342  134.2802  159.9014 H   0  0  0  0  0  0  0  0  0  0  0  0  # atno 6908 bound_to 6896
  151.2811  133.4167  159.2661 H   0  0  0  0  0  0  0  0  0  0  0  0  # atno 6909 bound_to 6896
  145.2962  140.9365  143.2849 H   0  0  0  0  0  0  0  0  0  0  0  0  # atno 7974 bound_to 7965
  154.5695  140.2368  155.8212 H   0  0  0  0  0  0  0  0  0  0  0  0  # atno 8008 bound_to 7997
  156.2095  140.3030  155.9660 H   0  0  0  0  0  0  0  0  0  0  0  0  # atno 8009 bound_to 7997
  155.2738  140.0419  157.3000 H   0  0  0  0  0  0  0  0  0  0  0  0  # atno 8010 bound_to 7997
  140.7157  143.3453  151.2269 H   0  0  0  0  0  0  0  0  0  0  0  0  # atno 10167 bound_to 10162
  157.4007  130.7858  149.7346 H   0  0  0  0  0  0  0  0  0  0  0  0  # atno 10718 bound_to 10713
  153.4408  135.7013  153.6170 H   0  0  0  0  0  0  0  0  0  0  0  0  # atno 10763 bound_to 10752
  153.4546  135.3750  155.2303 H   0  0  0  0  0  0  0  0  0  0  0  0  # atno 10764 bound_to 10752
  154.8727  135.4005  154.3806 H   0  0  0  0  0  0  0  0  0  0  0  0  # atno 10765 bound_to 10752
  140.1767  134.8505  157.2755 H   0  0  0  0  0  0  0  0  0  0  0  0  # atno 11005 bound_to 11000
  144.9131  139.4503  143.6577 LP  0  0  0  0  0  0  0  0  0  0  0  0  # atno 17320 bound_to 7965
  146.3168  139.7951  142.8977 LP  0  0  0  0  0  0  0  0  0  0  0  0  # atno 17321 bound_to 7965
  139.6971  143.9595  152.2888 LP  0  0  0  0  0  0  0  0  0  0  0  0  # atno 17342 bound_to 10162
  139.9276  144.6761  150.8397 LP  0  0  0  0  0  0  0  0  0  0  0  0  # atno 17343 bound_to 10162
  155.9822  130.4012  150.3428 LP  0  0  0  0  0  0  0  0  0  0  0  0  # atno 17370 bound_to 10713
  157.1555  131.0332  151.2865 LP  0  0  0  0  0  0  0  0  0  0  0  0  # atno 17371 bound_to 10713
  140.2314  134.3904  155.7520 LP  0  0  0  0  0  0  0  0  0  0  0  0  # atno 17394 bound_to 11000
  141.2221  133.7217  156.8647 LP  0  0  0  0  0  0  0  0  0  0  0  0  # atno 17395 bound_to 11000

$$$$
