AV-unprocessed.smi:16|AV-procd|sdf|90|dock8
  -GOLD-   2262015233D 1   1.00000     0.00000
 Structure written by MMmdl.
 60 64  0  0  0  0  0  0  0  0  2 V2000
  146.4396  132.4036  152.5961 C   0  0  0  0  0  0  0  0  0  0  0  0
  147.0776  131.1171  153.1388 C   0  0  0  0  0  0  0  0  0  0  0  0
  148.5231  131.0139  152.8027 N   0  3  2  0  0  0  0  0  0  0  0  0
  149.1027  129.6514  152.9611 C   0  0  0  0  0  0  0  0  0  0  0  0
  149.3461  129.2879  154.4385 C   0  0  0  0  0  0  0  0  0  0  0  0
  150.2112  130.3539  155.1227 C   0  0  2  0  0  0  0  0  0  0  0  0
  150.3567  130.0387  156.5026 O   0  0  0  0  0  0  0  0  0  0  0  0
  151.2137  130.9622  157.1661 C   0  0  0  0  0  0  0  0  0  0  0  0
  150.6158  132.3753  157.0699 C   0  0  0  0  0  0  0  0  0  0  0  0
  150.3794  132.7360  155.6740 N   0  0  0  0  0  0  0  0  0  0  0  0
  149.9681  134.0160  155.5280 C   0  0  0  0  0  0  0  0  0  0  0  0
  148.7778  134.2882  154.9310 N   0  0  0  0  0  0  0  0  0  0  0  0
  148.3871  135.5569  154.7728 C   0  0  0  0  0  0  0  0  0  0  0  0
  149.0276  136.6766  155.1171 N   0  0  0  0  0  0  0  0  0  0  0  0
  150.2284  136.4029  155.7041 C   0  0  0  0  0  0  0  0  0  0  0  0
  150.7663  135.1098  155.9515 C   0  0  0  0  0  0  0  0  0  0  0  0
  152.0037  135.2152  156.5720 N   0  0  0  0  0  0  0  0  0  0  0  0
  152.1843  136.5024  156.6949 C   0  0  0  0  0  0  0  0  0  0  0  0
  151.1829  137.2898  156.1707 N   0  0  0  0  0  0  0  0  0  0  0  0
  151.1150  138.7211  156.1998 C   0  0  0  0  0  0  0  0  0  0  0  0
  149.8386  139.4457  156.6337 C   0  0  0  0  0  0  0  0  0  0  0  0
  150.1617  140.5910  155.6476 C   0  0  0  0  0  0  0  0  0  0  0  0
  148.9634  141.1412  154.8573 C   0  0  0  0  0  0  0  0  0  0  0  0
  149.3143  141.4053  153.5141 O   0  0  0  0  0  0  0  0  0  0  0  0
  150.9592  141.7684  156.2441 C   0  0  0  0  0  0  0  0  0  0  0  0
  150.1715  142.5256  157.1406 O   0  0  0  0  0  0  0  0  0  0  0  0
  151.0093  139.5333  154.9067 C   0  0  0  0  0  0  0  0  0  0  0  0
  149.5575  131.7449  154.9752 C   0  0  1  0  0  0  0  0  0  0  0  0
  149.3569  132.0500  153.4686 C   0  0  0  0  0  0  0  0  0  0  0  0
  151.1974  130.3548  154.6536 H   0  0  0  0  0  0  0  0  0  0  0  0
  148.5817  131.7260  155.4635 H   0  0  0  0  0  0  0  0  0  0  0  0
  145.4124  132.4984  152.9488 H   0  0  0  0  0  0  0  0  0  0  0  0
  146.4080  132.4184  151.5070 H   0  0  0  0  0  0  0  0  0  0  0  0
  146.9853  133.2861  152.9313 H   0  0  0  0  0  0  0  0  0  0  0  0
  146.9647  131.1276  154.2236 H   0  0  0  0  0  0  0  0  0  0  0  0
  146.5309  130.2430  152.7857 H   0  0  0  0  0  0  0  0  0  0  0  0
  148.4743  128.9013  152.4831 H   0  0  0  0  0  0  0  0  0  0  0  0
  150.0535  129.6269  152.4268 H   0  0  0  0  0  0  0  0  0  0  0  0
  148.3971  129.1833  154.9649 H   0  0  0  0  0  0  0  0  0  0  0  0
  149.8376  128.3166  154.5026 H   0  0  0  0  0  0  0  0  0  0  0  0
  151.3144  130.6669  158.2105 H   0  0  0  0  0  0  0  0  0  0  0  0
  152.2127  130.9311  156.7281 H   0  0  0  0  0  0  0  0  0  0  0  0
  149.6787  132.4102  157.6279 H   0  0  0  0  0  0  0  0  0  0  0  0
  151.2920  133.0969  157.5304 H   0  0  0  0  0  0  0  0  0  0  0  0
  147.4261  135.6956  154.2996 H   0  0  0  0  0  0  0  0  0  0  0  0
  153.0645  136.9152  157.1665 H   0  0  0  0  0  0  0  0  0  0  0  0
  151.9671  139.0512  156.7965 H   0  0  0  0  0  0  0  0  0  0  0  0
  148.9362  138.8927  156.3664 H   0  0  0  0  0  0  0  0  0  0  0  0
  149.8202  139.7310  157.6860 H   0  0  0  0  0  0  0  0  0  0  0  0
  148.1424  140.4235  154.8505 H   0  0  0  0  0  0  0  0  0  0  0  0
  148.5675  142.0518  155.3074 H   0  0  0  0  0  0  0  0  0  0  0  0
  149.3820  140.5822  153.0550 H   0  0  0  0  0  0  0  0  0  0  0  0
  151.8348  141.4150  156.7890 H   0  0  0  0  0  0  0  0  0  0  0  0
  151.3369  142.4300  155.4642 H   0  0  0  0  0  0  0  0  0  0  0  0
  149.7888  143.2482  156.6666 H   0  0  0  0  0  0  0  0  0  0  0  0
  151.9627  139.8965  154.5215 H   0  0  0  0  0  0  0  0  0  0  0  0
  150.4485  139.0106  154.1294 H   0  0  0  0  0  0  0  0  0  0  0  0
  150.3264  132.0891  152.9695 H   0  0  0  0  0  0  0  0  0  0  0  0
  148.8983  133.0270  153.3122 H   0  0  0  0  0  0  0  0  0  0  0  0
  148.5737  131.2259  151.8165 H   0  0  0  0  0  0  0  0  0  0  0  0
  1  2  1  0  0  0  0
  1 32  1  0  0  0  0
  1 33  1  0  0  0  0
  1 34  1  0  0  0  0
  2  3  1  0  0  0  0
  2 35  1  0  0  0  0
  2 36  1  0  0  0  0
  3 29  1  0  0  0  0
  3  4  1  0  0  0  0
  3 60  1  0  0  0  0
  4  5  1  0  0  0  0
  4 37  1  0  0  0  0
  4 38  1  0  0  0  0
  5  6  1  0  0  0  0
  5 39  1  0  0  0  0
  5 40  1  0  0  0  0
  6 30  1  0  0  0  0
  6 28  1  0  0  0  0
  6  7  1  0  0  0  0
  7  8  1  0  0  0  0
  8  9  1  0  0  0  0
  8 41  1  0  0  0  0
  8 42  1  0  0  0  0
  9 10  1  0  0  0  0
  9 43  1  0  0  0  0
  9 44  1  0  0  0  0
 10 11  1  0  0  0  0
 10 28  1  0  0  0  0
 11 16  1  0  0  0  0
 11 12  2  0  0  0  0
 12 13  1  0  0  0  0
 13 14  2  0  0  0  0
 13 45  1  0  0  0  0
 14 15  1  0  0  0  0
 15 19  1  0  0  0  0
 15 16  2  0  0  0  0
 16 17  1  0  0  0  0
 17 18  2  0  0  0  0
 18 19  1  0  0  0  0
 18 46  1  0  0  0  0
 19 20  1  0  0  0  0
 20 27  1  0  0  0  0
 20 21  1  0  0  0  0
 20 47  1  0  0  0  0
 21 22  1  0  0  0  0
 21 48  1  0  0  0  0
 21 49  1  0  0  0  0
 22 23  1  0  0  0  0
 22 25  1  0  0  0  0
 22 27  1  0  0  0  0
 23 24  1  0  0  0  0
 23 50  1  0  0  0  0
 23 51  1  0  0  0  0
 24 52  1  0  0  0  0
 25 26  1  0  0  0  0
 25 53  1  0  0  0  0
 25 54  1  0  0  0  0
 26 55  1  0  0  0  0
 27 56  1  0  0  0  0
 27 57  1  0  0  0  0
 28 31  1  0  0  0  0
 28 29  1  0  0  0  0
 29 58  1  0  0  0  0
 29 59  1  0  0  0  0
M  CHG  1   3   1
M  END
> <s_m_source_file>
AV-unprocessed.smi

> <i_m_source_file_index>
16

> <i_lp_mmshare_version>
43012

> <i_f3d_flags>
0

> <s_epik_input>
W0NIM11bQ0gyXU4oW0NIMl1bQ0gyXTEpW0NIMl1bQ0BASF0oW0NAQEhdMTIpTihbQ0gyXVtDSDJdTzIpYyhuW2NIXW4zKWMoYzM0KW5bY0hdbjRbQ0hdKFtDSDJdNSlbQ0gyXUM1KFtDSDJdW09IXSlbQ0gyXVtPSF0=

> <s_epik_cmdline>
J2VwaWtfcHl0aG9uJywgJy1waCcsICc3LjAnLCAnLXRuJywgJzgnLCAnLW1hJywgJzIwMCcsICctbWV0YWxfYmluZGluZycsICctaW1hZScsICc8aW5maWxlLm1hZT4nLCAnLW9tYWUnLCAnPG91dGZpbGUubWFlPic=

> <r_lp_tautomer_probability>
1

> <r_epik_Ionization_Penalty>
0.0135603

> <r_epik_Ionization_Penalty_Charging>
0.0131385

> <r_epik_Ionization_Penalty_Neutral>
0.000421734

> <r_epik_State_Penalty>
0.0102091

> <r_epik_Charging_Adjusted_Penalty>
0.0233476

> <i_epik_Tot_Q>
1

> <i_epik_Tot_abs_Q>
1

> <r_epik_Metal_State_Penalty>
0.0103746

> <b_epik_Metal_Only>
0

> <s_lp_Force_Field>
OPLS_2005

> <r_lp_Energy>
56.2472

> <b_lp_Chiralities_Consistent>
1

> <s_lp_Variant>
AV-unprocessed.smi:16-4

> <Gold.Version>
5.8.1

> <Gold.Id.Protein>
6NUR|6NUR_protein|mol2

> <Gold.PLP.Fitness>
46.1485

> <Gold.PLP.PLP>
-36.6007

> <Gold.PLP.part.hbond>
-6.0000

> <Gold.PLP.part.metal>
0.0000

> <Gold.PLP.part.buried>
-1.8525

> <Gold.PLP.part.nonpolar>
-26.6520

> <Gold.PLP.part.repulsive>
0.2103

> <Gold.PLP.ligand.clash>
0.5199

> <Gold.PLP.ligand.torsion>
0.9431

> <Gold.PLP.Chemscore.Hbond>
3.7680

> <Gold.PLP.Chemscore.CHOScore>
0.0000

> <Gold.PLP.Chemscore.Metal>
0.0000

> <Gold.Chemscore.Hbonds>
donor molecule, donor type, donor heavy atom, donor atom, acceptor molecule, acceptor atom, score
      L1  H     3    60       P1 10747  1.00
      L1  H    24    52       P1  7957  0.69
      L1  H    26    55       P1  8028  1.00
      P1  H  8011  8017       L1    24  0.91
      P1  H 10752 10765       L1    17  0.15

> <Gold.PLP.Chemscore.Internal.Correction>
0.6500

> <Gold.Rescore>
     Score         DG    S(hbond)    S(metal)    S(lipo)     H(rot)  DE(clash)    DE(int)     intcor
     15.17     -17.87       3.34        0.00      83.24       3.33       0.19       2.50       ----

> <Gold.Chemscore.Fitness>
15.1711

> <Gold.Chemscore.DG>
-17.8656

> <Gold.Chemscore.ZeroCoef>
-5.4800

> <Gold.Chemscore.Hbond>
3.3411

> <Gold.Chemscore.Metal>
0.0000

> <Gold.Chemscore.Lipo>
83.2360

> <Gold.Chemscore.Internal_Hbond>
0.0000

> <Gold.Chemscore.DEClash>
0.1945

> <Gold.Chemscore.DEInternal>
2.5000

> <Gold.Chemscore.Rot>
3.3251

> <Gold.Chemscore.Internal.Correction>
   9.000000E+99

> <Gold.Chemscore.Hbonds>
donor molecule, donor type, donor heavy atom, donor atom, acceptor molecule, acceptor atom, score
      L1  H     3    60       P1 10747  0.94
      L1  H    24    52       P1  7957  0.68
      L1  H    26    55       P1  8028  0.97
      P1  H  8011  8017       L1    24  0.22

> <Gold.Chemscore.Hbond.Weighted>
-11.1592

> <Gold.Chemscore.Metal.Weighted>
-0.0000

> <Gold.Chemscore.Lipo.Weighted>
-9.7386

> <Gold.Chemscore.Internal_Hbond.Weighted>
0.0000

> <Gold.Chemscore.DEClash.Weighted>
0.1945

> <Gold.Chemscore.DEInternal.Weighted>
2.5000

> <Gold.Chemscore.Rot.Weighted>
8.5122

> <Gold.Chemscore.Internal.Correction.Weighted>
   9.000000E+99

> <Gold.Protein.RotatedTorsions>
[ 6907 6896 6895 6894 ] final  158.41 input  -60.11 | X-H torsion
[ 7974 7965 7964 7962 ] final  115.42 input  175.53 | X-H torsion
[ 8008 7997 7996 7995 ] final  -95.49 input   59.86 | X-H torsion
[ 10167 10162 10161 10158 ] final   80.11 input  -65.29 | X-H torsion
[ 10718 10713 10712 10709 ] final -100.86 input   66.30 | X-H torsion
[ 10763 10752 10751 10750 ] final -135.64 input  -60.55 | X-H torsion
[ 11005 11000 10999 10996 ] final -157.23 input  -57.11 | X-H torsion

> <Gold.Protein.ActiveResidues>
 VAL166  LYS551  ARG553  GLY616  TRP617  ASP618  TYR619  PRO620  LYS621  CYS622 
 ASP623  PHE694  ASN695  SER759  ASP760  ASP761  ALA762  ILE779  LEU786  VAL792 
 PHE793  MET794  SER795  GLU796  ALA797  LYS798  CYS799  TRP800  GLU811  SER814 

> <Gold.Protein.RotatedAtoms>
  152.0007  133.3824  159.4180 H   0  0  0  0  0  0  0  0  0  0  0  0  # atno 6907 bound_to 6896
  150.6910  134.3837  159.5054 H   0  0  0  0  0  0  0  0  0  0  0  0  # atno 6908 bound_to 6896
  152.1583  134.8932  160.0594 H   0  0  0  0  0  0  0  0  0  0  0  0  # atno 6909 bound_to 6896
  145.1922  139.2994  143.4362 H   0  0  0  0  0  0  0  0  0  0  0  0  # atno 7974 bound_to 7965
  154.7620  140.0479  157.0981 H   0  0  0  0  0  0  0  0  0  0  0  0  # atno 8008 bound_to 7997
  154.9926  140.3115  155.4880 H   0  0  0  0  0  0  0  0  0  0  0  0  # atno 8009 bound_to 7997
  156.2906  140.2216  156.5031 H   0  0  0  0  0  0  0  0  0  0  0  0  # atno 8010 bound_to 7997
  139.9532  144.6011  150.8141 H   0  0  0  0  0  0  0  0  0  0  0  0  # atno 10167 bound_to 10162
  156.0176  130.5347  150.6879 H   0  0  0  0  0  0  0  0  0  0  0  0  # atno 10718 bound_to 10713
  154.8699  135.3697  154.4931 H   0  0  0  0  0  0  0  0  0  0  0  0  # atno 10763 bound_to 10752
  153.5576  135.7023  153.5567 H   0  0  0  0  0  0  0  0  0  0  0  0  # atno 10764 bound_to 10752
  153.3657  135.4034  155.1715 H   0  0  0  0  0  0  0  0  0  0  0  0  # atno 10765 bound_to 10752
  140.6669  134.4289  157.5233 H   0  0  0  0  0  0  0  0  0  0  0  0  # atno 11005 bound_to 11000
  146.3434  140.2138  142.8590 LP  0  0  0  0  0  0  0  0  0  0  0  0  # atno 17320 bound_to 7965
  145.0030  140.8648  143.5270 LP  0  0  0  0  0  0  0  0  0  0  0  0  # atno 17321 bound_to 7965
  140.7576  143.3090  151.2891 LP  0  0  0  0  0  0  0  0  0  0  0  0  # atno 17342 bound_to 10162
  139.6612  144.0186  152.2693 LP  0  0  0  0  0  0  0  0  0  0  0  0  # atno 17343 bound_to 10162
  157.4567  131.0878  151.0789 LP  0  0  0  0  0  0  0  0  0  0  0  0  # atno 17370 bound_to 10713
  157.1289  130.6094  149.5524 LP  0  0  0  0  0  0  0  0  0  0  0  0  # atno 17371 bound_to 10713
  139.8994  134.8591  156.1961 LP  0  0  0  0  0  0  0  0  0  0  0  0  # atno 17394 bound_to 11000
  141.0422  133.6932  156.1619 LP  0  0  0  0  0  0  0  0  0  0  0  0  # atno 17395 bound_to 11000

$$$$
