AV-unprocessed.smi:544|AV-procd|sdf|2878|dock5
  -GOLD-   2262023373D 1   1.00000     0.00000
 Structure written by MMmdl.
 49 51  0  0  0  0  0  0  0  0  1 V2000
  152.8144  137.6439  159.6647 C   0  0  0  0  0  0  0  0  0  0  0  0
  152.1995  138.7942  158.8645 C   0  0  0  0  0  0  0  0  0  0  0  0
  151.5044  138.2522  157.7561 O   0  0  0  0  0  0  0  0  0  0  0  0
  152.2396  138.3247  156.5462 C   0  0  0  0  0  0  0  0  0  0  0  0
  152.3599  139.7820  156.0622 C   0  0  0  0  0  0  0  0  0  0  0  0
  151.0748  140.4461  155.8468 N   0  0  0  0  0  0  0  0  0  0  0  0
  150.6378  141.6373  156.3406 C   0  0  0  0  0  0  0  0  0  0  0  0
  151.4115  142.4167  157.2004 N   0  0  0  0  0  0  0  0  0  0  0  0
  151.7553  143.8224  156.9958 C   0  0  0  0  0  0  0  0  0  0  0  0
  151.5328  144.6576  158.2677 C   0  0  0  0  0  0  0  0  0  0  0  0
  152.3471  144.0828  159.4345 C   0  0  0  0  0  0  0  0  0  0  0  0
  152.0624  142.5790  159.5949 C   0  0  2  0  0  0  0  0  0  0  0  0
  152.9260  141.9561  160.6999 C   0  0  0  0  0  0  0  0  0  0  0  0
  152.2640  141.8564  158.2471 C   0  0  0  0  0  0  0  0  0  0  0  0
  149.4358  142.0174  155.8992 N   0  0  0  0  0  0  0  0  0  0  0  0
  149.0633  140.9749  155.0658 C   0  0  0  0  0  0  0  0  0  0  0  0
  150.0361  140.0300  155.0091 C   0  0  0  0  0  0  0  0  0  0  0  0
  149.9190  138.8333  154.1625 C   0  0  0  0  0  0  0  0  0  0  0  0
  150.8003  137.9827  154.0604 O   0  0  0  0  0  0  0  0  0  0  0  0
  148.7389  138.7630  153.5006 N   0  0  0  0  0  0  0  0  0  0  0  0
  147.7148  139.6692  153.5278 C   0  0  0  0  0  0  0  0  0  0  0  0
  146.6919  139.4606  152.8756 O   0  0  0  0  0  0  0  0  0  0  0  0
  147.8795  140.7934  154.2955 N   0  0  0  0  0  0  0  0  0  0  0  0
  146.8256  141.8084  154.3497 C   0  0  0  0  0  0  0  0  0  0  0  0
  148.6014  137.9510  152.9168 H   0  0  0  0  0  0  0  0  0  0  0  0
  153.3606  138.0192  160.5302 H   0  0  0  0  0  0  0  0  0  0  0  0
  153.5100  137.0694  159.0523 H   0  0  0  0  0  0  0  0  0  0  0  0
  152.0432  136.9621  160.0244 H   0  0  0  0  0  0  0  0  0  0  0  0
  151.5173  139.3648  159.4964 H   0  0  0  0  0  0  0  0  0  0  0  0
  152.9828  139.4726  158.5230 H   0  0  0  0  0  0  0  0  0  0  0  0
  153.2233  137.8845  156.6965 H   0  0  0  0  0  0  0  0  0  0  0  0
  151.7471  137.7298  155.7758 H   0  0  0  0  0  0  0  0  0  0  0  0
  152.9564  140.3653  156.7618 H   0  0  0  0  0  0  0  0  0  0  0  0
  152.9176  139.8105  155.1269 H   0  0  0  0  0  0  0  0  0  0  0  0
  152.8026  143.8835  156.6968 H   0  0  0  0  0  0  0  0  0  0  0  0
  151.1901  144.2281  156.1610 H   0  0  0  0  0  0  0  0  0  0  0  0
  151.8194  145.6940  158.0885 H   0  0  0  0  0  0  0  0  0  0  0  0
  150.4746  144.6706  158.5275 H   0  0  0  0  0  0  0  0  0  0  0  0
  153.4100  144.2387  159.2450 H   0  0  0  0  0  0  0  0  0  0  0  0
  152.1115  144.6175  160.3552 H   0  0  0  0  0  0  0  0  0  0  0  0
  151.0173  142.4613  159.8862 H   0  0  0  0  0  0  0  0  0  0  0  0
  153.9879  142.0363  160.4652 H   0  0  0  0  0  0  0  0  0  0  0  0
  152.6925  140.8992  160.8300 H   0  0  0  0  0  0  0  0  0  0  0  0
  152.7573  142.4516  161.6564 H   0  0  0  0  0  0  0  0  0  0  0  0
  152.0357  140.7963  158.3637 H   0  0  0  0  0  0  0  0  0  0  0  0
  153.3069  141.9162  157.9329 H   0  0  0  0  0  0  0  0  0  0  0  0
  146.4727  142.0629  153.3492 H   0  0  0  0  0  0  0  0  0  0  0  0
  147.1653  142.7358  154.8109 H   0  0  0  0  0  0  0  0  0  0  0  0
  145.9775  141.4406  154.9280 H   0  0  0  0  0  0  0  0  0  0  0  0
  1  2  1  0  0  0  0
  1 26  1  0  0  0  0
  1 27  1  0  0  0  0
  1 28  1  0  0  0  0
  2  3  1  0  0  0  0
  2 29  1  0  0  0  0
  2 30  1  0  0  0  0
  3  4  1  0  0  0  0
  4  5  1  0  0  0  0
  4 31  1  0  0  0  0
  4 32  1  0  0  0  0
  5  6  1  0  0  0  0
  5 33  1  0  0  0  0
  5 34  1  0  0  0  0
  6 17  1  0  0  0  0
  6  7  1  0  0  0  0
  7  8  1  0  0  0  0
  7 15  2  0  0  0  0
  8 14  1  0  0  0  0
  8  9  1  0  0  0  0
  9 10  1  0  0  0  0
  9 35  1  0  0  0  0
  9 36  1  0  0  0  0
 10 11  1  0  0  0  0
 10 37  1  0  0  0  0
 10 38  1  0  0  0  0
 11 12  1  0  0  0  0
 11 39  1  0  0  0  0
 11 40  1  0  0  0  0
 12 13  1  0  0  0  0
 12 14  1  0  0  0  0
 12 41  1  0  0  0  0
 13 42  1  0  0  0  0
 13 43  1  0  0  0  0
 13 44  1  0  0  0  0
 14 45  1  0  0  0  0
 14 46  1  0  0  0  0
 15 16  1  0  0  0  0
 16 23  1  0  0  0  0
 16 17  2  0  0  0  0
 17 18  1  0  0  0  0
 18 19  2  0  0  0  0
 18 20  1  0  0  0  0
 20 25  1  0  0  0  0
 20 21  1  0  0  0  0
 21 22  2  0  0  0  0
 21 23  1  0  0  0  0
 23 24  1  0  0  0  0
 24 47  1  0  0  0  0
 24 48  1  0  0  0  0
 24 49  1  0  0  0  0
M  END
> <s_m_source_file>
AV-unprocessed.smi

> <i_m_source_file_index>
544

> <i_lp_mmshare_version>
43012

> <i_f3d_flags>
0

> <s_epik_input>
W0NIM11uMWMoPU8pW25IXWMoPU8pYyhjMTIpbihbQ0gyXVtDSDJdT1tDSDJdW0NIM10pYyhuMilOM1tDSDJdW0NIMl1bQ0gyXVtDQEBIXShbQ0gzXSlbQ0gyXTM=

> <s_epik_cmdline>
J2VwaWtfcHl0aG9uJywgJy1waCcsICc3LjAnLCAnLXRuJywgJzgnLCAnLW1hJywgJzIwMCcsICctbWV0YWxfYmluZGluZycsICctaW1hZScsICc8aW5maWxlLm1hZT4nLCAnLW9tYWUnLCAnPG91dGZpbGUubWFlPic=

> <r_lp_tautomer_probability>
1

> <r_epik_Ionization_Penalty>
0.000382477

> <r_epik_Ionization_Penalty_Charging>
0.000119472

> <r_epik_Ionization_Penalty_Neutral>
0.000263005

> <r_epik_State_Penalty>
-0

> <r_epik_Charging_Adjusted_Penalty>
0.000119472

> <i_epik_Tot_Q>
0

> <i_epik_Tot_abs_Q>
0

> <r_epik_Metal_State_Penalty>
0.0919313

> <b_epik_Metal_Only>
0

> <s_lp_Force_Field>
OPLS_2005

> <r_lp_Energy>
37.0872

> <b_lp_Chiralities_Consistent>
1

> <s_lp_Variant>
AV-unprocessed.smi:544-2

> <Gold.Version>
5.8.1

> <Gold.Id.Protein>
6NUR|6NUR_protein|mol2

> <Gold.PLP.Fitness>
48.1093

> <Gold.PLP.PLP>
-46.7166

> <Gold.PLP.part.hbond>
-2.0000

> <Gold.PLP.part.metal>
0.0000

> <Gold.PLP.part.buried>
-4.1190

> <Gold.PLP.part.nonpolar>
-43.3266

> <Gold.PLP.part.repulsive>
3.4179

> <Gold.PLP.ligand.clash>
0.0000

> <Gold.PLP.ligand.torsion>
1.0822

> <Gold.PLP.Chemscore.Hbond>
1.0000

> <Gold.PLP.Chemscore.CHOScore>
0.0000

> <Gold.PLP.Chemscore.Metal>
0.0000

> <Gold.Chemscore.Hbonds>
donor molecule, donor type, donor heavy atom, donor atom, acceptor molecule, acceptor atom, score
      L1  H    20    25       P1  7948  1.00

> <Gold.PLP.Chemscore.Internal.Correction>
0.5570

> <Gold.Rescore>
     Score         DG    S(hbond)    S(metal)    S(lipo)     H(rot)  DE(clash)    DE(int)     intcor
     11.81     -16.41       0.98        0.00      99.97       1.58       1.27       3.33       ----

> <Gold.Chemscore.Fitness>
11.8097

> <Gold.Chemscore.DG>
-16.4146

> <Gold.Chemscore.ZeroCoef>
-5.4800

> <Gold.Chemscore.Hbond>
0.9834

> <Gold.Chemscore.Metal>
0.0000

> <Gold.Chemscore.Lipo>
99.9687

> <Gold.Chemscore.Internal_Hbond>
0.0000

> <Gold.Chemscore.DEClash>
1.2724

> <Gold.Chemscore.DEInternal>
3.3325

> <Gold.Chemscore.Rot>
1.5806

> <Gold.Chemscore.Internal.Correction>
   9.000000E+99

> <Gold.Chemscore.Hbonds>
donor molecule, donor type, donor heavy atom, donor atom, acceptor molecule, acceptor atom, score
      L1  H    20    25       P1  7948  0.93

> <Gold.Chemscore.Hbond.Weighted>
-3.2845

> <Gold.Chemscore.Metal.Weighted>
-0.0000

> <Gold.Chemscore.Lipo.Weighted>
-11.6963

> <Gold.Chemscore.Internal_Hbond.Weighted>
0.0000

> <Gold.Chemscore.DEClash.Weighted>
1.2724

> <Gold.Chemscore.DEInternal.Weighted>
3.3325

> <Gold.Chemscore.Rot.Weighted>
4.0463

> <Gold.Chemscore.Internal.Correction.Weighted>
   9.000000E+99

> <Gold.Protein.RotatedTorsions>
[ 6907 6896 6895 6894 ] final   64.06 input  -60.11 | X-H torsion
[ 7974 7965 7964 7962 ] final  138.50 input  175.53 | X-H torsion
[ 8008 7997 7996 7995 ] final  140.52 input   59.86 | X-H torsion
[ 10167 10162 10161 10158 ] final -134.72 input  -65.29 | X-H torsion
[ 10718 10713 10712 10709 ] final  136.55 input   66.30 | X-H torsion
[ 10763 10752 10751 10750 ] final  148.48 input  -60.55 | X-H torsion
[ 11005 11000 10999 10996 ] final -111.75 input  -57.11 | X-H torsion

> <Gold.Protein.ActiveResidues>
 VAL166  LYS551  ARG553  GLY616  TRP617  ASP618  TYR619  PRO620  LYS621  CYS622 
 ASP623  PHE694  ASN695  SER759  ASP760  ASP761  ALA762  ILE779  LEU786  VAL792 
 PHE793  MET794  SER795  GLU796  ALA797  LYS798  CYS799  TRP800  GLU811  SER814 

> <Gold.Protein.RotatedAtoms>
  152.4302  134.5792  159.9942 H   0  0  0  0  0  0  0  0  0  0  0  0  # atno 6907 bound_to 6896
  151.5917  133.3360  159.3037 H   0  0  0  0  0  0  0  0  0  0  0  0  # atno 6908 bound_to 6896
  150.8194  134.7430  159.6824 H   0  0  0  0  0  0  0  0  0  0  0  0  # atno 6909 bound_to 6896
  144.9367  139.4981  143.5592 H   0  0  0  0  0  0  0  0  0  0  0  0  # atno 7974 bound_to 7965
  156.2978  140.2339  156.4415 H   0  0  0  0  0  0  0  0  0  0  0  0  # atno 8008 bound_to 7997
  154.8182  140.0439  157.1412 H   0  0  0  0  0  0  0  0  0  0  0  0  # atno 8009 bound_to 7997
  154.9345  140.3021  155.5154 H   0  0  0  0  0  0  0  0  0  0  0  0  # atno 8010 bound_to 7997
  139.8851  143.6791  152.2621 H   0  0  0  0  0  0  0  0  0  0  0  0  # atno 10167 bound_to 10162
  157.4455  131.1061  151.0094 H   0  0  0  0  0  0  0  0  0  0  0  0  # atno 10718 bound_to 10713
  154.0555  135.2878  155.3333 H   0  0  0  0  0  0  0  0  0  0  0  0  # atno 10763 bound_to 10752
  154.6842  135.5251  153.8307 H   0  0  0  0  0  0  0  0  0  0  0  0  # atno 10764 bound_to 10752
  153.0543  135.6589  154.0747 H   0  0  0  0  0  0  0  0  0  0  0  0  # atno 10765 bound_to 10752
  141.0716  133.9370  157.2473 H   0  0  0  0  0  0  0  0  0  0  0  0  # atno 11005 bound_to 11000
  146.3269  139.8356  142.8900 LP  0  0  0  0  0  0  0  0  0  0  0  0  # atno 17320 bound_to 7965
  145.3056  141.0206  143.3584 LP  0  0  0  0  0  0  0  0  0  0  0  0  # atno 17321 bound_to 7965
  139.7160  144.7611  151.1033 LP  0  0  0  0  0  0  0  0  0  0  0  0  # atno 17342 bound_to 10162
  140.7737  143.5269  150.9470 LP  0  0  0  0  0  0  0  0  0  0  0  0  # atno 17343 bound_to 10162
  157.0942  130.5955  149.5446 LP  0  0  0  0  0  0  0  0  0  0  0  0  # atno 17370 bound_to 10713
  155.9966  130.5035  150.7501 LP  0  0  0  0  0  0  0  0  0  0  0  0  # atno 17371 bound_to 10713
  139.9529  135.0171  156.9046 LP  0  0  0  0  0  0  0  0  0  0  0  0  # atno 17394 bound_to 11000
  140.5661  134.0488  155.7415 LP  0  0  0  0  0  0  0  0  0  0  0  0  # atno 17395 bound_to 11000

$$$$
