AV-unprocessed.smi:223|AV-procd|sdf|1705|dock6
  -GOLD-   2262020163D 1   1.00000     0.00000
 Structure written by MMmdl.
 47 50  0  0  0  0  0  0  0  0  1 V2000
  150.9996  140.8057  157.9810 C   0  0  0  0  0  0  0  0  0  0  0  0
  150.5425  139.6553  157.0767 C   0  0  2  0  0  0  0  0  0  0  0  0
  151.3639  139.5913  155.8571 C   0  0  0  0  0  0  0  0  0  0  0  0
  152.0099  139.5418  154.8986 N   0  0  0  0  0  0  0  0  0  0  0  0
  149.0455  139.7770  156.7346 C   0  0  0  0  0  0  0  0  0  0  0  0
  148.7388  139.3456  155.3712 N   0  0  0  0  0  0  0  0  0  0  0  0
  147.7982  138.3787  155.1506 C   0  0  0  0  0  0  0  0  0  0  0  0
  147.4741  137.5739  156.1981 N   0  0  0  0  0  0  0  0  0  0  0  0
  146.5594  136.6103  156.0736 C   0  0  0  0  0  0  0  0  0  0  0  0
  145.8463  136.2754  155.0002 N   0  0  0  0  0  0  0  0  0  0  0  0
  146.1559  137.0690  153.9367 C   0  0  0  0  0  0  0  0  0  0  0  0
  147.1124  138.1284  153.9178 C   0  0  0  0  0  0  0  0  0  0  0  0
  147.1517  138.6777  152.6386 N   0  0  0  0  0  0  0  0  0  0  0  0
  146.2706  138.0010  151.9567 C   0  0  0  0  0  0  0  0  0  0  0  0
  145.6155  137.0210  152.6631 N   0  0  0  0  0  0  0  0  0  0  0  0
  144.5886  136.1208  152.1594 C   0  0  0  0  0  0  0  0  0  0  0  0
  145.0928  135.1555  151.0599 C   0  0  2  0  0  0  0  0  0  0  0  0
  145.4062  135.9006  149.8962 O   0  0  0  0  0  0  0  0  0  0  0  0
  144.0655  134.0947  150.6861 C   0  0  0  0  0  0  0  0  0  0  0  0
  144.9354  132.9364  150.2172 C   0  0  0  0  0  0  0  0  0  0  0  0
  146.0192  132.9623  151.1307 O   0  0  0  0  0  0  0  0  0  0  0  0
  146.3283  134.3168  151.4479 C   0  0  0  0  0  0  0  0  0  0  0  0
  148.8931  140.3527  154.3210 C   0  0  0  0  0  0  0  0  0  0  0  0
  149.5687  141.6727  154.6386 C   0  0  0  0  0  0  0  0  0  0  0  0
  148.0825  141.6300  154.4021 C   0  0  0  0  0  0  0  0  0  0  0  0
  152.0533  140.7033  158.2409 H   0  0  0  0  0  0  0  0  0  0  0  0
  150.4296  140.8234  158.9102 H   0  0  0  0  0  0  0  0  0  0  0  0
  150.8695  141.7700  157.4888 H   0  0  0  0  0  0  0  0  0  0  0  0
  150.7298  138.7210  157.6040 H   0  0  0  0  0  0  0  0  0  0  0  0
  148.4308  139.2246  157.4439 H   0  0  0  0  0  0  0  0  0  0  0  0
  148.7466  140.8180  156.8594 H   0  0  0  0  0  0  0  0  0  0  0  0
  146.3703  136.0261  156.9620 H   0  0  0  0  0  0  0  0  0  0  0  0
  146.0744  138.2017  150.9135 H   0  0  0  0  0  0  0  0  0  0  0  0
  144.1945  135.5529  153.0032 H   0  0  0  0  0  0  0  0  0  0  0  0
  143.7594  136.7214  151.7829 H   0  0  0  0  0  0  0  0  0  0  0  0
  145.8161  135.3226  149.2711 H   0  0  0  0  0  0  0  0  0  0  0  0
  143.5040  133.7827  151.5679 H   0  0  0  0  0  0  0  0  0  0  0  0
  143.3467  134.4239  149.9345 H   0  0  0  0  0  0  0  0  0  0  0  0
  144.4136  131.9795  150.2378 H   0  0  0  0  0  0  0  0  0  0  0  0
  145.3043  133.1077  149.2047 H   0  0  0  0  0  0  0  0  0  0  0  0
  147.2287  134.6343  150.9193 H   0  0  0  0  0  0  0  0  0  0  0  0
  146.5424  134.3670  152.5150 H   0  0  0  0  0  0  0  0  0  0  0  0
  149.0625  139.9611  153.3196 H   0  0  0  0  0  0  0  0  0  0  0  0
  149.9026  141.8461  155.6598 H   0  0  0  0  0  0  0  0  0  0  0  0
  150.1908  142.1156  153.8638 H   0  0  0  0  0  0  0  0  0  0  0  0
  147.7097  142.0468  153.4689 H   0  0  0  0  0  0  0  0  0  0  0  0
  147.4395  141.7779  155.2678 H   0  0  0  0  0  0  0  0  0  0  0  0
  1  2  1  0  0  0  0
  1 26  1  0  0  0  0
  1 27  1  0  0  0  0
  1 28  1  0  0  0  0
  2  3  1  0  0  0  0
  2  5  1  0  0  0  0
  2 29  1  0  0  0  0
  3  4  3  0  0  0  0
  5  6  1  0  0  0  0
  5 30  1  0  0  0  0
  5 31  1  0  0  0  0
  6  7  1  0  0  0  0
  6 23  1  0  0  0  0
  7 12  1  0  0  0  0
  7  8  2  0  0  0  0
  8  9  1  0  0  0  0
  9 10  2  0  0  0  0
  9 32  1  0  0  0  0
 10 11  1  0  0  0  0
 11 15  1  0  0  0  0
 11 12  2  0  0  0  0
 12 13  1  0  0  0  0
 13 14  2  0  0  0  0
 14 15  1  0  0  0  0
 14 33  1  0  0  0  0
 15 16  1  0  0  0  0
 16 17  1  0  0  0  0
 16 34  1  0  0  0  0
 16 35  1  0  0  0  0
 17 22  1  0  0  0  0
 17 18  1  0  0  0  0
 17 19  1  0  0  0  0
 18 36  1  0  0  0  0
 19 20  1  0  0  0  0
 19 37  1  0  0  0  0
 19 38  1  0  0  0  0
 20 21  1  0  0  0  0
 20 39  1  0  0  0  0
 20 40  1  0  0  0  0
 21 22  1  0  0  0  0
 22 41  1  0  0  0  0
 22 42  1  0  0  0  0
 23 25  1  0  0  0  0
 23 24  1  0  0  0  0
 23 43  1  0  0  0  0
 24 25  1  0  0  0  0
 24 44  1  0  0  0  0
 24 45  1  0  0  0  0
 25 46  1  0  0  0  0
 25 47  1  0  0  0  0
M  END
> <s_m_source_file>
AV-unprocessed.smi

> <i_m_source_file_index>
223

> <i_lp_mmshare_version>
43012

> <i_f3d_flags>
0

> <s_epik_input>
TiNDW0NAQEhdKFtDSDNdKVtDSDJdTihbQ0hdMVtDSDJdW0NIMl0xKWMobltjSF1uMiljKGMyMyluW2NIXW4zW0NIMl1bQ0BAXTQoW09IXSlbQ0gyXVtDSDJdT1tDSDJdNA==

> <s_epik_cmdline>
J2VwaWtfcHl0aG9uJywgJy1waCcsICc3LjAnLCAnLXRuJywgJzgnLCAnLW1hJywgJzIwMCcsICctbWV0YWxfYmluZGluZycsICctaW1hZScsICc8aW5maWxlLm1hZT4nLCAnLW9tYWUnLCAnPG91dGZpbGUubWFlPic=

> <r_lp_tautomer_probability>
1

> <r_epik_Ionization_Penalty>
0.000756152

> <r_epik_Ionization_Penalty_Charging>
0

> <r_epik_Ionization_Penalty_Neutral>
0.000756152

> <r_epik_State_Penalty>
0.00038036

> <r_epik_Charging_Adjusted_Penalty>
0.00038036

> <i_epik_Tot_Q>
0

> <i_epik_Tot_abs_Q>
0

> <r_epik_Metal_State_Penalty>
-0

> <b_epik_Metal_Only>
0

> <s_lp_Force_Field>
OPLS_2005

> <r_lp_Energy>
38.8251

> <b_lp_Chiralities_Consistent>
1

> <s_lp_Variant>
AV-unprocessed.smi:223-3

> <Gold.Version>
5.8.1

> <Gold.Id.Protein>
6NUR|6NUR_protein|mol2

> <Gold.PLP.Fitness>
42.8357

> <Gold.PLP.PLP>
-35.2517

> <Gold.PLP.part.hbond>
-3.0000

> <Gold.PLP.part.metal>
0.0000

> <Gold.PLP.part.buried>
-4.0445

> <Gold.PLP.part.nonpolar>
-28.2327

> <Gold.PLP.part.repulsive>
0.5422

> <Gold.PLP.ligand.clash>
0.0000

> <Gold.PLP.ligand.torsion>
1.2614

> <Gold.PLP.Chemscore.Hbond>
1.9120

> <Gold.PLP.Chemscore.CHOScore>
1.0000

> <Gold.PLP.Chemscore.Metal>
0.0000

> <Gold.Chemscore.Hbonds>
donor molecule, donor type, donor heavy atom, donor atom, acceptor molecule, acceptor atom, score
      L1  H    18    36       P1  7921  1.00
      P1  H  7989  7998       L1     4  0.91
      L1  C    14    33       P1 10171  0.98

> <Gold.PLP.Chemscore.Internal.Correction>
1.3709

> <Gold.Rescore>
     Score         DG    S(hbond)    S(metal)    S(lipo)     H(rot)  DE(clash)    DE(int)     intcor
      9.40     -12.75       1.94        0.00      66.25       2.72       0.04       3.30       ----

> <Gold.Chemscore.Fitness>
9.4044

> <Gold.Chemscore.DG>
-12.7501

> <Gold.Chemscore.ZeroCoef>
-5.4800

> <Gold.Chemscore.Hbond>
1.9387

> <Gold.Chemscore.Metal>
0.0000

> <Gold.Chemscore.Lipo>
66.2454

> <Gold.Chemscore.Internal_Hbond>
0.0000

> <Gold.Chemscore.DEClash>
0.0416

> <Gold.Chemscore.DEInternal>
3.3041

> <Gold.Chemscore.Rot>
2.7171

> <Gold.Chemscore.Internal.Correction>
   9.000000E+99

> <Gold.Chemscore.Hbonds>
donor molecule, donor type, donor heavy atom, donor atom, acceptor molecule, acceptor atom, score
      L1  H    18    36       P1  7921  0.94
      P1  H  7989  7998       L1     4  0.85

> <Gold.Chemscore.Hbond.Weighted>
-6.4752

> <Gold.Chemscore.Metal.Weighted>
-0.0000

> <Gold.Chemscore.Lipo.Weighted>
-7.7507

> <Gold.Chemscore.Internal_Hbond.Weighted>
0.0000

> <Gold.Chemscore.DEClash.Weighted>
0.0416

> <Gold.Chemscore.DEInternal.Weighted>
3.3041

> <Gold.Chemscore.Rot.Weighted>
6.9558

> <Gold.Chemscore.Internal.Correction.Weighted>
   9.000000E+99

> <Gold.Protein.RotatedTorsions>
[ 6907 6896 6895 6894 ] final  -94.62 input  -60.11 | X-H torsion
[ 7974 7965 7964 7962 ] final   37.41 input  175.53 | X-H torsion
[ 8008 7997 7996 7995 ] final   -0.24 input   59.86 | X-H torsion
[ 10167 10162 10161 10158 ] final  -82.27 input  -65.29 | X-H torsion
[ 10718 10713 10712 10709 ] final -161.29 input   66.30 | X-H torsion
[ 10763 10752 10751 10750 ] final  -81.25 input  -60.55 | X-H torsion
[ 11005 11000 10999 10996 ] final -160.51 input  -57.11 | X-H torsion

> <Gold.Protein.ActiveResidues>
 VAL166  LYS551  ARG553  GLY616  TRP617  ASP618  TYR619  PRO620  LYS621  CYS622 
 ASP623  PHE694  ASN695  SER759  ASP760  ASP761  ALA762  ILE779  LEU786  VAL792 
 PHE793  MET794  SER795  GLU796  ALA797  LYS798  CYS799  TRP800  GLU811  SER814 

> <Gold.Protein.RotatedAtoms>
  150.6946  134.1784  159.4238 H   0  0  0  0  0  0  0  0  0  0  0  0  # atno 6907 bound_to 6896
  151.9759  135.0051  160.0564 H   0  0  0  0  0  0  0  0  0  0  0  0  # atno 6908 bound_to 6896
  152.1799  133.4665  159.4989 H   0  0  0  0  0  0  0  0  0  0  0  0  # atno 6909 bound_to 6896
  146.1140  139.5898  142.9334 H   0  0  0  0  0  0  0  0  0  0  0  0  # atno 7974 bound_to 7965
  154.6603  140.2589  155.7116 H   0  0  0  0  0  0  0  0  0  0  0  0  # atno 8008 bound_to 7997
  156.2615  140.2850  156.0993 H   0  0  0  0  0  0  0  0  0  0  0  0  # atno 8009 bound_to 7997
  155.1319  140.0378  157.2767 H   0  0  0  0  0  0  0  0  0  0  0  0  # atno 8010 bound_to 7997
  140.4335  143.2540  151.8726 H   0  0  0  0  0  0  0  0  0  0  0  0  # atno 10167 bound_to 10162
  156.5941  130.8783  151.2897 H   0  0  0  0  0  0  0  0  0  0  0  0  # atno 10718 bound_to 10713
  154.5613  135.5632  153.7010 H   0  0  0  0  0  0  0  0  0  0  0  0  # atno 10763 bound_to 10752
  153.0019  135.6274  154.2241 H   0  0  0  0  0  0  0  0  0  0  0  0  # atno 10764 bound_to 10752
  154.2178  135.2871  155.2915 H   0  0  0  0  0  0  0  0  0  0  0  0  # atno 10765 bound_to 10752
  140.6307  134.4655  157.5229 H   0  0  0  0  0  0  0  0  0  0  0  0  # atno 11005 bound_to 11000
  145.5606  141.0405  143.2228 LP  0  0  0  0  0  0  0  0  0  0  0  0  # atno 17320 bound_to 7965
  144.7536  139.7130  143.7263 LP  0  0  0  0  0  0  0  0  0  0  0  0  # atno 17321 bound_to 7965
  139.4786  144.5308  151.8669 LP  0  0  0  0  0  0  0  0  0  0  0  0  # atno 17342 bound_to 10162
  140.4400  144.1999  150.5891 LP  0  0  0  0  0  0  0  0  0  0  0  0  # atno 17343 bound_to 10162
  157.7296  130.9673  150.1795 LP  0  0  0  0  0  0  0  0  0  0  0  0  # atno 17370 bound_to 10713
  156.2524  130.3702  149.8218 LP  0  0  0  0  0  0  0  0  0  0  0  0  # atno 17371 bound_to 10713
  139.9117  134.8330  156.1504 LP  0  0  0  0  0  0  0  0  0  0  0  0  # atno 17394 bound_to 11000
  141.0678  133.6811  156.2078 LP  0  0  0  0  0  0  0  0  0  0  0  0  # atno 17395 bound_to 11000

$$$$
