AV-unprocessed.smi:1158|AV-procd|sdf|4911|dock9
  -GOLD-   22720 3493D 1   1.00000     0.00000
 Structure written by MMmdl.
 42 43  0  0  0  0  0  0  0  0  1 V2000
  147.1331  132.6617  152.7287 C   0  0  0  0  0  0  0  0  0  0  0  0
  148.1087  133.5704  153.2275 O   0  0  0  0  0  0  0  0  0  0  0  0
  148.9377  133.1525  154.2513 C   0  0  0  0  0  0  0  0  0  0  0  0
  148.9231  131.8406  154.5967 N   0  0  0  0  0  0  0  0  0  0  0  0
  149.7345  131.4287  155.5921 C   0  0  0  0  0  0  0  0  0  0  0  0
  150.6017  132.2922  156.2854 C   0  0  0  0  0  0  0  0  0  0  0  0
  150.6199  133.6531  155.9286 C   0  0  0  0  0  0  0  0  0  0  0  0
  149.7620  134.1050  154.8959 C   0  0  0  0  0  0  0  0  0  0  0  0
  149.7045  135.4530  154.4434 N   0  0  0  0  0  0  0  0  0  0  0  0
  149.9695  136.5850  155.1177 C   0  0  0  0  0  0  0  0  0  0  0  0
  150.3231  136.6509  156.2947 O   0  0  0  0  0  0  0  0  0  0  0  0
  149.7849  137.6618  154.3408 N   0  0  0  0  0  0  0  0  0  0  0  0
  149.9809  139.0466  154.7594 C   0  0  0  0  0  0  0  0  0  0  0  0
  151.3824  139.2184  155.3615 C   0  0  0  0  0  0  0  0  0  0  0  0
  151.5673  140.6348  155.9330 C   0  0  0  0  0  0  0  0  0  0  0  0
  150.5625  140.9095  156.9632 N   0  0  0  0  0  0  0  0  0  0  0  0
  150.8280  142.2279  157.5386 C   0  0  0  0  0  0  0  0  0  0  0  0
  152.1737  142.2864  158.2819 C   0  0  0  0  0  0  0  0  0  0  0  0
  152.4243  143.5251  158.7057 F   0  0  0  0  0  0  0  0  0  0  0  0
  152.1346  141.4695  159.3335 F   0  0  0  0  0  0  0  0  0  0  0  0
  149.2236  140.8596  156.3664 C   0  0  0  0  0  0  0  0  0  0  0  0
  148.9331  139.4550  155.8082 C   0  0  0  0  0  0  0  0  0  0  0  0
  146.5706  133.1407  151.9275 H   0  0  0  0  0  0  0  0  0  0  0  0
  146.4224  132.3729  153.5043 H   0  0  0  0  0  0  0  0  0  0  0  0
  147.5979  131.7653  152.3158 H   0  0  0  0  0  0  0  0  0  0  0  0
  149.6951  130.3782  155.8394 H   0  0  0  0  0  0  0  0  0  0  0  0
  151.2420  131.9183  157.0707 H   0  0  0  0  0  0  0  0  0  0  0  0
  151.2989  134.3128  156.4451 H   0  0  0  0  0  0  0  0  0  0  0  0
  149.3595  135.5721  153.5021 H   0  0  0  0  0  0  0  0  0  0  0  0
  149.4898  137.5140  153.3868 H   0  0  0  0  0  0  0  0  0  0  0  0
  149.8966  139.7060  153.8932 H   0  0  0  0  0  0  0  0  0  0  0  0
  151.5432  138.4852  156.1537 H   0  0  0  0  0  0  0  0  0  0  0  0
  152.1412  139.0259  154.6023 H   0  0  0  0  0  0  0  0  0  0  0  0
  152.5660  140.7154  156.3641 H   0  0  0  0  0  0  0  0  0  0  0  0
  151.5022  141.3773  155.1358 H   0  0  0  0  0  0  0  0  0  0  0  0
  150.8581  142.9662  156.7359 H   0  0  0  0  0  0  0  0  0  0  0  0
  150.0116  142.5211  158.2008 H   0  0  0  0  0  0  0  0  0  0  0  0
  153.0168  141.9653  157.6717 H   0  0  0  0  0  0  0  0  0  0  0  0
  148.4667  141.0953  157.1129 H   0  0  0  0  0  0  0  0  0  0  0  0
  149.1352  141.6061  155.5753 H   0  0  0  0  0  0  0  0  0  0  0  0
  147.9346  139.4346  155.3701 H   0  0  0  0  0  0  0  0  0  0  0  0
  148.9255  138.7354  156.6285 H   0  0  0  0  0  0  0  0  0  0  0  0
  1  2  1  0  0  0  0
  1 23  1  0  0  0  0
  1 24  1  0  0  0  0
  1 25  1  0  0  0  0
  2  3  1  0  0  0  0
  3  8  1  0  0  0  0
  3  4  2  0  0  0  0
  4  5  1  0  0  0  0
  5  6  2  0  0  0  0
  5 26  1  0  0  0  0
  6  7  1  0  0  0  0
  6 27  1  0  0  0  0
  7  8  2  0  0  0  0
  7 28  1  0  0  0  0
  8  9  1  0  0  0  0
  9 10  1  0  0  0  0
  9 29  1  0  0  0  0
 10 11  2  0  0  0  0
 10 12  1  0  0  0  0
 12 13  1  0  0  0  0
 12 30  1  0  0  0  0
 13 22  1  0  0  0  0
 13 14  1  0  0  0  0
 13 31  1  0  0  0  0
 14 15  1  0  0  0  0
 14 32  1  0  0  0  0
 14 33  1  0  0  0  0
 15 16  1  0  0  0  0
 15 34  1  0  0  0  0
 15 35  1  0  0  0  0
 16 17  1  0  0  0  0
 16 21  1  0  0  0  0
 17 18  1  0  0  0  0
 17 36  1  0  0  0  0
 17 37  1  0  0  0  0
 18 19  1  0  0  0  0
 18 20  1  0  0  0  0
 18 38  1  0  0  0  0
 21 22  1  0  0  0  0
 21 39  1  0  0  0  0
 21 40  1  0  0  0  0
 22 41  1  0  0  0  0
 22 42  1  0  0  0  0
M  END
> <s_m_source_file>
AV-unprocessed.smi

> <i_m_source_file_index>
1158

> <i_lp_mmshare_version>
43012

> <i_f3d_flags>
0

> <s_epik_input>
W0NIM11PYzFuW2NIXVtjSF1bY0hdYzFbTkhdQyg9TylbTkhdW0NIXTJbQ0gyXVtDSDJdTihbQ0gyXVtDSF0oRilGKVtDSDJdW0NIMl0y

> <s_epik_cmdline>
J2VwaWtfcHl0aG9uJywgJy1waCcsICc3LjAnLCAnLXRuJywgJzgnLCAnLW1hJywgJzIwMCcsICctbWV0YWxfYmluZGluZycsICctaW1hZScsICc8aW5maWxlLm1hZT4nLCAnLW9tYWUnLCAnPG91dGZpbGUubWFlPic=

> <r_lp_tautomer_probability>
1

> <r_epik_Ionization_Penalty>
0.177131

> <r_epik_Ionization_Penalty_Charging>
0

> <r_epik_Ionization_Penalty_Neutral>
0.177131

> <r_epik_State_Penalty>
0.166485

> <r_epik_Charging_Adjusted_Penalty>
0.166485

> <i_epik_Tot_Q>
0

> <i_epik_Tot_abs_Q>
0

> <r_epik_Metal_State_Penalty>
0.166483

> <b_epik_Metal_Only>
0

> <s_lp_Force_Field>
OPLS_2005

> <r_lp_Energy>
18.3974

> <b_lp_Chiralities_Consistent>
1

> <s_lp_Variant>
AV-unprocessed.smi:1158-1

> <Gold.Version>
5.8.1

> <Gold.Id.Protein>
6NUR|6NUR_protein|mol2

> <Gold.PLP.Fitness>
41.1805

> <Gold.PLP.PLP>
-35.8251

> <Gold.PLP.part.hbond>
-2.2922

> <Gold.PLP.part.metal>
0.0000

> <Gold.PLP.part.buried>
-5.3150

> <Gold.PLP.part.nonpolar>
-28.6311

> <Gold.PLP.part.repulsive>
1.0239

> <Gold.PLP.ligand.clash>
0.0000

> <Gold.PLP.ligand.torsion>
0.3203

> <Gold.PLP.Chemscore.Hbond>
1.9920

> <Gold.PLP.Chemscore.CHOScore>
0.0000

> <Gold.PLP.Chemscore.Metal>
0.0000

> <Gold.Chemscore.Hbonds>
donor molecule, donor type, donor heavy atom, donor atom, acceptor molecule, acceptor atom, score
      L1  H     9    29       P1  7948  1.00
      L1  H    12    30       P1  7948  0.99

> <Gold.PLP.Chemscore.Internal.Correction>
0.0200

> <Gold.Rescore>
     Score         DG    S(hbond)    S(metal)    S(lipo)     H(rot)  DE(clash)    DE(int)     intcor
     12.50     -14.84       1.76        0.00      63.66       1.55       0.01       2.33       ----

> <Gold.Chemscore.Fitness>
12.4973

> <Gold.Chemscore.DG>
-14.8386

> <Gold.Chemscore.ZeroCoef>
-5.4800

> <Gold.Chemscore.Hbond>
1.7614

> <Gold.Chemscore.Metal>
0.0000

> <Gold.Chemscore.Lipo>
63.6571

> <Gold.Chemscore.Internal_Hbond>
0.0000

> <Gold.Chemscore.DEClash>
0.0073

> <Gold.Chemscore.DEInternal>
2.3339

> <Gold.Chemscore.Rot>
1.5517

> <Gold.Chemscore.Internal.Correction>
   9.000000E+99

> <Gold.Chemscore.Hbonds>
donor molecule, donor type, donor heavy atom, donor atom, acceptor molecule, acceptor atom, score
      L1  H     9    29       P1  7948  0.30
      L1  H    12    30       P1  7948  0.81

> <Gold.Chemscore.Hbond.Weighted>
-5.8830

> <Gold.Chemscore.Metal.Weighted>
-0.0000

> <Gold.Chemscore.Lipo.Weighted>
-7.4479

> <Gold.Chemscore.Internal_Hbond.Weighted>
0.0000

> <Gold.Chemscore.DEClash.Weighted>
0.0073

> <Gold.Chemscore.DEInternal.Weighted>
2.3339

> <Gold.Chemscore.Rot.Weighted>
3.9723

> <Gold.Chemscore.Internal.Correction.Weighted>
   9.000000E+99

> <Gold.Protein.RotatedTorsions>
[ 6907 6896 6895 6894 ] final   32.58 input  -60.11 | X-H torsion
[ 7974 7965 7964 7962 ] final  122.02 input  175.53 | X-H torsion
[ 8008 7997 7996 7995 ] final  131.02 input   59.86 | X-H torsion
[ 10167 10162 10161 10158 ] final -142.93 input  -65.29 | X-H torsion
[ 10718 10713 10712 10709 ] final   86.25 input   66.30 | X-H torsion
[ 10763 10752 10751 10750 ] final  126.47 input  -60.55 | X-H torsion
[ 11005 11000 10999 10996 ] final  -84.27 input  -57.11 | X-H torsion

> <Gold.Protein.ActiveResidues>
 VAL166  LYS551  ARG553  GLY616  TRP617  ASP618  TYR619  PRO620  LYS621  CYS622 
 ASP623  PHE694  ASN695  SER759  ASP760  ASP761  ALA762  ILE779  LEU786  VAL792 
 PHE793  MET794  SER795  GLU796  ALA797  LYS798  CYS799  TRP800  GLU811  SER814 

> <Gold.Protein.RotatedAtoms>
  152.0765  134.9499  160.0573 H   0  0  0  0  0  0  0  0  0  0  0  0  # atno 6907 bound_to 6896
  152.0804  133.4145  159.4507 H   0  0  0  0  0  0  0  0  0  0  0  0  # atno 6908 bound_to 6896
  150.6836  134.2908  159.4709 H   0  0  0  0  0  0  0  0  0  0  0  0  # atno 6909 bound_to 6896
  145.1125  139.3443  143.4756 H   0  0  0  0  0  0  0  0  0  0  0  0  # atno 7974 bound_to 7965
  156.2964  140.2582  156.2857 H   0  0  0  0  0  0  0  0  0  0  0  0  # atno 8008 bound_to 7997
  154.9559  140.0393  157.2185 H   0  0  0  0  0  0  0  0  0  0  0  0  # atno 8009 bound_to 7997
  154.7992  140.2825  155.5938 H   0  0  0  0  0  0  0  0  0  0  0  0  # atno 8010 bound_to 7997
  139.8041  143.7792  152.2660 H   0  0  0  0  0  0  0  0  0  0  0  0  # atno 10167 bound_to 10162
  157.6926  131.0208  150.2944 H   0  0  0  0  0  0  0  0  0  0  0  0  # atno 10718 bound_to 10713
  153.6938  135.3294  155.3208 H   0  0  0  0  0  0  0  0  0  0  0  0  # atno 10763 bound_to 10752
  154.8432  135.4438  154.1481 H   0  0  0  0  0  0  0  0  0  0  0  0  # atno 10764 bound_to 10752
  153.2530  135.6983  153.7737 H   0  0  0  0  0  0  0  0  0  0  0  0  # atno 10765 bound_to 10752
  141.1652  133.7337  156.8843 H   0  0  0  0  0  0  0  0  0  0  0  0  # atno 11005 bound_to 11000
  146.3525  140.1050  142.8606 LP  0  0  0  0  0  0  0  0  0  0  0  0  # atno 17320 bound_to 7965
  145.0831  140.9234  143.4813 LP  0  0  0  0  0  0  0  0  0  0  0  0  # atno 17321 bound_to 7965
  139.7922  144.7406  150.9940 LP  0  0  0  0  0  0  0  0  0  0  0  0  # atno 17342 bound_to 10162
  140.7819  143.4431  151.0523 LP  0  0  0  0  0  0  0  0  0  0  0  0  # atno 17343 bound_to 10162
  156.3470  130.3824  149.7361 LP  0  0  0  0  0  0  0  0  0  0  0  0  # atno 17370 bound_to 10713
  156.4851  130.8059  151.3071 LP  0  0  0  0  0  0  0  0  0  0  0  0  # atno 17371 bound_to 10713
  140.1693  134.9111  157.2813 LP  0  0  0  0  0  0  0  0  0  0  0  0  # atno 17394 bound_to 11000
  140.2521  134.3671  155.7438 LP  0  0  0  0  0  0  0  0  0  0  0  0  # atno 17395 bound_to 11000

$$$$
