AV-unprocessed.smi:33|AV-procd|sdf|211|dock2
  -GOLD-   2262015513D 1   1.00000     0.00000
 Structure written by MMmdl.
 67 72  0  0  0  0  0  0  0  0  1 V2000
  153.5084  140.7613  160.1458 O   0  0  0  0  0  0  0  0  0  0  0  0
  152.6196  141.3324  159.5107 C   0  0  0  0  0  0  0  0  0  0  0  0
  151.8179  140.7089  158.6253 O   0  0  0  0  0  0  0  0  0  0  0  0
  151.5903  139.3134  158.7364 C   0  0  0  0  0  0  0  0  0  0  0  0
  150.2942  138.9429  157.9971 C   0  0  2  0  0  0  0  0  0  0  0  0
  149.4551  138.2072  158.8758 O   0  0  0  0  0  0  0  0  0  0  0  0
  149.7402  136.8447  158.7770 C   0  0  1  0  0  0  0  0  0  0  0  0
  148.4340  136.1246  158.7929 N   0  0  0  0  0  0  0  0  0  0  0  0
  147.1761  136.6372  159.0265 C   0  0  0  0  0  0  0  0  0  0  0  0
  146.2033  135.7665  158.9907 N   0  0  0  0  0  0  0  0  0  0  0  0
  146.8408  134.5633  158.7167 C   0  0  0  0  0  0  0  0  0  0  0  0
  146.3974  133.2241  158.5495 C   0  0  0  0  0  0  0  0  0  0  0  0
  145.0958  132.8647  158.6398 N   0  0  0  0  0  0  0  0  0  0  0  0
  144.7465  131.8814  159.6755 C   0  0  0  0  0  0  0  0  0  0  0  0
  145.4648  131.7652  160.6704 O   0  0  0  0  0  0  0  0  0  0  0  0
  143.4994  131.0524  159.5521 C   0  0  0  0  0  0  0  0  0  0  0  0
  142.9826  130.7399  158.2756 C   0  0  0  0  0  0  0  0  0  0  0  0
  141.8061  129.9757  158.1534 C   0  0  0  0  0  0  0  0  0  0  0  0
  141.1287  129.5350  159.3063 C   0  0  0  0  0  0  0  0  0  0  0  0
  141.6227  129.8673  160.5820 C   0  0  0  0  0  0  0  0  0  0  0  0
  142.7992  130.6310  160.7052 C   0  0  0  0  0  0  0  0  0  0  0  0
  144.1576  133.4908  157.6964 C   0  0  0  0  0  0  0  0  0  0  0  0
  142.9632  133.5696  157.9903 O   0  0  0  0  0  0  0  0  0  0  0  0
  144.6501  134.0837  156.4064 C   0  0  0  0  0  0  0  0  0  0  0  0
  144.0804  135.2795  155.9167 C   0  0  0  0  0  0  0  0  0  0  0  0
  144.5276  135.8341  154.7019 C   0  0  0  0  0  0  0  0  0  0  0  0
  145.5335  135.1868  153.9597 C   0  0  0  0  0  0  0  0  0  0  0  0
  146.0861  133.9796  154.4278 C   0  0  0  0  0  0  0  0  0  0  0  0
  145.6401  133.4246  155.6430 C   0  0  0  0  0  0  0  0  0  0  0  0
  147.3294  132.2708  158.2896 N   0  0  0  0  0  0  0  0  0  0  0  0
  148.6186  132.6111  158.1961 C   0  0  0  0  0  0  0  0  0  0  0  0
  149.1762  133.8176  158.3263 N   0  0  0  0  0  0  0  0  0  0  0  0
  148.2409  134.7755  158.5915 C   0  0  0  0  0  0  0  0  0  0  0  0
  150.4666  136.6055  157.4412 C   0  0  2  0  0  0  0  0  0  0  0  0
  151.7800  136.1192  157.6312 O   0  0  0  0  0  0  0  0  0  0  0  0
  150.5013  137.9936  156.8159 C   0  0  1  0  0  0  0  0  0  0  0  0
  149.4817  138.1217  155.9653 F   0  0  0  0  0  0  0  0  0  0  0  0
  152.3203  142.7876  159.6419 C   0  0  0  0  0  0  0  0  0  0  0  0
  151.8688  143.5064  158.5105 C   0  0  0  0  0  0  0  0  0  0  0  0
  151.5805  144.8819  158.6019 C   0  0  0  0  0  0  0  0  0  0  0  0
  151.7417  145.5561  159.8262 C   0  0  0  0  0  0  0  0  0  0  0  0
  152.1905  144.8528  160.9593 C   0  0  0  0  0  0  0  0  0  0  0  0
  152.4777  143.4766  160.8700 C   0  0  0  0  0  0  0  0  0  0  0  0
  152.4384  138.7539  158.3397 H   0  0  0  0  0  0  0  0  0  0  0  0
  151.4975  139.0564  159.7924 H   0  0  0  0  0  0  0  0  0  0  0  0
  149.7815  139.8557  157.6907 H   0  0  0  0  0  0  0  0  0  0  0  0
  150.2892  136.4941  159.6519 H   0  0  0  0  0  0  0  0  0  0  0  0
  147.0023  137.6842  159.2278 H   0  0  0  0  0  0  0  0  0  0  0  0
  143.4942  131.0726  157.3840 H   0  0  0  0  0  0  0  0  0  0  0  0
  141.4227  129.7290  157.1744 H   0  0  0  0  0  0  0  0  0  0  0  0
  140.2266  128.9486  159.2120 H   0  0  0  0  0  0  0  0  0  0  0  0
  141.0985  129.5376  161.4668 H   0  0  0  0  0  0  0  0  0  0  0  0
  143.1659  130.8842  161.6895 H   0  0  0  0  0  0  0  0  0  0  0  0
  143.3082  135.7852  156.4786 H   0  0  0  0  0  0  0  0  0  0  0  0
  144.0979  136.7562  154.3396 H   0  0  0  0  0  0  0  0  0  0  0  0
  145.8761  135.6126  153.0281 H   0  0  0  0  0  0  0  0  0  0  0  0
  146.8516  133.4780  153.8545 H   0  0  0  0  0  0  0  0  0  0  0  0
  146.0680  132.4951  155.9900 H   0  0  0  0  0  0  0  0  0  0  0  0
  149.3011  131.8004  157.9883 H   0  0  0  0  0  0  0  0  0  0  0  0
  149.9246  135.8937  156.8159 H   0  0  0  0  0  0  0  0  0  0  0  0
  152.0437  136.3072  158.5192 H   0  0  0  0  0  0  0  0  0  0  0  0
  151.4084  138.1997  156.2459 H   0  0  0  0  0  0  0  0  0  0  0  0
  151.7375  143.0105  157.5595 H   0  0  0  0  0  0  0  0  0  0  0  0
  151.2358  145.4195  157.7310 H   0  0  0  0  0  0  0  0  0  0  0  0
  151.5219  146.6112  159.8961 H   0  0  0  0  0  0  0  0  0  0  0  0
  152.3155  145.3697  161.8993 H   0  0  0  0  0  0  0  0  0  0  0  0
  152.8219  142.9677  161.7586 H   0  0  0  0  0  0  0  0  0  0  0  0
  1  2  2  0  0  0  0
  2  3  1  0  0  0  0
  2 38  1  0  0  0  0
  3  4  1  0  0  0  0
  4  5  1  0  0  0  0
  4 44  1  0  0  0  0
  4 45  1  0  0  0  0
  5 36  1  0  0  0  0
  5  6  1  0  0  0  0
  5 46  1  0  0  0  0
  6  7  1  0  0  0  0
  7  8  1  0  0  0  0
  7 34  1  0  0  0  0
  7 47  1  0  0  0  0
  8 33  1  0  0  0  0
  8  9  1  0  0  0  0
  9 10  2  0  0  0  0
  9 48  1  0  0  0  0
 10 11  1  0  0  0  0
 11 33  2  0  0  0  0
 11 12  1  0  0  0  0
 12 13  1  0  0  0  0
 12 30  2  0  0  0  0
 13 14  1  0  0  0  0
 13 22  1  0  0  0  0
 14 15  2  0  0  0  0
 14 16  1  0  0  0  0
 16 21  1  0  0  0  0
 16 17  2  0  0  0  0
 17 18  1  0  0  0  0
 17 49  1  0  0  0  0
 18 19  2  0  0  0  0
 18 50  1  0  0  0  0
 19 20  1  0  0  0  0
 19 51  1  0  0  0  0
 20 21  2  0  0  0  0
 20 52  1  0  0  0  0
 21 53  1  0  0  0  0
 22 23  2  0  0  0  0
 22 24  1  0  0  0  0
 24 29  1  0  0  0  0
 24 25  2  0  0  0  0
 25 26  1  0  0  0  0
 25 54  1  0  0  0  0
 26 27  2  0  0  0  0
 26 55  1  0  0  0  0
 27 28  1  0  0  0  0
 27 56  1  0  0  0  0
 28 29  2  0  0  0  0
 28 57  1  0  0  0  0
 29 58  1  0  0  0  0
 30 31  1  0  0  0  0
 31 32  2  0  0  0  0
 31 59  1  0  0  0  0
 32 33  1  0  0  0  0
 34 35  1  0  0  0  0
 34 36  1  0  0  0  0
 34 60  1  0  0  0  0
 35 61  1  0  0  0  0
 36 37  1  0  0  0  0
 36 62  1  0  0  0  0
 38 43  1  0  0  0  0
 38 39  2  0  0  0  0
 39 40  1  0  0  0  0
 39 63  1  0  0  0  0
 40 41  2  0  0  0  0
 40 64  1  0  0  0  0
 41 42  1  0  0  0  0
 41 65  1  0  0  0  0
 42 43  2  0  0  0  0
 42 66  1  0  0  0  0
 43 67  1  0  0  0  0
M  END
> <s_m_source_file>
AV-unprocessed.smi

> <i_m_source_file_index>
33

> <i_lp_mmshare_version>
43012

> <i_f3d_flags>
0

> <s_epik_input>
W2NIXTFbY0hdW2NIXVtjSF1bY0hdYzFDKD1PKU9bQ0gyXVtDQEBIXTJPW0NASF0oW0NAQEhdKFtPSF0pW0NAQEhdMkYpbihbY0hdbjMpYyhjMzQpbltjSF1uYzROKEMoPU8pYzVbY0hdW2NIXVtjSF1bY0hdW2NIXTUpQyg9TyljNltjSF1bY0hdW2NIXVtjSF1bY0hdNg==

> <s_epik_cmdline>
J2VwaWtfcHl0aG9uJywgJy1waCcsICc3LjAnLCAnLXRuJywgJzgnLCAnLW1hJywgJzIwMCcsICctbWV0YWxfYmluZGluZycsICctaW1hZScsICc8aW5maWxlLm1hZT4nLCAnLW9tYWUnLCAnPG91dGZpbGUubWFlPic=

> <r_lp_tautomer_probability>
1

> <r_epik_Ionization_Penalty>
0.00067664

> <r_epik_Ionization_Penalty_Charging>
0

> <r_epik_Ionization_Penalty_Neutral>
0.00067664

> <r_epik_State_Penalty>
0.000428095

> <r_epik_Charging_Adjusted_Penalty>
0.000428095

> <i_epik_Tot_Q>
0

> <i_epik_Tot_abs_Q>
0

> <r_epik_Metal_State_Penalty>
-0

> <b_epik_Metal_Only>
0

> <s_epik_Chemistry_Notes>
This compound has an ester and may undergo hydrolysis at high or low pH. This compound contains an acetal/aminal-like group ( X-CH(R)-Y where X, Y are N, S, or O) that may be acid/base labile, releasing an aldehyde.

> <s_lp_Force_Field>
OPLS_2005

> <r_lp_Energy>
69.3236

> <b_lp_Chiralities_Consistent>
1

> <s_lp_Variant>
AV-unprocessed.smi:33-13

> <Gold.Version>
5.8.1

> <Gold.Id.Protein>
6NUR|6NUR_protein|mol2

> <Gold.PLP.Fitness>
57.6322

> <Gold.PLP.PLP>
-55.2189

> <Gold.PLP.part.hbond>
-3.5642

> <Gold.PLP.part.metal>
0.0000

> <Gold.PLP.part.buried>
-9.7186

> <Gold.PLP.part.nonpolar>
-42.7129

> <Gold.PLP.part.repulsive>
0.1146

> <Gold.PLP.ligand.clash>
0.0000

> <Gold.PLP.ligand.torsion>
4.2113

> <Gold.PLP.Chemscore.Hbond>
2.0000

> <Gold.PLP.Chemscore.CHOScore>
0.0000

> <Gold.PLP.Chemscore.Metal>
0.0000

> <Gold.Chemscore.Hbonds>
donor molecule, donor type, donor heavy atom, donor atom, acceptor molecule, acceptor atom, score
      P1  H  6896  6907       L1    32  1.00
      P1  H 11000 11005       L1    23  1.00

> <Gold.PLP.Chemscore.Internal.Correction>
4.8358

> <Gold.Rescore>
     Score         DG    S(hbond)    S(metal)    S(lipo)     H(rot)  DE(clash)    DE(int)     intcor
     12.35     -20.10       1.77        0.00     129.60       2.52       0.16       7.60       ----

> <Gold.Chemscore.Fitness>
12.3507

> <Gold.Chemscore.DG>
-20.1044

> <Gold.Chemscore.ZeroCoef>
-5.4800

> <Gold.Chemscore.Hbond>
1.7739

> <Gold.Chemscore.Metal>
0.0000

> <Gold.Chemscore.Lipo>
129.5963

> <Gold.Chemscore.Internal_Hbond>
0.0000

> <Gold.Chemscore.DEClash>
0.1570

> <Gold.Chemscore.DEInternal>
7.5967

> <Gold.Chemscore.Rot>
2.5247

> <Gold.Chemscore.Internal.Correction>
   9.000000E+99

> <Gold.Chemscore.Hbonds>
donor molecule, donor type, donor heavy atom, donor atom, acceptor molecule, acceptor atom, score
      P1  H  6896  6907       L1    32  0.60
      P1  H 11000 11005       L1    23  0.97

> <Gold.Chemscore.Hbond.Weighted>
-5.9249

> <Gold.Chemscore.Metal.Weighted>
-0.0000

> <Gold.Chemscore.Lipo.Weighted>
-15.1628

> <Gold.Chemscore.Internal_Hbond.Weighted>
0.0000

> <Gold.Chemscore.DEClash.Weighted>
0.1570

> <Gold.Chemscore.DEInternal.Weighted>
7.5967

> <Gold.Chemscore.Rot.Weighted>
6.4633

> <Gold.Chemscore.Internal.Correction.Weighted>
   9.000000E+99

> <Gold.Protein.RotatedTorsions>
[ 6907 6896 6895 6894 ] final  -93.08 input  -60.11 | X-H torsion
[ 7974 7965 7964 7962 ] final  147.10 input  175.53 | X-H torsion
[ 8008 7997 7996 7995 ] final  177.94 input   59.86 | X-H torsion
[ 10167 10162 10161 10158 ] final   26.81 input  -65.29 | X-H torsion
[ 10718 10713 10712 10709 ] final  -21.77 input   66.30 | X-H torsion
[ 10763 10752 10751 10750 ] final  160.12 input  -60.55 | X-H torsion
[ 11005 11000 10999 10996 ] final -104.62 input  -57.11 | X-H torsion

> <Gold.Protein.ActiveResidues>
 VAL166  LYS551  ARG553  GLY616  TRP617  ASP618  TYR619  PRO620  LYS621  CYS622 
 ASP623  PHE694  ASN695  SER759  ASP760  ASP761  ALA762  ILE779  LEU786  VAL792 
 PHE793  MET794  SER795  GLU796  ALA797  LYS798  CYS799  TRP800  GLU811  SER814 

> <Gold.Protein.RotatedAtoms>
  150.6916  134.2023  159.4326 H   0  0  0  0  0  0  0  0  0  0  0  0  # atno 6907 bound_to 6896
  151.9989  134.9937  160.0573 H   0  0  0  0  0  0  0  0  0  0  0  0  # atno 6908 bound_to 6896
  152.1598  133.4539  159.4892 H   0  0  0  0  0  0  0  0  0  0  0  0  # atno 6909 bound_to 6896
  144.8618  139.5987  143.5927 H   0  0  0  0  0  0  0  0  0  0  0  0  # atno 7974 bound_to 7965
  156.0601  140.1346  156.9951 H   0  0  0  0  0  0  0  0  0  0  0  0  # atno 8008 bound_to 7997
  154.4477  140.0993  156.6575 H   0  0  0  0  0  0  0  0  0  0  0  0  # atno 8009 bound_to 7997
  155.5391  140.3460  155.4445 H   0  0  0  0  0  0  0  0  0  0  0  0  # atno 8010 bound_to 7997
  140.4991  144.0343  150.6326 H   0  0  0  0  0  0  0  0  0  0  0  0  # atno 10167 bound_to 10162
  156.5136  130.4616  149.6635 H   0  0  0  0  0  0  0  0  0  0  0  0  # atno 10718 bound_to 10713
  154.2425  135.2774  155.2848 H   0  0  0  0  0  0  0  0  0  0  0  0  # atno 10763 bound_to 10752
  154.5533  135.5668  153.6945 H   0  0  0  0  0  0  0  0  0  0  0  0  # atno 10764 bound_to 10752
  152.9997  135.6280  154.2569 H   0  0  0  0  0  0  0  0  0  0  0  0  # atno 10765 bound_to 10752
  141.1092  133.8738  157.1633 H   0  0  0  0  0  0  0  0  0  0  0  0  # atno 11005 bound_to 11000
  146.2866  139.7021  142.9191 LP  0  0  0  0  0  0  0  0  0  0  0  0  # atno 17320 bound_to 7965
  145.4298  141.0414  143.2917 LP  0  0  0  0  0  0  0  0  0  0  0  0  # atno 17321 bound_to 7965
  140.3634  143.2895  152.0358 LP  0  0  0  0  0  0  0  0  0  0  0  0  # atno 17342 bound_to 10162
  139.4868  144.6285  151.7116 LP  0  0  0  0  0  0  0  0  0  0  0  0  # atno 17343 bound_to 10162
  156.3217  130.7284  151.2197 LP  0  0  0  0  0  0  0  0  0  0  0  0  # atno 17370 bound_to 10713
  157.7447  131.0454  150.4841 LP  0  0  0  0  0  0  0  0  0  0  0  0  # atno 17371 bound_to 10713
  139.9977  135.0040  157.0119 LP  0  0  0  0  0  0  0  0  0  0  0  0  # atno 17394 bound_to 11000
  140.4821  134.1279  155.7218 LP  0  0  0  0  0  0  0  0  0  0  0  0  # atno 17395 bound_to 11000

$$$$
