AV-unprocessed.smi:2647|AV-procd|sdf|10284|dock10
  -GOLD-   2272014293D 1   1.00000     0.00000
 Structure written by MMmdl.
 31 32  0  0  0  0  0  0  0  0  2 V2000
  149.3508  136.1886  158.9639 O   0  0  0  0  0  0  0  0  0  0  0  0
  148.9067  137.2029  159.5069 C   0  0  0  0  0  0  0  0  0  0  0  0
  149.1735  138.4106  158.9891 N   0  0  0  0  0  0  0  0  0  0  0  0
  149.9765  138.6746  157.8000 C   0  0  0  0  0  0  0  0  0  0  0  0
  151.3938  139.1420  158.1672 C   0  0  0  0  0  0  0  0  0  0  0  0
  151.6046  140.6418  157.8996 C   0  0  0  0  0  0  0  0  0  0  0  0
  152.3241  141.2872  159.0025 N   0  0  0  0  0  0  0  0  0  0  0  0
  153.5312  140.9008  159.4390 C   0  0  0  0  0  0  0  0  0  0  0  0
  154.1971  139.9606  159.0059 O   0  0  0  0  0  0  0  0  0  0  0  0
  154.0139  141.7936  160.5741 C   0  0  0  0  0  0  0  0  0  0  0  0
  152.8646  142.7925  160.7414 C   0  0  0  0  0  0  0  0  0  0  0  0
  151.8700  142.3549  159.6746 C   0  0  0  0  0  0  0  0  0  0  0  0
  150.8020  142.9362  159.4863 O   0  0  0  0  0  0  0  0  0  0  0  0
  148.1457  137.2456  160.6242 N   0  5  0  0  0  0  0  0  0  0  0  0
  147.8619  136.1125  161.2875 C   0  0  0  0  0  0  0  0  0  0  0  0
  147.8131  134.9165  160.6791 N   0  0  0  0  0  0  0  0  0  0  0  0
  147.4983  133.8764  161.5432 N   0  0  0  0  0  0  0  0  0  0  0  0
  147.3079  134.3184  162.7862 C   0  0  0  0  0  0  0  0  0  0  0  0
  147.4937  136.0444  163.0134 S   0  0  0  0  0  0  0  0  0  0  0  0
  148.7882  139.2126  159.4657 H   0  0  0  0  0  0  0  0  0  0  0  0
  150.0163  137.7861  157.1676 H   0  0  0  0  0  0  0  0  0  0  0  0
  149.4706  139.4461  157.2193 H   0  0  0  0  0  0  0  0  0  0  0  0
  151.5828  138.9284  159.2203 H   0  0  0  0  0  0  0  0  0  0  0  0
  152.1269  138.5672  157.5998 H   0  0  0  0  0  0  0  0  0  0  0  0
  152.1512  140.7771  156.9648 H   0  0  0  0  0  0  0  0  0  0  0  0
  150.6408  141.1315  157.7493 H   0  0  0  0  0  0  0  0  0  0  0  0
  154.1797  141.2078  161.4788 H   0  0  0  0  0  0  0  0  0  0  0  0
  154.9454  142.2892  160.2989 H   0  0  0  0  0  0  0  0  0  0  0  0
  152.4132  142.7309  161.7321 H   0  0  0  0  0  0  0  0  0  0  0  0
  153.1884  143.8187  160.5646 H   0  0  0  0  0  0  0  0  0  0  0  0
  147.0542  133.6244  163.5735 H   0  0  0  0  0  0  0  0  0  0  0  0
  1  2  2  0  0  0  0
  2  3  1  0  0  0  0
  2 14  1  0  0  0  0
  3  4  1  0  0  0  0
  3 20  1  0  0  0  0
  4  5  1  0  0  0  0
  4 21  1  0  0  0  0
  4 22  1  0  0  0  0
  5  6  1  0  0  0  0
  5 23  1  0  0  0  0
  5 24  1  0  0  0  0
  6  7  1  0  0  0  0
  6 25  1  0  0  0  0
  6 26  1  0  0  0  0
  7 12  1  0  0  0  0
  7  8  1  0  0  0  0
  8  9  2  0  0  0  0
  8 10  1  0  0  0  0
 10 11  1  0  0  0  0
 10 27  1  0  0  0  0
 10 28  1  0  0  0  0
 11 12  1  0  0  0  0
 11 29  1  0  0  0  0
 11 30  1  0  0  0  0
 12 13  2  0  0  0  0
 14 15  1  0  0  0  0
 15 19  1  0  0  0  0
 15 16  2  0  0  0  0
 16 17  1  0  0  0  0
 17 18  2  0  0  0  0
 18 19  1  0  0  0  0
 18 31  1  0  0  0  0
M  CHG  1  14  -1
M  END
> <s_m_source_file>
AV-unprocessed.smi

> <i_m_source_file_index>
2647

> <i_lp_mmshare_version>
43012

> <i_f3d_flags>
0

> <s_epik_input>
czFbY0hdbm5jMVtOSF1DKD1PKVtOSF1bQ0gyXVtDSDJdW0NIMl1OMkMoPU8pW0NIMl1bQ0gyXUMyPU8=

> <s_epik_cmdline>
J2VwaWtfcHl0aG9uJywgJy1waCcsICc3LjAnLCAnLXRuJywgJzgnLCAnLW1hJywgJzIwMCcsICctbWV0YWxfYmluZGluZycsICctaW1hZScsICc8aW5maWxlLm1hZT4nLCAnLW9tYWUnLCAnPG91dGZpbGUubWFlPic=

> <r_lp_tautomer_probability>
1

> <r_epik_Ionization_Penalty>
3.50019

> <r_epik_Ionization_Penalty_Charging>
3.45871

> <r_epik_Ionization_Penalty_Neutral>
0.0414811

> <r_epik_State_Penalty>
3.45698

> <r_epik_Charging_Adjusted_Penalty>
6.91569

> <i_epik_Tot_Q>
-1

> <i_epik_Tot_abs_Q>
1

> <r_epik_Metal_State_Penalty>
0.503209

> <b_epik_Metal_Only>
1

> <s_lp_Force_Field>
OPLS_2005

> <r_lp_Energy>
9.35786

> <b_lp_Chiralities_Consistent>
1

> <s_lp_Variant>
AV-unprocessed.smi:2647-2

> <Gold.Version>
5.8.1

> <Gold.Id.Protein>
6NUR|6NUR_protein|mol2

> <Gold.PLP.Fitness>
49.4015

> <Gold.PLP.PLP>
-37.8524

> <Gold.PLP.part.hbond>
-4.4286

> <Gold.PLP.part.metal>
0.0000

> <Gold.PLP.part.buried>
-5.3503

> <Gold.PLP.part.nonpolar>
-28.9596

> <Gold.PLP.part.repulsive>
0.2620

> <Gold.PLP.ligand.clash>
0.0000

> <Gold.PLP.ligand.torsion>
0.9419

> <Gold.PLP.Chemscore.Hbond>
4.4441

> <Gold.PLP.Chemscore.CHOScore>
0.0000

> <Gold.PLP.Chemscore.Metal>
0.0000

> <Gold.Chemscore.Hbonds>
donor molecule, donor type, donor heavy atom, donor atom, acceptor molecule, acceptor atom, score
      P1  H  6896  6907       L1     1  0.73
      P1  H  6931  6943       L1    14  1.57
      P1  H  6934  6947       L1    14  1.33
      P1  H  7997  8009       L1     9  0.93

> <Gold.PLP.Chemscore.Internal.Correction>
0.1005

> <Gold.Rescore>
     Score         DG    S(hbond)    S(metal)    S(lipo)     H(rot)  DE(clash)    DE(int)     intcor
     12.08     -14.58       2.58        0.00      54.93       2.32       0.01       2.48       ----

> <Gold.Chemscore.Fitness>
12.0844

> <Gold.Chemscore.DG>
-14.5750

> <Gold.Chemscore.ZeroCoef>
-5.4800

> <Gold.Chemscore.Hbond>
2.5786

> <Gold.Chemscore.Metal>
0.0000

> <Gold.Chemscore.Lipo>
54.9295

> <Gold.Chemscore.Internal_Hbond>
0.0000

> <Gold.Chemscore.DEClash>
0.0149

> <Gold.Chemscore.DEInternal>
2.4758

> <Gold.Chemscore.Rot>
2.3219

> <Gold.Chemscore.Internal.Correction>
   9.000000E+99

> <Gold.Chemscore.Hbonds>
donor molecule, donor type, donor heavy atom, donor atom, acceptor molecule, acceptor atom, score
      P1  H  6896  6907       L1     1  0.73
      P1  H  6931  6943       L1    14  0.20
      P1  H  6934  6947       L1    14  0.55
      P1  H  7997  8009       L1     9  0.90

> <Gold.Chemscore.Hbond.Weighted>
-8.6124

> <Gold.Chemscore.Metal.Weighted>
-0.0000

> <Gold.Chemscore.Lipo.Weighted>
-6.4268

> <Gold.Chemscore.Internal_Hbond.Weighted>
0.0000

> <Gold.Chemscore.DEClash.Weighted>
0.0149

> <Gold.Chemscore.DEInternal.Weighted>
2.4758

> <Gold.Chemscore.Rot.Weighted>
5.9441

> <Gold.Chemscore.Internal.Correction.Weighted>
   9.000000E+99

> <Gold.Protein.RotatedTorsions>
[ 6907 6896 6895 6894 ] final  -44.21 input  -60.11 | X-H torsion
[ 7974 7965 7964 7962 ] final  -48.83 input  175.53 | X-H torsion
[ 8008 7997 7996 7995 ] final  115.91 input   59.86 | X-H torsion
[ 10167 10162 10161 10158 ] final  179.17 input  -65.29 | X-H torsion
[ 10718 10713 10712 10709 ] final  175.65 input   66.30 | X-H torsion
[ 10763 10752 10751 10750 ] final  -51.12 input  -60.55 | X-H torsion
[ 11005 11000 10999 10996 ] final  -21.18 input  -57.11 | X-H torsion

> <Gold.Protein.ActiveResidues>
 VAL166  LYS551  ARG553  GLY616  TRP617  ASP618  TYR619  PRO620  LYS621  CYS622 
 ASP623  PHE694  ASN695  SER759  ASP760  ASP761  ALA762  ILE779  LEU786  VAL792 
 PHE793  MET794  SER795  GLU796  ALA797  LYS798  CYS799  TRP800  GLU811  SER814 

> <Gold.Protein.RotatedAtoms>
  150.9353  134.8766  159.7577 H   0  0  0  0  0  0  0  0  0  0  0  0  # atno 6907 bound_to 6896
  152.5056  134.4020  159.9429 H   0  0  0  0  0  0  0  0  0  0  0  0  # atno 6908 bound_to 6896
  151.4044  133.3707  159.2771 H   0  0  0  0  0  0  0  0  0  0  0  0  # atno 6909 bound_to 6896
  145.9470  140.7609  142.9524 H   0  0  0  0  0  0  0  0  0  0  0  0  # atno 7974 bound_to 7965
  156.2409  140.2928  156.0441 H   0  0  0  0  0  0  0  0  0  0  0  0  # atno 8008 bound_to 7997
  155.1954  140.0408  157.2925 H   0  0  0  0  0  0  0  0  0  0  0  0  # atno 8009 bound_to 7997
  154.6166  140.2465  155.7609 H   0  0  0  0  0  0  0  0  0  0  0  0  # atno 8010 bound_to 7997
  139.5325  144.2592  152.0721 H   0  0  0  0  0  0  0  0  0  0  0  0  # atno 10167 bound_to 10162
  156.9318  130.9973  151.2985 H   0  0  0  0  0  0  0  0  0  0  0  0  # atno 10718 bound_to 10713
  154.1214  135.6534  153.4903 H   0  0  0  0  0  0  0  0  0  0  0  0  # atno 10763 bound_to 10752
  153.0224  135.5271  154.7093 H   0  0  0  0  0  0  0  0  0  0  0  0  # atno 10764 bound_to 10752
  154.6302  135.2975  155.0196 H   0  0  0  0  0  0  0  0  0  0  0  0  # atno 10765 bound_to 10752
  140.8536  133.7838  155.9994 H   0  0  0  0  0  0  0  0  0  0  0  0  # atno 11005 bound_to 11000
  144.6789  140.2372  143.7348 LP  0  0  0  0  0  0  0  0  0  0  0  0  # atno 17320 bound_to 7965
  145.8223  139.2049  143.1930 LP  0  0  0  0  0  0  0  0  0  0  0  0  # atno 17321 bound_to 7965
  140.2058  144.4612  150.6409 LP  0  0  0  0  0  0  0  0  0  0  0  0  # atno 17342 bound_to 10162
  140.6512  143.2225  151.6073 LP  0  0  0  0  0  0  0  0  0  0  0  0  # atno 17343 bound_to 10162
  157.5842  130.8398  149.8566 LP  0  0  0  0  0  0  0  0  0  0  0  0  # atno 17370 bound_to 10713
  156.0444  130.3731  150.1355 LP  0  0  0  0  0  0  0  0  0  0  0  0  # atno 17371 bound_to 10713
  140.8762  134.2667  157.5167 LP  0  0  0  0  0  0  0  0  0  0  0  0  # atno 17394 bound_to 11000
  139.8704  134.9592  156.4325 LP  0  0  0  0  0  0  0  0  0  0  0  0  # atno 17395 bound_to 11000

$$$$
