AV-unprocessed.smi:702|AV-procd|sdf|3418|dock3
  -GOLD-   22720 0403D 1   1.00000     0.00000
 Structure written by MMmdl.
 49 51  0  0  0  0  0  0  0  0  1 V2000
  146.2583  136.9524  155.5740 C   0  0  0  0  0  0  0  0  0  0  0  0
  146.6251  137.6952  154.2683 C   0  0  2  0  0  0  0  0  0  0  0  0
  146.7773  136.7091  153.1926 N   0  0  0  0  0  0  0  0  0  0  0  0
  145.8612  135.8075  152.8110 C   0  0  0  0  0  0  0  0  0  0  0  0
  144.7626  135.6840  153.3516 O   0  0  0  0  0  0  0  0  0  0  0  0
  146.3157  135.0640  151.7875 N   0  0  0  0  0  0  0  0  0  0  0  0
  145.6558  134.0237  151.0783 C   0  0  0  0  0  0  0  0  0  0  0  0
  146.4366  132.9350  150.6380 C   0  0  0  0  0  0  0  0  0  0  0  0
  145.8115  131.8976  149.9177 C   0  0  0  0  0  0  0  0  0  0  0  0
  144.4963  131.8931  149.6148 N   0  0  0  0  0  0  0  0  0  0  0  0
  143.7530  132.9428  150.0242 C   0  0  0  0  0  0  0  0  0  0  0  0
  144.2782  134.0303  150.7510 C   0  0  0  0  0  0  0  0  0  0  0  0
  147.8877  138.6305  154.3906 C   0  0  0  0  0  0  0  0  0  0  0  0
  149.1547  137.8391  154.4887 N   0  0  0  0  0  0  0  0  0  0  0  0
  150.3949  138.6282  154.4067 C   0  0  0  0  0  0  0  0  0  0  0  0
  151.6477  137.7376  154.3724 C   0  0  0  0  0  0  0  0  0  0  0  0
  151.6767  136.9156  155.5320 O   0  0  0  0  0  0  0  0  0  0  0  0
  150.5221  136.0929  155.6400 C   0  0  0  0  0  0  0  0  0  0  0  0
  149.2560  136.9671  155.6690 C   0  0  0  0  0  0  0  0  0  0  0  0
  147.8930  139.5973  153.1567 C   0  0  0  0  0  0  0  0  0  0  0  0
  147.5960  141.0100  153.6669 C   0  0  0  0  0  0  0  0  0  0  0  0
  148.0417  141.0041  155.1205 C   0  0  0  0  0  0  0  0  0  0  0  0
  147.7093  139.5941  155.6083 C   0  0  0  0  0  0  0  0  0  0  0  0
  146.0759  137.6391  156.3999 H   0  0  0  0  0  0  0  0  0  0  0  0
  147.0429  136.2654  155.8896 H   0  0  0  0  0  0  0  0  0  0  0  0
  145.3476  136.3664  155.4459 H   0  0  0  0  0  0  0  0  0  0  0  0
  145.7742  138.3177  153.9901 H   0  0  0  0  0  0  0  0  0  0  0  0
  147.6524  136.7309  152.6903 H   0  0  0  0  0  0  0  0  0  0  0  0
  147.2709  135.2341  151.5093 H   0  0  0  0  0  0  0  0  0  0  0  0
  147.4949  132.8884  150.8503 H   0  0  0  0  0  0  0  0  0  0  0  0
  146.3848  131.0495  149.5739 H   0  0  0  0  0  0  0  0  0  0  0  0
  142.7063  132.9192  149.7585 H   0  0  0  0  0  0  0  0  0  0  0  0
  143.6224  134.8417  151.0262 H   0  0  0  0  0  0  0  0  0  0  0  0
  150.4160  139.2647  153.5261 H   0  0  0  0  0  0  0  0  0  0  0  0
  150.4741  139.2949  155.2655 H   0  0  0  0  0  0  0  0  0  0  0  0
  151.6589  137.1186  153.4740 H   0  0  0  0  0  0  0  0  0  0  0  0
  152.5480  138.3516  154.3510 H   0  0  0  0  0  0  0  0  0  0  0  0
  150.4871  135.3923  154.8043 H   0  0  0  0  0  0  0  0  0  0  0  0
  150.5927  135.4994  156.5515 H   0  0  0  0  0  0  0  0  0  0  0  0
  149.2556  137.5607  156.5829 H   0  0  0  0  0  0  0  0  0  0  0  0
  148.4070  136.2910  155.7367 H   0  0  0  0  0  0  0  0  0  0  0  0
  148.8413  139.5924  152.6245 H   0  0  0  0  0  0  0  0  0  0  0  0
  147.1682  139.3301  152.3885 H   0  0  0  0  0  0  0  0  0  0  0  0
  148.0941  141.7811  153.0785 H   0  0  0  0  0  0  0  0  0  0  0  0
  146.5228  141.1987  153.6178 H   0  0  0  0  0  0  0  0  0  0  0  0
  149.1164  141.1784  155.1771 H   0  0  0  0  0  0  0  0  0  0  0  0
  147.5504  141.7775  155.7117 H   0  0  0  0  0  0  0  0  0  0  0  0
  146.6816  139.5970  155.9702 H   0  0  0  0  0  0  0  0  0  0  0  0
  148.3117  139.3298  156.4764 H   0  0  0  0  0  0  0  0  0  0  0  0
  1  2  1  0  0  0  0
  1 24  1  0  0  0  0
  1 25  1  0  0  0  0
  1 26  1  0  0  0  0
  2  3  1  0  0  0  0
  2 13  1  0  0  0  0
  2 27  1  0  0  0  0
  3  4  1  0  0  0  0
  3 28  1  0  0  0  0
  4  5  2  0  0  0  0
  4  6  1  0  0  0  0
  6  7  1  0  0  0  0
  6 29  1  0  0  0  0
  7 12  1  0  0  0  0
  7  8  2  0  0  0  0
  8  9  1  0  0  0  0
  8 30  1  0  0  0  0
  9 10  2  0  0  0  0
  9 31  1  0  0  0  0
 10 11  1  0  0  0  0
 11 12  2  0  0  0  0
 11 32  1  0  0  0  0
 12 33  1  0  0  0  0
 13 23  1  0  0  0  0
 13 14  1  0  0  0  0
 13 20  1  0  0  0  0
 14 19  1  0  0  0  0
 14 15  1  0  0  0  0
 15 16  1  0  0  0  0
 15 34  1  0  0  0  0
 15 35  1  0  0  0  0
 16 17  1  0  0  0  0
 16 36  1  0  0  0  0
 16 37  1  0  0  0  0
 17 18  1  0  0  0  0
 18 19  1  0  0  0  0
 18 38  1  0  0  0  0
 18 39  1  0  0  0  0
 19 40  1  0  0  0  0
 19 41  1  0  0  0  0
 20 21  1  0  0  0  0
 20 42  1  0  0  0  0
 20 43  1  0  0  0  0
 21 22  1  0  0  0  0
 21 44  1  0  0  0  0
 21 45  1  0  0  0  0
 22 23  1  0  0  0  0
 22 46  1  0  0  0  0
 22 47  1  0  0  0  0
 23 48  1  0  0  0  0
 23 49  1  0  0  0  0
M  END
> <s_m_source_file>
AV-unprocessed.smi

> <i_m_source_file_index>
702

> <i_lp_mmshare_version>
43012

> <i_f3d_flags>
0

> <s_epik_input>
W0NIMl0xW0NIMl1PW0NIMl1bQ0gyXU4xQzIoW0NIMl1bQ0gyXVtDSDJdW0NIMl0yKVtDQEhdKFtDSDNdKVtOSF1DKD1PKVtOSF1jM1tjSF1bY0hdbltjSF1bY0hdMw==

> <s_epik_cmdline>
J2VwaWtfcHl0aG9uJywgJy1waCcsICc3LjAnLCAnLXRuJywgJzgnLCAnLW1hJywgJzIwMCcsICctbWV0YWxfYmluZGluZycsICctaW1hZScsICc8aW5maWxlLm1hZT4nLCAnLW9tYWUnLCAnPG91dGZpbGUubWFlPic=

> <r_epik_Ionization_Penalty>
0.626636

> <r_epik_Ionization_Penalty_Charging>
0

> <r_epik_Ionization_Penalty_Neutral>
0.626636

> <r_epik_State_Penalty>
0.629018

> <r_epik_Charging_Adjusted_Penalty>
0.629018

> <i_epik_Tot_Q>
0

> <i_epik_Tot_abs_Q>
0

> <r_epik_Metal_State_Penalty>
0.606459

> <b_epik_Metal_Only>
0

> <s_lp_Force_Field>
OPLS_2005

> <r_lp_Energy>
67.5809

> <b_lp_Chiralities_Consistent>
1

> <s_lp_Variant>
AV-unprocessed.smi:702-3

> <Gold.Version>
5.8.1

> <Gold.Id.Protein>
6NUR|6NUR_protein|mol2

> <Gold.PLP.Fitness>
45.0962

> <Gold.PLP.PLP>
-32.0323

> <Gold.PLP.part.hbond>
-3.9798

> <Gold.PLP.part.metal>
0.0000

> <Gold.PLP.part.buried>
-2.2683

> <Gold.PLP.part.nonpolar>
-28.2941

> <Gold.PLP.part.repulsive>
0.9032

> <Gold.PLP.ligand.clash>
0.0241

> <Gold.PLP.ligand.torsion>
0.5009

> <Gold.PLP.Chemscore.Hbond>
2.9314

> <Gold.PLP.Chemscore.CHOScore>
1.7156

> <Gold.PLP.Chemscore.Metal>
0.0000

> <Gold.Chemscore.Hbonds>
donor molecule, donor type, donor heavy atom, donor atom, acceptor molecule, acceptor atom, score
      L1  H     3    28       P1  7948  1.00
      L1  H     6    29       P1  7948  0.98
      P1  H 10752 10763       L1    17  0.86
      P1  H 10785 10796       L1    10  0.12
      L1  C     9    31       P1 10747  0.52
      L1  C    11    32       P1 10186  1.00

> <Gold.PLP.Chemscore.Internal.Correction>
0.1488

> <Gold.Rescore>
     Score         DG    S(hbond)    S(metal)    S(lipo)     H(rot)  DE(clash)    DE(int)     intcor
     16.58     -18.19       1.89        0.00      85.48       1.41       0.01       1.60       ----

> <Gold.Chemscore.Fitness>
16.5786

> <Gold.Chemscore.DG>
-18.1928

> <Gold.Chemscore.ZeroCoef>
-5.4800

> <Gold.Chemscore.Hbond>
1.8935

> <Gold.Chemscore.Metal>
0.0000

> <Gold.Chemscore.Lipo>
85.4779

> <Gold.Chemscore.Internal_Hbond>
0.0000

> <Gold.Chemscore.DEClash>
0.0141

> <Gold.Chemscore.DEInternal>
1.6002

> <Gold.Chemscore.Rot>
1.4111

> <Gold.Chemscore.Internal.Correction>
   9.000000E+99

> <Gold.Chemscore.Hbonds>
donor molecule, donor type, donor heavy atom, donor atom, acceptor molecule, acceptor atom, score
      L1  H     3    28       P1  7948  0.99
      L1  H     6    29       P1  7948  0.82
      P1  H 10752 10763       L1    17  0.04
      P1  H 10785 10796       L1    10  0.12

> <Gold.Chemscore.Hbond.Weighted>
-6.3242

> <Gold.Chemscore.Metal.Weighted>
-0.0000

> <Gold.Chemscore.Lipo.Weighted>
-10.0009

> <Gold.Chemscore.Internal_Hbond.Weighted>
0.0000

> <Gold.Chemscore.DEClash.Weighted>
0.0141

> <Gold.Chemscore.DEInternal.Weighted>
1.6002

> <Gold.Chemscore.Rot.Weighted>
3.6123

> <Gold.Chemscore.Internal.Correction.Weighted>
   9.000000E+99

> <Gold.Protein.RotatedTorsions>
[ 6907 6896 6895 6894 ] final -155.46 input  -60.11 | X-H torsion
[ 7974 7965 7964 7962 ] final  -19.96 input  175.53 | X-H torsion
[ 8008 7997 7996 7995 ] final -150.84 input   59.86 | X-H torsion
[ 10167 10162 10161 10158 ] final -152.45 input  -65.29 | X-H torsion
[ 10718 10713 10712 10709 ] final    3.33 input   66.30 | X-H torsion
[ 10763 10752 10751 10750 ] final   78.51 input  -60.55 | X-H torsion
[ 11005 11000 10999 10996 ] final   68.36 input  -57.11 | X-H torsion

> <Gold.Protein.ActiveResidues>
 VAL166  LYS551  ARG553  GLY616  TRP617  ASP618  TYR619  PRO620  LYS621  CYS622 
 ASP623  PHE694  ASN695  SER759  ASP760  ASP761  ALA762  ILE779  LEU786  VAL792 
 PHE793  MET794  SER795  GLU796  ALA797  LYS798  CYS799  TRP800  GLU811  SER814 

> <Gold.Protein.RotatedAtoms>
  151.2728  133.4247  159.2621 H   0  0  0  0  0  0  0  0  0  0  0  0  # atno 6907 bound_to 6896
  151.0430  134.9621  159.8182 H   0  0  0  0  0  0  0  0  0  0  0  0  # atno 6908 bound_to 6896
  152.5368  134.2685  159.9015 H   0  0  0  0  0  0  0  0  0  0  0  0  # atno 6909 bound_to 6896
  146.1814  140.4135  142.8493 H   0  0  0  0  0  0  0  0  0  0  0  0  # atno 7974 bound_to 7965
  155.6300  140.0690  157.2652 H   0  0  0  0  0  0  0  0  0  0  0  0  # atno 8008 bound_to 7997
  154.4208  140.1769  156.1511 H   0  0  0  0  0  0  0  0  0  0  0  0  # atno 8009 bound_to 7997
  155.9941  140.3342  155.6784 H   0  0  0  0  0  0  0  0  0  0  0  0  # atno 8010 bound_to 7997
  139.7181  143.9001  152.2493 H   0  0  0  0  0  0  0  0  0  0  0  0  # atno 10167 bound_to 10162
  156.8763  130.5637  149.5655 H   0  0  0  0  0  0  0  0  0  0  0  0  # atno 10718 bound_to 10713
  153.0880  135.4874  154.8634 H   0  0  0  0  0  0  0  0  0  0  0  0  # atno 10763 bound_to 10752
  154.7234  135.3044  154.9013 H   0  0  0  0  0  0  0  0  0  0  0  0  # atno 10764 bound_to 10752
  153.9670  135.6805  153.4799 H   0  0  0  0  0  0  0  0  0  0  0  0  # atno 10765 bound_to 10752
  139.9716  134.6891  156.0436 H   0  0  0  0  0  0  0  0  0  0  0  0  # atno 11005 bound_to 11000
  144.8321  140.6723  143.6284 LP  0  0  0  0  0  0  0  0  0  0  0  0  # atno 17320 bound_to 7965
  145.4066  139.1588  143.4148 LP  0  0  0  0  0  0  0  0  0  0  0  0  # atno 17321 bound_to 7965
  139.8889  144.6976  150.8792 LP  0  0  0  0  0  0  0  0  0  0  0  0  # atno 17342 bound_to 10162
  140.7748  143.3602  151.1844 LP  0  0  0  0  0  0  0  0  0  0  0  0  # atno 17343 bound_to 10162
  156.0700  130.5735  150.9365 LP  0  0  0  0  0  0  0  0  0  0  0  0  # atno 17370 bound_to 10713
  157.6166  131.0933  150.8698 LP  0  0  0  0  0  0  0  0  0  0  0  0  # atno 17371 bound_to 10713
  141.1395  133.6568  156.3689 LP  0  0  0  0  0  0  0  0  0  0  0  0  # atno 17394 bound_to 11000
  140.5282  134.6238  157.5341 LP  0  0  0  0  0  0  0  0  0  0  0  0  # atno 17395 bound_to 11000

$$$$
