AV-unprocessed.smi:254|AV-procd|sdf|1945|dock7
  -GOLD-   2262021 73D 1   1.00000     0.00000
 Structure written by MMmdl.
 50 53  0  0  0  0  0  0  0  0  1 V2000
  155.3445  139.5799  162.0467 O   0  0  0  0  0  0  0  0  0  0  0  0
  154.5378  139.0162  161.3090 C   0  0  0  0  0  0  0  0  0  0  0  0
  153.6155  139.7645  160.3645 C   0  0  0  0  0  0  0  0  0  0  0  0
  152.9097  138.6638  159.7197 N   0  0  0  0  0  0  0  0  0  0  0  0
  151.9580  138.8479  158.7684 C   0  0  0  0  0  0  0  0  0  0  0  0
  151.3645  137.7472  158.2363 N   0  0  0  0  0  0  0  0  0  0  0  0
  150.4252  137.8694  157.2954 C   0  0  0  0  0  0  0  0  0  0  0  0
  149.9328  138.9819  156.7510 N   0  0  0  0  0  0  0  0  0  0  0  0
  150.5146  140.0946  157.2807 C   0  0  0  0  0  0  0  0  0  0  0  0
  151.5306  140.1194  158.2807 C   0  0  0  0  0  0  0  0  0  0  0  0
  151.8801  141.4374  158.5523 N   0  0  0  0  0  0  0  0  0  0  0  0
  151.1209  142.1447  157.7627 C   0  0  0  0  0  0  0  0  0  0  0  0
  150.2551  141.4206  156.9748 N   0  0  0  0  0  0  0  0  0  0  0  0
  149.3014  141.9565  156.0112 C   0  0  0  0  0  0  0  0  0  0  0  0
  148.2786  140.9186  155.4762 C   0  0  2  0  0  0  0  0  0  0  0  0
  148.9072  140.0648  154.3484 C   0  0  0  0  0  0  0  0  0  0  0  0
  149.5473  140.8624  153.3745 O   0  0  0  0  0  0  0  0  0  0  0  0
  146.9408  141.5855  155.0510 C   0  0  2  0  0  0  0  0  0  0  0  0
  147.0631  142.5533  153.8847 C   0  0  0  0  0  0  0  0  0  0  0  0
  145.7597  143.3393  153.9743 C   0  0  0  0  0  0  0  0  0  0  0  0
  145.4240  143.3712  155.3566 O   0  0  0  0  0  0  0  0  0  0  0  0
  146.2997  142.5172  156.0849 C   0  0  0  0  0  0  0  0  0  0  0  0
  153.3373  137.3614  160.2109 C   0  0  0  0  0  0  0  0  0  0  0  0
  154.3434  137.6965  161.2053 N   0  0  0  0  0  0  0  0  0  0  0  0
  155.0518  136.6485  161.9367 C   0  0  0  0  0  0  0  0  0  0  0  0
  154.8266  136.7371  163.4568 C   0  0  0  0  0  0  0  0  0  0  0  0
  153.5182  136.8105  163.6965 F   0  0  0  0  0  0  0  0  0  0  0  0
  155.3104  135.6632  164.0805 F   0  0  0  0  0  0  0  0  0  0  0  0
  155.4101  137.8300  163.9488 F   0  0  0  0  0  0  0  0  0  0  0  0
  152.9337  140.4103  160.9193 H   0  0  0  0  0  0  0  0  0  0  0  0
  154.1868  140.3547  159.6471 H   0  0  0  0  0  0  0  0  0  0  0  0
  150.0081  136.9437  156.9272 H   0  0  0  0  0  0  0  0  0  0  0  0
  151.1706  143.2235  157.7383 H   0  0  0  0  0  0  0  0  0  0  0  0
  148.7675  142.7760  156.4940 H   0  0  0  0  0  0  0  0  0  0  0  0
  149.8546  142.4146  155.1915 H   0  0  0  0  0  0  0  0  0  0  0  0
  148.0654  140.2474  156.3098 H   0  0  0  0  0  0  0  0  0  0  0  0
  149.6167  139.3414  154.7518 H   0  0  0  0  0  0  0  0  0  0  0  0
  148.1343  139.4997  153.8273 H   0  0  0  0  0  0  0  0  0  0  0  0
  149.8000  140.3096  152.6507 H   0  0  0  0  0  0  0  0  0  0  0  0
  146.2112  140.8154  154.7971 H   0  0  0  0  0  0  0  0  0  0  0  0
  147.9110  143.2230  154.0351 H   0  0  0  0  0  0  0  0  0  0  0  0
  147.1867  142.0700  152.9171 H   0  0  0  0  0  0  0  0  0  0  0  0
  145.8501  144.3440  153.5614 H   0  0  0  0  0  0  0  0  0  0  0  0
  144.9649  142.8204  153.4372 H   0  0  0  0  0  0  0  0  0  0  0  0
  145.7582  141.9751  156.8602 H   0  0  0  0  0  0  0  0  0  0  0  0
  147.0554  143.1382  156.5679 H   0  0  0  0  0  0  0  0  0  0  0  0
  152.5093  136.8198  160.6704 H   0  0  0  0  0  0  0  0  0  0  0  0
  153.7718  136.7596  159.4114 H   0  0  0  0  0  0  0  0  0  0  0  0
  154.7167  135.6758  161.5741 H   0  0  0  0  0  0  0  0  0  0  0  0
  156.1182  136.7049  161.7126 H   0  0  0  0  0  0  0  0  0  0  0  0
  1  2  2  0  0  0  0
  2 24  1  0  0  0  0
  2  3  1  0  0  0  0
  3  4  1  0  0  0  0
  3 30  1  0  0  0  0
  3 31  1  0  0  0  0
  4  5  1  0  0  0  0
  4 23  1  0  0  0  0
  5 10  1  0  0  0  0
  5  6  2  0  0  0  0
  6  7  1  0  0  0  0
  7  8  2  0  0  0  0
  7 32  1  0  0  0  0
  8  9  1  0  0  0  0
  9 13  1  0  0  0  0
  9 10  2  0  0  0  0
 10 11  1  0  0  0  0
 11 12  2  0  0  0  0
 12 13  1  0  0  0  0
 12 33  1  0  0  0  0
 13 14  1  0  0  0  0
 14 15  1  0  0  0  0
 14 34  1  0  0  0  0
 14 35  1  0  0  0  0
 15 16  1  0  0  0  0
 15 18  1  0  0  0  0
 15 36  1  0  0  0  0
 16 17  1  0  0  0  0
 16 37  1  0  0  0  0
 16 38  1  0  0  0  0
 17 39  1  0  0  0  0
 18 22  1  0  0  0  0
 18 19  1  0  0  0  0
 18 40  1  0  0  0  0
 19 20  1  0  0  0  0
 19 41  1  0  0  0  0
 19 42  1  0  0  0  0
 20 21  1  0  0  0  0
 20 43  1  0  0  0  0
 20 44  1  0  0  0  0
 21 22  1  0  0  0  0
 22 45  1  0  0  0  0
 22 46  1  0  0  0  0
 23 24  1  0  0  0  0
 23 47  1  0  0  0  0
 23 48  1  0  0  0  0
 24 25  1  0  0  0  0
 25 26  1  0  0  0  0
 25 49  1  0  0  0  0
 25 50  1  0  0  0  0
 26 27  1  0  0  0  0
 26 28  1  0  0  0  0
 26 29  1  0  0  0  0
M  END
> <s_m_source_file>
AV-unprocessed.smi

> <i_m_source_file_index>
254

> <i_lp_mmshare_version>
43012

> <i_f3d_flags>
0

> <s_epik_input>
RkMoRikoRilbQ0gyXU4xW0NIMl1OKFtDSDJdQzE9TyljKG5bY0hdbjIpYyhjMjMpbltjSF1uM1tDSDJdW0NASF0oW0NIMl1bT0hdKVtDQEBIXTRbQ0gyXVtDSDJdT1tDSDJdNA==

> <s_epik_cmdline>
J2VwaWtfcHl0aG9uJywgJy1waCcsICc3LjAnLCAnLXRuJywgJzgnLCAnLW1hJywgJzIwMCcsICctbWV0YWxfYmluZGluZycsICctaW1hZScsICc8aW5maWxlLm1hZT4nLCAnLW9tYWUnLCAnPG91dGZpbGUubWFlPic=

> <r_lp_tautomer_probability>
1

> <r_epik_Ionization_Penalty>
0.000292924

> <r_epik_Ionization_Penalty_Charging>
0

> <r_epik_Ionization_Penalty_Neutral>
0.000292924

> <r_epik_State_Penalty>
-0

> <r_epik_Charging_Adjusted_Penalty>
0

> <i_epik_Tot_Q>
0

> <i_epik_Tot_abs_Q>
0

> <r_epik_Metal_State_Penalty>
-0

> <b_epik_Metal_Only>
0

> <s_epik_Chemistry_Notes>
This compound contains an acetal/aminal-like group ( X-CH(R)-Y where X, Y are N, S, or O) that may be acid/base labile, releasing an aldehyde.

> <s_lp_Force_Field>
OPLS_2005

> <r_lp_Energy>
38.7096

> <b_lp_Chiralities_Consistent>
1

> <s_lp_Variant>
AV-unprocessed.smi:254-1

> <Gold.Version>
5.8.1

> <Gold.Id.Protein>
6NUR|6NUR_protein|mol2

> <Gold.PLP.Fitness>
48.6712

> <Gold.PLP.PLP>
-44.9204

> <Gold.PLP.part.hbond>
-2.3847

> <Gold.PLP.part.metal>
0.0000

> <Gold.PLP.part.buried>
-6.3309

> <Gold.PLP.part.nonpolar>
-36.7959

> <Gold.PLP.part.repulsive>
0.1907

> <Gold.PLP.ligand.clash>
0.0000

> <Gold.PLP.ligand.torsion>
0.5930

> <Gold.PLP.Chemscore.Hbond>
1.5320

> <Gold.PLP.Chemscore.CHOScore>
0.0000

> <Gold.PLP.Chemscore.Metal>
0.0000

> <Gold.Chemscore.Hbonds>
donor molecule, donor type, donor heavy atom, donor atom, acceptor molecule, acceptor atom, score
      L1  H    17    39       P1  7957  0.87
      P1  H  8011  8017       L1    17  0.55

> <Gold.PLP.Chemscore.Internal.Correction>
0.3408

> <Gold.Rescore>
     Score         DG    S(hbond)    S(metal)    S(lipo)     H(rot)  DE(clash)    DE(int)     intcor
      0.81      -6.57       0.96        0.00      54.00       3.30       0.02       5.74       ----

> <Gold.Chemscore.Fitness>
0.8096

> <Gold.Chemscore.DG>
-6.5711

> <Gold.Chemscore.ZeroCoef>
-5.4800

> <Gold.Chemscore.Hbond>
0.9624

> <Gold.Chemscore.Metal>
0.0000

> <Gold.Chemscore.Lipo>
54.0004

> <Gold.Chemscore.Internal_Hbond>
0.0000

> <Gold.Chemscore.DEClash>
0.0234

> <Gold.Chemscore.DEInternal>
5.7380

> <Gold.Chemscore.Rot>
3.2974

> <Gold.Chemscore.Internal.Correction>
   9.000000E+99

> <Gold.Chemscore.Hbonds>
donor molecule, donor type, donor heavy atom, donor atom, acceptor molecule, acceptor atom, score
      L1  H    17    39       P1  7957  0.81
      P1  H  8011  8017       L1    17  0.03

> <Gold.Chemscore.Hbond.Weighted>
-3.2145

> <Gold.Chemscore.Metal.Weighted>
-0.0000

> <Gold.Chemscore.Lipo.Weighted>
-6.3180

> <Gold.Chemscore.Internal_Hbond.Weighted>
0.0000

> <Gold.Chemscore.DEClash.Weighted>
0.0234

> <Gold.Chemscore.DEInternal.Weighted>
5.7380

> <Gold.Chemscore.Rot.Weighted>
8.4414

> <Gold.Chemscore.Internal.Correction.Weighted>
   9.000000E+99

> <Gold.Protein.RotatedTorsions>
[ 6907 6896 6895 6894 ] final    4.20 input  -60.11 | X-H torsion
[ 7974 7965 7964 7962 ] final   95.61 input  175.53 | X-H torsion
[ 8008 7997 7996 7995 ] final  -50.20 input   59.86 | X-H torsion
[ 10167 10162 10161 10158 ] final   59.75 input  -65.29 | X-H torsion
[ 10718 10713 10712 10709 ] final  149.59 input   66.30 | X-H torsion
[ 10763 10752 10751 10750 ] final  -39.26 input  -60.55 | X-H torsion
[ 11005 11000 10999 10996 ] final -144.63 input  -57.11 | X-H torsion

> <Gold.Protein.ActiveResidues>
 VAL166  LYS551  ARG553  GLY616  TRP617  ASP618  TYR619  PRO620  LYS621  CYS622 
 ASP623  PHE694  ASN695  SER759  ASP760  ASP761  ALA762  ILE779  LEU786  VAL792 
 PHE793  MET794  SER795  GLU796  ALA797  LYS798  CYS799  TRP800  GLU811  SER814 

> <Gold.Protein.RotatedAtoms>
  151.6374  135.1016  160.0134 H   0  0  0  0  0  0  0  0  0  0  0  0  # atno 6907 bound_to 6896
  152.4073  133.6904  159.6375 H   0  0  0  0  0  0  0  0  0  0  0  0  # atno 6908 bound_to 6896
  150.7966  133.8604  159.3271 H   0  0  0  0  0  0  0  0  0  0  0  0  # atno 6909 bound_to 6896
  145.4498  139.2294  143.3046 H   0  0  0  0  0  0  0  0  0  0  0  0  # atno 7974 bound_to 7965
  154.4057  140.1278  156.4627 H   0  0  0  0  0  0  0  0  0  0  0  0  # atno 8008 bound_to 7997
  155.7257  140.3492  155.5016 H   0  0  0  0  0  0  0  0  0  0  0  0  # atno 8009 bound_to 7997
  155.9174  140.1046  157.1223 H   0  0  0  0  0  0  0  0  0  0  0  0  # atno 8010 bound_to 7997
  140.1730  144.4257  150.6652 H   0  0  0  0  0  0  0  0  0  0  0  0  # atno 10167 bound_to 10162
  157.2941  131.0859  151.1439 H   0  0  0  0  0  0  0  0  0  0  0  0  # atno 10718 bound_to 10713
  153.9265  135.6776  153.4746 H   0  0  0  0  0  0  0  0  0  0  0  0  # atno 10763 bound_to 10752
  153.1002  135.4832  154.8849 H   0  0  0  0  0  0  0  0  0  0  0  0  # atno 10764 bound_to 10752
  154.7451  135.3170  154.8617 H   0  0  0  0  0  0  0  0  0  0  0  0  # atno 10765 bound_to 10752
  140.8005  134.2863  157.4980 H   0  0  0  0  0  0  0  0  0  0  0  0  # atno 11005 bound_to 11000
  146.2510  140.5256  142.8893 LP  0  0  0  0  0  0  0  0  0  0  0  0  # atno 17320 bound_to 7965
  144.8068  140.6315  143.6441 LP  0  0  0  0  0  0  0  0  0  0  0  0  # atno 17321 bound_to 7965
  140.6569  143.2240  151.5947 LP  0  0  0  0  0  0  0  0  0  0  0  0  # atno 17342 bound_to 10162
  139.5329  144.2863  152.1188 LP  0  0  0  0  0  0  0  0  0  0  0  0  # atno 17343 bound_to 10162
  157.2824  130.6756  149.6072 LP  0  0  0  0  0  0  0  0  0  0  0  0  # atno 17370 bound_to 10713
  155.9668  130.4446  150.5466 LP  0  0  0  0  0  0  0  0  0  0  0  0  # atno 17371 bound_to 10713
  139.8722  134.9426  156.3830 LP  0  0  0  0  0  0  0  0  0  0  0  0  # atno 17394 bound_to 11000
  140.9300  133.7586  156.0012 LP  0  0  0  0  0  0  0  0  0  0  0  0  # atno 17395 bound_to 11000

$$$$
