AV-unprocessed.smi:754|AV-procd|sdf|3610|dock1
  -GOLD-   22720 1 03D 1   1.00000     0.00000
 Structure written by MMmdl.
 37 38  0  0  0  0  0  0  0  0  1 V2000
  148.6154  145.1080  160.8059 C   0  0  0  0  0  0  0  0  0  0  0  0
  150.0658  145.0875  160.3185 C   0  0  0  0  0  0  0  0  0  0  0  0
  150.1030  144.5414  159.0108 O   0  0  0  0  0  0  0  0  0  0  0  0
  150.4741  143.1719  158.9953 C   0  0  1  0  0  0  0  0  0  0  0  0
  150.4061  142.5069  157.6174 C   0  0  0  0  0  0  0  0  0  0  0  0
  151.7338  141.8228  157.9595 C   0  0  2  0  0  0  0  0  0  0  0  0
  151.5064  140.5119  158.5661 N   0  0  0  0  0  0  0  0  0  0  0  0
  152.3319  139.4615  158.4487 C   0  0  0  0  0  0  0  0  0  0  0  0
  153.3358  139.4603  157.7371 O   0  0  0  0  0  0  0  0  0  0  0  0
  151.9904  138.2353  159.2939 C   0  0  0  0  0  0  0  0  0  0  0  0
  151.8826  137.0575  158.4533 N   0  0  0  0  0  0  0  0  0  0  0  0
  152.7674  136.4762  157.6405 C   0  0  0  0  0  0  0  0  0  0  0  0
  152.2704  135.3859  157.0771 N   0  0  0  0  0  0  0  0  0  0  0  0
  150.9886  135.3188  157.5973 N   0  0  0  0  0  0  0  0  0  0  0  0
  150.7532  136.3072  158.4157 N   0  0  0  0  0  0  0  0  0  0  0  0
  152.0063  142.9518  158.9959 C   0  0  0  0  0  0  0  0  0  0  0  0
  152.8492  144.1109  158.4472 C   0  0  0  0  0  0  0  0  0  0  0  0
  152.6243  142.5659  160.3460 C   0  0  0  0  0  0  0  0  0  0  0  0
  148.5489  145.5194  161.8130 H   0  0  0  0  0  0  0  0  0  0  0  0
  148.1956  144.1020  160.8267 H   0  0  0  0  0  0  0  0  0  0  0  0
  147.9914  145.7187  160.1530 H   0  0  0  0  0  0  0  0  0  0  0  0
  150.4714  146.1002  160.3147 H   0  0  0  0  0  0  0  0  0  0  0  0
  150.6759  144.4902  160.9973 H   0  0  0  0  0  0  0  0  0  0  0  0
  149.9740  142.5848  159.7690 H   0  0  0  0  0  0  0  0  0  0  0  0
  149.5558  141.8386  157.4753 H   0  0  0  0  0  0  0  0  0  0  0  0
  150.4963  143.2184  156.7952 H   0  0  0  0  0  0  0  0  0  0  0  0
  152.4316  141.8119  157.1202 H   0  0  0  0  0  0  0  0  0  0  0  0
  150.7029  140.4211  159.1714 H   0  0  0  0  0  0  0  0  0  0  0  0
  152.7565  138.0751  160.0539 H   0  0  0  0  0  0  0  0  0  0  0  0
  151.0423  138.3859  159.8120 H   0  0  0  0  0  0  0  0  0  0  0  0
  153.7696  136.8423  157.4726 H   0  0  0  0  0  0  0  0  0  0  0  0
  153.8844  143.8080  158.2876 H   0  0  0  0  0  0  0  0  0  0  0  0
  152.8574  144.9610  159.1302 H   0  0  0  0  0  0  0  0  0  0  0  0
  152.4709  144.4734  157.4909 H   0  0  0  0  0  0  0  0  0  0  0  0
  153.6246  142.1496  160.2223 H   0  0  0  0  0  0  0  0  0  0  0  0
  152.0262  141.8219  160.8726 H   0  0  0  0  0  0  0  0  0  0  0  0
  152.7053  143.4267  161.0104 H   0  0  0  0  0  0  0  0  0  0  0  0
  1  2  1  0  0  0  0
  1 19  1  0  0  0  0
  1 20  1  0  0  0  0
  1 21  1  0  0  0  0
  2  3  1  0  0  0  0
  2 22  1  0  0  0  0
  2 23  1  0  0  0  0
  3  4  1  0  0  0  0
  4 16  1  0  0  0  0
  4  5  1  0  0  0  0
  4 24  1  0  0  0  0
  5  6  1  0  0  0  0
  5 25  1  0  0  0  0
  5 26  1  0  0  0  0
  6  7  1  0  0  0  0
  6 16  1  0  0  0  0
  6 27  1  0  0  0  0
  7  8  1  0  0  0  0
  7 28  1  0  0  0  0
  8  9  2  0  0  0  0
  8 10  1  0  0  0  0
 10 11  1  0  0  0  0
 10 29  1  0  0  0  0
 10 30  1  0  0  0  0
 11 15  1  0  0  0  0
 11 12  1  0  0  0  0
 12 13  2  0  0  0  0
 12 31  1  0  0  0  0
 13 14  1  0  0  0  0
 14 15  2  0  0  0  0
 16 17  1  0  0  0  0
 16 18  1  0  0  0  0
 17 32  1  0  0  0  0
 17 33  1  0  0  0  0
 17 34  1  0  0  0  0
 18 35  1  0  0  0  0
 18 36  1  0  0  0  0
 18 37  1  0  0  0  0
M  END
> <s_m_source_file>
AV-unprocessed.smi

> <i_m_source_file_index>
754

> <i_lp_mmshare_version>
43012

> <i_f3d_flags>
0

> <s_epik_input>
W0NIM11bQ0gyXU9bQ0BASF0oQzEoW0NIM10pW0NIM10pW0NIMl1bQ0BIXTFbTkhdQyg9TylbQ0gyXW4yW2NIXW5ubjI=

> <s_epik_cmdline>
J2VwaWtfcHl0aG9uJywgJy1waCcsICc3LjAnLCAnLXRuJywgJzgnLCAnLW1hJywgJzIwMCcsICctbWV0YWxfYmluZGluZycsICctaW1hZScsICc8aW5maWxlLm1hZT4nLCAnLW9tYWUnLCAnPG91dGZpbGUubWFlPic=

> <r_lp_tautomer_probability>
1

> <r_epik_Ionization_Penalty>
8.28422e-07

> <r_epik_Ionization_Penalty_Charging>
0

> <r_epik_Ionization_Penalty_Neutral>
8.28422e-07

> <r_epik_State_Penalty>
-0

> <r_epik_Charging_Adjusted_Penalty>
0

> <i_epik_Tot_Q>
0

> <i_epik_Tot_abs_Q>
0

> <r_epik_Metal_State_Penalty>
-0

> <b_epik_Metal_Only>
0

> <s_lp_Force_Field>
OPLS_2005

> <r_lp_Energy>
21.5247

> <b_lp_Chiralities_Consistent>
1

> <s_lp_Variant>
AV-unprocessed.smi:754-4

> <Gold.Version>
5.8.1

> <Gold.Id.Protein>
6NUR|6NUR_protein|mol2

> <Gold.PLP.Fitness>
36.6284

> <Gold.PLP.PLP>
-30.7098

> <Gold.PLP.part.hbond>
-3.7860

> <Gold.PLP.part.metal>
0.0000

> <Gold.PLP.part.buried>
-5.1070

> <Gold.PLP.part.nonpolar>
-23.1176

> <Gold.PLP.part.repulsive>
0.3190

> <Gold.PLP.ligand.clash>
0.0000

> <Gold.PLP.ligand.torsion>
0.6577

> <Gold.PLP.Chemscore.Hbond>
2.2464

> <Gold.PLP.Chemscore.CHOScore>
0.0000

> <Gold.PLP.Chemscore.Metal>
0.0000

> <Gold.Chemscore.Hbonds>
donor molecule, donor type, donor heavy atom, donor atom, acceptor molecule, acceptor atom, score
      P1  H  6896  6907       L1    15  0.04
      P1  H  7997  8008       L1     9  0.94
      P1  H 10752 10764       L1    13  0.73

> <Gold.PLP.Chemscore.Internal.Correction>
0.4949

> <Gold.Rescore>
     Score         DG    S(hbond)    S(metal)    S(lipo)     H(rot)  DE(clash)    DE(int)     intcor
     12.55     -14.19       1.88        0.00      74.52       2.46       0.05       1.58       ----

> <Gold.Chemscore.Fitness>
12.5547

> <Gold.Chemscore.DG>
-14.1887

> <Gold.Chemscore.ZeroCoef>
-5.4800

> <Gold.Chemscore.Hbond>
1.8838

> <Gold.Chemscore.Metal>
0.0000

> <Gold.Chemscore.Lipo>
74.5180

> <Gold.Chemscore.Internal_Hbond>
0.0000

> <Gold.Chemscore.DEClash>
0.0532

> <Gold.Chemscore.DEInternal>
1.5809

> <Gold.Chemscore.Rot>
2.4616

> <Gold.Chemscore.Internal.Correction>
   9.000000E+99

> <Gold.Chemscore.Hbonds>
donor molecule, donor type, donor heavy atom, donor atom, acceptor molecule, acceptor atom, score
      P1  H  7997  8008       L1     9  0.91
      P1  H 10752 10764       L1    13  0.22

> <Gold.Chemscore.Hbond.Weighted>
-6.2917

> <Gold.Chemscore.Metal.Weighted>
-0.0000

> <Gold.Chemscore.Lipo.Weighted>
-8.7186

> <Gold.Chemscore.Internal_Hbond.Weighted>
0.0000

> <Gold.Chemscore.DEClash.Weighted>
0.0532

> <Gold.Chemscore.DEInternal.Weighted>
1.5809

> <Gold.Chemscore.Rot.Weighted>
6.3016

> <Gold.Chemscore.Internal.Correction.Weighted>
   9.000000E+99

> <Gold.Protein.RotatedTorsions>
[ 6907 6896 6895 6894 ] final  -46.28 input  -60.11 | X-H torsion
[ 7974 7965 7964 7962 ] final   20.49 input  175.53 | X-H torsion
[ 8008 7997 7996 7995 ] final  -58.01 input   59.86 | X-H torsion
[ 10167 10162 10161 10158 ] final   42.55 input  -65.29 | X-H torsion
[ 10718 10713 10712 10709 ] final -101.39 input   66.30 | X-H torsion
[ 10763 10752 10751 10750 ] final  -19.62 input  -60.55 | X-H torsion
[ 11005 11000 10999 10996 ] final  -52.94 input  -57.11 | X-H torsion

> <Gold.Protein.ActiveResidues>
 VAL166  LYS551  ARG553  GLY616  TRP617  ASP618  TYR619  PRO620  LYS621  CYS622 
 ASP623  PHE694  ASN695  SER759  ASP760  ASP761  ALA762  ILE779  LEU786  VAL792 
 PHE793  MET794  SER795  GLU796  ALA797  LYS798  CYS799  TRP800  GLU811  SER814 

> <Gold.Protein.RotatedAtoms>
  150.9130  134.8547  159.7437 H   0  0  0  0  0  0  0  0  0  0  0  0  # atno 6907 bound_to 6896
  152.4954  134.4331  159.9529 H   0  0  0  0  0  0  0  0  0  0  0  0  # atno 6908 bound_to 6896
  151.4372  133.3614  159.2812 H   0  0  0  0  0  0  0  0  0  0  0  0  # atno 6909 bound_to 6896
  146.2109  139.8163  142.8689 H   0  0  0  0  0  0  0  0  0  0  0  0  # atno 7974 bound_to 7965
  154.4291  140.1094  156.5888 H   0  0  0  0  0  0  0  0  0  0  0  0  # atno 8008 bound_to 7997
  155.6034  140.3493  155.4582 H   0  0  0  0  0  0  0  0  0  0  0  0  # atno 8009 bound_to 7997
  156.0156  140.1228  157.0399 H   0  0  0  0  0  0  0  0  0  0  0  0  # atno 8010 bound_to 7997
  140.3533  144.2323  150.6144 H   0  0  0  0  0  0  0  0  0  0  0  0  # atno 10167 bound_to 10162
  156.0193  130.5371  150.6956 H   0  0  0  0  0  0  0  0  0  0  0  0  # atno 10718 bound_to 10713
  153.6076  135.6997  153.5359 H   0  0  0  0  0  0  0  0  0  0  0  0  # atno 10763 bound_to 10752
  153.3044  135.4119  155.1281 H   0  0  0  0  0  0  0  0  0  0  0  0  # atno 10764 bound_to 10752
  154.8570  135.3657  154.5613 H   0  0  0  0  0  0  0  0  0  0  0  0  # atno 10765 bound_to 10752
  141.0950  133.6626  156.4099 H   0  0  0  0  0  0  0  0  0  0  0  0  # atno 11005 bound_to 11000
  145.3143  141.0228  143.3536 LP  0  0  0  0  0  0  0  0  0  0  0  0  # atno 17320 bound_to 7965
  144.8913  139.4771  143.6677 LP  0  0  0  0  0  0  0  0  0  0  0  0  # atno 17321 bound_to 7965
  140.5198  143.2268  151.8406 LP  0  0  0  0  0  0  0  0  0  0  0  0  # atno 17342 bound_to 10162
  139.4823  144.4850  151.9258 LP  0  0  0  0  0  0  0  0  0  0  0  0  # atno 17343 bound_to 10162
  157.4628  131.0885  151.0727 LP  0  0  0  0  0  0  0  0  0  0  0  0  # atno 17370 bound_to 10713
  157.1210  130.6061  149.5505 LP  0  0  0  0  0  0  0  0  0  0  0  0  # atno 17371 bound_to 10713
  140.5161  134.6349  157.5301 LP  0  0  0  0  0  0  0  0  0  0  0  0  # atno 17394 bound_to 11000
  139.9785  134.7176  155.9904 LP  0  0  0  0  0  0  0  0  0  0  0  0  # atno 17395 bound_to 11000

$$$$
