AV-unprocessed.smi:280|AV-procd|sdf|2100|dock4
  -GOLD-   2262021393D 1   1.00000     0.00000
 Structure written by MMmdl.
 59 62  0  0  0  0  0  0  0  0  2 V2000
  148.6129  134.2018  154.5694 C   0  0  0  0  0  0  0  0  0  0  0  0
  148.2143  135.6331  154.9851 C   0  0  1  0  0  0  0  0  0  0  0  0
  149.5053  136.4788  155.0786 C   0  0  0  0  0  0  0  0  0  0  0  0
  149.2278  137.8865  155.3350 N   0  0  0  0  0  0  0  0  0  0  0  0
  150.3034  138.6171  155.7260 C   0  0  0  0  0  0  0  0  0  0  0  0
  151.5423  138.0562  155.7226 N   0  0  0  0  0  0  0  0  0  0  0  0
  152.6066  138.7667  156.1074 C   0  0  0  0  0  0  0  0  0  0  0  0
  152.6569  140.0329  156.5243 N   0  0  0  0  0  0  0  0  0  0  0  0
  151.4189  140.6044  156.5261 C   0  0  0  0  0  0  0  0  0  0  0  0
  150.2004  139.9734  156.1466 C   0  0  0  0  0  0  0  0  0  0  0  0
  149.1468  140.8721  156.2644 N   0  0  0  0  0  0  0  0  0  0  0  0
  149.7092  141.9690  156.6933 C   0  0  0  0  0  0  0  0  0  0  0  0
  151.0704  141.8952  156.8866 N   0  0  0  0  0  0  0  0  0  0  0  0
  151.9456  142.9632  157.3468 C   0  0  0  0  0  0  0  0  0  0  0  0
  151.7895  143.2967  158.8441 C   0  0  0  0  0  0  0  0  0  0  0  0
  150.4453  144.0001  159.1011 C   0  0  0  0  0  0  0  0  0  0  0  0
  150.2842  145.1232  158.2586 O   0  0  0  0  0  0  0  0  0  0  0  0
  152.1247  142.1630  159.8229 C   0  0  0  0  0  0  0  0  0  0  0  0
  153.0207  143.0035  160.5808 O   0  0  0  0  0  0  0  0  0  0  0  0
  152.9966  143.9720  159.5112 C   0  0  0  0  0  0  0  0  0  0  0  0
  148.3071  138.4885  154.3793 C   0  0  0  0  0  0  0  0  0  0  0  0
  146.9961  137.6969  154.3409 C   0  0  0  0  0  0  0  0  0  0  0  0
  147.2201  136.2537  154.0524 N   0  3  2  0  0  0  0  0  0  0  0  0
  145.9224  135.5234  153.9455 C   0  0  0  0  0  0  0  0  0  0  0  0
  145.2996  135.6003  152.5297 C   0  0  0  0  0  0  0  0  0  0  0  0
  144.0650  134.6953  152.3699 C   0  0  0  0  0  0  0  0  0  0  0  0
  144.9346  137.0561  152.1931 C   0  0  0  0  0  0  0  0  0  0  0  0
  146.2651  135.1984  151.5781 O   0  0  0  0  0  0  0  0  0  0  0  0
  149.3805  133.8086  155.2366 H   0  0  0  0  0  0  0  0  0  0  0  0
  149.0233  134.1830  153.5596 H   0  0  0  0  0  0  0  0  0  0  0  0
  147.7853  133.4956  154.6062 H   0  0  0  0  0  0  0  0  0  0  0  0
  147.7596  135.5961  155.9768 H   0  0  0  0  0  0  0  0  0  0  0  0
  150.1534  136.0607  155.8482 H   0  0  0  0  0  0  0  0  0  0  0  0
  150.0592  136.4116  154.1408 H   0  0  0  0  0  0  0  0  0  0  0  0
  153.5529  138.2470  156.0755 H   0  0  0  0  0  0  0  0  0  0  0  0
  149.1403  142.8686  156.8775 H   0  0  0  0  0  0  0  0  0  0  0  0
  152.9764  142.6925  157.1162 H   0  0  0  0  0  0  0  0  0  0  0  0
  151.7350  143.8434  156.7379 H   0  0  0  0  0  0  0  0  0  0  0  0
  149.6141  143.3203  158.9113 H   0  0  0  0  0  0  0  0  0  0  0  0
  150.3460  144.3148  160.1398 H   0  0  0  0  0  0  0  0  0  0  0  0
  149.9765  144.8264  157.4157 H   0  0  0  0  0  0  0  0  0  0  0  0
  151.2755  141.8162  160.4131 H   0  0  0  0  0  0  0  0  0  0  0  0
  152.6484  141.3222  159.3651 H   0  0  0  0  0  0  0  0  0  0  0  0
  153.9132  143.9352  158.9209 H   0  0  0  0  0  0  0  0  0  0  0  0
  152.8013  144.9852  159.8648 H   0  0  0  0  0  0  0  0  0  0  0  0
  148.0983  139.5230  154.6562 H   0  0  0  0  0  0  0  0  0  0  0  0
  148.7658  138.5030  153.3894 H   0  0  0  0  0  0  0  0  0  0  0  0
  146.4886  137.7966  155.3020 H   0  0  0  0  0  0  0  0  0  0  0  0
  146.3364  138.1322  153.5901 H   0  0  0  0  0  0  0  0  0  0  0  0
  146.0356  134.4780  154.2261 H   0  0  0  0  0  0  0  0  0  0  0  0
  145.2133  135.9143  154.6776 H   0  0  0  0  0  0  0  0  0  0  0  0
  143.2850  134.9638  153.0829 H   0  0  0  0  0  0  0  0  0  0  0  0
  144.3095  133.6440  152.5237 H   0  0  0  0  0  0  0  0  0  0  0  0
  143.6374  134.7831  151.3703 H   0  0  0  0  0  0  0  0  0  0  0  0
  144.1825  137.4425  152.8818 H   0  0  0  0  0  0  0  0  0  0  0  0
  144.5299  137.1445  151.1839 H   0  0  0  0  0  0  0  0  0  0  0  0
  145.8046  137.7111  152.2559 H   0  0  0  0  0  0  0  0  0  0  0  0
  147.0048  135.7849  151.6327 H   0  0  0  0  0  0  0  0  0  0  0  0
  147.6409  136.2117  153.1352 H   0  0  0  0  0  0  0  0  0  0  0  0
  1  2  1  0  0  0  0
  1 29  1  0  0  0  0
  1 30  1  0  0  0  0
  1 31  1  0  0  0  0
  2 23  1  0  0  0  0
  2  3  1  0  0  0  0
  2 32  1  0  0  0  0
  3  4  1  0  0  0  0
  3 33  1  0  0  0  0
  3 34  1  0  0  0  0
  4  5  1  0  0  0  0
  4 21  1  0  0  0  0
  5 10  1  0  0  0  0
  5  6  2  0  0  0  0
  6  7  1  0  0  0  0
  7  8  2  0  0  0  0
  7 35  1  0  0  0  0
  8  9  1  0  0  0  0
  9 13  1  0  0  0  0
  9 10  2  0  0  0  0
 10 11  1  0  0  0  0
 11 12  2  0  0  0  0
 12 13  1  0  0  0  0
 12 36  1  0  0  0  0
 13 14  1  0  0  0  0
 14 15  1  0  0  0  0
 14 37  1  0  0  0  0
 14 38  1  0  0  0  0
 15 20  1  0  0  0  0
 15 16  1  0  0  0  0
 15 18  1  0  0  0  0
 16 17  1  0  0  0  0
 16 39  1  0  0  0  0
 16 40  1  0  0  0  0
 17 41  1  0  0  0  0
 18 19  1  0  0  0  0
 18 42  1  0  0  0  0
 18 43  1  0  0  0  0
 19 20  1  0  0  0  0
 20 44  1  0  0  0  0
 20 45  1  0  0  0  0
 21 22  1  0  0  0  0
 21 46  1  0  0  0  0
 21 47  1  0  0  0  0
 22 23  1  0  0  0  0
 22 48  1  0  0  0  0
 22 49  1  0  0  0  0
 23 24  1  0  0  0  0
 23 59  1  0  0  0  0
 24 25  1  0  0  0  0
 24 50  1  0  0  0  0
 24 51  1  0  0  0  0
 25 26  1  0  0  0  0
 25 27  1  0  0  0  0
 25 28  1  0  0  0  0
 26 52  1  0  0  0  0
 26 53  1  0  0  0  0
 26 54  1  0  0  0  0
 27 55  1  0  0  0  0
 27 56  1  0  0  0  0
 27 57  1  0  0  0  0
 28 58  1  0  0  0  0
M  CHG  1  23   1
M  END
> <s_m_source_file>
AV-unprocessed.smi

> <i_m_source_file_index>
280

> <i_lp_mmshare_version>
43012

> <i_f3d_flags>
0

> <s_epik_input>
W0NIM11DKFtDSDNdKShbT0hdKVtDSDJdTjFbQ0gyXVtDSDJdTihbQ0gyXVtDQEhdMVtDSDNdKWMobltjSF1uMiljKGMyMyluW2NIXW4zW0NIMl1DNChbQ0gyXVtPSF0pW0NIMl1PW0NIMl00

> <s_epik_cmdline>
J2VwaWtfcHl0aG9uJywgJy1waCcsICc3LjAnLCAnLXRuJywgJzgnLCAnLW1hJywgJzIwMCcsICctbWV0YWxfYmluZGluZycsICctaW1hZScsICc8aW5maWxlLm1hZT4nLCAnLW9tYWUnLCAnPG91dGZpbGUubWFlPic=

> <r_lp_tautomer_probability>
1

> <r_epik_Ionization_Penalty>
0.00179402

> <r_epik_Ionization_Penalty_Charging>
0.00173996

> <r_epik_Ionization_Penalty_Neutral>
5.40607e-05

> <r_epik_State_Penalty>
-0

> <r_epik_Charging_Adjusted_Penalty>
0.00173996

> <i_epik_Tot_Q>
1

> <i_epik_Tot_abs_Q>
1

> <r_epik_Metal_State_Penalty>
-0

> <b_epik_Metal_Only>
0

> <s_lp_Force_Field>
OPLS_2005

> <r_lp_Energy>
52.0143

> <b_lp_Chiralities_Consistent>
1

> <s_lp_Variant>
AV-unprocessed.smi:280-4

> <Gold.Version>
5.8.1

> <Gold.Id.Protein>
6NUR|6NUR_protein|mol2

> <Gold.PLP.Fitness>
51.3028

> <Gold.PLP.PLP>
-33.9452

> <Gold.PLP.part.hbond>
-5.0000

> <Gold.PLP.part.metal>
0.0000

> <Gold.PLP.part.buried>
-2.1485

> <Gold.PLP.part.nonpolar>
-25.2353

> <Gold.PLP.part.repulsive>
0.1635

> <Gold.PLP.ligand.clash>
0.0000

> <Gold.PLP.ligand.torsion>
0.9682

> <Gold.PLP.Chemscore.Hbond>
4.9500

> <Gold.PLP.Chemscore.CHOScore>
1.0000

> <Gold.PLP.Chemscore.Metal>
0.0000

> <Gold.Chemscore.Hbonds>
donor molecule, donor type, donor heavy atom, donor atom, acceptor molecule, acceptor atom, score
      L1  H    17    41       P1  8028  0.70
      L1  H    23    59       P1  7948  2.00
      L1  H    28    58       P1  7948  1.00
      P1  H  7997  8009       L1     8  0.70
      L1  C    12    36       P1  8028  1.00

> <Gold.PLP.Chemscore.Internal.Correction>
1.4440

> <Gold.Rescore>
     Score         DG    S(hbond)    S(metal)    S(lipo)     H(rot)  DE(clash)    DE(int)     intcor
     14.81     -18.08       3.43        0.00      89.13       3.63       2.11       1.16       ----

> <Gold.Chemscore.Fitness>
14.8092

> <Gold.Chemscore.DG>
-18.0799

> <Gold.Chemscore.ZeroCoef>
-5.4800

> <Gold.Chemscore.Hbond>
3.4292

> <Gold.Chemscore.Metal>
0.0000

> <Gold.Chemscore.Lipo>
89.1347

> <Gold.Chemscore.Internal_Hbond>
0.0000

> <Gold.Chemscore.DEClash>
2.1128

> <Gold.Chemscore.DEInternal>
1.1578

> <Gold.Chemscore.Rot>
3.6260

> <Gold.Chemscore.Internal.Correction>
   9.000000E+99

> <Gold.Chemscore.Hbonds>
donor molecule, donor type, donor heavy atom, donor atom, acceptor molecule, acceptor atom, score
      L1  H    17    41       P1  8028  0.07
      L1  H    23    59       P1  7948  0.99
      L1  H    28    58       P1  7948  0.95
      P1  H  7997  8009       L1     8  0.07

> <Gold.Chemscore.Hbond.Weighted>
-11.4536

> <Gold.Chemscore.Metal.Weighted>
-0.0000

> <Gold.Chemscore.Lipo.Weighted>
-10.4288

> <Gold.Chemscore.Internal_Hbond.Weighted>
0.0000

> <Gold.Chemscore.DEClash.Weighted>
2.1128

> <Gold.Chemscore.DEInternal.Weighted>
1.1578

> <Gold.Chemscore.Rot.Weighted>
9.2825

> <Gold.Chemscore.Internal.Correction.Weighted>
   9.000000E+99

> <Gold.Protein.RotatedTorsions>
[ 6907 6896 6895 6894 ] final  175.01 input  -60.11 | X-H torsion
[ 7974 7965 7964 7962 ] final -104.43 input  175.53 | X-H torsion
[ 8008 7997 7996 7995 ] final -169.40 input   59.86 | X-H torsion
[ 10167 10162 10161 10158 ] final   73.25 input  -65.29 | X-H torsion
[ 10718 10713 10712 10709 ] final  -13.11 input   66.30 | X-H torsion
[ 10763 10752 10751 10750 ] final  -35.45 input  -60.55 | X-H torsion
[ 11005 11000 10999 10996 ] final  155.70 input  -57.11 | X-H torsion

> <Gold.Protein.ActiveResidues>
 VAL166  LYS551  ARG553  GLY616  TRP617  ASP618  TYR619  PRO620  LYS621  CYS622 
 ASP623  PHE694  ASN695  SER759  ASP760  ASP761  ALA762  ILE779  LEU786  VAL792 
 PHE793  MET794  SER795  GLU796  ALA797  LYS798  CYS799  TRP800  GLU811  SER814 

> <Gold.Protein.RotatedAtoms>
  151.7431  133.3323  159.3370 H   0  0  0  0  0  0  0  0  0  0  0  0  # atno 6907 bound_to 6896
  150.7565  134.6260  159.6170 H   0  0  0  0  0  0  0  0  0  0  0  0  # atno 6908 bound_to 6896
  152.3518  134.6997  160.0286 H   0  0  0  0  0  0  0  0  0  0  0  0  # atno 6909 bound_to 6896
  145.2432  140.9212  143.3138 H   0  0  0  0  0  0  0  0  0  0  0  0  # atno 7974 bound_to 7965
  155.9045  140.1046  157.1325 H   0  0  0  0  0  0  0  0  0  0  0  0  # atno 8008 bound_to 7997
  154.4031  140.1286  156.4542 H   0  0  0  0  0  0  0  0  0  0  0  0  # atno 8009 bound_to 7997
  155.7384  140.3467  155.5094 H   0  0  0  0  0  0  0  0  0  0  0  0  # atno 8010 bound_to 7997
  140.0265  144.5500  150.7541 H   0  0  0  0  0  0  0  0  0  0  0  0  # atno 10167 bound_to 10162
  156.6350  130.4912  149.6115 H   0  0  0  0  0  0  0  0  0  0  0  0  # atno 10718 bound_to 10713
  153.8635  135.6838  153.4780 H   0  0  0  0  0  0  0  0  0  0  0  0  # atno 10763 bound_to 10752
  153.1328  135.4690  154.9374 H   0  0  0  0  0  0  0  0  0  0  0  0  # atno 10764 bound_to 10752
  154.7748  135.3250  154.8065 H   0  0  0  0  0  0  0  0  0  0  0  0  # atno 10765 bound_to 10752
  140.1606  134.8612  157.2569 H   0  0  0  0  0  0  0  0  0  0  0  0  # atno 11005 bound_to 11000
  144.9570  139.4021  143.6374 LP  0  0  0  0  0  0  0  0  0  0  0  0  # atno 17320 bound_to 7965
  146.3323  139.8605  142.8857 LP  0  0  0  0  0  0  0  0  0  0  0  0  # atno 17321 bound_to 7965
  140.7320  143.2701  151.3916 LP  0  0  0  0  0  0  0  0  0  0  0  0  # atno 17342 bound_to 10162
  139.6105  144.1109  152.2293 LP  0  0  0  0  0  0  0  0  0  0  0  0  # atno 17343 bound_to 10162
  156.2204  130.6733  151.1362 LP  0  0  0  0  0  0  0  0  0  0  0  0  # atno 17370 bound_to 10713
  157.7188  131.0694  150.6219 LP  0  0  0  0  0  0  0  0  0  0  0  0  # atno 17371 bound_to 10713
  140.2494  134.3701  155.7448 LP  0  0  0  0  0  0  0  0  0  0  0  0  # atno 17394 bound_to 11000
  141.2209  133.7308  156.8912 LP  0  0  0  0  0  0  0  0  0  0  0  0  # atno 17395 bound_to 11000

$$$$
