AV-unprocessed.smi:3261|AV-procd|sdf|12478|dock5
  -GOLD-   2272018383D 1   1.00000     0.00000
 Structure written by MMmdl.
 30 31  0  0  0  0  0  0  0  0  1 V2000
  144.4125  136.5770  152.2056 O   0  0  0  0  0  0  0  0  0  0  0  0
  145.6234  136.4315  152.0548 C   0  0  0  0  0  0  0  0  0  0  0  0
  146.2033  135.3806  151.4410 N   0  0  0  0  0  0  0  0  0  0  0  0
  145.6019  134.2118  150.8999 C   0  0  0  0  0  0  0  0  0  0  0  0
  146.4581  133.1668  150.4952 C   0  0  0  0  0  0  0  0  0  0  0  0
  145.8916  131.9876  149.9719 C   0  0  0  0  0  0  0  0  0  0  0  0
  144.5618  131.7983  149.8427 N   0  0  0  0  0  0  0  0  0  0  0  0
  143.7428  132.7941  150.2418 C   0  0  0  0  0  0  0  0  0  0  0  0
  144.2053  134.0127  150.7778 C   0  0  0  0  0  0  0  0  0  0  0  0
  146.4908  137.3670  152.4823 N   0  0  0  0  0  0  0  0  0  0  0  0
  146.2012  138.6209  153.1800 C   0  0  2  0  0  0  0  0  0  0  0  0
  147.4486  139.5222  153.2354 C   0  0  0  0  0  0  0  0  0  0  0  0
  147.2052  140.6360  154.2612 C   0  0  0  0  0  0  0  0  0  0  0  0
  146.0950  139.9227  155.5340 S   0  0  0  0  0  0  0  0  0  0  0  0
  146.8691  139.6015  156.7425 O   0  0  0  0  0  0  0  0  0  0  0  0
  144.8733  140.7378  155.6110 O   0  0  0  0  0  0  0  0  0  0  0  0
  145.7358  138.3739  154.6241 C   0  0  0  0  0  0  0  0  0  0  0  0
  147.2030  135.4434  151.3179 H   0  0  0  0  0  0  0  0  0  0  0  0
  147.5308  133.2634  150.5790 H   0  0  0  0  0  0  0  0  0  0  0  0
  146.5243  131.1736  149.6504 H   0  0  0  0  0  0  0  0  0  0  0  0
  142.6835  132.6128  150.1369 H   0  0  0  0  0  0  0  0  0  0  0  0
  143.4846  134.7517  151.0909 H   0  0  0  0  0  0  0  0  0  0  0  0
  147.4646  137.1991  152.2734 H   0  0  0  0  0  0  0  0  0  0  0  0
  145.4254  139.1759  152.6491 H   0  0  0  0  0  0  0  0  0  0  0  0
  148.3059  138.9306  153.5609 H   0  0  0  0  0  0  0  0  0  0  0  0
  147.6986  139.9305  152.2556 H   0  0  0  0  0  0  0  0  0  0  0  0
  148.1240  140.9988  154.7219 H   0  0  0  0  0  0  0  0  0  0  0  0
  146.6902  141.4797  153.8010 H   0  0  0  0  0  0  0  0  0  0  0  0
  144.6757  138.1316  154.7012 H   0  0  0  0  0  0  0  0  0  0  0  0
  146.3108  137.5739  155.0922 H   0  0  0  0  0  0  0  0  0  0  0  0
  1  2  2  0  0  0  0
  2  3  1  0  0  0  0
  2 10  1  0  0  0  0
  3  4  1  0  0  0  0
  3 18  1  0  0  0  0
  4  9  1  0  0  0  0
  4  5  2  0  0  0  0
  5  6  1  0  0  0  0
  5 19  1  0  0  0  0
  6  7  2  0  0  0  0
  6 20  1  0  0  0  0
  7  8  1  0  0  0  0
  8  9  2  0  0  0  0
  8 21  1  0  0  0  0
  9 22  1  0  0  0  0
 10 11  1  0  0  0  0
 10 23  1  0  0  0  0
 11 17  1  0  0  0  0
 11 12  1  0  0  0  0
 11 24  1  0  0  0  0
 12 13  1  0  0  0  0
 12 25  1  0  0  0  0
 12 26  1  0  0  0  0
 13 14  1  0  0  0  0
 13 27  1  0  0  0  0
 13 28  1  0  0  0  0
 14 15  2  0  0  0  0
 14 16  2  0  0  0  0
 14 17  1  0  0  0  0
 17 29  1  0  0  0  0
 17 30  1  0  0  0  0
M  END
> <s_m_source_file>
AV-unprocessed.smi

> <i_m_source_file_index>
3261

> <i_lp_mmshare_version>
43012

> <i_f3d_flags>
0

> <s_epik_input>
Tz1TMSg9TylbQ0gyXVtDSDJdW0NASF0oW0NIMl0xKVtOSF1DKD1PKVtOSF1jMltjSF1bY0hdbltjSF1bY0hdMg==

> <s_epik_cmdline>
J2VwaWtfcHl0aG9uJywgJy1waCcsICc3LjAnLCAnLXRuJywgJzgnLCAnLW1hJywgJzIwMCcsICctbWV0YWxfYmluZGluZycsICctaW1hZScsICc8aW5maWxlLm1hZT4nLCAnLW9tYWUnLCAnPG91dGZpbGUubWFlPic=

> <r_epik_Ionization_Penalty>
0.0999693

> <r_epik_Ionization_Penalty_Charging>
0

> <r_epik_Ionization_Penalty_Neutral>
0.0999693

> <r_epik_State_Penalty>
0.0899812

> <r_epik_Charging_Adjusted_Penalty>
0.0899812

> <i_epik_Tot_Q>
0

> <i_epik_Tot_abs_Q>
0

> <r_epik_Metal_State_Penalty>
0.0778619

> <b_epik_Metal_Only>
0

> <s_lp_Force_Field>
OPLS_2005

> <r_lp_Energy>
18.6703

> <b_lp_Chiralities_Consistent>
1

> <s_lp_Variant>
AV-unprocessed.smi:3261-1

> <Gold.Version>
5.8.1

> <Gold.Id.Protein>
6NUR|6NUR_protein|mol2

> <Gold.PLP.Fitness>
35.6815

> <Gold.PLP.PLP>
-24.3452

> <Gold.PLP.part.hbond>
-2.7707

> <Gold.PLP.part.metal>
0.0000

> <Gold.PLP.part.buried>
-2.7666

> <Gold.PLP.part.nonpolar>
-19.6278

> <Gold.PLP.part.repulsive>
0.5790

> <Gold.PLP.ligand.clash>
0.0000

> <Gold.PLP.ligand.torsion>
0.1295

> <Gold.PLP.Chemscore.Hbond>
2.0416

> <Gold.PLP.Chemscore.CHOScore>
1.8233

> <Gold.PLP.Chemscore.Metal>
0.0000

> <Gold.Chemscore.Hbonds>
donor molecule, donor type, donor heavy atom, donor atom, acceptor molecule, acceptor atom, score
      L1  H     3    18       P1  7948  1.00
      L1  H    10    23       P1  7948  1.00
      P1  H 10785 10796       L1     7  0.04
      L1  C     6    20       P1 10747  0.93
      L1  C     8    21       P1 10186  0.88

> <Gold.PLP.Chemscore.Internal.Correction>
0.0006

> <Gold.Rescore>
     Score         DG    S(hbond)    S(metal)    S(lipo)     H(rot)  DE(clash)    DE(int)     intcor
     15.05     -16.35       1.90        0.00      60.44       1.00       0.05       1.25       ----

> <Gold.Chemscore.Fitness>
15.0460

> <Gold.Chemscore.DG>
-16.3497

> <Gold.Chemscore.ZeroCoef>
-5.4800

> <Gold.Chemscore.Hbond>
1.9037

> <Gold.Chemscore.Metal>
0.0000

> <Gold.Chemscore.Lipo>
60.4387

> <Gold.Chemscore.Internal_Hbond>
0.0000

> <Gold.Chemscore.DEClash>
0.0521

> <Gold.Chemscore.DEInternal>
1.2517

> <Gold.Chemscore.Rot>
1.0000

> <Gold.Chemscore.Internal.Correction>
   9.000000E+99

> <Gold.Chemscore.Hbonds>
donor molecule, donor type, donor heavy atom, donor atom, acceptor molecule, acceptor atom, score
      L1  H     3    18       P1  7948  0.86
      L1  H    10    23       P1  7948  0.99
      P1  H 10785 10796       L1     7  0.04

> <Gold.Chemscore.Hbond.Weighted>
-6.3584

> <Gold.Chemscore.Metal.Weighted>
-0.0000

> <Gold.Chemscore.Lipo.Weighted>
-7.0713

> <Gold.Chemscore.Internal_Hbond.Weighted>
0.0000

> <Gold.Chemscore.DEClash.Weighted>
0.0521

> <Gold.Chemscore.DEInternal.Weighted>
1.2517

> <Gold.Chemscore.Rot.Weighted>
2.5600

> <Gold.Chemscore.Internal.Correction.Weighted>
   9.000000E+99

> <Gold.Protein.RotatedTorsions>
[ 6907 6896 6895 6894 ] final  128.86 input  -60.11 | X-H torsion
[ 7974 7965 7964 7962 ] final  133.59 input  175.53 | X-H torsion
[ 8008 7997 7996 7995 ] final   18.10 input   59.86 | X-H torsion
[ 10167 10162 10161 10158 ] final  127.83 input  -65.29 | X-H torsion
[ 10718 10713 10712 10709 ] final  169.52 input   66.30 | X-H torsion
[ 10763 10752 10751 10750 ] final  -25.19 input  -60.55 | X-H torsion
[ 11005 11000 10999 10996 ] final   53.68 input  -57.11 | X-H torsion

> <Gold.Protein.ActiveResidues>
 VAL166  LYS551  ARG553  GLY616  TRP617  ASP618  TYR619  PRO620  LYS621  CYS622 
 ASP623  PHE694  ASN695  SER759  ASP760  ASP761  ALA762  ILE779  LEU786  VAL792 
 PHE793  MET794  SER795  GLU796  ALA797  LYS798  CYS799  TRP800  GLU811  SER814 

> <Gold.Protein.RotatedAtoms>
  152.3679  133.6381  159.6064 H   0  0  0  0  0  0  0  0  0  0  0  0  # atno 6907 bound_to 6896
  150.7647  133.9318  159.3438 H   0  0  0  0  0  0  0  0  0  0  0  0  # atno 6908 bound_to 6896
  151.7145  135.0907  160.0324 H   0  0  0  0  0  0  0  0  0  0  0  0  # atno 6909 bound_to 6896
  144.9850  139.4465  143.5367 H   0  0  0  0  0  0  0  0  0  0  0  0  # atno 7974 bound_to 7965
  154.9011  140.3001  155.5317 H   0  0  0  0  0  0  0  0  0  0  0  0  # atno 8008 bound_to 7997
  156.3018  140.2406  156.3974 H   0  0  0  0  0  0  0  0  0  0  0  0  # atno 8009 bound_to 7997
  154.8520  140.0409  157.1599 H   0  0  0  0  0  0  0  0  0  0  0  0  # atno 8010 bound_to 7997
  139.5558  144.6847  151.4187 H   0  0  0  0  0  0  0  0  0  0  0  0  # atno 10167 bound_to 10162
  157.0214  131.0233  151.2773 H   0  0  0  0  0  0  0  0  0  0  0  0  # atno 10718 bound_to 10713
  153.6958  135.6959  153.5077 H   0  0  0  0  0  0  0  0  0  0  0  0  # atno 10763 bound_to 10752
  153.2379  135.4316  155.0665 H   0  0  0  0  0  0  0  0  0  0  0  0  # atno 10764 bound_to 10752
  154.8359  135.3500  154.6499 H   0  0  0  0  0  0  0  0  0  0  0  0  # atno 10765 bound_to 10752
  140.0748  134.5420  155.9008 H   0  0  0  0  0  0  0  0  0  0  0  0  # atno 11005 bound_to 11000
  146.3417  139.9146  142.8775 LP  0  0  0  0  0  0  0  0  0  0  0  0  # atno 17320 bound_to 7965
  145.2367  140.9993  143.3959 LP  0  0  0  0  0  0  0  0  0  0  0  0  # atno 17321 bound_to 7965
  140.6830  143.8038  150.7147 LP  0  0  0  0  0  0  0  0  0  0  0  0  # atno 17342 bound_to 10162
  140.1497  143.4368  152.2139 LP  0  0  0  0  0  0  0  0  0  0  0  0  # atno 17343 bound_to 10162
  157.5246  130.8020  149.7848 LP  0  0  0  0  0  0  0  0  0  0  0  0  # atno 17370 bound_to 10713
  156.0101  130.3837  150.2295 LP  0  0  0  0  0  0  0  0  0  0  0  0  # atno 17371 bound_to 10713
  141.2025  133.6625  156.6011 LP  0  0  0  0  0  0  0  0  0  0  0  0  # atno 17394 bound_to 11000
  140.3574  134.7716  157.4510 LP  0  0  0  0  0  0  0  0  0  0  0  0  # atno 17395 bound_to 11000

$$$$
