AV-unprocessed.smi:1175|AV-procd|sdf|4951|dock7
  -GOLD-   22720 3543D 1   1.00000     0.00000
 Structure written by MMmdl.
 36 37  0  0  0  0  0  0  0  0  1 V2000
  148.7806  134.0008  155.9755 O   0  0  0  0  0  0  0  0  0  0  0  0
  149.0906  134.4460  154.8695 C   0  0  0  0  0  0  0  0  0  0  0  0
  149.4838  133.5031  153.7232 C   0  0  0  0  0  0  0  0  0  0  0  0
  148.4346  132.5266  153.3845 N   0  0  0  0  0  0  0  0  0  0  0  0
  147.5581  132.8644  152.3344 C   0  0  0  0  0  0  0  0  0  0  0  0
  146.5526  132.0633  151.9325 C   0  0  0  0  0  0  0  0  0  0  0  0
  145.6599  132.4278  150.7564 C   0  0  0  0  0  0  0  0  0  0  0  0
  146.0367  131.7854  149.6508 F   0  0  0  0  0  0  0  0  0  0  0  0
  144.3993  132.0892  151.0230 F   0  0  0  0  0  0  0  0  0  0  0  0
  145.6948  133.7383  150.5120 F   0  0  0  0  0  0  0  0  0  0  0  0
  146.4255  130.7935  152.6202 C   0  0  0  0  0  0  0  0  0  0  0  0
  147.2626  130.4498  153.6185 C   0  0  0  0  0  0  0  0  0  0  0  0
  148.3392  131.3405  154.0571 C   0  0  0  0  0  0  0  0  0  0  0  0
  149.1079  131.0390  154.9707 O   0  0  0  0  0  0  0  0  0  0  0  0
  149.1295  135.7576  154.5889 N   0  0  0  0  0  0  0  0  0  0  0  0
  148.8017  136.8338  155.5186 C   0  0  0  0  0  0  0  0  0  0  0  0
  149.8591  137.9537  155.4985 C   0  0  1  0  0  0  0  0  0  0  0  0
  151.2642  137.4622  155.2160 C   0  0  0  0  0  0  0  0  0  0  0  0
  151.9766  138.7458  154.7971 C   0  0  0  0  0  0  0  0  0  0  0  0
  150.9762  139.5820  154.2211 O   0  0  0  0  0  0  0  0  0  0  0  0
  149.6918  138.9904  154.3867 C   0  0  0  0  0  0  0  0  0  0  0  0
  149.7444  134.0930  152.8425 H   0  0  0  0  0  0  0  0  0  0  0  0
  150.4053  132.9917  154.0052 H   0  0  0  0  0  0  0  0  0  0  0  0
  147.7631  133.8168  151.8674 H   0  0  0  0  0  0  0  0  0  0  0  0
  145.6436  130.1062  152.3325 H   0  0  0  0  0  0  0  0  0  0  0  0
  147.1376  129.4955  154.1089 H   0  0  0  0  0  0  0  0  0  0  0  0
  149.4004  136.0320  153.6556 H   0  0  0  0  0  0  0  0  0  0  0  0
  147.8359  137.2423  155.2207 H   0  0  0  0  0  0  0  0  0  0  0  0
  148.6675  136.4468  156.5302 H   0  0  0  0  0  0  0  0  0  0  0  0
  149.8611  138.4682  156.4611 H   0  0  0  0  0  0  0  0  0  0  0  0
  151.7313  136.9791  156.0747 H   0  0  0  0  0  0  0  0  0  0  0  0
  151.2591  136.7530  154.3871 H   0  0  0  0  0  0  0  0  0  0  0  0
  152.3918  139.2537  155.6683 H   0  0  0  0  0  0  0  0  0  0  0  0
  152.7899  138.5575  154.0958 H   0  0  0  0  0  0  0  0  0  0  0  0
  149.4116  138.5094  153.4485 H   0  0  0  0  0  0  0  0  0  0  0  0
  148.9362  139.7407  154.6209 H   0  0  0  0  0  0  0  0  0  0  0  0
  1  2  2  0  0  0  0
  2  3  1  0  0  0  0
  2 15  1  0  0  0  0
  3  4  1  0  0  0  0
  3 22  1  0  0  0  0
  3 23  1  0  0  0  0
  4 13  1  0  0  0  0
  4  5  1  0  0  0  0
  5  6  2  0  0  0  0
  5 24  1  0  0  0  0
  6  7  1  0  0  0  0
  6 11  1  0  0  0  0
  7  8  1  0  0  0  0
  7  9  1  0  0  0  0
  7 10  1  0  0  0  0
 11 12  2  0  0  0  0
 11 25  1  0  0  0  0
 12 13  1  0  0  0  0
 12 26  1  0  0  0  0
 13 14  2  0  0  0  0
 15 16  1  0  0  0  0
 15 27  1  0  0  0  0
 16 17  1  0  0  0  0
 16 28  1  0  0  0  0
 16 29  1  0  0  0  0
 17 21  1  0  0  0  0
 17 18  1  0  0  0  0
 17 30  1  0  0  0  0
 18 19  1  0  0  0  0
 18 31  1  0  0  0  0
 18 32  1  0  0  0  0
 19 20  1  0  0  0  0
 19 33  1  0  0  0  0
 19 34  1  0  0  0  0
 20 21  1  0  0  0  0
 21 35  1  0  0  0  0
 21 36  1  0  0  0  0
M  END
> <s_m_source_file>
AV-unprocessed.smi

> <i_m_source_file_index>
1175

> <i_lp_mmshare_version>
43012

> <i_f3d_flags>
0

> <s_epik_input>
W0NIMl0xT1tDSDJdW0NIMl1bQ0BIXTFbQ0gyXVtOSF1DKD1PKVtDSDJdbjJbY0hdYyhDKEYpKEYpRilbY0hdW2NIXWMyPU8=

> <s_epik_cmdline>
J2VwaWtfcHl0aG9uJywgJy1waCcsICc3LjAnLCAnLXRuJywgJzgnLCAnLW1hJywgJzIwMCcsICctbWV0YWxfYmluZGluZycsICctaW1hZScsICc8aW5maWxlLm1hZT4nLCAnLW9tYWUnLCAnPG91dGZpbGUubWFlPic=

> <r_lp_tautomer_probability>
1

> <r_epik_Ionization_Penalty>
3.67963e-08

> <r_epik_Ionization_Penalty_Charging>
1.809e-08

> <r_epik_Ionization_Penalty_Neutral>
1.87063e-08

> <r_epik_State_Penalty>
-0

> <r_epik_Charging_Adjusted_Penalty>
1.809e-08

> <i_epik_Tot_Q>
0

> <i_epik_Tot_abs_Q>
0

> <r_epik_Metal_State_Penalty>
-0

> <b_epik_Metal_Only>
0

> <s_lp_Force_Field>
OPLS_2005

> <r_lp_Energy>
29.657

> <b_lp_Chiralities_Consistent>
1

> <s_lp_Variant>
AV-unprocessed.smi:1175-2

> <Gold.Version>
5.8.1

> <Gold.Id.Protein>
6NUR|6NUR_protein|mol2

> <Gold.PLP.Fitness>
45.8107

> <Gold.PLP.PLP>
-40.2422

> <Gold.PLP.part.hbond>
-2.0000

> <Gold.PLP.part.metal>
0.0000

> <Gold.PLP.part.buried>
-5.5308

> <Gold.PLP.part.nonpolar>
-32.5726

> <Gold.PLP.part.repulsive>
0.1919

> <Gold.PLP.ligand.clash>
0.0374

> <Gold.PLP.ligand.torsion>
1.4855

> <Gold.PLP.Chemscore.Hbond>
2.0000

> <Gold.PLP.Chemscore.CHOScore>
0.8398

> <Gold.PLP.Chemscore.Metal>
0.0000

> <Gold.Chemscore.Hbonds>
donor molecule, donor type, donor heavy atom, donor atom, acceptor molecule, acceptor atom, score
      L1  H    15    27       P1  7948  1.00
      P1  H  7989  7998       L1    20  1.00
      L1  C     5    24       P1  7948  0.47

> <Gold.PLP.Chemscore.Internal.Correction>
0.0573

> <Gold.Rescore>
     Score         DG    S(hbond)    S(metal)    S(lipo)     H(rot)  DE(clash)    DE(int)     intcor
     12.63     -14.34       1.84        0.00      64.11       1.87       0.02       1.68       ----

> <Gold.Chemscore.Fitness>
12.6338

> <Gold.Chemscore.DG>
-14.3397

> <Gold.Chemscore.ZeroCoef>
-5.4800

> <Gold.Chemscore.Hbond>
1.8387

> <Gold.Chemscore.Metal>
0.0000

> <Gold.Chemscore.Lipo>
64.1082

> <Gold.Chemscore.Internal_Hbond>
0.0000

> <Gold.Chemscore.DEClash>
0.0234

> <Gold.Chemscore.DEInternal>
1.6824

> <Gold.Chemscore.Rot>
1.8681

> <Gold.Chemscore.Internal.Correction>
   9.000000E+99

> <Gold.Chemscore.Hbonds>
donor molecule, donor type, donor heavy atom, donor atom, acceptor molecule, acceptor atom, score
      L1  H    15    27       P1  7948  0.62
      P1  H  7989  7998       L1    20  0.78

> <Gold.Chemscore.Hbond.Weighted>
-6.1412

> <Gold.Chemscore.Metal.Weighted>
-0.0000

> <Gold.Chemscore.Lipo.Weighted>
-7.5007

> <Gold.Chemscore.Internal_Hbond.Weighted>
0.0000

> <Gold.Chemscore.DEClash.Weighted>
0.0234

> <Gold.Chemscore.DEInternal.Weighted>
1.6824

> <Gold.Chemscore.Rot.Weighted>
4.7822

> <Gold.Chemscore.Internal.Correction.Weighted>
   9.000000E+99

> <Gold.Protein.RotatedTorsions>
[ 6907 6896 6895 6894 ] final  -88.28 input  -60.11 | X-H torsion
[ 7974 7965 7964 7962 ] final -150.58 input  175.53 | X-H torsion
[ 8008 7997 7996 7995 ] final  -19.83 input   59.86 | X-H torsion
[ 10167 10162 10161 10158 ] final  133.99 input  -65.29 | X-H torsion
[ 10718 10713 10712 10709 ] final   -3.83 input   66.30 | X-H torsion
[ 10763 10752 10751 10750 ] final  141.76 input  -60.55 | X-H torsion
[ 11005 11000 10999 10996 ] final   71.77 input  -57.11 | X-H torsion

> <Gold.Protein.ActiveResidues>
 VAL166  LYS551  ARG553  GLY616  TRP617  ASP618  TYR619  PRO620  LYS621  CYS622 
 ASP623  PHE694  ASN695  SER759  ASP760  ASP761  ALA762  ILE779  LEU786  VAL792 
 PHE793  MET794  SER795  GLU796  ALA797  LYS798  CYS799  TRP800  GLU811  SER814 

> <Gold.Protein.RotatedAtoms>
  150.6868  134.2765  159.4609 H   0  0  0  0  0  0  0  0  0  0  0  0  # atno 6907 bound_to 6896
  152.0683  134.9547  160.0584 H   0  0  0  0  0  0  0  0  0  0  0  0  # atno 6908 bound_to 6896
  152.0947  133.4184  159.4597 H   0  0  0  0  0  0  0  0  0  0  0  0  # atno 6909 bound_to 6896
  144.7899  140.4912  143.5780 H   0  0  0  0  0  0  0  0  0  0  0  0  # atno 7974 bound_to 7965
  154.4810  140.2078  155.9764 H   0  0  0  0  0  0  0  0  0  0  0  0  # atno 8008 bound_to 7997
  156.1165  140.3220  155.8116 H   0  0  0  0  0  0  0  0  0  0  0  0  # atno 8009 bound_to 7997
  155.4544  140.0519  157.2988 H   0  0  0  0  0  0  0  0  0  0  0  0  # atno 8010 bound_to 7997
  139.5274  144.6589  151.5075 H   0  0  0  0  0  0  0  0  0  0  0  0  # atno 10167 bound_to 10162
  156.7702  130.5297  149.5769 H   0  0  0  0  0  0  0  0  0  0  0  0  # atno 10718 bound_to 10713
  153.9446  135.2976  155.3441 H   0  0  0  0  0  0  0  0  0  0  0  0  # atno 10763 bound_to 10752
  154.7459  135.5003  153.9206 H   0  0  0  0  0  0  0  0  0  0  0  0  # atno 10764 bound_to 10752
  153.1025  135.6738  153.9754 H   0  0  0  0  0  0  0  0  0  0  0  0  # atno 10765 bound_to 10752
  139.9526  134.7200  156.0827 H   0  0  0  0  0  0  0  0  0  0  0  0  # atno 11005 bound_to 11000
  145.5822  139.1489  143.3229 LP  0  0  0  0  0  0  0  0  0  0  0  0  # atno 17320 bound_to 7965
  146.2147  140.5951  142.9044 LP  0  0  0  0  0  0  0  0  0  0  0  0  # atno 17321 bound_to 7965
  140.6428  143.8855  150.6708 LP  0  0  0  0  0  0  0  0  0  0  0  0  # atno 17342 bound_to 10162
  140.2195  143.3820  152.1654 LP  0  0  0  0  0  0  0  0  0  0  0  0  # atno 17343 bound_to 10162
  156.1283  130.6159  151.0295 LP  0  0  0  0  0  0  0  0  0  0  0  0  # atno 17370 bound_to 10713
  157.6694  131.0864  150.7649 LP  0  0  0  0  0  0  0  0  0  0  0  0  # atno 17371 bound_to 10713
  141.1191  133.6618  156.3170 LP  0  0  0  0  0  0  0  0  0  0  0  0  # atno 17394 bound_to 11000
  140.5684  134.5865  157.5451 LP  0  0  0  0  0  0  0  0  0  0  0  0  # atno 17395 bound_to 11000

$$$$
