AV-unprocessed.smi:104|AV-procd|sdf|1001|dock2
  -GOLD-   2262017583D 1   1.00000     0.00000
 Structure written by MMmdl.
 47 49  0  0  0  0  0  0  0  0  1 V2000
  147.7801  135.0385  162.2752 C   0  0  0  0  0  0  0  0  0  0  0  0
  148.0507  136.1427  161.2620 C   0  0  0  0  0  0  0  0  0  0  0  0
  147.7295  137.3102  161.4834 O   0  0  0  0  0  0  0  0  0  0  0  0
  148.6517  135.6812  160.1512 O   0  0  0  0  0  0  0  0  0  0  0  0
  148.4772  136.3376  158.9001 C   0  0  0  0  0  0  0  0  0  0  0  0
  149.7090  137.1640  158.4712 C   0  0  2  0  0  0  0  0  0  0  0  0
  149.3836  138.5384  158.3225 O   0  0  0  0  0  0  0  0  0  0  0  0
  150.2673  139.1405  157.4343 C   0  0  1  0  0  0  0  0  0  0  0  0
  151.3680  139.8114  158.2267 N   0  0  0  0  0  0  0  0  0  0  0  0
  151.6649  141.1582  158.2589 C   0  0  0  0  0  0  0  0  0  0  0  0
  150.7054  142.4494  157.2377 Br  0  0  0  0  0  0  0  0  0  0  0  0
  152.6445  141.5433  159.0253 N   0  0  0  0  0  0  0  0  0  0  0  0
  153.0638  140.3555  159.6035 C   0  0  0  0  0  0  0  0  0  0  0  0
  154.0795  140.0291  160.5373 C   0  0  0  0  0  0  0  0  0  0  0  0
  154.9010  140.9427  161.0733 N   0  0  0  0  0  0  0  0  0  0  0  0
  154.2287  138.7370  160.9075 N   0  0  0  0  0  0  0  0  0  0  0  0
  153.4206  137.8086  160.3894 C   0  0  0  0  0  0  0  0  0  0  0  0
  152.4289  137.9639  159.5095 N   0  0  0  0  0  0  0  0  0  0  0  0
  152.2734  139.2664  159.1279 C   0  0  0  0  0  0  0  0  0  0  0  0
  150.7284  138.0505  156.4465 C   0  0  1  0  0  0  0  0  0  0  0  0
  152.0958  138.1628  156.0687 O   0  0  0  0  0  0  0  0  0  0  0  0
  152.4497  138.9296  155.0245 C   0  0  0  0  0  0  0  0  0  0  0  0
  153.7673  138.4876  154.4033 C   0  0  0  0  0  0  0  0  0  0  0  0
  151.8244  139.8975  154.5916 O   0  0  0  0  0  0  0  0  0  0  0  0
  150.4556  136.7395  157.1870 C   0  0  2  0  0  0  0  0  0  0  0  0
  149.6939  135.8687  156.3576 O   0  0  0  0  0  0  0  0  0  0  0  0
  149.5282  134.5771  156.6917 C   0  0  0  0  0  0  0  0  0  0  0  0
  148.8912  133.7665  155.5708 C   0  0  0  0  0  0  0  0  0  0  0  0
  149.8431  134.0580  157.7625 O   0  0  0  0  0  0  0  0  0  0  0  0
  148.6044  134.3251  162.2950 H   0  0  0  0  0  0  0  0  0  0  0  0
  146.8661  134.5053  162.0135 H   0  0  0  0  0  0  0  0  0  0  0  0
  147.6626  135.4575  163.2748 H   0  0  0  0  0  0  0  0  0  0  0  0
  148.2171  135.6168  158.1235 H   0  0  0  0  0  0  0  0  0  0  0  0
  147.6188  137.0030  158.9931 H   0  0  0  0  0  0  0  0  0  0  0  0
  150.4145  137.1090  159.2985 H   0  0  0  0  0  0  0  0  0  0  0  0
  149.7718  139.9582  156.9146 H   0  0  0  0  0  0  0  0  0  0  0  0
  154.8103  141.9148  160.8144 H   0  0  0  0  0  0  0  0  0  0  0  0
  155.6096  140.6580  161.7337 H   0  0  0  0  0  0  0  0  0  0  0  0
  153.5925  136.7973  160.7272 H   0  0  0  0  0  0  0  0  0  0  0  0
  150.0781  138.1055  155.5716 H   0  0  0  0  0  0  0  0  0  0  0  0
  153.7276  137.4299  154.1411 H   0  0  0  0  0  0  0  0  0  0  0  0
  154.5851  138.6397  155.1081 H   0  0  0  0  0  0  0  0  0  0  0  0
  153.9772  139.0608  153.5000 H   0  0  0  0  0  0  0  0  0  0  0  0
  151.3864  136.2486  157.4757 H   0  0  0  0  0  0  0  0  0  0  0  0
  148.0459  134.3058  155.1431 H   0  0  0  0  0  0  0  0  0  0  0  0
  148.5337  132.8078  155.9477 H   0  0  0  0  0  0  0  0  0  0  0  0
  149.6185  133.5788  154.7809 H   0  0  0  0  0  0  0  0  0  0  0  0
  1  2  1  0  0  0  0
  1 30  1  0  0  0  0
  1 31  1  0  0  0  0
  1 32  1  0  0  0  0
  2  3  2  0  0  0  0
  2  4  1  0  0  0  0
  4  5  1  0  0  0  0
  5  6  1  0  0  0  0
  5 33  1  0  0  0  0
  5 34  1  0  0  0  0
  6 25  1  0  0  0  0
  6  7  1  0  0  0  0
  6 35  1  0  0  0  0
  7  8  1  0  0  0  0
  8  9  1  0  0  0  0
  8 20  1  0  0  0  0
  8 36  1  0  0  0  0
  9 19  1  0  0  0  0
  9 10  1  0  0  0  0
 10 11  1  0  0  0  0
 10 12  2  0  0  0  0
 12 13  1  0  0  0  0
 13 19  2  0  0  0  0
 13 14  1  0  0  0  0
 14 15  1  0  0  0  0
 14 16  2  0  0  0  0
 15 37  1  0  0  0  0
 15 38  1  0  0  0  0
 16 17  1  0  0  0  0
 17 18  2  0  0  0  0
 17 39  1  0  0  0  0
 18 19  1  0  0  0  0
 20 21  1  0  0  0  0
 20 25  1  0  0  0  0
 20 40  1  0  0  0  0
 21 22  1  0  0  0  0
 22 23  1  0  0  0  0
 22 24  2  0  0  0  0
 23 41  1  0  0  0  0
 23 42  1  0  0  0  0
 23 43  1  0  0  0  0
 25 26  1  0  0  0  0
 25 44  1  0  0  0  0
 26 27  1  0  0  0  0
 27 28  1  0  0  0  0
 27 29  2  0  0  0  0
 28 45  1  0  0  0  0
 28 46  1  0  0  0  0
 28 47  1  0  0  0  0
M  END
> <s_m_source_file>
AV-unprocessed.smi

> <i_m_source_file_index>
104

> <i_lp_mmshare_version>
43012

> <i_f3d_flags>
0

> <s_epik_input>
W0NIM11DKD1PKU9bQ0gyXVtDQEBIXTFPW0NASF0oW0NAQEhdKE9DKD1PKVtDSDNdKVtDQEhdMU9DKD1PKVtDSDNdKW4oYyhCciluMiljKGMyMyluW2NIXW5jM1tOSDJd

> <s_epik_cmdline>
J2VwaWtfcHl0aG9uJywgJy1waCcsICc3LjAnLCAnLXRuJywgJzgnLCAnLW1hJywgJzIwMCcsICctbWV0YWxfYmluZGluZycsICctaW1hZScsICc8aW5maWxlLm1hZT4nLCAnLW9tYWUnLCAnPG91dGZpbGUubWFlPic=

> <r_lp_tautomer_probability>
1

> <r_epik_Ionization_Penalty>
7.36622e-05

> <r_epik_Ionization_Penalty_Charging>
0

> <r_epik_Ionization_Penalty_Neutral>
7.36622e-05

> <r_epik_State_Penalty>
-0

> <r_epik_Charging_Adjusted_Penalty>
0

> <i_epik_Tot_Q>
0

> <i_epik_Tot_abs_Q>
0

> <r_epik_Metal_State_Penalty>
-0

> <b_epik_Metal_Only>
0

> <s_epik_Chemistry_Notes>
This compound has an ester and may undergo hydrolysis at high or low pH. This compound contains an acetal/aminal-like group ( X-CH(R)-Y where X, Y are N, S, or O) that may be acid/base labile, releasing an aldehyde.

> <s_lp_Force_Field>
OPLS_2005

> <r_lp_Energy>
20.7491

> <b_lp_Chiralities_Consistent>
1

> <s_lp_Variant>
AV-unprocessed.smi:104-9

> <Gold.Version>
5.8.1

> <Gold.Id.Protein>
6NUR|6NUR_protein|mol2

> <Gold.PLP.Fitness>
45.6802

> <Gold.PLP.PLP>
-38.5939

> <Gold.PLP.part.hbond>
-4.6565

> <Gold.PLP.part.metal>
0.0000

> <Gold.PLP.part.buried>
-6.3212

> <Gold.PLP.part.nonpolar>
-27.5007

> <Gold.PLP.part.repulsive>
0.0981

> <Gold.PLP.ligand.clash>
0.0000

> <Gold.PLP.ligand.torsion>
2.2744

> <Gold.PLP.Chemscore.Hbond>
3.8000

> <Gold.PLP.Chemscore.CHOScore>
0.0000

> <Gold.PLP.Chemscore.Metal>
0.0000

> <Gold.Chemscore.Hbonds>
donor molecule, donor type, donor heavy atom, donor atom, acceptor molecule, acceptor atom, score
      P1  H  6896  6908       L1    29  1.00
      P1  H  6931  6943       L1     3  0.96
      P1  H  6934  6947       L1     3  0.74
      P1  H  7989  7998       L1    24  0.82

> <Gold.PLP.Chemscore.Internal.Correction>
0.2351

> <Gold.Rescore>
     Score         DG    S(hbond)    S(metal)    S(lipo)     H(rot)  DE(clash)    DE(int)     intcor
      9.32     -12.35       3.68        0.00      47.96       4.31       0.64       2.39       ----

> <Gold.Chemscore.Fitness>
9.3188

> <Gold.Chemscore.DG>
-12.3469

> <Gold.Chemscore.ZeroCoef>
-5.4800

> <Gold.Chemscore.Hbond>
3.6771

> <Gold.Chemscore.Metal>
0.0000

> <Gold.Chemscore.Lipo>
47.9594

> <Gold.Chemscore.Internal_Hbond>
0.0000

> <Gold.Chemscore.DEClash>
0.6392

> <Gold.Chemscore.DEInternal>
2.3889

> <Gold.Chemscore.Rot>
4.3070

> <Gold.Chemscore.Internal.Correction>
   9.000000E+99

> <Gold.Chemscore.Hbonds>
donor molecule, donor type, donor heavy atom, donor atom, acceptor molecule, acceptor atom, score
      P1  H  6896  6908       L1    29  0.96
      P1  H  6931  6943       L1     3  0.79
      P1  H  6934  6947       L1     3  0.74
      P1  H  7989  7998       L1    24  0.78

> <Gold.Chemscore.Hbond.Weighted>
-12.2815

> <Gold.Chemscore.Metal.Weighted>
-0.0000

> <Gold.Chemscore.Lipo.Weighted>
-5.6113

> <Gold.Chemscore.Internal_Hbond.Weighted>
0.0000

> <Gold.Chemscore.DEClash.Weighted>
0.6392

> <Gold.Chemscore.DEInternal.Weighted>
2.3889

> <Gold.Chemscore.Rot.Weighted>
11.0259

> <Gold.Chemscore.Internal.Correction.Weighted>
   9.000000E+99

> <Gold.Protein.RotatedTorsions>
[ 6907 6896 6895 6894 ] final  121.01 input  -60.11 | X-H torsion
[ 7974 7965 7964 7962 ] final  -30.01 input  175.53 | X-H torsion
[ 8008 7997 7996 7995 ] final -162.83 input   59.86 | X-H torsion
[ 10167 10162 10161 10158 ] final -168.10 input  -65.29 | X-H torsion
[ 10718 10713 10712 10709 ] final -145.62 input   66.30 | X-H torsion
[ 10763 10752 10751 10750 ] final  152.03 input  -60.55 | X-H torsion
[ 11005 11000 10999 10996 ] final    9.06 input  -57.11 | X-H torsion

> <Gold.Protein.ActiveResidues>
 VAL166  LYS551  ARG553  GLY616  TRP617  ASP618  TYR619  PRO620  LYS621  CYS622 
 ASP623  PHE694  ASN695  SER759  ASP760  ASP761  ALA762  ILE779  LEU786  VAL792 
 PHE793  MET794  SER795  GLU796  ALA797  LYS798  CYS799  TRP800  GLU811  SER814 

> <Gold.Protein.RotatedAtoms>
  152.4355  133.7353  159.6609 H   0  0  0  0  0  0  0  0  0  0  0  0  # atno 6907 bound_to 6896
  150.8238  133.8196  159.3133 H   0  0  0  0  0  0  0  0  0  0  0  0  # atno 6908 bound_to 6896
  151.5870  135.1058  160.0082 H   0  0  0  0  0  0  0  0  0  0  0  0  # atno 6909 bound_to 6896
  146.1174  140.5486  142.8750 H   0  0  0  0  0  0  0  0  0  0  0  0  # atno 7974 bound_to 7965
  155.8125  140.0907  157.1896 H   0  0  0  0  0  0  0  0  0  0  0  0  # atno 8008 bound_to 7997
  154.3979  140.1452  156.3463 H   0  0  0  0  0  0  0  0  0  0  0  0  # atno 8009 bound_to 7997
  155.8350  140.3441  155.5599 H   0  0  0  0  0  0  0  0  0  0  0  0  # atno 8010 bound_to 7997
  139.6007  144.1018  152.1739 H   0  0  0  0  0  0  0  0  0  0  0  0  # atno 10167 bound_to 10162
  156.3847  130.7855  151.2051 H   0  0  0  0  0  0  0  0  0  0  0  0  # atno 10718 bound_to 10713
  154.1134  135.2837  155.3225 H   0  0  0  0  0  0  0  0  0  0  0  0  # atno 10763 bound_to 10752
  154.6474  135.5381  153.7863 H   0  0  0  0  0  0  0  0  0  0  0  0  # atno 10764 bound_to 10752
  153.0337  135.6501  154.1292 H   0  0  0  0  0  0  0  0  0  0  0  0  # atno 10765 bound_to 10752
  140.5300  134.0476  155.7870 H   0  0  0  0  0  0  0  0  0  0  0  0  # atno 11005 bound_to 11000
  144.7566  140.5321  143.6765 LP  0  0  0  0  0  0  0  0  0  0  0  0  # atno 17320 bound_to 7965
  145.5537  139.1477  143.3380 LP  0  0  0  0  0  0  0  0  0  0  0  0  # atno 17321 bound_to 7965
  140.0613  144.5854  150.7261 LP  0  0  0  0  0  0  0  0  0  0  0  0  # atno 17342 bound_to 10162
  140.7247  143.2624  151.4161 LP  0  0  0  0  0  0  0  0  0  0  0  0  # atno 17343 bound_to 10162
  157.7495  131.0333  150.4267 LP  0  0  0  0  0  0  0  0  0  0  0  0  # atno 17370 bound_to 10713
  156.4518  130.4013  149.6631 LP  0  0  0  0  0  0  0  0  0  0  0  0  # atno 17371 bound_to 10713
  141.1287  133.9339  157.2582 LP  0  0  0  0  0  0  0  0  0  0  0  0  # atno 17394 bound_to 11000
  139.9559  135.0165  156.9127 LP  0  0  0  0  0  0  0  0  0  0  0  0  # atno 17395 bound_to 11000

$$$$
