AV-unprocessed.smi:1787|AV-procd|sdf|7206|dock10
  -GOLD-   22720 8443D 1   1.00000     0.00000
 Structure written by MMmdl.
 44 46  0  0  0  0  0  0  0  0  1 V2000
  149.7299  136.1284  158.4281 O   0  0  0  0  0  0  0  0  0  0  0  0
  149.2656  137.0859  159.0458 C   0  0  0  0  0  0  0  0  0  0  0  0
  149.5917  138.3577  158.7851 N   0  0  0  0  0  0  0  0  0  0  0  0
  150.5221  138.7846  157.7439 C   0  0  0  0  0  0  0  0  0  0  0  0
  150.7508  140.3304  157.7622 C   0  0  1  0  0  0  0  0  0  0  0  0
  151.5360  140.7257  158.9722 N   0  0  0  0  0  0  0  0  0  0  0  0
  152.8348  140.0588  159.1469 C   0  0  0  0  0  0  0  0  0  0  0  0
  153.5327  140.4669  160.4558 C   0  0  0  0  0  0  0  0  0  0  0  0
  153.6911  141.8784  160.4970 O   0  0  0  0  0  0  0  0  0  0  0  0
  152.4469  142.5592  160.4114 C   0  0  0  0  0  0  0  0  0  0  0  0
  151.7355  142.1759  159.1030 C   0  0  0  0  0  0  0  0  0  0  0  0
  151.4428  140.7171  156.4227 C   0  0  0  0  0  0  0  0  0  0  0  0
  150.4365  140.5841  155.2739 C   0  0  0  0  0  0  0  0  0  0  0  0
  148.8008  140.9718  155.9399 S   0  0  0  0  0  0  0  0  0  0  0  0
  149.3700  141.0272  157.6615 C   0  0  0  0  0  0  0  0  0  0  0  0
  148.3911  137.0120  160.0638 N   0  0  0  0  0  0  0  0  0  0  0  0
  147.7985  135.8620  160.6542 C   0  0  0  0  0  0  0  0  0  0  0  0
  147.3249  135.9767  161.9777 C   0  0  0  0  0  0  0  0  0  0  0  0
  146.7193  134.8636  162.5908 C   0  0  0  0  0  0  0  0  0  0  0  0
  146.6043  133.6721  161.8498 C   0  0  0  0  0  0  0  0  0  0  0  0
  147.0408  133.5465  160.5792 N   0  0  0  0  0  0  0  0  0  0  0  0
  147.6211  134.6183  159.9969 C   0  0  0  0  0  0  0  0  0  0  0  0
  149.1666  139.0871  159.3389 H   0  0  0  0  0  0  0  0  0  0  0  0
  151.4606  138.2442  157.8661 H   0  0  0  0  0  0  0  0  0  0  0  0
  150.1447  138.4471  156.7791 H   0  0  0  0  0  0  0  0  0  0  0  0
  152.7193  138.9784  159.1844 H   0  0  0  0  0  0  0  0  0  0  0  0
  153.4986  140.2836  158.3130 H   0  0  0  0  0  0  0  0  0  0  0  0
  152.9581  140.1315  161.3208 H   0  0  0  0  0  0  0  0  0  0  0  0
  154.5141  139.9972  160.5229 H   0  0  0  0  0  0  0  0  0  0  0  0
  151.8272  142.3127  161.2750 H   0  0  0  0  0  0  0  0  0  0  0  0
  152.6268  143.6339  160.4426 H   0  0  0  0  0  0  0  0  0  0  0  0
  152.3184  142.5496  158.2603 H   0  0  0  0  0  0  0  0  0  0  0  0
  150.7858  142.7059  159.0875 H   0  0  0  0  0  0  0  0  0  0  0  0
  151.7394  141.7633  156.4184 H   0  0  0  0  0  0  0  0  0  0  0  0
  152.3481  140.1400  156.2317 H   0  0  0  0  0  0  0  0  0  0  0  0
  150.6808  141.2474  154.4439 H   0  0  0  0  0  0  0  0  0  0  0  0
  150.4261  139.5671  154.8821 H   0  0  0  0  0  0  0  0  0  0  0  0
  148.6253  140.5779  158.3194 H   0  0  0  0  0  0  0  0  0  0  0  0
  149.4326  142.0808  157.9279 H   0  0  0  0  0  0  0  0  0  0  0  0
  148.1517  137.8898  160.5014 H   0  0  0  0  0  0  0  0  0  0  0  0
  147.4248  136.9055  162.5203 H   0  0  0  0  0  0  0  0  0  0  0  0
  146.3506  134.9219  163.6042 H   0  0  0  0  0  0  0  0  0  0  0  0
  146.1445  132.7984  162.2873 H   0  0  0  0  0  0  0  0  0  0  0  0
  147.9259  134.4572  158.9753 H   0  0  0  0  0  0  0  0  0  0  0  0
  1  2  2  0  0  0  0
  2  3  1  0  0  0  0
  2 16  1  0  0  0  0
  3  4  1  0  0  0  0
  3 23  1  0  0  0  0
  4  5  1  0  0  0  0
  4 24  1  0  0  0  0
  4 25  1  0  0  0  0
  5 15  1  0  0  0  0
  5  6  1  0  0  0  0
  5 12  1  0  0  0  0
  6 11  1  0  0  0  0
  6  7  1  0  0  0  0
  7  8  1  0  0  0  0
  7 26  1  0  0  0  0
  7 27  1  0  0  0  0
  8  9  1  0  0  0  0
  8 28  1  0  0  0  0
  8 29  1  0  0  0  0
  9 10  1  0  0  0  0
 10 11  1  0  0  0  0
 10 30  1  0  0  0  0
 10 31  1  0  0  0  0
 11 32  1  0  0  0  0
 11 33  1  0  0  0  0
 12 13  1  0  0  0  0
 12 34  1  0  0  0  0
 12 35  1  0  0  0  0
 13 14  1  0  0  0  0
 13 36  1  0  0  0  0
 13 37  1  0  0  0  0
 14 15  1  0  0  0  0
 15 38  1  0  0  0  0
 15 39  1  0  0  0  0
 16 17  1  0  0  0  0
 16 40  1  0  0  0  0
 17 22  1  0  0  0  0
 17 18  2  0  0  0  0
 18 19  1  0  0  0  0
 18 41  1  0  0  0  0
 19 20  2  0  0  0  0
 19 42  1  0  0  0  0
 20 21  1  0  0  0  0
 20 43  1  0  0  0  0
 21 22  2  0  0  0  0
 22 44  1  0  0  0  0
M  END
> <s_m_source_file>
AV-unprocessed.smi

> <i_m_source_file_index>
1787

> <i_lp_mmshare_version>
43012

> <i_f3d_flags>
0

> <s_epik_input>
W2NIXTFuW2NIXVtjSF1bY0hdYzFbTkhdQyg9TylbTkhdW0NIMl1bQ0BdMihbQ0gyXVtDSDJdU1tDSDJdMilOM1tDSDJdW0NIMl1PW0NIMl1bQ0gyXTM=

> <s_epik_cmdline>
J2VwaWtfcHl0aG9uJywgJy1waCcsICc3LjAnLCAnLXRuJywgJzgnLCAnLW1hJywgJzIwMCcsICctbWV0YWxfYmluZGluZycsICctaW1hZScsICc8aW5maWxlLm1hZT4nLCAnLW9tYWUnLCAnPG91dGZpbGUubWFlPic=

> <r_epik_Ionization_Penalty>
0.024212

> <r_epik_Ionization_Penalty_Charging>
0

> <r_epik_Ionization_Penalty_Neutral>
0.024212

> <r_epik_State_Penalty>
0.0155843

> <r_epik_Charging_Adjusted_Penalty>
0.0155843

> <i_epik_Tot_Q>
0

> <i_epik_Tot_abs_Q>
0

> <r_epik_Metal_State_Penalty>
0.01557

> <b_epik_Metal_Only>
0

> <s_lp_Force_Field>
OPLS_2005

> <r_lp_Energy>
57.3635

> <b_lp_Chiralities_Consistent>
1

> <s_lp_Variant>
AV-unprocessed.smi:1787-1

> <Gold.Version>
5.8.1

> <Gold.Id.Protein>
6NUR|6NUR_protein|mol2

> <Gold.PLP.Fitness>
41.9401

> <Gold.PLP.PLP>
-39.3459

> <Gold.PLP.part.hbond>
-1.0000

> <Gold.PLP.part.metal>
0.0000

> <Gold.PLP.part.buried>
-6.4999

> <Gold.PLP.part.nonpolar>
-33.3464

> <Gold.PLP.part.repulsive>
1.5361

> <Gold.PLP.ligand.clash>
0.0000

> <Gold.PLP.ligand.torsion>
0.2349

> <Gold.PLP.Chemscore.Hbond>
1.0000

> <Gold.PLP.Chemscore.CHOScore>
0.0000

> <Gold.PLP.Chemscore.Metal>
0.0000

> <Gold.Chemscore.Hbonds>
donor molecule, donor type, donor heavy atom, donor atom, acceptor molecule, acceptor atom, score
      P1  H  6896  6908       L1     1  0.83

> <Gold.PLP.Chemscore.Internal.Correction>
0.0640

> <Gold.Rescore>
     Score         DG    S(hbond)    S(metal)    S(lipo)     H(rot)  DE(clash)    DE(int)     intcor
     15.11     -17.17       1.00        0.00     102.99       1.44       0.74       1.31       ----

> <Gold.Chemscore.Fitness>
15.1149

> <Gold.Chemscore.DG>
-17.1664

> <Gold.Chemscore.ZeroCoef>
-5.4800

> <Gold.Chemscore.Hbond>
0.9983

> <Gold.Chemscore.Metal>
0.0000

> <Gold.Chemscore.Lipo>
102.9912

> <Gold.Chemscore.Internal_Hbond>
0.0000

> <Gold.Chemscore.DEClash>
0.7428

> <Gold.Chemscore.DEInternal>
1.3087

> <Gold.Chemscore.Rot>
1.4445

> <Gold.Chemscore.Internal.Correction>
   9.000000E+99

> <Gold.Chemscore.Hbonds>
donor molecule, donor type, donor heavy atom, donor atom, acceptor molecule, acceptor atom, score
      P1  H  6896  6908       L1     1  0.67

> <Gold.Chemscore.Hbond.Weighted>
-3.3344

> <Gold.Chemscore.Metal.Weighted>
-0.0000

> <Gold.Chemscore.Lipo.Weighted>
-12.0500

> <Gold.Chemscore.Internal_Hbond.Weighted>
0.0000

> <Gold.Chemscore.DEClash.Weighted>
0.7428

> <Gold.Chemscore.DEInternal.Weighted>
1.3087

> <Gold.Chemscore.Rot.Weighted>
3.6980

> <Gold.Chemscore.Internal.Correction.Weighted>
   9.000000E+99

> <Gold.Protein.RotatedTorsions>
[ 6907 6896 6895 6894 ] final -171.58 input  -60.11 | X-H torsion
[ 7974 7965 7964 7962 ] final  -17.67 input  175.53 | X-H torsion
[ 8008 7997 7996 7995 ] final  127.89 input   59.86 | X-H torsion
[ 10167 10162 10161 10158 ] final  145.40 input  -65.29 | X-H torsion
[ 10718 10713 10712 10709 ] final  145.01 input   66.30 | X-H torsion
[ 10763 10752 10751 10750 ] final   76.85 input  -60.55 | X-H torsion
[ 11005 11000 10999 10996 ] final  -34.70 input  -57.11 | X-H torsion

> <Gold.Protein.ActiveResidues>
 VAL166  LYS551  ARG553  GLY616  TRP617  ASP618  TYR619  PRO620  LYS621  CYS622 
 ASP623  PHE694  ASN695  SER759  ASP760  ASP761  ALA762  ILE779  LEU786  VAL792 
 PHE793  MET794  SER795  GLU796  ALA797  LYS798  CYS799  TRP800  GLU811  SER814 

> <Gold.Protein.RotatedAtoms>
  151.5261  133.3457  159.2909 H   0  0  0  0  0  0  0  0  0  0  0  0  # atno 6907 bound_to 6896
  150.8622  134.7979  159.7102 H   0  0  0  0  0  0  0  0  0  0  0  0  # atno 6908 bound_to 6896
  152.4638  134.5132  159.9812 H   0  0  0  0  0  0  0  0  0  0  0  0  # atno 6909 bound_to 6896
  146.1930  140.3812  142.8451 H   0  0  0  0  0  0  0  0  0  0  0  0  # atno 7974 bound_to 7965
  156.2902  140.2658  156.2346 H   0  0  0  0  0  0  0  0  0  0  0  0  # atno 8008 bound_to 7997
  155.0038  140.0387  157.2389 H   0  0  0  0  0  0  0  0  0  0  0  0  # atno 8009 bound_to 7997
  154.7578  140.2755  155.6244 H   0  0  0  0  0  0  0  0  0  0  0  0  # atno 8010 bound_to 7997
  139.4927  144.5904  151.6692 H   0  0  0  0  0  0  0  0  0  0  0  0  # atno 10167 bound_to 10162
  157.3504  131.0950  151.1005 H   0  0  0  0  0  0  0  0  0  0  0  0  # atno 10718 bound_to 10713
  153.0755  135.4936  154.8395 H   0  0  0  0  0  0  0  0  0  0  0  0  # atno 10763 bound_to 10752
  154.7081  135.3014  154.9241 H   0  0  0  0  0  0  0  0  0  0  0  0  # atno 10764 bound_to 10752
  153.9944  135.6774  153.4808 H   0  0  0  0  0  0  0  0  0  0  0  0  # atno 10765 bound_to 10752
  140.9737  133.7095  156.1567 H   0  0  0  0  0  0  0  0  0  0  0  0  # atno 11005 bound_to 11000
  144.8523  140.7019  143.6160 LP  0  0  0  0  0  0  0  0  0  0  0  0  # atno 17320 bound_to 7965
  145.3734  139.1653  143.4320 LP  0  0  0  0  0  0  0  0  0  0  0  0  # atno 17321 bound_to 7965
  140.5529  144.0395  150.6135 LP  0  0  0  0  0  0  0  0  0  0  0  0  # atno 17342 bound_to 10162
  140.3455  143.2994  152.0543 LP  0  0  0  0  0  0  0  0  0  0  0  0  # atno 17343 bound_to 10162
  157.2183  130.6469  149.5801 LP  0  0  0  0  0  0  0  0  0  0  0  0  # atno 17370 bound_to 10713
  155.9720  130.4637  150.6193 LP  0  0  0  0  0  0  0  0  0  0  0  0  # atno 17371 bound_to 10713
  140.7290  134.4275  157.5568 LP  0  0  0  0  0  0  0  0  0  0  0  0  # atno 17394 bound_to 11000
  139.8922  134.8760  156.2281 LP  0  0  0  0  0  0  0  0  0  0  0  0  # atno 17395 bound_to 11000

$$$$
