AV-unprocessed.smi:2092|AV-procd|sdf|8542|dock6
  -GOLD-   2272011263D 1   1.00000     0.00000
 Structure written by MMmdl.
 44 45  0  0  0  0  0  0  0  0  1 V2000
  146.6629  135.1275  156.9792 C   0  0  0  0  0  0  0  0  0  0  0  0
  147.6207  134.6031  158.0587 C   0  0  2  0  0  0  0  0  0  0  0  0
  146.9762  134.7690  159.3221 O   0  0  0  0  0  0  0  0  0  0  0  0
  147.4306  133.9207  160.3738 C   0  0  0  0  0  0  0  0  0  0  0  0
  147.0409  134.5215  161.7290 C   0  0  0  0  0  0  0  0  0  0  0  0
  147.6430  133.8362  162.7007 F   0  0  0  0  0  0  0  0  0  0  0  0
  147.4297  135.7944  161.7995 F   0  0  0  0  0  0  0  0  0  0  0  0
  145.7219  134.4445  161.9045 F   0  0  0  0  0  0  0  0  0  0  0  0
  148.9630  135.3517  158.0254 C   0  0  0  0  0  0  0  0  0  0  0  0
  149.3863  135.9150  159.0350 O   0  0  0  0  0  0  0  0  0  0  0  0
  149.6393  135.3097  156.8667 N   0  0  0  0  0  0  0  0  0  0  0  0
  150.9926  135.8201  156.6732 C   0  0  0  0  0  0  0  0  0  0  0  0
  151.0311  137.2004  156.0333 C   0  0  0  0  0  0  0  0  0  0  0  0
  150.7626  137.3556  154.6597 C   0  0  0  0  0  0  0  0  0  0  0  0
  150.7770  138.6542  154.1178 C   0  0  0  0  0  0  0  0  0  0  0  0
  151.0354  139.7592  154.8485 N   0  0  0  0  0  0  0  0  0  0  0  0
  151.3096  139.6218  156.1693 C   0  0  0  0  0  0  0  0  0  0  0  0
  151.5604  140.7848  156.9284 N   0  0  0  0  0  0  0  0  0  0  0  0
  151.9564  140.6246  158.3259 C   0  0  0  0  0  0  0  0  0  0  0  0
  152.4934  141.9537  158.8830 C   0  0  0  0  0  0  0  0  0  0  0  0
  151.5224  142.9785  158.6988 O   0  0  0  0  0  0  0  0  0  0  0  0
  151.2320  143.1921  157.3215 C   0  0  0  0  0  0  0  0  0  0  0  0
  150.6531  141.9073  156.7044 C   0  0  0  0  0  0  0  0  0  0  0  0
  151.3269  138.3528  156.7938 C   0  0  0  0  0  0  0  0  0  0  0  0
  147.0964  135.0313  155.9831 H   0  0  0  0  0  0  0  0  0  0  0  0
  146.4158  136.1779  157.1377 H   0  0  0  0  0  0  0  0  0  0  0  0
  145.7285  134.5660  156.9866 H   0  0  0  0  0  0  0  0  0  0  0  0
  147.7884  133.5384  157.8843 H   0  0  0  0  0  0  0  0  0  0  0  0
  146.9947  132.9256  160.2740 H   0  0  0  0  0  0  0  0  0  0  0  0
  148.5142  133.8115  160.3313 H   0  0  0  0  0  0  0  0  0  0  0  0
  149.2162  134.8296  156.0858 H   0  0  0  0  0  0  0  0  0  0  0  0
  151.4792  135.8788  157.6468 H   0  0  0  0  0  0  0  0  0  0  0  0
  151.5731  135.1134  156.0775 H   0  0  0  0  0  0  0  0  0  0  0  0
  150.5374  136.5038  154.0349 H   0  0  0  0  0  0  0  0  0  0  0  0
  150.5679  138.8111  153.0700 H   0  0  0  0  0  0  0  0  0  0  0  0
  151.0963  140.2940  158.9097 H   0  0  0  0  0  0  0  0  0  0  0  0
  152.7270  139.8579  158.4160 H   0  0  0  0  0  0  0  0  0  0  0  0
  152.7086  141.8549  159.9469 H   0  0  0  0  0  0  0  0  0  0  0  0
  153.4283  142.2309  158.3929 H   0  0  0  0  0  0  0  0  0  0  0  0
  150.5133  144.0068  157.2336 H   0  0  0  0  0  0  0  0  0  0  0  0
  152.1336  143.5056  156.7927 H   0  0  0  0  0  0  0  0  0  0  0  0
  150.4680  142.0753  155.6447 H   0  0  0  0  0  0  0  0  0  0  0  0
  149.6901  141.6761  157.1611 H   0  0  0  0  0  0  0  0  0  0  0  0
  151.5321  138.2617  157.8497 H   0  0  0  0  0  0  0  0  0  0  0  0
  1  2  1  0  0  0  0
  1 25  1  0  0  0  0
  1 26  1  0  0  0  0
  1 27  1  0  0  0  0
  2  3  1  0  0  0  0
  2  9  1  0  0  0  0
  2 28  1  0  0  0  0
  3  4  1  0  0  0  0
  4  5  1  0  0  0  0
  4 29  1  0  0  0  0
  4 30  1  0  0  0  0
  5  6  1  0  0  0  0
  5  7  1  0  0  0  0
  5  8  1  0  0  0  0
  9 10  2  0  0  0  0
  9 11  1  0  0  0  0
 11 12  1  0  0  0  0
 11 31  1  0  0  0  0
 12 13  1  0  0  0  0
 12 32  1  0  0  0  0
 12 33  1  0  0  0  0
 13 24  1  0  0  0  0
 13 14  2  0  0  0  0
 14 15  1  0  0  0  0
 14 34  1  0  0  0  0
 15 16  2  0  0  0  0
 15 35  1  0  0  0  0
 16 17  1  0  0  0  0
 17 18  1  0  0  0  0
 17 24  2  0  0  0  0
 18 23  1  0  0  0  0
 18 19  1  0  0  0  0
 19 20  1  0  0  0  0
 19 36  1  0  0  0  0
 19 37  1  0  0  0  0
 20 21  1  0  0  0  0
 20 38  1  0  0  0  0
 20 39  1  0  0  0  0
 21 22  1  0  0  0  0
 22 23  1  0  0  0  0
 22 40  1  0  0  0  0
 22 41  1  0  0  0  0
 23 42  1  0  0  0  0
 23 43  1  0  0  0  0
 24 44  1  0  0  0  0
M  END
> <s_m_source_file>
AV-unprocessed.smi

> <i_m_source_file_index>
2092

> <i_lp_mmshare_version>
43012

> <i_f3d_flags>
0

> <s_epik_input>
RkMoRikoRilbQ0gyXU9bQ0BASF0oW0NIM10pQyg9TylbTkhdW0NIMl1jMVtjSF1bY0hdbmMoW2NIXTEpTjJbQ0gyXVtDSDJdT1tDSDJdW0NIMl0y

> <s_epik_cmdline>
J2VwaWtfcHl0aG9uJywgJy1waCcsICc3LjAnLCAnLXRuJywgJzgnLCAnLW1hJywgJzIwMCcsICctbWV0YWxfYmluZGluZycsICctaW1hZScsICc8aW5maWxlLm1hZT4nLCAnLW9tYWUnLCAnPG91dGZpbGUubWFlPic=

> <r_lp_tautomer_probability>
1

> <r_epik_Ionization_Penalty>
0.00451782

> <r_epik_Ionization_Penalty_Charging>
0

> <r_epik_Ionization_Penalty_Neutral>
0.00451782

> <r_epik_State_Penalty>
0.00326147

> <r_epik_Charging_Adjusted_Penalty>
0.00326147

> <i_epik_Tot_Q>
0

> <i_epik_Tot_abs_Q>
0

> <r_epik_Metal_State_Penalty>
-0

> <b_epik_Metal_Only>
0

> <s_lp_Force_Field>
OPLS_2005

> <r_lp_Energy>
14.8319

> <b_lp_Chiralities_Consistent>
1

> <s_lp_Variant>
AV-unprocessed.smi:2092-1

> <Gold.Version>
5.8.1

> <Gold.Id.Protein>
6NUR|6NUR_protein|mol2

> <Gold.PLP.Fitness>
43.4796

> <Gold.PLP.PLP>
-35.9782

> <Gold.PLP.part.hbond>
-2.0000

> <Gold.PLP.part.metal>
0.0000

> <Gold.PLP.part.buried>
-6.0542

> <Gold.PLP.part.nonpolar>
-28.0670

> <Gold.PLP.part.repulsive>
0.1573

> <Gold.PLP.ligand.clash>
0.0000

> <Gold.PLP.ligand.torsion>
0.9560

> <Gold.PLP.Chemscore.Hbond>
2.0000

> <Gold.PLP.Chemscore.CHOScore>
1.0000

> <Gold.PLP.Chemscore.Metal>
0.0000

> <Gold.Chemscore.Hbonds>
donor molecule, donor type, donor heavy atom, donor atom, acceptor molecule, acceptor atom, score
      P1  H  6896  6909       L1    10  1.00
      P1  H  7989  7998       L1    16  0.95
      L1  C    15    35       P1  7957  1.00

> <Gold.PLP.Chemscore.Internal.Correction>
0.4134

> <Gold.Rescore>
     Score         DG    S(hbond)    S(metal)    S(lipo)     H(rot)  DE(clash)    DE(int)     intcor
     12.81     -13.83       1.79        0.00      74.83       2.49       0.11       0.91       ----

> <Gold.Chemscore.Fitness>
12.8062

> <Gold.Chemscore.DG>
-13.8286

> <Gold.Chemscore.ZeroCoef>
-5.4800

> <Gold.Chemscore.Hbond>
1.7867

> <Gold.Chemscore.Metal>
0.0000

> <Gold.Chemscore.Lipo>
74.8294

> <Gold.Chemscore.Internal_Hbond>
0.0000

> <Gold.Chemscore.DEClash>
0.1148

> <Gold.Chemscore.DEInternal>
0.9075

> <Gold.Chemscore.Rot>
2.4899

> <Gold.Chemscore.Internal.Correction>
   9.000000E+99

> <Gold.Chemscore.Hbonds>
donor molecule, donor type, donor heavy atom, donor atom, acceptor molecule, acceptor atom, score
      P1  H  6896  6909       L1    10  0.45
      P1  H  7989  7998       L1    16  0.22

> <Gold.Chemscore.Hbond.Weighted>
-5.9677

> <Gold.Chemscore.Metal.Weighted>
-0.0000

> <Gold.Chemscore.Lipo.Weighted>
-8.7550

> <Gold.Chemscore.Internal_Hbond.Weighted>
0.0000

> <Gold.Chemscore.DEClash.Weighted>
0.1148

> <Gold.Chemscore.DEInternal.Weighted>
0.9075

> <Gold.Chemscore.Rot.Weighted>
6.3741

> <Gold.Chemscore.Internal.Correction.Weighted>
   9.000000E+99

> <Gold.Protein.RotatedTorsions>
[ 6907 6896 6895 6894 ] final   61.99 input  -60.11 | X-H torsion
[ 7974 7965 7964 7962 ] final  -27.89 input  175.53 | X-H torsion
[ 8008 7997 7996 7995 ] final  -48.99 input   59.86 | X-H torsion
[ 10167 10162 10161 10158 ] final   74.37 input  -65.29 | X-H torsion
[ 10718 10713 10712 10709 ] final  150.70 input   66.30 | X-H torsion
[ 10763 10752 10751 10750 ] final  107.52 input  -60.55 | X-H torsion
[ 11005 11000 10999 10996 ] final   48.62 input  -57.11 | X-H torsion

> <Gold.Protein.ActiveResidues>
 VAL166  LYS551  ARG553  GLY616  TRP617  ASP618  TYR619  PRO620  LYS621  CYS622 
 ASP623  PHE694  ASN695  SER759  ASP760  ASP761  ALA762  ILE779  LEU786  VAL792 
 PHE793  MET794  SER795  GLU796  ALA797  LYS798  CYS799  TRP800  GLU811  SER814 

> <Gold.Protein.RotatedAtoms>
  152.4135  134.6083  160.0018 H   0  0  0  0  0  0  0  0  0  0  0  0  # atno 6907 bound_to 6896
  151.6254  133.3330  159.3105 H   0  0  0  0  0  0  0  0  0  0  0  0  # atno 6908 bound_to 6896
  150.8024  134.7167  159.6679 H   0  0  0  0  0  0  0  0  0  0  0  0  # atno 6909 bound_to 6896
  146.1326  140.5211  142.8687 H   0  0  0  0  0  0  0  0  0  0  0  0  # atno 7974 bound_to 7965
  154.4037  140.1308  156.4429 H   0  0  0  0  0  0  0  0  0  0  0  0  # atno 8008 bound_to 7997
  155.7442  140.3489  155.5099 H   0  0  0  0  0  0  0  0  0  0  0  0  # atno 8009 bound_to 7997
  155.9011  140.1019  157.1339 H   0  0  0  0  0  0  0  0  0  0  0  0  # atno 8010 bound_to 7997
  140.0144  144.5589  150.7632 H   0  0  0  0  0  0  0  0  0  0  0  0  # atno 10167 bound_to 10162
  157.2802  131.0834  151.1537 H   0  0  0  0  0  0  0  0  0  0  0  0  # atno 10718 bound_to 10713
  153.4078  135.3842  155.2030 H   0  0  0  0  0  0  0  0  0  0  0  0  # atno 10763 bound_to 10752
  154.8735  135.3787  154.4538 H   0  0  0  0  0  0  0  0  0  0  0  0  # atno 10764 bound_to 10752
  153.5043  135.7088  153.5877 H   0  0  0  0  0  0  0  0  0  0  0  0  # atno 10765 bound_to 10752
  140.1175  134.4873  155.8625 H   0  0  0  0  0  0  0  0  0  0  0  0  # atno 11005 bound_to 11000
  144.7706  140.5630  143.6672 LP  0  0  0  0  0  0  0  0  0  0  0  0  # atno 17320 bound_to 7965
  145.5227  139.1476  143.3543 LP  0  0  0  0  0  0  0  0  0  0  0  0  # atno 17321 bound_to 7965
  140.7368  143.2758  151.3748 LP  0  0  0  0  0  0  0  0  0  0  0  0  # atno 17342 bound_to 10162
  139.6183  144.0959  152.2366 LP  0  0  0  0  0  0  0  0  0  0  0  0  # atno 17343 bound_to 10162
  157.2975  130.6826  149.6146 LP  0  0  0  0  0  0  0  0  0  0  0  0  # atno 17370 bound_to 10713
  155.9664  130.4402  150.5290 LP  0  0  0  0  0  0  0  0  0  0  0  0  # atno 17371 bound_to 10713
  141.2144  133.6749  156.6824 LP  0  0  0  0  0  0  0  0  0  0  0  0  # atno 17394 bound_to 11000
  140.3009  134.8164  157.4097 LP  0  0  0  0  0  0  0  0  0  0  0  0  # atno 17395 bound_to 11000

$$$$
