AV-unprocessed.smi:39|AV-procd|sdf|360|dock10
  -GOLD-   2262016203D 1   1.00000     0.00000
 Structure written by MMmdl.
 31 32  0  0  0  0  0  0  0  0  4 V2000
  150.6989  142.7776  158.9037 C   0  0  0  0  0  0  0  0  0  0  0  0
  150.9805  141.8406  157.7420 C   0  0  0  0  0  0  0  0  0  0  0  0
  150.1866  141.7875  156.6492 C   0  0  0  0  0  0  0  0  0  0  0  0
  150.4485  140.9325  155.5912 N   0  0  0  0  0  0  0  0  0  0  0  0
  149.5579  140.8784  154.3654 C   0  0  2  0  0  0  0  0  0  0  0  0
  148.3043  141.7448  154.5702 C   0  0  0  0  0  0  0  0  0  0  0  0
  147.1798  140.7965  154.1869 C   0  0  2  0  0  0  0  0  0  0  0  0
  145.9216  141.0938  154.8755 N   0  0  0  0  0  0  0  0  0  0  0  0
  145.4754  142.2403  154.7372 N   0  3  0  0  0  0  0  0  0  0  0  0
  145.1243  143.3227  154.7177 N   0  5  0  0  0  0  0  0  0  0  0  0
  147.7654  139.4449  154.5962 C   0  0  1  0  0  0  0  0  0  0  0  0
  147.1012  138.2465  153.9025 C   0  0  0  0  0  0  0  0  0  0  0  0
  147.7726  137.0560  154.2542 O   0  0  0  0  0  0  0  0  0  0  0  0
  149.1127  139.5692  154.1536 O   0  0  0  0  0  0  0  0  0  0  0  0
  151.5761  140.0720  155.6506 C   0  0  0  0  0  0  0  0  0  0  0  0
  151.7775  139.3176  154.6985 O   0  0  0  0  0  0  0  0  0  0  0  0
  152.3825  140.1188  156.7486 N   0  5  0  0  0  0  0  0  0  0  0  0
  152.1515  140.9576  157.7987 C   0  0  0  0  0  0  0  0  0  0  0  0
  152.8906  140.9929  158.7819 O   0  0  0  0  0  0  0  0  0  0  0  0
  150.1860  141.1863  153.5277 H   0  0  0  0  0  0  0  0  0  0  0  0
  147.0492  140.8138  153.1027 H   0  0  0  0  0  0  0  0  0  0  0  0
  147.7310  139.3416  155.6827 H   0  0  0  0  0  0  0  0  0  0  0  0
  149.8053  143.3756  158.7237 H   0  0  0  0  0  0  0  0  0  0  0  0
  151.5366  143.4591  159.0547 H   0  0  0  0  0  0  0  0  0  0  0  0
  150.5465  142.2105  159.8223 H   0  0  0  0  0  0  0  0  0  0  0  0
  149.3261  142.4376  156.6162 H   0  0  0  0  0  0  0  0  0  0  0  0
  148.2245  142.0444  155.6169 H   0  0  0  0  0  0  0  0  0  0  0  0
  148.3431  142.6400  153.9489 H   0  0  0  0  0  0  0  0  0  0  0  0
  146.0656  138.1477  154.2292 H   0  0  0  0  0  0  0  0  0  0  0  0
  147.0893  138.3709  152.8194 H   0  0  0  0  0  0  0  0  0  0  0  0
  148.2668  136.7611  153.5043 H   0  0  0  0  0  0  0  0  0  0  0  0
  1  2  1  0  0  0  0
  1 23  1  0  0  0  0
  1 24  1  0  0  0  0
  1 25  1  0  0  0  0
  2 18  1  0  0  0  0
  2  3  2  0  0  0  0
  3  4  1  0  0  0  0
  3 26  1  0  0  0  0
  4  5  1  0  0  0  0
  4 15  1  0  0  0  0
  5 20  1  0  0  0  0
  5 14  1  0  0  0  0
  5  6  1  0  0  0  0
  6  7  1  0  0  0  0
  6 27  1  0  0  0  0
  6 28  1  0  0  0  0
  7 21  1  0  0  0  0
  7  8  1  0  0  0  0
  7 11  1  0  0  0  0
  8  9  2  0  0  0  0
  9 10  2  0  0  0  0
 11 22  1  0  0  0  0
 11 12  1  0  0  0  0
 11 14  1  0  0  0  0
 12 13  1  0  0  0  0
 12 29  1  0  0  0  0
 12 30  1  0  0  0  0
 13 31  1  0  0  0  0
 15 16  2  0  0  0  0
 15 17  1  0  0  0  0
 17 18  1  0  0  0  0
 18 19  2  0  0  0  0
M  CHG  1   9   1
M  CHG  1  10  -1
M  CHG  1  17  -1
M  END
> <s_m_source_file>
AV-unprocessed.smi

> <i_m_source_file_index>
39

> <i_lp_mmshare_version>
43012

> <i_f3d_flags>
0

> <s_epik_input>
Tz1jMVtuSF1jKD1PKW4oW2NIXWMxW0NIM10pW0NASF0yW0NIMl1bQ0BIXShOPVtOK109W04tXSlbQ0BIXShPMilbQ0gyXVtPSF0=

> <s_epik_cmdline>
J2VwaWtfcHl0aG9uJywgJy1waCcsICc3LjAnLCAnLXRuJywgJzgnLCAnLW1hJywgJzIwMCcsICctbWV0YWxfYmluZGluZycsICctaW1hZScsICc8aW5maWxlLm1hZT4nLCAnLW9tYWUnLCAnPG91dGZpbGUubWFlPic=

> <r_lp_tautomer_probability>
0.999537

> <r_epik_Ionization_Penalty>
3.6393

> <r_epik_Ionization_Penalty_Charging>
9.76484e-08

> <r_epik_Ionization_Penalty_Neutral>
3.6393

> <r_epik_State_Penalty>
3.63887

> <r_epik_Charging_Adjusted_Penalty>
3.63887

> <i_epik_Tot_Q>
-1

> <i_epik_Tot_abs_Q>
3

> <r_epik_Metal_State_Penalty>
0.225911

> <b_epik_Metal_Only>
1

> <s_epik_Chemistry_Notes>
This compound contains an acetal/aminal-like group ( X-CH(R)-Y where X, Y are N, S, or O) that may be acid/base labile, releasing an aldehyde.

> <s_lp_Force_Field>
OPLS_2005

> <r_lp_Energy>
32.3737

> <b_lp_Chiralities_Consistent>
1

> <s_lp_Variant>
AV-unprocessed.smi:39-10

> <Gold.Version>
5.8.1

> <Gold.Id.Protein>
6NUR|6NUR_protein|mol2

> <Gold.PLP.Fitness>
38.6662

> <Gold.PLP.PLP>
-25.3841

> <Gold.PLP.part.hbond>
-3.0000

> <Gold.PLP.part.metal>
0.0000

> <Gold.PLP.part.buried>
-1.6846

> <Gold.PLP.part.nonpolar>
-20.1913

> <Gold.PLP.part.repulsive>
1.0322

> <Gold.PLP.ligand.clash>
0.0000

> <Gold.PLP.ligand.torsion>
0.1265

> <Gold.PLP.Chemscore.Hbond>
3.5000

> <Gold.PLP.Chemscore.CHOScore>
1.0000

> <Gold.PLP.Chemscore.Metal>
0.0000

> <Gold.Chemscore.Hbonds>
donor molecule, donor type, donor heavy atom, donor atom, acceptor molecule, acceptor atom, score
      L1  H    13    31       P1  7948  1.00
      P1  H  7989  7998       L1    16  0.45
      P1  H  7997  8008       L1    17  2.00
      L1  C     3    26       P1  8028  1.00

> <Gold.PLP.Chemscore.Internal.Correction>
0.0351

> <Gold.Rescore>
     Score         DG    S(hbond)    S(metal)    S(lipo)     H(rot)  DE(clash)    DE(int)     intcor
      7.56      -9.31       1.88        0.00      38.38       2.72       0.32       1.42       ----

> <Gold.Chemscore.Fitness>
7.5576

> <Gold.Chemscore.DG>
-9.3054

> <Gold.Chemscore.ZeroCoef>
-5.4800

> <Gold.Chemscore.Hbond>
1.8821

> <Gold.Chemscore.Metal>
0.0000

> <Gold.Chemscore.Lipo>
38.3784

> <Gold.Chemscore.Internal_Hbond>
0.0000

> <Gold.Chemscore.DEClash>
0.3236

> <Gold.Chemscore.DEInternal>
1.4243

> <Gold.Chemscore.Rot>
2.7153

> <Gold.Chemscore.Internal.Correction>
   9.000000E+99

> <Gold.Chemscore.Hbonds>
donor molecule, donor type, donor heavy atom, donor atom, acceptor molecule, acceptor atom, score
      L1  H    13    31       P1  7948  1.00
      P1  H  7989  7998       L1    16  0.02
      P1  H  7997  8008       L1    17  0.55

> <Gold.Chemscore.Hbond.Weighted>
-6.2863

> <Gold.Chemscore.Metal.Weighted>
-0.0000

> <Gold.Chemscore.Lipo.Weighted>
-4.4903

> <Gold.Chemscore.Internal_Hbond.Weighted>
0.0000

> <Gold.Chemscore.DEClash.Weighted>
0.3236

> <Gold.Chemscore.DEInternal.Weighted>
1.4243

> <Gold.Chemscore.Rot.Weighted>
6.9512

> <Gold.Chemscore.Internal.Correction.Weighted>
   9.000000E+99

> <Gold.Protein.RotatedTorsions>
[ 6907 6896 6895 6894 ] final   24.79 input  -60.11 | X-H torsion
[ 7974 7965 7964 7962 ] final  -26.03 input  175.53 | X-H torsion
[ 8008 7997 7996 7995 ] final  -47.56 input   59.86 | X-H torsion
[ 10167 10162 10161 10158 ] final -106.96 input  -65.29 | X-H torsion
[ 10718 10713 10712 10709 ] final  -47.52 input   66.30 | X-H torsion
[ 10763 10752 10751 10750 ] final -128.59 input  -60.55 | X-H torsion
[ 11005 11000 10999 10996 ] final  137.62 input  -57.11 | X-H torsion

> <Gold.Protein.ActiveResidues>
 VAL166  LYS551  ARG553  GLY616  TRP617  ASP618  TYR619  PRO620  LYS621  CYS622 
 ASP623  PHE694  ASN695  SER759  ASP760  ASP761  ALA762  ILE779  LEU786  VAL792 
 PHE793  MET794  SER795  GLU796  ALA797  LYS798  CYS799  TRP800  GLU811  SER814 

> <Gold.Protein.RotatedAtoms>
  151.9628  135.0115  160.0548 H   0  0  0  0  0  0  0  0  0  0  0  0  # atno 6907 bound_to 6896
  152.1853  133.4731  159.4988 H   0  0  0  0  0  0  0  0  0  0  0  0  # atno 6908 bound_to 6896
  150.6925  134.1699  159.4251 H   0  0  0  0  0  0  0  0  0  0  0  0  # atno 6909 bound_to 6896
  146.1452  140.4966  142.8635 H   0  0  0  0  0  0  0  0  0  0  0  0  # atno 7974 bound_to 7965
  154.4018  140.1343  156.4195 H   0  0  0  0  0  0  0  0  0  0  0  0  # atno 8008 bound_to 7997
  155.7656  140.3485  155.5200 H   0  0  0  0  0  0  0  0  0  0  0  0  # atno 8009 bound_to 7997
  155.8817  140.0988  157.1471 H   0  0  0  0  0  0  0  0  0  0  0  0  # atno 8010 bound_to 7997
  140.1822  143.3958  152.1273 H   0  0  0  0  0  0  0  0  0  0  0  0  # atno 10167 bound_to 10162
  156.2077  130.4159  149.9156 H   0  0  0  0  0  0  0  0  0  0  0  0  # atno 10718 bound_to 10713
  154.8756  135.3923  154.3782 H   0  0  0  0  0  0  0  0  0  0  0  0  # atno 10763 bound_to 10752
  153.4533  135.7028  153.6100 H   0  0  0  0  0  0  0  0  0  0  0  0  # atno 10764 bound_to 10752
  153.4631  135.3807  155.2318 H   0  0  0  0  0  0  0  0  0  0  0  0  # atno 10765 bound_to 10752
  140.0126  134.9432  157.0310 H   0  0  0  0  0  0  0  0  0  0  0  0  # atno 11005 bound_to 11000
  144.7838  140.5894  143.6587 LP  0  0  0  0  0  0  0  0  0  0  0  0  # atno 17320 bound_to 7965
  145.4954  139.1486  143.3686 LP  0  0  0  0  0  0  0  0  0  0  0  0  # atno 17321 bound_to 7965
  139.5291  144.7138  151.5120 LP  0  0  0  0  0  0  0  0  0  0  0  0  # atno 17342 bound_to 10162
  140.6512  143.8692  150.6788 LP  0  0  0  0  0  0  0  0  0  0  0  0  # atno 17343 bound_to 10162
  156.6845  130.8871  151.3580 LP  0  0  0  0  0  0  0  0  0  0  0  0  # atno 17370 bound_to 10713
  157.7021  130.9344  150.0818 LP  0  0  0  0  0  0  0  0  0  0  0  0  # atno 17371 bound_to 10713
  140.4527  134.1566  155.7183 LP  0  0  0  0  0  0  0  0  0  0  0  0  # atno 17394 bound_to 11000
  141.1721  133.8587  157.1536 LP  0  0  0  0  0  0  0  0  0  0  0  0  # atno 17395 bound_to 11000

$$$$
