AV-unprocessed.smi:3187|AV-procd|sdf|12180|dock5
  -GOLD-   2272018 23D 1   1.00000     0.00000
 Structure written by MMmdl.
 42 43  0  0  0  0  0  0  0  0  3 V2000
  150.7419  139.9503  158.3364 C   0  0  0  0  0  0  0  0  0  0  0  0
  151.6976  141.0011  158.8770 C   0  0  0  0  0  0  0  0  0  0  0  0
  152.7285  140.6271  159.6588 C   0  0  0  0  0  0  0  0  0  0  0  0
  153.6952  141.5879  160.3114 C   0  0  0  0  0  0  0  0  0  0  0  0
  153.0903  142.9900  160.4106 C   0  0  0  0  0  0  0  0  0  0  0  0
  152.5137  143.4496  159.0615 C   0  0  2  0  0  0  0  0  0  0  0  0
  152.0004  144.8970  159.1918 C   0  0  0  0  0  0  0  0  0  0  0  0
  151.4224  142.4759  158.5175 C   0  0  1  0  0  0  0  0  0  0  0  0
  151.2267  142.6948  156.9935 C   0  0  0  0  0  0  0  0  0  0  0  0
  149.8210  142.5279  156.5637 N   0  3  0  0  0  0  0  0  0  0  0  0
  149.5738  141.3935  155.6478 C   0  0  0  0  0  0  0  0  0  0  0  0
  148.2397  141.5210  154.8917 C   0  0  0  0  0  0  0  0  0  0  0  0
  147.9720  140.3440  154.0614 N   0  0  0  0  0  0  0  0  0  0  0  0
  146.8964  140.1390  153.2350 C   0  0  0  0  0  0  0  0  0  0  0  0
  147.0712  138.9042  152.6646 C   0  0  0  0  0  0  0  0  0  0  0  0
  148.2447  138.4079  153.1665 N   0  3  0  0  0  0  0  0  0  0  0  0
  148.7914  139.2849  154.0150 C   0  0  0  0  0  0  0  0  0  0  0  0
  149.7091  140.2262  158.5502 H   0  0  0  0  0  0  0  0  0  0  0  0
  150.9237  138.9773  158.7945 H   0  0  0  0  0  0  0  0  0  0  0  0
  150.8634  139.8288  157.2604 H   0  0  0  0  0  0  0  0  0  0  0  0
  152.8967  139.5802  159.8663 H   0  0  0  0  0  0  0  0  0  0  0  0
  153.9447  141.2230  161.3081 H   0  0  0  0  0  0  0  0  0  0  0  0
  154.6197  141.6018  159.7333 H   0  0  0  0  0  0  0  0  0  0  0  0
  152.3019  142.9933  161.1648 H   0  0  0  0  0  0  0  0  0  0  0  0
  153.8525  143.6883  160.7589 H   0  0  0  0  0  0  0  0  0  0  0  0
  153.3434  143.4560  158.3525 H   0  0  0  0  0  0  0  0  0  0  0  0
  151.1618  144.9573  159.8861 H   0  0  0  0  0  0  0  0  0  0  0  0
  151.6716  145.3115  158.2400 H   0  0  0  0  0  0  0  0  0  0  0  0
  152.7840  145.5553  159.5682 H   0  0  0  0  0  0  0  0  0  0  0  0
  150.4881  142.7273  159.0223 H   0  0  0  0  0  0  0  0  0  0  0  0
  151.5382  143.6962  156.7044 H   0  0  0  0  0  0  0  0  0  0  0  0
  151.8662  142.0046  156.4412 H   0  0  0  0  0  0  0  0  0  0  0  0
  149.2717  142.3720  157.3973 H   0  0  0  0  0  0  0  0  0  0  0  0
  150.4082  141.2942  154.9521 H   0  0  0  0  0  0  0  0  0  0  0  0
  149.5608  140.4840  156.2492 H   0  0  0  0  0  0  0  0  0  0  0  0
  147.4089  141.6459  155.5883 H   0  0  0  0  0  0  0  0  0  0  0  0
  148.2397  142.3895  154.2325 H   0  0  0  0  0  0  0  0  0  0  0  0
  146.1059  140.8664  153.1161 H   0  0  0  0  0  0  0  0  0  0  0  0
  146.4647  138.3556  151.9585 H   0  0  0  0  0  0  0  0  0  0  0  0
  149.7131  139.1591  154.5551 H   0  0  0  0  0  0  0  0  0  0  0  0
  149.5036  143.3831  156.1297 H   0  0  0  0  0  0  0  0  0  0  0  0
  148.6420  137.5065  152.9317 H   0  0  0  0  0  0  0  0  0  0  0  0
  1  2  1  0  0  0  0
  1 18  1  0  0  0  0
  1 19  1  0  0  0  0
  1 20  1  0  0  0  0
  2  8  1  0  0  0  0
  2  3  2  0  0  0  0
  3  4  1  0  0  0  0
  3 21  1  0  0  0  0
  4  5  1  0  0  0  0
  4 22  1  0  0  0  0
  4 23  1  0  0  0  0
  5  6  1  0  0  0  0
  5 24  1  0  0  0  0
  5 25  1  0  0  0  0
  6  7  1  0  0  0  0
  6  8  1  0  0  0  0
  6 26  1  0  0  0  0
  7 27  1  0  0  0  0
  7 28  1  0  0  0  0
  7 29  1  0  0  0  0
  8  9  1  0  0  0  0
  8 30  1  0  0  0  0
  9 10  1  0  0  0  0
  9 31  1  0  0  0  0
  9 32  1  0  0  0  0
 10 11  1  0  0  0  0
 10 33  1  0  0  0  0
 10 41  1  0  0  0  0
 11 12  1  0  0  0  0
 11 34  1  0  0  0  0
 11 35  1  0  0  0  0
 12 13  1  0  0  0  0
 12 36  1  0  0  0  0
 12 37  1  0  0  0  0
 13 17  1  0  0  0  0
 13 14  1  0  0  0  0
 14 15  2  0  0  0  0
 14 38  1  0  0  0  0
 15 16  1  0  0  0  0
 15 39  1  0  0  0  0
 16 17  2  0  0  0  0
 16 42  1  0  0  0  0
 17 40  1  0  0  0  0
M  CHG  1  10   1
M  CHG  1  16   1
M  END
> <s_m_source_file>
AV-unprocessed.smi

> <i_m_source_file_index>
3187

> <i_lp_mmshare_version>
43012

> <i_f3d_flags>
0

> <s_epik_input>
W0NIM11DMT1bQ0hdW0NIMl1bQ0gyXVtDQEBIXShbQ0gzXSlbQ0BIXTFbQ0gyXVtOSF1bQ0gyXVtDSDJdbjJbY0hdW2NIXW5bY0hdMg==

> <s_epik_cmdline>
J2VwaWtfcHl0aG9uJywgJy1waCcsICc3LjAnLCAnLXRuJywgJzgnLCAnLW1hJywgJzIwMCcsICctbWV0YWxfYmluZGluZycsICctaW1hZScsICc8aW5maWxlLm1hZT4nLCAnLW9tYWUnLCAnPG91dGZpbGUubWFlPic=

> <r_lp_tautomer_probability>
1

> <r_epik_Ionization_Penalty>
1.51066

> <r_epik_Ionization_Penalty_Charging>
0.0026721

> <r_epik_Ionization_Penalty_Neutral>
1.50798

> <r_epik_State_Penalty>
1.12593

> <r_epik_Charging_Adjusted_Penalty>
1.12861

> <i_epik_Tot_Q>
2

> <i_epik_Tot_abs_Q>
2

> <r_epik_Metal_State_Penalty>
5.12155

> <b_epik_Metal_Only>
0

> <s_lp_Force_Field>
OPLS_2005

> <r_lp_Energy>
26.137

> <b_lp_Chiralities_Consistent>
1

> <s_lp_Variant>
AV-unprocessed.smi:3187-6

> <Gold.Version>
5.8.1

> <Gold.Id.Protein>
6NUR|6NUR_protein|mol2

> <Gold.PLP.Fitness>
55.2636

> <Gold.PLP.PLP>
-41.9204

> <Gold.PLP.part.hbond>
-3.0000

> <Gold.PLP.part.metal>
0.0000

> <Gold.PLP.part.buried>
-3.3363

> <Gold.PLP.part.nonpolar>
-37.2836

> <Gold.PLP.part.repulsive>
0.1064

> <Gold.PLP.ligand.clash>
0.0000

> <Gold.PLP.ligand.torsion>
0.8695

> <Gold.PLP.Chemscore.Hbond>
4.0000

> <Gold.PLP.Chemscore.CHOScore>
0.9915

> <Gold.PLP.Chemscore.Metal>
0.0000

> <Gold.Chemscore.Hbonds>
donor molecule, donor type, donor heavy atom, donor atom, acceptor molecule, acceptor atom, score
      L1  H    10    41       P1  8028  2.00
      L1  H    16    42       P1  7948  2.00
      L1  C    14    38       P1 10175  0.98

> <Gold.PLP.Chemscore.Internal.Correction>
0.1077

> <Gold.Rescore>
     Score         DG    S(hbond)    S(metal)    S(lipo)     H(rot)  DE(clash)    DE(int)     intcor
     19.15     -20.31       1.99        0.00     113.14       1.97       0.09       1.07       ----

> <Gold.Chemscore.Fitness>
19.1497

> <Gold.Chemscore.DG>
-20.3132

> <Gold.Chemscore.ZeroCoef>
-5.4800

> <Gold.Chemscore.Hbond>
1.9903

> <Gold.Chemscore.Metal>
0.0000

> <Gold.Chemscore.Lipo>
113.1354

> <Gold.Chemscore.Internal_Hbond>
0.0000

> <Gold.Chemscore.DEClash>
0.0905

> <Gold.Chemscore.DEInternal>
1.0730

> <Gold.Chemscore.Rot>
1.9732

> <Gold.Chemscore.Internal.Correction>
   9.000000E+99

> <Gold.Chemscore.Hbonds>
donor molecule, donor type, donor heavy atom, donor atom, acceptor molecule, acceptor atom, score
      L1  H    10    41       P1  8028  0.94
      L1  H    16    42       P1  7948  0.96

> <Gold.Chemscore.Hbond.Weighted>
-6.6477

> <Gold.Chemscore.Metal.Weighted>
-0.0000

> <Gold.Chemscore.Lipo.Weighted>
-13.2368

> <Gold.Chemscore.Internal_Hbond.Weighted>
0.0000

> <Gold.Chemscore.DEClash.Weighted>
0.0905

> <Gold.Chemscore.DEInternal.Weighted>
1.0730

> <Gold.Chemscore.Rot.Weighted>
5.0514

> <Gold.Chemscore.Internal.Correction.Weighted>
   9.000000E+99

> <Gold.Protein.RotatedTorsions>
[ 6907 6896 6895 6894 ] final  166.00 input  -60.11 | X-H torsion
[ 7974 7965 7964 7962 ] final  107.55 input  175.53 | X-H torsion
[ 8008 7997 7996 7995 ] final -174.21 input   59.86 | X-H torsion
[ 10167 10162 10161 10158 ] final  127.87 input  -65.29 | X-H torsion
[ 10718 10713 10712 10709 ] final -102.52 input   66.30 | X-H torsion
[ 10763 10752 10751 10750 ] final  108.10 input  -60.55 | X-H torsion
[ 11005 11000 10999 10996 ] final -128.30 input  -57.11 | X-H torsion

> <Gold.Protein.ActiveResidues>
 VAL166  LYS551  ARG553  GLY616  TRP617  ASP618  TYR619  PRO620  LYS621  CYS622 
 ASP623  PHE694  ASN695  SER759  ASP760  ASP761  ALA762  ILE779  LEU786  VAL792 
 PHE793  MET794  SER795  GLU796  ALA797  LYS798  CYS799  TRP800  GLU811  SER814 

> <Gold.Protein.RotatedAtoms>
  151.8856  133.3505  159.3780 H   0  0  0  0  0  0  0  0  0  0  0  0  # atno 6907 bound_to 6896
  150.7116  134.4975  159.5554 H   0  0  0  0  0  0  0  0  0  0  0  0  # atno 6908 bound_to 6896
  152.2535  134.8108  160.0493 H   0  0  0  0  0  0  0  0  0  0  0  0  # atno 6909 bound_to 6896
  145.2922  139.2597  143.3859 H   0  0  0  0  0  0  0  0  0  0  0  0  # atno 7974 bound_to 7965
  155.9672  140.1156  157.0844 H   0  0  0  0  0  0  0  0  0  0  0  0  # atno 8008 bound_to 7997
  154.4147  140.1170  156.5326 H   0  0  0  0  0  0  0  0  0  0  0  0  # atno 8009 bound_to 7997
  155.6643  140.3473  155.4796 H   0  0  0  0  0  0  0  0  0  0  0  0  # atno 8010 bound_to 7997
  139.5556  144.6846  151.4192 H   0  0  0  0  0  0  0  0  0  0  0  0  # atno 10167 bound_to 10162
  156.0231  130.5424  150.7120 H   0  0  0  0  0  0  0  0  0  0  0  0  # atno 10718 bound_to 10713
  153.4160  135.3823  155.2081 H   0  0  0  0  0  0  0  0  0  0  0  0  # atno 10763 bound_to 10752
  154.8741  135.3805  154.4442 H   0  0  0  0  0  0  0  0  0  0  0  0  # atno 10764 bound_to 10752
  153.4956  135.7088  153.5922 H   0  0  0  0  0  0  0  0  0  0  0  0  # atno 10765 bound_to 10752
  140.9528  134.1043  157.4046 H   0  0  0  0  0  0  0  0  0  0  0  0  # atno 11005 bound_to 11000
  146.3181  140.3415  142.8648 LP  0  0  0  0  0  0  0  0  0  0  0  0  # atno 17320 bound_to 7965
  144.9163  140.7817  143.5776 LP  0  0  0  0  0  0  0  0  0  0  0  0  # atno 17321 bound_to 7965
  140.6828  143.8042  150.7145 LP  0  0  0  0  0  0  0  0  0  0  0  0  # atno 17342 bound_to 10162
  140.1501  143.4365  152.2137 LP  0  0  0  0  0  0  0  0  0  0  0  0  # atno 17343 bound_to 10162
  157.4756  131.0897  151.0594 LP  0  0  0  0  0  0  0  0  0  0  0  0  # atno 17370 bound_to 10713
  157.1042  130.5994  149.5467 LP  0  0  0  0  0  0  0  0  0  0  0  0  # atno 17371 bound_to 10713
  139.8852  135.0071  156.6423 LP  0  0  0  0  0  0  0  0  0  0  0  0  # atno 17394 bound_to 11000
  140.7579  133.8842  155.8396 LP  0  0  0  0  0  0  0  0  0  0  0  0  # atno 17395 bound_to 11000

$$$$
