AV-unprocessed.smi:2140|AV-procd|sdf|8715|dock8
  -GOLD-   2272011483D 1   1.00000     0.00000
 Structure written by MMmdl.
 39 40  0  0  0  0  0  0  0  0  1 V2000
  146.9503  142.3245  154.0912 C   0  0  0  0  0  0  0  0  0  0  0  0
  147.7005  140.9751  154.2320 C   0  0  1  0  0  0  0  0  0  0  0  0
  149.2256  141.2590  154.3631 C   0  0  0  0  0  0  0  0  0  0  0  0
  149.5548  142.1874  155.4414 N   0  0  0  0  0  0  0  0  0  0  0  0
  150.3860  141.9216  156.4587 C   0  0  0  0  0  0  0  0  0  0  0  0
  150.9647  140.8442  156.5983 O   0  0  0  0  0  0  0  0  0  0  0  0
  150.5123  142.9839  157.2721 N   0  0  0  0  0  0  0  0  0  0  0  0
  151.2975  143.1056  158.4499 C   0  0  0  0  0  0  0  0  0  0  0  0
  151.4446  144.3047  159.1885 C   0  0  0  0  0  0  0  0  0  0  0  0
  152.2680  144.3024  160.3309 C   0  0  0  0  0  0  0  0  0  0  0  0
  152.9189  143.1057  160.6887 C   0  0  0  0  0  0  0  0  0  0  0  0
  152.7990  141.9596  159.9861 N   0  0  0  0  0  0  0  0  0  0  0  0
  152.0090  141.9698  158.8914 C   0  0  0  0  0  0  0  0  0  0  0  0
  147.1673  140.1346  155.3295 N   0  0  0  0  0  0  0  0  0  0  0  0
  148.0451  139.0033  155.6514 C   0  0  0  0  0  0  0  0  0  0  0  0
  147.5071  138.1403  156.8055 C   0  0  0  0  0  0  0  0  0  0  0  0
  147.3201  138.9487  157.9586 O   0  0  0  0  0  0  0  0  0  0  0  0
  146.4161  140.0179  157.7180 C   0  0  0  0  0  0  0  0  0  0  0  0
  146.9389  140.8933  156.5651 C   0  0  0  0  0  0  0  0  0  0  0  0
  147.3779  142.9610  153.3174 H   0  0  0  0  0  0  0  0  0  0  0  0
  146.9704  142.8864  155.0255 H   0  0  0  0  0  0  0  0  0  0  0  0
  145.9095  142.1896  153.8007 H   0  0  0  0  0  0  0  0  0  0  0  0
  147.5530  140.4324  153.2970 H   0  0  0  0  0  0  0  0  0  0  0  0
  149.7611  140.3268  154.5450 H   0  0  0  0  0  0  0  0  0  0  0  0
  149.6445  141.6803  153.4503 H   0  0  0  0  0  0  0  0  0  0  0  0
  149.1252  143.1000  155.4019 H   0  0  0  0  0  0  0  0  0  0  0  0
  150.0390  143.8260  156.9789 H   0  0  0  0  0  0  0  0  0  0  0  0
  150.9586  145.2226  158.8963 H   0  0  0  0  0  0  0  0  0  0  0  0
  152.4012  145.1995  160.9173 H   0  0  0  0  0  0  0  0  0  0  0  0
  153.5573  143.0699  161.5591 H   0  0  0  0  0  0  0  0  0  0  0  0
  151.9389  141.0360  158.3528 H   0  0  0  0  0  0  0  0  0  0  0  0
  148.1578  138.3470  154.7904 H   0  0  0  0  0  0  0  0  0  0  0  0
  149.0416  139.3681  155.9055 H   0  0  0  0  0  0  0  0  0  0  0  0
  146.5653  137.6647  156.5264 H   0  0  0  0  0  0  0  0  0  0  0  0
  148.2108  137.3420  157.0412 H   0  0  0  0  0  0  0  0  0  0  0  0
  145.4261  139.6226  157.4848 H   0  0  0  0  0  0  0  0  0  0  0  0
  146.3173  140.6104  158.6277 H   0  0  0  0  0  0  0  0  0  0  0  0
  147.8629  141.3847  156.8736 H   0  0  0  0  0  0  0  0  0  0  0  0
  146.2006  141.6765  156.4074 H   0  0  0  0  0  0  0  0  0  0  0  0
  1  2  1  0  0  0  0
  1 20  1  0  0  0  0
  1 21  1  0  0  0  0
  1 22  1  0  0  0  0
  2  3  1  0  0  0  0
  2 14  1  0  0  0  0
  2 23  1  0  0  0  0
  3  4  1  0  0  0  0
  3 24  1  0  0  0  0
  3 25  1  0  0  0  0
  4  5  1  0  0  0  0
  4 26  1  0  0  0  0
  5  6  2  0  0  0  0
  5  7  1  0  0  0  0
  7  8  1  0  0  0  0
  7 27  1  0  0  0  0
  8 13  1  0  0  0  0
  8  9  2  0  0  0  0
  9 10  1  0  0  0  0
  9 28  1  0  0  0  0
 10 11  2  0  0  0  0
 10 29  1  0  0  0  0
 11 12  1  0  0  0  0
 11 30  1  0  0  0  0
 12 13  2  0  0  0  0
 13 31  1  0  0  0  0
 14 19  1  0  0  0  0
 14 15  1  0  0  0  0
 15 16  1  0  0  0  0
 15 32  1  0  0  0  0
 15 33  1  0  0  0  0
 16 17  1  0  0  0  0
 16 34  1  0  0  0  0
 16 35  1  0  0  0  0
 17 18  1  0  0  0  0
 18 19  1  0  0  0  0
 18 36  1  0  0  0  0
 18 37  1  0  0  0  0
 19 38  1  0  0  0  0
 19 39  1  0  0  0  0
M  END
> <s_m_source_file>
AV-unprocessed.smi

> <i_m_source_file_index>
2140

> <i_lp_mmshare_version>
43012

> <i_f3d_flags>
0

> <s_epik_input>
W0NIMl0xW0NIMl1PW0NIMl1bQ0gyXU4xW0NASF0oW0NIM10pW0NIMl1bTkhdQyg9TylbTkhdYzJbY0hdW2NIXVtjSF1uW2NIXTI=

> <s_epik_cmdline>
J2VwaWtfcHl0aG9uJywgJy1waCcsICc3LjAnLCAnLXRuJywgJzgnLCAnLW1hJywgJzIwMCcsICctbWV0YWxfYmluZGluZycsICctaW1hZScsICc8aW5maWxlLm1hZT4nLCAnLW9tYWUnLCAnPG91dGZpbGUubWFlPic=

> <r_epik_Ionization_Penalty>
0.270748

> <r_epik_Ionization_Penalty_Charging>
0

> <r_epik_Ionization_Penalty_Neutral>
0.270748

> <r_epik_State_Penalty>
0.268258

> <r_epik_Charging_Adjusted_Penalty>
0.268258

> <i_epik_Tot_Q>
0

> <i_epik_Tot_abs_Q>
0

> <r_epik_Metal_State_Penalty>
0.264828

> <b_epik_Metal_Only>
0

> <s_lp_Force_Field>
OPLS_2005

> <r_lp_Energy>
31.3995

> <b_lp_Chiralities_Consistent>
1

> <s_lp_Variant>
AV-unprocessed.smi:2140-2

> <Gold.Version>
5.8.1

> <Gold.Id.Protein>
6NUR|6NUR_protein|mol2

> <Gold.PLP.Fitness>
38.2626

> <Gold.PLP.PLP>
-32.8158

> <Gold.PLP.part.hbond>
-2.7612

> <Gold.PLP.part.metal>
0.0000

> <Gold.PLP.part.buried>
-5.8666

> <Gold.PLP.part.nonpolar>
-24.3213

> <Gold.PLP.part.repulsive>
0.2463

> <Gold.PLP.ligand.clash>
0.0000

> <Gold.PLP.ligand.torsion>
0.2890

> <Gold.PLP.Chemscore.Hbond>
2.0000

> <Gold.PLP.Chemscore.CHOScore>
0.0000

> <Gold.PLP.Chemscore.Metal>
0.0000

> <Gold.Chemscore.Hbonds>
donor molecule, donor type, donor heavy atom, donor atom, acceptor molecule, acceptor atom, score
      L1  H     4    26       P1  8028  1.00
      L1  H     7    27       P1  8028  0.99

> <Gold.PLP.Chemscore.Internal.Correction>
0.0248

> <Gold.Rescore>
     Score         DG    S(hbond)    S(metal)    S(lipo)     H(rot)  DE(clash)    DE(int)     intcor
     15.94     -17.65       1.97        0.00      79.91       1.47       0.01       1.70       ----

> <Gold.Chemscore.Fitness>
15.9414

> <Gold.Chemscore.DG>
-17.6519

> <Gold.Chemscore.ZeroCoef>
-5.4800

> <Gold.Chemscore.Hbond>
1.9731

> <Gold.Chemscore.Metal>
0.0000

> <Gold.Chemscore.Lipo>
79.9122

> <Gold.Chemscore.Internal_Hbond>
0.0000

> <Gold.Chemscore.DEClash>
0.0126

> <Gold.Chemscore.DEInternal>
1.6979

> <Gold.Chemscore.Rot>
1.4719

> <Gold.Chemscore.Internal.Correction>
   9.000000E+99

> <Gold.Chemscore.Hbonds>
donor molecule, donor type, donor heavy atom, donor atom, acceptor molecule, acceptor atom, score
      L1  H     4    26       P1  8028  0.99
      L1  H     7    27       P1  8028  0.90

> <Gold.Chemscore.Hbond.Weighted>
-6.5903

> <Gold.Chemscore.Metal.Weighted>
-0.0000

> <Gold.Chemscore.Lipo.Weighted>
-9.3497

> <Gold.Chemscore.Internal_Hbond.Weighted>
0.0000

> <Gold.Chemscore.DEClash.Weighted>
0.0126

> <Gold.Chemscore.DEInternal.Weighted>
1.6979

> <Gold.Chemscore.Rot.Weighted>
3.7681

> <Gold.Chemscore.Internal.Correction.Weighted>
   9.000000E+99

> <Gold.Protein.RotatedTorsions>
[ 6907 6896 6895 6894 ] final -154.36 input  -60.11 | X-H torsion
[ 7974 7965 7964 7962 ] final  -89.74 input  175.53 | X-H torsion
[ 8008 7997 7996 7995 ] final   73.14 input   59.86 | X-H torsion
[ 10167 10162 10161 10158 ] final  -83.73 input  -65.29 | X-H torsion
[ 10718 10713 10712 10709 ] final  -23.40 input   66.30 | X-H torsion
[ 10763 10752 10751 10750 ] final  156.48 input  -60.55 | X-H torsion
[ 11005 11000 10999 10996 ] final -126.42 input  -57.11 | X-H torsion

> <Gold.Protein.ActiveResidues>
 VAL166  LYS551  ARG553  GLY616  TRP617  ASP618  TYR619  PRO620  LYS621  CYS622 
 ASP623  PHE694  ASN695  SER759  ASP760  ASP761  ALA762  ILE779  LEU786  VAL792 
 PHE793  MET794  SER795  GLU796  ALA797  LYS798  CYS799  TRP800  GLU811  SER814 

> <Gold.Protein.RotatedAtoms>
  151.2564  133.4324  159.2613 H   0  0  0  0  0  0  0  0  0  0  0  0  # atno 6907 bound_to 6896
  151.0571  134.9712  159.8251 H   0  0  0  0  0  0  0  0  0  0  0  0  # atno 6908 bound_to 6896
  152.5392  134.2516  159.8953 H   0  0  0  0  0  0  0  0  0  0  0  0  # atno 6909 bound_to 6896
  145.4357  140.9557  143.2103 H   0  0  0  0  0  0  0  0  0  0  0  0  # atno 7974 bound_to 7965
  155.7793  140.3482  155.5289 H   0  0  0  0  0  0  0  0  0  0  0  0  # atno 8008 bound_to 7997
  155.8744  140.0992  157.1549 H   0  0  0  0  0  0  0  0  0  0  0  0  # atno 8009 bound_to 7997
  154.4020  140.1334  156.4106 H   0  0  0  0  0  0  0  0  0  0  0  0  # atno 8010 bound_to 7997
  140.4199  143.2588  151.8904 H   0  0  0  0  0  0  0  0  0  0  0  0  # atno 10167 bound_to 10162
  156.4915  130.4567  149.6752 H   0  0  0  0  0  0  0  0  0  0  0  0  # atno 10718 bound_to 10713
  154.1849  135.2797  155.3040 H   0  0  0  0  0  0  0  0  0  0  0  0  # atno 10763 bound_to 10752
  154.5974  135.5540  153.7342 H   0  0  0  0  0  0  0  0  0  0  0  0  # atno 10764 bound_to 10752
  153.0128  135.6383  154.1988 H   0  0  0  0  0  0  0  0  0  0  0  0  # atno 10765 bound_to 10752
  140.9683  134.0841  157.3897 H   0  0  0  0  0  0  0  0  0  0  0  0  # atno 11005 bound_to 11000
  144.8154  139.5887  143.7011 LP  0  0  0  0  0  0  0  0  0  0  0  0  # atno 17320 bound_to 7965
  146.2583  139.6352  142.9379 LP  0  0  0  0  0  0  0  0  0  0  0  0  # atno 17321 bound_to 7965
  139.4782  144.5448  151.8474 LP  0  0  0  0  0  0  0  0  0  0  0  0  # atno 17342 bound_to 10162
  140.4545  144.1809  150.5900 LP  0  0  0  0  0  0  0  0  0  0  0  0  # atno 17343 bound_to 10162
  156.3421  130.7388  151.2334 LP  0  0  0  0  0  0  0  0  0  0  0  0  # atno 17370 bound_to 10713
  157.7473  131.0400  150.4580 LP  0  0  0  0  0  0  0  0  0  0  0  0  # atno 17371 bound_to 10713
  139.8902  135.0111  156.6726 LP  0  0  0  0  0  0  0  0  0  0  0  0  # atno 17394 bound_to 11000
  140.7367  133.9013  155.8249 LP  0  0  0  0  0  0  0  0  0  0  0  0  # atno 17395 bound_to 11000

$$$$
