AV-unprocessed.smi:1295|AV-procd|sdf|5401|dock10
  -GOLD-   22720 4563D 1   1.00000     0.00000
 Structure written by MMmdl.
 43 44  0  0  0  0  0  0  0  0  1 V2000
  153.4618  142.9096  163.6608 C   0  0  0  0  0  0  0  0  0  0  0  0
  153.0033  143.1270  162.2343 C   0  0  0  0  0  0  0  0  0  0  0  0
  152.3775  144.1838  161.8318 N   0  0  0  0  0  0  0  0  0  0  0  0
  152.0061  144.2740  160.4833 C   0  0  0  0  0  0  0  0  0  0  0  0
  151.2818  145.5488  160.0862 C   0  0  0  0  0  0  0  0  0  0  0  0
  152.2857  143.2752  159.5952 C   0  0  0  0  0  0  0  0  0  0  0  0
  151.8977  143.3484  158.1192 C   0  0  0  0  0  0  0  0  0  0  0  0
  151.0273  142.1982  157.6075 C   0  0  0  0  0  0  0  0  0  0  0  0
  149.8446  142.1219  157.9405 O   0  0  0  0  0  0  0  0  0  0  0  0
  151.6318  141.3096  156.8036 N   0  0  0  0  0  0  0  0  0  0  0  0
  151.0187  140.1120  156.2314 C   0  0  2  0  0  0  0  0  0  0  0  0
  152.1336  139.1012  155.8976 C   0  0  0  0  0  0  0  0  0  0  0  0
  151.5743  137.8368  155.2303 C   0  0  0  0  0  0  0  0  0  0  0  0
  150.7689  138.1922  153.9734 C   0  0  0  0  0  0  0  0  0  0  0  0
  149.6434  139.1840  154.3031 C   0  0  0  0  0  0  0  0  0  0  0  0
  150.1801  140.4644  154.9756 C   0  0  1  0  0  0  0  0  0  0  0  0
  149.0242  141.4325  155.2860 C   0  0  0  0  0  0  0  0  0  0  0  0
  152.9986  142.0719  160.0663 C   0  0  0  0  0  0  0  0  0  0  0  0
  153.3031  141.1168  159.3534 O   0  0  0  0  0  0  0  0  0  0  0  0
  153.3196  142.0725  161.3796 N   0  0  0  0  0  0  0  0  0  0  0  0
  153.8111  141.2722  161.7500 H   0  0  0  0  0  0  0  0  0  0  0  0
  154.1511  143.7008  163.9574 H   0  0  0  0  0  0  0  0  0  0  0  0
  153.9704  141.9518  163.7792 H   0  0  0  0  0  0  0  0  0  0  0  0
  152.6066  142.9278  164.3369 H   0  0  0  0  0  0  0  0  0  0  0  0
  150.2757  145.3234  159.7325 H   0  0  0  0  0  0  0  0  0  0  0  0
  151.8208  146.0681  159.2938 H   0  0  0  0  0  0  0  0  0  0  0  0
  151.1928  146.2333  160.9307 H   0  0  0  0  0  0  0  0  0  0  0  0
  151.3831  144.2849  157.9022 H   0  0  0  0  0  0  0  0  0  0  0  0
  152.8123  143.3924  157.5267 H   0  0  0  0  0  0  0  0  0  0  0  0
  152.6053  141.4646  156.5848 H   0  0  0  0  0  0  0  0  0  0  0  0
  150.3577  139.6426  156.9626 H   0  0  0  0  0  0  0  0  0  0  0  0
  152.8659  139.5635  155.2336 H   0  0  0  0  0  0  0  0  0  0  0  0
  152.6724  138.8271  156.8056 H   0  0  0  0  0  0  0  0  0  0  0  0
  152.3895  137.1608  154.9714 H   0  0  0  0  0  0  0  0  0  0  0  0
  150.9385  137.2999  155.9355 H   0  0  0  0  0  0  0  0  0  0  0  0
  151.4314  138.6257  153.2232 H   0  0  0  0  0  0  0  0  0  0  0  0
  150.3499  137.2878  153.5315 H   0  0  0  0  0  0  0  0  0  0  0  0
  149.1082  139.4403  153.3881 H   0  0  0  0  0  0  0  0  0  0  0  0
  148.9169  138.7013  154.9587 H   0  0  0  0  0  0  0  0  0  0  0  0
  150.8368  140.9599  154.2588 H   0  0  0  0  0  0  0  0  0  0  0  0
  148.3493  141.0143  156.0333 H   0  0  0  0  0  0  0  0  0  0  0  0
  148.4386  141.6440  154.3909 H   0  0  0  0  0  0  0  0  0  0  0  0
  149.3880  142.3877  155.6645 H   0  0  0  0  0  0  0  0  0  0  0  0
  1  2  1  0  0  0  0
  1 22  1  0  0  0  0
  1 23  1  0  0  0  0
  1 24  1  0  0  0  0
  2 20  1  0  0  0  0
  2  3  2  0  0  0  0
  3  4  1  0  0  0  0
  4  5  1  0  0  0  0
  4  6  2  0  0  0  0
  5 25  1  0  0  0  0
  5 26  1  0  0  0  0
  5 27  1  0  0  0  0
  6  7  1  0  0  0  0
  6 18  1  0  0  0  0
  7  8  1  0  0  0  0
  7 28  1  0  0  0  0
  7 29  1  0  0  0  0
  8  9  2  0  0  0  0
  8 10  1  0  0  0  0
 10 11  1  0  0  0  0
 10 30  1  0  0  0  0
 11 16  1  0  0  0  0
 11 12  1  0  0  0  0
 11 31  1  0  0  0  0
 12 13  1  0  0  0  0
 12 32  1  0  0  0  0
 12 33  1  0  0  0  0
 13 14  1  0  0  0  0
 13 34  1  0  0  0  0
 13 35  1  0  0  0  0
 14 15  1  0  0  0  0
 14 36  1  0  0  0  0
 14 37  1  0  0  0  0
 15 16  1  0  0  0  0
 15 38  1  0  0  0  0
 15 39  1  0  0  0  0
 16 17  1  0  0  0  0
 16 40  1  0  0  0  0
 17 41  1  0  0  0  0
 17 42  1  0  0  0  0
 17 43  1  0  0  0  0
 18 19  2  0  0  0  0
 18 20  1  0  0  0  0
 20 21  1  0  0  0  0
M  END
> <s_m_source_file>
AV-unprocessed.smi

> <i_m_source_file_index>
1295

> <i_lp_mmshare_version>
43012

> <i_f3d_flags>
0

> <s_epik_input>
W0NIM11jMW5jKFtDSDNdKWMoYyg9TylbbkhdMSlbQ0gyXUMoPU8pW05IXVtDQEBIXTJbQ0gyXVtDSDJdW0NIMl1bQ0gyXVtDQEhdMltDSDNd

> <s_epik_cmdline>
J2VwaWtfcHl0aG9uJywgJy1waCcsICc3LjAnLCAnLXRuJywgJzgnLCAnLW1hJywgJzIwMCcsICctbWV0YWxfYmluZGluZycsICctaW1hZScsICc8aW5maWxlLm1hZT4nLCAnLW9tYWUnLCAnPG91dGZpbGUubWFlPic=

> <r_lp_tautomer_probability>
0.839158

> <r_epik_Ionization_Penalty>
0.00037085

> <r_epik_Ionization_Penalty_Charging>
0.000336002

> <r_epik_Ionization_Penalty_Neutral>
3.48485e-05

> <r_epik_State_Penalty>
0.09125

> <r_epik_Charging_Adjusted_Penalty>
0.091586

> <i_epik_Tot_Q>
0

> <i_epik_Tot_abs_Q>
0

> <r_epik_Metal_State_Penalty>
0.251445

> <b_epik_Metal_Only>
0

> <s_lp_Force_Field>
OPLS_2005

> <r_lp_Energy>
11.9109

> <b_lp_Chiralities_Consistent>
1

> <s_lp_Variant>
AV-unprocessed.smi:1295-1

> <Gold.Version>
5.8.1

> <Gold.Id.Protein>
6NUR|6NUR_protein|mol2

> <Gold.PLP.Fitness>
44.4443

> <Gold.PLP.PLP>
-45.3669

> <Gold.PLP.part.hbond>
0.0000

> <Gold.PLP.part.metal>
0.0000

> <Gold.PLP.part.buried>
-4.0745

> <Gold.PLP.part.nonpolar>
-41.4979

> <Gold.PLP.part.repulsive>
0.4295

> <Gold.PLP.ligand.clash>
0.0000

> <Gold.PLP.ligand.torsion>
0.4637

> <Gold.PLP.Chemscore.Hbond>
0.0000

> <Gold.PLP.Chemscore.CHOScore>
0.0000

> <Gold.PLP.Chemscore.Metal>
0.0000

> <Gold.PLP.Chemscore.Internal.Correction>
0.0048

> <Gold.Rescore>
     Score         DG    S(hbond)    S(metal)    S(lipo)     H(rot)  DE(clash)    DE(int)     intcor
     12.40     -14.19       0.00        0.00     106.85       1.48       0.07       1.72       ----

> <Gold.Chemscore.Fitness>
12.3995

> <Gold.Chemscore.DG>
-14.1919

> <Gold.Chemscore.ZeroCoef>
-5.4800

> <Gold.Chemscore.Hbond>
0.0000

> <Gold.Chemscore.Metal>
0.0000

> <Gold.Chemscore.Lipo>
106.8468

> <Gold.Chemscore.Internal_Hbond>
0.0000

> <Gold.Chemscore.DEClash>
0.0679

> <Gold.Chemscore.DEInternal>
1.7245

> <Gold.Chemscore.Rot>
1.4801

> <Gold.Chemscore.Internal.Correction>
   9.000000E+99

> <Gold.Chemscore.Hbond.Weighted>
-0.0000

> <Gold.Chemscore.Metal.Weighted>
-0.0000

> <Gold.Chemscore.Lipo.Weighted>
-12.5011

> <Gold.Chemscore.Internal_Hbond.Weighted>
0.0000

> <Gold.Chemscore.DEClash.Weighted>
0.0679

> <Gold.Chemscore.DEInternal.Weighted>
1.7245

> <Gold.Chemscore.Rot.Weighted>
3.7891

> <Gold.Chemscore.Internal.Correction.Weighted>
   9.000000E+99

> <Gold.Protein.RotatedTorsions>
[ 6907 6896 6895 6894 ] final -105.92 input  -60.11 | X-H torsion
[ 7974 7965 7964 7962 ] final -142.12 input  175.53 | X-H torsion
[ 8008 7997 7996 7995 ] final -159.23 input   59.86 | X-H torsion
[ 10167 10162 10161 10158 ] final  -96.68 input  -65.29 | X-H torsion
[ 10718 10713 10712 10709 ] final  117.77 input   66.30 | X-H torsion
[ 10763 10752 10751 10750 ] final  -98.47 input  -60.55 | X-H torsion
[ 11005 11000 10999 10996 ] final  124.57 input  -57.11 | X-H torsion

> <Gold.Protein.ActiveResidues>
 VAL166  LYS551  ARG553  GLY616  TRP617  ASP618  TYR619  PRO620  LYS621  CYS622 
 ASP623  PHE694  ASN695  SER759  ASP760  ASP761  ALA762  ILE779  LEU786  VAL792 
 PHE793  MET794  SER795  GLU796  ALA797  LYS798  CYS799  TRP800  GLU811  SER814 

> <Gold.Protein.RotatedAtoms>
  150.7361  134.0055  159.3651 H   0  0  0  0  0  0  0  0  0  0  0  0  # atno 6907 bound_to 6896
  151.8011  135.0706  160.0410 H   0  0  0  0  0  0  0  0  0  0  0  0  # atno 6908 bound_to 6896
  152.3140  133.5746  159.5736 H   0  0  0  0  0  0  0  0  0  0  0  0  # atno 6909 bound_to 6896
  144.8468  140.5997  143.5416 H   0  0  0  0  0  0  0  0  0  0  0  0  # atno 7974 bound_to 7965
  155.7594  140.0837  157.2162 H   0  0  0  0  0  0  0  0  0  0  0  0  # atno 8008 bound_to 7997
  154.4005  140.1545  156.2872 H   0  0  0  0  0  0  0  0  0  0  0  0  # atno 8009 bound_to 7997
  155.8854  140.3418  155.5920 H   0  0  0  0  0  0  0  0  0  0  0  0  # atno 8010 bound_to 7997
  140.2913  143.3219  152.0342 H   0  0  0  0  0  0  0  0  0  0  0  0  # atno 10167 bound_to 10162
  157.6074  131.1041  150.7662 H   0  0  0  0  0  0  0  0  0  0  0  0  # atno 10718 bound_to 10713
  154.7417  135.5008  153.9134 H   0  0  0  0  0  0  0  0  0  0  0  0  # atno 10763 bound_to 10752
  153.1050  135.6695  153.9611 H   0  0  0  0  0  0  0  0  0  0  0  0  # atno 10764 bound_to 10752
  153.9386  135.3070  155.3422 H   0  0  0  0  0  0  0  0  0  0  0  0  # atno 10765 bound_to 10752
  139.9365  134.9639  156.8428 H   0  0  0  0  0  0  0  0  0  0  0  0  # atno 11005 bound_to 11000
  145.4581  139.1516  143.3881 LP  0  0  0  0  0  0  0  0  0  0  0  0  # atno 17320 bound_to 7965
  146.2751  140.4710  142.8799 LP  0  0  0  0  0  0  0  0  0  0  0  0  # atno 17321 bound_to 7965
  139.4937  144.6522  151.6650 LP  0  0  0  0  0  0  0  0  0  0  0  0  # atno 17342 bound_to 10162
  140.5729  144.0077  150.6226 LP  0  0  0  0  0  0  0  0  0  0  0  0  # atno 17343 bound_to 10162
  156.8047  130.4932  149.5364 LP  0  0  0  0  0  0  0  0  0  0  0  0  # atno 17370 bound_to 10713
  156.1165  130.6079  151.0129 LP  0  0  0  0  0  0  0  0  0  0  0  0  # atno 17371 bound_to 10713
  140.6063  134.0124  155.7558 LP  0  0  0  0  0  0  0  0  0  0  0  0  # atno 17394 bound_to 11000
  141.0980  133.9812  157.3127 LP  0  0  0  0  0  0  0  0  0  0  0  0  # atno 17395 bound_to 11000

$$$$
