AV-unprocessed.smi:2556|AV-procd|sdf|10025|dock2
  -GOLD-   2272014 73D 1   1.00000     0.00000
 Structure written by MMmdl.
 34 36  0  0  0  0  0  0  0  0  2 V2000
  150.4877  135.7071  154.8386 C   0  0  0  0  0  0  0  0  0  0  0  0
  151.0187  136.8504  155.5864 N   0  0  0  0  0  0  0  0  0  0  0  0
  151.9434  136.6727  156.5826 C   0  0  0  0  0  0  0  0  0  0  0  0
  152.3163  135.5264  156.8362 O   0  0  0  0  0  0  0  0  0  0  0  0
  152.4295  137.7643  157.2702 N   0  5  0  0  0  0  0  0  0  0  0  0
  152.0770  139.0722  157.0596 C   0  0  0  0  0  0  0  0  0  0  0  0
  152.5041  140.0565  157.6598 O   0  0  0  0  0  0  0  0  0  0  0  0
  151.0754  139.2100  155.9807 C   0  0  0  0  0  0  0  0  0  0  0  0
  150.5674  138.1621  155.2735 C   0  0  0  0  0  0  0  0  0  0  0  0
  149.6494  138.5893  154.3197 N   0  0  0  0  0  0  0  0  0  0  0  0
  149.6514  139.9088  154.5045 C   0  0  0  0  0  0  0  0  0  0  0  0
  150.4726  140.3626  155.4726 N   0  0  0  0  0  0  0  0  0  0  0  0
  150.6484  141.7572  155.8525 C   0  0  0  0  0  0  0  0  0  0  0  0
  150.0047  142.0912  157.2141 C   0  0  2  0  0  0  0  0  0  0  0  0
  148.6416  142.4319  157.0505 O   0  0  0  0  0  0  0  0  0  0  0  0
  150.7810  143.1800  157.9378 C   0  0  0  0  0  0  0  0  0  0  0  0
  150.3384  143.6518  159.1924 C   0  0  0  0  0  0  0  0  0  0  0  0
  151.0587  144.6574  159.8665 C   0  0  0  0  0  0  0  0  0  0  0  0
  152.2260  145.1952  159.2911 C   0  0  0  0  0  0  0  0  0  0  0  0
  152.6744  144.7256  158.0417 C   0  0  0  0  0  0  0  0  0  0  0  0
  151.9550  143.7199  157.3675 C   0  0  0  0  0  0  0  0  0  0  0  0
  151.2931  135.1767  154.3290 H   0  0  0  0  0  0  0  0  0  0  0  0
  149.7607  136.0001  154.0819 H   0  0  0  0  0  0  0  0  0  0  0  0
  149.9917  135.0075  155.5125 H   0  0  0  0  0  0  0  0  0  0  0  0
  149.0351  140.5699  153.9135 H   0  0  0  0  0  0  0  0  0  0  0  0
  151.7194  141.9600  155.8965 H   0  0  0  0  0  0  0  0  0  0  0  0
  150.2611  142.4017  155.0652 H   0  0  0  0  0  0  0  0  0  0  0  0
  150.0213  141.1925  157.8322 H   0  0  0  0  0  0  0  0  0  0  0  0
  148.5746  143.0890  156.3752 H   0  0  0  0  0  0  0  0  0  0  0  0
  149.4455  143.2442  159.6435 H   0  0  0  0  0  0  0  0  0  0  0  0
  150.7160  145.0157  160.8259 H   0  0  0  0  0  0  0  0  0  0  0  0
  152.7780  145.9659  159.8085 H   0  0  0  0  0  0  0  0  0  0  0  0
  153.5709  145.1352  157.5999 H   0  0  0  0  0  0  0  0  0  0  0  0
  152.3078  143.3615  156.4111 H   0  0  0  0  0  0  0  0  0  0  0  0
  1  2  1  0  0  0  0
  1 22  1  0  0  0  0
  1 23  1  0  0  0  0
  1 24  1  0  0  0  0
  2  9  1  0  0  0  0
  2  3  1  0  0  0  0
  3  4  2  0  0  0  0
  3  5  1  0  0  0  0
  5  6  1  0  0  0  0
  6  7  2  0  0  0  0
  6  8  1  0  0  0  0
  8 12  1  0  0  0  0
  8  9  2  0  0  0  0
  9 10  1  0  0  0  0
 10 11  2  0  0  0  0
 11 12  1  0  0  0  0
 11 25  1  0  0  0  0
 12 13  1  0  0  0  0
 13 14  1  0  0  0  0
 13 26  1  0  0  0  0
 13 27  1  0  0  0  0
 14 15  1  0  0  0  0
 14 16  1  0  0  0  0
 14 28  1  0  0  0  0
 15 29  1  0  0  0  0
 16 21  1  0  0  0  0
 16 17  2  0  0  0  0
 17 18  1  0  0  0  0
 17 30  1  0  0  0  0
 18 19  2  0  0  0  0
 18 31  1  0  0  0  0
 19 20  1  0  0  0  0
 19 32  1  0  0  0  0
 20 21  2  0  0  0  0
 20 33  1  0  0  0  0
 21 34  1  0  0  0  0
M  CHG  1   5  -1
M  END
> <s_m_source_file>
AV-unprocessed.smi

> <i_m_source_file_index>
2556

> <i_lp_mmshare_version>
43012

> <i_f3d_flags>
0

> <s_epik_input>
Tz1jMVtuSF1jKD1PKW4oW0NIM10pYyhjMTIpbltjSF1uMltDSDJdW0NASF0oW09IXSljM1tjSF1bY0hdW2NIXVtjSF1bY0hdMw==

> <s_epik_cmdline>
J2VwaWtfcHl0aG9uJywgJy1waCcsICc3LjAnLCAnLXRuJywgJzgnLCAnLW1hJywgJzIwMCcsICctbWV0YWxfYmluZGluZycsICctaW1hZScsICc8aW5maWxlLm1hZT4nLCAnLW9tYWUnLCAnPG91dGZpbGUubWFlPic=

> <r_lp_tautomer_probability>
1

> <r_epik_Ionization_Penalty>
4.84872

> <r_epik_Ionization_Penalty_Charging>
0.03865

> <r_epik_Ionization_Penalty_Neutral>
4.81007

> <r_epik_State_Penalty>
4.80988

> <r_epik_Charging_Adjusted_Penalty>
4.84853

> <i_epik_Tot_Q>
-1

> <i_epik_Tot_abs_Q>
1

> <r_epik_Metal_State_Penalty>
0.994041

> <b_epik_Metal_Only>
1

> <s_lp_Force_Field>
OPLS_2005

> <r_lp_Energy>
33.4055

> <b_lp_Chiralities_Consistent>
1

> <s_lp_Variant>
AV-unprocessed.smi:2556-3

> <Gold.Version>
5.8.1

> <Gold.Id.Protein>
6NUR|6NUR_protein|mol2

> <Gold.PLP.Fitness>
46.3692

> <Gold.PLP.PLP>
-38.5532

> <Gold.PLP.part.hbond>
-3.0000

> <Gold.PLP.part.metal>
0.0000

> <Gold.PLP.part.buried>
-3.4664

> <Gold.PLP.part.nonpolar>
-32.1209

> <Gold.PLP.part.repulsive>
0.2127

> <Gold.PLP.ligand.clash>
0.0000

> <Gold.PLP.ligand.torsion>
0.5366

> <Gold.PLP.Chemscore.Hbond>
2.8500

> <Gold.PLP.Chemscore.CHOScore>
0.1019

> <Gold.PLP.Chemscore.Metal>
0.0000

> <Gold.Chemscore.Hbonds>
donor molecule, donor type, donor heavy atom, donor atom, acceptor molecule, acceptor atom, score
      L1  H    15    29       P1  8028  1.00
      P1  H  7997  8010       L1     7  0.70
      P1  H 10752 10763       L1     4  0.85
      L1  C    11    25       P1  7957  0.10

> <Gold.PLP.Chemscore.Internal.Correction>
0.0335

> <Gold.Rescore>
     Score         DG    S(hbond)    S(metal)    S(lipo)     H(rot)  DE(clash)    DE(int)     intcor
     14.74     -16.38       1.64        0.00      96.42       2.28       1.08       0.56       ----

> <Gold.Chemscore.Fitness>
14.7380

> <Gold.Chemscore.DG>
-16.3821

> <Gold.Chemscore.ZeroCoef>
-5.4800

> <Gold.Chemscore.Hbond>
1.6360

> <Gold.Chemscore.Metal>
0.0000

> <Gold.Chemscore.Lipo>
96.4175

> <Gold.Chemscore.Internal_Hbond>
0.0000

> <Gold.Chemscore.DEClash>
1.0793

> <Gold.Chemscore.DEInternal>
0.5647

> <Gold.Chemscore.Rot>
2.2824

> <Gold.Chemscore.Internal.Correction>
   9.000000E+99

> <Gold.Chemscore.Hbonds>
donor molecule, donor type, donor heavy atom, donor atom, acceptor molecule, acceptor atom, score
      L1  H    15    29       P1  8028  0.88
      P1  H  7997  8010       L1     7  0.13
      P1  H 10752 10763       L1     4  0.14

> <Gold.Chemscore.Hbond.Weighted>
-5.4643

> <Gold.Chemscore.Metal.Weighted>
-0.0000

> <Gold.Chemscore.Lipo.Weighted>
-11.2808

> <Gold.Chemscore.Internal_Hbond.Weighted>
0.0000

> <Gold.Chemscore.DEClash.Weighted>
1.0793

> <Gold.Chemscore.DEInternal.Weighted>
0.5647

> <Gold.Chemscore.Rot.Weighted>
5.8431

> <Gold.Chemscore.Internal.Correction.Weighted>
   9.000000E+99

> <Gold.Protein.RotatedTorsions>
[ 6907 6896 6895 6894 ] final  159.50 input  -60.11 | X-H torsion
[ 7974 7965 7964 7962 ] final  118.92 input  175.53 | X-H torsion
[ 8008 7997 7996 7995 ] final   46.26 input   59.86 | X-H torsion
[ 10167 10162 10161 10158 ] final  114.72 input  -65.29 | X-H torsion
[ 10718 10713 10712 10709 ] final   19.61 input   66.30 | X-H torsion
[ 10763 10752 10751 10750 ] final  120.73 input  -60.55 | X-H torsion
[ 11005 11000 10999 10996 ] final -115.39 input  -57.11 | X-H torsion

> <Gold.Protein.ActiveResidues>
 VAL166  LYS551  ARG553  GLY616  TRP617  ASP618  TYR619  PRO620  LYS621  CYS622 
 ASP623  PHE694  ASN695  SER759  ASP760  ASP761  ALA762  ILE779  LEU786  VAL792 
 PHE793  MET794  SER795  GLU796  ALA797  LYS798  CYS799  TRP800  GLU811  SER814 

> <Gold.Protein.RotatedAtoms>
  151.9846  133.3769  159.4120 H   0  0  0  0  0  0  0  0  0  0  0  0  # atno 6907 bound_to 6896
  150.6930  134.4002  159.5125 H   0  0  0  0  0  0  0  0  0  0  0  0  # atno 6908 bound_to 6896
  152.1726  134.8821  160.0584 H   0  0  0  0  0  0  0  0  0  0  0  0  # atno 6909 bound_to 6896
  145.1493  139.3220  143.4575 H   0  0  0  0  0  0  0  0  0  0  0  0  # atno 7974 bound_to 7965
  155.3495  140.3412  155.4239 H   0  0  0  0  0  0  0  0  0  0  0  0  # atno 8008 bound_to 7997
  156.1771  140.1651  156.8377 H   0  0  0  0  0  0  0  0  0  0  0  0  # atno 8009 bound_to 7997
  154.5294  140.0749  156.8300 H   0  0  0  0  0  0  0  0  0  0  0  0  # atno 8010 bound_to 7997
  139.6368  144.7120  151.2318 H   0  0  0  0  0  0  0  0  0  0  0  0  # atno 10167 bound_to 10162
  157.1129  130.6516  149.5902 H   0  0  0  0  0  0  0  0  0  0  0  0  # atno 10718 bound_to 10713
  153.6031  135.3444  155.2952 H   0  0  0  0  0  0  0  0  0  0  0  0  # atno 10763 bound_to 10752
  154.8632  135.4232  154.2391 H   0  0  0  0  0  0  0  0  0  0  0  0  # atno 10764 bound_to 10752
  153.3224  135.7039  153.7090 H   0  0  0  0  0  0  0  0  0  0  0  0  # atno 10765 bound_to 10752
  141.0491  133.9716  157.2867 H   0  0  0  0  0  0  0  0  0  0  0  0  # atno 11005 bound_to 11000
  146.3496  140.1561  142.8591 LP  0  0  0  0  0  0  0  0  0  0  0  0  # atno 17320 bound_to 7965
  145.0447  140.8973  143.5031 LP  0  0  0  0  0  0  0  0  0  0  0  0  # atno 17321 bound_to 7965
  140.7469  143.6382  150.8359 LP  0  0  0  0  0  0  0  0  0  0  0  0  # atno 17342 bound_to 10162
  140.0014  143.5740  152.2874 LP  0  0  0  0  0  0  0  0  0  0  0  0  # atno 17343 bound_to 10162
  155.9846  130.4872  150.6991 LP  0  0  0  0  0  0  0  0  0  0  0  0  # atno 17370 bound_to 10713
  157.4543  131.0876  151.0813 LP  0  0  0  0  0  0  0  0  0  0  0  0  # atno 17371 bound_to 10713
  139.9336  135.0198  156.8481 LP  0  0  0  0  0  0  0  0  0  0  0  0  # atno 17394 bound_to 11000
  140.6090  134.0100  155.7569 LP  0  0  0  0  0  0  0  0  0  0  0  0  # atno 17395 bound_to 11000

$$$$
