AV-unprocessed.smi:3131|AV-procd|sdf|11928|dock5
  -GOLD-   2272017313D 1   1.00000     0.00000
 Structure written by MMmdl.
 43 43  0  0  0  0  0  0  0  0  2 V2000
  152.5839  142.8063  161.0214 C   0  0  0  0  0  0  0  0  0  0  0  0
  153.0284  142.2898  159.6447 C   0  0  0  0  0  0  0  0  0  0  0  0
  152.2912  142.9368  158.4479 C   0  0  0  0  0  0  0  0  0  0  0  0
  152.4065  144.4807  158.4925 C   0  0  0  0  0  0  0  0  0  0  0  0
  151.4599  145.1550  159.4967 C   0  0  0  0  0  0  0  0  0  0  0  0
  150.8109  142.4961  158.3995 C   0  0  0  0  0  0  0  0  0  0  0  0
  150.2413  142.6445  157.0455 N   0  3  0  0  0  0  0  0  0  0  0  0
  149.1873  141.6628  156.7134 C   0  0  0  0  0  0  0  0  0  0  0  0
  149.2745  141.2086  155.2402 C   0  0  2  0  0  0  0  0  0  0  0  0
  150.6327  140.5438  154.9598 C   0  0  0  0  0  0  0  0  0  0  0  0
  149.2367  142.3731  154.4353 O   0  0  0  0  0  0  0  0  0  0  0  0
  148.1517  140.2506  154.9019 C   0  0  0  0  0  0  0  0  0  0  0  0
  147.1463  139.7451  155.7779 C   0  0  0  0  0  0  0  0  0  0  0  0
  146.2918  138.9362  155.1753 N   0  0  0  0  0  0  0  0  0  0  0  0
  146.7222  138.8852  153.8990 N   0  0  0  0  0  0  0  0  0  0  0  0
  146.0091  138.0708  152.9385 C   0  0  0  0  0  0  0  0  0  0  0  0
  147.8413  139.6652  153.7045 C   0  0  0  0  0  0  0  0  0  0  0  0
  153.0692  142.2396  161.8163 H   0  0  0  0  0  0  0  0  0  0  0  0
  151.5066  142.7018  161.1534 H   0  0  0  0  0  0  0  0  0  0  0  0
  152.8437  143.8536  161.1711 H   0  0  0  0  0  0  0  0  0  0  0  0
  154.1050  142.4242  159.5340 H   0  0  0  0  0  0  0  0  0  0  0  0
  152.8625  141.2135  159.6411 H   0  0  0  0  0  0  0  0  0  0  0  0
  152.7718  142.5905  157.5313 H   0  0  0  0  0  0  0  0  0  0  0  0
  153.4205  144.7707  158.7684 H   0  0  0  0  0  0  0  0  0  0  0  0
  152.2418  144.8950  157.4971 H   0  0  0  0  0  0  0  0  0  0  0  0
  151.6492  146.2277  159.5411 H   0  0  0  0  0  0  0  0  0  0  0  0
  151.6010  144.7549  160.5012 H   0  0  0  0  0  0  0  0  0  0  0  0
  150.4127  145.0245  159.2262 H   0  0  0  0  0  0  0  0  0  0  0  0
  150.7099  141.4487  158.6809 H   0  0  0  0  0  0  0  0  0  0  0  0
  150.2208  143.0756  159.1110 H   0  0  0  0  0  0  0  0  0  0  0  0
  149.8434  143.5699  156.9698 H   0  0  0  0  0  0  0  0  0  0  0  0
  149.2649  140.8080  157.3869 H   0  0  0  0  0  0  0  0  0  0  0  0
  148.2149  142.1215  156.8994 H   0  0  0  0  0  0  0  0  0  0  0  0
  150.7670  139.6442  155.5614 H   0  0  0  0  0  0  0  0  0  0  0  0
  151.4616  141.2151  155.1882 H   0  0  0  0  0  0  0  0  0  0  0  0
  150.7233  140.2535  153.9121 H   0  0  0  0  0  0  0  0  0  0  0  0
  149.1597  143.1289  154.9981 H   0  0  0  0  0  0  0  0  0  0  0  0
  147.0101  139.9489  156.8298 H   0  0  0  0  0  0  0  0  0  0  0  0
  146.4540  138.1824  151.9493 H   0  0  0  0  0  0  0  0  0  0  0  0
  144.9644  138.3803  152.8940 H   0  0  0  0  0  0  0  0  0  0  0  0
  146.0603  137.0224  153.2339 H   0  0  0  0  0  0  0  0  0  0  0  0
  148.3186  139.7415  152.7384 H   0  0  0  0  0  0  0  0  0  0  0  0
  150.9833  142.5592  156.3654 H   0  0  0  0  0  0  0  0  0  0  0  0
  1  2  1  0  0  0  0
  1 18  1  0  0  0  0
  1 19  1  0  0  0  0
  1 20  1  0  0  0  0
  2  3  1  0  0  0  0
  2 21  1  0  0  0  0
  2 22  1  0  0  0  0
  3  4  1  0  0  0  0
  3  6  1  0  0  0  0
  3 23  1  0  0  0  0
  4  5  1  0  0  0  0
  4 24  1  0  0  0  0
  4 25  1  0  0  0  0
  5 26  1  0  0  0  0
  5 27  1  0  0  0  0
  5 28  1  0  0  0  0
  6  7  1  0  0  0  0
  6 29  1  0  0  0  0
  6 30  1  0  0  0  0
  7  8  1  0  0  0  0
  7 31  1  0  0  0  0
  7 43  1  0  0  0  0
  8  9  1  0  0  0  0
  8 32  1  0  0  0  0
  8 33  1  0  0  0  0
  9 10  1  0  0  0  0
  9 11  1  0  0  0  0
  9 12  1  0  0  0  0
 10 34  1  0  0  0  0
 10 35  1  0  0  0  0
 10 36  1  0  0  0  0
 11 37  1  0  0  0  0
 12 17  2  0  0  0  0
 12 13  1  0  0  0  0
 13 14  2  0  0  0  0
 13 38  1  0  0  0  0
 14 15  1  0  0  0  0
 15 16  1  0  0  0  0
 15 17  1  0  0  0  0
 16 39  1  0  0  0  0
 16 40  1  0  0  0  0
 16 41  1  0  0  0  0
 17 42  1  0  0  0  0
M  CHG  1   7   1
M  END
> <s_m_source_file>
AV-unprocessed.smi

> <i_m_source_file_index>
3131

> <i_lp_mmshare_version>
43012

> <i_f3d_flags>
0

> <s_epik_input>
W0NIM11bQ0gyXVtDSF0oW0NIMl1bQ0gzXSlbQ0gyXVtOSF1bQ0gyXVtDQEBdKFtDSDNdKShbT0hdKWMxW2NIXW5uKFtDSDNdKVtjSF0x

> <s_epik_cmdline>
J2VwaWtfcHl0aG9uJywgJy1waCcsICc3LjAnLCAnLXRuJywgJzgnLCAnLW1hJywgJzIwMCcsICctbWV0YWxfYmluZGluZycsICctaW1hZScsICc8aW5maWxlLm1hZT4nLCAnLW9tYWUnLCAnPG91dGZpbGUubWFlPic=

> <r_lp_tautomer_probability>
1

> <r_epik_Ionization_Penalty>
0.00304809

> <r_epik_Ionization_Penalty_Charging>
0.00302982

> <r_epik_Ionization_Penalty_Neutral>
1.82731e-05

> <r_epik_State_Penalty>
0.00212874

> <r_epik_Charging_Adjusted_Penalty>
0.00515857

> <i_epik_Tot_Q>
1

> <i_epik_Tot_abs_Q>
1

> <r_epik_Metal_State_Penalty>
-0

> <b_epik_Metal_Only>
0

> <s_lp_Force_Field>
OPLS_2005

> <r_lp_Energy>
9.85369

> <b_lp_Chiralities_Consistent>
1

> <s_lp_Variant>
AV-unprocessed.smi:3131-2

> <Gold.Version>
5.8.1

> <Gold.Id.Protein>
6NUR|6NUR_protein|mol2

> <Gold.PLP.Fitness>
45.6832

> <Gold.PLP.PLP>
-34.3869

> <Gold.PLP.part.hbond>
-3.8409

> <Gold.PLP.part.metal>
0.0000

> <Gold.PLP.part.buried>
-1.4599

> <Gold.PLP.part.nonpolar>
-29.1133

> <Gold.PLP.part.repulsive>
0.0625

> <Gold.PLP.ligand.clash>
0.0000

> <Gold.PLP.ligand.torsion>
0.8248

> <Gold.PLP.Chemscore.Hbond>
3.2357

> <Gold.PLP.Chemscore.CHOScore>
1.0000

> <Gold.PLP.Chemscore.Metal>
0.0000

> <Gold.Chemscore.Hbonds>
donor molecule, donor type, donor heavy atom, donor atom, acceptor molecule, acceptor atom, score
      L1  H     7    31       P1  8028  1.66
      L1  H    11    37       P1  8028  1.00
      P1  H  8011  8017       L1    11  0.12
      L1  C    17    42       P1  7957  1.00

> <Gold.PLP.Chemscore.Internal.Correction>
0.2388

> <Gold.Rescore>
     Score         DG    S(hbond)    S(metal)    S(lipo)     H(rot)  DE(clash)    DE(int)     intcor
     16.38     -18.39       2.10        0.00     101.78       2.34       0.42       1.59       ----

> <Gold.Chemscore.Fitness>
16.3845

> <Gold.Chemscore.DG>
-18.3936

> <Gold.Chemscore.ZeroCoef>
-5.4800

> <Gold.Chemscore.Hbond>
2.0965

> <Gold.Chemscore.Metal>
0.0000

> <Gold.Chemscore.Lipo>
101.7833

> <Gold.Chemscore.Internal_Hbond>
0.0000

> <Gold.Chemscore.DEClash>
0.4172

> <Gold.Chemscore.DEInternal>
1.5919

> <Gold.Chemscore.Rot>
2.3426

> <Gold.Chemscore.Internal.Correction>
   9.000000E+99

> <Gold.Chemscore.Hbonds>
donor molecule, donor type, donor heavy atom, donor atom, acceptor molecule, acceptor atom, score
      L1  H     7    31       P1  8028  0.78
      L1  H    11    37       P1  8028  1.00
      P1  H  8011  8017       L1    11  0.11

> <Gold.Chemscore.Hbond.Weighted>
-7.0021

> <Gold.Chemscore.Metal.Weighted>
-0.0000

> <Gold.Chemscore.Lipo.Weighted>
-11.9086

> <Gold.Chemscore.Internal_Hbond.Weighted>
0.0000

> <Gold.Chemscore.DEClash.Weighted>
0.4172

> <Gold.Chemscore.DEInternal.Weighted>
1.5919

> <Gold.Chemscore.Rot.Weighted>
5.9972

> <Gold.Chemscore.Internal.Correction.Weighted>
   9.000000E+99

> <Gold.Protein.RotatedTorsions>
[ 6907 6896 6895 6894 ] final   45.13 input  -60.11 | X-H torsion
[ 7974 7965 7964 7962 ] final  -48.50 input  175.53 | X-H torsion
[ 8008 7997 7996 7995 ] final   -4.23 input   59.86 | X-H torsion
[ 10167 10162 10161 10158 ] final -175.57 input  -65.29 | X-H torsion
[ 10718 10713 10712 10709 ] final  148.97 input   66.30 | X-H torsion
[ 10763 10752 10751 10750 ] final  141.52 input  -60.55 | X-H torsion
[ 11005 11000 10999 10996 ] final  -93.54 input  -57.11 | X-H torsion

> <Gold.Protein.ActiveResidues>
 VAL166  LYS551  ARG553  GLY616  TRP617  ASP618  TYR619  PRO620  LYS621  CYS622 
 ASP623  PHE694  ASN695  SER759  ASP760  ASP761  ALA762  ILE779  LEU786  VAL792 
 PHE793  MET794  SER795  GLU796  ALA797  LYS798  CYS799  TRP800  GLU811  SER814 

> <Gold.Protein.RotatedAtoms>
  152.2409  134.8230  160.0460 H   0  0  0  0  0  0  0  0  0  0  0  0  # atno 6907 bound_to 6896
  151.8945  133.3518  159.3817 H   0  0  0  0  0  0  0  0  0  0  0  0  # atno 6908 bound_to 6896
  150.7053  134.4817  159.5517 H   0  0  0  0  0  0  0  0  0  0  0  0  # atno 6909 bound_to 6896
  145.9505  140.7577  142.9507 H   0  0  0  0  0  0  0  0  0  0  0  0  # atno 7974 bound_to 7965
  154.6165  140.2489  155.7603 H   0  0  0  0  0  0  0  0  0  0  0  0  # atno 8008 bound_to 7997
  156.2401  140.2935  156.0371 H   0  0  0  0  0  0  0  0  0  0  0  0  # atno 8009 bound_to 7997
  155.1967  140.0393  157.2900 H   0  0  0  0  0  0  0  0  0  0  0  0  # atno 8010 bound_to 7997
  139.5574  144.1955  152.1182 H   0  0  0  0  0  0  0  0  0  0  0  0  # atno 10167 bound_to 10162
  157.3019  131.0872  151.1383 H   0  0  0  0  0  0  0  0  0  0  0  0  # atno 10718 bound_to 10713
  153.9407  135.2980  155.3443 H   0  0  0  0  0  0  0  0  0  0  0  0  # atno 10763 bound_to 10752
  154.7479  135.4994  153.9239 H   0  0  0  0  0  0  0  0  0  0  0  0  # atno 10764 bound_to 10752
  153.1044  135.6743  153.9720 H   0  0  0  0  0  0  0  0  0  0  0  0  # atno 10765 bound_to 10752
  141.1494  133.7895  157.0174 H   0  0  0  0  0  0  0  0  0  0  0  0  # atno 11005 bound_to 11000
  144.6795  140.2427  143.7342 LP  0  0  0  0  0  0  0  0  0  0  0  0  # atno 17320 bound_to 7965
  145.8178  139.2030  143.1956 LP  0  0  0  0  0  0  0  0  0  0  0  0  # atno 17321 bound_to 7965
  140.1462  144.5157  150.6714 LP  0  0  0  0  0  0  0  0  0  0  0  0  # atno 17342 bound_to 10162
  140.6849  143.2345  151.5287 LP  0  0  0  0  0  0  0  0  0  0  0  0  # atno 17343 bound_to 10162
  157.2739  130.6717  149.6033 LP  0  0  0  0  0  0  0  0  0  0  0  0  # atno 17370 bound_to 10713
  155.9672  130.4470  150.5565 LP  0  0  0  0  0  0  0  0  0  0  0  0  # atno 17371 bound_to 10713
  140.0838  134.9633  157.1667 LP  0  0  0  0  0  0  0  0  0  0  0  0  # atno 17394 bound_to 11000
  140.3540  134.2567  155.7195 LP  0  0  0  0  0  0  0  0  0  0  0  0  # atno 17395 bound_to 11000

$$$$
