AV-unprocessed.smi:2892|AV-procd|sdf|11121|dock1
  -GOLD-   2272015593D 1   1.00000     0.00000
 Structure written by MMmdl.
 42 42  0  0  0  0  0  0  0  0  2 V2000
  147.2881  140.5863  156.5722 C   0  0  0  0  0  0  0  0  0  0  0  0
  148.3213  139.5163  156.9543 C   0  0  0  0  0  0  0  0  0  0  0  0
  147.9211  138.6410  158.1719 C   0  0  1  0  0  0  0  0  0  0  0  0
  146.5416  137.9850  157.9314 C   0  0  0  0  0  0  0  0  0  0  0  0
  149.0213  137.5862  158.5054 C   0  0  1  0  0  0  0  0  0  0  0  0
  150.2517  138.2752  158.8912 N   0  0  0  0  0  0  0  0  0  0  0  0
  151.4300  138.2176  158.2496 C   0  0  0  0  0  0  0  0  0  0  0  0
  151.6302  137.5268  157.2509 O   0  0  0  0  0  0  0  0  0  0  0  0
  152.5586  139.0799  158.8215 C   0  0  0  0  0  0  0  0  0  0  0  0
  152.2670  140.5434  158.6098 C   0  0  0  0  0  0  0  0  0  0  0  0
  151.4457  141.1384  157.6097 C   0  0  0  0  0  0  0  0  0  0  0  0
  151.5549  142.4783  157.8469 C   0  0  0  0  0  0  0  0  0  0  0  0
  152.3880  142.6383  158.9338 N   0  0  0  0  0  0  0  0  0  0  0  0
  152.8285  143.8780  159.5556 C   0  0  0  0  0  0  0  0  0  0  0  0
  152.5779  143.8520  161.0719 C   0  0  0  0  0  0  0  0  0  0  0  0
  152.1810  145.1015  158.8862 C   0  0  0  0  0  0  0  0  0  0  0  0
  152.8204  141.4479  159.4051 N   0  0  0  0  0  0  0  0  0  0  0  0
  148.6111  136.6856  159.6835 C   0  0  0  0  0  0  0  0  0  0  0  0
  148.7011  135.4502  159.5129 O   0  0  0  0  0  0  0  0  0  0  0  0
  148.2139  137.2435  160.7315 O   0  5  0  0  0  0  0  0  0  0  0  0
  147.6734  141.2228  155.7759 H   0  0  0  0  0  0  0  0  0  0  0  0
  147.0519  141.2272  157.4217 H   0  0  0  0  0  0  0  0  0  0  0  0
  146.3597  140.1475  156.2091 H   0  0  0  0  0  0  0  0  0  0  0  0
  148.5242  138.8792  156.0926 H   0  0  0  0  0  0  0  0  0  0  0  0
  149.2534  140.0435  157.1564 H   0  0  0  0  0  0  0  0  0  0  0  0
  147.8217  139.3056  159.0319 H   0  0  0  0  0  0  0  0  0  0  0  0
  146.5741  137.3012  157.0827 H   0  0  0  0  0  0  0  0  0  0  0  0
  145.7691  138.7260  157.7313 H   0  0  0  0  0  0  0  0  0  0  0  0
  146.1969  137.4199  158.7971 H   0  0  0  0  0  0  0  0  0  0  0  0
  149.1884  136.9616  157.6257 H   0  0  0  0  0  0  0  0  0  0  0  0
  150.1949  138.8527  159.7172 H   0  0  0  0  0  0  0  0  0  0  0  0
  152.6639  138.8606  159.8844 H   0  0  0  0  0  0  0  0  0  0  0  0
  153.5038  138.8055  158.3510 H   0  0  0  0  0  0  0  0  0  0  0  0
  150.8762  140.6549  156.8300 H   0  0  0  0  0  0  0  0  0  0  0  0
  151.1162  143.3219  157.3345 H   0  0  0  0  0  0  0  0  0  0  0  0
  153.9060  143.9488  159.3995 H   0  0  0  0  0  0  0  0  0  0  0  0
  152.9666  144.7519  161.5489 H   0  0  0  0  0  0  0  0  0  0  0  0
  153.0692  142.9955  161.5340 H   0  0  0  0  0  0  0  0  0  0  0  0
  151.5137  143.7886  161.3017 H   0  0  0  0  0  0  0  0  0  0  0  0
  152.5766  146.0284  159.3023 H   0  0  0  0  0  0  0  0  0  0  0  0
  151.0997  145.1123  159.0271 H   0  0  0  0  0  0  0  0  0  0  0  0
  152.3786  145.1113  157.8140 H   0  0  0  0  0  0  0  0  0  0  0  0
  1  2  1  0  0  0  0
  1 21  1  0  0  0  0
  1 22  1  0  0  0  0
  1 23  1  0  0  0  0
  2  3  1  0  0  0  0
  2 24  1  0  0  0  0
  2 25  1  0  0  0  0
  3  4  1  0  0  0  0
  3  5  1  0  0  0  0
  3 26  1  0  0  0  0
  4 27  1  0  0  0  0
  4 28  1  0  0  0  0
  4 29  1  0  0  0  0
  5  6  1  0  0  0  0
  5 18  1  0  0  0  0
  5 30  1  0  0  0  0
  6  7  1  0  0  0  0
  6 31  1  0  0  0  0
  7  8  2  0  0  0  0
  7  9  1  0  0  0  0
  9 10  1  0  0  0  0
  9 32  1  0  0  0  0
  9 33  1  0  0  0  0
 10 17  2  0  0  0  0
 10 11  1  0  0  0  0
 11 12  2  0  0  0  0
 11 34  1  0  0  0  0
 12 13  1  0  0  0  0
 12 35  1  0  0  0  0
 13 14  1  0  0  0  0
 13 17  1  0  0  0  0
 14 15  1  0  0  0  0
 14 16  1  0  0  0  0
 14 36  1  0  0  0  0
 15 37  1  0  0  0  0
 15 38  1  0  0  0  0
 15 39  1  0  0  0  0
 16 40  1  0  0  0  0
 16 41  1  0  0  0  0
 16 42  1  0  0  0  0
 18 19  2  0  0  0  0
 18 20  1  0  0  0  0
M  CHG  1  20  -1
M  END
> <s_m_source_file>
AV-unprocessed.smi

> <i_m_source_file_index>
2892

> <i_lp_mmshare_version>
43012

> <i_f3d_flags>
0

> <s_epik_input>
W0NIM11bQ0gyXVtDQEhdKFtDSDNdKVtDQEBIXShDKD1PKVtPSF0pW05IXUMoPU8pW0NIMl1jMVtjSF1bY0hdbihuMSlbQ0hdKFtDSDNdKVtDSDNd

> <s_epik_cmdline>
J2VwaWtfcHl0aG9uJywgJy1waCcsICc3LjAnLCAnLXRuJywgJzgnLCAnLW1hJywgJzIwMCcsICctbWV0YWxfYmluZGluZycsICctaW1hZScsICc8aW5maWxlLm1hZT4nLCAnLW9tYWUnLCAnPG91dGZpbGUubWFlPic=

> <r_lp_tautomer_probability>
1

> <r_epik_Ionization_Penalty>
0.000286846

> <r_epik_Ionization_Penalty_Charging>
0.000224481

> <r_epik_Ionization_Penalty_Neutral>
6.23655e-05

> <r_epik_State_Penalty>
-0

> <r_epik_Charging_Adjusted_Penalty>
0.000224481

> <i_epik_Tot_Q>
-1

> <i_epik_Tot_abs_Q>
1

> <r_epik_Metal_State_Penalty>
-0

> <b_epik_Metal_Only>
0

> <s_lp_Force_Field>
OPLS_2005

> <r_lp_Energy>
13.265

> <b_lp_Chiralities_Consistent>
1

> <s_lp_Variant>
AV-unprocessed.smi:2892-4

> <Gold.Version>
5.8.1

> <Gold.Id.Protein>
6NUR|6NUR_protein|mol2

> <Gold.PLP.Fitness>
46.7534

> <Gold.PLP.PLP>
-32.9389

> <Gold.PLP.part.hbond>
-3.0000

> <Gold.PLP.part.metal>
0.0000

> <Gold.PLP.part.buried>
-5.3959

> <Gold.PLP.part.nonpolar>
-25.3518

> <Gold.PLP.part.repulsive>
0.2202

> <Gold.PLP.ligand.clash>
0.0000

> <Gold.PLP.ligand.torsion>
0.6822

> <Gold.PLP.Chemscore.Hbond>
5.0040

> <Gold.PLP.Chemscore.CHOScore>
0.0000

> <Gold.PLP.Chemscore.Metal>
0.0000

> <Gold.Chemscore.Hbonds>
donor molecule, donor type, donor heavy atom, donor atom, acceptor molecule, acceptor atom, score
      P1  H  6896  6907       L1    19  1.37
      P1  H  6931  6943       L1    20  1.63
      P1  H  6934  6947       L1    20  1.21

> <Gold.PLP.Chemscore.Internal.Correction>
0.1668

> <Gold.Rescore>
     Score         DG    S(hbond)    S(metal)    S(lipo)     H(rot)  DE(clash)    DE(int)     intcor
     15.31     -16.15       2.39        0.00      75.12       2.39       0.04       0.79       ----

> <Gold.Chemscore.Fitness>
15.3129

> <Gold.Chemscore.DG>
-16.1486

> <Gold.Chemscore.ZeroCoef>
-5.4800

> <Gold.Chemscore.Hbond>
2.3919

> <Gold.Chemscore.Metal>
0.0000

> <Gold.Chemscore.Lipo>
75.1198

> <Gold.Chemscore.Internal_Hbond>
0.0000

> <Gold.Chemscore.DEClash>
0.0421

> <Gold.Chemscore.DEInternal>
0.7936

> <Gold.Chemscore.Rot>
2.3865

> <Gold.Chemscore.Internal.Correction>
   9.000000E+99

> <Gold.Chemscore.Hbonds>
donor molecule, donor type, donor heavy atom, donor atom, acceptor molecule, acceptor atom, score
      P1  H  6896  6907       L1    19  0.66
      P1  H  6931  6943       L1    20  0.81
      P1  H  6934  6947       L1    20  0.58

> <Gold.Chemscore.Hbond.Weighted>
-7.9889

> <Gold.Chemscore.Metal.Weighted>
-0.0000

> <Gold.Chemscore.Lipo.Weighted>
-8.7890

> <Gold.Chemscore.Internal_Hbond.Weighted>
0.0000

> <Gold.Chemscore.DEClash.Weighted>
0.0421

> <Gold.Chemscore.DEInternal.Weighted>
0.7936

> <Gold.Chemscore.Rot.Weighted>
6.1093

> <Gold.Chemscore.Internal.Correction.Weighted>
   9.000000E+99

> <Gold.Protein.RotatedTorsions>
[ 6907 6896 6895 6894 ] final  -74.29 input  -60.11 | X-H torsion
[ 7974 7965 7964 7962 ] final  -76.62 input  175.53 | X-H torsion
[ 8008 7997 7996 7995 ] final -115.20 input   59.86 | X-H torsion
[ 10167 10162 10161 10158 ] final   66.51 input  -65.29 | X-H torsion
[ 10718 10713 10712 10709 ] final  -60.98 input   66.30 | X-H torsion
[ 10763 10752 10751 10750 ] final  -41.36 input  -60.55 | X-H torsion
[ 11005 11000 10999 10996 ] final -155.47 input  -57.11 | X-H torsion

> <Gold.Protein.ActiveResidues>
 VAL166  LYS551  ARG553  GLY616  TRP617  ASP618  TYR619  PRO620  LYS621  CYS622 
 ASP623  PHE694  ASN695  SER759  ASP760  ASP761  ALA762  ILE779  LEU786  VAL792 
 PHE793  MET794  SER795  GLU796  ALA797  LYS798  CYS799  TRP800  GLU811  SER814 

> <Gold.Protein.RotatedAtoms>
  150.7098  134.4890  159.5506 H   0  0  0  0  0  0  0  0  0  0  0  0  # atno 6907 bound_to 6896
  152.2512  134.8128  160.0455 H   0  0  0  0  0  0  0  0  0  0  0  0  # atno 6908 bound_to 6896
  151.8875  133.3473  159.3824 H   0  0  0  0  0  0  0  0  0  0  0  0  # atno 6909 bound_to 6896
  145.6105  140.9388  143.1192 H   0  0  0  0  0  0  0  0  0  0  0  0  # atno 7974 bound_to 7965
  155.0483  140.0392  157.2534 H   0  0  0  0  0  0  0  0  0  0  0  0  # atno 8008 bound_to 7997
  154.7159  140.2702  155.6562 H   0  0  0  0  0  0  0  0  0  0  0  0  # atno 8009 bound_to 7997
  156.2803  140.2712  156.1815 H   0  0  0  0  0  0  0  0  0  0  0  0  # atno 8010 bound_to 7997
  140.0996  144.4915  150.7046 H   0  0  0  0  0  0  0  0  0  0  0  0  # atno 10167 bound_to 10162
  156.0953  130.4194  150.0930 H   0  0  0  0  0  0  0  0  0  0  0  0  # atno 10718 bound_to 10713
  153.9613  135.6739  153.4745 H   0  0  0  0  0  0  0  0  0  0  0  0  # atno 10763 bound_to 10752
  153.0837  135.4910  154.8550 H   0  0  0  0  0  0  0  0  0  0  0  0  # atno 10764 bound_to 10752
  154.7271  135.3130  154.8913 H   0  0  0  0  0  0  0  0  0  0  0  0  # atno 10765 bound_to 10752
  140.6861  134.4092  157.5223 H   0  0  0  0  0  0  0  0  0  0  0  0  # atno 11005 bound_to 11000
  144.7272  139.7839  143.7360 LP  0  0  0  0  0  0  0  0  0  0  0  0  # atno 17320 bound_to 7965
  146.1508  139.4590  143.0050 LP  0  0  0  0  0  0  0  0  0  0  0  0  # atno 17321 bound_to 7965
  140.6985  143.2419  151.4933 LP  0  0  0  0  0  0  0  0  0  0  0  0  # atno 17342 bound_to 10162
  139.5678  144.2000  152.1792 LP  0  0  0  0  0  0  0  0  0  0  0  0  # atno 17343 bound_to 10162
  156.8930  130.9595  151.3586 LP  0  0  0  0  0  0  0  0  0  0  0  0  # atno 17370 bound_to 10713
  157.6112  130.8584  149.8955 LP  0  0  0  0  0  0  0  0  0  0  0  0  # atno 17371 bound_to 10713
  139.8937  134.8724  156.2211 LP  0  0  0  0  0  0  0  0  0  0  0  0  # atno 17394 bound_to 11000
  141.0279  133.7005  156.1379 LP  0  0  0  0  0  0  0  0  0  0  0  0  # atno 17395 bound_to 11000

$$$$
