AV-unprocessed.smi:1772|AV-procd|sdf|7161|dock8
  -GOLD-   22720 8403D 1   1.00000     0.00000
 Structure written by MMmdl.
 34 35  0  0  0  0  0  0  0  0  2 V2000
  146.5444  131.0997  153.7840 O   0  0  0  0  0  0  0  0  0  0  0  0
  147.2563  131.0030  152.7848 C   0  0  0  0  0  0  0  0  0  0  0  0
  148.4777  130.4507  152.7983 N   0  0  0  0  0  0  0  0  0  0  0  0
  149.1294  129.8883  153.9769 C   0  0  0  0  0  0  0  0  0  0  0  0
  150.2872  130.7707  154.4848 C   0  0  2  0  0  0  0  0  0  0  0  0
  151.5116  129.9620  154.9639 C   0  0  0  0  0  0  0  0  0  0  0  0
  152.4572  130.9028  155.7157 C   0  0  0  0  0  0  0  0  0  0  0  0
  151.3758  132.1079  156.5696 S   0  0  0  0  0  0  0  0  0  0  0  0
  151.1986  131.6985  157.9711 O   0  0  0  0  0  0  0  0  0  0  0  0
  151.8118  133.4700  156.2274 O   0  0  0  0  0  0  0  0  0  0  0  0
  149.8536  131.6953  155.6337 C   0  0  0  0  0  0  0  0  0  0  0  0
  146.9358  131.4476  151.5571 N   0  0  0  0  0  0  0  0  0  0  0  0
  145.7277  132.0596  151.1254 C   0  0  0  0  0  0  0  0  0  0  0  0
  145.4175  131.9974  149.7486 C   0  0  0  0  0  0  0  0  0  0  0  0
  144.2202  132.5744  149.2783 C   0  0  0  0  0  0  0  0  0  0  0  0
  143.3756  133.1714  150.1462 N   0  3  0  0  0  0  0  0  0  0  0  0
  143.6214  133.2428  151.4723 C   0  0  0  0  0  0  0  0  0  0  0  0
  144.8033  132.6846  152.0007 C   0  0  0  0  0  0  0  0  0  0  0  0
  148.9969  130.4151  151.9331 H   0  0  0  0  0  0  0  0  0  0  0  0
  148.3948  129.7359  154.7695 H   0  0  0  0  0  0  0  0  0  0  0  0
  149.5029  128.8982  153.7130 H   0  0  0  0  0  0  0  0  0  0  0  0
  150.6227  131.4122  153.6684 H   0  0  0  0  0  0  0  0  0  0  0  0
  151.1791  129.1784  155.6460 H   0  0  0  0  0  0  0  0  0  0  0  0
  152.0237  129.4687  154.1373 H   0  0  0  0  0  0  0  0  0  0  0  0
  153.0929  130.3872  156.4359 H   0  0  0  0  0  0  0  0  0  0  0  0
  153.0908  131.4523  155.0190 H   0  0  0  0  0  0  0  0  0  0  0  0
  149.3708  132.6075  155.2827 H   0  0  0  0  0  0  0  0  0  0  0  0
  149.1736  131.1855  156.3168 H   0  0  0  0  0  0  0  0  0  0  0  0
  147.6618  131.3816  150.8587 H   0  0  0  0  0  0  0  0  0  0  0  0
  146.0912  131.5167  149.0539 H   0  0  0  0  0  0  0  0  0  0  0  0
  143.9136  132.5738  148.2423 H   0  0  0  0  0  0  0  0  0  0  0  0
  142.8671  133.7353  152.0686 H   0  0  0  0  0  0  0  0  0  0  0  0
  144.9696  132.7348  153.0660 H   0  0  0  0  0  0  0  0  0  0  0  0
  142.5130  133.5812  149.7864 H   0  0  0  0  0  0  0  0  0  0  0  0
  1  2  2  0  0  0  0
  2  3  1  0  0  0  0
  2 12  1  0  0  0  0
  3  4  1  0  0  0  0
  3 19  1  0  0  0  0
  4  5  1  0  0  0  0
  4 20  1  0  0  0  0
  4 21  1  0  0  0  0
  5 11  1  0  0  0  0
  5  6  1  0  0  0  0
  5 22  1  0  0  0  0
  6  7  1  0  0  0  0
  6 23  1  0  0  0  0
  6 24  1  0  0  0  0
  7  8  1  0  0  0  0
  7 25  1  0  0  0  0
  7 26  1  0  0  0  0
  8  9  2  0  0  0  0
  8 10  2  0  0  0  0
  8 11  1  0  0  0  0
 11 27  1  0  0  0  0
 11 28  1  0  0  0  0
 12 13  1  0  0  0  0
 12 29  1  0  0  0  0
 13 18  1  0  0  0  0
 13 14  2  0  0  0  0
 14 15  1  0  0  0  0
 14 30  1  0  0  0  0
 15 16  2  0  0  0  0
 15 31  1  0  0  0  0
 16 17  1  0  0  0  0
 16 34  1  0  0  0  0
 17 18  2  0  0  0  0
 17 32  1  0  0  0  0
 18 33  1  0  0  0  0
M  CHG  1  16   1
M  END
> <s_m_source_file>
AV-unprocessed.smi

> <i_m_source_file_index>
1772

> <i_lp_mmshare_version>
43012

> <i_f3d_flags>
0

> <s_epik_input>
W2NIXTFbY0hdbltjSF1bY0hdYzFbTkhdQyg9TylbTkhdW0NIMl1bQ0BASF0oW0NIMl0yKVtDSDJdW0NIMl1TMig9Tyk9Tw==

> <s_epik_cmdline>
J2VwaWtfcHl0aG9uJywgJy1waCcsICc3LjAnLCAnLXRuJywgJzgnLCAnLW1hJywgJzIwMCcsICctbWV0YWxfYmluZGluZycsICctaW1hZScsICc8aW5maWxlLm1hZT4nLCAnLW9tYWUnLCAnPG91dGZpbGUubWFlPic=

> <r_epik_Ionization_Penalty>
1.04917

> <r_epik_Ionization_Penalty_Charging>
1.04915

> <r_epik_Ionization_Penalty_Neutral>
1.90771e-05

> <r_epik_State_Penalty>
1.10185

> <r_epik_Charging_Adjusted_Penalty>
2.151

> <i_epik_Tot_Q>
1

> <i_epik_Tot_abs_Q>
1

> <r_epik_Metal_State_Penalty>
1.19638

> <b_epik_Metal_Only>
0

> <s_lp_Force_Field>
OPLS_2005

> <r_lp_Energy>
16.4165

> <b_lp_Chiralities_Consistent>
1

> <s_lp_Variant>
AV-unprocessed.smi:1772-3

> <Gold.Version>
5.8.1

> <Gold.Id.Protein>
6NUR|6NUR_protein|mol2

> <Gold.PLP.Fitness>
46.0806

> <Gold.PLP.PLP>
-32.5421

> <Gold.PLP.part.hbond>
-4.0000

> <Gold.PLP.part.metal>
0.0000

> <Gold.PLP.part.buried>
-4.6297

> <Gold.PLP.part.nonpolar>
-23.8877

> <Gold.PLP.part.repulsive>
0.2529

> <Gold.PLP.ligand.clash>
0.0000

> <Gold.PLP.ligand.torsion>
0.6966

> <Gold.PLP.Chemscore.Hbond>
4.9760

> <Gold.PLP.Chemscore.CHOScore>
0.0000

> <Gold.PLP.Chemscore.Metal>
0.0000

> <Gold.Chemscore.Hbonds>
donor molecule, donor type, donor heavy atom, donor atom, acceptor molecule, acceptor atom, score
      L1  H     3    19       P1 10747  0.79
      L1  H    12    29       P1 10747  1.00
      L1  H    16    34       P1 10186  2.00
      P1  H  6896  6909       L1     9  0.93

> <Gold.PLP.Chemscore.Internal.Correction>
0.0038

> <Gold.Rescore>
     Score         DG    S(hbond)    S(metal)    S(lipo)     H(rot)  DE(clash)    DE(int)     intcor
     19.20     -21.17       3.25        0.00      70.07       1.32       0.21       1.76       ----

> <Gold.Chemscore.Fitness>
19.1998

> <Gold.Chemscore.DG>
-21.1696

> <Gold.Chemscore.ZeroCoef>
-5.4800

> <Gold.Chemscore.Hbond>
3.2510

> <Gold.Chemscore.Metal>
0.0000

> <Gold.Chemscore.Lipo>
70.0722

> <Gold.Chemscore.Internal_Hbond>
0.0000

> <Gold.Chemscore.DEClash>
0.2061

> <Gold.Chemscore.DEInternal>
1.7636

> <Gold.Chemscore.Rot>
1.3153

> <Gold.Chemscore.Internal.Correction>
   9.000000E+99

> <Gold.Chemscore.Hbonds>
donor molecule, donor type, donor heavy atom, donor atom, acceptor molecule, acceptor atom, score
      L1  H     3    19       P1 10747  0.13
      L1  H    12    29       P1 10747  0.92
      L1  H    16    34       P1 10186  1.00
      P1  H  6896  6909       L1     9  0.69

> <Gold.Chemscore.Hbond.Weighted>
-10.8584

> <Gold.Chemscore.Metal.Weighted>
-0.0000

> <Gold.Chemscore.Lipo.Weighted>
-8.1984

> <Gold.Chemscore.Internal_Hbond.Weighted>
0.0000

> <Gold.Chemscore.DEClash.Weighted>
0.2061

> <Gold.Chemscore.DEInternal.Weighted>
1.7636

> <Gold.Chemscore.Rot.Weighted>
3.3673

> <Gold.Chemscore.Internal.Correction.Weighted>
   9.000000E+99

> <Gold.Protein.RotatedTorsions>
[ 6907 6896 6895 6894 ] final  -44.10 input  -60.11 | X-H torsion
[ 7974 7965 7964 7962 ] final   50.32 input  175.53 | X-H torsion
[ 8008 7997 7996 7995 ] final -176.16 input   59.86 | X-H torsion
[ 10167 10162 10161 10158 ] final -166.70 input  -65.29 | X-H torsion
[ 10718 10713 10712 10709 ] final -150.98 input   66.30 | X-H torsion
[ 10763 10752 10751 10750 ] final  -95.65 input  -60.55 | X-H torsion
[ 11005 11000 10999 10996 ] final -145.90 input  -57.11 | X-H torsion

> <Gold.Protein.ActiveResidues>
 VAL166  LYS551  ARG553  GLY616  TRP617  ASP618  TYR619  PRO620  LYS621  CYS622 
 ASP623  PHE694  ASN695  SER759  ASP760  ASP761  ALA762  ILE779  LEU786  VAL792 
 PHE793  MET794  SER795  GLU796  ALA797  LYS798  CYS799  TRP800  GLU811  SER814 

> <Gold.Protein.RotatedAtoms>
  150.9366  134.8777  159.7584 H   0  0  0  0  0  0  0  0  0  0  0  0  # atno 6907 bound_to 6896
  152.5061  134.4003  159.9424 H   0  0  0  0  0  0  0  0  0  0  0  0  # atno 6908 bound_to 6896
  151.4026  133.3712  159.2769 H   0  0  0  0  0  0  0  0  0  0  0  0  # atno 6909 bound_to 6896
  146.0023  139.4452  143.0007 H   0  0  0  0  0  0  0  0  0  0  0  0  # atno 7974 bound_to 7965
  155.9914  140.1202  157.0634 H   0  0  0  0  0  0  0  0  0  0  0  0  # atno 8008 bound_to 7997
  154.4213  140.1125  156.5640 H   0  0  0  0  0  0  0  0  0  0  0  0  # atno 8009 bound_to 7997
  155.6337  140.3473  155.4693 H   0  0  0  0  0  0  0  0  0  0  0  0  # atno 8010 bound_to 7997
  139.6098  144.0839  152.1830 H   0  0  0  0  0  0  0  0  0  0  0  0  # atno 10167 bound_to 10162
  156.4532  130.8178  151.2409 H   0  0  0  0  0  0  0  0  0  0  0  0  # atno 10718 bound_to 10713
  154.7168  135.5113  153.8749 H   0  0  0  0  0  0  0  0  0  0  0  0  # atno 10763 bound_to 10752
  153.0827  135.6636  154.0021 H   0  0  0  0  0  0  0  0  0  0  0  0  # atno 10764 bound_to 10752
  153.9852  135.3025  155.3396 H   0  0  0  0  0  0  0  0  0  0  0  0  # atno 10765 bound_to 10752
  140.7875  134.3007  157.5025 H   0  0  0  0  0  0  0  0  0  0  0  0  # atno 11005 bound_to 11000
  145.7469  140.9987  143.1271 LP  0  0  0  0  0  0  0  0  0  0  0  0  # atno 17320 bound_to 7965
  144.6923  139.9167  143.7466 LP  0  0  0  0  0  0  0  0  0  0  0  0  # atno 17321 bound_to 7965
  140.0455  144.5974  150.7377 LP  0  0  0  0  0  0  0  0  0  0  0  0  # atno 17342 bound_to 10162
  140.7311  143.2690  151.3949 LP  0  0  0  0  0  0  0  0  0  0  0  0  # atno 17343 bound_to 10162
  157.7502  131.0131  150.3411 LP  0  0  0  0  0  0  0  0  0  0  0  0  # atno 17370 bound_to 10713
  156.3794  130.3877  149.7113 LP  0  0  0  0  0  0  0  0  0  0  0  0  # atno 17371 bound_to 10713
  139.8735  134.9355  156.3635 LP  0  0  0  0  0  0  0  0  0  0  0  0  # atno 17394 bound_to 11000
  140.9422  133.7507  156.0161 LP  0  0  0  0  0  0  0  0  0  0  0  0  # atno 17395 bound_to 11000

$$$$
