AV-unprocessed.smi:1007|AV-procd|sdf|4399|dock3
  -GOLD-   22720 2333D 1   1.00000     0.00000
 Structure written by MMmdl.
 56 58  0  0  0  0  0  0  0  0  2 V2000
  141.3141  139.6842  156.7216 C   0  0  0  0  0  0  0  0  0  0  0  0
  141.9916  140.4939  155.7763 O   0  0  0  0  0  0  0  0  0  0  0  0
  142.9809  141.3143  156.3737 C   0  0  0  0  0  0  0  0  0  0  0  0
  143.6550  142.1465  155.2727 C   0  0  0  0  0  0  0  0  0  0  0  0
  144.6345  143.1281  155.7503 N   0  0  0  0  0  0  0  0  0  0  0  0
  145.6756  142.5285  156.5841 C   0  0  0  0  0  0  0  0  0  0  0  0
  146.6711  141.6622  155.7861 C   0  0  0  0  0  0  0  0  0  0  0  0
  147.3021  142.4583  154.7016 N   0  3  0  0  0  0  0  0  0  0  0  0
  148.3159  141.6753  153.9508 C   0  0  0  0  0  0  0  0  0  0  0  0
  149.3318  140.9587  154.8681 C   0  0  1  0  0  0  0  0  0  0  0  0
  149.9674  139.9358  154.1260 O   0  0  0  0  0  0  0  0  0  0  0  0
  150.4055  141.9060  155.4489 C   0  0  0  0  0  0  0  0  0  0  0  0
  151.1392  141.3406  156.5702 N   0  0  0  0  0  0  0  0  0  0  0  0
  151.6633  140.1022  156.6564 C   0  0  0  0  0  0  0  0  0  0  0  0
  152.3102  139.7907  157.7754 N   0  0  0  0  0  0  0  0  0  0  0  0
  152.1859  140.9603  158.5049 C   0  0  0  0  0  0  0  0  0  0  0  0
  152.6608  141.2932  159.7922 C   0  0  0  0  0  0  0  0  0  0  0  0
  152.4159  142.5690  160.3480 C   0  0  0  0  0  0  0  0  0  0  0  0
  152.9471  142.8848  161.7352 C   0  0  0  0  0  0  0  0  0  0  0  0
  151.6838  143.5354  159.6128 C   0  0  0  0  0  0  0  0  0  0  0  0
  151.4098  144.9134  160.1881 C   0  0  0  0  0  0  0  0  0  0  0  0
  151.1996  143.2186  158.3266 C   0  0  0  0  0  0  0  0  0  0  0  0
  151.4533  141.9471  157.7823 C   0  0  0  0  0  0  0  0  0  0  0  0
  146.2644  143.0822  153.8371 C   0  0  0  0  0  0  0  0  0  0  0  0
  145.2806  143.9077  154.6915 C   0  0  0  0  0  0  0  0  0  0  0  0
  140.5644  139.0773  156.2138 H   0  0  0  0  0  0  0  0  0  0  0  0
  140.8038  140.2928  157.4694 H   0  0  0  0  0  0  0  0  0  0  0  0
  142.0045  139.0102  157.2303 H   0  0  0  0  0  0  0  0  0  0  0  0
  142.5140  141.9582  157.1194 H   0  0  0  0  0  0  0  0  0  0  0  0
  143.7215  140.6952  156.8829 H   0  0  0  0  0  0  0  0  0  0  0  0
  144.1612  141.4498  154.6032 H   0  0  0  0  0  0  0  0  0  0  0  0
  142.8873  142.6295  154.6691 H   0  0  0  0  0  0  0  0  0  0  0  0
  146.2266  143.3227  157.0899 H   0  0  0  0  0  0  0  0  0  0  0  0
  145.2197  141.9342  157.3767 H   0  0  0  0  0  0  0  0  0  0  0  0
  147.4425  141.2912  156.4619 H   0  0  0  0  0  0  0  0  0  0  0  0
  146.1767  140.7861  155.3647 H   0  0  0  0  0  0  0  0  0  0  0  0
  147.8039  140.9288  153.3420 H   0  0  0  0  0  0  0  0  0  0  0  0
  148.8319  142.3371  153.2538 H   0  0  0  0  0  0  0  0  0  0  0  0
  148.8202  140.4900  155.7076 H   0  0  0  0  0  0  0  0  0  0  0  0
  149.5552  139.8777  153.2769 H   0  0  0  0  0  0  0  0  0  0  0  0
  151.1224  142.1727  154.6715 H   0  0  0  0  0  0  0  0  0  0  0  0
  149.9478  142.8418  155.7732 H   0  0  0  0  0  0  0  0  0  0  0  0
  151.5712  139.3918  155.8480 H   0  0  0  0  0  0  0  0  0  0  0  0
  153.2182  140.5565  160.3522 H   0  0  0  0  0  0  0  0  0  0  0  0
  152.1344  143.1792  162.3995 H   0  0  0  0  0  0  0  0  0  0  0  0
  153.6708  143.6987  161.6903 H   0  0  0  0  0  0  0  0  0  0  0  0
  153.4423  142.0202  162.1777 H   0  0  0  0  0  0  0  0  0  0  0  0
  150.8740  145.5426  159.4767 H   0  0  0  0  0  0  0  0  0  0  0  0
  152.3439  145.4159  160.4398 H   0  0  0  0  0  0  0  0  0  0  0  0
  150.8030  144.8361  161.0906 H   0  0  0  0  0  0  0  0  0  0  0  0
  150.6391  143.9460  157.7586 H   0  0  0  0  0  0  0  0  0  0  0  0
  146.7298  143.7428  153.1071 H   0  0  0  0  0  0  0  0  0  0  0  0
  145.7371  142.3144  153.2698 H   0  0  0  0  0  0  0  0  0  0  0  0
  144.5344  144.3773  154.0520 H   0  0  0  0  0  0  0  0  0  0  0  0
  145.8268  144.7341  155.1485 H   0  0  0  0  0  0  0  0  0  0  0  0
  147.8002  143.2097  155.1577 H   0  0  0  0  0  0  0  0  0  0  0  0
  1  2  1  0  0  0  0
  1 26  1  0  0  0  0
  1 27  1  0  0  0  0
  1 28  1  0  0  0  0
  2  3  1  0  0  0  0
  3  4  1  0  0  0  0
  3 29  1  0  0  0  0
  3 30  1  0  0  0  0
  4  5  1  0  0  0  0
  4 31  1  0  0  0  0
  4 32  1  0  0  0  0
  5 25  1  0  0  0  0
  5  6  1  0  0  0  0
  6  7  1  0  0  0  0
  6 33  1  0  0  0  0
  6 34  1  0  0  0  0
  7  8  1  0  0  0  0
  7 35  1  0  0  0  0
  7 36  1  0  0  0  0
  8  9  1  0  0  0  0
  8 24  1  0  0  0  0
  8 56  1  0  0  0  0
  9 10  1  0  0  0  0
  9 37  1  0  0  0  0
  9 38  1  0  0  0  0
 10 11  1  0  0  0  0
 10 12  1  0  0  0  0
 10 39  1  0  0  0  0
 11 40  1  0  0  0  0
 12 13  1  0  0  0  0
 12 41  1  0  0  0  0
 12 42  1  0  0  0  0
 13 23  1  0  0  0  0
 13 14  1  0  0  0  0
 14 15  2  0  0  0  0
 14 43  1  0  0  0  0
 15 16  1  0  0  0  0
 16 23  2  0  0  0  0
 16 17  1  0  0  0  0
 17 18  2  0  0  0  0
 17 44  1  0  0  0  0
 18 19  1  0  0  0  0
 18 20  1  0  0  0  0
 19 45  1  0  0  0  0
 19 46  1  0  0  0  0
 19 47  1  0  0  0  0
 20 21  1  0  0  0  0
 20 22  2  0  0  0  0
 21 48  1  0  0  0  0
 21 49  1  0  0  0  0
 21 50  1  0  0  0  0
 22 23  1  0  0  0  0
 22 51  1  0  0  0  0
 24 25  1  0  0  0  0
 24 52  1  0  0  0  0
 24 53  1  0  0  0  0
 25 54  1  0  0  0  0
 25 55  1  0  0  0  0
M  CHG  1   8   1
M  END
> <s_m_source_file>
AV-unprocessed.smi

> <i_m_source_file_index>
1007

> <i_lp_mmshare_version>
43012

> <i_f3d_flags>
0

> <s_epik_input>
W0NIM11PW0NIMl1bQ0gyXU4xW0NIMl1bQ0gyXU4oW0NIMl1bQ0gyXTEpW0NIMl1bQ0BIXShbT0hdKVtDSDJdbihbY0hdbjIpYyhjMjMpW2NIXWMoW0NIM10pYyhbY0hdMylbQ0gzXQ==

> <s_epik_cmdline>
J2VwaWtfcHl0aG9uJywgJy1waCcsICc3LjAnLCAnLXRuJywgJzgnLCAnLW1hJywgJzIwMCcsICctbWV0YWxfYmluZGluZycsICctaW1hZScsICc8aW5maWxlLm1hZT4nLCAnLW9tYWUnLCAnPG91dGZpbGUubWFlPic=

> <r_epik_Ionization_Penalty>
0.102698

> <r_epik_Ionization_Penalty_Charging>
0.00226046

> <r_epik_Ionization_Penalty_Neutral>
0.100438

> <r_epik_State_Penalty>
0.191223

> <r_epik_Charging_Adjusted_Penalty>
0.193484

> <i_epik_Tot_Q>
1

> <i_epik_Tot_abs_Q>
1

> <r_epik_Metal_State_Penalty>
0.102154

> <b_epik_Metal_Only>
0

> <s_lp_Force_Field>
OPLS_2005

> <r_lp_Energy>
31.116

> <b_lp_Chiralities_Consistent>
1

> <s_lp_Variant>
AV-unprocessed.smi:1007-2

> <Gold.Version>
5.8.1

> <Gold.Id.Protein>
6NUR|6NUR_protein|mol2

> <Gold.PLP.Fitness>
60.6931

> <Gold.PLP.PLP>
-47.0651

> <Gold.PLP.part.hbond>
-4.0000

> <Gold.PLP.part.metal>
0.0000

> <Gold.PLP.part.buried>
-5.6239

> <Gold.PLP.part.nonpolar>
-36.9536

> <Gold.PLP.part.repulsive>
0.2404

> <Gold.PLP.ligand.clash>
0.0000

> <Gold.PLP.ligand.torsion>
0.4728

> <Gold.PLP.Chemscore.Hbond>
4.7801

> <Gold.PLP.Chemscore.CHOScore>
0.0000

> <Gold.PLP.Chemscore.Metal>
0.0000

> <Gold.Chemscore.Hbonds>
donor molecule, donor type, donor heavy atom, donor atom, acceptor molecule, acceptor atom, score
      L1  H     8    56       P1  8028  2.00
      L1  H    11    40       P1  7957  0.76
      P1  H  7989  7998       L1    11  0.72
      P1  H  7997  8010       L1    15  0.10

> <Gold.PLP.Chemscore.Internal.Correction>
0.2336

> <Gold.Rescore>
     Score         DG    S(hbond)    S(metal)    S(lipo)     H(rot)  DE(clash)    DE(int)     intcor
     15.98     -17.29       1.58        0.00     111.98       2.56       0.67       0.64       ----

> <Gold.Chemscore.Fitness>
15.9850

> <Gold.Chemscore.DG>
-17.2928

> <Gold.Chemscore.ZeroCoef>
-5.4800

> <Gold.Chemscore.Hbond>
1.5759

> <Gold.Chemscore.Metal>
0.0000

> <Gold.Chemscore.Lipo>
111.9789

> <Gold.Chemscore.Internal_Hbond>
0.0000

> <Gold.Chemscore.DEClash>
0.6656

> <Gold.Chemscore.DEInternal>
0.6422

> <Gold.Chemscore.Rot>
2.5594

> <Gold.Chemscore.Internal.Correction>
   9.000000E+99

> <Gold.Chemscore.Hbonds>
donor molecule, donor type, donor heavy atom, donor atom, acceptor molecule, acceptor atom, score
      L1  H     8    56       P1  8028  0.60
      L1  H    11    40       P1  7957  0.73
      P1  H  7989  7998       L1    11  0.03
      P1  H  7997  8010       L1    15  0.01

> <Gold.Chemscore.Hbond.Weighted>
-5.2634

> <Gold.Chemscore.Metal.Weighted>
-0.0000

> <Gold.Chemscore.Lipo.Weighted>
-13.1015

> <Gold.Chemscore.Internal_Hbond.Weighted>
0.0000

> <Gold.Chemscore.DEClash.Weighted>
0.6656

> <Gold.Chemscore.DEInternal.Weighted>
0.6422

> <Gold.Chemscore.Rot.Weighted>
6.5522

> <Gold.Chemscore.Internal.Correction.Weighted>
   9.000000E+99

> <Gold.Protein.RotatedTorsions>
[ 6907 6896 6895 6894 ] final -109.90 input  -60.11 | X-H torsion
[ 7974 7965 7964 7962 ] final  -78.35 input  175.53 | X-H torsion
[ 8008 7997 7996 7995 ] final   38.48 input   59.86 | X-H torsion
[ 10167 10162 10161 10158 ] final   88.59 input  -65.29 | X-H torsion
[ 10718 10713 10712 10709 ] final -125.09 input   66.30 | X-H torsion
[ 10763 10752 10751 10750 ] final  133.28 input  -60.55 | X-H torsion
[ 11005 11000 10999 10996 ] final -128.64 input  -57.11 | X-H torsion

> <Gold.Protein.ActiveResidues>
 VAL166  LYS551  ARG553  GLY616  TRP617  ASP618  TYR619  PRO620  LYS621  CYS622 
 ASP623  PHE694  ASN695  SER759  ASP760  ASP761  ALA762  ILE779  LEU786  VAL792 
 PHE793  MET794  SER795  GLU796  ALA797  LYS798  CYS799  TRP800  GLU811  SER814 

> <Gold.Protein.RotatedAtoms>
  150.7591  133.9460  159.3470 H   0  0  0  0  0  0  0  0  0  0  0  0  # atno 6907 bound_to 6896
  151.7373  135.0860  160.0319 H   0  0  0  0  0  0  0  0  0  0  0  0  # atno 6908 bound_to 6896
  152.3551  133.6190  159.6009 H   0  0  0  0  0  0  0  0  0  0  0  0  # atno 6909 bound_to 6896
  145.5876  140.9436  143.1310 H   0  0  0  0  0  0  0  0  0  0  0  0  # atno 7974 bound_to 7965
  155.2208  140.3331  155.4316 H   0  0  0  0  0  0  0  0  0  0  0  0  # atno 8008 bound_to 7997
  156.2334  140.1861  156.7231 H   0  0  0  0  0  0  0  0  0  0  0  0  # atno 8009 bound_to 7997
  154.6016  140.0622  156.9362 H   0  0  0  0  0  0  0  0  0  0  0  0  # atno 8010 bound_to 7997
  139.8658  144.6520  150.9006 H   0  0  0  0  0  0  0  0  0  0  0  0  # atno 10167 bound_to 10162
  156.1645  130.6624  151.0095 H   0  0  0  0  0  0  0  0  0  0  0  0  # atno 10718 bound_to 10713
  153.8046  135.3137  155.3394 H   0  0  0  0  0  0  0  0  0  0  0  0  # atno 10763 bound_to 10752
  154.8076  135.4688  154.0434 H   0  0  0  0  0  0  0  0  0  0  0  0  # atno 10764 bound_to 10752
  153.1793  135.6891  153.8588 H   0  0  0  0  0  0  0  0  0  0  0  0  # atno 10765 bound_to 10752
  140.9499  134.1079  157.4072 H   0  0  0  0  0  0  0  0  0  0  0  0  # atno 11005 bound_to 11000
  144.7365  139.7570  143.7327 LP  0  0  0  0  0  0  0  0  0  0  0  0  # atno 17320 bound_to 7965
  146.1670  139.4806  142.9952 LP  0  0  0  0  0  0  0  0  0  0  0  0  # atno 17321 bound_to 7965
  140.7768  143.3706  151.1657 LP  0  0  0  0  0  0  0  0  0  0  0  0  # atno 17342 bound_to 10162
  139.7331  143.9042  152.3026 LP  0  0  0  0  0  0  0  0  0  0  0  0  # atno 17343 bound_to 10162
  157.6757  131.0851  150.7500 LP  0  0  0  0  0  0  0  0  0  0  0  0  # atno 17370 bound_to 10713
  156.7561  130.4784  149.5446 LP  0  0  0  0  0  0  0  0  0  0  0  0  # atno 17371 bound_to 10713
  139.8844  135.0063  156.6369 LP  0  0  0  0  0  0  0  0  0  0  0  0  # atno 17394 bound_to 11000
  140.7617  133.8812  155.8423 LP  0  0  0  0  0  0  0  0  0  0  0  0  # atno 17395 bound_to 11000

$$$$
