AV-unprocessed.smi:1837|AV-procd|sdf|7481|dock4
  -GOLD-   22720 9173D 1   1.00000     0.00000
 Structure written by MMmdl.
 45 48  0  0  0  0  0  0  0  0  3 V2000
  151.2974  141.0782  157.0681 O   0  0  0  0  0  0  0  0  0  0  0  0
  150.7379  142.1734  157.0043 C   0  0  0  0  0  0  0  0  0  0  0  0
  151.4293  143.4351  157.5405 C   0  0  0  0  0  0  0  0  0  0  0  0
  151.9871  143.2619  158.8924 N   0  0  0  0  0  0  0  0  0  0  0  0
  152.9654  142.2617  159.0590 C   0  0  0  0  0  0  0  0  0  0  0  0
  153.5390  142.0132  160.2528 C   0  0  0  0  0  0  0  0  0  0  0  0
  154.5374  140.9781  160.4075 N   0  3  0  0  0  0  0  0  0  0  0  0
  155.0597  140.8238  161.5069 O   0  0  0  0  0  0  0  0  0  0  0  0
  154.8337  140.2864  159.4377 O   0  5  0  0  0  0  0  0  0  0  0  0
  153.1179  142.8175  161.3835 C   0  0  0  0  0  0  0  0  0  0  0  0
  152.1792  143.7725  161.2317 C   0  0  0  0  0  0  0  0  0  0  0  0
  151.5529  144.0378  159.9325 C   0  0  0  0  0  0  0  0  0  0  0  0
  150.6907  144.9048  159.7886 O   0  0  0  0  0  0  0  0  0  0  0  0
  149.5226  142.3630  156.4622 N   0  0  0  0  0  0  0  0  0  0  0  0
  148.6231  141.3656  155.8727 C   0  0  0  0  0  0  0  0  0  0  0  0
  148.1913  140.2992  156.9164 C   0  0  0  0  0  0  0  0  0  0  0  0
  147.3003  139.2344  156.2401 C   0  0  1  0  0  0  0  0  0  0  0  0
  146.0453  139.9104  155.6460 C   0  0  0  0  0  0  0  0  0  0  0  0
  146.4743  140.9534  154.5909 C   0  0  2  0  0  0  0  0  0  0  0  0
  147.2649  140.2546  153.4652 C   0  0  0  0  0  0  0  0  0  0  0  0
  148.5168  139.5829  154.0663 C   0  0  2  0  0  0  0  0  0  0  0  0
  148.0912  138.5347  155.1153 C   0  0  0  0  0  0  0  0  0  0  0  0
  149.4026  140.6536  154.7378 C   0  0  0  0  0  0  0  0  0  0  0  0
  147.3597  142.0286  155.2579 C   0  0  0  0  0  0  0  0  0  0  0  0
  152.2121  143.7183  156.8357 H   0  0  0  0  0  0  0  0  0  0  0  0
  150.7235  144.2682  157.5307 H   0  0  0  0  0  0  0  0  0  0  0  0
  153.2038  141.7134  158.1591 H   0  0  0  0  0  0  0  0  0  0  0  0
  153.5506  142.6588  162.3604 H   0  0  0  0  0  0  0  0  0  0  0  0
  151.8795  144.3588  162.0881 H   0  0  0  0  0  0  0  0  0  0  0  0
  149.1740  143.3107  156.4627 H   0  0  0  0  0  0  0  0  0  0  0  0
  149.0680  139.8251  157.3598 H   0  0  0  0  0  0  0  0  0  0  0  0
  147.6412  140.7546  157.7399 H   0  0  0  0  0  0  0  0  0  0  0  0
  146.9956  138.4951  156.9815 H   0  0  0  0  0  0  0  0  0  0  0  0
  145.3928  139.1625  155.1936 H   0  0  0  0  0  0  0  0  0  0  0  0
  145.4643  140.3885  156.4355 H   0  0  0  0  0  0  0  0  0  0  0  0
  145.5874  141.4271  154.1689 H   0  0  0  0  0  0  0  0  0  0  0  0
  146.6393  139.5126  152.9673 H   0  0  0  0  0  0  0  0  0  0  0  0
  147.5535  140.9772  152.7008 H   0  0  0  0  0  0  0  0  0  0  0  0
  149.0804  139.0919  153.2724 H   0  0  0  0  0  0  0  0  0  0  0  0
  148.9676  138.0320  155.5259 H   0  0  0  0  0  0  0  0  0  0  0  0
  147.4808  137.7601  154.6494 H   0  0  0  0  0  0  0  0  0  0  0  0
  149.7329  141.3783  153.9918 H   0  0  0  0  0  0  0  0  0  0  0  0
  150.3075  140.1887  155.1323 H   0  0  0  0  0  0  0  0  0  0  0  0
  146.7777  142.5476  156.0195 H   0  0  0  0  0  0  0  0  0  0  0  0
  147.6459  142.7837  154.5243 H   0  0  0  0  0  0  0  0  0  0  0  0
  1  2  2  0  0  0  0
  2  3  1  0  0  0  0
  2 14  1  0  0  0  0
  3  4  1  0  0  0  0
  3 25  1  0  0  0  0
  3 26  1  0  0  0  0
  4 12  1  0  0  0  0
  4  5  1  0  0  0  0
  5  6  2  0  0  0  0
  5 27  1  0  0  0  0
  6  7  1  0  0  0  0
  6 10  1  0  0  0  0
  7  8  2  0  0  0  0
  7  9  1  0  0  0  0
 10 11  2  0  0  0  0
 10 28  1  0  0  0  0
 11 12  1  0  0  0  0
 11 29  1  0  0  0  0
 12 13  2  0  0  0  0
 14 15  1  0  0  0  0
 14 30  1  0  0  0  0
 15 23  1  0  0  0  0
 15 24  1  0  0  0  0
 15 16  1  0  0  0  0
 16 17  1  0  0  0  0
 16 31  1  0  0  0  0
 16 32  1  0  0  0  0
 17 22  1  0  0  0  0
 17 18  1  0  0  0  0
 17 33  1  0  0  0  0
 18 19  1  0  0  0  0
 18 34  1  0  0  0  0
 18 35  1  0  0  0  0
 19 20  1  0  0  0  0
 19 24  1  0  0  0  0
 19 36  1  0  0  0  0
 20 21  1  0  0  0  0
 20 37  1  0  0  0  0
 20 38  1  0  0  0  0
 21 22  1  0  0  0  0
 21 23  1  0  0  0  0
 21 39  1  0  0  0  0
 22 40  1  0  0  0  0
 22 41  1  0  0  0  0
 23 42  1  0  0  0  0
 23 43  1  0  0  0  0
 24 44  1  0  0  0  0
 24 45  1  0  0  0  0
M  CHG  1   7   1
M  CHG  1   9  -1
M  END
> <s_m_source_file>
AV-unprocessed.smi

> <i_m_source_file_index>
1837

> <i_lp_mmshare_version>
43012

> <i_f3d_flags>
0

> <s_epik_input>
Tz1jMVtjSF1bY0hdYyhbTitdKD1PKVtPLV0pW2NIXW4xW0NIMl1DKD1PKVtOSF1DMjNbQ0gyXVtDQEhdNFtDSDJdW0NAQEhdKFtDSDJdMylbQ0gyXVtDQEhdKFtDSDJdNClbQ0gyXTI=

> <s_epik_cmdline>
J2VwaWtfcHl0aG9uJywgJy1waCcsICc3LjAnLCAnLXRuJywgJzgnLCAnLW1hJywgJzIwMCcsICctbWV0YWxfYmluZGluZycsICctaW1hZScsICc8aW5maWxlLm1hZT4nLCAnLW9tYWUnLCAnPG91dGZpbGUubWFlPic=

> <r_lp_tautomer_probability>
1

> <r_epik_Ionization_Penalty>
2.34466e-08

> <r_epik_Ionization_Penalty_Charging>
8.88262e-11

> <r_epik_Ionization_Penalty_Neutral>
2.33578e-08

> <r_epik_State_Penalty>
-0

> <r_epik_Charging_Adjusted_Penalty>
8.88262e-11

> <i_epik_Tot_Q>
0

> <i_epik_Tot_abs_Q>
2

> <r_epik_Metal_State_Penalty>
-0

> <b_epik_Metal_Only>
0

> <s_lp_Force_Field>
OPLS_2005

> <r_lp_Energy>
41.9783

> <b_lp_Chiralities_Consistent>
1

> <s_lp_Variant>
AV-unprocessed.smi:1837-1

> <Gold.Version>
5.8.1

> <Gold.Id.Protein>
6NUR|6NUR_protein|mol2

> <Gold.PLP.Fitness>
50.0270

> <Gold.PLP.PLP>
-44.7714

> <Gold.PLP.part.hbond>
-3.0000

> <Gold.PLP.part.metal>
0.0000

> <Gold.PLP.part.buried>
-2.3765

> <Gold.PLP.part.nonpolar>
-39.5056

> <Gold.PLP.part.repulsive>
0.2420

> <Gold.PLP.ligand.clash>
0.0000

> <Gold.PLP.ligand.torsion>
0.1476

> <Gold.PLP.Chemscore.Hbond>
1.8445

> <Gold.PLP.Chemscore.CHOScore>
0.0000

> <Gold.PLP.Chemscore.Metal>
0.0000

> <Gold.Chemscore.Hbonds>
donor molecule, donor type, donor heavy atom, donor atom, acceptor molecule, acceptor atom, score
      L1  H    14    30       P1  8028  1.00
      P1  H  7997  8008       L1     9  0.68

> <Gold.PLP.Chemscore.Internal.Correction>
0.0174

> <Gold.Rescore>
     Score         DG    S(hbond)    S(metal)    S(lipo)     H(rot)  DE(clash)    DE(int)     intcor
     17.32     -19.01       1.87        0.00      95.85       1.53       0.22       1.47       ----

> <Gold.Chemscore.Fitness>
17.3209

> <Gold.Chemscore.DG>
-19.0088

> <Gold.Chemscore.ZeroCoef>
-5.4800

> <Gold.Chemscore.Hbond>
1.8682

> <Gold.Chemscore.Metal>
0.0000

> <Gold.Chemscore.Lipo>
95.8461

> <Gold.Chemscore.Internal_Hbond>
0.0000

> <Gold.Chemscore.DEClash>
0.2182

> <Gold.Chemscore.DEInternal>
1.4697

> <Gold.Chemscore.Rot>
1.5332

> <Gold.Chemscore.Internal.Correction>
   9.000000E+99

> <Gold.Chemscore.Hbonds>
donor molecule, donor type, donor heavy atom, donor atom, acceptor molecule, acceptor atom, score
      L1  H    14    30       P1  8028  0.94
      P1  H  7997  8008       L1     9  0.68

> <Gold.Chemscore.Hbond.Weighted>
-6.2397

> <Gold.Chemscore.Metal.Weighted>
-0.0000

> <Gold.Chemscore.Lipo.Weighted>
-11.2140

> <Gold.Chemscore.Internal_Hbond.Weighted>
0.0000

> <Gold.Chemscore.DEClash.Weighted>
0.2182

> <Gold.Chemscore.DEInternal.Weighted>
1.4697

> <Gold.Chemscore.Rot.Weighted>
3.9249

> <Gold.Chemscore.Internal.Correction.Weighted>
   9.000000E+99

> <Gold.Protein.RotatedTorsions>
[ 6907 6896 6895 6894 ] final  -33.10 input  -60.11 | X-H torsion
[ 7974 7965 7964 7962 ] final  129.78 input  175.53 | X-H torsion
[ 8008 7997 7996 7995 ] final -121.86 input   59.86 | X-H torsion
[ 10167 10162 10161 10158 ] final   -1.83 input  -65.29 | X-H torsion
[ 10718 10713 10712 10709 ] final    7.50 input   66.30 | X-H torsion
[ 10763 10752 10751 10750 ] final  -12.33 input  -60.55 | X-H torsion
[ 11005 11000 10999 10996 ] final -148.88 input  -57.11 | X-H torsion

> <Gold.Protein.ActiveResidues>
 VAL166  LYS551  ARG553  GLY616  TRP617  ASP618  TYR619  PRO620  LYS621  CYS622 
 ASP623  PHE694  ASN695  SER759  ASP760  ASP761  ALA762  ILE779  LEU786  VAL792 
 PHE793  MET794  SER795  GLU796  ALA797  LYS798  CYS799  TRP800  GLU811  SER814 

> <Gold.Protein.RotatedAtoms>
  151.0700  134.9792  159.8303 H   0  0  0  0  0  0  0  0  0  0  0  0  # atno 6907 bound_to 6896
  152.5407  134.2311  159.8835 H   0  0  0  0  0  0  0  0  0  0  0  0  # atno 6908 bound_to 6896
  151.2335  133.4394  159.2638 H   0  0  0  0  0  0  0  0  0  0  0  0  # atno 6909 bound_to 6896
  145.0250  139.4098  143.5178 H   0  0  0  0  0  0  0  0  0  0  0  0  # atno 7974 bound_to 7965
  155.1549  140.0404  157.2829 H   0  0  0  0  0  0  0  0  0  0  0  0  # atno 8008 bound_to 7997
  154.6377  140.2539  155.7331 H   0  0  0  0  0  0  0  0  0  0  0  0  # atno 8009 bound_to 7997
  156.2517  140.2862  156.0757 H   0  0  0  0  0  0  0  0  0  0  0  0  # atno 8010 bound_to 7997
  140.6826  143.6729  150.8170 H   0  0  0  0  0  0  0  0  0  0  0  0  # atno 10167 bound_to 10162
  156.9378  130.5850  149.5651 H   0  0  0  0  0  0  0  0  0  0  0  0  # atno 10718 bound_to 10713
  153.4969  135.7017  153.5853 H   0  0  0  0  0  0  0  0  0  0  0  0  # atno 10763 bound_to 10752
  153.4001  135.3874  155.1982 H   0  0  0  0  0  0  0  0  0  0  0  0  # atno 10764 bound_to 10752
  154.8713  135.3879  154.4435 H   0  0  0  0  0  0  0  0  0  0  0  0  # atno 10765 bound_to 10752
  140.7566  134.3346  157.5112 H   0  0  0  0  0  0  0  0  0  0  0  0  # atno 11005 bound_to 11000
  146.3491  139.9768  142.8700 LP  0  0  0  0  0  0  0  0  0  0  0  0  # atno 17320 bound_to 7965
  145.1846  140.9783  143.4246 LP  0  0  0  0  0  0  0  0  0  0  0  0  # atno 17321 bound_to 7965
  140.0431  143.5325  152.2708 LP  0  0  0  0  0  0  0  0  0  0  0  0  # atno 17342 bound_to 10162
  139.6160  144.7619  151.2846 LP  0  0  0  0  0  0  0  0  0  0  0  0  # atno 17343 bound_to 10162
  156.0418  130.5499  150.8788 LP  0  0  0  0  0  0  0  0  0  0  0  0  # atno 17370 bound_to 10713
  157.5805  131.0946  150.9279 LP  0  0  0  0  0  0  0  0  0  0  0  0  # atno 17371 bound_to 10713
  139.8778  134.9176  156.3182 LP  0  0  0  0  0  0  0  0  0  0  0  0  # atno 17394 bound_to 11000
  140.9702  133.7332  156.0523 LP  0  0  0  0  0  0  0  0  0  0  0  0  # atno 17395 bound_to 11000

$$$$
