AV-unprocessed.smi:2168|AV-procd|sdf|8820|dock6
  -GOLD-   2272012 13D 1   1.00000     0.00000
 Structure written by MMmdl.
 45 46  0  0  0  0  0  0  0  0  2 V2000
  150.8883  140.5255  157.0730 C   0  0  0  0  0  0  0  0  0  0  0  0
  150.9504  139.0873  157.6099 C   0  0  0  0  0  0  0  0  0  0  0  0
  151.4050  138.1180  156.5923 N   0  0  0  0  0  0  0  0  0  0  0  0
  151.8355  138.6598  155.2867 C   0  0  0  0  0  0  0  0  0  0  0  0
  150.8994  138.2705  154.1312 C   0  0  0  0  0  0  0  0  0  0  0  0
  151.6688  136.4408  157.0076 S   0  0  0  0  0  0  0  0  0  0  0  0
  153.1206  136.2351  156.8873 O   0  0  0  0  0  0  0  0  0  0  0  0
  151.0627  136.2389  158.3357 O   0  0  0  0  0  0  0  0  0  0  0  0
  150.8595  135.7550  155.7709 N   0  5  0  0  0  0  0  0  0  0  0  0
  150.4365  134.3631  155.8005 C   0  0  0  0  0  0  0  0  0  0  0  0
  149.3169  134.1058  154.8030 C   0  0  0  0  0  0  0  0  0  0  0  0
  149.4685  133.1601  153.7659 C   0  0  0  0  0  0  0  0  0  0  0  0
  148.4097  132.9655  152.8573 C   0  0  0  0  0  0  0  0  0  0  0  0
  147.2214  133.7195  153.0065 C   0  0  0  0  0  0  0  0  0  0  0  0
  146.1501  133.5485  152.1019 N   0  0  0  0  0  0  0  0  0  0  0  0
  146.1710  132.3798  151.2235 C   0  0  0  0  0  0  0  0  0  0  0  0
  144.8026  132.1925  150.5472 C   0  0  0  0  0  0  0  0  0  0  0  0
  144.4350  133.3881  149.8676 O   0  0  0  0  0  0  0  0  0  0  0  0
  144.3103  134.4882  150.7625 C   0  0  0  0  0  0  0  0  0  0  0  0
  145.6611  134.7593  151.4472 C   0  0  0  0  0  0  0  0  0  0  0  0
  147.0799  134.6281  154.0031 N   0  0  0  0  0  0  0  0  0  0  0  0
  148.0967  134.8134  154.8727 C   0  0  0  0  0  0  0  0  0  0  0  0
  150.4721  141.1974  157.8232 H   0  0  0  0  0  0  0  0  0  0  0  0
  150.2661  140.6001  156.1818 H   0  0  0  0  0  0  0  0  0  0  0  0
  151.8804  140.8986  156.8199 H   0  0  0  0  0  0  0  0  0  0  0  0
  151.6266  139.0459  158.4638 H   0  0  0  0  0  0  0  0  0  0  0  0
  149.9736  138.7887  157.9912 H   0  0  0  0  0  0  0  0  0  0  0  0
  151.9009  139.7457  155.3451 H   0  0  0  0  0  0  0  0  0  0  0  0
  152.8450  138.3058  155.0774 H   0  0  0  0  0  0  0  0  0  0  0  0
  151.2082  138.7617  153.2085 H   0  0  0  0  0  0  0  0  0  0  0  0
  149.8713  138.5673  154.3320 H   0  0  0  0  0  0  0  0  0  0  0  0
  150.9085  137.1971  153.9439 H   0  0  0  0  0  0  0  0  0  0  0  0
  151.2595  133.6873  155.5653 H   0  0  0  0  0  0  0  0  0  0  0  0
  150.0886  134.0658  156.7903 H   0  0  0  0  0  0  0  0  0  0  0  0
  150.3798  132.5898  153.6469 H   0  0  0  0  0  0  0  0  0  0  0  0
  148.5333  132.2590  152.0505 H   0  0  0  0  0  0  0  0  0  0  0  0
  146.9469  132.5103  150.4680 H   0  0  0  0  0  0  0  0  0  0  0  0
  146.4162  131.4819  151.7920 H   0  0  0  0  0  0  0  0  0  0  0  0
  144.8487  131.3747  149.8281 H   0  0  0  0  0  0  0  0  0  0  0  0
  144.0393  131.9285  151.2810 H   0  0  0  0  0  0  0  0  0  0  0  0
  143.9906  135.3669  150.2024 H   0  0  0  0  0  0  0  0  0  0  0  0
  143.5344  134.2828  151.5021 H   0  0  0  0  0  0  0  0  0  0  0  0
  145.5406  135.5824  152.1497 H   0  0  0  0  0  0  0  0  0  0  0  0
  146.3963  135.0795  150.7078 H   0  0  0  0  0  0  0  0  0  0  0  0
  147.9129  135.5548  155.6380 H   0  0  0  0  0  0  0  0  0  0  0  0
  1  2  1  0  0  0  0
  1 23  1  0  0  0  0
  1 24  1  0  0  0  0
  1 25  1  0  0  0  0
  2  3  1  0  0  0  0
  2 26  1  0  0  0  0
  2 27  1  0  0  0  0
  3  4  1  0  0  0  0
  3  6  1  0  0  0  0
  4  5  1  0  0  0  0
  4 28  1  0  0  0  0
  4 29  1  0  0  0  0
  5 30  1  0  0  0  0
  5 31  1  0  0  0  0
  5 32  1  0  0  0  0
  6  7  2  0  0  0  0
  6  8  2  0  0  0  0
  6  9  1  0  0  0  0
  9 10  1  0  0  0  0
 10 11  1  0  0  0  0
 10 33  1  0  0  0  0
 10 34  1  0  0  0  0
 11 22  1  0  0  0  0
 11 12  2  0  0  0  0
 12 13  1  0  0  0  0
 12 35  1  0  0  0  0
 13 14  2  0  0  0  0
 13 36  1  0  0  0  0
 14 15  1  0  0  0  0
 14 21  1  0  0  0  0
 15 20  1  0  0  0  0
 15 16  1  0  0  0  0
 16 17  1  0  0  0  0
 16 37  1  0  0  0  0
 16 38  1  0  0  0  0
 17 18  1  0  0  0  0
 17 39  1  0  0  0  0
 17 40  1  0  0  0  0
 18 19  1  0  0  0  0
 19 20  1  0  0  0  0
 19 41  1  0  0  0  0
 19 42  1  0  0  0  0
 20 43  1  0  0  0  0
 20 44  1  0  0  0  0
 21 22  2  0  0  0  0
 22 45  1  0  0  0  0
M  CHG  1   9  -1
M  END
> <s_m_source_file>
AV-unprocessed.smi

> <i_m_source_file_index>
2168

> <i_lp_mmshare_version>
43012

> <i_f3d_flags>
0

> <s_epik_input>
W0NIM11bQ0gyXU4oW0NIMl1bQ0gzXSlTKD1PKSg9TylbTkhdW0NIMl1jMVtjSF1bY0hdYyhuW2NIXTEpTjJbQ0gyXVtDSDJdT1tDSDJdW0NIMl0y

> <s_epik_cmdline>
J2VwaWtfcHl0aG9uJywgJy1waCcsICc3LjAnLCAnLXRuJywgJzgnLCAnLW1hJywgJzIwMCcsICctbWV0YWxfYmluZGluZycsICctaW1hZScsICc8aW5maWxlLm1hZT4nLCAnLW9tYWUnLCAnPG91dGZpbGUubWFlPic=

> <r_lp_tautomer_probability>
1

> <r_epik_Ionization_Penalty>
2.49252

> <r_epik_Ionization_Penalty_Charging>
2.41478

> <r_epik_Ionization_Penalty_Neutral>
0.0777351

> <r_epik_State_Penalty>
2.68884

> <r_epik_Charging_Adjusted_Penalty>
5.10362

> <i_epik_Tot_Q>
-1

> <i_epik_Tot_abs_Q>
1

> <r_epik_Metal_State_Penalty>
0.584574

> <b_epik_Metal_Only>
0

> <s_lp_Force_Field>
OPLS_2005

> <r_lp_Energy>
16.7

> <b_lp_Chiralities_Consistent>
1

> <s_lp_Variant>
AV-unprocessed.smi:2168-3

> <Gold.Version>
5.8.1

> <Gold.Id.Protein>
6NUR|6NUR_protein|mol2

> <Gold.PLP.Fitness>
39.6502

> <Gold.PLP.PLP>
-35.4784

> <Gold.PLP.part.hbond>
-2.5237

> <Gold.PLP.part.metal>
0.0000

> <Gold.PLP.part.buried>
-6.0373

> <Gold.PLP.part.nonpolar>
-27.6177

> <Gold.PLP.part.repulsive>
0.6189

> <Gold.PLP.ligand.clash>
0.0000

> <Gold.PLP.ligand.torsion>
2.2121

> <Gold.PLP.Chemscore.Hbond>
1.6240

> <Gold.PLP.Chemscore.CHOScore>
0.0000

> <Gold.PLP.Chemscore.Metal>
0.0000

> <Gold.Chemscore.Hbonds>
donor molecule, donor type, donor heavy atom, donor atom, acceptor molecule, acceptor atom, score
      P1  H  6896  6907       L1     8  0.61
      P1  H 10752 10765       L1     7  1.00

> <Gold.PLP.Chemscore.Internal.Correction>
3.7240

> <Gold.Rescore>
     Score         DG    S(hbond)    S(metal)    S(lipo)     H(rot)  DE(clash)    DE(int)     intcor
     13.25     -15.59       1.60        0.00      77.16       1.66       0.02       2.32       ----

> <Gold.Chemscore.Fitness>
13.2510

> <Gold.Chemscore.DG>
-15.5945

> <Gold.Chemscore.ZeroCoef>
-5.4800

> <Gold.Chemscore.Hbond>
1.6008

> <Gold.Chemscore.Metal>
0.0000

> <Gold.Chemscore.Lipo>
77.1630

> <Gold.Chemscore.Internal_Hbond>
0.0000

> <Gold.Chemscore.DEClash>
0.0195

> <Gold.Chemscore.DEInternal>
2.3240

> <Gold.Chemscore.Rot>
1.6642

> <Gold.Chemscore.Internal.Correction>
   9.000000E+99

> <Gold.Chemscore.Hbonds>
donor molecule, donor type, donor heavy atom, donor atom, acceptor molecule, acceptor atom, score
      P1  H  6896  6907       L1     8  0.62
      P1  H 10752 10765       L1     7  0.94

> <Gold.Chemscore.Hbond.Weighted>
-5.3468

> <Gold.Chemscore.Metal.Weighted>
-0.0000

> <Gold.Chemscore.Lipo.Weighted>
-9.0281

> <Gold.Chemscore.Internal_Hbond.Weighted>
0.0000

> <Gold.Chemscore.DEClash.Weighted>
0.0195

> <Gold.Chemscore.DEInternal.Weighted>
2.3240

> <Gold.Chemscore.Rot.Weighted>
4.2604

> <Gold.Chemscore.Internal.Correction.Weighted>
   9.000000E+99

> <Gold.Protein.RotatedTorsions>
[ 6907 6896 6895 6894 ] final  -22.32 input  -60.11 | X-H torsion
[ 7974 7965 7964 7962 ] final -160.49 input  175.53 | X-H torsion
[ 8008 7997 7996 7995 ] final  147.76 input   59.86 | X-H torsion
[ 10167 10162 10161 10158 ] final -168.87 input  -65.29 | X-H torsion
[ 10718 10713 10712 10709 ] final   57.40 input   66.30 | X-H torsion
[ 10763 10752 10751 10750 ] final -108.96 input  -60.55 | X-H torsion
[ 11005 11000 10999 10996 ] final   74.45 input  -57.11 | X-H torsion

> <Gold.Protein.ActiveResidues>
 VAL166  LYS551  ARG553  GLY616  TRP617  ASP618  TYR619  PRO620  LYS621  CYS622 
 ASP623  PHE694  ASN695  SER759  ASP760  ASP761  ALA762  ILE779  LEU786  VAL792 
 PHE793  MET794  SER795  GLU796  ALA797  LYS798  CYS799  TRP800  GLU811  SER814 

> <Gold.Protein.RotatedAtoms>
  151.2204  135.0516  159.8947 H   0  0  0  0  0  0  0  0  0  0  0  0  # atno 6907 bound_to 6896
  152.5416  134.0647  159.8178 H   0  0  0  0  0  0  0  0  0  0  0  0  # atno 6908 bound_to 6896
  151.0812  133.5340  159.2652 H   0  0  0  0  0  0  0  0  0  0  0  0  # atno 6909 bound_to 6896
  144.7425  140.3534  143.6111 H   0  0  0  0  0  0  0  0  0  0  0  0  # atno 7974 bound_to 7965
  156.2814  140.2147  156.5590 H   0  0  0  0  0  0  0  0  0  0  0  0  # atno 8008 bound_to 7997
  154.7229  140.0502  157.0679 H   0  0  0  0  0  0  0  0  0  0  0  0  # atno 8009 bound_to 7997
  155.0455  140.3150  155.4713 H   0  0  0  0  0  0  0  0  0  0  0  0  # atno 8010 bound_to 7997
  139.5958  144.1116  152.1687 H   0  0  0  0  0  0  0  0  0  0  0  0  # atno 10167 bound_to 10162
  157.5511  130.8766  149.8965 H   0  0  0  0  0  0  0  0  0  0  0  0  # atno 10718 bound_to 10713
  154.8166  135.4618  154.0660 H   0  0  0  0  0  0  0  0  0  0  0  0  # atno 10763 bound_to 10752
  153.2048  135.6874  153.8193 H   0  0  0  0  0  0  0  0  0  0  0  0  # atno 10764 bound_to 10752
  153.7664  135.3276  155.3322 H   0  0  0  0  0  0  0  0  0  0  0  0  # atno 10765 bound_to 10752
  139.9390  134.7434  156.1149 H   0  0  0  0  0  0  0  0  0  0  0  0  # atno 11005 bound_to 11000
  145.7252  139.1721  143.2462 LP  0  0  0  0  0  0  0  0  0  0  0  0  # atno 17320 bound_to 7965
  146.1247  140.7263  142.9440 LP  0  0  0  0  0  0  0  0  0  0  0  0  # atno 17321 bound_to 7965
  140.0701  144.5786  150.7198 LP  0  0  0  0  0  0  0  0  0  0  0  0  # atno 17342 bound_to 10162
  140.7210  143.2589  151.4277 LP  0  0  0  0  0  0  0  0  0  0  0  0  # atno 17343 bound_to 10162
  156.0578  130.3705  150.1051 LP  0  0  0  0  0  0  0  0  0  0  0  0  # atno 17370 bound_to 10713
  156.9224  130.9687  151.3546 LP  0  0  0  0  0  0  0  0  0  0  0  0  # atno 17371 bound_to 10713
  141.1017  133.6675  156.2770 LP  0  0  0  0  0  0  0  0  0  0  0  0  # atno 17394 bound_to 11000
  140.6000  134.5565  157.5515 LP  0  0  0  0  0  0  0  0  0  0  0  0  # atno 17395 bound_to 11000

$$$$
