AV-unprocessed.smi:677|AV-procd|sdf|3312|dock9
  -GOLD-   22720 0273D 1   1.00000     0.00000
 Structure written by MMmdl.
 44 45  0  0  0  0  0  0  0  0  2 V2000
  146.2756  142.8389  154.2983 C   0  0  0  0  0  0  0  0  0  0  0  0
  147.2280  141.6642  154.3722 C   0  0  0  0  0  0  0  0  0  0  0  0
  146.8745  140.3750  153.9189 C   0  0  0  0  0  0  0  0  0  0  0  0
  147.8140  139.3279  154.0198 C   0  0  0  0  0  0  0  0  0  0  0  0
  149.0878  139.5901  154.5715 C   0  0  0  0  0  0  0  0  0  0  0  0
  150.1181  138.4829  154.7022 C   0  0  0  0  0  0  0  0  0  0  0  0
  151.3887  139.0259  155.3558 C   0  0  0  0  0  0  0  0  0  0  0  0
  152.1143  139.8010  154.7330 O   0  0  0  0  0  0  0  0  0  0  0  0
  151.6311  138.6309  156.6154 N   0  0  0  0  0  0  0  0  0  0  0  0
  152.7613  139.0591  157.4343 C   0  0  0  0  0  0  0  0  0  0  0  0
  152.3499  140.0901  158.5058 C   0  0  0  0  0  0  0  0  0  0  0  0
  151.6988  141.3580  157.9192 C   0  0  0  0  0  0  0  0  0  0  0  0
  151.3903  142.3892  159.0194 C   0  0  0  0  0  0  0  0  0  0  0  0
  152.6121  142.7566  159.7351 N   0  0  0  0  0  0  0  0  0  0  0  0
  152.2885  143.7812  160.7224 C   0  0  0  0  0  0  0  0  0  0  0  0
  151.7980  145.0261  160.1073 C   0  0  0  0  0  0  0  0  0  0  0  0
  151.4125  146.0046  159.6247 N   0  0  0  0  0  0  0  0  0  0  0  0
  153.1685  141.5751  160.3982 C   0  0  0  0  0  0  0  0  0  0  0  0
  153.5598  140.5152  159.3542 C   0  0  0  0  0  0  0  0  0  0  0  0
  149.3846  140.8995  155.0081 C   0  0  0  0  0  0  0  0  0  0  0  0
  148.4568  141.8748  154.8947 N   0  3  0  0  0  0  0  0  0  0  0  0
  145.3221  142.5455  153.8582 H   0  0  0  0  0  0  0  0  0  0  0  0
  146.7016  143.6356  153.6877 H   0  0  0  0  0  0  0  0  0  0  0  0
  146.0829  143.2342  155.2961 H   0  0  0  0  0  0  0  0  0  0  0  0
  145.8967  140.1876  153.4998 H   0  0  0  0  0  0  0  0  0  0  0  0
  147.5569  138.3351  153.6800 H   0  0  0  0  0  0  0  0  0  0  0  0
  149.7060  137.6572  155.2848 H   0  0  0  0  0  0  0  0  0  0  0  0
  150.3618  138.0836  153.7170 H   0  0  0  0  0  0  0  0  0  0  0  0
  150.9799  137.9891  157.0441 H   0  0  0  0  0  0  0  0  0  0  0  0
  153.1646  138.1701  157.9200 H   0  0  0  0  0  0  0  0  0  0  0  0
  153.5685  139.4548  156.8152 H   0  0  0  0  0  0  0  0  0  0  0  0
  151.6263  139.6155  159.1704 H   0  0  0  0  0  0  0  0  0  0  0  0
  152.3577  141.8044  157.1731 H   0  0  0  0  0  0  0  0  0  0  0  0
  150.7728  141.1061  157.4022 H   0  0  0  0  0  0  0  0  0  0  0  0
  150.9547  143.2805  158.5666 H   0  0  0  0  0  0  0  0  0  0  0  0
  150.6519  141.9918  159.7176 H   0  0  0  0  0  0  0  0  0  0  0  0
  151.4971  143.4237  161.3822 H   0  0  0  0  0  0  0  0  0  0  0  0
  153.1541  144.0142  161.3444 H   0  0  0  0  0  0  0  0  0  0  0  0
  154.0531  141.8531  160.9714 H   0  0  0  0  0  0  0  0  0  0  0  0
  152.4458  141.1648  161.1054 H   0  0  0  0  0  0  0  0  0  0  0  0
  153.9848  139.6468  159.8585 H   0  0  0  0  0  0  0  0  0  0  0  0
  154.3458  140.9129  158.7102 H   0  0  0  0  0  0  0  0  0  0  0  0
  150.3271  141.1930  155.4473 H   0  0  0  0  0  0  0  0  0  0  0  0
  148.6940  142.8122  155.2200 H   0  0  0  0  0  0  0  0  0  0  0  0
  1  2  1  0  0  0  0
  1 22  1  0  0  0  0
  1 23  1  0  0  0  0
  1 24  1  0  0  0  0
  2 21  1  0  0  0  0
  2  3  2  0  0  0  0
  3  4  1  0  0  0  0
  3 25  1  0  0  0  0
  4  5  2  0  0  0  0
  4 26  1  0  0  0  0
  5  6  1  0  0  0  0
  5 20  1  0  0  0  0
  6  7  1  0  0  0  0
  6 27  1  0  0  0  0
  6 28  1  0  0  0  0
  7  8  2  0  0  0  0
  7  9  1  0  0  0  0
  9 10  1  0  0  0  0
  9 29  1  0  0  0  0
 10 11  1  0  0  0  0
 10 30  1  0  0  0  0
 10 31  1  0  0  0  0
 11 19  1  0  0  0  0
 11 12  1  0  0  0  0
 11 32  1  0  0  0  0
 12 13  1  0  0  0  0
 12 33  1  0  0  0  0
 12 34  1  0  0  0  0
 13 14  1  0  0  0  0
 13 35  1  0  0  0  0
 13 36  1  0  0  0  0
 14 15  1  0  0  0  0
 14 18  1  0  0  0  0
 15 16  1  0  0  0  0
 15 37  1  0  0  0  0
 15 38  1  0  0  0  0
 16 17  3  0  0  0  0
 18 19  1  0  0  0  0
 18 39  1  0  0  0  0
 18 40  1  0  0  0  0
 19 41  1  0  0  0  0
 19 42  1  0  0  0  0
 20 21  2  0  0  0  0
 20 43  1  0  0  0  0
 21 44  1  0  0  0  0
M  CHG  1  21   1
M  END
> <s_m_source_file>
AV-unprocessed.smi

> <i_m_source_file_index>
677

> <i_lp_mmshare_version>
43012

> <i_f3d_flags>
0

> <s_epik_input>
W0NIM11jMVtjSF1bY0hdYyhbY0hdbjEpW0NIMl1DKD1PKVtOSF1bQ0gyXVtDSF0yW0NIMl1bQ0gyXU4oW0NIMl1DI04pW0NIMl1bQ0gyXTI=

> <s_epik_cmdline>
J2VwaWtfcHl0aG9uJywgJy1waCcsICc3LjAnLCAnLXRuJywgJzgnLCAnLW1hJywgJzIwMCcsICctbWV0YWxfYmluZGluZycsICctaW1hZScsICc8aW5maWxlLm1hZT4nLCAnLW9tYWUnLCAnPG91dGZpbGUubWFlPic=

> <r_epik_Ionization_Penalty>
2.12868

> <r_epik_Ionization_Penalty_Charging>
2.12771

> <r_epik_Ionization_Penalty_Neutral>
0.000970756

> <r_epik_State_Penalty>
2.26584

> <r_epik_Charging_Adjusted_Penalty>
4.39355

> <i_epik_Tot_Q>
1

> <i_epik_Tot_abs_Q>
1

> <r_epik_Metal_State_Penalty>
2.28211

> <b_epik_Metal_Only>
0

> <s_lp_Force_Field>
OPLS_2005

> <r_lp_Energy>
22.0212

> <b_lp_Chiralities_Consistent>
1

> <s_lp_Variant>
AV-unprocessed.smi:677-2

> <Gold.Version>
5.8.1

> <Gold.Id.Protein>
6NUR|6NUR_protein|mol2

> <Gold.PLP.Fitness>
54.0334

> <Gold.PLP.PLP>
-46.1016

> <Gold.PLP.part.hbond>
-3.5043

> <Gold.PLP.part.metal>
0.0000

> <Gold.PLP.part.buried>
-4.6068

> <Gold.PLP.part.nonpolar>
-37.5492

> <Gold.PLP.part.repulsive>
0.5246

> <Gold.PLP.ligand.clash>
0.0000

> <Gold.PLP.ligand.torsion>
0.2182

> <Gold.PLP.Chemscore.Hbond>
2.7840

> <Gold.PLP.Chemscore.CHOScore>
0.0000

> <Gold.PLP.Chemscore.Metal>
0.0000

> <Gold.Chemscore.Hbonds>
donor molecule, donor type, donor heavy atom, donor atom, acceptor molecule, acceptor atom, score
      L1  H    21    44       P1  8028  2.00
      P1  H  7989  7998       L1     8  0.82

> <Gold.PLP.Chemscore.Internal.Correction>
0.0163

> <Gold.Rescore>
     Score         DG    S(hbond)    S(metal)    S(lipo)     H(rot)  DE(clash)    DE(int)     intcor
     17.07     -18.72       1.81        0.00     102.14       1.86       0.62       1.03       ----

> <Gold.Chemscore.Fitness>
17.0674

> <Gold.Chemscore.DG>
-18.7243

> <Gold.Chemscore.ZeroCoef>
-5.4800

> <Gold.Chemscore.Hbond>
1.8128

> <Gold.Chemscore.Metal>
0.0000

> <Gold.Chemscore.Lipo>
102.1368

> <Gold.Chemscore.Internal_Hbond>
0.0000

> <Gold.Chemscore.DEClash>
0.6233

> <Gold.Chemscore.DEInternal>
1.0336

> <Gold.Chemscore.Rot>
1.8595

> <Gold.Chemscore.Internal.Correction>
   9.000000E+99

> <Gold.Chemscore.Hbonds>
donor molecule, donor type, donor heavy atom, donor atom, acceptor molecule, acceptor atom, score
      L1  H    21    44       P1  8028  0.99
      P1  H  7989  7998       L1     8  0.81

> <Gold.Chemscore.Hbond.Weighted>
-6.0546

> <Gold.Chemscore.Metal.Weighted>
-0.0000

> <Gold.Chemscore.Lipo.Weighted>
-11.9500

> <Gold.Chemscore.Internal_Hbond.Weighted>
0.0000

> <Gold.Chemscore.DEClash.Weighted>
0.6233

> <Gold.Chemscore.DEInternal.Weighted>
1.0336

> <Gold.Chemscore.Rot.Weighted>
4.7603

> <Gold.Chemscore.Internal.Correction.Weighted>
   9.000000E+99

> <Gold.Protein.RotatedTorsions>
[ 6907 6896 6895 6894 ] final    8.15 input  -60.11 | X-H torsion
[ 7974 7965 7964 7962 ] final  154.24 input  175.53 | X-H torsion
[ 8008 7997 7996 7995 ] final -137.50 input   59.86 | X-H torsion
[ 10167 10162 10161 10158 ] final  -86.49 input  -65.29 | X-H torsion
[ 10718 10713 10712 10709 ] final  168.16 input   66.30 | X-H torsion
[ 10763 10752 10751 10750 ] final  160.05 input  -60.55 | X-H torsion
[ 11005 11000 10999 10996 ] final  138.33 input  -57.11 | X-H torsion

> <Gold.Protein.ActiveResidues>
 VAL166  LYS551  ARG553  GLY616  TRP617  ASP618  TYR619  PRO620  LYS621  CYS622 
 ASP623  PHE694  ASN695  SER759  ASP760  ASP761  ALA762  ILE779  LEU786  VAL792 
 PHE793  MET794  SER795  GLU796  ALA797  LYS798  CYS799  TRP800  GLU811  SER814 

> <Gold.Protein.RotatedAtoms>
  151.7014  135.0929  160.0251 H   0  0  0  0  0  0  0  0  0  0  0  0  # atno 6907 bound_to 6896
  152.3718  133.6425  159.6102 H   0  0  0  0  0  0  0  0  0  0  0  0  # atno 6908 bound_to 6896
  150.7679  133.9174  159.3429 H   0  0  0  0  0  0  0  0  0  0  0  0  # atno 6909 bound_to 6896
  144.8102  139.6907  143.6145 H   0  0  0  0  0  0  0  0  0  0  0  0  # atno 7974 bound_to 7965
  155.4129  140.0513  157.3030 H   0  0  0  0  0  0  0  0  0  0  0  0  # atno 8008 bound_to 7997
  154.4938  140.2130  155.9451 H   0  0  0  0  0  0  0  0  0  0  0  0  # atno 8009 bound_to 7997
  156.1378  140.3160  155.8453 H   0  0  0  0  0  0  0  0  0  0  0  0  # atno 8010 bound_to 7997
  140.3937  143.2693  151.9232 H   0  0  0  0  0  0  0  0  0  0  0  0  # atno 10167 bound_to 10162
  157.0412  131.0287  151.2713 H   0  0  0  0  0  0  0  0  0  0  0  0  # atno 10718 bound_to 10713
  154.2413  135.2774  155.2852 H   0  0  0  0  0  0  0  0  0  0  0  0  # atno 10763 bound_to 10752
  154.5542  135.5666  153.6952 H   0  0  0  0  0  0  0  0  0  0  0  0  # atno 10764 bound_to 10752
  152.9999  135.6282  154.2558 H   0  0  0  0  0  0  0  0  0  0  0  0  # atno 10765 bound_to 10752
  140.0176  134.9411  157.0409 H   0  0  0  0  0  0  0  0  0  0  0  0  # atno 11005 bound_to 11000
  146.2399  139.5980  142.9498 LP  0  0  0  0  0  0  0  0  0  0  0  0  # atno 17320 bound_to 7965
  145.5342  141.0425  143.2366 LP  0  0  0  0  0  0  0  0  0  0  0  0  # atno 17321 bound_to 7965
  139.4788  144.5703  151.8099 LP  0  0  0  0  0  0  0  0  0  0  0  0  # atno 17342 bound_to 10162
  140.4813  144.1445  150.5933 LP  0  0  0  0  0  0  0  0  0  0  0  0  # atno 17343 bound_to 10162
  157.5103  130.7934  149.7698 LP  0  0  0  0  0  0  0  0  0  0  0  0  # atno 17370 bound_to 10713
  156.0037  130.3866  150.2508 LP  0  0  0  0  0  0  0  0  0  0  0  0  # atno 17371 bound_to 10713
  140.4443  134.1648  155.7176 LP  0  0  0  0  0  0  0  0  0  0  0  0  # atno 17394 bound_to 11000
  141.1753  133.8526  157.1441 LP  0  0  0  0  0  0  0  0  0  0  0  0  # atno 17395 bound_to 11000

$$$$
