AV-unprocessed.smi:1971|AV-procd|sdf|7962|dock2
  -GOLD-   2272010133D 1   1.00000     0.00000
 Structure written by MMmdl.
 44 45  0  0  0  0  0  0  0  0  2 V2000
  147.8789  142.8046  158.6951 C   0  0  0  0  0  0  0  0  0  0  0  0
  146.8964  142.4104  157.5832 C   0  0  0  0  0  0  0  0  0  0  0  0
  147.5489  142.2945  156.2550 N   0  3  0  0  0  0  0  0  0  0  0  0
  146.5723  142.0077  155.1755 C   0  0  0  0  0  0  0  0  0  0  0  0
  147.2844  141.9200  153.8096 C   0  0  0  0  0  0  0  0  0  0  0  0
  148.2955  140.8531  153.7919 N   0  0  0  0  0  0  0  0  0  0  0  0
  147.7778  139.4716  153.9144 C   0  0  2  0  0  0  0  0  0  0  0  0
  148.9098  138.5109  154.3490 C   0  0  0  0  0  0  0  0  0  0  0  0
  147.1281  138.9701  152.5945 C   0  0  0  0  0  0  0  0  0  0  0  0
  145.6939  138.7327  152.7307 N   0  0  0  0  0  0  0  0  0  0  0  0
  145.1384  137.5315  152.9494 C   0  0  0  0  0  0  0  0  0  0  0  0
  145.7937  136.4945  153.0639 O   0  0  0  0  0  0  0  0  0  0  0  0
  143.7985  137.6167  153.0208 N   0  0  0  0  0  0  0  0  0  0  0  0
  142.8626  136.5657  153.2092 C   0  0  0  0  0  0  0  0  0  0  0  0
  141.5591  136.7504  153.4500 N   0  0  0  0  0  0  0  0  0  0  0  0
  140.8770  135.5401  153.5985 C   0  0  0  0  0  0  0  0  0  0  0  0
  141.6825  134.4362  153.4681 C   0  0  0  0  0  0  0  0  0  0  0  0
  143.3396  134.8752  153.1502 S   0  0  0  0  0  0  0  0  0  0  0  0
  149.2863  141.2284  154.8121 C   0  0  0  0  0  0  0  0  0  0  0  0
  148.6652  141.3144  156.2250 C   0  0  0  0  0  0  0  0  0  0  0  0
  147.3490  142.9575  159.6356 H   0  0  0  0  0  0  0  0  0  0  0  0
  148.3972  143.7334  158.4544 H   0  0  0  0  0  0  0  0  0  0  0  0
  148.6287  142.0337  158.8707 H   0  0  0  0  0  0  0  0  0  0  0  0
  146.3893  141.4771  157.8328 H   0  0  0  0  0  0  0  0  0  0  0  0
  146.1229  143.1780  157.5330 H   0  0  0  0  0  0  0  0  0  0  0  0
  146.0216  141.0917  155.3943 H   0  0  0  0  0  0  0  0  0  0  0  0
  145.8347  142.8100  155.1392 H   0  0  0  0  0  0  0  0  0  0  0  0
  146.5650  141.8022  153.0020 H   0  0  0  0  0  0  0  0  0  0  0  0
  147.7763  142.8709  153.5998 H   0  0  0  0  0  0  0  0  0  0  0  0
  147.0103  139.4466  154.6856 H   0  0  0  0  0  0  0  0  0  0  0  0
  148.5773  137.4733  154.3617 H   0  0  0  0  0  0  0  0  0  0  0  0
  149.2630  138.7137  155.3588 H   0  0  0  0  0  0  0  0  0  0  0  0
  149.7628  138.5704  153.6721 H   0  0  0  0  0  0  0  0  0  0  0  0
  147.2448  139.6839  151.7804 H   0  0  0  0  0  0  0  0  0  0  0  0
  147.6028  138.0443  152.2681 H   0  0  0  0  0  0  0  0  0  0  0  0
  145.0874  139.5357  152.6487 H   0  0  0  0  0  0  0  0  0  0  0  0
  143.3998  138.5381  152.9180 H   0  0  0  0  0  0  0  0  0  0  0  0
  139.8155  135.5561  153.7968 H   0  0  0  0  0  0  0  0  0  0  0  0
  141.4020  133.3960  153.5399 H   0  0  0  0  0  0  0  0  0  0  0  0
  150.1353  140.5476  154.8099 H   0  0  0  0  0  0  0  0  0  0  0  0
  149.7078  142.1992  154.5467 H   0  0  0  0  0  0  0  0  0  0  0  0
  149.4418  141.6241  156.9235 H   0  0  0  0  0  0  0  0  0  0  0  0
  148.3210  140.3376  156.5659 H   0  0  0  0  0  0  0  0  0  0  0  0
  147.9457  143.1983  156.0414 H   0  0  0  0  0  0  0  0  0  0  0  0
  1  2  1  0  0  0  0
  1 21  1  0  0  0  0
  1 22  1  0  0  0  0
  1 23  1  0  0  0  0
  2  3  1  0  0  0  0
  2 24  1  0  0  0  0
  2 25  1  0  0  0  0
  3 20  1  0  0  0  0
  3  4  1  0  0  0  0
  3 44  1  0  0  0  0
  4  5  1  0  0  0  0
  4 26  1  0  0  0  0
  4 27  1  0  0  0  0
  5  6  1  0  0  0  0
  5 28  1  0  0  0  0
  5 29  1  0  0  0  0
  6  7  1  0  0  0  0
  6 19  1  0  0  0  0
  7  8  1  0  0  0  0
  7  9  1  0  0  0  0
  7 30  1  0  0  0  0
  8 31  1  0  0  0  0
  8 32  1  0  0  0  0
  8 33  1  0  0  0  0
  9 10  1  0  0  0  0
  9 34  1  0  0  0  0
  9 35  1  0  0  0  0
 10 11  1  0  0  0  0
 10 36  1  0  0  0  0
 11 12  2  0  0  0  0
 11 13  1  0  0  0  0
 13 14  1  0  0  0  0
 13 37  1  0  0  0  0
 14 18  1  0  0  0  0
 14 15  2  0  0  0  0
 15 16  1  0  0  0  0
 16 17  2  0  0  0  0
 16 38  1  0  0  0  0
 17 18  1  0  0  0  0
 17 39  1  0  0  0  0
 19 20  1  0  0  0  0
 19 40  1  0  0  0  0
 19 41  1  0  0  0  0
 20 42  1  0  0  0  0
 20 43  1  0  0  0  0
M  CHG  1   3   1
M  END
> <s_m_source_file>
AV-unprocessed.smi

> <i_m_source_file_index>
1971

> <i_lp_mmshare_version>
43012

> <i_f3d_flags>
0

> <s_epik_input>
W0NIM11bQ0gyXU4xW0NIMl1bQ0gyXU4oW0NIMl1bQ0gyXTEpW0NASF0oW0NIM10pW0NIMl1bTkhdQyg9TylbTkhdYzJuW2NIXVtjSF1zMg==

> <s_epik_cmdline>
J2VwaWtfcHl0aG9uJywgJy1waCcsICc3LjAnLCAnLXRuJywgJzgnLCAnLW1hJywgJzIwMCcsICctbWV0YWxfYmluZGluZycsICctaW1hZScsICc8aW5maWxlLm1hZT4nLCAnLW9tYWUnLCAnPG91dGZpbGUubWFlPic=

> <r_lp_tautomer_probability>
0.999

> <r_epik_Ionization_Penalty>
0.0459519

> <r_epik_Ionization_Penalty_Charging>
0.0451959

> <r_epik_Ionization_Penalty_Neutral>
0.000756076

> <r_epik_State_Penalty>
0.165541

> <r_epik_Charging_Adjusted_Penalty>
0.210737

> <i_epik_Tot_Q>
1

> <i_epik_Tot_abs_Q>
1

> <r_epik_Metal_State_Penalty>
0.198809

> <b_epik_Metal_Only>
0

> <s_lp_Force_Field>
OPLS_2005

> <r_lp_Energy>
18.3118

> <b_lp_Chiralities_Consistent>
1

> <s_lp_Variant>
AV-unprocessed.smi:1971-1

> <Gold.Version>
5.8.1

> <Gold.Id.Protein>
6NUR|6NUR_protein|mol2

> <Gold.PLP.Fitness>
43.0441

> <Gold.PLP.PLP>
-30.8586

> <Gold.PLP.part.hbond>
-3.2097

> <Gold.PLP.part.metal>
0.0000

> <Gold.PLP.part.buried>
-4.4874

> <Gold.PLP.part.nonpolar>
-25.3315

> <Gold.PLP.part.repulsive>
0.9930

> <Gold.PLP.ligand.clash>
0.0000

> <Gold.PLP.ligand.torsion>
1.2657

> <Gold.PLP.Chemscore.Hbond>
4.0000

> <Gold.PLP.Chemscore.CHOScore>
0.8808

> <Gold.PLP.Chemscore.Metal>
0.0000

> <Gold.Chemscore.Hbonds>
donor molecule, donor type, donor heavy atom, donor atom, acceptor molecule, acceptor atom, score
      L1  H     3    44       P1  8028  2.00
      L1  H    10    36       P1 10175  1.00
      L1  H    13    37       P1 10175  0.99
      L1  C    17    39       P1 10957  0.90

> <Gold.PLP.Chemscore.Internal.Correction>
0.0743

> <Gold.Rescore>
     Score         DG    S(hbond)    S(metal)    S(lipo)     H(rot)  DE(clash)    DE(int)     intcor
     15.20     -17.78       2.88        0.00      62.17       1.79       0.09       2.49       ----

> <Gold.Chemscore.Fitness>
15.1954

> <Gold.Chemscore.DG>
-17.7796

> <Gold.Chemscore.ZeroCoef>
-5.4800

> <Gold.Chemscore.Hbond>
2.8795

> <Gold.Chemscore.Metal>
0.0000

> <Gold.Chemscore.Lipo>
62.1713

> <Gold.Chemscore.Internal_Hbond>
0.0000

> <Gold.Chemscore.DEClash>
0.0897

> <Gold.Chemscore.DEInternal>
2.4945

> <Gold.Chemscore.Rot>
1.7937

> <Gold.Chemscore.Internal.Correction>
   9.000000E+99

> <Gold.Chemscore.Hbonds>
donor molecule, donor type, donor heavy atom, donor atom, acceptor molecule, acceptor atom, score
      L1  H     3    44       P1  8028  0.35
      L1  H    10    36       P1 10175  1.00
      L1  H    13    37       P1 10175  0.93

> <Gold.Chemscore.Hbond.Weighted>
-9.6175

> <Gold.Chemscore.Metal.Weighted>
-0.0000

> <Gold.Chemscore.Lipo.Weighted>
-7.2740

> <Gold.Chemscore.Internal_Hbond.Weighted>
0.0000

> <Gold.Chemscore.DEClash.Weighted>
0.0897

> <Gold.Chemscore.DEInternal.Weighted>
2.4945

> <Gold.Chemscore.Rot.Weighted>
4.5919

> <Gold.Chemscore.Internal.Correction.Weighted>
   9.000000E+99

> <Gold.Protein.RotatedTorsions>
[ 6907 6896 6895 6894 ] final  -43.87 input  -60.11 | X-H torsion
[ 7974 7965 7964 7962 ] final   26.12 input  175.53 | X-H torsion
[ 8008 7997 7996 7995 ] final -178.90 input   59.86 | X-H torsion
[ 10167 10162 10161 10158 ] final   83.55 input  -65.29 | X-H torsion
[ 10718 10713 10712 10709 ] final  172.83 input   66.30 | X-H torsion
[ 10763 10752 10751 10750 ] final   84.12 input  -60.55 | X-H torsion
[ 11005 11000 10999 10996 ] final -106.93 input  -57.11 | X-H torsion

> <Gold.Protein.ActiveResidues>
 VAL166  LYS551  ARG553  GLY616  TRP617  ASP618  TYR619  PRO620  LYS621  CYS622 
 ASP623  PHE694  ASN695  SER759  ASP760  ASP761  ALA762  ILE779  LEU786  VAL792 
 PHE793  MET794  SER795  GLU796  ALA797  LYS798  CYS799  TRP800  GLU811  SER814 

> <Gold.Protein.RotatedAtoms>
  150.9391  134.8801  159.7600 H   0  0  0  0  0  0  0  0  0  0  0  0  # atno 6907 bound_to 6896
  152.5072  134.3968  159.9412 H   0  0  0  0  0  0  0  0  0  0  0  0  # atno 6908 bound_to 6896
  151.3990  133.3724  159.2765 H   0  0  0  0  0  0  0  0  0  0  0  0  # atno 6909 bound_to 6896
  146.1854  139.7372  142.8870 H   0  0  0  0  0  0  0  0  0  0  0  0  # atno 7974 bound_to 7965
  156.0242  140.1268  157.0326 H   0  0  0  0  0  0  0  0  0  0  0  0  # atno 8008 bound_to 7997
  154.4323  140.1062  156.6077 H   0  0  0  0  0  0  0  0  0  0  0  0  # atno 8009 bound_to 7997
  155.5901  140.3469  155.4566 H   0  0  0  0  0  0  0  0  0  0  0  0  # atno 8010 bound_to 7997
  139.9172  144.6235  150.8476 H   0  0  0  0  0  0  0  0  0  0  0  0  # atno 10167 bound_to 10162
  156.9733  131.0096  151.2900 H   0  0  0  0  0  0  0  0  0  0  0  0  # atno 10718 bound_to 10713
  153.1353  135.4666  154.9412 H   0  0  0  0  0  0  0  0  0  0  0  0  # atno 10763 bound_to 10752
  154.7700  135.3156  154.8211 H   0  0  0  0  0  0  0  0  0  0  0  0  # atno 10764 bound_to 10752
  153.8745  135.6900  153.4826 H   0  0  0  0  0  0  0  0  0  0  0  0  # atno 10765 bound_to 10752
  141.0980  133.8936  157.1915 H   0  0  0  0  0  0  0  0  0  0  0  0  # atno 11005 bound_to 11000
  145.3954  141.0378  143.3100 LP  0  0  0  0  0  0  0  0  0  0  0  0  # atno 17320 bound_to 7965
  144.8388  139.5506  143.6910 LP  0  0  0  0  0  0  0  0  0  0  0  0  # atno 17321 bound_to 7965
  140.7671  143.3322  151.2385 LP  0  0  0  0  0  0  0  0  0  0  0  0  # atno 17342 bound_to 10162
  139.6892  143.9721  152.2850 LP  0  0  0  0  0  0  0  0  0  0  0  0  # atno 17343 bound_to 10162
  157.5578  130.8225  149.8226 LP  0  0  0  0  0  0  0  0  0  0  0  0  # atno 17370 bound_to 10713
  156.0274  130.3775  150.1784 LP  0  0  0  0  0  0  0  0  0  0  0  0  # atno 17371 bound_to 10713
  139.9822  135.0094  156.9777 LP  0  0  0  0  0  0  0  0  0  0  0  0  # atno 17394 bound_to 11000
  140.5093  134.1018  155.7267 LP  0  0  0  0  0  0  0  0  0  0  0  0  # atno 17395 bound_to 11000

$$$$
