AV-unprocessed.smi:37|AV-procd|sdf|310|dock3
  -GOLD-   2262016123D 1   1.00000     0.00000
 Structure written by MMmdl.
 44 45  0  0  0  0  0  0  0  0  1 V2000
  145.2975  143.2369  161.8857 C   0  0  0  0  0  0  0  0  0  0  0  0
  145.8843  144.0360  160.7141 C   0  0  0  0  0  0  0  0  0  0  0  0
  147.3807  143.7882  160.5386 C   0  0  0  0  0  0  0  0  0  0  0  0
  148.1682  143.9235  161.4752 O   0  0  0  0  0  0  0  0  0  0  0  0
  147.7005  143.4135  159.2899 O   0  0  0  0  0  0  0  0  0  0  0  0
  149.0640  143.3209  158.9141 C   0  0  0  0  0  0  0  0  0  0  0  0
  149.2818  142.0221  158.1276 C   0  0  1  0  0  0  0  0  0  0  0  0
  149.2499  142.2545  156.7240 O   0  0  0  0  0  0  0  0  0  0  0  0
  149.9928  141.2722  156.0618 C   0  0  2  0  0  0  0  0  0  0  0  0
  149.0791  140.4343  155.1957 N   0  0  0  0  0  0  0  0  0  0  0  0
  147.6982  140.5928  155.2034 C   0  0  0  0  0  0  0  0  0  0  0  0
  146.8690  139.8458  154.4365 C   0  0  0  0  0  0  0  0  0  0  0  0
  145.5427  140.0526  154.4989 F   0  0  0  0  0  0  0  0  0  0  0  0
  147.4005  138.8171  153.5469 C   0  0  0  0  0  0  0  0  0  0  0  0
  146.7299  138.0920  152.8147 O   0  0  0  0  0  0  0  0  0  0  0  0
  148.7928  138.6920  153.5753 N   0  0  0  0  0  0  0  0  0  0  0  0
  149.6586  139.4535  154.3618 C   0  0  0  0  0  0  0  0  0  0  0  0
  150.8717  139.2531  154.3186 O   0  0  0  0  0  0  0  0  0  0  0  0
  150.7351  140.4461  157.1361 C   0  0  2  0  0  0  0  0  0  0  0  0
  149.8279  138.7224  157.5905 Br  0  0  0  0  0  0  0  0  0  0  0  0
  150.6425  141.3579  158.3475 C   0  0  1  0  0  0  0  0  0  0  0  0
  151.6730  142.3405  158.3235 O   0  0  0  0  0  0  0  0  0  0  0  0
  152.0198  142.9917  159.4483 C   0  0  0  0  0  0  0  0  0  0  0  0
  151.9503  142.5432  160.5925 O   0  0  0  0  0  0  0  0  0  0  0  0
  152.5481  144.3979  159.1742 C   0  0  0  0  0  0  0  0  0  0  0  0
  151.7003  145.4795  159.8578 C   0  0  0  0  0  0  0  0  0  0  0  0
  149.2053  137.9894  152.9793 H   0  0  0  0  0  0  0  0  0  0  0  0
  144.2279  143.4240  161.9797 H   0  0  0  0  0  0  0  0  0  0  0  0
  145.7641  143.5114  162.8326 H   0  0  0  0  0  0  0  0  0  0  0  0
  145.4335  142.1645  161.7403 H   0  0  0  0  0  0  0  0  0  0  0  0
  145.3708  143.7701  159.7899 H   0  0  0  0  0  0  0  0  0  0  0  0
  145.7212  145.1025  160.8710 H   0  0  0  0  0  0  0  0  0  0  0  0
  149.3603  144.1865  158.3200 H   0  0  0  0  0  0  0  0  0  0  0  0
  149.6777  143.3133  159.8160 H   0  0  0  0  0  0  0  0  0  0  0  0
  148.4998  141.3039  158.3798 H   0  0  0  0  0  0  0  0  0  0  0  0
  150.6669  141.7918  155.3777 H   0  0  0  0  0  0  0  0  0  0  0  0
  147.2437  141.3319  155.8463 H   0  0  0  0  0  0  0  0  0  0  0  0
  151.7550  140.2184  156.8240 H   0  0  0  0  0  0  0  0  0  0  0  0
  150.6658  140.8048  159.2876 H   0  0  0  0  0  0  0  0  0  0  0  0
  153.5791  144.4613  159.5235 H   0  0  0  0  0  0  0  0  0  0  0  0
  152.5677  144.5632  158.0968 H   0  0  0  0  0  0  0  0  0  0  0  0
  152.1225  146.4682  159.6777 H   0  0  0  0  0  0  0  0  0  0  0  0
  151.6610  145.3293  160.9373 H   0  0  0  0  0  0  0  0  0  0  0  0
  150.6768  145.4854  159.4811 H   0  0  0  0  0  0  0  0  0  0  0  0
  1  2  1  0  0  0  0
  1 28  1  0  0  0  0
  1 29  1  0  0  0  0
  1 30  1  0  0  0  0
  2  3  1  0  0  0  0
  2 31  1  0  0  0  0
  2 32  1  0  0  0  0
  3  4  2  0  0  0  0
  3  5  1  0  0  0  0
  5  6  1  0  0  0  0
  6  7  1  0  0  0  0
  6 33  1  0  0  0  0
  6 34  1  0  0  0  0
  7 21  1  0  0  0  0
  7  8  1  0  0  0  0
  7 35  1  0  0  0  0
  8  9  1  0  0  0  0
  9 10  1  0  0  0  0
  9 19  1  0  0  0  0
  9 36  1  0  0  0  0
 10 17  1  0  0  0  0
 10 11  1  0  0  0  0
 11 12  2  0  0  0  0
 11 37  1  0  0  0  0
 12 13  1  0  0  0  0
 12 14  1  0  0  0  0
 14 15  2  0  0  0  0
 14 16  1  0  0  0  0
 16 27  1  0  0  0  0
 16 17  1  0  0  0  0
 17 18  2  0  0  0  0
 19 20  1  0  0  0  0
 19 21  1  0  0  0  0
 19 38  1  0  0  0  0
 21 22  1  0  0  0  0
 21 39  1  0  0  0  0
 22 23  1  0  0  0  0
 23 24  2  0  0  0  0
 23 25  1  0  0  0  0
 25 26  1  0  0  0  0
 25 40  1  0  0  0  0
 25 41  1  0  0  0  0
 26 42  1  0  0  0  0
 26 43  1  0  0  0  0
 26 44  1  0  0  0  0
M  END
> <s_m_source_file>
AV-unprocessed.smi

> <i_m_source_file_index>
37

> <i_lp_mmshare_version>
43012

> <i_f3d_flags>
0

> <s_epik_input>
W0NIM11bQ0gyXUMoPU8pT1tDSDJdW0NAQEhdMU9bQ0BASF0objJbY0hdYyhGKWMoPU8pW25IXWMyPU8pW0NAQEhdKEJyKVtDQEhdMU9DKD1PKVtDSDJdW0NIM10=

> <s_epik_cmdline>
J2VwaWtfcHl0aG9uJywgJy1waCcsICc3LjAnLCAnLXRuJywgJzgnLCAnLW1hJywgJzIwMCcsICctbWV0YWxfYmluZGluZycsICctaW1hZScsICc8aW5maWxlLm1hZT4nLCAnLW9tYWUnLCAnPG91dGZpbGUubWFlPic=

> <r_lp_tautomer_probability>
0.999537

> <r_epik_Ionization_Penalty>
0.104106

> <r_epik_Ionization_Penalty_Charging>
0.104106

> <r_epik_Ionization_Penalty_Neutral>
3.94675e-16

> <r_epik_State_Penalty>
0.0940182

> <r_epik_Charging_Adjusted_Penalty>
0.198124

> <i_epik_Tot_Q>
0

> <i_epik_Tot_abs_Q>
0

> <r_epik_Metal_State_Penalty>
3.05314

> <b_epik_Metal_Only>
0

> <s_epik_Chemistry_Notes>
This compound has an ester and may undergo hydrolysis at high or low pH. This compound contains an acetal/aminal-like group ( X-CH(R)-Y where X, Y are N, S, or O) that may be acid/base labile, releasing an aldehyde.

> <s_lp_Force_Field>
OPLS_2005

> <r_lp_Energy>
24.0333

> <b_lp_Chiralities_Consistent>
1

> <s_lp_Variant>
AV-unprocessed.smi:37-8

> <Gold.Version>
5.8.1

> <Gold.Id.Protein>
6NUR|6NUR_protein|mol2

> <Gold.PLP.Fitness>
39.7562

> <Gold.PLP.PLP>
-34.1820

> <Gold.PLP.part.hbond>
-5.0000

> <Gold.PLP.part.metal>
0.0000

> <Gold.PLP.part.buried>
-4.3352

> <Gold.PLP.part.nonpolar>
-31.4145

> <Gold.PLP.part.repulsive>
5.1703

> <Gold.PLP.ligand.clash>
0.0000

> <Gold.PLP.ligand.torsion>
1.6003

> <Gold.PLP.Chemscore.Hbond>
2.8416

> <Gold.PLP.Chemscore.CHOScore>
0.0000

> <Gold.PLP.Chemscore.Metal>
0.0000

> <Gold.Chemscore.Hbonds>
donor molecule, donor type, donor heavy atom, donor atom, acceptor molecule, acceptor atom, score
      L1  H    16    27       P1  7948  0.90
      P1  H  6933  6944       L1     4  0.60
      P1  H  7989  7998       L1    18  1.00

> <Gold.PLP.Chemscore.Internal.Correction>
0.2500

> <Gold.Rescore>
     Score         DG    S(hbond)    S(metal)    S(lipo)     H(rot)  DE(clash)    DE(int)     intcor
      6.04     -10.20       1.78        0.00      62.49       3.33       2.25       1.91       ----

> <Gold.Chemscore.Fitness>
6.0422

> <Gold.Chemscore.DG>
-10.1964

> <Gold.Chemscore.ZeroCoef>
-5.4800

> <Gold.Chemscore.Hbond>
1.7758

> <Gold.Chemscore.Metal>
0.0000

> <Gold.Chemscore.Lipo>
62.4855

> <Gold.Chemscore.Internal_Hbond>
0.0000

> <Gold.Chemscore.DEClash>
2.2456

> <Gold.Chemscore.DEInternal>
1.9086

> <Gold.Chemscore.Rot>
3.3303

> <Gold.Chemscore.Internal.Correction>
   9.000000E+99

> <Gold.Chemscore.Hbonds>
donor molecule, donor type, donor heavy atom, donor atom, acceptor molecule, acceptor atom, score
      L1  H    16    27       P1  7948  0.81
      P1  H  6933  6944       L1     4  0.04
      P1  H  7989  7998       L1    18  0.54

> <Gold.Chemscore.Hbond.Weighted>
-5.9312

> <Gold.Chemscore.Metal.Weighted>
-0.0000

> <Gold.Chemscore.Lipo.Weighted>
-7.3108

> <Gold.Chemscore.Internal_Hbond.Weighted>
0.0000

> <Gold.Chemscore.DEClash.Weighted>
2.2456

> <Gold.Chemscore.DEInternal.Weighted>
1.9086

> <Gold.Chemscore.Rot.Weighted>
8.5256

> <Gold.Chemscore.Internal.Correction.Weighted>
   9.000000E+99

> <Gold.Protein.RotatedTorsions>
[ 6907 6896 6895 6894 ] final   -9.30 input  -60.11 | X-H torsion
[ 7974 7965 7964 7962 ] final  -42.90 input  175.53 | X-H torsion
[ 8008 7997 7996 7995 ] final -142.54 input   59.86 | X-H torsion
[ 10167 10162 10161 10158 ] final  124.14 input  -65.29 | X-H torsion
[ 10718 10713 10712 10709 ] final  -10.47 input   66.30 | X-H torsion
[ 10763 10752 10751 10750 ] final   67.37 input  -60.55 | X-H torsion
[ 11005 11000 10999 10996 ] final  101.38 input  -57.11 | X-H torsion

> <Gold.Protein.ActiveResidues>
 VAL166  LYS551  ARG553  GLY616  TRP617  ASP618  TYR619  PRO620  LYS621  CYS622 
 ASP623  PHE694  ASN695  SER759  ASP760  ASP761  ALA762  ILE779  LEU786  VAL792 
 PHE793  MET794  SER795  GLU796  ALA797  LYS798  CYS799  TRP800  GLU811  SER814 

> <Gold.Protein.RotatedAtoms>
  151.4199  135.0996  159.9610 H   0  0  0  0  0  0  0  0  0  0  0  0  # atno 6907 bound_to 6896
  152.4992  133.8717  159.7312 H   0  0  0  0  0  0  0  0  0  0  0  0  # atno 6908 bound_to 6896
  150.9231  133.6799  159.2855 H   0  0  0  0  0  0  0  0  0  0  0  0  # atno 6909 bound_to 6896
  146.0071  140.7007  142.9242 H   0  0  0  0  0  0  0  0  0  0  0  0  # atno 7974 bound_to 7965
  155.4959  140.0571  157.2946 H   0  0  0  0  0  0  0  0  0  0  0  0  # atno 8008 bound_to 7997
  154.4605  140.1994  156.0208 H   0  0  0  0  0  0  0  0  0  0  0  0  # atno 8009 bound_to 7997
  156.0881  140.3237  155.7784 H   0  0  0  0  0  0  0  0  0  0  0  0  # atno 8010 bound_to 7997
  139.5759  144.6963  151.3655 H   0  0  0  0  0  0  0  0  0  0  0  0  # atno 10167 bound_to 10162
  156.6730  130.5015  149.5994 H   0  0  0  0  0  0  0  0  0  0  0  0  # atno 10718 bound_to 10713
  153.0183  135.5286  154.6969 H   0  0  0  0  0  0  0  0  0  0  0  0  # atno 10763 bound_to 10752
  154.6088  135.2876  155.0457 H   0  0  0  0  0  0  0  0  0  0  0  0  # atno 10764 bound_to 10752
  154.1486  135.6566  153.5011 H   0  0  0  0  0  0  0  0  0  0  0  0  # atno 10765 bound_to 10752
  139.8773  134.9180  156.4898 H   0  0  0  0  0  0  0  0  0  0  0  0  # atno 11005 bound_to 11000
  144.6940  140.3334  143.7212 LP  0  0  0  0  0  0  0  0  0  0  0  0  # atno 17320 bound_to 7965
  145.7398  139.1761  143.2382 LP  0  0  0  0  0  0  0  0  0  0  0  0  # atno 17321 bound_to 7965
  140.7041  143.7557  150.7453 LP  0  0  0  0  0  0  0  0  0  0  0  0  # atno 17342 bound_to 10162
  140.1077  143.4729  152.2389 LP  0  0  0  0  0  0  0  0  0  0  0  0  # atno 17343 bound_to 10162
  156.1924  130.6568  151.1077 LP  0  0  0  0  0  0  0  0  0  0  0  0  # atno 17370 bound_to 10713
  157.7070  131.0751  150.6631 LP  0  0  0  0  0  0  0  0  0  0  0  0  # atno 17371 bound_to 10713
  140.8667  133.8019  155.9321 LP  0  0  0  0  0  0  0  0  0  0  0  0  # atno 17394 bound_to 11000
  140.8995  134.2396  157.5050 LP  0  0  0  0  0  0  0  0  0  0  0  0  # atno 17395 bound_to 11000

$$$$
