AV-unprocessed.smi:177|AV-procd|sdf|1440|dock2
  -GOLD-   2262019223D 1   1.00000     0.00000
 Structure written by MMmdl.
 61 65  0  0  0  0  0  0  0  0  1 V2000
  148.9201  137.4034  159.1635 C   0  0  0  0  0  0  0  0  0  0  0  0
  148.3715  137.0871  160.4337 O   0  0  0  0  0  0  0  0  0  0  0  0
  148.1490  135.6984  160.6407 C   0  0  1  0  0  0  0  0  0  0  0  0
  147.7080  135.4197  162.0904 C   0  0  0  0  0  0  0  0  0  0  0  0
  147.3793  133.9328  162.2841 C   0  0  0  0  0  0  0  0  0  0  0  0
  146.3031  133.4575  161.2818 C   0  0  2  0  0  0  0  0  0  0  0  0
  145.9805  132.0755  161.4499 O   0  0  0  0  0  0  0  0  0  0  0  0
  147.0010  131.1731  161.0288 C   0  0  0  0  0  0  0  0  0  0  0  0
  147.3551  131.4324  159.5582 C   0  0  0  0  0  0  0  0  0  0  0  0
  147.7287  132.8287  159.3627 N   0  0  0  0  0  0  0  0  0  0  0  0
  148.2090  133.0484  158.1182 C   0  0  0  0  0  0  0  0  0  0  0  0
  149.5186  133.3652  157.9385 N   0  0  0  0  0  0  0  0  0  0  0  0
  149.9932  133.5558  156.7039 C   0  0  0  0  0  0  0  0  0  0  0  0
  149.3456  133.4776  155.5390 N   0  0  0  0  0  0  0  0  0  0  0  0
  148.0294  133.1668  155.7202 C   0  0  0  0  0  0  0  0  0  0  0  0
  147.3860  132.9369  156.9678 C   0  0  0  0  0  0  0  0  0  0  0  0
  146.0472  132.6292  156.7667 N   0  0  0  0  0  0  0  0  0  0  0  0
  145.9083  132.6649  155.4697 C   0  0  0  0  0  0  0  0  0  0  0  0
  147.0433  132.9970  154.7626 N   0  0  0  0  0  0  0  0  0  0  0  0
  147.1687  133.0940  153.3150 C   0  0  0  0  0  0  0  0  0  0  0  0
  146.0976  133.9687  152.5946 C   0  0  0  0  0  0  0  0  0  0  0  0
  145.8685  135.3085  153.3566 C   0  0  0  0  0  0  0  0  0  0  0  0
  147.0016  136.1526  153.3811 O   0  0  0  0  0  0  0  0  0  0  0  0
  146.4769  134.2063  151.1102 C   0  0  0  0  0  0  0  0  0  0  0  0
  145.3117  134.7800  150.2863 C   0  0  0  0  0  0  0  0  0  0  0  0
  144.1991  133.8975  150.3499 O   0  0  0  0  0  0  0  0  0  0  0  0
  143.6929  133.7427  151.6690 C   0  0  0  0  0  0  0  0  0  0  0  0
  144.7785  133.1535  152.5915 C   0  0  0  0  0  0  0  0  0  0  0  0
  146.6823  133.7558  159.8094 C   0  0  2  0  0  0  0  0  0  0  0  0
  147.0549  135.2526  159.6544 C   0  0  0  0  0  0  0  0  0  0  0  0
  149.0396  138.4834  159.0789 H   0  0  0  0  0  0  0  0  0  0  0  0
  148.2617  137.0770  158.3574 H   0  0  0  0  0  0  0  0  0  0  0  0
  149.9003  136.9493  159.0200 H   0  0  0  0  0  0  0  0  0  0  0  0
  149.0614  135.1429  160.4209 H   0  0  0  0  0  0  0  0  0  0  0  0
  148.4895  135.7077  162.7932 H   0  0  0  0  0  0  0  0  0  0  0  0
  146.8336  136.0246  162.3339 H   0  0  0  0  0  0  0  0  0  0  0  0
  148.3008  133.3637  162.1656 H   0  0  0  0  0  0  0  0  0  0  0  0
  147.0372  133.7584  163.3044 H   0  0  0  0  0  0  0  0  0  0  0  0
  145.3886  134.0077  161.5075 H   0  0  0  0  0  0  0  0  0  0  0  0
  147.8833  131.2563  161.6631 H   0  0  0  0  0  0  0  0  0  0  0  0
  146.6344  130.1535  161.1471 H   0  0  0  0  0  0  0  0  0  0  0  0
  148.1738  130.7795  159.2527 H   0  0  0  0  0  0  0  0  0  0  0  0
  146.4978  131.1894  158.9283 H   0  0  0  0  0  0  0  0  0  0  0  0
  151.0424  133.8034  156.6399 H   0  0  0  0  0  0  0  0  0  0  0  0
  144.9633  132.4585  154.9889 H   0  0  0  0  0  0  0  0  0  0  0  0
  148.1681  133.4774  153.1040 H   0  0  0  0  0  0  0  0  0  0  0  0
  147.1529  132.0814  152.9097 H   0  0  0  0  0  0  0  0  0  0  0  0
  145.0652  135.8905  152.9086 H   0  0  0  0  0  0  0  0  0  0  0  0
  145.5605  135.1112  154.3838 H   0  0  0  0  0  0  0  0  0  0  0  0
  147.7263  135.6946  152.9829 H   0  0  0  0  0  0  0  0  0  0  0  0
  147.3449  134.8599  151.0230 H   0  0  0  0  0  0  0  0  0  0  0  0
  146.7716  133.2583  150.6587 H   0  0  0  0  0  0  0  0  0  0  0  0
  145.0292  135.7749  150.6322 H   0  0  0  0  0  0  0  0  0  0  0  0
  145.6124  134.8844  149.2436 H   0  0  0  0  0  0  0  0  0  0  0  0
  143.3143  134.6952  152.0401 H   0  0  0  0  0  0  0  0  0  0  0  0
  142.8373  133.0685  151.6318 H   0  0  0  0  0  0  0  0  0  0  0  0
  144.9798  132.1362  152.2524 H   0  0  0  0  0  0  0  0  0  0  0  0
  144.3887  133.0585  153.6057 H   0  0  0  0  0  0  0  0  0  0  0  0
  145.8024  133.5649  159.1929 H   0  0  0  0  0  0  0  0  0  0  0  0
  146.1605  135.8511  159.8319 H   0  0  0  0  0  0  0  0  0  0  0  0
  147.3552  135.4830  158.6320 H   0  0  0  0  0  0  0  0  0  0  0  0
  1  2  1  0  0  0  0
  1 31  1  0  0  0  0
  1 32  1  0  0  0  0
  1 33  1  0  0  0  0
  2  3  1  0  0  0  0
  3 30  1  0  0  0  0
  3  4  1  0  0  0  0
  3 34  1  0  0  0  0
  4  5  1  0  0  0  0
  4 35  1  0  0  0  0
  4 36  1  0  0  0  0
  5  6  1  0  0  0  0
  5 37  1  0  0  0  0
  5 38  1  0  0  0  0
  6 29  1  0  0  0  0
  6  7  1  0  0  0  0
  6 39  1  0  0  0  0
  7  8  1  0  0  0  0
  8  9  1  0  0  0  0
  8 40  1  0  0  0  0
  8 41  1  0  0  0  0
  9 10  1  0  0  0  0
  9 42  1  0  0  0  0
  9 43  1  0  0  0  0
 10 11  1  0  0  0  0
 10 29  1  0  0  0  0
 11 16  1  0  0  0  0
 11 12  2  0  0  0  0
 12 13  1  0  0  0  0
 13 14  2  0  0  0  0
 13 44  1  0  0  0  0
 14 15  1  0  0  0  0
 15 19  1  0  0  0  0
 15 16  2  0  0  0  0
 16 17  1  0  0  0  0
 17 18  2  0  0  0  0
 18 19  1  0  0  0  0
 18 45  1  0  0  0  0
 19 20  1  0  0  0  0
 20 21  1  0  0  0  0
 20 46  1  0  0  0  0
 20 47  1  0  0  0  0
 21 28  1  0  0  0  0
 21 22  1  0  0  0  0
 21 24  1  0  0  0  0
 22 23  1  0  0  0  0
 22 48  1  0  0  0  0
 22 49  1  0  0  0  0
 23 50  1  0  0  0  0
 24 25  1  0  0  0  0
 24 51  1  0  0  0  0
 24 52  1  0  0  0  0
 25 26  1  0  0  0  0
 25 53  1  0  0  0  0
 25 54  1  0  0  0  0
 26 27  1  0  0  0  0
 27 28  1  0  0  0  0
 27 55  1  0  0  0  0
 27 56  1  0  0  0  0
 28 57  1  0  0  0  0
 28 58  1  0  0  0  0
 29 30  1  0  0  0  0
 29 59  1  0  0  0  0
 30 60  1  0  0  0  0
 30 61  1  0  0  0  0
M  END
> <s_m_source_file>
AV-unprocessed.smi

> <i_m_source_file_index>
177

> <i_lp_mmshare_version>
43012

> <i_f3d_flags>
0

> <s_epik_input>
W0NIM11PW0NASF0oW0NIMl1bQ0gyXTEpW0NIMl1bQ0BIXShbQ0BASF0xMilOKFtDSDJdW0NIMl1PMiljKG5bY0hdbjMpYyhjMzQpbltjSF1uNFtDSDJdQzUoW0NIMl1bT0hdKVtDSDJdW0NIMl1PW0NIMl1bQ0gyXTU=

> <s_epik_cmdline>
J2VwaWtfcHl0aG9uJywgJy1waCcsICc3LjAnLCAnLXRuJywgJzgnLCAnLW1hJywgJzIwMCcsICctbWV0YWxfYmluZGluZycsICctaW1hZScsICc8aW5maWxlLm1hZT4nLCAnLW9tYWUnLCAnPG91dGZpbGUubWFlPic=

> <r_lp_tautomer_probability>
1

> <r_epik_Ionization_Penalty>
0.0065899

> <r_epik_Ionization_Penalty_Charging>
0

> <r_epik_Ionization_Penalty_Neutral>
0.0065899

> <r_epik_State_Penalty>
0.00470042

> <r_epik_Charging_Adjusted_Penalty>
0.00470042

> <i_epik_Tot_Q>
0

> <i_epik_Tot_abs_Q>
0

> <r_epik_Metal_State_Penalty>
-0

> <b_epik_Metal_Only>
0

> <s_lp_Force_Field>
OPLS_2005

> <r_lp_Energy>
50.2721

> <b_lp_Chiralities_Consistent>
1

> <s_lp_Variant>
AV-unprocessed.smi:177-4

> <Gold.Version>
5.8.1

> <Gold.Id.Protein>
6NUR|6NUR_protein|mol2

> <Gold.PLP.Fitness>
43.4824

> <Gold.PLP.PLP>
-31.6770

> <Gold.PLP.part.hbond>
-4.0000

> <Gold.PLP.part.metal>
0.0000

> <Gold.PLP.part.buried>
-3.0393

> <Gold.PLP.part.nonpolar>
-25.5110

> <Gold.PLP.part.repulsive>
0.3142

> <Gold.PLP.ligand.clash>
0.0000

> <Gold.PLP.ligand.torsion>
0.3222

> <Gold.PLP.Chemscore.Hbond>
3.0894

> <Gold.PLP.Chemscore.CHOScore>
1.0000

> <Gold.PLP.Chemscore.Metal>
0.0000

> <Gold.Chemscore.Hbonds>
donor molecule, donor type, donor heavy atom, donor atom, acceptor molecule, acceptor atom, score
      L1  H    23    50       P1  7948  0.64
      P1  H  6896  6907       L1    12  1.00
      P1  H  6931  6943       L1     2  0.77
      P1  H  6934  6947       L1     2  0.18
      L1  C    18    45       P1 10957  1.00

> <Gold.PLP.Chemscore.Internal.Correction>
0.1815

> <Gold.Rescore>
     Score         DG    S(hbond)    S(metal)    S(lipo)     H(rot)  DE(clash)    DE(int)     intcor
     15.62     -16.66       2.49        0.00      80.95       2.58       0.81       0.24       ----

> <Gold.Chemscore.Fitness>
15.6155

> <Gold.Chemscore.DG>
-16.6644

> <Gold.Chemscore.ZeroCoef>
-5.4800

> <Gold.Chemscore.Hbond>
2.4909

> <Gold.Chemscore.Metal>
0.0000

> <Gold.Chemscore.Lipo>
80.9498

> <Gold.Chemscore.Internal_Hbond>
0.0000

> <Gold.Chemscore.DEClash>
0.8117

> <Gold.Chemscore.DEInternal>
0.2372

> <Gold.Chemscore.Rot>
2.5806

> <Gold.Chemscore.Internal.Correction>
   9.000000E+99

> <Gold.Chemscore.Hbonds>
donor molecule, donor type, donor heavy atom, donor atom, acceptor molecule, acceptor atom, score
      L1  H    23    50       P1  7948  0.64
      P1  H  6896  6907       L1    12  0.82
      P1  H  6931  6943       L1     2  0.63
      P1  H  6934  6947       L1     2  0.05

> <Gold.Chemscore.Hbond.Weighted>
-8.3195

> <Gold.Chemscore.Metal.Weighted>
-0.0000

> <Gold.Chemscore.Lipo.Weighted>
-9.4711

> <Gold.Chemscore.Internal_Hbond.Weighted>
0.0000

> <Gold.Chemscore.DEClash.Weighted>
0.8117

> <Gold.Chemscore.DEInternal.Weighted>
0.2372

> <Gold.Chemscore.Rot.Weighted>
6.6062

> <Gold.Chemscore.Internal.Correction.Weighted>
   9.000000E+99

> <Gold.Protein.RotatedTorsions>
[ 6907 6896 6895 6894 ] final -122.29 input  -60.11 | X-H torsion
[ 7974 7965 7964 7962 ] final  129.27 input  175.53 | X-H torsion
[ 8008 7997 7996 7995 ] final   79.92 input   59.86 | X-H torsion
[ 10167 10162 10161 10158 ] final   93.10 input  -65.29 | X-H torsion
[ 10718 10713 10712 10709 ] final    4.97 input   66.30 | X-H torsion
[ 10763 10752 10751 10750 ] final  -59.26 input  -60.55 | X-H torsion
[ 11005 11000 10999 10996 ] final   -2.62 input  -57.11 | X-H torsion

> <Gold.Protein.ActiveResidues>
 VAL166  LYS551  ARG553  GLY616  TRP617  ASP618  TYR619  PRO620  LYS621  CYS622 
 ASP623  PHE694  ASN695  SER759  ASP760  ASP761  ALA762  ILE779  LEU786  VAL792 
 PHE793  MET794  SER795  GLU796  ALA797  LYS798  CYS799  TRP800  GLU811  SER814 

> <Gold.Protein.RotatedAtoms>
  150.8562  133.7712  159.3007 H   0  0  0  0  0  0  0  0  0  0  0  0  # atno 6907 bound_to 6896
  151.5368  135.1067  159.9926 H   0  0  0  0  0  0  0  0  0  0  0  0  # atno 6908 bound_to 6896
  152.4591  133.7742  159.6871 H   0  0  0  0  0  0  0  0  0  0  0  0  # atno 6909 bound_to 6896
  145.0305  139.4050  143.5152 H   0  0  0  0  0  0  0  0  0  0  0  0  # atno 7974 bound_to 7965
  155.8764  140.3446  155.5857 H   0  0  0  0  0  0  0  0  0  0  0  0  # atno 8008 bound_to 7997
  155.7770  140.0853  157.2098 H   0  0  0  0  0  0  0  0  0  0  0  0  # atno 8009 bound_to 7997
  154.4021  140.1508  156.2995 H   0  0  0  0  0  0  0  0  0  0  0  0  # atno 8010 bound_to 7997
  139.8212  144.6730  150.9516 H   0  0  0  0  0  0  0  0  0  0  0  0  # atno 10167 bound_to 10162
  156.9005  130.5720  149.5648 H   0  0  0  0  0  0  0  0  0  0  0  0  # atno 10718 bound_to 10713
  154.2509  135.6326  153.5240 H   0  0  0  0  0  0  0  0  0  0  0  0  # atno 10763 bound_to 10752
  152.9912  135.5564  154.5808 H   0  0  0  0  0  0  0  0  0  0  0  0  # atno 10764 bound_to 10752
  154.5335  135.2890  155.1134 H   0  0  0  0  0  0  0  0  0  0  0  0  # atno 10765 bound_to 10752
  140.6603  133.9326  155.8432 H   0  0  0  0  0  0  0  0  0  0  0  0  # atno 11005 bound_to 11000
  146.3498  139.9852  142.8691 LP  0  0  0  0  0  0  0  0  0  0  0  0  # atno 17320 bound_to 7965
  145.1777  140.9752  143.4284 LP  0  0  0  0  0  0  0  0  0  0  0  0  # atno 17321 bound_to 7965
  140.7813  143.4090  151.1024 LP  0  0  0  0  0  0  0  0  0  0  0  0  # atno 17342 bound_to 10162
  139.7750  143.8438  152.3127 LP  0  0  0  0  0  0  0  0  0  0  0  0  # atno 17343 bound_to 10162
  156.0584  130.5641  150.9141 LP  0  0  0  0  0  0  0  0  0  0  0  0  # atno 17370 bound_to 10713
  157.6029  131.0940  150.8929 LP  0  0  0  0  0  0  0  0  0  0  0  0  # atno 17371 bound_to 10713
  141.0470  134.0540  157.3831 LP  0  0  0  0  0  0  0  0  0  0  0  0  # atno 17394 bound_to 11000
  139.9015  135.0166  156.7291 LP  0  0  0  0  0  0  0  0  0  0  0  0  # atno 17395 bound_to 11000

$$$$
