AV-unprocessed.smi:1984|AV-procd|sdf|8041|dock10
  -GOLD-   2272010233D 1   1.00000     0.00000
 Structure written by MMmdl.
 38 39  0  0  0  0  0  0  0  0  1 V2000
  154.5803  141.1268  161.1762 C   0  0  0  0  0  0  0  0  0  0  0  0
  153.6482  142.2417  160.8038 C   0  0  0  0  0  0  0  0  0  0  0  0
  153.2018  143.3252  161.6110 C   0  0  0  0  0  0  0  0  0  0  0  0
  152.3736  144.0386  160.7910 C   0  0  0  0  0  0  0  0  0  0  0  0
  151.5964  145.2862  161.0570 C   0  0  0  0  0  0  0  0  0  0  0  0
  152.3526  143.3824  159.5725 N   0  0  0  0  0  0  0  0  0  0  0  0
  151.6278  143.7235  158.3573 C   0  0  0  0  0  0  0  0  0  0  0  0
  150.7981  142.5433  157.8435 C   0  0  0  0  0  0  0  0  0  0  0  0
  150.1327  141.8637  158.6251 O   0  0  0  0  0  0  0  0  0  0  0  0
  150.8428  142.3115  156.5237 N   0  0  0  0  0  0  0  0  0  0  0  0
  150.1130  141.2449  155.8503 C   0  0  0  0  0  0  0  0  0  0  0  0
  151.0307  140.0520  155.5304 C   0  0  1  0  0  0  0  0  0  0  0  0
  151.6836  139.4262  156.7813 C   0  0  0  0  0  0  0  0  0  0  0  0
  152.3243  138.0920  156.3856 C   0  0  0  0  0  0  0  0  0  0  0  0
  151.2494  137.3962  155.0764 S   0  0  0  0  0  0  0  0  0  0  0  0
  152.0704  137.0914  153.8950 O   0  0  0  0  0  0  0  0  0  0  0  0
  150.3572  136.3837  155.6607 O   0  0  0  0  0  0  0  0  0  0  0  0
  150.2928  138.9321  154.7796 C   0  0  0  0  0  0  0  0  0  0  0  0
  153.1388  142.2837  159.5839 N   0  0  0  0  0  0  0  0  0  0  0  0
  154.8992  141.2100  162.2152 H   0  0  0  0  0  0  0  0  0  0  0  0
  155.4747  141.1378  160.5528 H   0  0  0  0  0  0  0  0  0  0  0  0
  154.0994  140.1560  161.0539 H   0  0  0  0  0  0  0  0  0  0  0  0
  153.4518  143.5450  162.6382 H   0  0  0  0  0  0  0  0  0  0  0  0
  151.8111  145.6735  162.0531 H   0  0  0  0  0  0  0  0  0  0  0  0
  150.5247  145.0971  160.9958 H   0  0  0  0  0  0  0  0  0  0  0  0
  151.8472  146.0635  160.3354 H   0  0  0  0  0  0  0  0  0  0  0  0
  150.9926  144.5868  158.5597 H   0  0  0  0  0  0  0  0  0  0  0  0
  152.3357  144.0262  157.5839 H   0  0  0  0  0  0  0  0  0  0  0  0
  151.4127  142.9158  155.9495 H   0  0  0  0  0  0  0  0  0  0  0  0
  149.2800  140.9184  156.4753 H   0  0  0  0  0  0  0  0  0  0  0  0
  149.6842  141.6414  154.9286 H   0  0  0  0  0  0  0  0  0  0  0  0
  151.8365  140.3994  154.8817 H   0  0  0  0  0  0  0  0  0  0  0  0
  152.4154  140.0931  157.2380 H   0  0  0  0  0  0  0  0  0  0  0  0
  150.9137  139.2384  157.5308 H   0  0  0  0  0  0  0  0  0  0  0  0
  153.3157  138.2498  155.9601 H   0  0  0  0  0  0  0  0  0  0  0  0
  152.4077  137.3932  157.2180 H   0  0  0  0  0  0  0  0  0  0  0  0
  149.2912  138.7811  155.1835 H   0  0  0  0  0  0  0  0  0  0  0  0
  150.2085  139.1223  153.7095 H   0  0  0  0  0  0  0  0  0  0  0  0
  1  2  1  0  0  0  0
  1 20  1  0  0  0  0
  1 21  1  0  0  0  0
  1 22  1  0  0  0  0
  2 19  2  0  0  0  0
  2  3  1  0  0  0  0
  3  4  2  0  0  0  0
  3 23  1  0  0  0  0
  4  5  1  0  0  0  0
  4  6  1  0  0  0  0
  5 24  1  0  0  0  0
  5 25  1  0  0  0  0
  5 26  1  0  0  0  0
  6  7  1  0  0  0  0
  6 19  1  0  0  0  0
  7  8  1  0  0  0  0
  7 27  1  0  0  0  0
  7 28  1  0  0  0  0
  8  9  2  0  0  0  0
  8 10  1  0  0  0  0
 10 11  1  0  0  0  0
 10 29  1  0  0  0  0
 11 12  1  0  0  0  0
 11 30  1  0  0  0  0
 11 31  1  0  0  0  0
 12 18  1  0  0  0  0
 12 13  1  0  0  0  0
 12 32  1  0  0  0  0
 13 14  1  0  0  0  0
 13 33  1  0  0  0  0
 13 34  1  0  0  0  0
 14 15  1  0  0  0  0
 14 35  1  0  0  0  0
 14 36  1  0  0  0  0
 15 16  2  0  0  0  0
 15 17  2  0  0  0  0
 15 18  1  0  0  0  0
 18 37  1  0  0  0  0
 18 38  1  0  0  0  0
M  END
> <s_m_source_file>
AV-unprocessed.smi

> <i_m_source_file_index>
1984

> <i_lp_mmshare_version>
43012

> <i_f3d_flags>
0

> <s_epik_input>
W0NIM11jMVtjSF1jKFtDSDNdKW4objEpW0NIMl1DKD1PKVtOSF1bQ0gyXVtDQEBIXShbQ0gyXTIpW0NIMl1bQ0gyXVMyKD1PKT1P

> <s_epik_cmdline>
J2VwaWtfcHl0aG9uJywgJy1waCcsICc3LjAnLCAnLXRuJywgJzgnLCAnLW1hJywgJzIwMCcsICctbWV0YWxfYmluZGluZycsICctaW1hZScsICc8aW5maWxlLm1hZT4nLCAnLW9tYWUnLCAnPG91dGZpbGUubWFlPic=

> <r_lp_tautomer_probability>
1

> <r_epik_Ionization_Penalty>
0.000335865

> <r_epik_Ionization_Penalty_Charging>
0

> <r_epik_Ionization_Penalty_Neutral>
0.000335865

> <r_epik_State_Penalty>
-0

> <r_epik_Charging_Adjusted_Penalty>
0

> <i_epik_Tot_Q>
0

> <i_epik_Tot_abs_Q>
0

> <r_epik_Metal_State_Penalty>
-0

> <b_epik_Metal_Only>
0

> <s_lp_Force_Field>
OPLS_2005

> <r_lp_Energy>
4.96267

> <b_lp_Chiralities_Consistent>
1

> <s_lp_Variant>
AV-unprocessed.smi:1984-2

> <Gold.Version>
5.8.1

> <Gold.Id.Protein>
6NUR|6NUR_protein|mol2

> <Gold.PLP.Fitness>
40.9292

> <Gold.PLP.PLP>
-38.7634

> <Gold.PLP.part.hbond>
-1.5444

> <Gold.PLP.part.metal>
0.0000

> <Gold.PLP.part.buried>
-0.2550

> <Gold.PLP.part.nonpolar>
-38.6322

> <Gold.PLP.part.repulsive>
2.2218

> <Gold.PLP.ligand.clash>
0.0000

> <Gold.PLP.ligand.torsion>
0.3844

> <Gold.PLP.Chemscore.Hbond>
0.9760

> <Gold.PLP.Chemscore.CHOScore>
0.0000

> <Gold.PLP.Chemscore.Metal>
0.0000

> <Gold.Chemscore.Hbonds>
donor molecule, donor type, donor heavy atom, donor atom, acceptor molecule, acceptor atom, score
      P1  H 10752 10765       L1    16  1.00

> <Gold.PLP.Chemscore.Internal.Correction>
0.0065

> <Gold.Rescore>
     Score         DG    S(hbond)    S(metal)    S(lipo)     H(rot)  DE(clash)    DE(int)     intcor
     14.57     -16.12       0.99        0.00      99.44       1.68       1.22       0.33       ----

> <Gold.Chemscore.Fitness>
14.5698

> <Gold.Chemscore.DG>
-16.1225

> <Gold.Chemscore.ZeroCoef>
-5.4800

> <Gold.Chemscore.Hbond>
0.9903

> <Gold.Chemscore.Metal>
0.0000

> <Gold.Chemscore.Lipo>
99.4395

> <Gold.Chemscore.Internal_Hbond>
0.0000

> <Gold.Chemscore.DEClash>
1.2206

> <Gold.Chemscore.DEInternal>
0.3321

> <Gold.Chemscore.Rot>
1.6795

> <Gold.Chemscore.Internal.Correction>
   9.000000E+99

> <Gold.Chemscore.Hbonds>
donor molecule, donor type, donor heavy atom, donor atom, acceptor molecule, acceptor atom, score
      P1  H 10752 10765       L1    16  0.91

> <Gold.Chemscore.Hbond.Weighted>
-3.3076

> <Gold.Chemscore.Metal.Weighted>
-0.0000

> <Gold.Chemscore.Lipo.Weighted>
-11.6344

> <Gold.Chemscore.Internal_Hbond.Weighted>
0.0000

> <Gold.Chemscore.DEClash.Weighted>
1.2206

> <Gold.Chemscore.DEInternal.Weighted>
0.3321

> <Gold.Chemscore.Rot.Weighted>
4.2995

> <Gold.Chemscore.Internal.Correction.Weighted>
   9.000000E+99

> <Gold.Protein.RotatedTorsions>
[ 6907 6896 6895 6894 ] final   96.07 input  -60.11 | X-H torsion
[ 7974 7965 7964 7962 ] final -153.29 input  175.53 | X-H torsion
[ 8008 7997 7996 7995 ] final  -91.34 input   59.86 | X-H torsion
[ 10167 10162 10161 10158 ] final  -97.94 input  -65.29 | X-H torsion
[ 10718 10713 10712 10709 ] final   73.47 input   66.30 | X-H torsion
[ 10763 10752 10751 10750 ] final  142.97 input  -60.55 | X-H torsion
[ 11005 11000 10999 10996 ] final  174.00 input  -57.11 | X-H torsion

> <Gold.Protein.ActiveResidues>
 VAL166  LYS551  ARG553  GLY616  TRP617  ASP618  TYR619  PRO620  LYS621  CYS622 
 ASP623  PHE694  ASN695  SER759  ASP760  ASP761  ALA762  ILE779  LEU786  VAL792 
 PHE793  MET794  SER795  GLU796  ALA797  LYS798  CYS799  TRP800  GLU811  SER814 

> <Gold.Protein.RotatedAtoms>
  152.5438  134.0943  159.8289 H   0  0  0  0  0  0  0  0  0  0  0  0  # atno 6907 bound_to 6896
  151.1028  133.5223  159.2616 H   0  0  0  0  0  0  0  0  0  0  0  0  # atno 6908 bound_to 6896
  151.1971  135.0436  159.8911 H   0  0  0  0  0  0  0  0  0  0  0  0  # atno 6909 bound_to 6896
  144.7749  140.4546  143.5881 H   0  0  0  0  0  0  0  0  0  0  0  0  # atno 7974 bound_to 7965
  154.7095  140.0520  157.0536 H   0  0  0  0  0  0  0  0  0  0  0  0  # atno 8008 bound_to 7997
  155.0574  140.3186  155.4653 H   0  0  0  0  0  0  0  0  0  0  0  0  # atno 8009 bound_to 7997
  156.2785  140.2105  156.5700 H   0  0  0  0  0  0  0  0  0  0  0  0  # atno 8010 bound_to 7997
  140.2781  143.3299  152.0468 H   0  0  0  0  0  0  0  0  0  0  0  0  # atno 10167 bound_to 10162
  157.6549  130.9630  150.1074 H   0  0  0  0  0  0  0  0  0  0  0  0  # atno 10718 bound_to 10713
  153.9646  135.2957  155.3431 H   0  0  0  0  0  0  0  0  0  0  0  0  # atno 10763 bound_to 10752
  154.7356  135.5048  153.9039 H   0  0  0  0  0  0  0  0  0  0  0  0  # atno 10764 bound_to 10752
  153.0930  135.6713  153.9928 H   0  0  0  0  0  0  0  0  0  0  0  0  # atno 10765 bound_to 10752
  140.3465  134.7231  157.4239 H   0  0  0  0  0  0  0  0  0  0  0  0  # atno 11005 bound_to 11000
  145.6216  139.1525  143.3019 LP  0  0  0  0  0  0  0  0  0  0  0  0  # atno 17320 bound_to 7965
  146.1921  140.6326  142.9141 LP  0  0  0  0  0  0  0  0  0  0  0  0  # atno 17321 bound_to 7965
  139.4970  144.6610  151.6464 LP  0  0  0  0  0  0  0  0  0  0  0  0  # atno 17342 bound_to 10162
  140.5834  143.9906  150.6281 LP  0  0  0  0  0  0  0  0  0  0  0  0  # atno 17343 bound_to 10162
  156.1980  130.3658  149.8824 LP  0  0  0  0  0  0  0  0  0  0  0  0  # atno 17370 bound_to 10713
  156.6735  130.8830  151.3566 LP  0  0  0  0  0  0  0  0  0  0  0  0  # atno 17371 bound_to 10713
  140.0738  134.5826  155.8613 LP  0  0  0  0  0  0  0  0  0  0  0  0  # atno 17394 bound_to 11000
  141.2024  133.6625  156.6004 LP  0  0  0  0  0  0  0  0  0  0  0  0  # atno 17395 bound_to 11000

$$$$
