AV-unprocessed.smi:685|AV-procd|sdf|3333|dock6
  -GOLD-   22720 0303D 1   1.00000     0.00000
 Structure written by MMmdl.
 50 51  0  0  0  0  0  0  0  0  1 V2000
  152.5055  138.1394  154.5880 C   0  0  0  0  0  0  0  0  0  0  0  0
  151.8467  139.1724  155.4577 C   0  0  0  0  0  0  0  0  0  0  0  0
  152.5071  139.6580  156.4955 N   0  0  0  0  0  0  0  0  0  0  0  0
  151.6651  140.5517  157.0514 N   0  0  0  0  0  0  0  0  0  0  0  0
  152.0829  141.2823  158.2323 C   0  0  0  0  0  0  0  0  0  0  0  0
  150.4690  140.6303  156.3644 C   0  0  0  0  0  0  0  0  0  0  0  0
  149.3740  141.5581  156.7830 C   0  0  0  0  0  0  0  0  0  0  0  0
  150.5496  139.7486  155.3192 C   0  0  0  0  0  0  0  0  0  0  0  0
  149.5274  139.4438  154.2535 C   0  0  0  0  0  0  0  0  0  0  0  0
  148.3986  138.5221  154.7641 C   0  0  2  0  0  0  0  0  0  0  0  0
  148.9153  137.3970  155.6756 C   0  0  0  0  0  0  0  0  0  0  0  0
  147.6813  137.9272  153.6398 N   0  0  0  0  0  0  0  0  0  0  0  0
  146.3732  138.0820  153.3803 C   0  0  0  0  0  0  0  0  0  0  0  0
  145.6210  138.7612  154.0797 O   0  0  0  0  0  0  0  0  0  0  0  0
  145.8348  137.3549  152.1453 C   0  0  0  0  0  0  0  0  0  0  0  0
  144.9077  136.1801  152.5084 C   0  0  0  0  0  0  0  0  0  0  0  0
  144.6927  135.1955  151.3449 C   0  0  0  0  0  0  0  0  0  0  0  0
  143.5388  134.2094  151.5495 C   0  0  0  0  0  0  0  0  0  0  0  0
  143.8163  133.0717  150.5624 C   0  0  0  0  0  0  0  0  0  0  0  0
  145.3331  133.0770  150.3191 C   0  0  0  0  0  0  0  0  0  0  0  0
  145.8913  134.2753  151.0969 C   0  0  0  0  0  0  0  0  0  0  0  0
  151.7703  137.4678  154.1447 H   0  0  0  0  0  0  0  0  0  0  0  0
  153.2086  137.5284  155.1548 H   0  0  0  0  0  0  0  0  0  0  0  0
  153.0553  138.6112  153.7736 H   0  0  0  0  0  0  0  0  0  0  0  0
  151.9221  142.3499  158.0805 H   0  0  0  0  0  0  0  0  0  0  0  0
  153.1413  141.1133  158.4362 H   0  0  0  0  0  0  0  0  0  0  0  0
  151.4991  140.9518  159.0915 H   0  0  0  0  0  0  0  0  0  0  0  0
  148.4652  141.3905  156.2060 H   0  0  0  0  0  0  0  0  0  0  0  0
  149.6734  142.5961  156.6372 H   0  0  0  0  0  0  0  0  0  0  0  0
  149.1284  141.4207  157.8361 H   0  0  0  0  0  0  0  0  0  0  0  0
  149.0954  140.3751  153.8863 H   0  0  0  0  0  0  0  0  0  0  0  0
  149.9957  138.9889  153.3806 H   0  0  0  0  0  0  0  0  0  0  0  0
  147.6919  139.1191  155.3436 H   0  0  0  0  0  0  0  0  0  0  0  0
  149.3940  137.7951  156.5705 H   0  0  0  0  0  0  0  0  0  0  0  0
  149.6438  136.7712  155.1590 H   0  0  0  0  0  0  0  0  0  0  0  0
  148.0987  136.7544  156.0062 H   0  0  0  0  0  0  0  0  0  0  0  0
  148.2213  137.3494  153.0120 H   0  0  0  0  0  0  0  0  0  0  0  0
  145.3037  138.0656  151.5105 H   0  0  0  0  0  0  0  0  0  0  0  0
  146.6839  136.9931  151.5645 H   0  0  0  0  0  0  0  0  0  0  0  0
  145.3320  135.6323  153.3513 H   0  0  0  0  0  0  0  0  0  0  0  0
  143.9441  136.5619  152.8493 H   0  0  0  0  0  0  0  0  0  0  0  0
  144.5061  135.7600  150.4296 H   0  0  0  0  0  0  0  0  0  0  0  0
  143.5578  133.8199  152.5685 H   0  0  0  0  0  0  0  0  0  0  0  0
  142.5615  134.6654  151.3883 H   0  0  0  0  0  0  0  0  0  0  0  0
  143.4634  132.1129  150.9433 H   0  0  0  0  0  0  0  0  0  0  0  0
  143.2952  133.2613  149.6230 H   0  0  0  0  0  0  0  0  0  0  0  0
  145.7985  132.1470  150.6470 H   0  0  0  0  0  0  0  0  0  0  0  0
  145.5378  133.1851  149.2534 H   0  0  0  0  0  0  0  0  0  0  0  0
  146.6980  134.7774  150.5619 H   0  0  0  0  0  0  0  0  0  0  0  0
  146.2960  133.9286  152.0490 H   0  0  0  0  0  0  0  0  0  0  0  0
  1  2  1  0  0  0  0
  1 22  1  0  0  0  0
  1 23  1  0  0  0  0
  1 24  1  0  0  0  0
  2  8  1  0  0  0  0
  2  3  2  0  0  0  0
  3  4  1  0  0  0  0
  4  5  1  0  0  0  0
  4  6  1  0  0  0  0
  5 25  1  0  0  0  0
  5 26  1  0  0  0  0
  5 27  1  0  0  0  0
  6  7  1  0  0  0  0
  6  8  2  0  0  0  0
  7 28  1  0  0  0  0
  7 29  1  0  0  0  0
  7 30  1  0  0  0  0
  8  9  1  0  0  0  0
  9 10  1  0  0  0  0
  9 31  1  0  0  0  0
  9 32  1  0  0  0  0
 10 11  1  0  0  0  0
 10 12  1  0  0  0  0
 10 33  1  0  0  0  0
 11 34  1  0  0  0  0
 11 35  1  0  0  0  0
 11 36  1  0  0  0  0
 12 13  1  0  0  0  0
 12 37  1  0  0  0  0
 13 14  2  0  0  0  0
 13 15  1  0  0  0  0
 15 16  1  0  0  0  0
 15 38  1  0  0  0  0
 15 39  1  0  0  0  0
 16 17  1  0  0  0  0
 16 40  1  0  0  0  0
 16 41  1  0  0  0  0
 17 21  1  0  0  0  0
 17 18  1  0  0  0  0
 17 42  1  0  0  0  0
 18 19  1  0  0  0  0
 18 43  1  0  0  0  0
 18 44  1  0  0  0  0
 19 20  1  0  0  0  0
 19 45  1  0  0  0  0
 19 46  1  0  0  0  0
 20 21  1  0  0  0  0
 20 47  1  0  0  0  0
 20 48  1  0  0  0  0
 21 49  1  0  0  0  0
 21 50  1  0  0  0  0
M  END
> <s_m_source_file>
AV-unprocessed.smi

> <i_m_source_file_index>
685

> <i_lp_mmshare_version>
43012

> <i_f3d_flags>
0

> <s_epik_input>
W0NIM11jMW5uKFtDSDNdKWMoW0NIM10pYzFbQ0gyXVtDQEhdKFtDSDNdKVtOSF1DKD1PKVtDSDJdW0NIMl1bQ0hdMltDSDJdW0NIMl1bQ0gyXVtDSDJdMg==

> <s_epik_cmdline>
J2VwaWtfcHl0aG9uJywgJy1waCcsICc3LjAnLCAnLXRuJywgJzgnLCAnLW1hJywgJzIwMCcsICctbWV0YWxfYmluZGluZycsICctaW1hZScsICc8aW5maWxlLm1hZT4nLCAnLW9tYWUnLCAnPG91dGZpbGUubWFlPic=

> <r_lp_tautomer_probability>
1

> <r_epik_Ionization_Penalty>
0.0131144

> <r_epik_Ionization_Penalty_Charging>
0

> <r_epik_Ionization_Penalty_Neutral>
0.0131144

> <r_epik_State_Penalty>
0.0101889

> <r_epik_Charging_Adjusted_Penalty>
0.0101889

> <i_epik_Tot_Q>
0

> <i_epik_Tot_abs_Q>
0

> <r_epik_Metal_State_Penalty>
0.00996794

> <b_epik_Metal_Only>
0

> <s_lp_Force_Field>
OPLS_2005

> <r_lp_Energy>
16.135

> <b_lp_Chiralities_Consistent>
1

> <s_lp_Variant>
AV-unprocessed.smi:685-1

> <Gold.Version>
5.8.1

> <Gold.Id.Protein>
6NUR|6NUR_protein|mol2

> <Gold.PLP.Fitness>
42.9881

> <Gold.PLP.PLP>
-38.3074

> <Gold.PLP.part.hbond>
-2.0000

> <Gold.PLP.part.metal>
0.0000

> <Gold.PLP.part.buried>
-4.0764

> <Gold.PLP.part.nonpolar>
-32.2430

> <Gold.PLP.part.repulsive>
0.1471

> <Gold.PLP.ligand.clash>
0.0000

> <Gold.PLP.ligand.torsion>
0.6758

> <Gold.PLP.Chemscore.Hbond>
2.0000

> <Gold.PLP.Chemscore.CHOScore>
0.0000

> <Gold.PLP.Chemscore.Metal>
0.0000

> <Gold.Chemscore.Hbonds>
donor molecule, donor type, donor heavy atom, donor atom, acceptor molecule, acceptor atom, score
      L1  H    12    37       P1  7948  1.00
      P1  H  7997  8008       L1     3  1.00

> <Gold.PLP.Chemscore.Internal.Correction>
0.0322

> <Gold.Rescore>
     Score         DG    S(hbond)    S(metal)    S(lipo)     H(rot)  DE(clash)    DE(int)     intcor
     18.84     -19.63       1.98        0.00      97.72       1.53       0.04       0.75       ----

> <Gold.Chemscore.Fitness>
18.8429

> <Gold.Chemscore.DG>
-19.6309

> <Gold.Chemscore.ZeroCoef>
-5.4800

> <Gold.Chemscore.Hbond>
1.9839

> <Gold.Chemscore.Metal>
0.0000

> <Gold.Chemscore.Lipo>
97.7193

> <Gold.Chemscore.Internal_Hbond>
0.0000

> <Gold.Chemscore.DEClash>
0.0429

> <Gold.Chemscore.DEInternal>
0.7451

> <Gold.Chemscore.Rot>
1.5268

> <Gold.Chemscore.Internal.Correction>
   9.000000E+99

> <Gold.Chemscore.Hbonds>
donor molecule, donor type, donor heavy atom, donor atom, acceptor molecule, acceptor atom, score
      L1  H    12    37       P1  7948  1.00
      P1  H  7997  8008       L1     3  0.90

> <Gold.Chemscore.Hbond.Weighted>
-6.6263

> <Gold.Chemscore.Metal.Weighted>
-0.0000

> <Gold.Chemscore.Lipo.Weighted>
-11.4332

> <Gold.Chemscore.Internal_Hbond.Weighted>
0.0000

> <Gold.Chemscore.DEClash.Weighted>
0.0429

> <Gold.Chemscore.DEInternal.Weighted>
0.7451

> <Gold.Chemscore.Rot.Weighted>
3.9086

> <Gold.Chemscore.Internal.Correction.Weighted>
   9.000000E+99

> <Gold.Protein.RotatedTorsions>
[ 6907 6896 6895 6894 ] final  -70.45 input  -60.11 | X-H torsion
[ 7974 7965 7964 7962 ] final  -96.02 input  175.53 | X-H torsion
[ 8008 7997 7996 7995 ] final  -61.55 input   59.86 | X-H torsion
[ 10167 10162 10161 10158 ] final  160.89 input  -65.29 | X-H torsion
[ 10718 10713 10712 10709 ] final  179.57 input   66.30 | X-H torsion
[ 10763 10752 10751 10750 ] final   86.04 input  -60.55 | X-H torsion
[ 11005 11000 10999 10996 ] final  -48.03 input  -57.11 | X-H torsion

> <Gold.Protein.ActiveResidues>
 VAL166  LYS551  ARG553  GLY616  TRP617  ASP618  TYR619  PRO620  LYS621  CYS622 
 ASP623  PHE694  ASN695  SER759  ASP760  ASP761  ALA762  ILE779  LEU786  VAL792 
 PHE793  MET794  SER795  GLU796  ALA797  LYS798  CYS799  TRP800  GLU811  SER814 

> <Gold.Protein.RotatedAtoms>
  150.7257  134.5451  159.5766 H   0  0  0  0  0  0  0  0  0  0  0  0  # atno 6907 bound_to 6896
  152.2952  134.7672  160.0378 H   0  0  0  0  0  0  0  0  0  0  0  0  # atno 6908 bound_to 6896
  151.8272  133.3367  159.3639 H   0  0  0  0  0  0  0  0  0  0  0  0  # atno 6909 bound_to 6896
  145.3523  140.9478  143.2547 H   0  0  0  0  0  0  0  0  0  0  0  0  # atno 7974 bound_to 7965
  154.4453  140.1015  156.6448 H   0  0  0  0  0  0  0  0  0  0  0  0  # atno 8008 bound_to 7997
  155.5462  140.3484  155.4439 H   0  0  0  0  0  0  0  0  0  0  0  0  # atno 8009 bound_to 7997
  156.0562  140.1315  156.9983 H   0  0  0  0  0  0  0  0  0  0  0  0  # atno 8010 bound_to 7997
  139.4844  144.4589  151.8731 H   0  0  0  0  0  0  0  0  0  0  0  0  # atno 10167 bound_to 10162
  156.8738  130.9793  151.3070 H   0  0  0  0  0  0  0  0  0  0  0  0  # atno 10718 bound_to 10713
  153.1532  135.4595  154.9667 H   0  0  0  0  0  0  0  0  0  0  0  0  # atno 10763 bound_to 10752
  154.7841  135.3198  154.7927 H   0  0  0  0  0  0  0  0  0  0  0  0  # atno 10764 bound_to 10752
  153.8429  135.6928  153.4855 H   0  0  0  0  0  0  0  0  0  0  0  0  # atno 10765 bound_to 10752
  141.0676  133.6689  156.3383 H   0  0  0  0  0  0  0  0  0  0  0  0  # atno 11005 bound_to 11000
  144.8708  139.5041  143.6768 LP  0  0  0  0  0  0  0  0  0  0  0  0  # atno 17320 bound_to 7965
  146.2962  139.7287  142.9124 LP  0  0  0  0  0  0  0  0  0  0  0  0  # atno 17321 bound_to 7965
  140.4051  144.2443  150.5891 LP  0  0  0  0  0  0  0  0  0  0  0  0  # atno 17342 bound_to 10162
  140.5020  143.2315  151.8664 LP  0  0  0  0  0  0  0  0  0  0  0  0  # atno 17343 bound_to 10162
  157.6180  130.8633  149.9061 LP  0  0  0  0  0  0  0  0  0  0  0  0  # atno 17370 bound_to 10713
  156.0712  130.3685  150.0771 LP  0  0  0  0  0  0  0  0  0  0  0  0  # atno 17371 bound_to 10713
  140.5740  134.5812  157.5464 LP  0  0  0  0  0  0  0  0  0  0  0  0  # atno 17394 bound_to 11000
  139.9492  134.7647  156.0489 LP  0  0  0  0  0  0  0  0  0  0  0  0  # atno 17395 bound_to 11000

$$$$
