AV-unprocessed.smi:1047|AV-procd|sdf|4594|dock2
  -GOLD-   22720 3 73D 1   1.00000     0.00000
 Structure written by MMmdl.
 55 57  0  0  0  0  0  0  0  0  1 V2000
  143.8939  132.4814  150.0186 C   0  0  0  0  0  0  0  0  0  0  0  0
  144.7233  133.7737  150.0084 C   0  0  0  0  0  0  0  0  0  0  0  0
  144.6238  134.5787  151.2243 N   0  0  0  0  0  0  0  0  0  0  0  0
  145.1277  133.8787  152.4039 C   0  0  0  0  0  0  0  0  0  0  0  0
  145.0510  134.7535  153.6671 C   0  0  0  0  0  0  0  0  0  0  0  0
  145.7572  135.9691  153.4443 O   0  0  0  0  0  0  0  0  0  0  0  0
  145.2412  136.7128  152.3428 C   0  0  1  0  0  0  0  0  0  0  0  0
  146.0439  138.0145  152.2144 C   0  0  0  0  0  0  0  0  0  0  0  0
  147.2209  137.9605  153.0693 N   0  0  0  0  0  0  0  0  0  0  0  0
  147.7330  139.2574  153.4979 C   0  0  0  0  0  0  0  0  0  0  0  0
  149.0639  139.1111  154.2668 C   0  0  1  0  0  0  0  0  0  0  0  0
  149.9720  138.4237  153.4323 O   0  0  0  0  0  0  0  0  0  0  0  0
  149.7426  140.4405  154.6792 C   0  0  0  0  0  0  0  0  0  0  0  0
  150.7817  140.2802  155.6826 N   0  0  0  0  0  0  0  0  0  0  0  0
  151.7898  139.3864  155.6688 C   0  0  0  0  0  0  0  0  0  0  0  0
  152.6585  139.4307  156.6747 N   0  0  0  0  0  0  0  0  0  0  0  0
  152.1523  140.4718  157.4336 C   0  0  0  0  0  0  0  0  0  0  0  0
  152.6247  141.0421  158.6357 C   0  0  0  0  0  0  0  0  0  0  0  0
  151.9426  142.1202  159.2432 C   0  0  0  0  0  0  0  0  0  0  0  0
  152.4892  142.7075  160.5325 C   0  0  0  0  0  0  0  0  0  0  0  0
  150.7638  142.6397  158.6504 C   0  0  0  0  0  0  0  0  0  0  0  0
  150.0132  143.7964  159.2860 C   0  0  0  0  0  0  0  0  0  0  0  0
  150.2778  142.0808  157.4499 C   0  0  0  0  0  0  0  0  0  0  0  0
  150.9700  141.0142  156.8498 C   0  0  0  0  0  0  0  0  0  0  0  0
  145.3432  135.8399  151.0773 C   0  0  0  0  0  0  0  0  0  0  0  0
  143.9345  131.9940  149.0445 H   0  0  0  0  0  0  0  0  0  0  0  0
  142.8467  132.6879  150.2421 H   0  0  0  0  0  0  0  0  0  0  0  0
  144.2623  131.7658  150.7535 H   0  0  0  0  0  0  0  0  0  0  0  0
  145.7684  133.5349  149.8053 H   0  0  0  0  0  0  0  0  0  0  0  0
  144.3828  134.3722  149.1621 H   0  0  0  0  0  0  0  0  0  0  0  0
  144.5569  132.9667  152.5764 H   0  0  0  0  0  0  0  0  0  0  0  0
  146.1628  133.5750  152.2394 H   0  0  0  0  0  0  0  0  0  0  0  0
  144.0135  134.9692  153.9279 H   0  0  0  0  0  0  0  0  0  0  0  0
  145.4935  134.2338  154.5169 H   0  0  0  0  0  0  0  0  0  0  0  0
  144.1915  136.9541  152.5260 H   0  0  0  0  0  0  0  0  0  0  0  0
  146.3290  138.1856  151.1757 H   0  0  0  0  0  0  0  0  0  0  0  0
  145.4168  138.8551  152.5139 H   0  0  0  0  0  0  0  0  0  0  0  0
  147.9550  137.4302  152.6097 H   0  0  0  0  0  0  0  0  0  0  0  0
  147.8918  139.8810  152.6169 H   0  0  0  0  0  0  0  0  0  0  0  0
  146.9983  139.7743  154.1166 H   0  0  0  0  0  0  0  0  0  0  0  0
  148.9053  138.4882  155.1476 H   0  0  0  0  0  0  0  0  0  0  0  0
  149.4821  137.8424  152.8711 H   0  0  0  0  0  0  0  0  0  0  0  0
  150.1849  140.9239  153.8071 H   0  0  0  0  0  0  0  0  0  0  0  0
  148.9967  141.1331  155.0728 H   0  0  0  0  0  0  0  0  0  0  0  0
  151.9025  138.6727  154.8658 H   0  0  0  0  0  0  0  0  0  0  0  0
  153.5219  140.6453  159.0873 H   0  0  0  0  0  0  0  0  0  0  0  0
  151.7761  142.5691  161.3454 H   0  0  0  0  0  0  0  0  0  0  0  0
  152.6809  143.7748  160.4168 H   0  0  0  0  0  0  0  0  0  0  0  0
  153.4261  142.2306  160.8225 H   0  0  0  0  0  0  0  0  0  0  0  0
  149.1197  144.0521  158.7156 H   0  0  0  0  0  0  0  0  0  0  0  0
  150.6459  144.6832  159.3321 H   0  0  0  0  0  0  0  0  0  0  0  0
  149.7013  143.5394  160.2985 H   0  0  0  0  0  0  0  0  0  0  0  0
  149.3848  142.4712  156.9851 H   0  0  0  0  0  0  0  0  0  0  0  0
  146.3935  135.6432  150.8550 H   0  0  0  0  0  0  0  0  0  0  0  0
  144.9430  136.3932  150.2267 H   0  0  0  0  0  0  0  0  0  0  0  0
  1  2  1  0  0  0  0
  1 26  1  0  0  0  0
  1 27  1  0  0  0  0
  1 28  1  0  0  0  0
  2  3  1  0  0  0  0
  2 29  1  0  0  0  0
  2 30  1  0  0  0  0
  3 25  1  0  0  0  0
  3  4  1  0  0  0  0
  4  5  1  0  0  0  0
  4 31  1  0  0  0  0
  4 32  1  0  0  0  0
  5  6  1  0  0  0  0
  5 33  1  0  0  0  0
  5 34  1  0  0  0  0
  6  7  1  0  0  0  0
  7  8  1  0  0  0  0
  7 25  1  0  0  0  0
  7 35  1  0  0  0  0
  8  9  1  0  0  0  0
  8 36  1  0  0  0  0
  8 37  1  0  0  0  0
  9 10  1  0  0  0  0
  9 38  1  0  0  0  0
 10 11  1  0  0  0  0
 10 39  1  0  0  0  0
 10 40  1  0  0  0  0
 11 12  1  0  0  0  0
 11 13  1  0  0  0  0
 11 41  1  0  0  0  0
 12 42  1  0  0  0  0
 13 14  1  0  0  0  0
 13 43  1  0  0  0  0
 13 44  1  0  0  0  0
 14 24  1  0  0  0  0
 14 15  1  0  0  0  0
 15 16  2  0  0  0  0
 15 45  1  0  0  0  0
 16 17  1  0  0  0  0
 17 24  2  0  0  0  0
 17 18  1  0  0  0  0
 18 19  2  0  0  0  0
 18 46  1  0  0  0  0
 19 20  1  0  0  0  0
 19 21  1  0  0  0  0
 20 47  1  0  0  0  0
 20 48  1  0  0  0  0
 20 49  1  0  0  0  0
 21 22  1  0  0  0  0
 21 23  2  0  0  0  0
 22 50  1  0  0  0  0
 22 51  1  0  0  0  0
 22 52  1  0  0  0  0
 23 24  1  0  0  0  0
 23 53  1  0  0  0  0
 25 54  1  0  0  0  0
 25 55  1  0  0  0  0
M  END
> <s_m_source_file>
AV-unprocessed.smi

> <i_m_source_file_index>
1047

> <i_lp_mmshare_version>
43012

> <i_f3d_flags>
0

> <s_epik_input>
W0NIM11bQ0gyXU4xW0NIMl1bQ0gyXU9bQ0BIXShbQ0gyXTEpW0NIMl1bTkhdW0NIMl1bQ0BIXShbT0hdKVtDSDJdbihbY0hdbjIpYyhjMjMpW2NIXWMoW0NIM10pYyhbY0hdMylbQ0gzXQ==

> <s_epik_cmdline>
J2VwaWtfcHl0aG9uJywgJy1waCcsICc3LjAnLCAnLXRuJywgJzgnLCAnLW1hJywgJzIwMCcsICctbWV0YWxfYmluZGluZycsICctaW1hZScsICc8aW5maWxlLm1hZT4nLCAnLW9tYWUnLCAnPG91dGZpbGUubWFlPic=

> <r_epik_Ionization_Penalty>
2.74124

> <r_epik_Ionization_Penalty_Charging>
0

> <r_epik_Ionization_Penalty_Neutral>
2.74124

> <r_epik_State_Penalty>
2.37482

> <r_epik_Charging_Adjusted_Penalty>
2.37482

> <i_epik_Tot_Q>
0

> <i_epik_Tot_abs_Q>
0

> <r_epik_Metal_State_Penalty>
2.25944

> <b_epik_Metal_Only>
0

> <s_lp_Force_Field>
OPLS_2005

> <r_lp_Energy>
29.9902

> <b_lp_Chiralities_Consistent>
1

> <s_lp_Variant>
AV-unprocessed.smi:1047-35

> <Gold.Version>
5.8.1

> <Gold.Id.Protein>
6NUR|6NUR_protein|mol2

> <Gold.PLP.Fitness>
55.0392

> <Gold.PLP.PLP>
-47.9757

> <Gold.PLP.part.hbond>
-4.0620

> <Gold.PLP.part.metal>
0.0000

> <Gold.PLP.part.buried>
-4.3073

> <Gold.PLP.part.nonpolar>
-39.2671

> <Gold.PLP.part.repulsive>
0.2218

> <Gold.PLP.ligand.clash>
0.0109

> <Gold.PLP.ligand.torsion>
1.1038

> <Gold.PLP.Chemscore.Hbond>
3.0000

> <Gold.PLP.Chemscore.CHOScore>
0.0000

> <Gold.PLP.Chemscore.Metal>
0.0000

> <Gold.Chemscore.Hbonds>
donor molecule, donor type, donor heavy atom, donor atom, acceptor molecule, acceptor atom, score
      L1  H     9    38       P1  7948  1.00
      L1  H    12    42       P1  7948  1.00
      P1  H  7997  8008       L1    16  1.00

> <Gold.PLP.Chemscore.Internal.Correction>
0.2820

> <Gold.Rescore>
     Score         DG    S(hbond)    S(metal)    S(lipo)     H(rot)  DE(clash)    DE(int)     intcor
     20.17     -22.14       2.78        0.00     118.40       2.52       0.12       1.85       ----

> <Gold.Chemscore.Fitness>
20.1730

> <Gold.Chemscore.DG>
-22.1429

> <Gold.Chemscore.ZeroCoef>
-5.4800

> <Gold.Chemscore.Hbond>
2.7757

> <Gold.Chemscore.Metal>
0.0000

> <Gold.Chemscore.Lipo>
118.4005

> <Gold.Chemscore.Internal_Hbond>
0.0000

> <Gold.Chemscore.DEClash>
0.1198

> <Gold.Chemscore.DEInternal>
1.8501

> <Gold.Chemscore.Rot>
2.5237

> <Gold.Chemscore.Internal.Correction>
   9.000000E+99

> <Gold.Chemscore.Hbonds>
donor molecule, donor type, donor heavy atom, donor atom, acceptor molecule, acceptor atom, score
      L1  H     9    38       P1  7948  1.00
      L1  H    12    42       P1  7948  0.84
      P1  H  7997  8008       L1    16  0.22

> <Gold.Chemscore.Hbond.Weighted>
-9.2707

> <Gold.Chemscore.Metal.Weighted>
-0.0000

> <Gold.Chemscore.Lipo.Weighted>
-13.8529

> <Gold.Chemscore.Internal_Hbond.Weighted>
0.0000

> <Gold.Chemscore.DEClash.Weighted>
0.1198

> <Gold.Chemscore.DEInternal.Weighted>
1.8501

> <Gold.Chemscore.Rot.Weighted>
6.4607

> <Gold.Chemscore.Internal.Correction.Weighted>
   9.000000E+99

> <Gold.Protein.RotatedTorsions>
[ 6907 6896 6895 6894 ] final  166.77 input  -60.11 | X-H torsion
[ 7974 7965 7964 7962 ] final   38.99 input  175.53 | X-H torsion
[ 8008 7997 7996 7995 ] final  -33.94 input   59.86 | X-H torsion
[ 10167 10162 10161 10158 ] final  -64.02 input  -65.29 | X-H torsion
[ 10718 10713 10712 10709 ] final    2.11 input   66.30 | X-H torsion
[ 10763 10752 10751 10750 ] final   51.72 input  -60.55 | X-H torsion
[ 11005 11000 10999 10996 ] final -141.65 input  -57.11 | X-H torsion

> <Gold.Protein.ActiveResidues>
 VAL166  LYS551  ARG553  GLY616  TRP617  ASP618  TYR619  PRO620  LYS621  CYS622 
 ASP623  PHE694  ASN695  SER759  ASP760  ASP761  ALA762  ILE779  LEU786  VAL792 
 PHE793  MET794  SER795  GLU796  ALA797  LYS798  CYS799  TRP800  GLU811  SER814 

> <Gold.Protein.RotatedAtoms>
  151.8737  133.3481  159.3743 H   0  0  0  0  0  0  0  0  0  0  0  0  # atno 6907 bound_to 6896
  150.7146  134.5087  159.5606 H   0  0  0  0  0  0  0  0  0  0  0  0  # atno 6908 bound_to 6896
  152.2625  134.8020  160.0479 H   0  0  0  0  0  0  0  0  0  0  0  0  # atno 6909 bound_to 6896
  146.1019  139.5706  142.9408 H   0  0  0  0  0  0  0  0  0  0  0  0  # atno 7974 bound_to 7965
  154.4134  140.1697  156.1969 H   0  0  0  0  0  0  0  0  0  0  0  0  # atno 8008 bound_to 7997
  155.9557  140.3397  155.6423 H   0  0  0  0  0  0  0  0  0  0  0  0  # atno 8009 bound_to 7997
  155.6813  140.0723  157.2474 H   0  0  0  0  0  0  0  0  0  0  0  0  # atno 8010 bound_to 7997
  140.5830  143.2330  151.6302 H   0  0  0  0  0  0  0  0  0  0  0  0  # atno 10167 bound_to 10162
  156.8581  130.5577  149.5665 H   0  0  0  0  0  0  0  0  0  0  0  0  # atno 10718 bound_to 10713
  152.9786  135.5836  154.4461 H   0  0  0  0  0  0  0  0  0  0  0  0  # atno 10763 bound_to 10752
  154.4056  135.2769  155.2071 H   0  0  0  0  0  0  0  0  0  0  0  0  # atno 10764 bound_to 10752
  154.3883  135.6131  153.5883 H   0  0  0  0  0  0  0  0  0  0  0  0  # atno 10765 bound_to 10752
  140.8304  134.2524  157.4859 H   0  0  0  0  0  0  0  0  0  0  0  0  # atno 11005 bound_to 11000
  145.5837  141.0379  143.2108 LP  0  0  0  0  0  0  0  0  0  0  0  0  # atno 17320 bound_to 7965
  144.7440  139.7371  143.7299 LP  0  0  0  0  0  0  0  0  0  0  0  0  # atno 17321 bound_to 7965
  139.5181  144.3295  152.0839 LP  0  0  0  0  0  0  0  0  0  0  0  0  # atno 17342 bound_to 10162
  140.2448  144.4231  150.6245 LP  0  0  0  0  0  0  0  0  0  0  0  0  # atno 17343 bound_to 10162
  156.0791  130.5806  150.9530 LP  0  0  0  0  0  0  0  0  0  0  0  0  # atno 17370 bound_to 10713
  157.6265  131.0925  150.8523 LP  0  0  0  0  0  0  0  0  0  0  0  0  # atno 17371 bound_to 10713
  139.8705  134.9583  156.4295 LP  0  0  0  0  0  0  0  0  0  0  0  0  # atno 17394 bound_to 11000
  140.9004  133.7783  155.9674 LP  0  0  0  0  0  0  0  0  0  0  0  0  # atno 17395 bound_to 11000

$$$$
