AV-unprocessed.smi:1695|AV-procd|sdf|6791|dock6
  -GOLD-   22720 7553D 1   1.00000     0.00000
 Structure written by MMmdl.
 51 53  0  0  0  0  0  0  0  0  2 V2000
  153.0954  142.8040  161.4713 C   0  0  0  0  0  0  0  0  0  0  0  0
  152.5227  142.5353  160.0908 C   0  0  0  0  0  0  0  0  0  0  0  0
  152.8398  141.3218  159.4400 C   0  0  0  0  0  0  0  0  0  0  0  0
  152.3258  141.0321  158.1573 C   0  0  0  0  0  0  0  0  0  0  0  0
  152.4988  139.9214  157.3497 N   0  0  0  0  0  0  0  0  0  0  0  0
  151.7644  140.2430  156.2893 C   0  0  0  0  0  0  0  0  0  0  0  0
  151.1279  141.4297  156.3172 N   0  0  0  0  0  0  0  0  0  0  0  0
  150.2642  141.9786  155.2879 C   0  0  0  0  0  0  0  0  0  0  0  0
  149.1901  140.9751  154.8241 C   0  0  2  0  0  0  0  0  0  0  0  0
  149.8205  140.0205  153.9943 O   0  0  0  0  0  0  0  0  0  0  0  0
  148.0311  141.6294  154.0395 C   0  0  0  0  0  0  0  0  0  0  0  0
  147.2083  142.5320  154.8846 N   0  3  1  0  0  0  0  0  0  0  0  0
  145.9460  142.9625  154.2264 C   0  0  0  0  0  0  0  0  0  0  0  0
  145.1976  143.9950  155.0850 C   0  0  0  0  0  0  0  0  0  0  0  0
  144.9020  143.4400  156.4916 C   0  0  2  0  0  0  0  0  0  0  0  0
  144.2045  144.4914  157.3653 C   0  0  0  0  0  0  0  0  0  0  0  0
  144.8956  145.5949  157.6614 N   0  0  0  0  0  0  0  0  0  0  0  0
  143.0575  144.3100  157.7697 O   0  0  0  0  0  0  0  0  0  0  0  0
  146.2219  142.9722  157.1334 C   0  0  0  0  0  0  0  0  0  0  0  0
  146.9511  141.9620  156.2320 C   0  0  0  0  0  0  0  0  0  0  0  0
  151.4782  141.9969  157.5383 C   0  0  0  0  0  0  0  0  0  0  0  0
  151.1581  143.2096  158.1744 C   0  0  0  0  0  0  0  0  0  0  0  0
  151.6814  143.4836  159.4555 C   0  0  0  0  0  0  0  0  0  0  0  0
  151.3309  144.7959  160.1341 C   0  0  0  0  0  0  0  0  0  0  0  0
  153.6735  141.9543  161.8352 H   0  0  0  0  0  0  0  0  0  0  0  0
  152.2959  142.9941  162.1877 H   0  0  0  0  0  0  0  0  0  0  0  0
  153.7540  143.6726  161.4481 H   0  0  0  0  0  0  0  0  0  0  0  0
  153.4819  140.6001  159.9232 H   0  0  0  0  0  0  0  0  0  0  0  0
  151.6771  139.5745  155.4453 H   0  0  0  0  0  0  0  0  0  0  0  0
  149.8005  142.8888  155.6704 H   0  0  0  0  0  0  0  0  0  0  0  0
  150.8898  142.2790  154.4459 H   0  0  0  0  0  0  0  0  0  0  0  0
  148.8089  140.4531  155.7013 H   0  0  0  0  0  0  0  0  0  0  0  0
  149.4176  140.0463  153.1395 H   0  0  0  0  0  0  0  0  0  0  0  0
  148.4023  142.1996  153.1873 H   0  0  0  0  0  0  0  0  0  0  0  0
  147.4078  140.8364  153.6232 H   0  0  0  0  0  0  0  0  0  0  0  0
  146.1552  143.4014  153.2517 H   0  0  0  0  0  0  0  0  0  0  0  0
  145.3108  142.0930  154.0492 H   0  0  0  0  0  0  0  0  0  0  0  0
  145.7965  144.9050  155.1532 H   0  0  0  0  0  0  0  0  0  0  0  0
  144.2669  144.2746  154.5889 H   0  0  0  0  0  0  0  0  0  0  0  0
  144.2416  142.5765  156.3903 H   0  0  0  0  0  0  0  0  0  0  0  0
  144.4805  146.3168  158.2322 H   0  0  0  0  0  0  0  0  0  0  0  0
  145.8363  145.7041  157.3102 H   0  0  0  0  0  0  0  0  0  0  0  0
  146.8769  143.8255  157.3183 H   0  0  0  0  0  0  0  0  0  0  0  0
  146.0263  142.5175  158.1053 H   0  0  0  0  0  0  0  0  0  0  0  0
  146.3642  141.0469  156.1360 H   0  0  0  0  0  0  0  0  0  0  0  0
  147.8962  141.6856  156.7016 H   0  0  0  0  0  0  0  0  0  0  0  0
  150.5146  143.9231  157.6815 H   0  0  0  0  0  0  0  0  0  0  0  0
  150.7288  145.4315  159.4846 H   0  0  0  0  0  0  0  0  0  0  0  0
  152.2349  145.3471  160.3940 H   0  0  0  0  0  0  0  0  0  0  0  0
  150.7623  144.6136  161.0460 H   0  0  0  0  0  0  0  0  0  0  0  0
  147.7638  143.3630  155.0324 H   0  0  0  0  0  0  0  0  0  0  0  0
  1  2  1  0  0  0  0
  1 25  1  0  0  0  0
  1 26  1  0  0  0  0
  1 27  1  0  0  0  0
  2 23  1  0  0  0  0
  2  3  2  0  0  0  0
  3  4  1  0  0  0  0
  3 28  1  0  0  0  0
  4 21  2  0  0  0  0
  4  5  1  0  0  0  0
  5  6  2  0  0  0  0
  6  7  1  0  0  0  0
  6 29  1  0  0  0  0
  7  8  1  0  0  0  0
  7 21  1  0  0  0  0
  8  9  1  0  0  0  0
  8 30  1  0  0  0  0
  8 31  1  0  0  0  0
  9 10  1  0  0  0  0
  9 11  1  0  0  0  0
  9 32  1  0  0  0  0
 10 33  1  0  0  0  0
 11 12  1  0  0  0  0
 11 34  1  0  0  0  0
 11 35  1  0  0  0  0
 12 20  1  0  0  0  0
 12 13  1  0  0  0  0
 12 51  1  0  0  0  0
 13 14  1  0  0  0  0
 13 36  1  0  0  0  0
 13 37  1  0  0  0  0
 14 15  1  0  0  0  0
 14 38  1  0  0  0  0
 14 39  1  0  0  0  0
 15 16  1  0  0  0  0
 15 19  1  0  0  0  0
 15 40  1  0  0  0  0
 16 17  1  0  0  0  0
 16 18  2  0  0  0  0
 17 41  1  0  0  0  0
 17 42  1  0  0  0  0
 19 20  1  0  0  0  0
 19 43  1  0  0  0  0
 19 44  1  0  0  0  0
 20 45  1  0  0  0  0
 20 46  1  0  0  0  0
 21 22  1  0  0  0  0
 22 23  2  0  0  0  0
 22 47  1  0  0  0  0
 23 24  1  0  0  0  0
 24 48  1  0  0  0  0
 24 49  1  0  0  0  0
 24 50  1  0  0  0  0
M  CHG  1  12   1
M  END
> <s_m_source_file>
AV-unprocessed.smi

> <i_m_source_file_index>
1695

> <i_lp_mmshare_version>
43012

> <i_f3d_flags>
0

> <s_epik_input>
W0NIM11jKFtjSF0xKWMoW0NIM10pW2NIXWMoYzEyKW4oW2NIXW4yKVtDSDJdW0NASF0oW09IXSlbQ0gyXU4zW0NIMl1bQ0gyXVtDSF0oQyg9TylbTkgyXSlbQ0gyXVtDSDJdMw==

> <s_epik_cmdline>
J2VwaWtfcHl0aG9uJywgJy1waCcsICc3LjAnLCAnLXRuJywgJzgnLCAnLW1hJywgJzIwMCcsICctbWV0YWxfYmluZGluZycsICctaW1hZScsICc8aW5maWxlLm1hZT4nLCAnLW9tYWUnLCAnPG91dGZpbGUubWFlPic=

> <r_epik_Ionization_Penalty>
0.113899

> <r_epik_Ionization_Penalty_Charging>
0.0258844

> <r_epik_Ionization_Penalty_Neutral>
0.0880147

> <r_epik_State_Penalty>
0.0974403

> <r_epik_Charging_Adjusted_Penalty>
0.123325

> <i_epik_Tot_Q>
1

> <i_epik_Tot_abs_Q>
1

> <r_epik_Metal_State_Penalty>
0.0851148

> <b_epik_Metal_Only>
0

> <s_lp_Force_Field>
OPLS_2005

> <r_lp_Energy>
21.0029

> <b_lp_Chiralities_Consistent>
1

> <s_lp_Variant>
AV-unprocessed.smi:1695-3

> <Gold.Version>
5.8.1

> <Gold.Id.Protein>
6NUR|6NUR_protein|mol2

> <Gold.PLP.Fitness>
64.0290

> <Gold.PLP.PLP>
-47.5377

> <Gold.PLP.part.hbond>
-5.0000

> <Gold.PLP.part.metal>
0.0000

> <Gold.PLP.part.buried>
-5.5220

> <Gold.PLP.part.nonpolar>
-35.4418

> <Gold.PLP.part.repulsive>
0.1125

> <Gold.PLP.ligand.clash>
0.0000

> <Gold.PLP.ligand.torsion>
0.3802

> <Gold.PLP.Chemscore.Hbond>
5.7325

> <Gold.PLP.Chemscore.CHOScore>
0.0000

> <Gold.PLP.Chemscore.Metal>
0.0000

> <Gold.Chemscore.Hbonds>
donor molecule, donor type, donor heavy atom, donor atom, acceptor molecule, acceptor atom, score
      L1  H    10    33       P1  7957  0.98
      L1  H    12    51       P1  8028  2.00
      L1  H    17    42       P1  8029  0.95
      P1  H  7989  7998       L1    10  0.69
      P1  H  7997  8009       L1     5  0.94

> <Gold.PLP.Chemscore.Internal.Correction>
0.0541

> <Gold.Rescore>
     Score         DG    S(hbond)    S(metal)    S(lipo)     H(rot)  DE(clash)    DE(int)     intcor
     17.03     -18.87       2.08        0.00     117.32       2.85       0.53       1.30       ----

> <Gold.Chemscore.Fitness>
17.0336

> <Gold.Chemscore.DG>
-18.8671

> <Gold.Chemscore.ZeroCoef>
-5.4800

> <Gold.Chemscore.Hbond>
2.0801

> <Gold.Chemscore.Metal>
0.0000

> <Gold.Chemscore.Lipo>
117.3192

> <Gold.Chemscore.Internal_Hbond>
0.0000

> <Gold.Chemscore.DEClash>
0.5291

> <Gold.Chemscore.DEInternal>
1.3045

> <Gold.Chemscore.Rot>
2.8464

> <Gold.Chemscore.Internal.Correction>
   9.000000E+99

> <Gold.Chemscore.Hbonds>
donor molecule, donor type, donor heavy atom, donor atom, acceptor molecule, acceptor atom, score
      L1  H    10    33       P1  7957  0.91
      L1  H    12    51       P1  8028  0.50
      L1  H    17    42       P1  8029  0.21
      P1  H  7989  7998       L1    10  0.06
      P1  H  7997  8009       L1     5  0.11

> <Gold.Chemscore.Hbond.Weighted>
-6.9474

> <Gold.Chemscore.Metal.Weighted>
-0.0000

> <Gold.Chemscore.Lipo.Weighted>
-13.7263

> <Gold.Chemscore.Internal_Hbond.Weighted>
0.0000

> <Gold.Chemscore.DEClash.Weighted>
0.5291

> <Gold.Chemscore.DEInternal.Weighted>
1.3045

> <Gold.Chemscore.Rot.Weighted>
7.2867

> <Gold.Chemscore.Internal.Correction.Weighted>
   9.000000E+99

> <Gold.Protein.RotatedTorsions>
[ 6907 6896 6895 6894 ] final  115.46 input  -60.11 | X-H torsion
[ 7974 7965 7964 7962 ] final  -12.36 input  175.53 | X-H torsion
[ 8008 7997 7996 7995 ] final -172.08 input   59.86 | X-H torsion
[ 10167 10162 10161 10158 ] final  -89.95 input  -65.29 | X-H torsion
[ 10718 10713 10712 10709 ] final   56.91 input   66.30 | X-H torsion
[ 10763 10752 10751 10750 ] final -118.65 input  -60.55 | X-H torsion
[ 11005 11000 10999 10996 ] final -158.98 input  -57.11 | X-H torsion

> <Gold.Protein.ActiveResidues>
 VAL166  LYS551  ARG553  GLY616  TRP617  ASP618  TYR619  PRO620  LYS621  CYS622 
 ASP623  PHE694  ASN695  SER759  ASP760  ASP761  ALA762  ILE779  LEU786  VAL792 
 PHE793  MET794  SER795  GLU796  ALA797  LYS798  CYS799  TRP800  GLU811  SER814 

> <Gold.Protein.RotatedAtoms>
  152.4740  133.8094  159.6995 H   0  0  0  0  0  0  0  0  0  0  0  0  # atno 6907 bound_to 6896
  150.8745  133.7449  159.2957 H   0  0  0  0  0  0  0  0  0  0  0  0  # atno 6908 bound_to 6896
  151.4973  135.1063  159.9871 H   0  0  0  0  0  0  0  0  0  0  0  0  # atno 6909 bound_to 6896
  146.2154  140.3046  142.8378 H   0  0  0  0  0  0  0  0  0  0  0  0  # atno 7974 bound_to 7965
  155.9399  140.1106  157.1064 H   0  0  0  0  0  0  0  0  0  0  0  0  # atno 8008 bound_to 7997
  154.4087  140.1221  156.4979 H   0  0  0  0  0  0  0  0  0  0  0  0  # atno 8009 bound_to 7997
  155.6975  140.3472  155.4921 H   0  0  0  0  0  0  0  0  0  0  0  0  # atno 8010 bound_to 7997
  140.3597  143.2848  151.9629 H   0  0  0  0  0  0  0  0  0  0  0  0  # atno 10167 bound_to 10162
  157.5471  130.8739  149.8907 H   0  0  0  0  0  0  0  0  0  0  0  0  # atno 10718 bound_to 10713
  154.8594  135.4266  154.2172 H   0  0  0  0  0  0  0  0  0  0  0  0  # atno 10763 bound_to 10752
  153.3185  135.6980  153.7057 H   0  0  0  0  0  0  0  0  0  0  0  0  # atno 10764 bound_to 10752
  153.6122  135.3517  155.2956 H   0  0  0  0  0  0  0  0  0  0  0  0  # atno 10765 bound_to 10752
  140.6476  134.4485  157.5234 H   0  0  0  0  0  0  0  0  0  0  0  0  # atno 11005 bound_to 11000
  144.9032  140.7668  143.5854 LP  0  0  0  0  0  0  0  0  0  0  0  0  # atno 17320 bound_to 7965
  145.2973  139.1862  143.4708 LP  0  0  0  0  0  0  0  0  0  0  0  0  # atno 17321 bound_to 7965
  139.4815  144.6003  151.7617 LP  0  0  0  0  0  0  0  0  0  0  0  0  # atno 17342 bound_to 10162
  140.5139  144.0983  150.6003 LP  0  0  0  0  0  0  0  0  0  0  0  0  # atno 17343 bound_to 10162
  156.0545  130.3711  150.1124 LP  0  0  0  0  0  0  0  0  0  0  0  0  # atno 17370 bound_to 10713
  156.9300  130.9710  151.3534 LP  0  0  0  0  0  0  0  0  0  0  0  0  # atno 17371 bound_to 10713
  139.9057  134.8454  156.1715 LP  0  0  0  0  0  0  0  0  0  0  0  0  # atno 17394 bound_to 11000
  141.0561  133.6865  156.1862 LP  0  0  0  0  0  0  0  0  0  0  0  0  # atno 17395 bound_to 11000

$$$$
