AV-unprocessed.smi:433|AV-procd|sdf|2551|dock6
  -GOLD-   2262022513D 1   1.00000     0.00000
 Structure written by MMmdl.
 36 37  0  0  0  0  0  0  0  0  1 V2000
  145.1925  142.9079  155.2726 C   0  0  0  0  0  0  0  0  0  0  0  0
  146.4336  142.2308  155.0299 N   0  0  0  0  0  0  0  0  0  0  0  0
  146.7747  141.7297  153.7889 C   0  0  0  0  0  0  0  0  0  0  0  0
  147.9345  141.0775  153.5561 C   0  0  0  0  0  0  0  0  0  0  0  0
  148.9056  140.8691  154.6247 C   0  0  0  0  0  0  0  0  0  0  0  0
  149.9620  140.2573  154.4623 O   0  0  0  0  0  0  0  0  0  0  0  0
  148.5329  141.4128  155.8787 N   0  0  0  0  0  0  0  0  0  0  0  0
  149.4410  141.2241  156.9963 C   0  0  0  0  0  0  0  0  0  0  0  0
  150.8532  141.7917  156.7268 C   0  0  1  0  0  0  0  0  0  0  0  0
  150.7482  143.1797  156.4829 O   0  0  0  0  0  0  0  0  0  0  0  0
  151.7935  141.6078  157.9271 C   0  0  0  0  0  0  0  0  0  0  0  0
  151.5639  142.6703  158.8426 O   0  0  0  0  0  0  0  0  0  0  0  0
  152.1945  142.6299  160.0665 C   0  0  0  0  0  0  0  0  0  0  0  0
  151.9431  143.7008  160.9487 C   0  0  0  0  0  0  0  0  0  0  0  0
  152.5432  143.7419  162.2219 C   0  0  0  0  0  0  0  0  0  0  0  0
  153.4047  142.7059  162.6269 C   0  0  0  0  0  0  0  0  0  0  0  0
  153.6646  141.6311  161.7563 C   0  0  0  0  0  0  0  0  0  0  0  0
  153.0646  141.5904  160.4823 C   0  0  0  0  0  0  0  0  0  0  0  0
  147.3087  142.0786  156.1271 C   0  0  0  0  0  0  0  0  0  0  0  0
  147.0084  142.4996  157.2481 O   0  0  0  0  0  0  0  0  0  0  0  0
  144.6510  142.9678  154.3279 H   0  0  0  0  0  0  0  0  0  0  0  0
  145.4277  143.9067  155.6447 H   0  0  0  0  0  0  0  0  0  0  0  0
  144.6344  142.3171  156.0011 H   0  0  0  0  0  0  0  0  0  0  0  0
  146.0853  141.8582  152.9670 H   0  0  0  0  0  0  0  0  0  0  0  0
  148.1458  140.7011  152.5661 H   0  0  0  0  0  0  0  0  0  0  0  0
  148.9802  141.6395  157.8945 H   0  0  0  0  0  0  0  0  0  0  0  0
  149.4703  140.1510  157.1937 H   0  0  0  0  0  0  0  0  0  0  0  0
  151.3044  141.3228  155.8511 H   0  0  0  0  0  0  0  0  0  0  0  0
  149.8561  143.3743  156.2380 H   0  0  0  0  0  0  0  0  0  0  0  0
  151.5835  140.6558  158.4182 H   0  0  0  0  0  0  0  0  0  0  0  0
  152.8330  141.5977  157.5946 H   0  0  0  0  0  0  0  0  0  0  0  0
  151.2826  144.4997  160.6446 H   0  0  0  0  0  0  0  0  0  0  0  0
  152.3415  144.5685  162.8872 H   0  0  0  0  0  0  0  0  0  0  0  0
  153.8651  142.7354  163.6035 H   0  0  0  0  0  0  0  0  0  0  0  0
  154.3255  140.8352  162.0660 H   0  0  0  0  0  0  0  0  0  0  0  0
  153.2868  140.7497  159.8429 H   0  0  0  0  0  0  0  0  0  0  0  0
  1  2  1  0  0  0  0
  1 21  1  0  0  0  0
  1 22  1  0  0  0  0
  1 23  1  0  0  0  0
  2 19  1  0  0  0  0
  2  3  1  0  0  0  0
  3  4  2  0  0  0  0
  3 24  1  0  0  0  0
  4  5  1  0  0  0  0
  4 25  1  0  0  0  0
  5  6  2  0  0  0  0
  5  7  1  0  0  0  0
  7  8  1  0  0  0  0
  7 19  1  0  0  0  0
  8  9  1  0  0  0  0
  8 26  1  0  0  0  0
  8 27  1  0  0  0  0
  9 10  1  0  0  0  0
  9 11  1  0  0  0  0
  9 28  1  0  0  0  0
 10 29  1  0  0  0  0
 11 12  1  0  0  0  0
 11 30  1  0  0  0  0
 11 31  1  0  0  0  0
 12 13  1  0  0  0  0
 13 18  1  0  0  0  0
 13 14  2  0  0  0  0
 14 15  1  0  0  0  0
 14 32  1  0  0  0  0
 15 16  2  0  0  0  0
 15 33  1  0  0  0  0
 16 17  1  0  0  0  0
 16 34  1  0  0  0  0
 17 18  2  0  0  0  0
 17 35  1  0  0  0  0
 18 36  1  0  0  0  0
 19 20  2  0  0  0  0
M  END
> <s_m_source_file>
AV-unprocessed.smi

> <i_m_source_file_index>
433

> <i_lp_mmshare_version>
43012

> <i_f3d_flags>
0

> <s_epik_input>
W0NIM11uMVtjSF1bY0hdYyg9TyluKGMxPU8pW0NIMl1bQ0BIXShbT0hdKVtDSDJdT2MyW2NIXVtjSF1bY0hdW2NIXVtjSF0y

> <s_epik_cmdline>
J2VwaWtfcHl0aG9uJywgJy1waCcsICc3LjAnLCAnLXRuJywgJzgnLCAnLW1hJywgJzIwMCcsICctbWV0YWxfYmluZGluZycsICctaW1hZScsICc8aW5maWxlLm1hZT4nLCAnLW9tYWUnLCAnPG91dGZpbGUubWFlPic=

> <r_lp_tautomer_probability>
1

> <r_epik_Ionization_Penalty>
2.21742e-07

> <r_epik_Ionization_Penalty_Charging>
1.04568e-07

> <r_epik_Ionization_Penalty_Neutral>
1.17174e-07

> <r_epik_State_Penalty>
-0

> <r_epik_Charging_Adjusted_Penalty>
1.04568e-07

> <i_epik_Tot_Q>
0

> <i_epik_Tot_abs_Q>
0

> <r_epik_Metal_State_Penalty>
-0

> <b_epik_Metal_Only>
0

> <s_lp_Force_Field>
OPLS_2005

> <r_lp_Energy>
22.7461

> <b_lp_Chiralities_Consistent>
1

> <s_lp_Variant>
AV-unprocessed.smi:433-2

> <Gold.Version>
5.8.1

> <Gold.Id.Protein>
6NUR|6NUR_protein|mol2

> <Gold.PLP.Fitness>
51.1932

> <Gold.PLP.PLP>
-46.2402

> <Gold.PLP.part.hbond>
-1.9011

> <Gold.PLP.part.metal>
0.0000

> <Gold.PLP.part.buried>
-5.3555

> <Gold.PLP.part.nonpolar>
-38.8608

> <Gold.PLP.part.repulsive>
0.2844

> <Gold.PLP.ligand.clash>
0.0000

> <Gold.PLP.ligand.torsion>
0.2764

> <Gold.PLP.Chemscore.Hbond>
1.6800

> <Gold.PLP.Chemscore.CHOScore>
0.1469

> <Gold.PLP.Chemscore.Metal>
0.0000

> <Gold.Chemscore.Hbonds>
donor molecule, donor type, donor heavy atom, donor atom, acceptor molecule, acceptor atom, score
      L1  H    10    29       P1  8028  0.78
      P1  H  7989  7998       L1     6  0.96
      L1  C     3    24       P1 10175  0.12

> <Gold.PLP.Chemscore.Internal.Correction>
0.0252

> <Gold.Rescore>
     Score         DG    S(hbond)    S(metal)    S(lipo)     H(rot)  DE(clash)    DE(int)     intcor
     15.40     -17.17       1.67        0.00     106.02       2.46       0.19       1.58       ----

> <Gold.Chemscore.Fitness>
15.3979

> <Gold.Chemscore.DG>
-17.1672

> <Gold.Chemscore.ZeroCoef>
-5.4800

> <Gold.Chemscore.Hbond>
1.6716

> <Gold.Chemscore.Metal>
0.0000

> <Gold.Chemscore.Lipo>
106.0154

> <Gold.Chemscore.Internal_Hbond>
0.0000

> <Gold.Chemscore.DEClash>
0.1896

> <Gold.Chemscore.DEInternal>
1.5797

> <Gold.Chemscore.Rot>
2.4608

> <Gold.Chemscore.Internal.Correction>
   9.000000E+99

> <Gold.Chemscore.Hbonds>
donor molecule, donor type, donor heavy atom, donor atom, acceptor molecule, acceptor atom, score
      L1  H    10    29       P1  8028  0.78
      P1  H  7989  7998       L1     6  0.87

> <Gold.Chemscore.Hbond.Weighted>
-5.5830

> <Gold.Chemscore.Metal.Weighted>
-0.0000

> <Gold.Chemscore.Lipo.Weighted>
-12.4038

> <Gold.Chemscore.Internal_Hbond.Weighted>
0.0000

> <Gold.Chemscore.DEClash.Weighted>
0.1896

> <Gold.Chemscore.DEInternal.Weighted>
1.5797

> <Gold.Chemscore.Rot.Weighted>
6.2997

> <Gold.Chemscore.Internal.Correction.Weighted>
   9.000000E+99

> <Gold.Protein.RotatedTorsions>
[ 6907 6896 6895 6894 ] final  142.18 input  -60.11 | X-H torsion
[ 7974 7965 7964 7962 ] final  -98.64 input  175.53 | X-H torsion
[ 8008 7997 7996 7995 ] final  -68.25 input   59.86 | X-H torsion
[ 10167 10162 10161 10158 ] final  -54.23 input  -65.29 | X-H torsion
[ 10718 10713 10712 10709 ] final   50.06 input   66.30 | X-H torsion
[ 10763 10752 10751 10750 ] final  140.92 input  -60.55 | X-H torsion
[ 11005 11000 10999 10996 ] final  111.58 input  -57.11 | X-H torsion

> <Gold.Protein.ActiveResidues>
 VAL166  LYS551  ARG553  GLY616  TRP617  ASP618  TYR619  PRO620  LYS621  CYS622 
 ASP623  PHE694  ASN695  SER759  ASP760  ASP761  ALA762  ILE779  LEU786  VAL792 
 PHE793  MET794  SER795  GLU796  ALA797  LYS798  CYS799  TRP800  GLU811  SER814 

> <Gold.Protein.RotatedAtoms>
  152.2218  133.4990  159.5166 H   0  0  0  0  0  0  0  0  0  0  0  0  # atno 6907 bound_to 6896
  150.7015  134.1332  159.4086 H   0  0  0  0  0  0  0  0  0  0  0  0  # atno 6908 bound_to 6896
  151.9253  135.0280  160.0576 H   0  0  0  0  0  0  0  0  0  0  0  0  # atno 6909 bound_to 6896
  145.3179  140.9415  143.2732 H   0  0  0  0  0  0  0  0  0  0  0  0  # atno 7974 bound_to 7965
  154.4855  140.0876  156.7476 H   0  0  0  0  0  0  0  0  0  0  0  0  # atno 8008 bound_to 7997
  155.4361  140.3452  155.4267 H   0  0  0  0  0  0  0  0  0  0  0  0  # atno 8009 bound_to 7997
  156.1255  140.1486  156.9131 H   0  0  0  0  0  0  0  0  0  0  0  0  # atno 8010 bound_to 7997
  140.6442  143.2525  151.4906 H   0  0  0  0  0  0  0  0  0  0  0  0  # atno 10167 bound_to 10162
  157.4847  130.8338  149.8134 H   0  0  0  0  0  0  0  0  0  0  0  0  # atno 10718 bound_to 10713
  153.9307  135.2990  155.3446 H   0  0  0  0  0  0  0  0  0  0  0  0  # atno 10763 bound_to 10752
  154.7528  135.4972  153.9323 H   0  0  0  0  0  0  0  0  0  0  0  0  # atno 10764 bound_to 10752
  153.1093  135.6755  153.9634 H   0  0  0  0  0  0  0  0  0  0  0  0  # atno 10765 bound_to 10752
  139.8907  134.9511  156.6453 H   0  0  0  0  0  0  0  0  0  0  0  0  # atno 11005 bound_to 11000
  144.8963  139.4708  143.6654 LP  0  0  0  0  0  0  0  0  0  0  0  0  # atno 17320 bound_to 7965
  146.3093  139.7690  142.9032 LP  0  0  0  0  0  0  0  0  0  0  0  0  # atno 17321 bound_to 7965
  139.5652  144.2060  152.1753 LP  0  0  0  0  0  0  0  0  0  0  0  0  # atno 17342 bound_to 10162
  140.1340  144.5263  150.6785 LP  0  0  0  0  0  0  0  0  0  0  0  0  # atno 17343 bound_to 10162
  156.0140  130.3821  150.2169 LP  0  0  0  0  0  0  0  0  0  0  0  0  # atno 17370 bound_to 10713
  157.0356  131.0020  151.3299 LP  0  0  0  0  0  0  0  0  0  0  0  0  # atno 17371 bound_to 10713
  140.7562  133.8856  155.8384 LP  0  0  0  0  0  0  0  0  0  0  0  0  # atno 17394 bound_to 11000
  140.9960  134.1215  157.4363 LP  0  0  0  0  0  0  0  0  0  0  0  0  # atno 17395 bound_to 11000

$$$$
