AV-unprocessed.smi:2353|AV-procd|sdf|9383|dock4
  -GOLD-   2272013 13D 1   1.00000     0.00000
 Structure written by MMmdl.
 46 48  0  0  0  0  0  0  0  0  2 V2000
  146.6258  137.2135  162.5167 C   0  0  0  0  0  0  0  0  0  0  0  0
  146.9474  135.8434  161.9556 C   0  0  0  0  0  0  0  0  0  0  0  0
  147.1335  134.7484  162.8210 C   0  0  0  0  0  0  0  0  0  0  0  0
  147.4340  133.4798  162.2937 C   0  0  0  0  0  0  0  0  0  0  0  0
  147.5509  133.2979  160.9001 C   0  0  0  0  0  0  0  0  0  0  0  0
  147.8743  131.9215  160.3496 C   0  0  0  0  0  0  0  0  0  0  0  0
  147.3668  134.3889  160.0193 C   0  0  0  0  0  0  0  0  0  0  0  0
  147.4947  134.1420  158.6677 O   0  0  0  0  0  0  0  0  0  0  0  0
  147.4101  135.2361  157.7641 C   0  0  0  0  0  0  0  0  0  0  0  0
  146.3448  134.9139  156.7016 C   0  0  1  0  0  0  0  0  0  0  0  0
  145.1251  135.4603  157.1640 O   0  0  0  0  0  0  0  0  0  0  0  0
  146.6723  135.5574  155.3353 C   0  0  0  0  0  0  0  0  0  0  0  0
  147.1256  134.5599  154.3578 N   0  0  0  0  0  0  0  0  0  0  0  0
  146.2198  134.3146  153.3403 N   0  0  0  0  0  0  0  0  0  0  0  0
  146.4871  133.4714  152.3970 C   0  0  0  0  0  0  0  0  0  0  0  0
  145.5301  133.2218  151.3301 N   0  0  0  0  0  0  0  0  0  0  0  0
  145.6603  132.3340  150.2904 C   0  0  0  0  0  0  0  0  0  0  0  0
  144.5173  132.4451  149.5415 C   0  0  0  0  0  0  0  0  0  0  0  0
  143.7406  133.3930  150.1536 N   0  3  0  0  0  0  0  0  0  0  0  0
  144.3547  133.8678  151.2434 C   0  0  0  0  0  0  0  0  0  0  0  0
  147.7633  132.7642  152.4035 C   0  0  0  0  0  0  0  0  0  0  0  0
  148.6408  133.0137  153.3993 C   0  0  0  0  0  0  0  0  0  0  0  0
  148.3511  133.9690  154.4665 C   0  0  0  0  0  0  0  0  0  0  0  0
  149.1404  134.2225  155.3752 O   0  0  0  0  0  0  0  0  0  0  0  0
  147.0653  135.6641  160.5625 C   0  0  0  0  0  0  0  0  0  0  0  0
  146.2610  137.1445  163.5420 H   0  0  0  0  0  0  0  0  0  0  0  0
  145.8573  137.7022  161.9173 H   0  0  0  0  0  0  0  0  0  0  0  0
  147.5176  137.8406  162.5109 H   0  0  0  0  0  0  0  0  0  0  0  0
  147.0471  134.8765  163.8902 H   0  0  0  0  0  0  0  0  0  0  0  0
  147.5744  132.6458  162.9655 H   0  0  0  0  0  0  0  0  0  0  0  0
  147.0354  131.5432  159.7653 H   0  0  0  0  0  0  0  0  0  0  0  0
  148.0801  131.2097  161.1492 H   0  0  0  0  0  0  0  0  0  0  0  0
  148.7513  131.9661  159.7036 H   0  0  0  0  0  0  0  0  0  0  0  0
  147.1784  136.1707  158.2783 H   0  0  0  0  0  0  0  0  0  0  0  0
  148.3832  135.3510  157.2840 H   0  0  0  0  0  0  0  0  0  0  0  0
  146.2547  133.8317  156.5956 H   0  0  0  0  0  0  0  0  0  0  0  0
  145.2376  135.7338  158.0618 H   0  0  0  0  0  0  0  0  0  0  0  0
  145.8314  136.1458  154.9625 H   0  0  0  0  0  0  0  0  0  0  0  0
  147.4792  136.2821  155.4588 H   0  0  0  0  0  0  0  0  0  0  0  0
  146.5294  131.7049  150.1605 H   0  0  0  0  0  0  0  0  0  0  0  0
  144.2061  131.9337  148.6422 H   0  0  0  0  0  0  0  0  0  0  0  0
  143.9501  134.6201  151.8943 H   0  0  0  0  0  0  0  0  0  0  0  0
  148.0349  132.0500  151.6439 H   0  0  0  0  0  0  0  0  0  0  0  0
  149.5876  132.4937  153.4091 H   0  0  0  0  0  0  0  0  0  0  0  0
  146.9192  136.5244  159.9270 H   0  0  0  0  0  0  0  0  0  0  0  0
  142.8299  133.6938  149.8292 H   0  0  0  0  0  0  0  0  0  0  0  0
  1  2  1  0  0  0  0
  1 26  1  0  0  0  0
  1 27  1  0  0  0  0
  1 28  1  0  0  0  0
  2 25  1  0  0  0  0
  2  3  2  0  0  0  0
  3  4  1  0  0  0  0
  3 29  1  0  0  0  0
  4  5  2  0  0  0  0
  4 30  1  0  0  0  0
  5  6  1  0  0  0  0
  5  7  1  0  0  0  0
  6 31  1  0  0  0  0
  6 32  1  0  0  0  0
  6 33  1  0  0  0  0
  7  8  1  0  0  0  0
  7 25  2  0  0  0  0
  8  9  1  0  0  0  0
  9 10  1  0  0  0  0
  9 34  1  0  0  0  0
  9 35  1  0  0  0  0
 10 11  1  0  0  0  0
 10 12  1  0  0  0  0
 10 36  1  0  0  0  0
 11 37  1  0  0  0  0
 12 13  1  0  0  0  0
 12 38  1  0  0  0  0
 12 39  1  0  0  0  0
 13 23  1  0  0  0  0
 13 14  1  0  0  0  0
 14 15  2  0  0  0  0
 15 16  1  0  0  0  0
 15 21  1  0  0  0  0
 16 20  1  0  0  0  0
 16 17  1  0  0  0  0
 17 18  2  0  0  0  0
 17 40  1  0  0  0  0
 18 19  1  0  0  0  0
 18 41  1  0  0  0  0
 19 20  2  0  0  0  0
 19 46  1  0  0  0  0
 20 42  1  0  0  0  0
 21 22  2  0  0  0  0
 21 43  1  0  0  0  0
 22 23  1  0  0  0  0
 22 44  1  0  0  0  0
 23 24  2  0  0  0  0
 25 45  1  0  0  0  0
M  CHG  1  19   1
M  END
> <s_m_source_file>
AV-unprocessed.smi

> <i_m_source_file_index>
2353

> <i_lp_mmshare_version>
43012

> <i_f3d_flags>
0

> <s_epik_input>
W0NIM11jMVtjSF1bY0hdYyhbQ0gzXSljKFtjSF0xKU9bQ0gyXVtDQEhdKFtPSF0pW0NIMl1uMm5jKFtjSF1bY0hdYzI9TyktbjNbY0hdW2NIXW5bY0hdMw==

> <s_epik_cmdline>
J2VwaWtfcHl0aG9uJywgJy1waCcsICc3LjAnLCAnLXRuJywgJzgnLCAnLW1hJywgJzIwMCcsICctbWV0YWxfYmluZGluZycsICctaW1hZScsICc8aW5maWxlLm1hZT4nLCAnLW9tYWUnLCAnPG91dGZpbGUubWFlPic=

> <r_lp_tautomer_probability>
1

> <r_epik_Ionization_Penalty>
1.66053

> <r_epik_Ionization_Penalty_Charging>
2.43903e-09

> <r_epik_Ionization_Penalty_Neutral>
1.66053

> <r_epik_State_Penalty>
1.76336

> <r_epik_Charging_Adjusted_Penalty>
1.76336

> <i_epik_Tot_Q>
1

> <i_epik_Tot_abs_Q>
1

> <r_epik_Metal_State_Penalty>
1.79856

> <b_epik_Metal_Only>
0

> <s_lp_Force_Field>
OPLS_2005

> <r_lp_Energy>
39.4345

> <b_lp_Chiralities_Consistent>
1

> <s_lp_Variant>
AV-unprocessed.smi:2353-4

> <Gold.Version>
5.8.1

> <Gold.Id.Protein>
6NUR|6NUR_protein|mol2

> <Gold.PLP.Fitness>
48.2320

> <Gold.PLP.PLP>
-42.3004

> <Gold.PLP.part.hbond>
-0.9945

> <Gold.PLP.part.metal>
0.0000

> <Gold.PLP.part.buried>
-4.2470

> <Gold.PLP.part.nonpolar>
-36.7576

> <Gold.PLP.part.repulsive>
0.1941

> <Gold.PLP.ligand.clash>
0.0000

> <Gold.PLP.ligand.torsion>
1.5616

> <Gold.PLP.Chemscore.Hbond>
2.0000

> <Gold.PLP.Chemscore.CHOScore>
1.0000

> <Gold.PLP.Chemscore.Metal>
0.0000

> <Gold.Chemscore.Hbonds>
donor molecule, donor type, donor heavy atom, donor atom, acceptor molecule, acceptor atom, score
      L1  H    19    46       P1 10186  2.00
      L1  C    17    40       P1 10747  0.87

> <Gold.PLP.Chemscore.Internal.Correction>
0.0548

> <Gold.Rescore>
     Score         DG    S(hbond)    S(metal)    S(lipo)     H(rot)  DE(clash)    DE(int)     intcor
     11.33     -12.92       0.98        0.00      93.71       2.65       0.00       1.59       ----

> <Gold.Chemscore.Fitness>
11.3273

> <Gold.Chemscore.DG>
-12.9164

> <Gold.Chemscore.ZeroCoef>
-5.4800

> <Gold.Chemscore.Hbond>
0.9779

> <Gold.Chemscore.Metal>
0.0000

> <Gold.Chemscore.Lipo>
93.7054

> <Gold.Chemscore.Internal_Hbond>
0.0000

> <Gold.Chemscore.DEClash>
0.0000

> <Gold.Chemscore.DEInternal>
1.5890

> <Gold.Chemscore.Rot>
2.6537

> <Gold.Chemscore.Internal.Correction>
   9.000000E+99

> <Gold.Chemscore.Hbonds>
donor molecule, donor type, donor heavy atom, donor atom, acceptor molecule, acceptor atom, score
      L1  H    19    46       P1 10186  0.97

> <Gold.Chemscore.Hbond.Weighted>
-3.2663

> <Gold.Chemscore.Metal.Weighted>
-0.0000

> <Gold.Chemscore.Lipo.Weighted>
-10.9635

> <Gold.Chemscore.Internal_Hbond.Weighted>
0.0000

> <Gold.Chemscore.DEClash.Weighted>
0.0000

> <Gold.Chemscore.DEInternal.Weighted>
1.5890

> <Gold.Chemscore.Rot.Weighted>
6.7935

> <Gold.Chemscore.Internal.Correction.Weighted>
   9.000000E+99

> <Gold.Protein.RotatedTorsions>
[ 6907 6896 6895 6894 ] final  -21.16 input  -60.11 | X-H torsion
[ 7974 7965 7964 7962 ] final    3.37 input  175.53 | X-H torsion
[ 8008 7997 7996 7995 ] final -157.72 input   59.86 | X-H torsion
[ 10167 10162 10161 10158 ] final   45.02 input  -65.29 | X-H torsion
[ 10718 10713 10712 10709 ] final   36.54 input   66.30 | X-H torsion
[ 10763 10752 10751 10750 ] final  156.54 input  -60.55 | X-H torsion
[ 11005 11000 10999 10996 ] final   26.69 input  -57.11 | X-H torsion

> <Gold.Protein.ActiveResidues>
 VAL166  LYS551  ARG553  GLY616  TRP617  ASP618  TYR619  PRO620  LYS621  CYS622 
 ASP623  PHE694  ASN695  SER759  ASP760  ASP761  ALA762  ILE779  LEU786  VAL792 
 PHE793  MET794  SER795  GLU796  ALA797  LYS798  CYS799  TRP800  GLU811  SER814 

> <Gold.Protein.RotatedAtoms>
  151.2375  135.0577  159.9011 H   0  0  0  0  0  0  0  0  0  0  0  0  # atno 6907 bound_to 6896
  152.5397  134.0470  159.8103 H   0  0  0  0  0  0  0  0  0  0  0  0  # atno 6908 bound_to 6896
  151.0659  133.5457  159.2662 H   0  0  0  0  0  0  0  0  0  0  0  0  # atno 6909 bound_to 6896
  146.2445  140.0695  142.8363 H   0  0  0  0  0  0  0  0  0  0  0  0  # atno 7974 bound_to 7965
  155.7368  140.0809  157.2264 H   0  0  0  0  0  0  0  0  0  0  0  0  # atno 8008 bound_to 7997
  154.4026  140.1585  156.2625 H   0  0  0  0  0  0  0  0  0  0  0  0  # atno 8009 bound_to 7997
  155.9058  140.3407  155.6063 H   0  0  0  0  0  0  0  0  0  0  0  0  # atno 8010 bound_to 7997
  140.3284  144.2619  150.6171 H   0  0  0  0  0  0  0  0  0  0  0  0  # atno 10167 bound_to 10162
  157.3361  130.7523  149.6880 H   0  0  0  0  0  0  0  0  0  0  0  0  # atno 10718 bound_to 10713
  154.1859  135.2797  155.3037 H   0  0  0  0  0  0  0  0  0  0  0  0  # atno 10763 bound_to 10752
  154.5966  135.5543  153.7335 H   0  0  0  0  0  0  0  0  0  0  0  0  # atno 10764 bound_to 10752
  153.0125  135.6381  154.1998 H   0  0  0  0  0  0  0  0  0  0  0  0  # atno 10765 bound_to 10752
  140.3343  134.2403  155.7698 H   0  0  0  0  0  0  0  0  0  0  0  0  # atno 11005 bound_to 11000
  145.0828  140.9233  143.4815 LP  0  0  0  0  0  0  0  0  0  0  0  0  # atno 17320 bound_to 7965
  145.0852  139.2930  143.5763 LP  0  0  0  0  0  0  0  0  0  0  0  0  # atno 17321 bound_to 7965
  140.5420  143.2222  151.8070 LP  0  0  0  0  0  0  0  0  0  0  0  0  # atno 17342 bound_to 10162
  139.4861  144.4588  151.9565 LP  0  0  0  0  0  0  0  0  0  0  0  0  # atno 17343 bound_to 10162
  155.9701  130.4181  150.4312 LP  0  0  0  0  0  0  0  0  0  0  0  0  # atno 17370 bound_to 10713
  157.2352  131.0513  151.2469 LP  0  0  0  0  0  0  0  0  0  0  0  0  # atno 17371 bound_to 10713
  141.2055  133.7858  157.0228 LP  0  0  0  0  0  0  0  0  0  0  0  0  # atno 17394 bound_to 11000
  140.0834  134.9635  157.1661 LP  0  0  0  0  0  0  0  0  0  0  0  0  # atno 17395 bound_to 11000

$$$$
