AV-unprocessed.smi:2273|AV-procd|sdf|9165|dock7
  -GOLD-   2272012373D 1   1.00000     0.00000
 Structure written by MMmdl.
 53 54  0  0  0  0  0  0  0  0  1 V2000
  144.5733  137.3735  154.3412 C   0  0  0  0  0  0  0  0  0  0  0  0
  143.9515  138.6454  154.9377 C   0  0  0  0  0  0  0  0  0  0  0  0
  144.9213  139.4871  155.8053 C   0  0  0  0  0  0  0  0  0  0  0  0
  144.1986  140.7002  156.4429 C   0  0  0  0  0  0  0  0  0  0  0  0
  143.6569  141.7240  155.4334 C   0  0  0  0  0  0  0  0  0  0  0  0
  146.1796  139.9320  155.0141 C   0  0  1  0  0  0  0  0  0  0  0  0
  147.0974  140.9137  155.7733 C   0  0  0  0  0  0  0  0  0  0  0  0
  148.2984  141.3114  154.8970 C   0  0  1  0  0  0  0  0  0  0  0  0
  149.2425  142.1460  155.6429 N   0  0  0  0  0  0  0  0  0  0  0  0
  149.9724  141.8155  156.7238 C   0  0  0  0  0  0  0  0  0  0  0  0
  149.8883  140.7013  157.2382 O   0  0  0  0  0  0  0  0  0  0  0  0
  150.7575  142.8080  157.1900 N   0  0  0  0  0  0  0  0  0  0  0  0
  151.5740  142.7576  158.3299 C   0  0  0  0  0  0  0  0  0  0  0  0
  151.6859  143.8664  159.1079 C   0  0  0  0  0  0  0  0  0  0  0  0
  150.9207  145.1432  158.7976 C   0  0  0  0  0  0  0  0  0  0  0  0
  152.5396  143.8227  160.2766 C   0  0  0  0  0  0  0  0  0  0  0  0
  153.2082  142.6977  160.5627 C   0  0  0  0  0  0  0  0  0  0  0  0
  153.1168  141.5594  159.7491 N   0  0  0  0  0  0  0  0  0  0  0  0
  153.9021  140.3845  160.1362 C   0  0  0  0  0  0  0  0  0  0  0  0
  152.3597  141.5326  158.6147 C   0  0  0  0  0  0  0  0  0  0  0  0
  152.3615  140.5440  157.8777 O   0  0  0  0  0  0  0  0  0  0  0  0
  149.0029  140.0364  154.4103 C   0  0  0  0  0  0  0  0  0  0  0  0
  148.0014  139.0865  153.7335 C   0  0  0  0  0  0  0  0  0  0  0  0
  146.9302  138.7844  154.6221 O   0  0  0  0  0  0  0  0  0  0  0  0
  143.8733  136.8900  153.6593 H   0  0  0  0  0  0  0  0  0  0  0  0
  144.8305  136.6423  155.1063 H   0  0  0  0  0  0  0  0  0  0  0  0
  145.4769  137.6040  153.7764 H   0  0  0  0  0  0  0  0  0  0  0  0
  143.5884  139.2368  154.0999 H   0  0  0  0  0  0  0  0  0  0  0  0
  143.0665  138.3818  155.5180 H   0  0  0  0  0  0  0  0  0  0  0  0
  145.2634  138.8481  156.6207 H   0  0  0  0  0  0  0  0  0  0  0  0
  143.3882  140.3556  157.0862 H   0  0  0  0  0  0  0  0  0  0  0  0
  144.8834  141.2379  157.0963 H   0  0  0  0  0  0  0  0  0  0  0  0
  143.2575  142.5961  155.9517 H   0  0  0  0  0  0  0  0  0  0  0  0
  142.8505  141.3168  154.8250 H   0  0  0  0  0  0  0  0  0  0  0  0
  144.4440  142.0716  154.7640 H   0  0  0  0  0  0  0  0  0  0  0  0
  145.8518  140.4479  154.1122 H   0  0  0  0  0  0  0  0  0  0  0  0
  146.5289  141.7959  156.0659 H   0  0  0  0  0  0  0  0  0  0  0  0
  147.4686  140.4649  156.6936 H   0  0  0  0  0  0  0  0  0  0  0  0
  147.9438  141.8542  154.0188 H   0  0  0  0  0  0  0  0  0  0  0  0
  149.3490  143.0918  155.3052 H   0  0  0  0  0  0  0  0  0  0  0  0
  150.6558  143.7159  156.7612 H   0  0  0  0  0  0  0  0  0  0  0  0
  151.1169  145.9130  159.5441 H   0  0  0  0  0  0  0  0  0  0  0  0
  149.8469  144.9536  158.7871 H   0  0  0  0  0  0  0  0  0  0  0  0
  151.2143  145.5377  157.8244 H   0  0  0  0  0  0  0  0  0  0  0  0
  152.6348  144.6847  160.9207 H   0  0  0  0  0  0  0  0  0  0  0  0
  153.8571  142.6046  161.4214 H   0  0  0  0  0  0  0  0  0  0  0  0
  153.2693  139.4974  160.1926 H   0  0  0  0  0  0  0  0  0  0  0  0
  154.3793  140.4999  161.1100 H   0  0  0  0  0  0  0  0  0  0  0  0
  154.6889  140.1955  159.4045 H   0  0  0  0  0  0  0  0  0  0  0  0
  149.8052  140.2878  153.7157 H   0  0  0  0  0  0  0  0  0  0  0  0
  149.4682  139.5237  155.2535 H   0  0  0  0  0  0  0  0  0  0  0  0
  147.6106  139.5252  152.8141 H   0  0  0  0  0  0  0  0  0  0  0  0
  148.4977  138.1572  153.4540 H   0  0  0  0  0  0  0  0  0  0  0  0
  1  2  1  0  0  0  0
  1 25  1  0  0  0  0
  1 26  1  0  0  0  0
  1 27  1  0  0  0  0
  2  3  1  0  0  0  0
  2 28  1  0  0  0  0
  2 29  1  0  0  0  0
  3  4  1  0  0  0  0
  3  6  1  0  0  0  0
  3 30  1  0  0  0  0
  4  5  1  0  0  0  0
  4 31  1  0  0  0  0
  4 32  1  0  0  0  0
  5 33  1  0  0  0  0
  5 34  1  0  0  0  0
  5 35  1  0  0  0  0
  6 24  1  0  0  0  0
  6  7  1  0  0  0  0
  6 36  1  0  0  0  0
  7  8  1  0  0  0  0
  7 37  1  0  0  0  0
  7 38  1  0  0  0  0
  8  9  1  0  0  0  0
  8 22  1  0  0  0  0
  8 39  1  0  0  0  0
  9 10  1  0  0  0  0
  9 40  1  0  0  0  0
 10 11  2  0  0  0  0
 10 12  1  0  0  0  0
 12 13  1  0  0  0  0
 12 41  1  0  0  0  0
 13 20  1  0  0  0  0
 13 14  2  0  0  0  0
 14 15  1  0  0  0  0
 14 16  1  0  0  0  0
 15 42  1  0  0  0  0
 15 43  1  0  0  0  0
 15 44  1  0  0  0  0
 16 17  2  0  0  0  0
 16 45  1  0  0  0  0
 17 18  1  0  0  0  0
 17 46  1  0  0  0  0
 18 19  1  0  0  0  0
 18 20  1  0  0  0  0
 19 47  1  0  0  0  0
 19 48  1  0  0  0  0
 19 49  1  0  0  0  0
 20 21  2  0  0  0  0
 22 23  1  0  0  0  0
 22 50  1  0  0  0  0
 22 51  1  0  0  0  0
 23 24  1  0  0  0  0
 23 52  1  0  0  0  0
 23 53  1  0  0  0  0
M  END
> <s_m_source_file>
AV-unprocessed.smi

> <i_m_source_file_index>
2273

> <i_lp_mmshare_version>
43012

> <i_f3d_flags>
0

> <s_epik_input>
W0NIM11bQ0gyXVtDSF0oW0NIMl1bQ0gzXSlbQ0BASF0xW0NIMl1bQ0BIXShbQ0gyXVtDSDJdTzEpW05IXUMoPU8pW05IXWMyYyhbQ0gzXSlbY0hdW2NIXW4oW0NIM10pYzI9Tw==

> <s_epik_cmdline>
J2VwaWtfcHl0aG9uJywgJy1waCcsICc3LjAnLCAnLXRuJywgJzgnLCAnLW1hJywgJzIwMCcsICctbWV0YWxfYmluZGluZycsICctaW1hZScsICc8aW5maWxlLm1hZT4nLCAnLW9tYWUnLCAnPG91dGZpbGUubWFlPic=

> <r_lp_tautomer_probability>
1

> <r_epik_Ionization_Penalty>
2.66245e-05

> <r_epik_Ionization_Penalty_Charging>
6.91055e-06

> <r_epik_Ionization_Penalty_Neutral>
1.97139e-05

> <r_epik_State_Penalty>
-0

> <r_epik_Charging_Adjusted_Penalty>
6.91055e-06

> <i_epik_Tot_Q>
0

> <i_epik_Tot_abs_Q>
0

> <r_epik_Metal_State_Penalty>
-0

> <b_epik_Metal_Only>
0

> <s_lp_Force_Field>
OPLS_2005

> <r_lp_Energy>
39.8716

> <b_lp_Chiralities_Consistent>
1

> <s_lp_Variant>
AV-unprocessed.smi:2273-2

> <Gold.Version>
5.8.1

> <Gold.Id.Protein>
6NUR|6NUR_protein|mol2

> <Gold.PLP.Fitness>
41.5349

> <Gold.PLP.PLP>
-36.3031

> <Gold.PLP.part.hbond>
-2.7297

> <Gold.PLP.part.metal>
0.0000

> <Gold.PLP.part.buried>
-3.9403

> <Gold.PLP.part.nonpolar>
-29.7064

> <Gold.PLP.part.repulsive>
0.2737

> <Gold.PLP.ligand.clash>
0.0000

> <Gold.PLP.ligand.torsion>
0.3989

> <Gold.PLP.Chemscore.Hbond>
1.7772

> <Gold.PLP.Chemscore.CHOScore>
0.0000

> <Gold.PLP.Chemscore.Metal>
0.0000

> <Gold.Chemscore.Hbonds>
donor molecule, donor type, donor heavy atom, donor atom, acceptor molecule, acceptor atom, score
      L1  H     9    40       P1  8028  0.85
      L1  H    12    41       P1  8028  0.21
      P1  H  7997  8010       L1    21  0.11

> <Gold.PLP.Chemscore.Internal.Correction>
0.6980

> <Gold.Rescore>
     Score         DG    S(hbond)    S(metal)    S(lipo)     H(rot)  DE(clash)    DE(int)     intcor
     12.89     -19.38       2.20        0.00      87.11       1.42       0.05       6.44       ----

> <Gold.Chemscore.Fitness>
12.8869

> <Gold.Chemscore.DG>
-19.3801

> <Gold.Chemscore.ZeroCoef>
-5.4800

> <Gold.Chemscore.Hbond>
2.2015

> <Gold.Chemscore.Metal>
0.0000

> <Gold.Chemscore.Lipo>
87.1073

> <Gold.Chemscore.Internal_Hbond>
0.0000

> <Gold.Chemscore.DEClash>
0.0513

> <Gold.Chemscore.DEInternal>
6.4419

> <Gold.Chemscore.Rot>
1.4236

> <Gold.Chemscore.Internal.Correction>
   9.000000E+99

> <Gold.Chemscore.Hbonds>
donor molecule, donor type, donor heavy atom, donor atom, acceptor molecule, acceptor atom, score
      L1  H     9    40       P1  8028  0.83
      L1  H    12    41       P1  8028  0.22
      P1  H  7997  8010       L1    21  0.11

> <Gold.Chemscore.Hbond.Weighted>
-7.3530

> <Gold.Chemscore.Metal.Weighted>
-0.0000

> <Gold.Chemscore.Lipo.Weighted>
-10.1916

> <Gold.Chemscore.Internal_Hbond.Weighted>
0.0000

> <Gold.Chemscore.DEClash.Weighted>
0.0513

> <Gold.Chemscore.DEInternal.Weighted>
6.4419

> <Gold.Chemscore.Rot.Weighted>
3.6445

> <Gold.Chemscore.Internal.Correction.Weighted>
   9.000000E+99

> <Gold.Protein.RotatedTorsions>
[ 6907 6896 6895 6894 ] final -113.75 input  -60.11 | X-H torsion
[ 7974 7965 7964 7962 ] final -112.03 input  175.53 | X-H torsion
[ 8008 7997 7996 7995 ] final   52.04 input   59.86 | X-H torsion
[ 10167 10162 10161 10158 ] final  134.65 input  -65.29 | X-H torsion
[ 10718 10713 10712 10709 ] final   23.32 input   66.30 | X-H torsion
[ 10763 10752 10751 10750 ] final   52.78 input  -60.55 | X-H torsion
[ 11005 11000 10999 10996 ] final -107.24 input  -57.11 | X-H torsion

> <Gold.Protein.ActiveResidues>
 VAL166  LYS551  ARG553  GLY616  TRP617  ASP618  TYR619  PRO620  LYS621  CYS622 
 ASP623  PHE694  ASN695  SER759  ASP760  ASP761  ALA762  ILE779  LEU786  VAL792 
 PHE793  MET794  SER795  GLU796  ALA797  LYS798  CYS799  TRP800  GLU811  SER814 

> <Gold.Protein.RotatedAtoms>
  150.7851  133.8900  159.3310 H   0  0  0  0  0  0  0  0  0  0  0  0  # atno 6907 bound_to 6896
  151.6752  135.0968  160.0215 H   0  0  0  0  0  0  0  0  0  0  0  0  # atno 6908 bound_to 6896
  152.3913  133.6645  159.6275 H   0  0  0  0  0  0  0  0  0  0  0  0  # atno 6909 bound_to 6896
  145.1489  140.8818  143.3658 H   0  0  0  0  0  0  0  0  0  0  0  0  # atno 7974 bound_to 7965
  155.4453  140.3456  155.4294 H   0  0  0  0  0  0  0  0  0  0  0  0  # atno 8008 bound_to 7997
  156.1254  140.1499  156.9174 H   0  0  0  0  0  0  0  0  0  0  0  0  # atno 8009 bound_to 7997
  154.4854  140.0857  156.7454 H   0  0  0  0  0  0  0  0  0  0  0  0  # atno 8010 bound_to 7997
  139.5248  144.6557  151.5169 H   0  0  0  0  0  0  0  0  0  0  0  0  # atno 10167 bound_to 10162
  157.1644  130.6731  149.6055 H   0  0  0  0  0  0  0  0  0  0  0  0  # atno 10718 bound_to 10713
  152.9791  135.5801  154.4635 H   0  0  0  0  0  0  0  0  0  0  0  0  # atno 10763 bound_to 10752
  154.4208  135.2771  155.1979 H   0  0  0  0  0  0  0  0  0  0  0  0  # atno 10764 bound_to 10752
  154.3729  135.6164  153.5803 H   0  0  0  0  0  0  0  0  0  0  0  0  # atno 10765 bound_to 10752
  141.0964  133.8964  157.1953 H   0  0  0  0  0  0  0  0  0  0  0  0  # atno 11005 bound_to 11000
  145.0452  139.3227  143.5956 LP  0  0  0  0  0  0  0  0  0  0  0  0  # atno 17320 bound_to 7965
  146.3497  139.9840  142.8692 LP  0  0  0  0  0  0  0  0  0  0  0  0  # atno 17321 bound_to 7965
  140.6381  143.8943  150.6666 LP  0  0  0  0  0  0  0  0  0  0  0  0  # atno 17342 bound_to 10162
  140.2269  143.3766  152.1598 LP  0  0  0  0  0  0  0  0  0  0  0  0  # atno 17343 bound_to 10162
  155.9748  130.4700  150.6416 LP  0  0  0  0  0  0  0  0  0  0  0  0  # atno 17370 bound_to 10713
  157.4102  131.0822  151.1228 LP  0  0  0  0  0  0  0  0  0  0  0  0  # atno 17371 bound_to 10713
  139.9802  135.0101  156.9730 LP  0  0  0  0  0  0  0  0  0  0  0  0  # atno 17394 bound_to 11000
  140.5130  134.0983  155.7274 LP  0  0  0  0  0  0  0  0  0  0  0  0  # atno 17395 bound_to 11000

$$$$
