AV-unprocessed.smi:240|AV-procd|sdf|1837|dock4
  -GOLD-   2262020443D 1   1.00000     0.00000
 Structure written by MMmdl.
 55 59  0  0  0  0  0  0  0  0  1 V2000
  147.1514  141.4403  156.8375 O   0  0  0  0  0  0  0  0  0  0  0  0
  146.2811  140.9124  155.8519 C   0  0  1  0  0  0  0  0  0  0  0  0
  145.1029  141.8725  155.6763 C   0  0  0  0  0  0  0  0  0  0  0  0
  145.5761  142.9222  154.6659 C   0  0  0  0  0  0  0  0  0  0  0  0
  146.8491  142.3554  154.0220 C   0  0  0  0  0  0  0  0  0  0  0  0
  146.9577  140.8807  154.4654 C   0  0  1  0  0  0  0  0  0  0  0  0
  148.3780  140.2200  154.4226 C   0  0  1  0  0  0  0  0  0  0  0  0
  149.4542  141.2274  154.9100 C   0  0  0  0  0  0  0  0  0  0  0  0
  150.7500  140.6418  154.9111 O   0  0  0  0  0  0  0  0  0  0  0  0
  150.8270  139.5409  155.8024 C   0  0  0  0  0  0  0  0  0  0  0  0
  149.8491  138.4635  155.3249 C   0  0  0  0  0  0  0  0  0  0  0  0
  148.4939  139.0011  155.2440 N   0  0  0  0  0  0  0  0  0  0  0  0
  147.6286  137.9956  154.9931 C   0  0  0  0  0  0  0  0  0  0  0  0
  147.4635  137.0672  155.9671 N   0  0  0  0  0  0  0  0  0  0  0  0
  146.6085  136.0562  155.7862 C   0  0  0  0  0  0  0  0  0  0  0  0
  145.8374  135.7936  154.7286 N   0  0  0  0  0  0  0  0  0  0  0  0
  146.0155  136.7185  153.7415 C   0  0  0  0  0  0  0  0  0  0  0  0
  146.8926  137.8374  153.7845 C   0  0  0  0  0  0  0  0  0  0  0  0
  146.8131  138.5498  152.5940 N   0  0  0  0  0  0  0  0  0  0  0  0
  145.9278  137.8964  151.8923 C   0  0  0  0  0  0  0  0  0  0  0  0
  145.3869  136.7918  152.5111 N   0  0  0  0  0  0  0  0  0  0  0  0
  144.3773  135.8942  151.9721 C   0  0  0  0  0  0  0  0  0  0  0  0
  144.8301  135.1303  150.7016 C   0  0  2  0  0  0  0  0  0  0  0  0
  144.8821  136.0341  149.6129 O   0  0  0  0  0  0  0  0  0  0  0  0
  143.9351  133.9472  150.3270 C   0  0  0  0  0  0  0  0  0  0  0  0
  144.6597  132.7684  150.9583 C   0  0  0  0  0  0  0  0  0  0  0  0
  146.0175  133.0729  150.6913 O   0  0  0  0  0  0  0  0  0  0  0  0
  146.2089  134.4678  150.9011 C   0  0  0  0  0  0  0  0  0  0  0  0
  148.0026  141.0438  156.7314 H   0  0  0  0  0  0  0  0  0  0  0  0
  145.9382  139.9272  156.1697 H   0  0  0  0  0  0  0  0  0  0  0  0
  144.2578  141.3273  155.2542 H   0  0  0  0  0  0  0  0  0  0  0  0
  144.7652  142.3131  156.6155 H   0  0  0  0  0  0  0  0  0  0  0  0
  144.8034  143.1129  153.9201 H   0  0  0  0  0  0  0  0  0  0  0  0
  145.7937  143.8697  155.1603 H   0  0  0  0  0  0  0  0  0  0  0  0
  146.8095  142.4675  152.9394 H   0  0  0  0  0  0  0  0  0  0  0  0
  147.7107  142.9186  154.3819 H   0  0  0  0  0  0  0  0  0  0  0  0
  146.3044  140.2980  153.8133 H   0  0  0  0  0  0  0  0  0  0  0  0
  148.6136  139.9599  153.3903 H   0  0  0  0  0  0  0  0  0  0  0  0
  149.5048  142.0968  154.2562 H   0  0  0  0  0  0  0  0  0  0  0  0
  149.2159  141.5979  155.9086 H   0  0  0  0  0  0  0  0  0  0  0  0
  151.8455  139.1527  155.8039 H   0  0  0  0  0  0  0  0  0  0  0  0
  150.6001  139.8562  156.8219 H   0  0  0  0  0  0  0  0  0  0  0  0
  150.1607  138.0947  154.3465 H   0  0  0  0  0  0  0  0  0  0  0  0
  149.8765  137.6161  156.0119 H   0  0  0  0  0  0  0  0  0  0  0  0
  146.5268  135.3609  156.6085 H   0  0  0  0  0  0  0  0  0  0  0  0
  145.6362  138.2095  150.9002 H   0  0  0  0  0  0  0  0  0  0  0  0
  144.0940  135.1902  152.7559 H   0  0  0  0  0  0  0  0  0  0  0  0
  143.4837  136.4812  151.7554 H   0  0  0  0  0  0  0  0  0  0  0  0
  145.4593  135.6769  148.9552 H   0  0  0  0  0  0  0  0  0  0  0  0
  142.9010  134.0329  150.6568 H   0  0  0  0  0  0  0  0  0  0  0  0
  143.9174  133.8043  149.2452 H   0  0  0  0  0  0  0  0  0  0  0  0
  144.4899  132.7331  152.0356 H   0  0  0  0  0  0  0  0  0  0  0  0
  144.3674  131.8110  150.5265 H   0  0  0  0  0  0  0  0  0  0  0  0
  146.9697  134.8449  150.2162 H   0  0  0  0  0  0  0  0  0  0  0  0
  146.5815  134.6206  151.9151 H   0  0  0  0  0  0  0  0  0  0  0  0
  1  2  1  0  0  0  0
  1 29  1  0  0  0  0
  2  6  1  0  0  0  0
  2  3  1  0  0  0  0
  2 30  1  0  0  0  0
  3  4  1  0  0  0  0
  3 31  1  0  0  0  0
  3 32  1  0  0  0  0
  4  5  1  0  0  0  0
  4 33  1  0  0  0  0
  4 34  1  0  0  0  0
  5  6  1  0  0  0  0
  5 35  1  0  0  0  0
  5 36  1  0  0  0  0
  6  7  1  0  0  0  0
  6 37  1  0  0  0  0
  7 12  1  0  0  0  0
  7  8  1  0  0  0  0
  7 38  1  0  0  0  0
  8  9  1  0  0  0  0
  8 39  1  0  0  0  0
  8 40  1  0  0  0  0
  9 10  1  0  0  0  0
 10 11  1  0  0  0  0
 10 41  1  0  0  0  0
 10 42  1  0  0  0  0
 11 12  1  0  0  0  0
 11 43  1  0  0  0  0
 11 44  1  0  0  0  0
 12 13  1  0  0  0  0
 13 18  1  0  0  0  0
 13 14  2  0  0  0  0
 14 15  1  0  0  0  0
 15 16  2  0  0  0  0
 15 45  1  0  0  0  0
 16 17  1  0  0  0  0
 17 21  1  0  0  0  0
 17 18  2  0  0  0  0
 18 19  1  0  0  0  0
 19 20  2  0  0  0  0
 20 21  1  0  0  0  0
 20 46  1  0  0  0  0
 21 22  1  0  0  0  0
 22 23  1  0  0  0  0
 22 47  1  0  0  0  0
 22 48  1  0  0  0  0
 23 28  1  0  0  0  0
 23 24  1  0  0  0  0
 23 25  1  0  0  0  0
 24 49  1  0  0  0  0
 25 26  1  0  0  0  0
 25 50  1  0  0  0  0
 25 51  1  0  0  0  0
 26 27  1  0  0  0  0
 26 52  1  0  0  0  0
 26 53  1  0  0  0  0
 27 28  1  0  0  0  0
 28 54  1  0  0  0  0
 28 55  1  0  0  0  0
M  END
> <s_m_source_file>
AV-unprocessed.smi

> <i_m_source_file_index>
240

> <i_lp_mmshare_version>
43012

> <i_f3d_flags>
0

> <s_epik_input>
W09IXVtDQEBIXTFbQ0gyXVtDSDJdW0NIMl1bQ0BIXTFbQ0BASF0yW0NIMl1PW0NIMl1bQ0gyXU4yYyhuW2NIXW4zKWMoYzM0KW5bY0hdbjRbQ0gyXVtDQEBdNShbT0hdKVtDSDJdW0NIMl1PW0NIMl01

> <s_epik_cmdline>
J2VwaWtfcHl0aG9uJywgJy1waCcsICc3LjAnLCAnLXRuJywgJzgnLCAnLW1hJywgJzIwMCcsICctbWV0YWxfYmluZGluZycsICctaW1hZScsICc8aW5maWxlLm1hZT4nLCAnLW9tYWUnLCAnPG91dGZpbGUubWFlPic=

> <r_lp_tautomer_probability>
1

> <r_epik_Ionization_Penalty>
0.000130618

> <r_epik_Ionization_Penalty_Charging>
0

> <r_epik_Ionization_Penalty_Neutral>
0.000130618

> <r_epik_State_Penalty>
-0

> <r_epik_Charging_Adjusted_Penalty>
0

> <i_epik_Tot_Q>
0

> <i_epik_Tot_abs_Q>
0

> <r_epik_Metal_State_Penalty>
-0

> <b_epik_Metal_Only>
0

> <s_lp_Force_Field>
OPLS_2005

> <r_lp_Energy>
64.0442

> <b_lp_Chiralities_Consistent>
1

> <s_lp_Variant>
AV-unprocessed.smi:240-14

> <Gold.Version>
5.8.1

> <Gold.Id.Protein>
6NUR|6NUR_protein|mol2

> <Gold.PLP.Fitness>
44.2023

> <Gold.PLP.PLP>
-36.5809

> <Gold.PLP.part.hbond>
-3.0000

> <Gold.PLP.part.metal>
0.0000

> <Gold.PLP.part.buried>
-5.7706

> <Gold.PLP.part.nonpolar>
-30.1546

> <Gold.PLP.part.repulsive>
0.7006

> <Gold.PLP.ligand.clash>
0.0000

> <Gold.PLP.ligand.torsion>
0.8046

> <Gold.PLP.Chemscore.Hbond>
1.9920

> <Gold.PLP.Chemscore.CHOScore>
1.0000

> <Gold.PLP.Chemscore.Metal>
0.0000

> <Gold.Chemscore.Hbonds>
donor molecule, donor type, donor heavy atom, donor atom, acceptor molecule, acceptor atom, score
      L1  H    24    49       P1  7921  1.00
      P1  H  7989  7998       L1     9  0.94
      L1  C    20    46       P1 10171  1.00

> <Gold.PLP.Chemscore.Internal.Correction>
0.2546

> <Gold.Rescore>
     Score         DG    S(hbond)    S(metal)    S(lipo)     H(rot)  DE(clash)    DE(int)     intcor
     10.63     -13.51       1.87        0.00      80.86       3.00       0.56       2.32       ----

> <Gold.Chemscore.Fitness>
10.6307

> <Gold.Chemscore.DG>
-13.5092

> <Gold.Chemscore.ZeroCoef>
-5.4800

> <Gold.Chemscore.Hbond>
1.8736

> <Gold.Chemscore.Metal>
0.0000

> <Gold.Chemscore.Lipo>
80.8647

> <Gold.Chemscore.Internal_Hbond>
0.0000

> <Gold.Chemscore.DEClash>
0.5625

> <Gold.Chemscore.DEInternal>
2.3161

> <Gold.Chemscore.Rot>
3.0039

> <Gold.Chemscore.Internal.Correction>
   9.000000E+99

> <Gold.Chemscore.Hbonds>
donor molecule, donor type, donor heavy atom, donor atom, acceptor molecule, acceptor atom, score
      L1  H    24    49       P1  7921  1.00
      P1  H  7989  7998       L1     9  0.80

> <Gold.Chemscore.Hbond.Weighted>
-6.2579

> <Gold.Chemscore.Metal.Weighted>
-0.0000

> <Gold.Chemscore.Lipo.Weighted>
-9.4612

> <Gold.Chemscore.Internal_Hbond.Weighted>
0.0000

> <Gold.Chemscore.DEClash.Weighted>
0.5625

> <Gold.Chemscore.DEInternal.Weighted>
2.3161

> <Gold.Chemscore.Rot.Weighted>
7.6899

> <Gold.Chemscore.Internal.Correction.Weighted>
   9.000000E+99

> <Gold.Protein.RotatedTorsions>
[ 6907 6896 6895 6894 ] final  112.35 input  -60.11 | X-H torsion
[ 7974 7965 7964 7962 ] final  -72.98 input  175.53 | X-H torsion
[ 8008 7997 7996 7995 ] final   52.91 input   59.86 | X-H torsion
[ 10167 10162 10161 10158 ] final  -78.29 input  -65.29 | X-H torsion
[ 10718 10713 10712 10709 ] final   86.16 input   66.30 | X-H torsion
[ 10763 10752 10751 10750 ] final   10.66 input  -60.55 | X-H torsion
[ 11005 11000 10999 10996 ] final  155.14 input  -57.11 | X-H torsion

> <Gold.Protein.ActiveResidues>
 VAL166  LYS551  ARG553  GLY616  TRP617  ASP618  TYR619  PRO620  LYS621  CYS622 
 ASP623  PHE694  ASN695  SER759  ASP760  ASP761  ALA762  ILE779  LEU786  VAL792 
 PHE793  MET794  SER795  GLU796  ALA797  LYS798  CYS799  TRP800  GLU811  SER814 

> <Gold.Protein.RotatedAtoms>
  152.4921  133.8529  159.7210 H   0  0  0  0  0  0  0  0  0  0  0  0  # atno 6907 bound_to 6896
  150.9061  133.7047  159.2873 H   0  0  0  0  0  0  0  0  0  0  0  0  # atno 6908 bound_to 6896
  151.4472  135.1030  159.9739 H   0  0  0  0  0  0  0  0  0  0  0  0  # atno 6909 bound_to 6896
  145.6581  140.9261  143.0949 H   0  0  0  0  0  0  0  0  0  0  0  0  # atno 7974 bound_to 7965
  155.4596  140.3461  155.4311 H   0  0  0  0  0  0  0  0  0  0  0  0  # atno 8008 bound_to 7997
  156.1169  140.1476  156.9289 H   0  0  0  0  0  0  0  0  0  0  0  0  # atno 8009 bound_to 7997
  154.4795  140.0874  156.7323 H   0  0  0  0  0  0  0  0  0  0  0  0  # atno 8010 bound_to 7997
  140.4695  143.2430  151.8226 H   0  0  0  0  0  0  0  0  0  0  0  0  # atno 10167 bound_to 10162
  157.6925  131.0204  150.2932 H   0  0  0  0  0  0  0  0  0  0  0  0  # atno 10718 bound_to 10713
  153.2008  135.6855  153.8234 H   0  0  0  0  0  0  0  0  0  0  0  0  # atno 10763 bound_to 10752
  153.7501  135.3225  155.3320 H   0  0  0  0  0  0  0  0  0  0  0  0  # atno 10764 bound_to 10752
  154.8170  135.4679  154.0773 H   0  0  0  0  0  0  0  0  0  0  0  0  # atno 10765 bound_to 10752
  140.1554  134.8646  157.2507 H   0  0  0  0  0  0  0  0  0  0  0  0  # atno 11005 bound_to 11000
  144.7099  139.8413  143.7418 LP  0  0  0  0  0  0  0  0  0  0  0  0  # atno 17320 bound_to 7965
  146.1148  139.4158  143.0265 LP  0  0  0  0  0  0  0  0  0  0  0  0  # atno 17321 bound_to 7965
  139.4816  144.4909  151.9186 LP  0  0  0  0  0  0  0  0  0  0  0  0  # atno 17342 bound_to 10162
  140.3994  144.2512  150.5894 LP  0  0  0  0  0  0  0  0  0  0  0  0  # atno 17343 bound_to 10162
  156.3459  130.3823  149.7369 LP  0  0  0  0  0  0  0  0  0  0  0  0  # atno 17370 bound_to 10713
  156.4863  130.8064  151.3076 LP  0  0  0  0  0  0  0  0  0  0  0  0  # atno 17371 bound_to 10713
  140.2554  134.3634  155.7426 LP  0  0  0  0  0  0  0  0  0  0  0  0  # atno 17394 bound_to 11000
  141.2204  133.7339  156.8999 LP  0  0  0  0  0  0  0  0  0  0  0  0  # atno 17395 bound_to 11000

$$$$
