AV-unprocessed.smi:1644|AV-procd|sdf|6599|dock4
  -GOLD-   22720 7303D 1   1.00000     0.00000
 Structure written by MMmdl.
 49 51  0  0  0  0  0  0  0  0  3 V2000
  147.1728  134.7910  162.7826 C   0  0  0  0  0  0  0  0  0  0  0  0
  147.6904  134.7052  161.3428 C   0  0  0  0  0  0  0  0  0  0  0  0
  147.5047  136.0298  160.5717 C   0  0  0  0  0  0  0  0  0  0  0  0
  148.1924  136.1169  159.1872 C   0  0  1  0  0  0  0  0  0  0  0  0
  147.3151  136.6850  158.1848 N   0  5  0  0  0  0  0  0  0  0  0  0
  147.9277  137.7640  157.6435 C   0  0  0  0  0  0  0  0  0  0  0  0
  147.4757  138.5064  156.7718 O   0  0  0  0  0  0  0  0  0  0  0  0
  149.1391  137.9649  158.1991 N   0  0  0  0  0  0  0  0  0  0  0  0
  150.0402  139.0741  157.8728 C   0  0  0  0  0  0  0  0  0  0  0  0
  151.2463  138.5927  157.0395 C   0  0  1  0  0  0  0  0  0  0  0  0
  150.8423  137.5190  156.2123 O   0  0  0  0  0  0  0  0  0  0  0  0
  151.8099  139.7098  156.1399 C   0  0  0  0  0  0  0  0  0  0  0  0
  151.3759  141.0449  156.5686 N   0  0  0  0  0  0  0  0  0  0  0  0
  150.6081  141.9697  155.9321 C   0  0  0  0  0  0  0  0  0  0  0  0
  150.5049  143.0515  156.7540 N   0  3  0  0  0  0  0  0  0  0  0  0
  151.2215  142.8139  157.9298 C   0  0  0  0  0  0  0  0  0  0  0  0
  151.4219  143.6071  159.0534 C   0  0  0  0  0  0  0  0  0  0  0  0
  152.2186  143.0687  160.0896 C   0  0  0  0  0  0  0  0  0  0  0  0
  152.4652  143.9130  161.3280 C   0  0  0  0  0  0  0  0  0  0  0  0
  152.7793  141.7694  159.9802 C   0  0  0  0  0  0  0  0  0  0  0  0
  153.6346  141.1992  161.0987 C   0  0  0  0  0  0  0  0  0  0  0  0
  152.5606  140.9772  158.8314 C   0  0  0  0  0  0  0  0  0  0  0  0
  151.7791  141.5261  157.8180 C   0  0  0  0  0  0  0  0  0  0  0  0
  149.3854  137.0501  159.1408 C   0  0  0  0  0  0  0  0  0  0  0  0
  150.3775  136.9573  159.8644 O   0  0  0  0  0  0  0  0  0  0  0  0
  147.3247  133.8472  163.3062 H   0  0  0  0  0  0  0  0  0  0  0  0
  146.1065  135.0165  162.8038 H   0  0  0  0  0  0  0  0  0  0  0  0
  147.6923  135.5694  163.3418 H   0  0  0  0  0  0  0  0  0  0  0  0
  148.7456  134.4312  161.3628 H   0  0  0  0  0  0  0  0  0  0  0  0
  147.1710  133.8937  160.8325 H   0  0  0  0  0  0  0  0  0  0  0  0
  146.4369  136.2102  160.4399 H   0  0  0  0  0  0  0  0  0  0  0  0
  147.8643  136.8529  161.1909 H   0  0  0  0  0  0  0  0  0  0  0  0
  148.5325  135.1212  158.8998 H   0  0  0  0  0  0  0  0  0  0  0  0
  149.5117  139.8873  157.3716 H   0  0  0  0  0  0  0  0  0  0  0  0
  150.3877  139.5028  158.8144 H   0  0  0  0  0  0  0  0  0  0  0  0
  152.0377  138.2347  157.6986 H   0  0  0  0  0  0  0  0  0  0  0  0
  151.3794  136.7678  156.4123 H   0  0  0  0  0  0  0  0  0  0  0  0
  152.9008  139.6930  156.1371 H   0  0  0  0  0  0  0  0  0  0  0  0
  151.4944  139.5735  155.1046 H   0  0  0  0  0  0  0  0  0  0  0  0
  150.1660  141.8668  154.9517 H   0  0  0  0  0  0  0  0  0  0  0  0
  150.9919  144.5951  159.1302 H   0  0  0  0  0  0  0  0  0  0  0  0
  153.5341  144.0630  161.4833 H   0  0  0  0  0  0  0  0  0  0  0  0
  152.0513  143.4253  162.2108 H   0  0  0  0  0  0  0  0  0  0  0  0
  152.0011  144.8960  161.2406 H   0  0  0  0  0  0  0  0  0  0  0  0
  153.9506  140.1789  160.8782 H   0  0  0  0  0  0  0  0  0  0  0  0
  153.0784  141.1793  162.0362 H   0  0  0  0  0  0  0  0  0  0  0  0
  154.5316  141.8030  161.2390 H   0  0  0  0  0  0  0  0  0  0  0  0
  152.9916  139.9898  158.7441 H   0  0  0  0  0  0  0  0  0  0  0  0
  149.9868  143.8900  156.5247 H   0  0  0  0  0  0  0  0  0  0  0  0
  1  2  1  0  0  0  0
  1 26  1  0  0  0  0
  1 27  1  0  0  0  0
  1 28  1  0  0  0  0
  2  3  1  0  0  0  0
  2 29  1  0  0  0  0
  2 30  1  0  0  0  0
  3  4  1  0  0  0  0
  3 31  1  0  0  0  0
  3 32  1  0  0  0  0
  4 24  1  0  0  0  0
  4  5  1  0  0  0  0
  4 33  1  0  0  0  0
  5  6  1  0  0  0  0
  6  7  2  0  0  0  0
  6  8  1  0  0  0  0
  8  9  1  0  0  0  0
  8 24  1  0  0  0  0
  9 10  1  0  0  0  0
  9 34  1  0  0  0  0
  9 35  1  0  0  0  0
 10 11  1  0  0  0  0
 10 12  1  0  0  0  0
 10 36  1  0  0  0  0
 11 37  1  0  0  0  0
 12 13  1  0  0  0  0
 12 38  1  0  0  0  0
 12 39  1  0  0  0  0
 13 23  1  0  0  0  0
 13 14  1  0  0  0  0
 14 15  2  0  0  0  0
 14 40  1  0  0  0  0
 15 16  1  0  0  0  0
 15 49  1  0  0  0  0
 16 23  2  0  0  0  0
 16 17  1  0  0  0  0
 17 18  2  0  0  0  0
 17 41  1  0  0  0  0
 18 19  1  0  0  0  0
 18 20  1  0  0  0  0
 19 42  1  0  0  0  0
 19 43  1  0  0  0  0
 19 44  1  0  0  0  0
 20 21  1  0  0  0  0
 20 22  2  0  0  0  0
 21 45  1  0  0  0  0
 21 46  1  0  0  0  0
 21 47  1  0  0  0  0
 22 23  1  0  0  0  0
 22 48  1  0  0  0  0
 24 25  2  0  0  0  0
M  CHG  1   5  -1
M  CHG  1  15   1
M  END
> <s_m_source_file>
AV-unprocessed.smi

> <i_m_source_file_index>
1644

> <i_lp_mmshare_version>
43012

> <i_f3d_flags>
0

> <s_epik_input>
W0NIM11bQ0gyXVtDSDJdW0NAQEhdMVtOSF1DKD1PKU4oQzE9TylbQ0gyXVtDQEhdKFtPSF0pW0NIMl1uKFtjSF1uMiljKGMyMylbY0hdYyhbQ0gzXSljKFtjSF0zKVtDSDNd

> <s_epik_cmdline>
J2VwaWtfcHl0aG9uJywgJy1waCcsICc3LjAnLCAnLXRuJywgJzgnLCAnLW1hJywgJzIwMCcsICctbWV0YWxfYmluZGluZycsICctaW1hZScsICc8aW5maWxlLm1hZT4nLCAnLW9tYWUnLCAnPG91dGZpbGUubWFlPic=

> <r_lp_tautomer_probability>
1

> <r_epik_Ionization_Penalty>
6.86868

> <r_epik_Ionization_Penalty_Charging>
6.86868

> <r_epik_Ionization_Penalty_Neutral>
5.84798e-07

> <r_epik_State_Penalty>
6.92818

> <r_epik_Charging_Adjusted_Penalty>
13.7969

> <i_epik_Tot_Q>
0

> <i_epik_Tot_abs_Q>
2

> <r_epik_Metal_State_Penalty>
2.98017

> <b_epik_Metal_Only>
1

> <s_lp_Force_Field>
OPLS_2005

> <r_lp_Energy>
22.7733

> <b_lp_Chiralities_Consistent>
1

> <s_lp_Variant>
AV-unprocessed.smi:1644-16

> <Gold.Version>
5.8.1

> <Gold.Id.Protein>
6NUR|6NUR_protein|mol2

> <Gold.PLP.Fitness>
52.4316

> <Gold.PLP.PLP>
-46.9172

> <Gold.PLP.part.hbond>
-2.3890

> <Gold.PLP.part.metal>
0.0000

> <Gold.PLP.part.buried>
-6.9197

> <Gold.PLP.part.nonpolar>
-37.3933

> <Gold.PLP.part.repulsive>
0.0418

> <Gold.PLP.ligand.clash>
0.0000

> <Gold.PLP.ligand.torsion>
1.7964

> <Gold.PLP.Chemscore.Hbond>
3.0000

> <Gold.PLP.Chemscore.CHOScore>
0.0000

> <Gold.PLP.Chemscore.Metal>
0.0000

> <Gold.Chemscore.Hbonds>
donor molecule, donor type, donor heavy atom, donor atom, acceptor molecule, acceptor atom, score
      L1  H    15    49       P1  8028  2.00
      P1  H  6896  6908       L1    25  0.99

> <Gold.PLP.Chemscore.Internal.Correction>
0.1073

> <Gold.Rescore>
     Score         DG    S(hbond)    S(metal)    S(lipo)     H(rot)  DE(clash)    DE(int)     intcor
     16.20     -18.84       1.94        0.00     118.33       2.72       0.04       2.60       ----

> <Gold.Chemscore.Fitness>
16.2036

> <Gold.Chemscore.DG>
-18.8358

> <Gold.Chemscore.ZeroCoef>
-5.4800

> <Gold.Chemscore.Hbond>
1.9421

> <Gold.Chemscore.Metal>
0.0000

> <Gold.Chemscore.Lipo>
118.3253

> <Gold.Chemscore.Internal_Hbond>
0.0000

> <Gold.Chemscore.DEClash>
0.0358

> <Gold.Chemscore.DEInternal>
2.5964

> <Gold.Chemscore.Rot>
2.7245

> <Gold.Chemscore.Internal.Correction>
   9.000000E+99

> <Gold.Chemscore.Hbonds>
donor molecule, donor type, donor heavy atom, donor atom, acceptor molecule, acceptor atom, score
      L1  H    15    49       P1  8028  0.97
      P1  H  6896  6908       L1    25  0.65

> <Gold.Chemscore.Hbond.Weighted>
-6.4865

> <Gold.Chemscore.Metal.Weighted>
-0.0000

> <Gold.Chemscore.Lipo.Weighted>
-13.8441

> <Gold.Chemscore.Internal_Hbond.Weighted>
0.0000

> <Gold.Chemscore.DEClash.Weighted>
0.0358

> <Gold.Chemscore.DEInternal.Weighted>
2.5964

> <Gold.Chemscore.Rot.Weighted>
6.9748

> <Gold.Chemscore.Internal.Correction.Weighted>
   9.000000E+99

> <Gold.Protein.RotatedTorsions>
[ 6907 6896 6895 6894 ] final -154.87 input  -60.11 | X-H torsion
[ 7974 7965 7964 7962 ] final  -73.34 input  175.53 | X-H torsion
[ 8008 7997 7996 7995 ] final  113.88 input   59.86 | X-H torsion
[ 10167 10162 10161 10158 ] final -140.68 input  -65.29 | X-H torsion
[ 10718 10713 10712 10709 ] final  -44.76 input   66.30 | X-H torsion
[ 10763 10752 10751 10750 ] final -146.60 input  -60.55 | X-H torsion
[ 11005 11000 10999 10996 ] final   67.80 input  -57.11 | X-H torsion

> <Gold.Protein.ActiveResidues>
 VAL166  LYS551  ARG553  GLY616  TRP617  ASP618  TYR619  PRO620  LYS621  CYS622 
 ASP623  PHE694  ASN695  SER759  ASP760  ASP761  ALA762  ILE779  LEU786  VAL792 
 PHE793  MET794  SER795  GLU796  ALA797  LYS798  CYS799  TRP800  GLU811  SER814 

> <Gold.Protein.RotatedAtoms>
  151.2640  133.4288  159.2617 H   0  0  0  0  0  0  0  0  0  0  0  0  # atno 6907 bound_to 6896
  151.0505  134.9670  159.8219 H   0  0  0  0  0  0  0  0  0  0  0  0  # atno 6908 bound_to 6896
  152.5382  134.2594  159.8982 H   0  0  0  0  0  0  0  0  0  0  0  0  # atno 6909 bound_to 6896
  145.6535  140.9275  143.0972 H   0  0  0  0  0  0  0  0  0  0  0  0  # atno 7974 bound_to 7965
  156.2286  140.2970  156.0131 H   0  0  0  0  0  0  0  0  0  0  0  0  # atno 8008 bound_to 7997
  155.2287  140.0418  157.2976 H   0  0  0  0  0  0  0  0  0  0  0  0  # atno 8009 bound_to 7997
  154.5957  140.2413  155.7867 H   0  0  0  0  0  0  0  0  0  0  0  0  # atno 8010 bound_to 7997
  139.8258  143.7512  152.2666 H   0  0  0  0  0  0  0  0  0  0  0  0  # atno 10167 bound_to 10162
  156.2353  130.4175  149.8825 H   0  0  0  0  0  0  0  0  0  0  0  0  # atno 10718 bound_to 10713
  154.8328  135.3382  154.6687 H   0  0  0  0  0  0  0  0  0  0  0  0  # atno 10763 bound_to 10752
  153.7305  135.6952  153.4995 H   0  0  0  0  0  0  0  0  0  0  0  0  # atno 10764 bound_to 10752
  153.2316  135.4414  155.0553 H   0  0  0  0  0  0  0  0  0  0  0  0  # atno 10765 bound_to 10752
  139.9749  134.6839  156.0373 H   0  0  0  0  0  0  0  0  0  0  0  0  # atno 11005 bound_to 11000
  144.7114  139.8357  143.7413 LP  0  0  0  0  0  0  0  0  0  0  0  0  # atno 17320 bound_to 7965
  146.1184  139.4199  143.0243 LP  0  0  0  0  0  0  0  0  0  0  0  0  # atno 17321 bound_to 7965
  139.7705  144.7478  151.0232 LP  0  0  0  0  0  0  0  0  0  0  0  0  # atno 17342 bound_to 10162
  140.7810  143.4651  151.0224 LP  0  0  0  0  0  0  0  0  0  0  0  0  # atno 17343 bound_to 10162
  156.6425  130.8711  151.3516 LP  0  0  0  0  0  0  0  0  0  0  0  0  # atno 17370 bound_to 10713
  157.7151  130.9488  150.1228 LP  0  0  0  0  0  0  0  0  0  0  0  0  # atno 17371 bound_to 10713
  141.1427  133.6561  156.3776 LP  0  0  0  0  0  0  0  0  0  0  0  0  # atno 17394 bound_to 11000
  140.5215  134.6299  157.5320 LP  0  0  0  0  0  0  0  0  0  0  0  0  # atno 17395 bound_to 11000

$$$$
