AV-unprocessed.smi:243|AV-procd|sdf|1852|dock5
  -GOLD-   2262020473D 1   1.00000     0.00000
 Structure written by MMmdl.
 58 61  0  0  0  0  0  0  0  0  2 V2000
  152.5605  144.5005  158.6302 C   0  0  0  0  0  0  0  0  0  0  0  0
  151.5747  144.5577  157.4501 C   0  0  0  0  0  0  0  0  0  0  0  0
  150.6718  143.3823  157.3487 N   0  3  2  0  0  0  0  0  0  0  0  0
  150.0310  142.9971  158.6309 C   0  0  0  0  0  0  0  0  0  0  0  0
  148.9154  141.9718  158.3839 C   0  0  0  0  0  0  0  0  0  0  0  0
  149.4686  140.7370  157.6337 C   0  0  1  0  0  0  0  0  0  0  0  0
  148.5302  139.6122  157.4873 N   0  0  0  0  0  0  0  0  0  0  0  0
  147.0960  139.8762  157.4555 C   0  0  0  0  0  0  0  0  0  0  0  0
  148.8931  138.3054  157.5779 C   0  0  0  0  0  0  0  0  0  0  0  0
  148.7186  137.6340  158.7452 N   0  0  0  0  0  0  0  0  0  0  0  0
  149.0580  136.3460  158.8459 C   0  0  0  0  0  0  0  0  0  0  0  0
  149.5821  135.5475  157.9155 N   0  0  0  0  0  0  0  0  0  0  0  0
  149.7612  136.2121  156.7386 C   0  0  0  0  0  0  0  0  0  0  0  0
  149.4403  137.5760  156.4834 C   0  0  0  0  0  0  0  0  0  0  0  0
  149.7650  137.8972  155.1705 N   0  0  0  0  0  0  0  0  0  0  0  0
  150.2453  136.7884  154.6782 C   0  0  0  0  0  0  0  0  0  0  0  0
  150.2907  135.7285  155.5550 N   0  0  0  0  0  0  0  0  0  0  0  0
  150.7890  134.3898  155.2801 C   0  0  0  0  0  0  0  0  0  0  0  0
  149.6647  133.3500  155.0607 C   0  0  2  0  0  0  0  0  0  0  0  0
  148.9146  133.2197  156.2557 O   0  0  0  0  0  0  0  0  0  0  0  0
  150.1643  131.9664  154.6514 C   0  0  0  0  0  0  0  0  0  0  0  0
  149.0509  131.4558  153.7477 C   0  0  0  0  0  0  0  0  0  0  0  0
  148.6877  132.6184  153.0238 O   0  0  0  0  0  0  0  0  0  0  0  0
  148.7003  133.7263  153.9180 C   0  0  0  0  0  0  0  0  0  0  0  0
  150.2032  141.1453  156.3266 C   0  0  1  0  0  0  0  0  0  0  0  0
  149.2875  141.5978  155.1750 C   0  0  0  0  0  0  0  0  0  0  0  0
  151.2678  142.2174  156.6443 C   0  0  0  0  0  0  0  0  0  0  0  0
  153.1869  145.3925  158.6430 H   0  0  0  0  0  0  0  0  0  0  0  0
  153.2270  143.6409  158.5628 H   0  0  0  0  0  0  0  0  0  0  0  0
  152.0452  144.4569  159.5896 H   0  0  0  0  0  0  0  0  0  0  0  0
  150.9659  145.4591  157.5292 H   0  0  0  0  0  0  0  0  0  0  0  0
  152.1308  144.6526  156.5168 H   0  0  0  0  0  0  0  0  0  0  0  0
  150.7735  142.5804  159.3124 H   0  0  0  0  0  0  0  0  0  0  0  0
  149.6126  143.8807  159.1143 H   0  0  0  0  0  0  0  0  0  0  0  0
  148.4801  141.6680  159.3367 H   0  0  0  0  0  0  0  0  0  0  0  0
  148.1233  142.4638  157.8221 H   0  0  0  0  0  0  0  0  0  0  0  0
  150.2414  140.3336  158.2902 H   0  0  0  0  0  0  0  0  0  0  0  0
  146.5623  139.2150  158.1392 H   0  0  0  0  0  0  0  0  0  0  0  0
  146.7009  139.7263  156.4511 H   0  0  0  0  0  0  0  0  0  0  0  0
  146.8731  140.9032  157.7428 H   0  0  0  0  0  0  0  0  0  0  0  0
  148.8856  135.8899  159.8095 H   0  0  0  0  0  0  0  0  0  0  0  0
  150.5906  136.7163  153.6570 H   0  0  0  0  0  0  0  0  0  0  0  0
  151.4400  134.4347  154.4058 H   0  0  0  0  0  0  0  0  0  0  0  0
  151.4212  134.0869  156.1158 H   0  0  0  0  0  0  0  0  0  0  0  0
  148.2457  132.5663  156.1209 H   0  0  0  0  0  0  0  0  0  0  0  0
  151.0774  132.0540  154.0614 H   0  0  0  0  0  0  0  0  0  0  0  0
  150.3748  131.3050  155.4930 H   0  0  0  0  0  0  0  0  0  0  0  0
  149.3770  130.6534  153.0860 H   0  0  0  0  0  0  0  0  0  0  0  0
  148.1998  131.1017  154.3316 H   0  0  0  0  0  0  0  0  0  0  0  0
  147.6874  133.9124  154.2795 H   0  0  0  0  0  0  0  0  0  0  0  0
  149.0214  134.6177  153.3783 H   0  0  0  0  0  0  0  0  0  0  0  0
  150.7449  140.2742  155.9576 H   0  0  0  0  0  0  0  0  0  0  0  0
  148.6608  142.4430  155.4592 H   0  0  0  0  0  0  0  0  0  0  0  0
  148.6368  140.7869  154.8484 H   0  0  0  0  0  0  0  0  0  0  0  0
  149.8726  141.9006  154.3065 H   0  0  0  0  0  0  0  0  0  0  0  0
  151.7507  142.5473  155.7234 H   0  0  0  0  0  0  0  0  0  0  0  0
  152.0495  141.7787  157.2656 H   0  0  0  0  0  0  0  0  0  0  0  0
  149.9140  143.6901  156.7559 H   0  0  0  0  0  0  0  0  0  0  0  0
  1  2  1  0  0  0  0
  1 28  1  0  0  0  0
  1 29  1  0  0  0  0
  1 30  1  0  0  0  0
  2  3  1  0  0  0  0
  2 31  1  0  0  0  0
  2 32  1  0  0  0  0
  3 27  1  0  0  0  0
  3  4  1  0  0  0  0
  3 58  1  0  0  0  0
  4  5  1  0  0  0  0
  4 33  1  0  0  0  0
  4 34  1  0  0  0  0
  5  6  1  0  0  0  0
  5 35  1  0  0  0  0
  5 36  1  0  0  0  0
  6  7  1  0  0  0  0
  6 25  1  0  0  0  0
  6 37  1  0  0  0  0
  7  8  1  0  0  0  0
  7  9  1  0  0  0  0
  8 38  1  0  0  0  0
  8 39  1  0  0  0  0
  8 40  1  0  0  0  0
  9 14  1  0  0  0  0
  9 10  2  0  0  0  0
 10 11  1  0  0  0  0
 11 12  2  0  0  0  0
 11 41  1  0  0  0  0
 12 13  1  0  0  0  0
 13 17  1  0  0  0  0
 13 14  2  0  0  0  0
 14 15  1  0  0  0  0
 15 16  2  0  0  0  0
 16 17  1  0  0  0  0
 16 42  1  0  0  0  0
 17 18  1  0  0  0  0
 18 19  1  0  0  0  0
 18 43  1  0  0  0  0
 18 44  1  0  0  0  0
 19 24  1  0  0  0  0
 19 20  1  0  0  0  0
 19 21  1  0  0  0  0
 20 45  1  0  0  0  0
 21 22  1  0  0  0  0
 21 46  1  0  0  0  0
 21 47  1  0  0  0  0
 22 23  1  0  0  0  0
 22 48  1  0  0  0  0
 22 49  1  0  0  0  0
 23 24  1  0  0  0  0
 24 50  1  0  0  0  0
 24 51  1  0  0  0  0
 25 26  1  0  0  0  0
 25 27  1  0  0  0  0
 25 52  1  0  0  0  0
 26 53  1  0  0  0  0
 26 54  1  0  0  0  0
 26 55  1  0  0  0  0
 27 56  1  0  0  0  0
 27 57  1  0  0  0  0
M  CHG  1   3   1
M  END
> <s_m_source_file>
AV-unprocessed.smi

> <i_m_source_file_index>
243

> <i_lp_mmshare_version>
43012

> <i_f3d_flags>
0

> <s_epik_input>
W0NIM11bQ0gyXU4xW0NIMl1bQ0gyXVtDQEhdKFtDQEBIXShbQ0gzXSlbQ0gyXTEpTihbQ0gzXSljKG5bY0hdbjIpYyhjMjMpbltjSF1uM1tDSDJdW0NAQF00KFtPSF0pW0NIMl1bQ0gyXU9bQ0gyXTQ=

> <s_epik_cmdline>
J2VwaWtfcHl0aG9uJywgJy1waCcsICc3LjAnLCAnLXRuJywgJzgnLCAnLW1hJywgJzIwMCcsICctbWV0YWxfYmluZGluZycsICctaW1hZScsICc8aW5maWxlLm1hZT4nLCAnLW9tYWUnLCAnPG91dGZpbGUubWFlPic=

> <r_lp_tautomer_probability>
1

> <r_epik_Ionization_Penalty>
0.00253099

> <r_epik_Ionization_Penalty_Charging>
0.00137877

> <r_epik_Ionization_Penalty_Neutral>
0.00115221

> <r_epik_State_Penalty>
-0

> <r_epik_Charging_Adjusted_Penalty>
0.00137877

> <i_epik_Tot_Q>
1

> <i_epik_Tot_abs_Q>
1

> <r_epik_Metal_State_Penalty>
-0

> <b_epik_Metal_Only>
0

> <s_lp_Force_Field>
OPLS_2005

> <r_lp_Energy>
49.3868

> <b_lp_Chiralities_Consistent>
1

> <s_lp_Variant>
AV-unprocessed.smi:243-5

> <Gold.Version>
5.8.1

> <Gold.Id.Protein>
6NUR|6NUR_protein|mol2

> <Gold.PLP.Fitness>
45.4333

> <Gold.PLP.PLP>
-38.5125

> <Gold.PLP.part.hbond>
-2.0568

> <Gold.PLP.part.metal>
0.0000

> <Gold.PLP.part.buried>
-7.1323

> <Gold.PLP.part.nonpolar>
-29.6228

> <Gold.PLP.part.repulsive>
0.2365

> <Gold.PLP.ligand.clash>
0.0000

> <Gold.PLP.ligand.torsion>
2.4469

> <Gold.PLP.Chemscore.Hbond>
3.0000

> <Gold.PLP.Chemscore.CHOScore>
0.8136

> <Gold.PLP.Chemscore.Metal>
0.0000

> <Gold.Chemscore.Hbonds>
donor molecule, donor type, donor heavy atom, donor atom, acceptor molecule, acceptor atom, score
      L1  H     3    58       P1  8028  2.00
      P1  H  6896  6909       L1    12  0.22
      L1  C    16    42       P1  7948  0.32
      L1  C    16    42       P1  7949  0.55

> <Gold.PLP.Chemscore.Internal.Correction>
0.3737

> <Gold.Rescore>
     Score         DG    S(hbond)    S(metal)    S(lipo)     H(rot)  DE(clash)    DE(int)     intcor
     13.76     -16.26       1.91        0.00      86.51       2.24       0.02       2.48       ----

> <Gold.Chemscore.Fitness>
13.7604

> <Gold.Chemscore.DG>
-16.2641

> <Gold.Chemscore.ZeroCoef>
-5.4800

> <Gold.Chemscore.Hbond>
1.9138

> <Gold.Chemscore.Metal>
0.0000

> <Gold.Chemscore.Lipo>
86.5056

> <Gold.Chemscore.Internal_Hbond>
0.0000

> <Gold.Chemscore.DEClash>
0.0215

> <Gold.Chemscore.DEInternal>
2.4821

> <Gold.Chemscore.Rot>
2.2379

> <Gold.Chemscore.Internal.Correction>
   9.000000E+99

> <Gold.Chemscore.Hbonds>
donor molecule, donor type, donor heavy atom, donor atom, acceptor molecule, acceptor atom, score
      L1  H     3    58       P1  8028  1.00

> <Gold.Chemscore.Hbond.Weighted>
-6.3920

> <Gold.Chemscore.Metal.Weighted>
-0.0000

> <Gold.Chemscore.Lipo.Weighted>
-10.1212

> <Gold.Chemscore.Internal_Hbond.Weighted>
0.0000

> <Gold.Chemscore.DEClash.Weighted>
0.0215

> <Gold.Chemscore.DEInternal.Weighted>
2.4821

> <Gold.Chemscore.Rot.Weighted>
5.7291

> <Gold.Chemscore.Internal.Correction.Weighted>
   9.000000E+99

> <Gold.Protein.RotatedTorsions>
[ 6907 6896 6895 6894 ] final   48.20 input  -60.11 | X-H torsion
[ 7974 7965 7964 7962 ] final -135.85 input  175.53 | X-H torsion
[ 8008 7997 7996 7995 ] final   12.12 input   59.86 | X-H torsion
[ 10167 10162 10161 10158 ] final  147.24 input  -65.29 | X-H torsion
[ 10718 10713 10712 10709 ] final   51.06 input   66.30 | X-H torsion
[ 10763 10752 10751 10750 ] final  160.16 input  -60.55 | X-H torsion
[ 11005 11000 10999 10996 ] final   76.30 input  -57.11 | X-H torsion

> <Gold.Protein.ActiveResidues>
 VAL166  LYS551  ARG553  GLY616  TRP617  ASP618  TYR619  PRO620  LYS621  CYS622 
 ASP623  PHE694  ASN695  SER759  ASP760  ASP761  ALA762  ILE779  LEU786  VAL792 
 PHE793  MET794  SER795  GLU796  ALA797  LYS798  CYS799  TRP800  GLU811  SER814 

> <Gold.Protein.RotatedAtoms>
  152.2768  134.7873  160.0403 H   0  0  0  0  0  0  0  0  0  0  0  0  # atno 6907 bound_to 6896
  151.8466  133.3427  159.3668 H   0  0  0  0  0  0  0  0  0  0  0  0  # atno 6908 bound_to 6896
  150.7173  134.5268  159.5725 H   0  0  0  0  0  0  0  0  0  0  0  0  # atno 6909 bound_to 6896
  144.8978  140.6730  143.5104 H   0  0  0  0  0  0  0  0  0  0  0  0  # atno 7974 bound_to 7965
  154.8162  140.2876  155.5818 H   0  0  0  0  0  0  0  0  0  0  0  0  # atno 8008 bound_to 7997
  156.2993  140.2559  156.2991 H   0  0  0  0  0  0  0  0  0  0  0  0  # atno 8009 bound_to 7997
  154.9390  140.0382  157.2076 H   0  0  0  0  0  0  0  0  0  0  0  0  # atno 8010 bound_to 7997
  139.4893  144.5770  151.6946 H   0  0  0  0  0  0  0  0  0  0  0  0  # atno 10167 bound_to 10162
  157.4945  130.8397  149.8242 H   0  0  0  0  0  0  0  0  0  0  0  0  # atno 10718 bound_to 10713
  154.2431  135.2774  155.2846 H   0  0  0  0  0  0  0  0  0  0  0  0  # atno 10763 bound_to 10752
  154.5528  135.5670  153.6941 H   0  0  0  0  0  0  0  0  0  0  0  0  # atno 10764 bound_to 10752
  152.9995  135.6278  154.2576 H   0  0  0  0  0  0  0  0  0  0  0  0  # atno 10765 bound_to 10752
  139.9304  134.7589  156.1378 H   0  0  0  0  0  0  0  0  0  0  0  0  # atno 11005 bound_to 11000
  145.3669  139.1668  143.4353 LP  0  0  0  0  0  0  0  0  0  0  0  0  # atno 17320 bound_to 7965
  146.3091  140.3737  142.8677 LP  0  0  0  0  0  0  0  0  0  0  0  0  # atno 17321 bound_to 7965
  140.5368  144.0643  150.6073 LP  0  0  0  0  0  0  0  0  0  0  0  0  # atno 17342 bound_to 10162
  140.3652  143.2885  152.0340 LP  0  0  0  0  0  0  0  0  0  0  0  0  # atno 17343 bound_to 10162
  156.0192  130.3802  150.2013 LP  0  0  0  0  0  0  0  0  0  0  0  0  # atno 17370 bound_to 10713
  157.0202  130.9977  151.3341 LP  0  0  0  0  0  0  0  0  0  0  0  0  # atno 17371 bound_to 10713
  141.0890  133.6722  156.2498 LP  0  0  0  0  0  0  0  0  0  0  0  0  # atno 17394 bound_to 11000
  140.6217  134.5355  157.5548 LP  0  0  0  0  0  0  0  0  0  0  0  0  # atno 17395 bound_to 11000

$$$$
