AV-unprocessed.smi:2810|AV-procd|sdf|10828|dock10
  -GOLD-   2272015273D 1   1.00000     0.00000
 Structure written by MMmdl.
 39 40  0  0  0  0  0  0  0  0  1 V2000
  151.0088  145.3140  159.4264 C   0  0  0  0  0  0  0  0  0  0  0  0
  151.5017  143.9032  159.1850 C   0  0  0  0  0  0  0  0  0  0  0  0
  150.9718  143.1039  158.1508 C   0  0  0  0  0  0  0  0  0  0  0  0
  151.5047  141.8019  158.0182 C   0  0  0  0  0  0  0  0  0  0  0  0
  151.0271  140.9445  157.0039 N   0  0  0  0  0  0  0  0  0  0  0  0
  150.4177  141.7237  155.9268 C   0  0  0  0  0  0  0  0  0  0  0  0
  149.7580  140.8065  154.8883 C   0  0  0  0  0  0  0  0  0  0  0  0
  150.7277  139.8934  154.3971 O   0  0  0  0  0  0  0  0  0  0  0  0
  151.2096  139.0434  155.4298 C   0  0  0  0  0  0  0  0  0  0  0  0
  151.9162  139.8630  156.5367 C   0  0  2  0  0  0  0  0  0  0  0  0
  152.4086  138.8664  157.6088 C   0  0  0  0  0  0  0  0  0  0  0  0
  151.5029  138.1364  158.2685 N   0  0  0  0  0  0  0  0  0  0  0  0
  153.6105  138.7673  157.8460 O   0  0  0  0  0  0  0  0  0  0  0  0
  152.4848  141.3697  158.8474 N   0  0  0  0  0  0  0  0  0  0  0  0
  152.9118  142.2070  159.7975 C   0  0  0  0  0  0  0  0  0  0  0  0
  153.9960  141.6890  160.7332 C   0  0  0  0  0  0  0  0  0  0  0  0
  154.3345  140.2153  160.4604 C   0  0  0  0  0  0  0  0  0  0  0  0
  153.6587  141.9651  162.2069 C   0  0  0  0  0  0  0  0  0  0  0  0
  152.4713  143.4510  160.0089 N   0  0  0  0  0  0  0  0  0  0  0  0
  150.1617  145.5509  158.7822 H   0  0  0  0  0  0  0  0  0  0  0  0
  151.8035  146.0321  159.2231 H   0  0  0  0  0  0  0  0  0  0  0  0
  150.6917  145.4347  160.4627 H   0  0  0  0  0  0  0  0  0  0  0  0
  150.1930  143.4677  157.4966 H   0  0  0  0  0  0  0  0  0  0  0  0
  149.6661  142.4100  156.3191 H   0  0  0  0  0  0  0  0  0  0  0  0
  151.1846  142.3335  155.4459 H   0  0  0  0  0  0  0  0  0  0  0  0
  148.9104  140.2696  155.3180 H   0  0  0  0  0  0  0  0  0  0  0  0
  149.3733  141.3966  154.0565 H   0  0  0  0  0  0  0  0  0  0  0  0
  150.3807  138.4609  155.8377 H   0  0  0  0  0  0  0  0  0  0  0  0
  151.9026  138.3296  154.9824 H   0  0  0  0  0  0  0  0  0  0  0  0
  152.7980  140.3257  156.0891 H   0  0  0  0  0  0  0  0  0  0  0  0
  151.8051  137.4768  158.9706 H   0  0  0  0  0  0  0  0  0  0  0  0
  150.5213  138.2455  158.0591 H   0  0  0  0  0  0  0  0  0  0  0  0
  154.9042  142.2547  160.5173 H   0  0  0  0  0  0  0  0  0  0  0  0
  154.6369  140.0693  159.4231 H   0  0  0  0  0  0  0  0  0  0  0  0
  153.4788  139.5672  160.6526 H   0  0  0  0  0  0  0  0  0  0  0  0
  155.1545  139.8773  161.0944 H   0  0  0  0  0  0  0  0  0  0  0  0
  153.4949  143.0294  162.3777 H   0  0  0  0  0  0  0  0  0  0  0  0
  154.4699  141.6461  162.8617 H   0  0  0  0  0  0  0  0  0  0  0  0
  152.7565  141.4357  162.5155 H   0  0  0  0  0  0  0  0  0  0  0  0
  1  2  1  0  0  0  0
  1 20  1  0  0  0  0
  1 21  1  0  0  0  0
  1 22  1  0  0  0  0
  2 19  1  0  0  0  0
  2  3  2  0  0  0  0
  3  4  1  0  0  0  0
  3 23  1  0  0  0  0
  4  5  1  0  0  0  0
  4 14  2  0  0  0  0
  5 10  1  0  0  0  0
  5  6  1  0  0  0  0
  6  7  1  0  0  0  0
  6 24  1  0  0  0  0
  6 25  1  0  0  0  0
  7  8  1  0  0  0  0
  7 26  1  0  0  0  0
  7 27  1  0  0  0  0
  8  9  1  0  0  0  0
  9 10  1  0  0  0  0
  9 28  1  0  0  0  0
  9 29  1  0  0  0  0
 10 11  1  0  0  0  0
 10 30  1  0  0  0  0
 11 12  1  0  0  0  0
 11 13  2  0  0  0  0
 12 31  1  0  0  0  0
 12 32  1  0  0  0  0
 14 15  1  0  0  0  0
 15 16  1  0  0  0  0
 15 19  2  0  0  0  0
 16 17  1  0  0  0  0
 16 18  1  0  0  0  0
 16 33  1  0  0  0  0
 17 34  1  0  0  0  0
 17 35  1  0  0  0  0
 17 36  1  0  0  0  0
 18 37  1  0  0  0  0
 18 38  1  0  0  0  0
 18 39  1  0  0  0  0
M  END
> <s_m_source_file>
AV-unprocessed.smi

> <i_m_source_file_index>
2810

> <i_lp_mmshare_version>
43012

> <i_f3d_flags>
0

> <s_epik_input>
W0NIM11bQ0hdKFtDSDNdKWMobjEpbmMoW2NIXWMxW0NIM10pTjJbQ0gyXVtDSDJdT1tDSDJdW0NASF0yQyg9TylbTkgyXQ==

> <s_epik_cmdline>
J2VwaWtfcHl0aG9uJywgJy1waCcsICc3LjAnLCAnLXRuJywgJzgnLCAnLW1hJywgJzIwMCcsICctbWV0YWxfYmluZGluZycsICctaW1hZScsICc8aW5maWxlLm1hZT4nLCAnLW9tYWUnLCAnPG91dGZpbGUubWFlPic=

> <r_lp_tautomer_probability>
1

> <r_epik_Ionization_Penalty>
0.00607782

> <r_epik_Ionization_Penalty_Charging>
0

> <r_epik_Ionization_Penalty_Neutral>
0.00607782

> <r_epik_State_Penalty>
0.00441345

> <r_epik_Charging_Adjusted_Penalty>
0.00441345

> <i_epik_Tot_Q>
0

> <i_epik_Tot_abs_Q>
0

> <r_epik_Metal_State_Penalty>
-0

> <b_epik_Metal_Only>
0

> <s_lp_Force_Field>
OPLS_2005

> <r_lp_Energy>
6.30102

> <b_lp_Chiralities_Consistent>
1

> <s_lp_Variant>
AV-unprocessed.smi:2810-2

> <Gold.Version>
5.8.1

> <Gold.Id.Protein>
6NUR|6NUR_protein|mol2

> <Gold.PLP.Fitness>
42.2672

> <Gold.PLP.PLP>
-40.3247

> <Gold.PLP.part.hbond>
-2.0000

> <Gold.PLP.part.metal>
0.0000

> <Gold.PLP.part.buried>
-6.0435

> <Gold.PLP.part.nonpolar>
-33.3170

> <Gold.PLP.part.repulsive>
0.2122

> <Gold.PLP.ligand.clash>
2.6730

> <Gold.PLP.ligand.torsion>
0.8225

> <Gold.PLP.Chemscore.Hbond>
2.0000

> <Gold.PLP.Chemscore.CHOScore>
0.0000

> <Gold.PLP.Chemscore.Metal>
0.0000

> <Gold.Chemscore.Hbonds>
donor molecule, donor type, donor heavy atom, donor atom, acceptor molecule, acceptor atom, score
      P1  H  7989  7998       L1     8  1.00
      P1  H  7997  8008       L1    13  1.00

> <Gold.PLP.Chemscore.Internal.Correction>
0.2604

> <Gold.Rescore>
     Score         DG    S(hbond)    S(metal)    S(lipo)     H(rot)  DE(clash)    DE(int)     intcor
     14.56     -16.76       1.71        0.00      85.05       1.71       0.00       2.20       ----

> <Gold.Chemscore.Fitness>
14.5611

> <Gold.Chemscore.DG>
-16.7577

> <Gold.Chemscore.ZeroCoef>
-5.4800

> <Gold.Chemscore.Hbond>
1.7093

> <Gold.Chemscore.Metal>
0.0000

> <Gold.Chemscore.Lipo>
85.0471

> <Gold.Chemscore.Internal_Hbond>
0.0000

> <Gold.Chemscore.DEClash>
0.0015

> <Gold.Chemscore.DEInternal>
2.1951

> <Gold.Chemscore.Rot>
1.7117

> <Gold.Chemscore.Internal.Correction>
   9.000000E+99

> <Gold.Chemscore.Hbonds>
donor molecule, donor type, donor heavy atom, donor atom, acceptor molecule, acceptor atom, score
      P1  H  7989  7998       L1     8  0.30
      P1  H  7997  8008       L1    13  0.69

> <Gold.Chemscore.Hbond.Weighted>
-5.7092

> <Gold.Chemscore.Metal.Weighted>
-0.0000

> <Gold.Chemscore.Lipo.Weighted>
-9.9505

> <Gold.Chemscore.Internal_Hbond.Weighted>
0.0000

> <Gold.Chemscore.DEClash.Weighted>
0.0015

> <Gold.Chemscore.DEInternal.Weighted>
2.1951

> <Gold.Chemscore.Rot.Weighted>
4.3820

> <Gold.Chemscore.Internal.Correction.Weighted>
   9.000000E+99

> <Gold.Protein.RotatedTorsions>
[ 6907 6896 6895 6894 ] final -140.11 input  -60.11 | X-H torsion
[ 7974 7965 7964 7962 ] final  154.98 input  175.53 | X-H torsion
[ 8008 7997 7996 7995 ] final  -75.37 input   59.86 | X-H torsion
[ 10167 10162 10161 10158 ] final  -61.59 input  -65.29 | X-H torsion
[ 10718 10713 10712 10709 ] final   16.17 input   66.30 | X-H torsion
[ 10763 10752 10751 10750 ] final  113.90 input  -60.55 | X-H torsion
[ 11005 11000 10999 10996 ] final   81.93 input  -57.11 | X-H torsion

> <Gold.Protein.ActiveResidues>
 VAL166  LYS551  ARG553  GLY616  TRP617  ASP618  TYR619  PRO620  LYS621  CYS622 
 ASP623  PHE694  ASN695  SER759  ASP760  ASP761  ALA762  ILE779  LEU786  VAL792 
 PHE793  MET794  SER795  GLU796  ALA797  LYS798  CYS799  TRP800  GLU811  SER814 

> <Gold.Protein.RotatedAtoms>
  151.0565  133.5580  159.2637 H   0  0  0  0  0  0  0  0  0  0  0  0  # atno 6907 bound_to 6896
  151.2571  135.0641  159.9094 H   0  0  0  0  0  0  0  0  0  0  0  0  # atno 6908 bound_to 6896
  152.5390  134.0316  159.8081 H   0  0  0  0  0  0  0  0  0  0  0  0  # atno 6909 bound_to 6896
  144.8054  139.7006  143.6164 H   0  0  0  0  0  0  0  0  0  0  0  0  # atno 7974 bound_to 7965
  154.5411  140.0745  156.8511 H   0  0  0  0  0  0  0  0  0  0  0  0  # atno 8008 bound_to 7997
  155.3179  140.3394  155.4224 H   0  0  0  0  0  0  0  0  0  0  0  0  # atno 8009 bound_to 7997
  156.1875  140.1674  156.8143 H   0  0  0  0  0  0  0  0  0  0  0  0  # atno 8010 bound_to 7997
  140.5996  143.2358  151.5959 H   0  0  0  0  0  0  0  0  0  0  0  0  # atno 10167 bound_to 10162
  157.0640  130.6320  149.5792 H   0  0  0  0  0  0  0  0  0  0  0  0  # atno 10718 bound_to 10713
  153.4993  135.3641  155.2532 H   0  0  0  0  0  0  0  0  0  0  0  0  # atno 10763 bound_to 10752
  154.8748  135.3996  154.3497 H   0  0  0  0  0  0  0  0  0  0  0  0  # atno 10764 bound_to 10752
  153.4130  135.7078  153.6412 H   0  0  0  0  0  0  0  0  0  0  0  0  # atno 10765 bound_to 10752
  139.9081  134.8034  156.2107 H   0  0  0  0  0  0  0  0  0  0  0  0  # atno 11005 bound_to 11000
  146.2344  139.5876  142.9533 LP  0  0  0  0  0  0  0  0  0  0  0  0  # atno 17320 bound_to 7965
  145.5451  141.0418  143.2309 LP  0  0  0  0  0  0  0  0  0  0  0  0  # atno 17321 bound_to 7965
  139.5281  144.2997  152.1084 LP  0  0  0  0  0  0  0  0  0  0  0  0  # atno 17342 bound_to 10162
  140.2175  144.4500  150.6357 LP  0  0  0  0  0  0  0  0  0  0  0  0  # atno 17343 bound_to 10162
  155.9970  130.5040  150.7517 LP  0  0  0  0  0  0  0  0  0  0  0  0  # atno 17370 bound_to 10713
  157.4932  131.0912  151.0403 LP  0  0  0  0  0  0  0  0  0  0  0  0  # atno 17371 bound_to 10713
  141.0467  133.6909  156.1696 LP  0  0  0  0  0  0  0  0  0  0  0  0  # atno 17394 bound_to 11000
  140.6873  134.4703  157.5589 LP  0  0  0  0  0  0  0  0  0  0  0  0  # atno 17395 bound_to 11000

$$$$
