AV-unprocessed.smi:1196|AV-procd|sdf|5001|dock10
  -GOLD-   22720 4 13D 1   1.00000     0.00000
 Structure written by MMmdl.
 36 37  0  0  0  0  0  0  0  0  2 V2000
  150.1078  140.7241  155.5321 C   0  0  0  0  0  0  0  0  0  0  0  0
  150.7993  140.8626  156.8975 C   0  0  1  0  0  0  0  0  0  0  0  0
  150.1709  141.9945  157.7330 C   0  0  0  0  0  0  0  0  0  0  0  0
  151.1716  142.8396  158.3605 N   0  0  0  0  0  0  0  0  0  0  0  0
  151.3247  144.2058  158.2547 C   0  0  0  0  0  0  0  0  0  0  0  0
  152.4039  144.5540  159.0154 C   0  0  0  0  0  0  0  0  0  0  0  0
  152.8516  143.3149  159.5533 C   0  0  0  0  0  0  0  0  0  0  0  0
  152.1111  142.2908  159.1611 N   0  0  0  0  0  0  0  0  0  0  0  0
  150.7217  139.5975  157.6253 N   0  0  0  0  0  0  0  0  0  0  0  0
  151.7690  138.8919  158.0781 C   0  0  0  0  0  0  0  0  0  0  0  0
  152.9389  139.2424  157.9192 O   0  0  0  0  0  0  0  0  0  0  0  0
  151.4367  137.5969  158.8240 C   0  0  0  0  0  0  0  0  0  0  0  0
  149.9294  137.4324  159.0986 C   0  0  0  0  0  0  0  0  0  0  0  0
  149.5931  136.1273  159.8505 C   0  0  2  0  0  0  0  0  0  0  0  0
  149.6017  134.9795  158.9601 N   0  5  0  0  0  0  0  0  0  0  0  0
  148.3806  134.3962  158.9997 C   0  0  0  0  0  0  0  0  0  0  0  0
  148.0050  133.3962  158.3921 O   0  0  0  0  0  0  0  0  0  0  0  0
  147.5640  135.0636  159.8212 N   0  0  0  0  0  0  0  0  0  0  0  0
  148.1680  136.1133  160.3685 C   0  0  0  0  0  0  0  0  0  0  0  0
  147.6846  136.9307  161.1505 O   0  0  0  0  0  0  0  0  0  0  0  0
  150.1682  141.6542  154.9666 H   0  0  0  0  0  0  0  0  0  0  0  0
  149.0531  140.4712  155.6453 H   0  0  0  0  0  0  0  0  0  0  0  0
  150.5745  139.9446  154.9291 H   0  0  0  0  0  0  0  0  0  0  0  0
  151.8474  141.1136  156.7233 H   0  0  0  0  0  0  0  0  0  0  0  0
  149.5530  142.6292  157.0967 H   0  0  0  0  0  0  0  0  0  0  0  0
  149.5099  141.5884  158.5007 H   0  0  0  0  0  0  0  0  0  0  0  0
  150.6614  144.8088  157.6521 H   0  0  0  0  0  0  0  0  0  0  0  0
  152.8122  145.5426  159.1638 H   0  0  0  0  0  0  0  0  0  0  0  0
  153.6865  143.1308  160.2133 H   0  0  0  0  0  0  0  0  0  0  0  0
  149.7969  139.2375  157.8126 H   0  0  0  0  0  0  0  0  0  0  0  0
  151.8051  136.7568  158.2345 H   0  0  0  0  0  0  0  0  0  0  0  0
  151.9816  137.5779  159.7691 H   0  0  0  0  0  0  0  0  0  0  0  0
  149.5875  138.2821  159.6925 H   0  0  0  0  0  0  0  0  0  0  0  0
  149.3724  137.4773  158.1606 H   0  0  0  0  0  0  0  0  0  0  0  0
  150.2662  136.0009  160.6996 H   0  0  0  0  0  0  0  0  0  0  0  0
  146.6037  134.8070  159.9950 H   0  0  0  0  0  0  0  0  0  0  0  0
  1  2  1  0  0  0  0
  1 21  1  0  0  0  0
  1 22  1  0  0  0  0
  1 23  1  0  0  0  0
  2  3  1  0  0  0  0
  2  9  1  0  0  0  0
  2 24  1  0  0  0  0
  3  4  1  0  0  0  0
  3 25  1  0  0  0  0
  3 26  1  0  0  0  0
  4  8  1  0  0  0  0
  4  5  1  0  0  0  0
  5  6  2  0  0  0  0
  5 27  1  0  0  0  0
  6  7  1  0  0  0  0
  6 28  1  0  0  0  0
  7  8  2  0  0  0  0
  7 29  1  0  0  0  0
  9 10  1  0  0  0  0
  9 30  1  0  0  0  0
 10 11  2  0  0  0  0
 10 12  1  0  0  0  0
 12 13  1  0  0  0  0
 12 31  1  0  0  0  0
 12 32  1  0  0  0  0
 13 14  1  0  0  0  0
 13 33  1  0  0  0  0
 13 34  1  0  0  0  0
 14 19  1  0  0  0  0
 14 15  1  0  0  0  0
 14 35  1  0  0  0  0
 15 16  1  0  0  0  0
 16 17  2  0  0  0  0
 16 18  1  0  0  0  0
 18 19  1  0  0  0  0
 18 36  1  0  0  0  0
 19 20  2  0  0  0  0
M  CHG  1  15  -1
M  END
> <s_m_source_file>
AV-unprocessed.smi

> <i_m_source_file_index>
1196

> <i_lp_mmshare_version>
43012

> <i_f3d_flags>
0

> <s_epik_input>
bjFbY0hdW2NIXVtjSF1uMVtDSDJdW0NAQEhdKFtDSDNdKVtOSF1DKD1PKVtDSDJdW0NIMl1bQ0BASF0yW05IXUMoPU8pW05IXUMyPU8=

> <s_epik_cmdline>
J2VwaWtfcHl0aG9uJywgJy1waCcsICc3LjAnLCAnLXRuJywgJzgnLCAnLW1hJywgJzIwMCcsICctbWV0YWxfYmluZGluZycsICctaW1hZScsICc8aW5maWxlLm1hZT4nLCAnLW9tYWUnLCAnPG91dGZpbGUubWFlPic=

> <r_lp_tautomer_probability>
1

> <r_epik_Ionization_Penalty>
5.79547

> <r_epik_Ionization_Penalty_Charging>
5.79516

> <r_epik_Ionization_Penalty_Neutral>
0.000313087

> <r_epik_State_Penalty>
5.80096

> <r_epik_Charging_Adjusted_Penalty>
11.5961

> <i_epik_Tot_Q>
-1

> <i_epik_Tot_abs_Q>
1

> <r_epik_Metal_State_Penalty>
2.14443

> <b_epik_Metal_Only>
1

> <s_lp_Force_Field>
OPLS_2005

> <r_lp_Energy>
12.2353

> <b_lp_Chiralities_Consistent>
1

> <s_lp_Variant>
AV-unprocessed.smi:1196-6

> <Gold.Version>
5.8.1

> <Gold.Id.Protein>
6NUR|6NUR_protein|mol2

> <Gold.PLP.Fitness>
49.6120

> <Gold.PLP.PLP>
-34.4683

> <Gold.PLP.part.hbond>
-4.0000

> <Gold.PLP.part.metal>
0.0000

> <Gold.PLP.part.buried>
-1.9381

> <Gold.PLP.part.nonpolar>
-28.5293

> <Gold.PLP.part.repulsive>
0.0686

> <Gold.PLP.ligand.clash>
0.5050

> <Gold.PLP.ligand.torsion>
0.8393

> <Gold.PLP.Chemscore.Hbond>
4.7600

> <Gold.PLP.Chemscore.CHOScore>
1.0000

> <Gold.PLP.Chemscore.Metal>
0.0000

> <Gold.Chemscore.Hbonds>
donor molecule, donor type, donor heavy atom, donor atom, acceptor molecule, acceptor atom, score
      P1  H  6896  6907       L1    15  1.01
      P1  H  6931  6943       L1    20  0.99
      P1  H  6934  6947       L1    20  0.62
      P1  H  7997  8009       L1    11  0.81
      L1  C     5    27       P1  8028  0.76

> <Gold.PLP.Chemscore.Internal.Correction>
0.0474

> <Gold.Rescore>
     Score         DG    S(hbond)    S(metal)    S(lipo)     H(rot)  DE(clash)    DE(int)     intcor
     14.47     -15.62       2.88        0.00      67.84       2.89       0.05       1.10       ----

> <Gold.Chemscore.Fitness>
14.4708

> <Gold.Chemscore.DG>
-15.6177

> <Gold.Chemscore.ZeroCoef>
-5.4800

> <Gold.Chemscore.Hbond>
2.8776

> <Gold.Chemscore.Metal>
0.0000

> <Gold.Chemscore.Lipo>
67.8354

> <Gold.Chemscore.Internal_Hbond>
0.0000

> <Gold.Chemscore.DEClash>
0.0456

> <Gold.Chemscore.DEInternal>
1.1013

> <Gold.Chemscore.Rot>
2.8946

> <Gold.Chemscore.Internal.Correction>
   9.000000E+99

> <Gold.Chemscore.Hbonds>
donor molecule, donor type, donor heavy atom, donor atom, acceptor molecule, acceptor atom, score
      P1  H  6896  6907       L1    15  0.16
      P1  H  6931  6943       L1    20  0.79
      P1  H  6934  6947       L1    20  0.59
      P1  H  7997  8009       L1    11  0.77

> <Gold.Chemscore.Hbond.Weighted>
-9.6111

> <Gold.Chemscore.Metal.Weighted>
-0.0000

> <Gold.Chemscore.Lipo.Weighted>
-7.9367

> <Gold.Chemscore.Internal_Hbond.Weighted>
0.0000

> <Gold.Chemscore.DEClash.Weighted>
0.0456

> <Gold.Chemscore.DEInternal.Weighted>
1.1013

> <Gold.Chemscore.Rot.Weighted>
7.4101

> <Gold.Chemscore.Internal.Correction.Weighted>
   9.000000E+99

> <Gold.Protein.RotatedTorsions>
[ 6907 6896 6895 6894 ] final  -90.56 input  -60.11 | X-H torsion
[ 7974 7965 7964 7962 ] final  169.89 input  175.53 | X-H torsion
[ 8008 7997 7996 7995 ] final -177.84 input   59.86 | X-H torsion
[ 10167 10162 10161 10158 ] final   34.97 input  -65.29 | X-H torsion
[ 10718 10713 10712 10709 ] final   32.78 input   66.30 | X-H torsion
[ 10763 10752 10751 10750 ] final -151.14 input  -60.55 | X-H torsion
[ 11005 11000 10999 10996 ] final   21.01 input  -57.11 | X-H torsion

> <Gold.Protein.ActiveResidues>
 VAL166  LYS551  ARG553  GLY616  TRP617  ASP618  TYR619  PRO620  LYS621  CYS622 
 ASP623  PHE694  ASN695  SER759  ASP760  ASP761  ALA762  ILE779  LEU786  VAL792 
 PHE793  MET794  SER795  GLU796  ALA797  LYS798  CYS799  TRP800  GLU811  SER814 

> <Gold.Protein.RotatedAtoms>
  150.6883  134.2413  159.4473 H   0  0  0  0  0  0  0  0  0  0  0  0  # atno 6907 bound_to 6896
  152.0357  134.9739  160.0582 H   0  0  0  0  0  0  0  0  0  0  0  0  # atno 6908 bound_to 6896
  152.1260  133.4346  159.4735 H   0  0  0  0  0  0  0  0  0  0  0  0  # atno 6909 bound_to 6896
  144.7340  139.9122  143.6415 H   0  0  0  0  0  0  0  0  0  0  0  0  # atno 7974 bound_to 7965
  156.0117  140.1242  157.0447 H   0  0  0  0  0  0  0  0  0  0  0  0  # atno 8008 bound_to 7997
  154.4278  140.1086  156.5908 H   0  0  0  0  0  0  0  0  0  0  0  0  # atno 8009 bound_to 7997
  155.6070  140.3471  155.4613 H   0  0  0  0  0  0  0  0  0  0  0  0  # atno 8010 bound_to 7997
  140.4265  144.1385  150.6154 H   0  0  0  0  0  0  0  0  0  0  0  0  # atno 10167 bound_to 10162
  157.2896  130.7296  149.6603 H   0  0  0  0  0  0  0  0  0  0  0  0  # atno 10718 bound_to 10713
  154.8076  135.3267  154.7390 H   0  0  0  0  0  0  0  0  0  0  0  0  # atno 10763 bound_to 10752
  153.8045  135.6901  153.4855 H   0  0  0  0  0  0  0  0  0  0  0  0  # atno 10764 bound_to 10752
  153.1832  135.4578  155.0000 H   0  0  0  0  0  0  0  0  0  0  0  0  # atno 10765 bound_to 10752
  140.3963  134.1765  155.7663 H   0  0  0  0  0  0  0  0  0  0  0  0  # atno 11005 bound_to 11000
  146.0993  139.3987  143.0357 LP  0  0  0  0  0  0  0  0  0  0  0  0  # atno 17320 bound_to 7965
  145.7602  140.9938  143.1204 LP  0  0  0  0  0  0  0  0  0  0  0  0  # atno 17321 bound_to 7965
  140.4475  143.2500  151.9392 LP  0  0  0  0  0  0  0  0  0  0  0  0  # atno 17342 bound_to 10162
  139.4783  144.5594  151.8262 LP  0  0  0  0  0  0  0  0  0  0  0  0  # atno 17343 bound_to 10162
  155.9666  130.4313  150.4914 LP  0  0  0  0  0  0  0  0  0  0  0  0  # atno 17370 bound_to 10713
  157.2874  131.0619  151.2157 LP  0  0  0  0  0  0  0  0  0  0  0  0  # atno 17371 bound_to 10713
  141.1873  133.8284  157.1038 LP  0  0  0  0  0  0  0  0  0  0  0  0  # atno 17394 bound_to 11000
  140.0369  134.9874  157.0888 LP  0  0  0  0  0  0  0  0  0  0  0  0  # atno 17395 bound_to 11000

$$$$
