AV-unprocessed.smi:1704|AV-procd|sdf|6881|dock6
  -GOLD-   22720 8 83D 1   1.00000     0.00000
 Structure written by MMmdl.
 41 43  0  0  0  0  0  0  0  0  1 V2000
  153.5657  137.9791  158.5700 C   0  0  0  0  0  0  0  0  0  0  0  0
  152.7754  138.6540  157.5232 N   0  0  0  0  0  0  0  0  0  0  0  0
  151.9294  139.6641  157.9002 C   0  0  0  0  0  0  0  0  0  0  0  0
  151.7576  140.0404  159.0600 O   0  0  0  0  0  0  0  0  0  0  0  0
  151.2140  140.2880  156.7816 C   0  0  0  0  0  0  0  0  0  0  0  0
  151.3488  139.8715  155.4991 C   0  0  0  0  0  0  0  0  0  0  0  0
  150.5523  140.6154  154.6367 N   0  0  0  0  0  0  0  0  0  0  0  0
  149.9644  141.4711  155.4731 C   0  0  0  0  0  0  0  0  0  0  0  0
  150.3133  141.3536  156.7713 N   0  0  0  0  0  0  0  0  0  0  0  0
  149.8176  142.1721  157.8721 C   0  0  0  0  0  0  0  0  0  0  0  0
  150.6872  143.4172  158.1903 C   0  0  0  0  0  0  0  0  0  0  0  0
  150.9101  144.1186  156.9805 O   0  0  0  0  0  0  0  0  0  0  0  0
  149.9931  144.3856  159.1815 C   0  0  0  0  0  0  0  0  0  0  0  0
  150.9005  145.5463  159.6285 C   0  0  0  0  0  0  0  0  0  0  0  0
  152.2293  145.0345  160.2007 C   0  0  0  0  0  0  0  0  0  0  0  0
  152.9516  144.1364  159.1877 C   0  0  0  0  0  0  0  0  0  0  0  0
  152.0591  142.9639  158.7433 C   0  0  0  0  0  0  0  0  0  0  0  0
  152.2296  138.7970  155.2207 N   0  0  0  0  0  0  0  0  0  0  0  0
  152.3410  138.3680  153.8233 C   0  0  0  0  0  0  0  0  0  0  0  0
  152.9549  138.2041  156.2258 C   0  0  0  0  0  0  0  0  0  0  0  0
  153.7464  137.2908  155.9762 O   0  0  0  0  0  0  0  0  0  0  0  0
  153.3964  138.3457  159.5831 H   0  0  0  0  0  0  0  0  0  0  0  0
  154.6327  138.0959  158.3739 H   0  0  0  0  0  0  0  0  0  0  0  0
  153.3427  136.9110  158.5873 H   0  0  0  0  0  0  0  0  0  0  0  0
  149.2617  142.2160  155.1295 H   0  0  0  0  0  0  0  0  0  0  0  0
  148.8077  142.4937  157.6140 H   0  0  0  0  0  0  0  0  0  0  0  0
  149.7023  141.5451  158.7556 H   0  0  0  0  0  0  0  0  0  0  0  0
  150.1063  144.5485  156.7315 H   0  0  0  0  0  0  0  0  0  0  0  0
  149.0836  144.7981  158.7436 H   0  0  0  0  0  0  0  0  0  0  0  0
  149.6787  143.8281  160.0647 H   0  0  0  0  0  0  0  0  0  0  0  0
  151.0970  146.2082  158.7843 H   0  0  0  0  0  0  0  0  0  0  0  0
  150.3850  146.1505  160.3755 H   0  0  0  0  0  0  0  0  0  0  0  0
  152.8666  145.8767  160.4722 H   0  0  0  0  0  0  0  0  0  0  0  0
  152.0434  144.4774  161.1197 H   0  0  0  0  0  0  0  0  0  0  0  0
  153.2486  144.7267  158.3202 H   0  0  0  0  0  0  0  0  0  0  0  0
  153.8732  143.7524  159.6259 H   0  0  0  0  0  0  0  0  0  0  0  0
  151.9012  142.3067  159.5998 H   0  0  0  0  0  0  0  0  0  0  0  0
  152.5856  142.3653  157.9988 H   0  0  0  0  0  0  0  0  0  0  0  0
  152.9792  137.4975  153.6686 H   0  0  0  0  0  0  0  0  0  0  0  0
  152.7424  139.1804  153.2165 H   0  0  0  0  0  0  0  0  0  0  0  0
  151.3549  138.1151  153.4322 H   0  0  0  0  0  0  0  0  0  0  0  0
  1  2  1  0  0  0  0
  1 22  1  0  0  0  0
  1 23  1  0  0  0  0
  1 24  1  0  0  0  0
  2 20  1  0  0  0  0
  2  3  1  0  0  0  0
  3  4  2  0  0  0  0
  3  5  1  0  0  0  0
  5  9  1  0  0  0  0
  5  6  2  0  0  0  0
  6  7  1  0  0  0  0
  6 18  1  0  0  0  0
  7  8  2  0  0  0  0
  8  9  1  0  0  0  0
  8 25  1  0  0  0  0
  9 10  1  0  0  0  0
 10 11  1  0  0  0  0
 10 26  1  0  0  0  0
 10 27  1  0  0  0  0
 11 17  1  0  0  0  0
 11 12  1  0  0  0  0
 11 13  1  0  0  0  0
 12 28  1  0  0  0  0
 13 14  1  0  0  0  0
 13 29  1  0  0  0  0
 13 30  1  0  0  0  0
 14 15  1  0  0  0  0
 14 31  1  0  0  0  0
 14 32  1  0  0  0  0
 15 16  1  0  0  0  0
 15 33  1  0  0  0  0
 15 34  1  0  0  0  0
 16 17  1  0  0  0  0
 16 35  1  0  0  0  0
 16 36  1  0  0  0  0
 17 37  1  0  0  0  0
 17 38  1  0  0  0  0
 18 19  1  0  0  0  0
 18 20  1  0  0  0  0
 19 39  1  0  0  0  0
 19 40  1  0  0  0  0
 19 41  1  0  0  0  0
 20 21  2  0  0  0  0
M  END
> <s_m_source_file>
AV-unprocessed.smi

> <i_m_source_file_index>
1704

> <i_lp_mmshare_version>
43012

> <i_f3d_flags>
0

> <s_epik_input>
Tz1jMW4oW0NIM10pYyg9TyluKFtDSDNdKWMoYzEyKW5bY0hdbjJbQ0gyXUMzKFtPSF0pW0NIMl1bQ0gyXVtDSDJdW0NIMl1bQ0gyXTM=

> <s_epik_cmdline>
J2VwaWtfcHl0aG9uJywgJy1waCcsICc3LjAnLCAnLXRuJywgJzgnLCAnLW1hJywgJzIwMCcsICctbWV0YWxfYmluZGluZycsICctaW1hZScsICc8aW5maWxlLm1hZT4nLCAnLW9tYWUnLCAnPG91dGZpbGUubWFlPic=

> <r_lp_tautomer_probability>
1

> <r_epik_Ionization_Penalty>
6.70257e-06

> <r_epik_Ionization_Penalty_Charging>
6.65152e-09

> <r_epik_Ionization_Penalty_Neutral>
6.69592e-06

> <r_epik_State_Penalty>
-0

> <r_epik_Charging_Adjusted_Penalty>
6.65152e-09

> <i_epik_Tot_Q>
0

> <i_epik_Tot_abs_Q>
0

> <r_epik_Metal_State_Penalty>
-0

> <b_epik_Metal_Only>
0

> <s_lp_Force_Field>
OPLS_2005

> <r_lp_Energy>
39.0788

> <b_lp_Chiralities_Consistent>
1

> <s_lp_Variant>
AV-unprocessed.smi:1704-1

> <Gold.Version>
5.8.1

> <Gold.Id.Protein>
6NUR|6NUR_protein|mol2

> <Gold.PLP.Fitness>
50.3893

> <Gold.PLP.PLP>
-39.8044

> <Gold.PLP.part.hbond>
-3.1929

> <Gold.PLP.part.metal>
0.0000

> <Gold.PLP.part.buried>
-6.3003

> <Gold.PLP.part.nonpolar>
-30.4878

> <Gold.PLP.part.repulsive>
0.0994

> <Gold.PLP.ligand.clash>
0.0000

> <Gold.PLP.ligand.torsion>
0.4336

> <Gold.PLP.Chemscore.Hbond>
2.8160

> <Gold.PLP.Chemscore.CHOScore>
1.0000

> <Gold.PLP.Chemscore.Metal>
0.0000

> <Gold.Chemscore.Hbonds>
donor molecule, donor type, donor heavy atom, donor atom, acceptor molecule, acceptor atom, score
      L1  H    12    28       P1  8028  1.00
      P1  H  7989  7998       L1     7  0.90
      P1  H 10752 10765       L1    21  0.28
      L1  C     8    25       P1  8028  0.88

> <Gold.PLP.Chemscore.Internal.Correction>
0.0041

> <Gold.Rescore>
     Score         DG    S(hbond)    S(metal)    S(lipo)     H(rot)  DE(clash)    DE(int)     intcor
     19.81     -20.20       2.85        0.00      84.72       1.84       0.04       0.36       ----

> <Gold.Chemscore.Fitness>
19.8060

> <Gold.Chemscore.DG>
-20.2005

> <Gold.Chemscore.ZeroCoef>
-5.4800

> <Gold.Chemscore.Hbond>
2.8489

> <Gold.Chemscore.Metal>
0.0000

> <Gold.Chemscore.Lipo>
84.7236

> <Gold.Chemscore.Internal_Hbond>
0.0000

> <Gold.Chemscore.DEClash>
0.0386

> <Gold.Chemscore.DEInternal>
0.3559

> <Gold.Chemscore.Rot>
1.8389

> <Gold.Chemscore.Internal.Correction>
   9.000000E+99

> <Gold.Chemscore.Hbonds>
donor molecule, donor type, donor heavy atom, donor atom, acceptor molecule, acceptor atom, score
      L1  H    12    28       P1  8028  0.76
      P1  H  7989  7998       L1     7  0.19
      P1  H 10752 10765       L1    21  0.26

> <Gold.Chemscore.Hbond.Weighted>
-9.5154

> <Gold.Chemscore.Metal.Weighted>
-0.0000

> <Gold.Chemscore.Lipo.Weighted>
-9.9127

> <Gold.Chemscore.Internal_Hbond.Weighted>
0.0000

> <Gold.Chemscore.DEClash.Weighted>
0.0386

> <Gold.Chemscore.DEInternal.Weighted>
0.3559

> <Gold.Chemscore.Rot.Weighted>
4.7076

> <Gold.Chemscore.Internal.Correction.Weighted>
   9.000000E+99

> <Gold.Protein.RotatedTorsions>
[ 6907 6896 6895 6894 ] final  -41.12 input  -60.11 | X-H torsion
[ 7974 7965 7964 7962 ] final  163.74 input  175.53 | X-H torsion
[ 8008 7997 7996 7995 ] final  156.00 input   59.86 | X-H torsion
[ 10167 10162 10161 10158 ] final -112.53 input  -65.29 | X-H torsion
[ 10718 10713 10712 10709 ] final  -62.01 input   66.30 | X-H torsion
[ 10763 10752 10751 10750 ] final -141.86 input  -60.55 | X-H torsion
[ 11005 11000 10999 10996 ] final   14.05 input  -57.11 | X-H torsion

> <Gold.Protein.ActiveResidues>
 VAL166  LYS551  ARG553  GLY616  TRP617  ASP618  TYR619  PRO620  LYS621  CYS622 
 ASP623  PHE694  ASN695  SER759  ASP760  ASP761  ALA762  ILE779  LEU786  VAL792 
 PHE793  MET794  SER795  GLU796  ALA797  LYS798  CYS799  TRP800  GLU811  SER814 

> <Gold.Protein.RotatedAtoms>
  150.9704  134.9078  159.7784 H   0  0  0  0  0  0  0  0  0  0  0  0  # atno 6907 bound_to 6896
  152.5188  134.3548  159.9274 H   0  0  0  0  0  0  0  0  0  0  0  0  # atno 6908 bound_to 6896
  151.3557  133.3867  159.2719 H   0  0  0  0  0  0  0  0  0  0  0  0  # atno 6909 bound_to 6896
  144.7576  139.8226  143.6344 H   0  0  0  0  0  0  0  0  0  0  0  0  # atno 7974 bound_to 7965
  156.2447  140.1924  156.6889 H   0  0  0  0  0  0  0  0  0  0  0  0  # atno 8008 bound_to 7997
  154.6267  140.0601  156.9708 H   0  0  0  0  0  0  0  0  0  0  0  0  # atno 8009 bound_to 7997
  155.1776  140.3273  155.4383 H   0  0  0  0  0  0  0  0  0  0  0  0  # atno 8010 bound_to 7997
  140.1217  143.4437  152.1686 H   0  0  0  0  0  0  0  0  0  0  0  0  # atno 10167 bound_to 10162
  156.0884  130.4204  150.1074 H   0  0  0  0  0  0  0  0  0  0  0  0  # atno 10718 bound_to 10713
  154.8530  135.3512  154.5936 H   0  0  0  0  0  0  0  0  0  0  0  0  # atno 10763 bound_to 10752
  153.6545  135.6992  153.5202 H   0  0  0  0  0  0  0  0  0  0  0  0  # atno 10764 bound_to 10752
  153.2867  135.4247  155.1087 H   0  0  0  0  0  0  0  0  0  0  0  0  # atno 10765 bound_to 10752
  140.4738  134.1004  155.7737 H   0  0  0  0  0  0  0  0  0  0  0  0  # atno 11005 bound_to 11000
  146.1604  139.4716  142.9992 LP  0  0  0  0  0  0  0  0  0  0  0  0  # atno 17320 bound_to 7965
  145.6727  141.0212  143.1649 LP  0  0  0  0  0  0  0  0  0  0  0  0  # atno 17321 bound_to 7965
  139.5565  144.7376  151.4279 LP  0  0  0  0  0  0  0  0  0  0  0  0  # atno 17342 bound_to 10162
  140.6868  143.7955  150.7197 LP  0  0  0  0  0  0  0  0  0  0  0  0  # atno 17343 bound_to 10162
  156.9090  130.9645  151.3566 LP  0  0  0  0  0  0  0  0  0  0  0  0  # atno 17370 bound_to 10713
  157.6025  130.8523  149.8824 LP  0  0  0  0  0  0  0  0  0  0  0  0  # atno 17371 bound_to 10713
  141.1564  133.8875  157.1966 LP  0  0  0  0  0  0  0  0  0  0  0  0  # atno 17394 bound_to 11000
  139.9868  135.0079  156.9882 LP  0  0  0  0  0  0  0  0  0  0  0  0  # atno 17395 bound_to 11000

$$$$
