AV-unprocessed.smi:2978|AV-procd|sdf|11369|dock5
  -GOLD-   2272016283D 1   1.00000     0.00000
 Structure written by MMmdl.
 32 33  0  0  0  0  0  0  0  0  1 V2000
  149.4915  142.1033  158.4447 O   0  0  0  0  0  0  0  0  0  0  0  0
  150.3681  142.5554  157.7066 C   0  0  0  0  0  0  0  0  0  0  0  0
  151.3011  143.6758  158.1892 C   0  0  0  0  0  0  0  0  0  0  0  0
  152.0628  143.3187  159.3951 N   0  0  0  0  0  0  0  0  0  0  0  0
  151.9859  144.2567  160.4099 N   0  0  0  0  0  0  0  0  0  0  0  0
  152.6016  144.0410  161.5208 C   0  0  0  0  0  0  0  0  0  0  0  0
  153.3821  142.8453  161.7498 C   0  0  0  0  0  0  0  0  0  0  0  0
  154.1862  142.6108  163.2618 Cl  0  0  0  0  0  0  0  0  0  0  0  0
  153.4565  141.9351  160.7464 C   0  0  0  0  0  0  0  0  0  0  0  0
  154.3730  140.4808  160.9449 Cl  0  0  0  0  0  0  0  0  0  0  0  0
  152.7681  142.1475  159.4655 C   0  0  0  0  0  0  0  0  0  0  0  0
  152.8131  141.3475  158.5301 O   0  0  0  0  0  0  0  0  0  0  0  0
  150.5632  142.1266  156.4508 N   0  0  0  0  0  0  0  0  0  0  0  0
  149.8107  141.0584  155.8039 C   0  0  0  0  0  0  0  0  0  0  0  0
  150.6142  139.7478  155.7691 C   0  0  1  0  0  0  0  0  0  0  0  0
  149.9774  138.6548  154.9181 C   0  0  0  0  0  0  0  0  0  0  0  0
  151.1546  137.7386  154.6508 C   0  0  0  0  0  0  0  0  0  0  0  0
  152.3568  138.6878  154.6677 C   0  0  0  0  0  0  0  0  0  0  0  0
  151.8690  139.9431  155.1329 O   0  0  0  0  0  0  0  0  0  0  0  0
  151.9881  143.9527  157.3869 H   0  0  0  0  0  0  0  0  0  0  0  0
  150.6937  144.5637  158.3734 H   0  0  0  0  0  0  0  0  0  0  0  0
  152.5672  144.7495  162.3486 H   0  0  0  0  0  0  0  0  0  0  0  0
  151.3040  142.5519  155.9124 H   0  0  0  0  0  0  0  0  0  0  0  0
  148.8621  140.9072  156.3216 H   0  0  0  0  0  0  0  0  0  0  0  0
  149.5634  141.3747  154.7903 H   0  0  0  0  0  0  0  0  0  0  0  0
  150.7843  139.3687  156.7788 H   0  0  0  0  0  0  0  0  0  0  0  0
  149.1506  138.1514  155.4201 H   0  0  0  0  0  0  0  0  0  0  0  0
  149.6072  139.0694  153.9790 H   0  0  0  0  0  0  0  0  0  0  0  0
  151.2478  137.0073  155.4546 H   0  0  0  0  0  0  0  0  0  0  0  0
  151.0571  137.1958  153.7101 H   0  0  0  0  0  0  0  0  0  0  0  0
  153.1384  138.3176  155.3321 H   0  0  0  0  0  0  0  0  0  0  0  0
  152.7879  138.8123  153.6741 H   0  0  0  0  0  0  0  0  0  0  0  0
  1  2  2  0  0  0  0
  2  3  1  0  0  0  0
  2 13  1  0  0  0  0
  3  4  1  0  0  0  0
  3 20  1  0  0  0  0
  3 21  1  0  0  0  0
  4 11  1  0  0  0  0
  4  5  1  0  0  0  0
  5  6  2  0  0  0  0
  6  7  1  0  0  0  0
  6 22  1  0  0  0  0
  7  8  1  0  0  0  0
  7  9  2  0  0  0  0
  9 10  1  0  0  0  0
  9 11  1  0  0  0  0
 11 12  2  0  0  0  0
 13 14  1  0  0  0  0
 13 23  1  0  0  0  0
 14 15  1  0  0  0  0
 14 24  1  0  0  0  0
 14 25  1  0  0  0  0
 15 19  1  0  0  0  0
 15 16  1  0  0  0  0
 15 26  1  0  0  0  0
 16 17  1  0  0  0  0
 16 27  1  0  0  0  0
 16 28  1  0  0  0  0
 17 18  1  0  0  0  0
 17 29  1  0  0  0  0
 17 30  1  0  0  0  0
 18 19  1  0  0  0  0
 18 31  1  0  0  0  0
 18 32  1  0  0  0  0
M  END
> <s_m_source_file>
AV-unprocessed.smi

> <i_m_source_file_index>
2978

> <i_lp_mmshare_version>
43012

> <i_f3d_flags>
0

> <s_epik_input>
TzFbQ0gyXVtDSDJdW0NIMl1bQ0BIXTFbQ0gyXVtOSF1DKD1PKVtDSDJdbjJuW2NIXWMoQ2wpYyhDbCljMj1P

> <s_epik_cmdline>
J2VwaWtfcHl0aG9uJywgJy1waCcsICc3LjAnLCAnLXRuJywgJzgnLCAnLW1hJywgJzIwMCcsICctbWV0YWxfYmluZGluZycsICctaW1hZScsICc8aW5maWxlLm1hZT4nLCAnLW9tYWUnLCAnPG91dGZpbGUubWFlPic=

> <r_lp_tautomer_probability>
1

> <r_epik_Ionization_Penalty>
2.68881e-08

> <r_epik_Ionization_Penalty_Charging>
2.90862e-11

> <r_epik_Ionization_Penalty_Neutral>
2.6859e-08

> <r_epik_State_Penalty>
-0

> <r_epik_Charging_Adjusted_Penalty>
2.90862e-11

> <i_epik_Tot_Q>
0

> <i_epik_Tot_abs_Q>
0

> <r_epik_Metal_State_Penalty>
-0

> <b_epik_Metal_Only>
0

> <s_lp_Force_Field>
OPLS_2005

> <r_lp_Energy>
30.853

> <b_lp_Chiralities_Consistent>
1

> <s_lp_Variant>
AV-unprocessed.smi:2978-2

> <Gold.Version>
5.8.1

> <Gold.Id.Protein>
6NUR|6NUR_protein|mol2

> <Gold.PLP.Fitness>
49.3604

> <Gold.PLP.PLP>
-47.8543

> <Gold.PLP.part.hbond>
-1.4209

> <Gold.PLP.part.metal>
0.0000

> <Gold.PLP.part.buried>
-5.5339

> <Gold.PLP.part.nonpolar>
-41.6195

> <Gold.PLP.part.repulsive>
0.3246

> <Gold.PLP.ligand.clash>
0.0000

> <Gold.PLP.ligand.torsion>
0.2327

> <Gold.PLP.Chemscore.Hbond>
0.6480

> <Gold.PLP.Chemscore.CHOScore>
0.0000

> <Gold.PLP.Chemscore.Metal>
0.0000

> <Gold.Chemscore.Hbonds>
donor molecule, donor type, donor heavy atom, donor atom, acceptor molecule, acceptor atom, score
      P1  H  7989  7998       L1    19  0.91

> <Gold.PLP.Chemscore.Internal.Correction>
0.0275

> <Gold.Rescore>
     Score         DG    S(hbond)    S(metal)    S(lipo)     H(rot)  DE(clash)    DE(int)     intcor
     13.78     -15.15       0.96        0.00      95.45       1.83       0.01       1.36       ----

> <Gold.Chemscore.Fitness>
13.7832

> <Gold.Chemscore.DG>
-15.1517

> <Gold.Chemscore.ZeroCoef>
-5.4800

> <Gold.Chemscore.Hbond>
0.9562

> <Gold.Chemscore.Metal>
0.0000

> <Gold.Chemscore.Lipo>
95.4538

> <Gold.Chemscore.Internal_Hbond>
0.0000

> <Gold.Chemscore.DEClash>
0.0130

> <Gold.Chemscore.DEInternal>
1.3555

> <Gold.Chemscore.Rot>
1.8320

> <Gold.Chemscore.Internal.Correction>
   9.000000E+99

> <Gold.Chemscore.Hbonds>
donor molecule, donor type, donor heavy atom, donor atom, acceptor molecule, acceptor atom, score
      P1  H  7989  7998       L1    19  0.21

> <Gold.Chemscore.Hbond.Weighted>
-3.1936

> <Gold.Chemscore.Metal.Weighted>
-0.0000

> <Gold.Chemscore.Lipo.Weighted>
-11.1681

> <Gold.Chemscore.Internal_Hbond.Weighted>
0.0000

> <Gold.Chemscore.DEClash.Weighted>
0.0130

> <Gold.Chemscore.DEInternal.Weighted>
1.3555

> <Gold.Chemscore.Rot.Weighted>
4.6900

> <Gold.Chemscore.Internal.Correction.Weighted>
   9.000000E+99

> <Gold.Protein.RotatedTorsions>
[ 6907 6896 6895 6894 ] final    3.91 input  -60.11 | X-H torsion
[ 7974 7965 7964 7962 ] final  -95.41 input  175.53 | X-H torsion
[ 8008 7997 7996 7995 ] final   33.18 input   59.86 | X-H torsion
[ 10167 10162 10161 10158 ] final  -67.45 input  -65.29 | X-H torsion
[ 10718 10713 10712 10709 ] final  171.27 input   66.30 | X-H torsion
[ 10763 10752 10751 10750 ] final  -89.65 input  -60.55 | X-H torsion
[ 11005 11000 10999 10996 ] final   82.47 input  -57.11 | X-H torsion

> <Gold.Protein.ActiveResidues>
 VAL166  LYS551  ARG553  GLY616  TRP617  ASP618  TYR619  PRO620  LYS621  CYS622 
 ASP623  PHE694  ASN695  SER759  ASP760  ASP761  ALA762  ILE779  LEU786  VAL792 
 PHE793  MET794  SER795  GLU796  ALA797  LYS798  CYS799  TRP800  GLU811  SER814 

> <Gold.Protein.RotatedAtoms>
  151.6327  135.1021  160.0124 H   0  0  0  0  0  0  0  0  0  0  0  0  # atno 6907 bound_to 6896
  152.4097  133.6940  159.6396 H   0  0  0  0  0  0  0  0  0  0  0  0  # atno 6908 bound_to 6896
  150.7989  133.8562  159.3260 H   0  0  0  0  0  0  0  0  0  0  0  0  # atno 6909 bound_to 6896
  145.3604  140.9491  143.2504 H   0  0  0  0  0  0  0  0  0  0  0  0  # atno 7974 bound_to 7965
  155.1345  140.3260  155.4466 H   0  0  0  0  0  0  0  0  0  0  0  0  # atno 8008 bound_to 7997
  156.2624  140.2004  156.6412 H   0  0  0  0  0  0  0  0  0  0  0  0  # atno 8009 bound_to 7997
  154.6588  140.0549  157.0025 H   0  0  0  0  0  0  0  0  0  0  0  0  # atno 8010 bound_to 7997
  140.5581  143.2312  151.6781 H   0  0  0  0  0  0  0  0  0  0  0  0  # atno 10167 bound_to 10162
  156.9961  131.0162  151.2843 H   0  0  0  0  0  0  0  0  0  0  0  0  # atno 10718 bound_to 10713
  154.6575  135.5333  153.7977 H   0  0  0  0  0  0  0  0  0  0  0  0  # atno 10763 bound_to 10752
  153.0422  135.6497  154.0922 H   0  0  0  0  0  0  0  0  0  0  0  0  # atno 10764 bound_to 10752
  154.0834  135.2945  155.3266 H   0  0  0  0  0  0  0  0  0  0  0  0  # atno 10765 bound_to 10752
  139.9063  134.8073  156.2179 H   0  0  0  0  0  0  0  0  0  0  0  0  # atno 11005 bound_to 11000
  144.8651  139.5120  143.6794 LP  0  0  0  0  0  0  0  0  0  0  0  0  # atno 17320 bound_to 7965
  146.2930  139.7194  142.9147 LP  0  0  0  0  0  0  0  0  0  0  0  0  # atno 17321 bound_to 7965
  139.5057  144.3707  152.0473 LP  0  0  0  0  0  0  0  0  0  0  0  0  # atno 17342 bound_to 10162
  140.2830  144.3838  150.6113 LP  0  0  0  0  0  0  0  0  0  0  0  0  # atno 17343 bound_to 10162
  157.5424  130.8128  149.8045 LP  0  0  0  0  0  0  0  0  0  0  0  0  # atno 17370 bound_to 10713
  156.0189  130.3803  150.2024 LP  0  0  0  0  0  0  0  0  0  0  0  0  # atno 17371 bound_to 10713
  141.0424  133.6930  156.1622 LP  0  0  0  0  0  0  0  0  0  0  0  0  # atno 17394 bound_to 11000
  140.6935  134.4641  157.5588 LP  0  0  0  0  0  0  0  0  0  0  0  0  # atno 17395 bound_to 11000

$$$$
