AV-unprocessed.smi:514|AV-procd|sdf|2776|dock7
  -GOLD-   2262023243D 1   1.00000     0.00000
 Structure written by MMmdl.
 46 48  0  0  0  0  0  0  0  0  2 V2000
  150.3505  142.8800  158.1790 C   0  0  0  0  0  0  0  0  0  0  0  0
  150.6568  142.1919  156.8473 C   0  0  0  0  0  0  0  0  0  0  0  0
  149.5343  141.4123  156.4759 O   0  0  0  0  0  0  0  0  0  0  0  0
  149.0179  141.7417  155.1988 C   0  0  0  0  0  0  0  0  0  0  0  0
  149.6119  140.8169  154.1156 C   0  0  0  0  0  0  0  0  0  0  0  0
  149.6142  139.4064  154.5030 N   0  0  0  0  0  0  0  0  0  0  0  0
  148.6343  138.4601  154.3728 C   0  0  0  0  0  0  0  0  0  0  0  0
  147.3581  138.7013  153.8349 N   0  0  0  0  0  0  0  0  0  0  0  0
  147.0987  139.7633  152.8583 C   0  0  0  0  0  0  0  0  0  0  0  0
  146.4156  139.2172  151.5910 C   0  0  0  0  0  0  0  0  0  0  0  0
  145.1581  138.5241  151.9349 N   0  3  0  0  0  0  0  0  0  0  0  0
  145.3449  137.5072  152.9890 C   0  0  0  0  0  0  0  0  0  0  0  0
  146.0653  138.1199  154.2043 C   0  0  0  0  0  0  0  0  0  0  0  0
  148.9726  137.2609  154.8580 N   0  0  0  0  0  0  0  0  0  0  0  0
  150.2533  137.4499  155.3438 C   0  0  0  0  0  0  0  0  0  0  0  0
  150.6486  138.7341  155.1664 C   0  0  0  0  0  0  0  0  0  0  0  0
  151.9536  139.2196  155.6471 C   0  0  0  0  0  0  0  0  0  0  0  0
  152.3195  140.3897  155.5641 O   0  0  0  0  0  0  0  0  0  0  0  0
  152.7142  138.2457  156.2028 N   0  0  0  0  0  0  0  0  0  0  0  0
  152.3821  136.9317  156.3831 C   0  0  0  0  0  0  0  0  0  0  0  0
  153.1935  136.1578  156.8906 O   0  0  0  0  0  0  0  0  0  0  0  0
  151.1332  136.5313  155.9820 N   0  0  0  0  0  0  0  0  0  0  0  0
  150.6975  135.1446  156.1591 C   0  0  0  0  0  0  0  0  0  0  0  0
  153.6292  138.5233  156.5266 H   0  0  0  0  0  0  0  0  0  0  0  0
  151.1917  143.4919  158.5051 H   0  0  0  0  0  0  0  0  0  0  0  0
  150.1464  142.1465  158.9593 H   0  0  0  0  0  0  0  0  0  0  0  0
  149.4781  143.5279  158.0927 H   0  0  0  0  0  0  0  0  0  0  0  0
  150.8678  142.9382  156.0803 H   0  0  0  0  0  0  0  0  0  0  0  0
  151.5399  141.5598  156.9491 H   0  0  0  0  0  0  0  0  0  0  0  0
  147.9313  141.6455  155.2028 H   0  0  0  0  0  0  0  0  0  0  0  0
  149.2479  142.7862  154.9937 H   0  0  0  0  0  0  0  0  0  0  0  0
  149.0467  140.9235  153.1909 H   0  0  0  0  0  0  0  0  0  0  0  0
  150.6196  141.1262  153.8495 H   0  0  0  0  0  0  0  0  0  0  0  0
  146.4792  140.5332  153.3206 H   0  0  0  0  0  0  0  0  0  0  0  0
  148.0286  140.2545  152.5708 H   0  0  0  0  0  0  0  0  0  0  0  0
  146.2001  140.0266  150.8933 H   0  0  0  0  0  0  0  0  0  0  0  0
  147.0792  138.5197  151.0782 H   0  0  0  0  0  0  0  0  0  0  0  0
  144.5029  139.2133  152.2750 H   0  0  0  0  0  0  0  0  0  0  0  0
  144.3720  137.1115  153.2810 H   0  0  0  0  0  0  0  0  0  0  0  0
  145.9207  136.6748  152.5828 H   0  0  0  0  0  0  0  0  0  0  0  0
  146.1657  137.3806  154.9889 H   0  0  0  0  0  0  0  0  0  0  0  0
  145.4445  138.9062  154.6364 H   0  0  0  0  0  0  0  0  0  0  0  0
  151.0133  134.5430  155.3065 H   0  0  0  0  0  0  0  0  0  0  0  0
  149.6127  135.0722  156.2386 H   0  0  0  0  0  0  0  0  0  0  0  0
  151.1072  134.6947  157.0645 H   0  0  0  0  0  0  0  0  0  0  0  0
  144.7757  138.0878  151.1082 H   0  0  0  0  0  0  0  0  0  0  0  0
  1  2  1  0  0  0  0
  1 25  1  0  0  0  0
  1 26  1  0  0  0  0
  1 27  1  0  0  0  0
  2  3  1  0  0  0  0
  2 28  1  0  0  0  0
  2 29  1  0  0  0  0
  3  4  1  0  0  0  0
  4  5  1  0  0  0  0
  4 30  1  0  0  0  0
  4 31  1  0  0  0  0
  5  6  1  0  0  0  0
  5 32  1  0  0  0  0
  5 33  1  0  0  0  0
  6 16  1  0  0  0  0
  6  7  1  0  0  0  0
  7  8  1  0  0  0  0
  7 14  2  0  0  0  0
  8 13  1  0  0  0  0
  8  9  1  0  0  0  0
  9 10  1  0  0  0  0
  9 34  1  0  0  0  0
  9 35  1  0  0  0  0
 10 11  1  0  0  0  0
 10 36  1  0  0  0  0
 10 37  1  0  0  0  0
 11 12  1  0  0  0  0
 11 38  1  0  0  0  0
 11 46  1  0  0  0  0
 12 13  1  0  0  0  0
 12 39  1  0  0  0  0
 12 40  1  0  0  0  0
 13 41  1  0  0  0  0
 13 42  1  0  0  0  0
 14 15  1  0  0  0  0
 15 22  1  0  0  0  0
 15 16  2  0  0  0  0
 16 17  1  0  0  0  0
 17 18  2  0  0  0  0
 17 19  1  0  0  0  0
 19 24  1  0  0  0  0
 19 20  1  0  0  0  0
 20 21  2  0  0  0  0
 20 22  1  0  0  0  0
 22 23  1  0  0  0  0
 23 43  1  0  0  0  0
 23 44  1  0  0  0  0
 23 45  1  0  0  0  0
M  CHG  1  11   1
M  END
> <s_m_source_file>
AV-unprocessed.smi

> <i_m_source_file_index>
514

> <i_lp_mmshare_version>
43012

> <i_f3d_flags>
0

> <s_epik_input>
W0NIM11uMWMoPU8pW25IXWMoPU8pYyhjMTIpbihbQ0gyXVtDSDJdT1tDSDJdW0NIM10pYyhuMilOM1tDSDJdW0NIMl1bTkhdW0NIMl1bQ0gyXTM=

> <s_epik_cmdline>
J2VwaWtfcHl0aG9uJywgJy1waCcsICc3LjAnLCAnLXRuJywgJzgnLCAnLW1hJywgJzIwMCcsICctbWV0YWxfYmluZGluZycsICctaW1hZScsICc8aW5maWxlLm1hZT4nLCAnLW9tYWUnLCAnPG91dGZpbGUubWFlPic=

> <r_epik_Ionization_Penalty>
0.00860326

> <r_epik_Ionization_Penalty_Charging>
0.00860166

> <r_epik_Ionization_Penalty_Neutral>
1.60107e-06

> <r_epik_State_Penalty>
0.00646614

> <r_epik_Charging_Adjusted_Penalty>
0.0150678

> <i_epik_Tot_Q>
1

> <i_epik_Tot_abs_Q>
1

> <r_epik_Metal_State_Penalty>
0.0342529

> <b_epik_Metal_Only>
0

> <s_lp_Force_Field>
OPLS_2005

> <r_lp_Energy>
46.1071

> <b_lp_Chiralities_Consistent>
1

> <s_lp_Variant>
AV-unprocessed.smi:514-1

> <Gold.Version>
5.8.1

> <Gold.Id.Protein>
6NUR|6NUR_protein|mol2

> <Gold.PLP.Fitness>
39.8372

> <Gold.PLP.PLP>
-27.9065

> <Gold.PLP.part.hbond>
-5.0000

> <Gold.PLP.part.metal>
0.0000

> <Gold.PLP.part.buried>
8.2485

> <Gold.PLP.part.nonpolar>
-31.8595

> <Gold.PLP.part.repulsive>
0.4219

> <Gold.PLP.ligand.clash>
0.0000

> <Gold.PLP.ligand.torsion>
1.3898

> <Gold.PLP.Chemscore.Hbond>
4.8946

> <Gold.PLP.Chemscore.CHOScore>
0.0000

> <Gold.PLP.Chemscore.Metal>
0.0000

> <Gold.Chemscore.Hbonds>
donor molecule, donor type, donor heavy atom, donor atom, acceptor molecule, acceptor atom, score
      L1  H    11    38       P1 10175  1.85
      L1  H    11    46       P1 10171  0.70
      P1  H  7989  7998       L1    18  0.32
      P1  H  7997  8009       L1    18  0.75
      P1  H 10752 10764       L1    21  0.91

> <Gold.PLP.Chemscore.Internal.Correction>
0.0265

> <Gold.Rescore>
     Score         DG    S(hbond)    S(metal)    S(lipo)     H(rot)  DE(clash)    DE(int)     intcor
     13.97     -17.46       2.81        0.00      60.34       1.75       1.11       2.39       ----

> <Gold.Chemscore.Fitness>
13.9654

> <Gold.Chemscore.DG>
-17.4605

> <Gold.Chemscore.ZeroCoef>
-5.4800

> <Gold.Chemscore.Hbond>
2.8117

> <Gold.Chemscore.Metal>
0.0000

> <Gold.Chemscore.Lipo>
60.3379

> <Gold.Chemscore.Internal_Hbond>
0.0000

> <Gold.Chemscore.DEClash>
1.1071

> <Gold.Chemscore.DEInternal>
2.3880

> <Gold.Chemscore.Rot>
1.7461

> <Gold.Chemscore.Internal.Correction>
   9.000000E+99

> <Gold.Chemscore.Hbonds>
donor molecule, donor type, donor heavy atom, donor atom, acceptor molecule, acceptor atom, score
      L1  H    11    38       P1 10175  0.88
      L1  H    11    46       P1 10171  0.70
      P1  H  7989  7998       L1    18  0.09
      P1  H  7997  8009       L1    18  0.22
      P1  H 10752 10764       L1    21  0.31

> <Gold.Chemscore.Hbond.Weighted>
-9.3910

> <Gold.Chemscore.Metal.Weighted>
-0.0000

> <Gold.Chemscore.Lipo.Weighted>
-7.0595

> <Gold.Chemscore.Internal_Hbond.Weighted>
0.0000

> <Gold.Chemscore.DEClash.Weighted>
1.1071

> <Gold.Chemscore.DEInternal.Weighted>
2.3880

> <Gold.Chemscore.Rot.Weighted>
4.4701

> <Gold.Chemscore.Internal.Correction.Weighted>
   9.000000E+99

> <Gold.Protein.RotatedTorsions>
[ 6907 6896 6895 6894 ] final  166.79 input  -60.11 | X-H torsion
[ 7974 7965 7964 7962 ] final  100.85 input  175.53 | X-H torsion
[ 8008 7997 7996 7995 ] final -142.22 input   59.86 | X-H torsion
[ 10167 10162 10161 10158 ] final  -15.57 input  -65.29 | X-H torsion
[ 10718 10713 10712 10709 ] final  159.72 input   66.30 | X-H torsion
[ 10763 10752 10751 10750 ] final   23.09 input  -60.55 | X-H torsion
[ 11005 11000 10999 10996 ] final    4.62 input  -57.11 | X-H torsion

> <Gold.Protein.ActiveResidues>
 VAL166  LYS551  ARG553  GLY616  TRP617  ASP618  TYR619  PRO620  LYS621  CYS622 
 ASP623  PHE694  ASN695  SER759  ASP760  ASP761  ALA762  ILE779  LEU786  VAL792 
 PHE793  MET794  SER795  GLU796  ALA797  LYS798  CYS799  TRP800  GLU811  SER814 

> <Gold.Protein.RotatedAtoms>
  151.8733  133.3480  159.3741 H   0  0  0  0  0  0  0  0  0  0  0  0  # atno 6907 bound_to 6896
  150.7147  134.5091  159.5608 H   0  0  0  0  0  0  0  0  0  0  0  0  # atno 6908 bound_to 6896
  152.2628  134.8017  160.0479 H   0  0  0  0  0  0  0  0  0  0  0  0  # atno 6909 bound_to 6896
  145.3801  139.2381  143.3408 H   0  0  0  0  0  0  0  0  0  0  0  0  # atno 7974 bound_to 7965
  155.4907  140.0567  157.2954 H   0  0  0  0  0  0  0  0  0  0  0  0  # atno 8008 bound_to 7997
  154.4624  140.2003  156.0159 H   0  0  0  0  0  0  0  0  0  0  0  0  # atno 8009 bound_to 7997
  156.0914  140.3233  155.7825 H   0  0  0  0  0  0  0  0  0  0  0  0  # atno 8010 bound_to 7997
  140.7220  143.5205  150.9639 H   0  0  0  0  0  0  0  0  0  0  0  0  # atno 10167 bound_to 10162
  157.1602  131.0585  151.2236 H   0  0  0  0  0  0  0  0  0  0  0  0  # atno 10718 bound_to 10713
  153.0865  135.6634  153.9939 H   0  0  0  0  0  0  0  0  0  0  0  0  # atno 10763 bound_to 10752
  153.9547  135.2980  155.3438 H   0  0  0  0  0  0  0  0  0  0  0  0  # atno 10764 bound_to 10752
  154.7273  135.5138  153.8980 H   0  0  0  0  0  0  0  0  0  0  0  0  # atno 10765 bound_to 10752
  140.5799  134.0022  155.8043 H   0  0  0  0  0  0  0  0  0  0  0  0  # atno 11005 bound_to 11000
  146.2846  140.4467  142.8763 LP  0  0  0  0  0  0  0  0  0  0  0  0  # atno 17320 bound_to 7965
  144.8514  140.7006  143.6166 LP  0  0  0  0  0  0  0  0  0  0  0  0  # atno 17321 bound_to 7965
  139.8922  143.6939  152.3143 LP  0  0  0  0  0  0  0  0  0  0  0  0  # atno 17342 bound_to 10162
  139.7259  144.7593  151.0880 LP  0  0  0  0  0  0  0  0  0  0  0  0  # atno 17343 bound_to 10162
  157.4139  130.7400  149.6860 LP  0  0  0  0  0  0  0  0  0  0  0  0  # atno 17370 bound_to 10713
  155.9755  130.4088  150.3845 LP  0  0  0  0  0  0  0  0  0  0  0  0  # atno 17371 bound_to 10713
  141.1003  133.9779  157.3091 LP  0  0  0  0  0  0  0  0  0  0  0  0  # atno 17394 bound_to 11000
  139.9322  135.0199  156.8438 LP  0  0  0  0  0  0  0  0  0  0  0  0  # atno 17395 bound_to 11000

$$$$
