AV-unprocessed.smi:24|AV-procd|sdf|177|dock4
  -GOLD-   2262015433D 1   1.00000     0.00000
 Structure written by MMmdl.
 61 65  0  0  0  0  0  0  0  0  1 V2000
  151.0233  141.0382  155.8934 C   0  0  0  0  0  0  0  0  0  0  0  0
  151.4224  139.9958  155.0155 O   0  0  0  0  0  0  0  0  0  0  0  0
  150.7576  138.7908  155.0948 C   0  0  0  0  0  0  0  0  0  0  0  0
  149.4093  138.8284  155.5034 C   0  0  0  0  0  0  0  0  0  0  0  0
  148.6542  137.6455  155.6110 C   0  0  0  0  0  0  0  0  0  0  0  0
  149.2420  136.3957  155.3171 C   0  0  0  0  0  0  0  0  0  0  0  0
  148.4442  135.0960  155.4172 C   0  0  2  0  0  0  0  0  0  0  0  0
  148.2383  134.4426  154.0478 C   0  0  0  0  0  0  0  0  0  0  0  0
  146.7504  134.3639  153.9720 C   0  0  0  0  0  0  0  0  0  0  0  0
  146.0598  133.8079  152.7873 C   0  0  0  0  0  0  0  0  0  0  0  0
  146.8181  133.1810  151.7720 C   0  0  0  0  0  0  0  0  0  0  0  0
  146.1619  132.6565  150.6414 C   0  0  0  0  0  0  0  0  0  0  0  0
  144.7614  132.7578  150.5254 C   0  0  0  0  0  0  0  0  0  0  0  0
  144.0101  133.3838  151.5398 C   0  0  0  0  0  0  0  0  0  0  0  0
  144.6548  133.9116  152.6758 C   0  0  0  0  0  0  0  0  0  0  0  0
  146.1543  134.8185  155.0113 N   0  0  0  0  0  0  0  0  0  0  0  0
  147.0702  135.2484  155.9149 N   0  0  0  0  0  0  0  0  0  0  0  0
  146.7437  135.6627  157.1593 C   0  0  0  0  0  0  0  0  0  0  0  0
  145.5712  135.7996  157.5134 O   0  0  0  0  0  0  0  0  0  0  0  0
  147.8872  135.9749  158.1477 C   0  0  0  0  0  0  0  0  0  0  0  0
  147.7631  135.2623  159.4384 N   0  0  0  0  0  0  0  0  0  0  0  0
  147.6971  136.0287  160.6277 C   0  0  0  0  0  0  0  0  0  0  0  0
  147.7541  137.2592  160.5998 O   0  0  0  0  0  0  0  0  0  0  0  0
  147.5566  135.2636  161.8599 C   0  0  0  0  0  0  0  0  0  0  0  0
  147.4302  135.9077  163.0325 F   0  0  0  0  0  0  0  0  0  0  0  0
  147.5321  133.9153  161.8421 C   0  0  0  0  0  0  0  0  0  0  0  0
  147.6574  133.1733  160.6788 N   0  0  0  0  0  0  0  0  0  0  0  0
  147.5598  131.6547  160.6582 C   0  0  1  0  0  0  0  0  0  0  0  0
  148.6816  130.9593  159.8762 C   0  0  0  0  0  0  0  0  0  0  0  0
  149.6908  130.5926  160.9611 C   0  0  0  0  0  0  0  0  0  0  0  0
  149.0487  131.0654  162.2701 C   0  0  0  0  0  0  0  0  0  0  0  0
  147.6662  131.1873  161.9650 O   0  0  0  0  0  0  0  0  0  0  0  0
  147.7371  133.8471  159.4388 C   0  0  0  0  0  0  0  0  0  0  0  0
  147.7900  133.2149  158.3815 O   0  0  0  0  0  0  0  0  0  0  0  0
  150.5878  136.3517  154.9007 C   0  0  0  0  0  0  0  0  0  0  0  0
  151.3425  137.5360  154.7913 C   0  0  0  0  0  0  0  0  0  0  0  0
  151.6356  141.9202  155.7058 H   0  0  0  0  0  0  0  0  0  0  0  0
  151.1635  140.7552  156.9374 H   0  0  0  0  0  0  0  0  0  0  0  0
  149.9821  141.3195  155.7313 H   0  0  0  0  0  0  0  0  0  0  0  0
  148.9468  139.7765  155.7360 H   0  0  0  0  0  0  0  0  0  0  0  0
  147.6211  137.7067  155.9202 H   0  0  0  0  0  0  0  0  0  0  0  0
  148.9723  134.4032  156.0754 H   0  0  0  0  0  0  0  0  0  0  0  0
  148.6386  135.0481  153.2333 H   0  0  0  0  0  0  0  0  0  0  0  0
  148.6926  133.4521  154.0051 H   0  0  0  0  0  0  0  0  0  0  0  0
  147.8928  133.0938  151.8427 H   0  0  0  0  0  0  0  0  0  0  0  0
  146.7341  132.1761  149.8614 H   0  0  0  0  0  0  0  0  0  0  0  0
  144.2622  132.3548  149.6564 H   0  0  0  0  0  0  0  0  0  0  0  0
  142.9368  133.4599  151.4454 H   0  0  0  0  0  0  0  0  0  0  0  0
  144.0569  134.3877  153.4387 H   0  0  0  0  0  0  0  0  0  0  0  0
  148.8403  135.7306  157.6755 H   0  0  0  0  0  0  0  0  0  0  0  0
  147.9332  137.0551  158.2951 H   0  0  0  0  0  0  0  0  0  0  0  0
  147.3978  133.4178  162.7893 H   0  0  0  0  0  0  0  0  0  0  0  0
  146.5812  131.4326  160.2298 H   0  0  0  0  0  0  0  0  0  0  0  0
  148.2734  130.0492  159.4357 H   0  0  0  0  0  0  0  0  0  0  0  0
  149.0729  131.5707  159.0634 H   0  0  0  0  0  0  0  0  0  0  0  0
  149.8464  129.5135  160.9772 H   0  0  0  0  0  0  0  0  0  0  0  0
  150.6600  131.0655  160.8008 H   0  0  0  0  0  0  0  0  0  0  0  0
  149.2129  130.3678  163.0915 H   0  0  0  0  0  0  0  0  0  0  0  0
  149.4455  132.0359  162.5707 H   0  0  0  0  0  0  0  0  0  0  0  0
  151.0496  135.4045  154.6636 H   0  0  0  0  0  0  0  0  0  0  0  0
  152.3699  137.4542  154.4716 H   0  0  0  0  0  0  0  0  0  0  0  0
  1  2  1  0  0  0  0
  1 37  1  0  0  0  0
  1 38  1  0  0  0  0
  1 39  1  0  0  0  0
  2  3  1  0  0  0  0
  3 36  1  0  0  0  0
  3  4  2  0  0  0  0
  4  5  1  0  0  0  0
  4 40  1  0  0  0  0
  5  6  2  0  0  0  0
  5 41  1  0  0  0  0
  6  7  1  0  0  0  0
  6 35  1  0  0  0  0
  7 17  1  0  0  0  0
  7  8  1  0  0  0  0
  7 42  1  0  0  0  0
  8  9  1  0  0  0  0
  8 43  1  0  0  0  0
  8 44  1  0  0  0  0
  9 10  1  0  0  0  0
  9 16  2  0  0  0  0
 10 15  1  0  0  0  0
 10 11  2  0  0  0  0
 11 12  1  0  0  0  0
 11 45  1  0  0  0  0
 12 13  2  0  0  0  0
 12 46  1  0  0  0  0
 13 14  1  0  0  0  0
 13 47  1  0  0  0  0
 14 15  2  0  0  0  0
 14 48  1  0  0  0  0
 15 49  1  0  0  0  0
 16 17  1  0  0  0  0
 17 18  1  0  0  0  0
 18 19  2  0  0  0  0
 18 20  1  0  0  0  0
 20 21  1  0  0  0  0
 20 50  1  0  0  0  0
 20 51  1  0  0  0  0
 21 33  1  0  0  0  0
 21 22  1  0  0  0  0
 22 23  2  0  0  0  0
 22 24  1  0  0  0  0
 24 25  1  0  0  0  0
 24 26  2  0  0  0  0
 26 27  1  0  0  0  0
 26 52  1  0  0  0  0
 27 28  1  0  0  0  0
 27 33  1  0  0  0  0
 28 32  1  0  0  0  0
 28 29  1  0  0  0  0
 28 53  1  0  0  0  0
 29 30  1  0  0  0  0
 29 54  1  0  0  0  0
 29 55  1  0  0  0  0
 30 31  1  0  0  0  0
 30 56  1  0  0  0  0
 30 57  1  0  0  0  0
 31 32  1  0  0  0  0
 31 58  1  0  0  0  0
 31 59  1  0  0  0  0
 33 34  2  0  0  0  0
 35 36  2  0  0  0  0
 35 60  1  0  0  0  0
 36 61  1  0  0  0  0
M  END
> <s_m_source_file>
AV-unprocessed.smi

> <i_m_source_file_index>
24

> <i_lp_mmshare_version>
43012

> <i_f3d_flags>
0

> <s_epik_input>
W0NIM11PYzFbY0hdW2NIXWMoW2NIXVtjSF0xKVtDQEBIXTJbQ0gyXUMoYzNbY0hdW2NIXVtjSF1bY0hdW2NIXTMpPU5OMkMoPU8pW0NIMl1uNGMoPU8pYyhGKVtjSF1uKGM0PU8pW0NAQEhdNVtDSDJdW0NIMl1bQ0gyXU81

> <s_epik_cmdline>
J2VwaWtfcHl0aG9uJywgJy1waCcsICc3LjAnLCAnLXRuJywgJzgnLCAnLW1hJywgJzIwMCcsICctbWV0YWxfYmluZGluZycsICctaW1hZScsICc8aW5maWxlLm1hZT4nLCAnLW9tYWUnLCAnPG91dGZpbGUubWFlPic=

> <r_lp_tautomer_probability>
1

> <r_epik_Ionization_Penalty>
1.46326e-08

> <r_epik_Ionization_Penalty_Charging>
4.53232e-09

> <r_epik_Ionization_Penalty_Neutral>
1.01002e-08

> <r_epik_State_Penalty>
-0

> <r_epik_Charging_Adjusted_Penalty>
4.53232e-09

> <i_epik_Tot_Q>
0

> <i_epik_Tot_abs_Q>
0

> <r_epik_Metal_State_Penalty>
-0

> <b_epik_Metal_Only>
0

> <s_epik_Chemistry_Notes>
This compound has an imine and may undergo hydrolysis. This compound contains an acetal/aminal-like group ( X-CH(R)-Y where X, Y are N, S, or O) that may be acid/base labile, releasing an aldehyde.

> <s_lp_Force_Field>
OPLS_2005

> <r_lp_Energy>
47.9394

> <b_lp_Chiralities_Consistent>
1

> <s_lp_Variant>
AV-unprocessed.smi:24-3

> <Gold.Version>
5.8.1

> <Gold.Id.Protein>
6NUR|6NUR_protein|mol2

> <Gold.PLP.Fitness>
56.6263

> <Gold.PLP.PLP>
-49.9669

> <Gold.PLP.part.hbond>
-3.0000

> <Gold.PLP.part.metal>
0.0000

> <Gold.PLP.part.buried>
-5.0212

> <Gold.PLP.part.nonpolar>
-42.3916

> <Gold.PLP.part.repulsive>
0.0891

> <Gold.PLP.ligand.clash>
0.0000

> <Gold.PLP.ligand.torsion>
0.7101

> <Gold.PLP.Chemscore.Hbond>
2.6250

> <Gold.PLP.Chemscore.CHOScore>
0.0000

> <Gold.PLP.Chemscore.Metal>
0.0000

> <Gold.Chemscore.Hbonds>
donor molecule, donor type, donor heavy atom, donor atom, acceptor molecule, acceptor atom, score
      P1  H  6931  6943       L1    23  0.67
      P1  H  6934  6947       L1    23  0.88
      P1  H  7989  7998       L1     2  1.00

> <Gold.PLP.Chemscore.Internal.Correction>
0.2045

> <Gold.Rescore>
     Score         DG    S(hbond)    S(metal)    S(lipo)     H(rot)  DE(clash)    DE(int)     intcor
     16.99     -21.04       2.42        0.00     107.25       1.98       1.20       2.86       ----

> <Gold.Chemscore.Fitness>
16.9905

> <Gold.Chemscore.DG>
-21.0436

> <Gold.Chemscore.ZeroCoef>
-5.4800

> <Gold.Chemscore.Hbond>
2.4164

> <Gold.Chemscore.Metal>
0.0000

> <Gold.Chemscore.Lipo>
107.2543

> <Gold.Chemscore.Internal_Hbond>
0.0000

> <Gold.Chemscore.DEClash>
1.1964

> <Gold.Chemscore.DEInternal>
2.8567

> <Gold.Chemscore.Rot>
1.9750

> <Gold.Chemscore.Internal.Correction>
   9.000000E+99

> <Gold.Chemscore.Hbonds>
donor molecule, donor type, donor heavy atom, donor atom, acceptor molecule, acceptor atom, score
      P1  H  6931  6943       L1    23  0.65
      P1  H  6934  6947       L1    23  0.86
      P1  H  7989  7998       L1     2  0.34

> <Gold.Chemscore.Hbond.Weighted>
-8.0709

> <Gold.Chemscore.Metal.Weighted>
-0.0000

> <Gold.Chemscore.Lipo.Weighted>
-12.5488

> <Gold.Chemscore.Internal_Hbond.Weighted>
0.0000

> <Gold.Chemscore.DEClash.Weighted>
1.1964

> <Gold.Chemscore.DEInternal.Weighted>
2.8567

> <Gold.Chemscore.Rot.Weighted>
5.0561

> <Gold.Chemscore.Internal.Correction.Weighted>
   9.000000E+99

> <Gold.Protein.RotatedTorsions>
[ 6907 6896 6895 6894 ] final   65.68 input  -60.11 | X-H torsion
[ 7974 7965 7964 7962 ] final  -69.90 input  175.53 | X-H torsion
[ 8008 7997 7996 7995 ] final  105.73 input   59.86 | X-H torsion
[ 10167 10162 10161 10158 ] final   46.29 input  -65.29 | X-H torsion
[ 10718 10713 10712 10709 ] final   56.89 input   66.30 | X-H torsion
[ 10763 10752 10751 10750 ] final -111.56 input  -60.55 | X-H torsion
[ 11005 11000 10999 10996 ] final   14.27 input  -57.11 | X-H torsion

> <Gold.Protein.ActiveResidues>
 VAL166  LYS551  ARG553  GLY616  TRP617  ASP618  TYR619  PRO620  LYS621  CYS622 
 ASP623  PHE694  ASN695  SER759  ASP760  ASP761  ALA762  ILE779  LEU786  VAL792 
 PHE793  MET794  SER795  GLU796  ALA797  LYS798  CYS799  TRP800  GLU811  SER814 

> <Gold.Protein.RotatedAtoms>
  152.4426  134.5560  159.9880 H   0  0  0  0  0  0  0  0  0  0  0  0  # atno 6907 bound_to 6896
  151.5654  133.3391  159.2987 H   0  0  0  0  0  0  0  0  0  0  0  0  # atno 6908 bound_to 6896
  150.8335  134.7631  159.6937 H   0  0  0  0  0  0  0  0  0  0  0  0  # atno 6909 bound_to 6896
  145.6979  140.9128  143.0747 H   0  0  0  0  0  0  0  0  0  0  0  0  # atno 7974 bound_to 7965
  156.1683  140.3125  155.8929 H   0  0  0  0  0  0  0  0  0  0  0  0  # atno 8008 bound_to 7997
  155.3639  140.0478  157.3063 H   0  0  0  0  0  0  0  0  0  0  0  0  # atno 8009 bound_to 7997
  154.5215  140.2200  155.8978 H   0  0  0  0  0  0  0  0  0  0  0  0  # atno 8010 bound_to 7997
  140.3154  144.2770  150.6192 H   0  0  0  0  0  0  0  0  0  0  0  0  # atno 10167 bound_to 10162
  157.5469  130.8737  149.8905 H   0  0  0  0  0  0  0  0  0  0  0  0  # atno 10718 bound_to 10713
  154.8306  135.4523  154.1057 H   0  0  0  0  0  0  0  0  0  0  0  0  # atno 10763 bound_to 10752
  153.2334  135.6908  153.7871 H   0  0  0  0  0  0  0  0  0  0  0  0  # atno 10764 bound_to 10752
  153.7245  135.3336  155.3250 H   0  0  0  0  0  0  0  0  0  0  0  0  # atno 10765 bound_to 10752
  140.4714  134.1027  155.7733 H   0  0  0  0  0  0  0  0  0  0  0  0  # atno 11005 bound_to 11000
  144.6977  139.8908  143.7453 LP  0  0  0  0  0  0  0  0  0  0  0  0  # atno 17320 bound_to 7965
  146.0824  139.3812  143.0456 LP  0  0  0  0  0  0  0  0  0  0  0  0  # atno 17321 bound_to 7965
  140.5531  143.2203  151.7893 LP  0  0  0  0  0  0  0  0  0  0  0  0  # atno 17342 bound_to 10162
  139.4885  144.4450  151.9721 LP  0  0  0  0  0  0  0  0  0  0  0  0  # atno 17343 bound_to 10162
  156.0543  130.3711  150.1127 LP  0  0  0  0  0  0  0  0  0  0  0  0  # atno 17370 bound_to 10713
  156.9303  130.9711  151.3534 LP  0  0  0  0  0  0  0  0  0  0  0  0  # atno 17371 bound_to 10713
  141.1575  133.8855  157.1938 LP  0  0  0  0  0  0  0  0  0  0  0  0  # atno 17394 bound_to 11000
  139.9883  135.0074  156.9914 LP  0  0  0  0  0  0  0  0  0  0  0  0  # atno 17395 bound_to 11000

$$$$
