AV-unprocessed.smi:224|AV-procd|sdf|1708|dock6
  -GOLD-   2262020173D 1   1.00000     0.00000
 Structure written by MMmdl.
 56 59  0  0  0  0  0  0  0  0  2 V2000
  144.6957  132.3467  148.8172 C   0  0  0  0  0  0  0  0  0  0  0  0
  144.5117  133.2793  150.0216 C   0  0  1  0  0  0  0  0  0  0  0  0
  143.8644  134.4538  149.5753 O   0  0  0  0  0  0  0  0  0  0  0  0
  143.6665  132.6327  151.1350 C   0  0  0  0  0  0  0  0  0  0  0  0
  143.8951  133.2917  152.4518 N   0  3  2  0  0  0  0  0  0  0  0  0
  143.2200  134.6193  152.5059 C   0  0  0  0  0  0  0  0  0  0  0  0
  143.3891  135.2997  153.8703 C   0  0  0  0  0  0  0  0  0  0  0  0
  144.8025  135.4126  154.2003 N   0  0  0  0  0  0  0  0  0  0  0  0
  145.4462  136.5169  153.7363 C   0  0  0  0  0  0  0  0  0  0  0  0
  145.5158  136.7473  152.3978 N   0  0  0  0  0  0  0  0  0  0  0  0
  146.1339  137.8346  151.9281 C   0  0  0  0  0  0  0  0  0  0  0  0
  146.7457  138.8045  152.6090 N   0  0  0  0  0  0  0  0  0  0  0  0
  146.6946  138.5746  153.9518 C   0  0  0  0  0  0  0  0  0  0  0  0
  146.0692  137.4682  154.5941 C   0  0  0  0  0  0  0  0  0  0  0  0
  146.2300  137.5713  155.9710 N   0  0  0  0  0  0  0  0  0  0  0  0
  146.9041  138.6770  156.1330 C   0  0  0  0  0  0  0  0  0  0  0  0
  147.2308  139.3407  154.9723 N   0  0  0  0  0  0  0  0  0  0  0  0
  147.9787  140.5841  154.8629 C   0  0  0  0  0  0  0  0  0  0  0  0
  149.4923  140.4148  155.1303 C   0  0  1  0  0  0  0  0  0  0  0  0
  150.1176  139.9396  153.9503 O   0  0  0  0  0  0  0  0  0  0  0  0
  150.1960  141.6956  155.5701 C   0  0  0  0  0  0  0  0  0  0  0  0
  151.2973  141.1800  156.4855 C   0  0  0  0  0  0  0  0  0  0  0  0
  150.6496  140.1325  157.1866 O   0  0  0  0  0  0  0  0  0  0  0  0
  149.8067  139.4326  156.2766 C   0  0  0  0  0  0  0  0  0  0  0  0
  145.4963  134.1284  154.2061 C   0  0  0  0  0  0  0  0  0  0  0  0
  145.3301  133.3470  152.8783 C   0  0  1  0  0  0  0  0  0  0  0  0
  145.9435  131.9452  153.0765 C   0  0  0  0  0  0  0  0  0  0  0  0
  145.2123  131.4316  149.1074 H   0  0  0  0  0  0  0  0  0  0  0  0
  145.2891  132.8244  148.0367 H   0  0  0  0  0  0  0  0  0  0  0  0
  143.7372  132.0634  148.3806 H   0  0  0  0  0  0  0  0  0  0  0  0
  145.4958  133.5548  150.4004 H   0  0  0  0  0  0  0  0  0  0  0  0
  142.9657  134.2459  149.3676 H   0  0  0  0  0  0  0  0  0  0  0  0
  142.6225  132.6616  150.8321 H   0  0  0  0  0  0  0  0  0  0  0  0
  143.9021  131.5703  151.2172 H   0  0  0  0  0  0  0  0  0  0  0  0
  143.6298  135.2658  151.7277 H   0  0  0  0  0  0  0  0  0  0  0  0
  142.1570  134.5084  152.2925 H   0  0  0  0  0  0  0  0  0  0  0  0
  142.8923  136.2688  153.8616 H   0  0  0  0  0  0  0  0  0  0  0  0
  142.8964  134.7103  154.6444 H   0  0  0  0  0  0  0  0  0  0  0  0
  146.1397  137.9427  150.8534 H   0  0  0  0  0  0  0  0  0  0  0  0
  147.1912  139.0386  157.1099 H   0  0  0  0  0  0  0  0  0  0  0  0
  147.8179  140.9929  153.8645 H   0  0  0  0  0  0  0  0  0  0  0  0
  147.5499  141.3054  155.5602 H   0  0  0  0  0  0  0  0  0  0  0  0
  149.5561  140.1337  153.2153 H   0  0  0  0  0  0  0  0  0  0  0  0
  150.5682  142.3020  154.7433 H   0  0  0  0  0  0  0  0  0  0  0  0
  149.5186  142.3153  156.1585 H   0  0  0  0  0  0  0  0  0  0  0  0
  152.1329  140.7790  155.9099 H   0  0  0  0  0  0  0  0  0  0  0  0
  151.6769  141.9449  157.1634 H   0  0  0  0  0  0  0  0  0  0  0  0
  148.9090  139.1073  156.8033 H   0  0  0  0  0  0  0  0  0  0  0  0
  150.3182  138.5364  155.9216 H   0  0  0  0  0  0  0  0  0  0  0  0
  146.5522  134.2648  154.4448 H   0  0  0  0  0  0  0  0  0  0  0  0
  145.0815  133.5413  155.0266 H   0  0  0  0  0  0  0  0  0  0  0  0
  145.8880  133.8630  152.0960 H   0  0  0  0  0  0  0  0  0  0  0  0
  146.9417  132.0199  153.5092 H   0  0  0  0  0  0  0  0  0  0  0  0
  146.0596  131.3906  152.1473 H   0  0  0  0  0  0  0  0  0  0  0  0
  145.3389  131.3419  153.7544 H   0  0  0  0  0  0  0  0  0  0  0  0
  143.4364  132.7098  153.1385 H   0  0  0  0  0  0  0  0  0  0  0  0
  1  2  1  0  0  0  0
  1 28  1  0  0  0  0
  1 29  1  0  0  0  0
  1 30  1  0  0  0  0
  2  3  1  0  0  0  0
  2  4  1  0  0  0  0
  2 31  1  0  0  0  0
  3 32  1  0  0  0  0
  4  5  1  0  0  0  0
  4 33  1  0  0  0  0
  4 34  1  0  0  0  0
  5 26  1  0  0  0  0
  5  6  1  0  0  0  0
  5 56  1  0  0  0  0
  6  7  1  0  0  0  0
  6 35  1  0  0  0  0
  6 36  1  0  0  0  0
  7  8  1  0  0  0  0
  7 37  1  0  0  0  0
  7 38  1  0  0  0  0
  8  9  1  0  0  0  0
  8 25  1  0  0  0  0
  9 14  1  0  0  0  0
  9 10  2  0  0  0  0
 10 11  1  0  0  0  0
 11 12  2  0  0  0  0
 11 39  1  0  0  0  0
 12 13  1  0  0  0  0
 13 17  1  0  0  0  0
 13 14  2  0  0  0  0
 14 15  1  0  0  0  0
 15 16  2  0  0  0  0
 16 17  1  0  0  0  0
 16 40  1  0  0  0  0
 17 18  1  0  0  0  0
 18 19  1  0  0  0  0
 18 41  1  0  0  0  0
 18 42  1  0  0  0  0
 19 24  1  0  0  0  0
 19 20  1  0  0  0  0
 19 21  1  0  0  0  0
 20 43  1  0  0  0  0
 21 22  1  0  0  0  0
 21 44  1  0  0  0  0
 21 45  1  0  0  0  0
 22 23  1  0  0  0  0
 22 46  1  0  0  0  0
 22 47  1  0  0  0  0
 23 24  1  0  0  0  0
 24 48  1  0  0  0  0
 24 49  1  0  0  0  0
 25 26  1  0  0  0  0
 25 50  1  0  0  0  0
 25 51  1  0  0  0  0
 26 27  1  0  0  0  0
 26 52  1  0  0  0  0
 27 53  1  0  0  0  0
 27 54  1  0  0  0  0
 27 55  1  0  0  0  0
M  CHG  1   5   1
M  END
> <s_m_source_file>
AV-unprocessed.smi

> <i_m_source_file_index>
224

> <i_lp_mmshare_version>
43012

> <i_f3d_flags>
0

> <s_epik_input>
W0NIM11bQ0BIXShbT0hdKVtDSDJdTjFbQ0gyXVtDSDJdTihbQ0gyXVtDQEhdMVtDSDNdKWMobltjSF1uMiljKGMyMyluW2NIXW4zW0NIMl1bQ0BAXTQoW09IXSlbQ0gyXVtDSDJdT1tDSDJdNA==

> <s_epik_cmdline>
J2VwaWtfcHl0aG9uJywgJy1waCcsICc3LjAnLCAnLXRuJywgJzgnLCAnLW1hJywgJzIwMCcsICctbWV0YWxfYmluZGluZycsICctaW1hZScsICc8aW5maWxlLm1hZT4nLCAnLW9tYWUnLCAnPG91dGZpbGUubWFlPic=

> <r_lp_tautomer_probability>
1

> <r_epik_Ionization_Penalty>
0.00516958

> <r_epik_Ionization_Penalty_Charging>
0.00509693

> <r_epik_Ionization_Penalty_Neutral>
7.26542e-05

> <r_epik_State_Penalty>
-0

> <r_epik_Charging_Adjusted_Penalty>
0.00509693

> <i_epik_Tot_Q>
1

> <i_epik_Tot_abs_Q>
1

> <r_epik_Metal_State_Penalty>
-0

> <b_epik_Metal_Only>
0

> <s_lp_Force_Field>
OPLS_2005

> <r_lp_Energy>
48.4109

> <b_lp_Chiralities_Consistent>
1

> <s_lp_Variant>
AV-unprocessed.smi:224-2

> <Gold.Version>
5.8.1

> <Gold.Id.Protein>
6NUR|6NUR_protein|mol2

> <Gold.PLP.Fitness>
47.3724

> <Gold.PLP.PLP>
-32.7884

> <Gold.PLP.part.hbond>
-4.9263

> <Gold.PLP.part.metal>
0.0000

> <Gold.PLP.part.buried>
-5.2843

> <Gold.PLP.part.nonpolar>
-22.8693

> <Gold.PLP.part.repulsive>
0.5402

> <Gold.PLP.ligand.clash>
0.0000

> <Gold.PLP.ligand.torsion>
1.0596

> <Gold.PLP.Chemscore.Hbond>
4.6612

> <Gold.PLP.Chemscore.CHOScore>
0.7329

> <Gold.PLP.Chemscore.Metal>
0.0000

> <Gold.Chemscore.Hbonds>
donor molecule, donor type, donor heavy atom, donor atom, acceptor molecule, acceptor atom, score
      L1  H     3    32       P1 10186  1.00
      L1  H     5    56       P1 10957  1.98
      L1  H    20    43       P1  7957  0.71
      P1  H  7989  7998       L1    20  0.94
      L1  C    11    39       P1 10171  0.65

> <Gold.PLP.Chemscore.Internal.Correction>
0.5210

> <Gold.Rescore>
     Score         DG    S(hbond)    S(metal)    S(lipo)     H(rot)  DE(clash)    DE(int)     intcor
     13.50     -15.95       3.13        0.00      73.70       3.36       0.08       2.37       ----

> <Gold.Chemscore.Fitness>
13.4959

> <Gold.Chemscore.DG>
-15.9510

> <Gold.Chemscore.ZeroCoef>
-5.4800

> <Gold.Chemscore.Hbond>
3.1294

> <Gold.Chemscore.Metal>
0.0000

> <Gold.Chemscore.Lipo>
73.7026

> <Gold.Chemscore.Internal_Hbond>
0.0000

> <Gold.Chemscore.DEClash>
0.0835

> <Gold.Chemscore.DEInternal>
2.3716

> <Gold.Chemscore.Rot>
3.3611

> <Gold.Chemscore.Internal.Correction>
   9.000000E+99

> <Gold.Chemscore.Hbonds>
donor molecule, donor type, donor heavy atom, donor atom, acceptor molecule, acceptor atom, score
      L1  H     3    32       P1 10186  0.96
      L1  H     5    56       P1 10957  0.28
      L1  H    20    43       P1  7957  0.69
      P1  H  7989  7998       L1    20  0.21

> <Gold.Chemscore.Hbond.Weighted>
-10.4523

> <Gold.Chemscore.Metal.Weighted>
-0.0000

> <Gold.Chemscore.Lipo.Weighted>
-8.6232

> <Gold.Chemscore.Internal_Hbond.Weighted>
0.0000

> <Gold.Chemscore.DEClash.Weighted>
0.0835

> <Gold.Chemscore.DEInternal.Weighted>
2.3716

> <Gold.Chemscore.Rot.Weighted>
8.6045

> <Gold.Chemscore.Internal.Correction.Weighted>
   9.000000E+99

> <Gold.Protein.RotatedTorsions>
[ 6907 6896 6895 6894 ] final -170.74 input  -60.11 | X-H torsion
[ 7974 7965 7964 7962 ] final  116.66 input  175.53 | X-H torsion
[ 8008 7997 7996 7995 ] final -166.38 input   59.86 | X-H torsion
[ 10167 10162 10161 10158 ] final   15.64 input  -65.29 | X-H torsion
[ 10718 10713 10712 10709 ] final   15.74 input   66.30 | X-H torsion
[ 10763 10752 10751 10750 ] final   41.66 input  -60.55 | X-H torsion
[ 11005 11000 10999 10996 ] final   18.19 input  -57.11 | X-H torsion

> <Gold.Protein.ActiveResidues>
 VAL166  LYS551  ARG553  GLY616  TRP617  ASP618  TYR619  PRO620  LYS621  CYS622 
 ASP623  PHE694  ASN695  SER759  ASP760  ASP761  ALA762  ILE779  LEU786  VAL792 
 PHE793  MET794  SER795  GLU796  ALA797  LYS798  CYS799  TRP800  GLU811  SER814 

> <Gold.Protein.RotatedAtoms>
  151.5126  133.3482  159.2887 H   0  0  0  0  0  0  0  0  0  0  0  0  # atno 6907 bound_to 6896
  150.8702  134.8077  159.7160 H   0  0  0  0  0  0  0  0  0  0  0  0  # atno 6908 bound_to 6896
  152.4693  134.5009  159.9776 H   0  0  0  0  0  0  0  0  0  0  0  0  # atno 6909 bound_to 6896
  145.1769  139.3070  143.4438 H   0  0  0  0  0  0  0  0  0  0  0  0  # atno 7974 bound_to 7965
  155.8631  140.0981  157.1600 H   0  0  0  0  0  0  0  0  0  0  0  0  # atno 8008 bound_to 7997
  154.3992  140.1361  156.4047 H   0  0  0  0  0  0  0  0  0  0  0  0  # atno 8009 bound_to 7997
  155.7835  140.3458  155.5312 H   0  0  0  0  0  0  0  0  0  0  0  0  # atno 8010 bound_to 7997
  140.5853  143.8901  150.6825 H   0  0  0  0  0  0  0  0  0  0  0  0  # atno 10167 bound_to 10162
  157.0579  130.6297  149.5780 H   0  0  0  0  0  0  0  0  0  0  0  0  # atno 10718 bound_to 10713
  152.9902  135.6155  154.2823 H   0  0  0  0  0  0  0  0  0  0  0  0  # atno 10763 bound_to 10752
  154.2552  135.2784  155.2802 H   0  0  0  0  0  0  0  0  0  0  0  0  # atno 10764 bound_to 10752
  154.5254  135.5803  153.6772 H   0  0  0  0  0  0  0  0  0  0  0  0  # atno 10765 bound_to 10752
  140.4276  134.1454  155.7678 H   0  0  0  0  0  0  0  0  0  0  0  0  # atno 11005 bound_to 11000
  146.3459  140.1935  142.8589 LP  0  0  0  0  0  0  0  0  0  0  0  0  # atno 17320 bound_to 7965
  145.0175  140.8766  143.5187 LP  0  0  0  0  0  0  0  0  0  0  0  0  # atno 17321 bound_to 7965
  140.2411  143.3663  152.1486 LP  0  0  0  0  0  0  0  0  0  0  0  0  # atno 17342 bound_to 10162
  139.5194  144.7019  151.5469 LP  0  0  0  0  0  0  0  0  0  0  0  0  # atno 17343 bound_to 10162
  155.9987  130.5062  150.7582 LP  0  0  0  0  0  0  0  0  0  0  0  0  # atno 17370 bound_to 10713
  157.4978  131.0916  151.0350 LP  0  0  0  0  0  0  0  0  0  0  0  0  # atno 17371 bound_to 10713
  141.1759  133.8515  157.1423 LP  0  0  0  0  0  0  0  0  0  0  0  0  # atno 17394 bound_to 11000
  140.0157  134.9968  157.0487 LP  0  0  0  0  0  0  0  0  0  0  0  0  # atno 17395 bound_to 11000

$$$$
