AV-unprocessed.smi:3303|AV-procd|sdf|12659|dock2
  -GOLD-   2272018593D 1   1.00000     0.00000
 Structure written by MMmdl.
 45 46  0  0  0  0  0  0  0  0  3 V2000
  152.1808  139.7325  155.6348 C   0  0  0  0  0  0  0  0  0  0  0  0
  150.6681  139.6285  155.3720 C   0  0  2  0  0  0  0  0  0  0  0  0
  150.3905  138.5192  154.3299 C   0  0  0  0  0  0  0  0  0  0  0  0
  148.9458  138.3816  154.0119 N   0  3  1  0  0  0  0  0  0  0  0  0
  148.1781  137.7066  155.0894 C   0  0  0  0  0  0  0  0  0  0  0  0
  148.3705  139.6664  153.5202 C   0  0  1  0  0  0  0  0  0  0  0  0
  146.9034  139.5361  153.0756 C   0  0  0  0  0  0  0  0  0  0  0  0
  148.5770  140.7997  154.5458 C   0  0  0  0  0  0  0  0  0  0  0  0
  150.0637  140.9751  154.9073 C   0  0  1  0  0  0  0  0  0  0  0  0
  150.1976  142.0082  155.9601 N   0  3  0  0  0  0  0  0  0  0  0  0
  149.6912  141.6090  157.2887 C   0  0  0  0  0  0  0  0  0  0  0  0
  150.8401  141.4721  158.2967 C   0  0  0  0  0  0  0  0  0  0  0  0
  151.2610  142.8106  158.8722 C   0  0  0  0  0  0  0  0  0  0  0  0
  151.7453  143.8367  158.0332 C   0  0  0  0  0  0  0  0  0  0  0  0
  152.1170  145.0623  158.6193 C   0  0  0  0  0  0  0  0  0  0  0  0
  151.9892  145.2133  160.0135 C   0  0  0  0  0  0  0  0  0  0  0  0
  151.4929  144.1282  160.7631 C   0  0  0  0  0  0  0  0  0  0  0  0
  151.1322  142.9493  160.2107 N   0  0  0  0  0  0  0  0  0  0  0  0
  152.7194  140.0421  154.7385 H   0  0  0  0  0  0  0  0  0  0  0  0
  152.5898  138.7722  155.9508 H   0  0  0  0  0  0  0  0  0  0  0  0
  152.4050  140.4519  156.4225 H   0  0  0  0  0  0  0  0  0  0  0  0
  150.1931  139.3425  156.3116 H   0  0  0  0  0  0  0  0  0  0  0  0
  150.9232  138.7439  153.4044 H   0  0  0  0  0  0  0  0  0  0  0  0
  150.7818  137.5616  154.6763 H   0  0  0  0  0  0  0  0  0  0  0  0
  148.0748  138.3328  155.9750 H   0  0  0  0  0  0  0  0  0  0  0  0
  148.6745  136.7830  155.3891 H   0  0  0  0  0  0  0  0  0  0  0  0
  147.1803  137.4293  154.7505 H   0  0  0  0  0  0  0  0  0  0  0  0
  148.9380  139.9282  152.6254 H   0  0  0  0  0  0  0  0  0  0  0  0
  146.5693  140.4466  152.5773 H   0  0  0  0  0  0  0  0  0  0  0  0
  146.2328  139.3676  153.9187 H   0  0  0  0  0  0  0  0  0  0  0  0
  146.7756  138.7136  152.3709 H   0  0  0  0  0  0  0  0  0  0  0  0
  148.1917  141.7350  154.1372 H   0  0  0  0  0  0  0  0  0  0  0  0
  147.9928  140.6017  155.4455 H   0  0  0  0  0  0  0  0  0  0  0  0
  150.5923  141.2989  154.0083 H   0  0  0  0  0  0  0  0  0  0  0  0
  151.1746  142.2478  156.0537 H   0  0  0  0  0  0  0  0  0  0  0  0
  148.9768  142.3542  157.6415 H   0  0  0  0  0  0  0  0  0  0  0  0
  149.1552  140.6633  157.1963 H   0  0  0  0  0  0  0  0  0  0  0  0
  150.5448  140.8140  159.1154 H   0  0  0  0  0  0  0  0  0  0  0  0
  151.7011  141.0016  157.8199 H   0  0  0  0  0  0  0  0  0  0  0  0
  151.8316  143.6921  156.9662 H   0  0  0  0  0  0  0  0  0  0  0  0
  152.4920  145.8720  158.0109 H   0  0  0  0  0  0  0  0  0  0  0  0
  152.2650  146.1387  160.4973 H   0  0  0  0  0  0  0  0  0  0  0  0
  151.3814  144.2096  161.8342 H   0  0  0  0  0  0  0  0  0  0  0  0
  149.6943  142.8322  155.6631 H   0  0  0  0  0  0  0  0  0  0  0  0
  148.9023  137.7447  153.2285 H   0  0  0  0  0  0  0  0  0  0  0  0
  1  2  1  0  0  0  0
  1 19  1  0  0  0  0
  1 20  1  0  0  0  0
  1 21  1  0  0  0  0
  2  9  1  0  0  0  0
  2  3  1  0  0  0  0
  2 22  1  0  0  0  0
  3  4  1  0  0  0  0
  3 23  1  0  0  0  0
  3 24  1  0  0  0  0
  4  5  1  0  0  0  0
  4  6  1  0  0  0  0
  4 45  1  0  0  0  0
  5 25  1  0  0  0  0
  5 26  1  0  0  0  0
  5 27  1  0  0  0  0
  6  7  1  0  0  0  0
  6  8  1  0  0  0  0
  6 28  1  0  0  0  0
  7 29  1  0  0  0  0
  7 30  1  0  0  0  0
  7 31  1  0  0  0  0
  8  9  1  0  0  0  0
  8 32  1  0  0  0  0
  8 33  1  0  0  0  0
  9 10  1  0  0  0  0
  9 34  1  0  0  0  0
 10 11  1  0  0  0  0
 10 35  1  0  0  0  0
 10 44  1  0  0  0  0
 11 12  1  0  0  0  0
 11 36  1  0  0  0  0
 11 37  1  0  0  0  0
 12 13  1  0  0  0  0
 12 38  1  0  0  0  0
 12 39  1  0  0  0  0
 13 18  1  0  0  0  0
 13 14  2  0  0  0  0
 14 15  1  0  0  0  0
 14 40  1  0  0  0  0
 15 16  2  0  0  0  0
 15 41  1  0  0  0  0
 16 17  1  0  0  0  0
 16 42  1  0  0  0  0
 17 18  2  0  0  0  0
 17 43  1  0  0  0  0
M  CHG  1   4   1
M  CHG  1  10   1
M  END
> <s_m_source_file>
AV-unprocessed.smi

> <i_m_source_file_index>
3303

> <i_lp_mmshare_version>
43012

> <i_f3d_flags>
0

> <s_epik_input>
W0NIM11bQ0BASF0xW0NIMl1OKFtDSDNdKVtDQEBIXShbQ0gzXSlbQ0gyXVtDQEhdMVtOSF1bQ0gyXVtDSDJdYzJbY0hdW2NIXVtjSF1bY0hdbjI=

> <s_epik_cmdline>
J2VwaWtfcHl0aG9uJywgJy1waCcsICc3LjAnLCAnLXRuJywgJzgnLCAnLW1hJywgJzIwMCcsICctbWV0YWxfYmluZGluZycsICctaW1hZScsICc8aW5maWxlLm1hZT4nLCAnLW9tYWUnLCAnPG91dGZpbGUubWFlPic=

> <r_epik_Ionization_Penalty>
0.0769462

> <r_epik_Ionization_Penalty_Charging>
0.0759813

> <r_epik_Ionization_Penalty_Neutral>
0.000964829

> <r_epik_State_Penalty>
0.0654373

> <r_epik_Charging_Adjusted_Penalty>
0.141419

> <i_epik_Tot_Q>
2

> <i_epik_Tot_abs_Q>
2

> <r_epik_Metal_State_Penalty>
0.0656439

> <b_epik_Metal_Only>
0

> <s_lp_Force_Field>
OPLS_2005

> <r_lp_Energy>
31.8581

> <b_lp_Chiralities_Consistent>
1

> <s_lp_Variant>
AV-unprocessed.smi:3303-3

> <Gold.Version>
5.8.1

> <Gold.Id.Protein>
6NUR|6NUR_protein|mol2

> <Gold.PLP.Fitness>
50.9798

> <Gold.PLP.PLP>
-39.9754

> <Gold.PLP.part.hbond>
-2.9991

> <Gold.PLP.part.metal>
0.0000

> <Gold.PLP.part.buried>
-0.4505

> <Gold.PLP.part.nonpolar>
-36.7414

> <Gold.PLP.part.repulsive>
0.1871

> <Gold.PLP.ligand.clash>
0.0000

> <Gold.PLP.ligand.torsion>
0.5085

> <Gold.PLP.Chemscore.Hbond>
4.0000

> <Gold.PLP.Chemscore.CHOScore>
0.0000

> <Gold.PLP.Chemscore.Metal>
0.0000

> <Gold.Chemscore.Hbonds>
donor molecule, donor type, donor heavy atom, donor atom, acceptor molecule, acceptor atom, score
      L1  H     4    45       P1  7948  2.00
      L1  H    10    44       P1  8028  1.89

> <Gold.PLP.Chemscore.Internal.Correction>
0.0213

> <Gold.Rescore>
     Score         DG    S(hbond)    S(metal)    S(lipo)     H(rot)  DE(clash)    DE(int)     intcor
     19.91     -23.34       1.95        0.00     127.21       1.37       2.92       0.51       ----

> <Gold.Chemscore.Fitness>
19.9145

> <Gold.Chemscore.DG>
-23.3425

> <Gold.Chemscore.ZeroCoef>
-5.4800

> <Gold.Chemscore.Hbond>
1.9452

> <Gold.Chemscore.Metal>
0.0000

> <Gold.Chemscore.Lipo>
127.2120

> <Gold.Chemscore.Internal_Hbond>
0.0000

> <Gold.Chemscore.DEClash>
2.9170

> <Gold.Chemscore.DEInternal>
0.5110

> <Gold.Chemscore.Rot>
1.3744

> <Gold.Chemscore.Internal.Correction>
   9.000000E+99

> <Gold.Chemscore.Hbonds>
donor molecule, donor type, donor heavy atom, donor atom, acceptor molecule, acceptor atom, score
      L1  H     4    45       P1  7948  0.94
      L1  H    10    44       P1  8028  0.90

> <Gold.Chemscore.Hbond.Weighted>
-6.4971

> <Gold.Chemscore.Metal.Weighted>
-0.0000

> <Gold.Chemscore.Lipo.Weighted>
-14.8838

> <Gold.Chemscore.Internal_Hbond.Weighted>
0.0000

> <Gold.Chemscore.DEClash.Weighted>
2.9170

> <Gold.Chemscore.DEInternal.Weighted>
0.5110

> <Gold.Chemscore.Rot.Weighted>
3.5185

> <Gold.Chemscore.Internal.Correction.Weighted>
   9.000000E+99

> <Gold.Protein.RotatedTorsions>
[ 6907 6896 6895 6894 ] final  157.62 input  -60.11 | X-H torsion
[ 7974 7965 7964 7962 ] final -174.54 input  175.53 | X-H torsion
[ 8008 7997 7996 7995 ] final  118.85 input   59.86 | X-H torsion
[ 10167 10162 10161 10158 ] final  -14.48 input  -65.29 | X-H torsion
[ 10718 10713 10712 10709 ] final   60.07 input   66.30 | X-H torsion
[ 10763 10752 10751 10750 ] final -142.85 input  -60.55 | X-H torsion
[ 11005 11000 10999 10996 ] final  -60.24 input  -57.11 | X-H torsion

> <Gold.Protein.ActiveResidues>
 VAL166  LYS551  ARG553  GLY616  TRP617  ASP618  TYR619  PRO620  LYS621  CYS622 
 ASP623  PHE694  ASN695  SER759  ASP760  ASP761  ALA762  ILE779  LEU786  VAL792 
 PHE793  MET794  SER795  GLU796  ALA797  LYS798  CYS799  TRP800  GLU811  SER814 

> <Gold.Protein.RotatedAtoms>
  152.0124  133.3866  159.4224 H   0  0  0  0  0  0  0  0  0  0  0  0  # atno 6907 bound_to 6896
  150.6898  134.3715  159.5003 H   0  0  0  0  0  0  0  0  0  0  0  0  # atno 6908 bound_to 6896
  152.1478  134.9012  160.0600 H   0  0  0  0  0  0  0  0  0  0  0  0  # atno 6909 bound_to 6896
  144.7131  140.1455  143.6388 H   0  0  0  0  0  0  0  0  0  0  0  0  # atno 7974 bound_to 7965
  156.2567  140.2865  156.0900 H   0  0  0  0  0  0  0  0  0  0  0  0  # atno 8008 bound_to 7997
  155.1473  140.0397  157.2830 H   0  0  0  0  0  0  0  0  0  0  0  0  # atno 8009 bound_to 7997
  154.6486  140.2539  155.7246 H   0  0  0  0  0  0  0  0  0  0  0  0  # atno 8010 bound_to 7997
  140.7202  143.5317  150.9512 H   0  0  0  0  0  0  0  0  0  0  0  0  # atno 10167 bound_to 10162
  157.5724  130.8918  149.9290 H   0  0  0  0  0  0  0  0  0  0  0  0  # atno 10718 bound_to 10713
  154.8493  135.3484  154.6094 H   0  0  0  0  0  0  0  0  0  0  0  0  # atno 10763 bound_to 10752
  153.6702  135.6985  153.5154 H   0  0  0  0  0  0  0  0  0  0  0  0  # atno 10764 bound_to 10752
  153.2748  135.4282  155.0979 H   0  0  0  0  0  0  0  0  0  0  0  0  # atno 10765 bound_to 10752
  141.1279  133.6621  156.5193 H   0  0  0  0  0  0  0  0  0  0  0  0  # atno 11005 bound_to 11000
  145.9163  139.2518  143.1408 LP  0  0  0  0  0  0  0  0  0  0  0  0  # atno 17320 bound_to 7965
  145.9665  140.8794  143.0184 LP  0  0  0  0  0  0  0  0  0  0  0  0  # atno 17321 bound_to 7965
  139.9037  143.6804  152.3127 LP  0  0  0  0  0  0  0  0  0  0  0  0  # atno 17342 bound_to 10162
  139.7163  144.7611  151.1029 LP  0  0  0  0  0  0  0  0  0  0  0  0  # atno 17343 bound_to 10162
  156.0769  130.3678  150.0659 LP  0  0  0  0  0  0  0  0  0  0  0  0  # atno 17370 bound_to 10713
  156.8810  130.9556  151.3599 LP  0  0  0  0  0  0  0  0  0  0  0  0  # atno 17371 bound_to 10713
  140.4305  134.7106  157.4939 LP  0  0  0  0  0  0  0  0  0  0  0  0  # atno 17394 bound_to 11000
  140.0297  134.6424  155.9123 LP  0  0  0  0  0  0  0  0  0  0  0  0  # atno 17395 bound_to 11000

$$$$
