AV-unprocessed.smi:1240|AV-procd|sdf|5201|dock4
  -GOLD-   22720 4293D 1   1.00000     0.00000
 Structure written by MMmdl.
 48 50  0  0  0  0  0  0  0  0  2 V2000
  144.4652  136.7435  152.2463 O   0  0  0  0  0  0  0  0  0  0  0  0
  145.6803  136.5506  152.2221 C   0  0  0  0  0  0  0  0  0  0  0  0
  146.5726  137.4336  152.6880 N   0  0  0  0  0  0  0  0  0  0  0  0
  146.2245  138.7321  153.2561 C   0  0  0  0  0  0  0  0  0  0  0  0
  146.5121  138.7882  154.7777 C   0  0  2  0  0  0  0  0  0  0  0  0
  145.4610  139.6742  155.5249 C   0  0  1  0  0  0  0  0  0  0  0  0
  144.0501  139.0957  155.5395 C   0  0  0  0  0  0  0  0  0  0  0  0
  143.4162  139.7875  156.7344 C   0  0  0  0  0  0  0  0  0  0  0  0
  144.4512  139.7588  157.6992 O   0  0  0  0  0  0  0  0  0  0  0  0
  145.7078  139.8626  157.0374 C   0  0  0  0  0  0  0  0  0  0  0  0
  147.9503  139.1830  154.9621 N   0  3  0  0  0  0  0  0  0  0  0  0
  148.9995  138.3291  154.3463 C   0  0  0  0  0  0  0  0  0  0  0  0
  150.3995  138.8192  154.7546 C   0  0  0  0  0  0  0  0  0  0  0  0
  150.5638  140.1774  154.3708 O   0  0  0  0  0  0  0  0  0  0  0  0
  149.6217  141.0249  155.0138 C   0  0  0  0  0  0  0  0  0  0  0  0
  148.1975  140.6063  154.6131 C   0  0  0  0  0  0  0  0  0  0  0  0
  146.2863  135.4443  151.7574 N   0  0  0  0  0  0  0  0  0  0  0  0
  145.6944  134.2950  151.1682 C   0  0  0  0  0  0  0  0  0  0  0  0
  146.5517  133.2684  150.7215 C   0  0  0  0  0  0  0  0  0  0  0  0
  145.9865  132.1271  150.1182 C   0  0  0  0  0  0  0  0  0  0  0  0
  144.6593  131.9670  149.9325 N   0  0  0  0  0  0  0  0  0  0  0  0
  143.8417  132.9582  150.3459 C   0  0  0  0  0  0  0  0  0  0  0  0
  144.3027  134.1385  150.9626 C   0  0  0  0  0  0  0  0  0  0  0  0
  147.5533  137.2032  152.6240 H   0  0  0  0  0  0  0  0  0  0  0  0
  146.7645  139.5152  152.7234 H   0  0  0  0  0  0  0  0  0  0  0  0
  145.1704  138.9294  153.0595 H   0  0  0  0  0  0  0  0  0  0  0  0
  146.3917  137.7752  155.1654 H   0  0  0  0  0  0  0  0  0  0  0  0
  145.3905  140.6538  155.0499 H   0  0  0  0  0  0  0  0  0  0  0  0
  143.5008  139.2804  154.6156 H   0  0  0  0  0  0  0  0  0  0  0  0
  144.0758  138.0189  155.7140 H   0  0  0  0  0  0  0  0  0  0  0  0
  143.1631  140.8221  156.4983 H   0  0  0  0  0  0  0  0  0  0  0  0
  142.5186  139.2820  157.0912 H   0  0  0  0  0  0  0  0  0  0  0  0
  146.3745  139.1004  157.4420 H   0  0  0  0  0  0  0  0  0  0  0  0
  146.1441  140.8380  157.2520 H   0  0  0  0  0  0  0  0  0  0  0  0
  148.9005  137.2940  154.6690 H   0  0  0  0  0  0  0  0  0  0  0  0
  148.9114  138.3559  153.2599 H   0  0  0  0  0  0  0  0  0  0  0  0
  150.5531  138.7109  155.8295 H   0  0  0  0  0  0  0  0  0  0  0  0
  151.1651  138.2190  154.2627 H   0  0  0  0  0  0  0  0  0  0  0  0
  149.7517  140.9825  156.0965 H   0  0  0  0  0  0  0  0  0  0  0  0
  149.8097  142.0548  154.7101 H   0  0  0  0  0  0  0  0  0  0  0  0
  148.0568  140.7481  153.5404 H   0  0  0  0  0  0  0  0  0  0  0  0
  147.4810  141.2570  155.1131 H   0  0  0  0  0  0  0  0  0  0  0  0
  147.2859  135.3946  151.8877 H   0  0  0  0  0  0  0  0  0  0  0  0
  147.6225  133.3449  150.8419 H   0  0  0  0  0  0  0  0  0  0  0  0
  146.6186  131.3220  149.7739 H   0  0  0  0  0  0  0  0  0  0  0  0
  142.7858  132.8098  150.1742 H   0  0  0  0  0  0  0  0  0  0  0  0
  143.5891  134.8956  151.2491 H   0  0  0  0  0  0  0  0  0  0  0  0
  148.1109  139.1083  155.9566 H   0  0  0  0  0  0  0  0  0  0  0  0
  1  2  2  0  0  0  0
  2  3  1  0  0  0  0
  2 17  1  0  0  0  0
  3  4  1  0  0  0  0
  3 24  1  0  0  0  0
  4  5  1  0  0  0  0
  4 25  1  0  0  0  0
  4 26  1  0  0  0  0
  5  6  1  0  0  0  0
  5 11  1  0  0  0  0
  5 27  1  0  0  0  0
  6 10  1  0  0  0  0
  6  7  1  0  0  0  0
  6 28  1  0  0  0  0
  7  8  1  0  0  0  0
  7 29  1  0  0  0  0
  7 30  1  0  0  0  0
  8  9  1  0  0  0  0
  8 31  1  0  0  0  0
  8 32  1  0  0  0  0
  9 10  1  0  0  0  0
 10 33  1  0  0  0  0
 10 34  1  0  0  0  0
 11 16  1  0  0  0  0
 11 12  1  0  0  0  0
 11 48  1  0  0  0  0
 12 13  1  0  0  0  0
 12 35  1  0  0  0  0
 12 36  1  0  0  0  0
 13 14  1  0  0  0  0
 13 37  1  0  0  0  0
 13 38  1  0  0  0  0
 14 15  1  0  0  0  0
 15 16  1  0  0  0  0
 15 39  1  0  0  0  0
 15 40  1  0  0  0  0
 16 41  1  0  0  0  0
 16 42  1  0  0  0  0
 17 18  1  0  0  0  0
 17 43  1  0  0  0  0
 18 23  1  0  0  0  0
 18 19  2  0  0  0  0
 19 20  1  0  0  0  0
 19 44  1  0  0  0  0
 20 21  2  0  0  0  0
 20 45  1  0  0  0  0
 21 22  1  0  0  0  0
 22 23  2  0  0  0  0
 22 46  1  0  0  0  0
 23 47  1  0  0  0  0
M  CHG  1  11   1
M  END
> <s_m_source_file>
AV-unprocessed.smi

> <i_m_source_file_index>
1240

> <i_lp_mmshare_version>
43012

> <i_f3d_flags>
0

> <s_epik_input>
W2NIXTFbY0hdbltjSF1bY0hdYzFbTkhdQyg9TylbTkhdW0NIMl1bQ0BIXShbQ0BASF0yW0NIMl1bQ0gyXU9bQ0gyXTIpTjNbQ0gyXVtDSDJdT1tDSDJdW0NIMl0z

> <s_epik_cmdline>
J2VwaWtfcHl0aG9uJywgJy1waCcsICc3LjAnLCAnLXRuJywgJzgnLCAnLW1hJywgJzIwMCcsICctbWV0YWxfYmluZGluZycsICctaW1hZScsICc8aW5maWxlLm1hZT4nLCAnLW9tYWUnLCAnPG91dGZpbGUubWFlPic=

> <r_epik_Ionization_Penalty>
1.08433

> <r_epik_Ionization_Penalty_Charging>
0.98326

> <r_epik_Ionization_Penalty_Neutral>
0.10107

> <r_epik_State_Penalty>
1.11265

> <r_epik_Charging_Adjusted_Penalty>
2.09591

> <i_epik_Tot_Q>
1

> <i_epik_Tot_abs_Q>
1

> <r_epik_Metal_State_Penalty>
1.10731

> <b_epik_Metal_Only>
0

> <s_lp_Force_Field>
OPLS_2005

> <r_lp_Energy>
52.9252

> <b_lp_Chiralities_Consistent>
1

> <s_lp_Variant>
AV-unprocessed.smi:1240-7

> <Gold.Version>
5.8.1

> <Gold.Id.Protein>
6NUR|6NUR_protein|mol2

> <Gold.PLP.Fitness>
43.7528

> <Gold.PLP.PLP>
-29.6777

> <Gold.PLP.part.hbond>
-2.9956

> <Gold.PLP.part.metal>
0.0000

> <Gold.PLP.part.buried>
-5.3937

> <Gold.PLP.part.nonpolar>
-23.3607

> <Gold.PLP.part.repulsive>
0.5385

> <Gold.PLP.ligand.clash>
0.0000

> <Gold.PLP.ligand.torsion>
0.5182

> <Gold.PLP.Chemscore.Hbond>
3.0000

> <Gold.PLP.Chemscore.CHOScore>
1.9998

> <Gold.PLP.Chemscore.Metal>
0.0000

> <Gold.Chemscore.Hbonds>
donor molecule, donor type, donor heavy atom, donor atom, acceptor molecule, acceptor atom, score
      L1  H     3    24       P1  7948  1.00
      L1  H    17    43       P1  7948  0.99
      P1  H  7989  7998       L1    14  1.00
      L1  C    20    45       P1 10747  1.00
      L1  C    22    46       P1 10186  1.00

> <Gold.PLP.Chemscore.Internal.Correction>
0.1122

> <Gold.Rescore>
     Score         DG    S(hbond)    S(metal)    S(lipo)     H(rot)  DE(clash)    DE(int)     intcor
     16.81     -19.37       2.90        0.00      73.29       1.70       0.08       2.49       ----

> <Gold.Chemscore.Fitness>
16.8067

> <Gold.Chemscore.DG>
-19.3734

> <Gold.Chemscore.ZeroCoef>
-5.4800

> <Gold.Chemscore.Hbond>
2.8970

> <Gold.Chemscore.Metal>
0.0000

> <Gold.Chemscore.Lipo>
73.2894

> <Gold.Chemscore.Internal_Hbond>
0.0000

> <Gold.Chemscore.DEClash>
0.0768

> <Gold.Chemscore.DEInternal>
2.4898

> <Gold.Chemscore.Rot>
1.7021

> <Gold.Chemscore.Internal.Correction>
   9.000000E+99

> <Gold.Chemscore.Hbonds>
donor molecule, donor type, donor heavy atom, donor atom, acceptor molecule, acceptor atom, score
      L1  H     3    24       P1  7948  0.94
      L1  H    17    43       P1  7948  0.94
      P1  H  7989  7998       L1    14  0.87

> <Gold.Chemscore.Hbond.Weighted>
-9.6760

> <Gold.Chemscore.Metal.Weighted>
-0.0000

> <Gold.Chemscore.Lipo.Weighted>
-8.5749

> <Gold.Chemscore.Internal_Hbond.Weighted>
0.0000

> <Gold.Chemscore.DEClash.Weighted>
0.0768

> <Gold.Chemscore.DEInternal.Weighted>
2.4898

> <Gold.Chemscore.Rot.Weighted>
4.3575

> <Gold.Chemscore.Internal.Correction.Weighted>
   9.000000E+99

> <Gold.Protein.RotatedTorsions>
[ 6907 6896 6895 6894 ] final -103.92 input  -60.11 | X-H torsion
[ 7974 7965 7964 7962 ] final -137.43 input  175.53 | X-H torsion
[ 8008 7997 7996 7995 ] final  -81.33 input   59.86 | X-H torsion
[ 10167 10162 10161 10158 ] final   -6.92 input  -65.29 | X-H torsion
[ 10718 10713 10712 10709 ] final  106.53 input   66.30 | X-H torsion
[ 10763 10752 10751 10750 ] final  -42.98 input  -60.55 | X-H torsion
[ 11005 11000 10999 10996 ] final -122.84 input  -57.11 | X-H torsion

> <Gold.Protein.ActiveResidues>
 VAL166  LYS551  ARG553  GLY616  TRP617  ASP618  TYR619  PRO620  LYS621  CYS622 
 ASP623  PHE694  ASN695  SER759  ASP760  ASP761  ALA762  ILE779  LEU786  VAL792 
 PHE793  MET794  SER795  GLU796  ALA797  LYS798  CYS799  TRP800  GLU811  SER814 

> <Gold.Protein.RotatedAtoms>
  150.7262  134.0356  159.3748 H   0  0  0  0  0  0  0  0  0  0  0  0  # atno 6907 bound_to 6896
  151.8328  135.0614  160.0448 H   0  0  0  0  0  0  0  0  0  0  0  0  # atno 6908 bound_to 6896
  152.2921  133.5535  159.5600 H   0  0  0  0  0  0  0  0  0  0  0  0  # atno 6909 bound_to 6896
  144.8842  140.6551  143.5186 H   0  0  0  0  0  0  0  0  0  0  0  0  # atno 7974 bound_to 7965
  154.5972  140.0649  156.9320 H   0  0  0  0  0  0  0  0  0  0  0  0  # atno 8008 bound_to 7997
  155.2194  140.3329  155.4299 H   0  0  0  0  0  0  0  0  0  0  0  0  # atno 8009 bound_to 7997
  156.2295  140.1834  156.7263 H   0  0  0  0  0  0  0  0  0  0  0  0  # atno 8010 bound_to 7997
  140.7012  143.6139  150.8677 H   0  0  0  0  0  0  0  0  0  0  0  0  # atno 10167 bound_to 10162
  157.6665  131.0852  150.6020 H   0  0  0  0  0  0  0  0  0  0  0  0  # atno 10718 bound_to 10713
  153.9879  135.6709  153.4753 H   0  0  0  0  0  0  0  0  0  0  0  0  # atno 10763 bound_to 10752
  153.0718  135.4970  154.8317 H   0  0  0  0  0  0  0  0  0  0  0  0  # atno 10764 bound_to 10752
  154.7126  135.3100  154.9135 H   0  0  0  0  0  0  0  0  0  0  0  0  # atno 10765 bound_to 10752
  140.9965  134.0465  157.3591 H   0  0  0  0  0  0  0  0  0  0  0  0  # atno 11005 bound_to 11000
  145.3898  139.1619  143.4235 LP  0  0  0  0  0  0  0  0  0  0  0  0  # atno 17320 bound_to 7965
  146.3014  140.3987  142.8703 LP  0  0  0  0  0  0  0  0  0  0  0  0  # atno 17321 bound_to 7965
  139.9861  143.5898  152.2926 LP  0  0  0  0  0  0  0  0  0  0  0  0  # atno 17342 bound_to 10162
  139.6536  144.7661  151.2099 LP  0  0  0  0  0  0  0  0  0  0  0  0  # atno 17343 bound_to 10162
  156.6320  130.4435  149.5783 LP  0  0  0  0  0  0  0  0  0  0  0  0  # atno 17370 bound_to 10713
  156.2274  130.6774  151.1430 LP  0  0  0  0  0  0  0  0  0  0  0  0  # atno 17371 bound_to 10713
  139.9017  135.0167  156.7300 LP  0  0  0  0  0  0  0  0  0  0  0  0  # atno 17394 bound_to 11000
  140.6958  133.9350  155.7994 LP  0  0  0  0  0  0  0  0  0  0  0  0  # atno 17395 bound_to 11000

$$$$
