AV-unprocessed.smi:155|AV-procd|sdf|1273|dock1
  -GOLD-   2262018533D 1   1.00000     0.00000
 Structure written by MMmdl.
 63 66  0  0  0  0  0  0  0  0  2 V2000
  143.9238  132.7389  150.8659 C   0  0  0  0  0  0  0  0  0  0  0  0
  145.1265  133.5562  150.9841 N   0  0  0  0  0  0  0  0  0  0  0  0
  146.1643  132.9599  150.1543 C   0  0  0  0  0  0  0  0  0  0  0  0
  145.5906  133.6249  152.3703 C   0  0  0  0  0  0  0  0  0  0  0  0
  146.7062  134.6758  152.5508 C   0  0  0  0  0  0  0  0  0  0  0  0
  147.6906  134.2675  153.5869 N   0  3  2  0  0  0  0  0  0  0  0  0
  148.5353  133.1078  153.1752 C   0  0  0  0  0  0  0  0  0  0  0  0
  149.4321  132.5421  154.2968 C   0  0  0  0  0  0  0  0  0  0  0  0
  150.2867  133.6025  155.0172 C   0  0  0  0  0  0  0  0  0  0  0  0
  149.4821  134.6797  155.6039 N   0  0  0  0  0  0  0  0  0  0  0  0
  149.9232  135.9644  155.5010 C   0  0  0  0  0  0  0  0  0  0  0  0
  150.7534  136.2711  154.4690 N   0  0  0  0  0  0  0  0  0  0  0  0
  151.2117  137.5146  154.3066 C   0  0  0  0  0  0  0  0  0  0  0  0
  150.9665  138.5952  155.0470 N   0  0  0  0  0  0  0  0  0  0  0  0
  150.1346  138.3022  156.0861 C   0  0  0  0  0  0  0  0  0  0  0  0
  149.5739  137.0273  156.3890 C   0  0  0  0  0  0  0  0  0  0  0  0
  148.7706  137.1350  157.5198 N   0  0  0  0  0  0  0  0  0  0  0  0
  148.8667  138.3867  157.8730 C   0  0  0  0  0  0  0  0  0  0  0  0
  149.6676  139.1599  157.0666 N   0  0  0  0  0  0  0  0  0  0  0  0
  149.9572  140.5755  157.2242 C   0  0  0  0  0  0  0  0  0  0  0  0
  151.0488  140.8799  158.2751 C   0  0  1  0  0  0  0  0  0  0  0  0
  152.3176  140.4519  157.8177 O   0  0  0  0  0  0  0  0  0  0  0  0
  151.1137  142.3499  158.7513 C   0  0  1  0  0  0  0  0  0  0  0  0
  152.1908  142.6727  159.7959 C   0  0  0  0  0  0  0  0  0  0  0  0
  152.6101  144.1003  159.4662 C   0  0  0  0  0  0  0  0  0  0  0  0
  151.7028  144.5031  158.3046 C   0  0  0  0  0  0  0  0  0  0  0  0
  151.3645  143.2683  157.6972 O   0  0  0  0  0  0  0  0  0  0  0  0
  148.1299  134.3835  156.0844 C   0  0  0  0  0  0  0  0  0  0  0  0
  147.0998  134.1420  154.9489 C   0  0  0  0  0  0  0  0  0  0  0  0
  143.0926  133.1655  151.4257 H   0  0  0  0  0  0  0  0  0  0  0  0
  144.0936  131.7238  151.2278 H   0  0  0  0  0  0  0  0  0  0  0  0
  143.6095  132.6770  149.8234 H   0  0  0  0  0  0  0  0  0  0  0  0
  147.0755  133.5582  150.1891 H   0  0  0  0  0  0  0  0  0  0  0  0
  145.8429  132.9132  149.1130 H   0  0  0  0  0  0  0  0  0  0  0  0
  146.4059  131.9482  150.4838 H   0  0  0  0  0  0  0  0  0  0  0  0
  144.7491  133.8518  153.0270 H   0  0  0  0  0  0  0  0  0  0  0  0
  145.9578  132.6489  152.6872 H   0  0  0  0  0  0  0  0  0  0  0  0
  147.1992  134.8483  151.5948 H   0  0  0  0  0  0  0  0  0  0  0  0
  146.2711  135.6361  152.8298 H   0  0  0  0  0  0  0  0  0  0  0  0
  147.8961  132.3062  152.8032 H   0  0  0  0  0  0  0  0  0  0  0  0
  149.1711  133.4115  152.3440 H   0  0  0  0  0  0  0  0  0  0  0  0
  148.8271  131.9943  155.0197 H   0  0  0  0  0  0  0  0  0  0  0  0
  150.0972  131.7929  153.8665 H   0  0  0  0  0  0  0  0  0  0  0  0
  150.8725  133.1337  155.8082 H   0  0  0  0  0  0  0  0  0  0  0  0
  150.9993  134.0039  154.2955 H   0  0  0  0  0  0  0  0  0  0  0  0
  151.8669  137.6657  153.4613 H   0  0  0  0  0  0  0  0  0  0  0  0
  148.3528  138.7830  158.7365 H   0  0  0  0  0  0  0  0  0  0  0  0
  150.2614  140.9746  156.2559 H   0  0  0  0  0  0  0  0  0  0  0  0
  149.0295  141.0870  157.4840 H   0  0  0  0  0  0  0  0  0  0  0  0
  150.8282  140.2673  159.1500 H   0  0  0  0  0  0  0  0  0  0  0  0
  152.2497  140.2405  156.8995 H   0  0  0  0  0  0  0  0  0  0  0  0
  150.1419  142.6133  159.1737 H   0  0  0  0  0  0  0  0  0  0  0  0
  151.7993  142.5804  160.8095 H   0  0  0  0  0  0  0  0  0  0  0  0
  153.0530  142.0103  159.7149 H   0  0  0  0  0  0  0  0  0  0  0  0
  152.5098  144.7761  160.3159 H   0  0  0  0  0  0  0  0  0  0  0  0
  153.6534  144.1140  159.1489 H   0  0  0  0  0  0  0  0  0  0  0  0
  150.7953  144.9868  158.6692 H   0  0  0  0  0  0  0  0  0  0  0  0
  152.1914  145.1768  157.6006 H   0  0  0  0  0  0  0  0  0  0  0  0
  148.1866  133.4918  156.7096 H   0  0  0  0  0  0  0  0  0  0  0  0
  147.7828  135.1675  156.7578 H   0  0  0  0  0  0  0  0  0  0  0  0
  146.3033  134.8752  155.0776 H   0  0  0  0  0  0  0  0  0  0  0  0
  146.6216  133.1677  155.0571 H   0  0  0  0  0  0  0  0  0  0  0  0
  148.3189  135.0550  153.6660 H   0  0  0  0  0  0  0  0  0  0  0  0
  1  2  1  0  0  0  0
  1 30  1  0  0  0  0
  1 31  1  0  0  0  0
  1 32  1  0  0  0  0
  2  3  1  0  0  0  0
  2  4  1  0  0  0  0
  3 33  1  0  0  0  0
  3 34  1  0  0  0  0
  3 35  1  0  0  0  0
  4  5  1  0  0  0  0
  4 36  1  0  0  0  0
  4 37  1  0  0  0  0
  5  6  1  0  0  0  0
  5 38  1  0  0  0  0
  5 39  1  0  0  0  0
  6 29  1  0  0  0  0
  6  7  1  0  0  0  0
  6 63  1  0  0  0  0
  7  8  1  0  0  0  0
  7 40  1  0  0  0  0
  7 41  1  0  0  0  0
  8  9  1  0  0  0  0
  8 42  1  0  0  0  0
  8 43  1  0  0  0  0
  9 10  1  0  0  0  0
  9 44  1  0  0  0  0
  9 45  1  0  0  0  0
 10 11  1  0  0  0  0
 10 28  1  0  0  0  0
 11 16  1  0  0  0  0
 11 12  2  0  0  0  0
 12 13  1  0  0  0  0
 13 14  2  0  0  0  0
 13 46  1  0  0  0  0
 14 15  1  0  0  0  0
 15 19  1  0  0  0  0
 15 16  2  0  0  0  0
 16 17  1  0  0  0  0
 17 18  2  0  0  0  0
 18 19  1  0  0  0  0
 18 47  1  0  0  0  0
 19 20  1  0  0  0  0
 20 21  1  0  0  0  0
 20 48  1  0  0  0  0
 20 49  1  0  0  0  0
 21 22  1  0  0  0  0
 21 23  1  0  0  0  0
 21 50  1  0  0  0  0
 22 51  1  0  0  0  0
 23 27  1  0  0  0  0
 23 24  1  0  0  0  0
 23 52  1  0  0  0  0
 24 25  1  0  0  0  0
 24 53  1  0  0  0  0
 24 54  1  0  0  0  0
 25 26  1  0  0  0  0
 25 55  1  0  0  0  0
 25 56  1  0  0  0  0
 26 27  1  0  0  0  0
 26 57  1  0  0  0  0
 26 58  1  0  0  0  0
 28 29  1  0  0  0  0
 28 59  1  0  0  0  0
 28 60  1  0  0  0  0
 29 61  1  0  0  0  0
 29 62  1  0  0  0  0
M  CHG  1   6   1
M  END
> <s_m_source_file>
AV-unprocessed.smi

> <i_m_source_file_index>
155

> <i_lp_mmshare_version>
43012

> <i_f3d_flags>
0

> <s_epik_input>
W0NIM11OKFtDSDNdKVtDSDJdW0NIMl1OMVtDSDJdW0NIMl1bQ0gyXU4oW0NIMl1bQ0gyXTEpYyhuW2NIXW4yKWMoYzIzKW5bY0hdbjNbQ0gyXVtDQEhdKFtPSF0pW0NAQEhdNFtDSDJdW0NIMl1bQ0gyXU80

> <s_epik_cmdline>
J2VwaWtfcHl0aG9uJywgJy1waCcsICc3LjAnLCAnLXRuJywgJzgnLCAnLW1hJywgJzIwMCcsICctbWV0YWxfYmluZGluZycsICctaW1hZScsICc8aW5maWxlLm1hZT4nLCAnLW9tYWUnLCAnPG91dGZpbGUubWFlPic=

> <r_epik_Ionization_Penalty>
0.0619615

> <r_epik_Ionization_Penalty_Charging>
0.0161638

> <r_epik_Ionization_Penalty_Neutral>
0.0457976

> <r_epik_State_Penalty>
0.403408

> <r_epik_Charging_Adjusted_Penalty>
0.419572

> <i_epik_Tot_Q>
1

> <i_epik_Tot_abs_Q>
1

> <r_epik_Metal_State_Penalty>
0.404222

> <b_epik_Metal_Only>
0

> <s_lp_Force_Field>
OPLS_2005

> <r_lp_Energy>
55.0815

> <b_lp_Chiralities_Consistent>
1

> <s_lp_Variant>
AV-unprocessed.smi:155-7

> <Gold.Version>
5.8.1

> <Gold.Id.Protein>
6NUR|6NUR_protein|mol2

> <Gold.PLP.Fitness>
43.6227

> <Gold.PLP.PLP>
-41.5973

> <Gold.PLP.part.hbond>
-2.5093

> <Gold.PLP.part.metal>
0.0000

> <Gold.PLP.part.buried>
-2.4964

> <Gold.PLP.part.nonpolar>
-36.4517

> <Gold.PLP.part.repulsive>
1.8932

> <Gold.PLP.ligand.clash>
0.0000

> <Gold.PLP.ligand.torsion>
1.0801

> <Gold.PLP.Chemscore.Hbond>
0.7194

> <Gold.PLP.Chemscore.CHOScore>
0.5045

> <Gold.PLP.Chemscore.Metal>
0.0000

> <Gold.Chemscore.Hbonds>
donor molecule, donor type, donor heavy atom, donor atom, acceptor molecule, acceptor atom, score
      L1  H     6    63       P1  7948  0.43
      P1  H 10752 10765       L1    12  0.15
      L1  C    13    46       P1  7949  0.38

> <Gold.PLP.Chemscore.Internal.Correction>
0.5139

> <Gold.Rescore>
     Score         DG    S(hbond)    S(metal)    S(lipo)     H(rot)  DE(clash)    DE(int)     intcor
      9.14     -11.40       0.10        0.00     105.35       2.63       1.24       1.02       ----

> <Gold.Chemscore.Fitness>
9.1408

> <Gold.Chemscore.DG>
-11.4021

> <Gold.Chemscore.ZeroCoef>
-5.4800

> <Gold.Chemscore.Hbond>
0.1002

> <Gold.Chemscore.Metal>
0.0000

> <Gold.Chemscore.Lipo>
105.3522

> <Gold.Chemscore.Internal_Hbond>
0.0000

> <Gold.Chemscore.DEClash>
1.2380

> <Gold.Chemscore.DEInternal>
1.0232

> <Gold.Chemscore.Rot>
2.6324

> <Gold.Chemscore.Internal.Correction>
   9.000000E+99

> <Gold.Chemscore.Hbonds>
donor molecule, donor type, donor heavy atom, donor atom, acceptor molecule, acceptor atom, score
      L1  H     6    63       P1  7948  0.21

> <Gold.Chemscore.Hbond.Weighted>
-0.3347

> <Gold.Chemscore.Metal.Weighted>
-0.0000

> <Gold.Chemscore.Lipo.Weighted>
-12.3262

> <Gold.Chemscore.Internal_Hbond.Weighted>
0.0000

> <Gold.Chemscore.DEClash.Weighted>
1.2380

> <Gold.Chemscore.DEInternal.Weighted>
1.0232

> <Gold.Chemscore.Rot.Weighted>
6.7389

> <Gold.Chemscore.Internal.Correction.Weighted>
   9.000000E+99

> <Gold.Protein.RotatedTorsions>
[ 6907 6896 6895 6894 ] final   47.26 input  -60.11 | X-H torsion
[ 7974 7965 7964 7962 ] final   28.55 input  175.53 | X-H torsion
[ 8008 7997 7996 7995 ] final   67.59 input   59.86 | X-H torsion
[ 10167 10162 10161 10158 ] final  -68.97 input  -65.29 | X-H torsion
[ 10718 10713 10712 10709 ] final  128.78 input   66.30 | X-H torsion
[ 10763 10752 10751 10750 ] final  172.64 input  -60.55 | X-H torsion
[ 11005 11000 10999 10996 ] final  100.93 input  -57.11 | X-H torsion

> <Gold.Protein.ActiveResidues>
 VAL166  LYS551  ARG553  GLY616  TRP617  ASP618  TYR619  PRO620  LYS621  CYS622 
 ASP623  PHE694  ASN695  SER759  ASP760  ASP761  ALA762  ILE779  LEU786  VAL792 
 PHE793  MET794  SER795  GLU796  ALA797  LYS798  CYS799  TRP800  GLU811  SER814 

> <Gold.Protein.RotatedAtoms>
  152.2660  134.7984  160.0422 H   0  0  0  0  0  0  0  0  0  0  0  0  # atno 6907 bound_to 6896
  151.8614  133.3452  159.3713 H   0  0  0  0  0  0  0  0  0  0  0  0  # atno 6908 bound_to 6896
  150.7134  134.5130  159.5661 H   0  0  0  0  0  0  0  0  0  0  0  0  # atno 6909 bound_to 6896
  146.1722  139.7041  142.8959 H   0  0  0  0  0  0  0  0  0  0  0  0  # atno 7974 bound_to 7965
  155.6952  140.3496  155.4910 H   0  0  0  0  0  0  0  0  0  0  0  0  # atno 8008 bound_to 7997
  155.9489  140.1115  157.1015 H   0  0  0  0  0  0  0  0  0  0  0  0  # atno 8009 bound_to 7997
  154.4118  140.1198  156.5012 H   0  0  0  0  0  0  0  0  0  0  0  0  # atno 8010 bound_to 7997
  140.5466  143.2313  151.6990 H   0  0  0  0  0  0  0  0  0  0  0  0  # atno 10167 bound_to 10162
  157.5214  131.1098  150.9148 H   0  0  0  0  0  0  0  0  0  0  0  0  # atno 10718 bound_to 10713
  154.4289  135.2759  155.1926 H   0  0  0  0  0  0  0  0  0  0  0  0  # atno 10763 bound_to 10752
  154.3840  135.6081  153.5810 H   0  0  0  0  0  0  0  0  0  0  0  0  # atno 10764 bound_to 10752
  152.9835  135.5887  154.4597 H   0  0  0  0  0  0  0  0  0  0  0  0  # atno 10765 bound_to 10752
  139.8772  134.9161  156.4830 H   0  0  0  0  0  0  0  0  0  0  0  0  # atno 11005 bound_to 11000
  145.4308  141.0415  143.2912 LP  0  0  0  0  0  0  0  0  0  0  0  0  # atno 17320 bound_to 7965
  144.8181  139.5840  143.6999 LP  0  0  0  0  0  0  0  0  0  0  0  0  # atno 17321 bound_to 7965
  139.5010  144.3884  152.0304 LP  0  0  0  0  0  0  0  0  0  0  0  0  # atno 17342 bound_to 10162
  140.2998  144.3660  150.6063 LP  0  0  0  0  0  0  0  0  0  0  0  0  # atno 17343 bound_to 10162
  156.9758  130.5508  149.5293 LP  0  0  0  0  0  0  0  0  0  0  0  0  # atno 17370 bound_to 10713
  156.0356  130.5443  150.8644 LP  0  0  0  0  0  0  0  0  0  0  0  0  # atno 17371 bound_to 10713
  140.8713  133.7986  155.9368 LP  0  0  0  0  0  0  0  0  0  0  0  0  # atno 17394 bound_to 11000
  140.8949  134.2450  157.5074 LP  0  0  0  0  0  0  0  0  0  0  0  0  # atno 17395 bound_to 11000

$$$$
