AV-unprocessed.smi:2658|AV-procd|sdf|10310|dock10
  -GOLD-   2272014323D 1   1.00000     0.00000
 Structure written by MMmdl.
 47 49  0  0  0  0  0  0  0  0  2 V2000
  151.9918  144.1578  160.9181 C   0  0  0  0  0  0  0  0  0  0  0  0
  151.8905  143.1611  159.7757 C   0  0  0  0  0  0  0  0  0  0  0  0
  150.9849  143.4296  158.7247 C   0  0  0  0  0  0  0  0  0  0  0  0
  150.9089  142.4953  157.6985 C   0  0  0  0  0  0  0  0  0  0  0  0
  150.1236  142.4674  156.5440 N   0  3  0  0  0  0  0  0  0  0  0  0
  150.3957  141.3362  155.8367 C   0  0  0  0  0  0  0  0  0  0  0  0
  151.3439  140.6413  156.5216 N   0  0  0  0  0  0  0  0  0  0  0  0
  151.9782  139.3551  156.1999 C   0  0  0  0  0  0  0  0  0  0  0  0
  150.9754  138.1828  156.1958 C   0  0  2  0  0  0  0  0  0  0  0  0
  150.1770  138.1769  155.0295 O   0  0  0  0  0  0  0  0  0  0  0  0
  150.0600  138.1483  157.4301 C   0  0  0  0  0  0  0  0  0  0  0  0
  149.3515  136.9122  157.4729 O   0  0  0  0  0  0  0  0  0  0  0  0
  148.8557  136.4793  158.6852 C   0  0  0  0  0  0  0  0  0  0  0  0
  148.4129  135.1482  158.8015 C   0  0  0  0  0  0  0  0  0  0  0  0
  147.9126  134.7293  160.0485 C   0  0  0  0  0  0  0  0  0  0  0  0
  147.4133  133.3105  160.2475 C   0  0  0  0  0  0  0  0  0  0  0  0
  147.8996  135.6835  161.0905 C   0  0  0  0  0  0  0  0  0  0  0  0
  147.3906  135.3420  162.4785 C   0  0  0  0  0  0  0  0  0  0  0  0
  148.3386  136.9521  160.9166 N   0  0  0  0  0  0  0  0  0  0  0  0
  148.8095  137.3468  159.7291 N   0  0  0  0  0  0  0  0  0  0  0  0
  151.6966  141.3276  157.6900 C   0  0  0  0  0  0  0  0  0  0  0  0
  152.5972  141.0506  158.7160 C   0  0  0  0  0  0  0  0  0  0  0  0
  152.6871  141.9870  159.7708 C   0  0  0  0  0  0  0  0  0  0  0  0
  153.6571  141.7079  160.9062 C   0  0  0  0  0  0  0  0  0  0  0  0
  151.3184  145.0027  160.7714 H   0  0  0  0  0  0  0  0  0  0  0  0
  153.0060  144.5495  160.9972 H   0  0  0  0  0  0  0  0  0  0  0  0
  151.7291  143.6830  161.8638 H   0  0  0  0  0  0  0  0  0  0  0  0
  150.3749  144.3209  158.7224 H   0  0  0  0  0  0  0  0  0  0  0  0
  149.9390  141.0418  154.9027 H   0  0  0  0  0  0  0  0  0  0  0  0
  152.4277  139.4580  155.2115 H   0  0  0  0  0  0  0  0  0  0  0  0
  152.8022  139.1807  156.8922 H   0  0  0  0  0  0  0  0  0  0  0  0
  151.5392  137.2494  156.1768 H   0  0  0  0  0  0  0  0  0  0  0  0
  149.3120  138.4811  155.2582 H   0  0  0  0  0  0  0  0  0  0  0  0
  150.6437  138.3037  158.3394 H   0  0  0  0  0  0  0  0  0  0  0  0
  149.3409  138.9662  157.3581 H   0  0  0  0  0  0  0  0  0  0  0  0
  148.4570  134.4750  157.9580 H   0  0  0  0  0  0  0  0  0  0  0  0
  146.3725  133.3147  160.5718 H   0  0  0  0  0  0  0  0  0  0  0  0
  148.0094  132.7984  161.0032 H   0  0  0  0  0  0  0  0  0  0  0  0
  147.4755  132.7369  159.3222 H   0  0  0  0  0  0  0  0  0  0  0  0
  147.9466  134.4999  162.8911 H   0  0  0  0  0  0  0  0  0  0  0  0
  146.3345  135.0744  162.4402 H   0  0  0  0  0  0  0  0  0  0  0  0
  147.5008  136.1842  163.1628 H   0  0  0  0  0  0  0  0  0  0  0  0
  153.2004  140.1550  158.7163 H   0  0  0  0  0  0  0  0  0  0  0  0
  154.1914  140.7697  160.7532 H   0  0  0  0  0  0  0  0  0  0  0  0
  153.1255  141.6370  161.8555 H   0  0  0  0  0  0  0  0  0  0  0  0
  154.3977  142.5042  160.9819 H   0  0  0  0  0  0  0  0  0  0  0  0
  149.4484  143.1655  156.2596 H   0  0  0  0  0  0  0  0  0  0  0  0
  1  2  1  0  0  0  0
  1 25  1  0  0  0  0
  1 26  1  0  0  0  0
  1 27  1  0  0  0  0
  2 23  1  0  0  0  0
  2  3  2  0  0  0  0
  3  4  1  0  0  0  0
  3 28  1  0  0  0  0
  4 21  2  0  0  0  0
  4  5  1  0  0  0  0
  5  6  2  0  0  0  0
  5 47  1  0  0  0  0
  6  7  1  0  0  0  0
  6 29  1  0  0  0  0
  7  8  1  0  0  0  0
  7 21  1  0  0  0  0
  8  9  1  0  0  0  0
  8 30  1  0  0  0  0
  8 31  1  0  0  0  0
  9 10  1  0  0  0  0
  9 11  1  0  0  0  0
  9 32  1  0  0  0  0
 10 33  1  0  0  0  0
 11 12  1  0  0  0  0
 11 34  1  0  0  0  0
 11 35  1  0  0  0  0
 12 13  1  0  0  0  0
 13 20  1  0  0  0  0
 13 14  2  0  0  0  0
 14 15  1  0  0  0  0
 14 36  1  0  0  0  0
 15 16  1  0  0  0  0
 15 17  2  0  0  0  0
 16 37  1  0  0  0  0
 16 38  1  0  0  0  0
 16 39  1  0  0  0  0
 17 18  1  0  0  0  0
 17 19  1  0  0  0  0
 18 40  1  0  0  0  0
 18 41  1  0  0  0  0
 18 42  1  0  0  0  0
 19 20  2  0  0  0  0
 21 22  1  0  0  0  0
 22 23  2  0  0  0  0
 22 43  1  0  0  0  0
 23 24  1  0  0  0  0
 24 44  1  0  0  0  0
 24 45  1  0  0  0  0
 24 46  1  0  0  0  0
M  CHG  1   5   1
M  END
> <s_m_source_file>
AV-unprocessed.smi

> <i_m_source_file_index>
2658

> <i_lp_mmshare_version>
43012

> <i_f3d_flags>
0

> <s_epik_input>
W0NIM11jKFtjSF0xKWMoW0NIM10pW2NIXWMoYzEyKW4oW2NIXW4yKVtDSDJdW0NASF0oW09IXSlbQ0gyXU9jM1tjSF1jKFtDSDNdKWMoW0NIM10pbm4z

> <s_epik_cmdline>
J2VwaWtfcHl0aG9uJywgJy1waCcsICc3LjAnLCAnLXRuJywgJzgnLCAnLW1hJywgJzIwMCcsICctbWV0YWxfYmluZGluZycsICctaW1hZScsICc8aW5maWxlLm1hZT4nLCAnLW9tYWUnLCAnPG91dGZpbGUubWFlPic=

> <r_lp_tautomer_probability>
1

> <r_epik_Ionization_Penalty>
1.0494

> <r_epik_Ionization_Penalty_Charging>
1.04926

> <r_epik_Ionization_Penalty_Neutral>
0.000140304

> <r_epik_State_Penalty>
1.10197

> <r_epik_Charging_Adjusted_Penalty>
2.15123

> <i_epik_Tot_Q>
1

> <i_epik_Tot_abs_Q>
1

> <r_epik_Metal_State_Penalty>
1.19636

> <b_epik_Metal_Only>
0

> <s_lp_Force_Field>
OPLS_2005

> <r_lp_Energy>
21.5781

> <b_lp_Chiralities_Consistent>
1

> <s_lp_Variant>
AV-unprocessed.smi:2658-3

> <Gold.Version>
5.8.1

> <Gold.Id.Protein>
6NUR|6NUR_protein|mol2

> <Gold.PLP.Fitness>
57.4485

> <Gold.PLP.PLP>
-48.9090

> <Gold.PLP.part.hbond>
-4.7750

> <Gold.PLP.part.metal>
0.0000

> <Gold.PLP.part.buried>
-5.0340

> <Gold.PLP.part.nonpolar>
-39.1134

> <Gold.PLP.part.repulsive>
0.0882

> <Gold.PLP.ligand.clash>
0.0000

> <Gold.PLP.ligand.torsion>
0.4274

> <Gold.PLP.Chemscore.Hbond>
3.1201

> <Gold.PLP.Chemscore.CHOScore>
0.0000

> <Gold.PLP.Chemscore.Metal>
0.0000

> <Gold.Chemscore.Hbonds>
donor molecule, donor type, donor heavy atom, donor atom, acceptor molecule, acceptor atom, score
      L1  H     5    47       P1  8028  2.00
      P1  H  6931  6943       L1    19  0.90
      P1  H  6934  6947       L1    19  0.03

> <Gold.PLP.Chemscore.Internal.Correction>
0.0339

> <Gold.Rescore>
     Score         DG    S(hbond)    S(metal)    S(lipo)     H(rot)  DE(clash)    DE(int)     intcor
     18.13     -18.82       1.62        0.00     121.63       2.47       0.09       0.59       ----

> <Gold.Chemscore.Fitness>
18.1350

> <Gold.Chemscore.DG>
-18.8162

> <Gold.Chemscore.ZeroCoef>
-5.4800

> <Gold.Chemscore.Hbond>
1.6241

> <Gold.Chemscore.Metal>
0.0000

> <Gold.Chemscore.Lipo>
121.6335

> <Gold.Chemscore.Internal_Hbond>
0.0000

> <Gold.Chemscore.DEClash>
0.0941

> <Gold.Chemscore.DEInternal>
0.5870

> <Gold.Chemscore.Rot>
2.4685

> <Gold.Chemscore.Internal.Correction>
   9.000000E+99

> <Gold.Chemscore.Hbonds>
donor molecule, donor type, donor heavy atom, donor atom, acceptor molecule, acceptor atom, score
      L1  H     5    47       P1  8028  0.99
      P1  H  6931  6943       L1    19  0.17

> <Gold.Chemscore.Hbond.Weighted>
-5.4244

> <Gold.Chemscore.Metal.Weighted>
-0.0000

> <Gold.Chemscore.Lipo.Weighted>
-14.2311

> <Gold.Chemscore.Internal_Hbond.Weighted>
0.0000

> <Gold.Chemscore.DEClash.Weighted>
0.0941

> <Gold.Chemscore.DEInternal.Weighted>
0.5870

> <Gold.Chemscore.Rot.Weighted>
6.3194

> <Gold.Chemscore.Internal.Correction.Weighted>
   9.000000E+99

> <Gold.Protein.RotatedTorsions>
[ 6907 6896 6895 6894 ] final   57.25 input  -60.11 | X-H torsion
[ 7974 7965 7964 7962 ] final   44.36 input  175.53 | X-H torsion
[ 8008 7997 7996 7995 ] final   71.31 input   59.86 | X-H torsion
[ 10167 10162 10161 10158 ] final   86.97 input  -65.29 | X-H torsion
[ 10718 10713 10712 10709 ] final   99.77 input   66.30 | X-H torsion
[ 10763 10752 10751 10750 ] final  -37.27 input  -60.55 | X-H torsion
[ 11005 11000 10999 10996 ] final  -65.25 input  -57.11 | X-H torsion

> <Gold.Protein.ActiveResidues>
 VAL166  LYS551  ARG553  GLY616  TRP617  ASP618  TYR619  PRO620  LYS621  CYS622 
 ASP623  PHE694  ASN695  SER759  ASP760  ASP761  ALA762  ILE779  LEU786  VAL792 
 PHE793  MET794  SER795  GLU796  ALA797  LYS798  CYS799  TRP800  GLU811  SER814 

> <Gold.Protein.RotatedAtoms>
  152.3713  134.6729  160.0174 H   0  0  0  0  0  0  0  0  0  0  0  0  # atno 6907 bound_to 6896
  151.7022  133.3306  159.3277 H   0  0  0  0  0  0  0  0  0  0  0  0  # atno 6908 bound_to 6896
  150.7676  134.6541  159.6348 H   0  0  0  0  0  0  0  0  0  0  0  0  # atno 6909 bound_to 6896
  146.0575  139.5083  142.9679 H   0  0  0  0  0  0  0  0  0  0  0  0  # atno 7974 bound_to 7965
  155.7519  140.3488  155.5155 H   0  0  0  0  0  0  0  0  0  0  0  0  # atno 8008 bound_to 7997
  155.8996  140.1032  157.1381 H   0  0  0  0  0  0  0  0  0  0  0  0  # atno 8009 bound_to 7997
  154.4042  140.1288  156.4406 H   0  0  0  0  0  0  0  0  0  0  0  0  # atno 8010 bound_to 7997
  139.8821  144.6434  150.8832 H   0  0  0  0  0  0  0  0  0  0  0  0  # atno 10167 bound_to 10162
  157.6869  131.0679  150.4998 H   0  0  0  0  0  0  0  0  0  0  0  0  # atno 10718 bound_to 10713
  153.8935  135.6809  153.4759 H   0  0  0  0  0  0  0  0  0  0  0  0  # atno 10763 bound_to 10752
  153.1168  135.4758  154.9126 H   0  0  0  0  0  0  0  0  0  0  0  0  # atno 10764 bound_to 10752
  154.7610  135.3211  154.8331 H   0  0  0  0  0  0  0  0  0  0  0  0  # atno 10765 bound_to 10752
  141.1449  133.6678  156.5958 H   0  0  0  0  0  0  0  0  0  0  0  0  # atno 11005 bound_to 11000
  145.6618  141.0238  143.1705 LP  0  0  0  0  0  0  0  0  0  0  0  0  # atno 17320 bound_to 7965
  144.7156  139.8210  143.7400 LP  0  0  0  0  0  0  0  0  0  0  0  0  # atno 17321 bound_to 7965
  140.7742  143.3578  151.1888 LP  0  0  0  0  0  0  0  0  0  0  0  0  # atno 17342 bound_to 10162
  139.7187  143.9259  152.2977 LP  0  0  0  0  0  0  0  0  0  0  0  0  # atno 17343 bound_to 10162
  156.5320  130.4187  149.6196 LP  0  0  0  0  0  0  0  0  0  0  0  0  # atno 17370 bound_to 10713
  156.3060  130.7203  151.2085 LP  0  0  0  0  0  0  0  0  0  0  0  0  # atno 17371 bound_to 10713
  140.3727  134.7591  157.4609 LP  0  0  0  0  0  0  0  0  0  0  0  0  # atno 17394 bound_to 11000
  140.0698  134.5879  155.8655 LP  0  0  0  0  0  0  0  0  0  0  0  0  # atno 17395 bound_to 11000

$$$$
