AV-unprocessed.smi:867|AV-procd|sdf|3999|dock6
  -GOLD-   22720 1483D 1   1.00000     0.00000
 Structure written by MMmdl.
 54 57  0  0  0  0  0  0  0  0  3 V2000
  147.2140  138.7940  152.7713 O   0  0  0  0  0  0  0  0  0  0  0  0
  146.6276  139.3377  153.7081 C   0  0  0  0  0  0  0  0  0  0  0  0
  145.6119  138.7442  154.3581 N   0  0  0  0  0  0  0  0  0  0  0  0
  145.0920  137.4140  154.0631 C   0  0  0  0  0  0  0  0  0  0  0  0
  144.2980  137.3968  152.7469 C   0  0  0  0  0  0  0  0  0  0  0  0
  144.0643  135.9864  152.2418 C   0  0  0  0  0  0  0  0  0  0  0  0
  144.5435  135.5910  150.9732 C   0  0  0  0  0  0  0  0  0  0  0  0
  144.3097  134.2742  150.5250 C   0  0  0  0  0  0  0  0  0  0  0  0
  143.6005  133.3824  151.3555 C   0  0  0  0  0  0  0  0  0  0  0  0
  143.1554  133.7968  152.5622 N   0  3  0  0  0  0  0  0  0  0  0  0
  143.3596  135.0489  153.0279 C   0  0  0  0  0  0  0  0  0  0  0  0
  146.8934  140.6038  154.1135 N   0  0  0  0  0  0  0  0  0  0  0  0
  146.1793  141.3398  155.1633 C   0  0  0  0  0  0  0  0  0  0  0  0
  147.0541  141.4069  156.4314 C   0  0  0  0  0  0  0  0  0  0  0  0
  148.4071  141.9762  156.1575 N   0  3  0  0  0  0  0  0  0  0  0  0
  149.3157  142.0166  157.3451 C   0  0  1  0  0  0  0  0  0  0  0  0
  149.5650  140.5999  157.9294 C   0  0  0  0  0  0  0  0  0  0  0  0
  151.0977  140.4855  157.9685 C   0  0  2  0  0  0  0  0  0  0  0  0
  151.6569  141.4276  159.0470 C   0  0  0  0  0  0  0  0  0  0  0  0
  151.4521  142.8147  158.4141 C   0  0  0  0  0  0  0  0  0  0  0  0
  150.7727  142.4867  157.0690 C   0  0  1  0  0  0  0  0  0  0  0  0
  151.4862  141.1970  156.6795 C   0  0  0  0  0  0  0  0  0  0  0  0
  149.0602  141.3180  154.9875 C   0  0  0  0  0  0  0  0  0  0  0  0
  148.1371  141.2880  153.7588 C   0  0  0  0  0  0  0  0  0  0  0  0
  145.1534  139.2605  155.0946 H   0  0  0  0  0  0  0  0  0  0  0  0
  145.9355  136.7258  153.9986 H   0  0  0  0  0  0  0  0  0  0  0  0
  144.4706  137.0647  154.8898 H   0  0  0  0  0  0  0  0  0  0  0  0
  143.3322  137.8868  152.8796 H   0  0  0  0  0  0  0  0  0  0  0  0
  144.8287  137.9667  151.9826 H   0  0  0  0  0  0  0  0  0  0  0  0
  145.0832  136.2885  150.3486 H   0  0  0  0  0  0  0  0  0  0  0  0
  144.6688  133.9540  149.5578 H   0  0  0  0  0  0  0  0  0  0  0  0
  143.3768  132.3587  151.0926 H   0  0  0  0  0  0  0  0  0  0  0  0
  142.9540  135.2601  154.0070 H   0  0  0  0  0  0  0  0  0  0  0  0
  145.9676  142.3484  154.8049 H   0  0  0  0  0  0  0  0  0  0  0  0
  145.2092  140.9123  155.4166 H   0  0  0  0  0  0  0  0  0  0  0  0
  146.5185  142.0177  157.1547 H   0  0  0  0  0  0  0  0  0  0  0  0
  147.1618  140.4104  156.8628 H   0  0  0  0  0  0  0  0  0  0  0  0
  148.8598  142.6675  158.0933 H   0  0  0  0  0  0  0  0  0  0  0  0
  149.1127  140.4712  158.9135 H   0  0  0  0  0  0  0  0  0  0  0  0
  149.1723  139.8157  157.2805 H   0  0  0  0  0  0  0  0  0  0  0  0
  151.4571  139.4595  158.0549 H   0  0  0  0  0  0  0  0  0  0  0  0
  151.1358  141.3218  159.9995 H   0  0  0  0  0  0  0  0  0  0  0  0
  152.7170  141.2373  159.2211 H   0  0  0  0  0  0  0  0  0  0  0  0
  150.8486  143.4739  159.0390 H   0  0  0  0  0  0  0  0  0  0  0  0
  152.4141  143.3029  158.2521 H   0  0  0  0  0  0  0  0  0  0  0  0
  150.8919  143.3072  156.3651 H   0  0  0  0  0  0  0  0  0  0  0  0
  152.5646  141.3172  156.5604 H   0  0  0  0  0  0  0  0  0  0  0  0
  151.0766  140.7284  155.7830 H   0  0  0  0  0  0  0  0  0  0  0  0
  149.9822  141.8315  154.7178 H   0  0  0  0  0  0  0  0  0  0  0  0
  149.3404  140.2983  155.2576 H   0  0  0  0  0  0  0  0  0  0  0  0
  148.6472  140.8173  152.9168 H   0  0  0  0  0  0  0  0  0  0  0  0
  147.9108  142.3049  153.4344 H   0  0  0  0  0  0  0  0  0  0  0  0
  148.2491  142.9369  155.8886 H   0  0  0  0  0  0  0  0  0  0  0  0
  142.6432  133.1356  153.1469 H   0  0  0  0  0  0  0  0  0  0  0  0
  1  2  2  0  0  0  0
  2  3  1  0  0  0  0
  2 12  1  0  0  0  0
  3  4  1  0  0  0  0
  3 25  1  0  0  0  0
  4  5  1  0  0  0  0
  4 26  1  0  0  0  0
  4 27  1  0  0  0  0
  5  6  1  0  0  0  0
  5 28  1  0  0  0  0
  5 29  1  0  0  0  0
  6 11  1  0  0  0  0
  6  7  2  0  0  0  0
  7  8  1  0  0  0  0
  7 30  1  0  0  0  0
  8  9  2  0  0  0  0
  8 31  1  0  0  0  0
  9 10  1  0  0  0  0
  9 32  1  0  0  0  0
 10 11  2  0  0  0  0
 10 54  1  0  0  0  0
 11 33  1  0  0  0  0
 12 24  1  0  0  0  0
 12 13  1  0  0  0  0
 13 14  1  0  0  0  0
 13 34  1  0  0  0  0
 13 35  1  0  0  0  0
 14 15  1  0  0  0  0
 14 36  1  0  0  0  0
 14 37  1  0  0  0  0
 15 16  1  0  0  0  0
 15 23  1  0  0  0  0
 15 53  1  0  0  0  0
 16 21  1  0  0  0  0
 16 17  1  0  0  0  0
 16 38  1  0  0  0  0
 17 18  1  0  0  0  0
 17 39  1  0  0  0  0
 17 40  1  0  0  0  0
 18 22  1  0  0  0  0
 18 19  1  0  0  0  0
 18 41  1  0  0  0  0
 19 20  1  0  0  0  0
 19 42  1  0  0  0  0
 19 43  1  0  0  0  0
 20 21  1  0  0  0  0
 20 44  1  0  0  0  0
 20 45  1  0  0  0  0
 21 22  1  0  0  0  0
 21 46  1  0  0  0  0
 22 47  1  0  0  0  0
 22 48  1  0  0  0  0
 23 24  1  0  0  0  0
 23 49  1  0  0  0  0
 23 50  1  0  0  0  0
 24 51  1  0  0  0  0
 24 52  1  0  0  0  0
M  CHG  1  10   1
M  CHG  1  15   1
M  END
> <s_m_source_file>
AV-unprocessed.smi

> <i_m_source_file_index>
867

> <i_lp_mmshare_version>
43012

> <i_f3d_flags>
0

> <s_epik_input>
W0NIMl0xW0NIMl1bQ0BASF0oW0NIMl0yKVtDQEBIXShbQ0gyXVtDQEhdMTIpTihbQ0gyXVtDSDJdMylbQ0gyXVtDSDJdTjNDKD1PKVtOSF1bQ0gyXVtDSDJdYzRbY0hdW2NIXVtjSF1uW2NIXTQ=

> <s_epik_cmdline>
J2VwaWtfcHl0aG9uJywgJy1waCcsICc3LjAnLCAnLXRuJywgJzgnLCAnLW1hJywgJzIwMCcsICctbWV0YWxfYmluZGluZycsICctaW1hZScsICc8aW5maWxlLm1hZT4nLCAnLW9tYWUnLCAnPG91dGZpbGUubWFlPic=

> <r_epik_Ionization_Penalty>
2.25108

> <r_epik_Ionization_Penalty_Charging>
2.25105

> <r_epik_Ionization_Penalty_Neutral>
2.64641e-05

> <r_epik_State_Penalty>
2.39519

> <r_epik_Charging_Adjusted_Penalty>
4.64625

> <i_epik_Tot_Q>
2

> <i_epik_Tot_abs_Q>
2

> <r_epik_Metal_State_Penalty>
2.40865

> <b_epik_Metal_Only>
0

> <s_lp_Force_Field>
OPLS_2005

> <r_lp_Energy>
104.459

> <b_lp_Chiralities_Consistent>
1

> <s_lp_Variant>
AV-unprocessed.smi:867-6

> <Gold.Version>
5.8.1

> <Gold.Id.Protein>
6NUR|6NUR_protein|mol2

> <Gold.PLP.Fitness>
48.1462

> <Gold.PLP.PLP>
-37.8518

> <Gold.PLP.part.hbond>
-2.1409

> <Gold.PLP.part.metal>
0.0000

> <Gold.PLP.part.buried>
-6.3124

> <Gold.PLP.part.nonpolar>
-30.9377

> <Gold.PLP.part.repulsive>
0.4037

> <Gold.PLP.ligand.clash>
1.3179

> <Gold.PLP.ligand.torsion>
0.2602

> <Gold.PLP.Chemscore.Hbond>
4.0000

> <Gold.PLP.Chemscore.CHOScore>
0.0000

> <Gold.PLP.Chemscore.Metal>
0.0000

> <Gold.Chemscore.Hbonds>
donor molecule, donor type, donor heavy atom, donor atom, acceptor molecule, acceptor atom, score
      L1  H    10    54       P1 10957  1.55
      L1  H    15    53       P1  8028  2.00

> <Gold.PLP.Chemscore.Internal.Correction>
0.1327

> <Gold.Rescore>
     Score         DG    S(hbond)    S(metal)    S(lipo)     H(rot)  DE(clash)    DE(int)     intcor
     17.39     -19.19       1.91        0.00      94.46       1.46       0.44       1.35       ----

> <Gold.Chemscore.Fitness>
17.3931

> <Gold.Chemscore.DG>
-19.1872

> <Gold.Chemscore.ZeroCoef>
-5.4800

> <Gold.Chemscore.Hbond>
1.9120

> <Gold.Chemscore.Metal>
0.0000

> <Gold.Chemscore.Lipo>
94.4581

> <Gold.Chemscore.Internal_Hbond>
0.0000

> <Gold.Chemscore.DEClash>
0.4408

> <Gold.Chemscore.DEInternal>
1.3534

> <Gold.Chemscore.Rot>
1.4572

> <Gold.Chemscore.Internal.Correction>
   9.000000E+99

> <Gold.Chemscore.Hbonds>
donor molecule, donor type, donor heavy atom, donor atom, acceptor molecule, acceptor atom, score
      L1  H    10    54       P1 10957  0.53
      L1  H    15    53       P1  8028  0.87

> <Gold.Chemscore.Hbond.Weighted>
-6.3861

> <Gold.Chemscore.Metal.Weighted>
-0.0000

> <Gold.Chemscore.Lipo.Weighted>
-11.0516

> <Gold.Chemscore.Internal_Hbond.Weighted>
0.0000

> <Gold.Chemscore.DEClash.Weighted>
0.4408

> <Gold.Chemscore.DEInternal.Weighted>
1.3534

> <Gold.Chemscore.Rot.Weighted>
3.7305

> <Gold.Chemscore.Internal.Correction.Weighted>
   9.000000E+99

> <Gold.Protein.RotatedTorsions>
[ 6907 6896 6895 6894 ] final   40.67 input  -60.11 | X-H torsion
[ 7974 7965 7964 7962 ] final   20.99 input  175.53 | X-H torsion
[ 8008 7997 7996 7995 ] final  -49.26 input   59.86 | X-H torsion
[ 10167 10162 10161 10158 ] final -149.09 input  -65.29 | X-H torsion
[ 10718 10713 10712 10709 ] final  105.04 input   66.30 | X-H torsion
[ 10763 10752 10751 10750 ] final  139.11 input  -60.55 | X-H torsion
[ 11005 11000 10999 10996 ] final  -29.08 input  -57.11 | X-H torsion

> <Gold.Protein.ActiveResidues>
 VAL166  LYS551  ARG553  GLY616  TRP617  ASP618  TYR619  PRO620  LYS621  CYS622 
 ASP623  PHE694  ASN695  SER759  ASP760  ASP761  ALA762  ILE779  LEU786  VAL792 
 PHE793  MET794  SER795  GLU796  ALA797  LYS798  CYS799  TRP800  GLU811  SER814 

> <Gold.Protein.RotatedAtoms>
  152.1854  134.8718  160.0522 H   0  0  0  0  0  0  0  0  0  0  0  0  # atno 6907 bound_to 6896
  151.9627  133.3695  159.4049 H   0  0  0  0  0  0  0  0  0  0  0  0  # atno 6908 bound_to 6896
  150.6925  134.4147  159.5222 H   0  0  0  0  0  0  0  0  0  0  0  0  # atno 6909 bound_to 6896
  146.2089  139.8091  142.8704 H   0  0  0  0  0  0  0  0  0  0  0  0  # atno 7974 bound_to 7965
  154.4041  140.1301  156.4474 H   0  0  0  0  0  0  0  0  0  0  0  0  # atno 8008 bound_to 7997
  155.7400  140.3490  155.5079 H   0  0  0  0  0  0  0  0  0  0  0  0  # atno 8009 bound_to 7997
  155.9048  140.1025  157.1313 H   0  0  0  0  0  0  0  0  0  0  0  0  # atno 8010 bound_to 7997
  139.7473  143.8571  152.2578 H   0  0  0  0  0  0  0  0  0  0  0  0  # atno 10167 bound_to 10162
  157.6719  131.0818  150.5797 H   0  0  0  0  0  0  0  0  0  0  0  0  # atno 10718 bound_to 10713
  153.9007  135.3022  155.3448 H   0  0  0  0  0  0  0  0  0  0  0  0  # atno 10763 bound_to 10752
  154.7671  135.4905  153.9579 H   0  0  0  0  0  0  0  0  0  0  0  0  # atno 10764 bound_to 10752
  153.1246  135.6790  153.9378 H   0  0  0  0  0  0  0  0  0  0  0  0  # atno 10765 bound_to 10752
  140.9265  133.7365  156.0875 H   0  0  0  0  0  0  0  0  0  0  0  0  # atno 11005 bound_to 11000
  145.3215  141.0245  143.3498 LP  0  0  0  0  0  0  0  0  0  0  0  0  # atno 17320 bound_to 7965
  144.8863  139.4834  143.6699 LP  0  0  0  0  0  0  0  0  0  0  0  0  # atno 17321 bound_to 7965
  139.8539  144.7151  150.9181 LP  0  0  0  0  0  0  0  0  0  0  0  0  # atno 17342 bound_to 10162
  140.7793  143.3875  151.1367 LP  0  0  0  0  0  0  0  0  0  0  0  0  # atno 17343 bound_to 10162
  156.6098  130.4377  149.5863 LP  0  0  0  0  0  0  0  0  0  0  0  0  # atno 17370 bound_to 10713
  156.2439  130.6867  151.1582 LP  0  0  0  0  0  0  0  0  0  0  0  0  # atno 17371 bound_to 10713
  140.7919  134.3608  157.5462 LP  0  0  0  0  0  0  0  0  0  0  0  0  # atno 17394 bound_to 11000
  139.8786  134.9145  156.3109 LP  0  0  0  0  0  0  0  0  0  0  0  0  # atno 17395 bound_to 11000

$$$$
