AV-unprocessed.smi:2746|AV-procd|sdf|10573|dock10
  -GOLD-   2272015 23D 1   1.00000     0.00000
 Structure written by MMmdl.
 39 40  0  0  0  0  0  0  0  0  2 V2000
  147.9936  132.7358  152.3423 C   0  0  0  0  0  0  0  0  0  0  0  0
  147.3938  133.5501  153.2280 C   0  0  0  0  0  0  0  0  0  0  0  0
  146.3640  134.6312  152.9243 C   0  0  2  0  0  0  0  0  0  0  0  0
  145.8667  134.5251  151.4768 C   0  0  0  0  0  0  0  0  0  0  0  0
  146.8773  135.9801  153.1625 N   0  0  0  0  0  0  0  0  0  0  0  0
  146.2708  136.9375  153.8841 C   0  0  0  0  0  0  0  0  0  0  0  0
  145.1602  136.8102  154.3998 O   0  0  0  0  0  0  0  0  0  0  0  0
  147.0158  138.2353  153.9872 C   0  0  0  0  0  0  0  0  0  0  0  0
  148.3594  138.3047  154.4257 C   0  0  0  0  0  0  0  0  0  0  0  0
  148.9959  139.5639  154.5335 C   0  0  0  0  0  0  0  0  0  0  0  0
  150.3239  139.6871  154.9638 N   0  0  0  0  0  0  0  0  0  0  0  0
  151.0586  138.4285  154.9384 C   0  0  0  0  0  0  0  0  0  0  0  0
  152.5337  138.6735  155.3009 C   0  0  0  0  0  0  0  0  0  0  0  0
  152.6115  139.3223  156.5671 O   0  0  0  0  0  0  0  0  0  0  0  0
  151.9565  140.5877  156.5613 C   0  0  0  0  0  0  0  0  0  0  0  0
  150.4663  140.3940  156.2311 C   0  0  0  0  0  0  0  0  0  0  0  0
  148.2684  140.7260  154.2006 C   0  0  0  0  0  0  0  0  0  0  0  0
  146.9297  140.6040  153.7798 C   0  0  0  0  0  0  0  0  0  0  0  0
  146.3606  139.3825  153.6945 N   0  3  0  0  0  0  0  0  0  0  0  0
  147.7850  132.7808  151.2837 H   0  0  0  0  0  0  0  0  0  0  0  0
  148.7131  132.0019  152.6744 H   0  0  0  0  0  0  0  0  0  0  0  0
  147.6550  133.4448  154.2711 H   0  0  0  0  0  0  0  0  0  0  0  0
  145.5114  134.4407  153.5782 H   0  0  0  0  0  0  0  0  0  0  0  0
  145.4421  133.5403  151.2784 H   0  0  0  0  0  0  0  0  0  0  0  0
  146.6765  134.6874  150.7646 H   0  0  0  0  0  0  0  0  0  0  0  0
  145.0907  135.2637  151.2732 H   0  0  0  0  0  0  0  0  0  0  0  0
  147.7761  136.1950  152.7559 H   0  0  0  0  0  0  0  0  0  0  0  0
  148.8984  137.4048  154.6846 H   0  0  0  0  0  0  0  0  0  0  0  0
  150.6169  137.7270  155.6475 H   0  0  0  0  0  0  0  0  0  0  0  0
  150.9867  137.9769  153.9481 H   0  0  0  0  0  0  0  0  0  0  0  0
  153.0709  137.7264  155.3524 H   0  0  0  0  0  0  0  0  0  0  0  0
  153.0266  139.2795  154.5391 H   0  0  0  0  0  0  0  0  0  0  0  0
  152.0675  141.0501  157.5422 H   0  0  0  0  0  0  0  0  0  0  0  0
  152.4328  141.2525  155.8389 H   0  0  0  0  0  0  0  0  0  0  0  0
  149.9670  141.3621  156.1732 H   0  0  0  0  0  0  0  0  0  0  0  0
  149.9849  139.8288  157.0303 H   0  0  0  0  0  0  0  0  0  0  0  0
  148.7279  141.7013  154.2733 H   0  0  0  0  0  0  0  0  0  0  0  0
  146.2999  141.4406  153.5146 H   0  0  0  0  0  0  0  0  0  0  0  0
  145.3873  139.3175  153.3943 H   0  0  0  0  0  0  0  0  0  0  0  0
  1  2  2  0  0  0  0
  1 20  1  0  0  0  0
  1 21  1  0  0  0  0
  2  3  1  0  0  0  0
  2 22  1  0  0  0  0
  3  4  1  0  0  0  0
  3  5  1  0  0  0  0
  3 23  1  0  0  0  0
  4 24  1  0  0  0  0
  4 25  1  0  0  0  0
  4 26  1  0  0  0  0
  5  6  1  0  0  0  0
  5 27  1  0  0  0  0
  6  7  2  0  0  0  0
  6  8  1  0  0  0  0
  8 19  1  0  0  0  0
  8  9  2  0  0  0  0
  9 10  1  0  0  0  0
  9 28  1  0  0  0  0
 10 11  1  0  0  0  0
 10 17  2  0  0  0  0
 11 16  1  0  0  0  0
 11 12  1  0  0  0  0
 12 13  1  0  0  0  0
 12 29  1  0  0  0  0
 12 30  1  0  0  0  0
 13 14  1  0  0  0  0
 13 31  1  0  0  0  0
 13 32  1  0  0  0  0
 14 15  1  0  0  0  0
 15 16  1  0  0  0  0
 15 33  1  0  0  0  0
 15 34  1  0  0  0  0
 16 35  1  0  0  0  0
 16 36  1  0  0  0  0
 17 18  1  0  0  0  0
 17 37  1  0  0  0  0
 18 19  2  0  0  0  0
 18 38  1  0  0  0  0
 19 39  1  0  0  0  0
M  CHG  1  19   1
M  END
> <s_m_source_file>
AV-unprocessed.smi

> <i_m_source_file_index>
2746

> <i_lp_mmshare_version>
43012

> <i_f3d_flags>
0

> <s_epik_input>
W0NIMl09W0NIXVtDQEhdKFtDSDNdKVtOSF1DKD1PKWMxW2NIXWMoW2NIXVtjSF1uMSlOMltDSDJdW0NIMl1PW0NIMl1bQ0gyXTI=

> <s_epik_cmdline>
J2VwaWtfcHl0aG9uJywgJy1waCcsICc3LjAnLCAnLXRuJywgJzgnLCAnLW1hJywgJzIwMCcsICctbWV0YWxfYmluZGluZycsICctaW1hZScsICc8aW5maWxlLm1hZT4nLCAnLW9tYWUnLCAnPG91dGZpbGUubWFlPic=

> <r_lp_tautomer_probability>
1

> <r_epik_Ionization_Penalty>
0.451073

> <r_epik_Ionization_Penalty_Charging>
0.450607

> <r_epik_Ionization_Penalty_Neutral>
0.000466544

> <r_epik_State_Penalty>
0.453375

> <r_epik_Charging_Adjusted_Penalty>
0.903982

> <i_epik_Tot_Q>
1

> <i_epik_Tot_abs_Q>
1

> <r_epik_Metal_State_Penalty>
1.0249

> <b_epik_Metal_Only>
0

> <s_lp_Force_Field>
OPLS_2005

> <r_lp_Energy>
26.9967

> <b_lp_Chiralities_Consistent>
1

> <s_lp_Variant>
AV-unprocessed.smi:2746-3

> <Gold.Version>
5.8.1

> <Gold.Id.Protein>
6NUR|6NUR_protein|mol2

> <Gold.PLP.Fitness>
43.0106

> <Gold.PLP.PLP>
-30.6652

> <Gold.PLP.part.hbond>
-3.9354

> <Gold.PLP.part.metal>
0.0000

> <Gold.PLP.part.buried>
-2.3651

> <Gold.PLP.part.nonpolar>
-24.1454

> <Gold.PLP.part.repulsive>
0.1894

> <Gold.PLP.ligand.clash>
0.0000

> <Gold.PLP.ligand.torsion>
1.3202

> <Gold.PLP.Chemscore.Hbond>
4.9500

> <Gold.PLP.Chemscore.CHOScore>
0.0000

> <Gold.PLP.Chemscore.Metal>
0.0000

> <Gold.Chemscore.Hbonds>
donor molecule, donor type, donor heavy atom, donor atom, acceptor molecule, acceptor atom, score
      L1  H     5    27       P1  7948  0.86
      L1  H    19    39       P1 10175  0.77
      P1  H  7989  7998       L1    11  0.31
      P1  H  7997  8008       L1    14  0.70

> <Gold.PLP.Chemscore.Internal.Correction>
0.1357

> <Gold.Rescore>
     Score         DG    S(hbond)    S(metal)    S(lipo)     H(rot)  DE(clash)    DE(int)     intcor
     16.27     -17.82       1.99        0.00      77.12       1.30       0.00       1.55       ----

> <Gold.Chemscore.Fitness>
16.2663

> <Gold.Chemscore.DG>
-17.8150

> <Gold.Chemscore.ZeroCoef>
-5.4800

> <Gold.Chemscore.Hbond>
1.9890

> <Gold.Chemscore.Metal>
0.0000

> <Gold.Chemscore.Lipo>
77.1215

> <Gold.Chemscore.Internal_Hbond>
0.0000

> <Gold.Chemscore.DEClash>
0.0037

> <Gold.Chemscore.DEInternal>
1.5450

> <Gold.Chemscore.Rot>
1.3013

> <Gold.Chemscore.Internal.Correction>
   9.000000E+99

> <Gold.Chemscore.Hbonds>
donor molecule, donor type, donor heavy atom, donor atom, acceptor molecule, acceptor atom, score
      L1  H     5    27       P1  7948  0.84
      L1  H    19    39       P1 10175  0.38
      P1  H  7989  7998       L1    11  0.03
      P1  H  7997  8008       L1    14  0.03

> <Gold.Chemscore.Hbond.Weighted>
-6.6431

> <Gold.Chemscore.Metal.Weighted>
-0.0000

> <Gold.Chemscore.Lipo.Weighted>
-9.0232

> <Gold.Chemscore.Internal_Hbond.Weighted>
0.0000

> <Gold.Chemscore.DEClash.Weighted>
0.0037

> <Gold.Chemscore.DEInternal.Weighted>
1.5450

> <Gold.Chemscore.Rot.Weighted>
3.3313

> <Gold.Chemscore.Internal.Correction.Weighted>
   9.000000E+99

> <Gold.Protein.RotatedTorsions>
[ 6907 6896 6895 6894 ] final   36.14 input  -60.11 | X-H torsion
[ 7974 7965 7964 7962 ] final  130.44 input  175.53 | X-H torsion
[ 8008 7997 7996 7995 ] final  -54.67 input   59.86 | X-H torsion
[ 10167 10162 10161 10158 ] final   32.86 input  -65.29 | X-H torsion
[ 10718 10713 10712 10709 ] final  -64.39 input   66.30 | X-H torsion
[ 10763 10752 10751 10750 ] final   94.68 input  -60.55 | X-H torsion
[ 11005 11000 10999 10996 ] final  -88.75 input  -57.11 | X-H torsion

> <Gold.Protein.ActiveResidues>
 VAL166  LYS551  ARG553  GLY616  TRP617  ASP618  TYR619  PRO620  LYS621  CYS622 
 ASP623  PHE694  ASN695  SER759  ASP760  ASP761  ALA762  ILE779  LEU786  VAL792 
 PHE793  MET794  SER795  GLU796  ALA797  LYS798  CYS799  TRP800  GLU811  SER814 

> <Gold.Protein.RotatedAtoms>
  152.1258  134.9172  160.0560 H   0  0  0  0  0  0  0  0  0  0  0  0  # atno 6907 bound_to 6896
  152.0296  133.3927  159.4300 H   0  0  0  0  0  0  0  0  0  0  0  0  # atno 6908 bound_to 6896
  150.6852  134.3457  159.4931 H   0  0  0  0  0  0  0  0  0  0  0  0  # atno 6909 bound_to 6896
  145.0179  139.4159  143.5212 H   0  0  0  0  0  0  0  0  0  0  0  0  # atno 7974 bound_to 7965
  154.4170  140.1171  156.5352 H   0  0  0  0  0  0  0  0  0  0  0  0  # atno 8008 bound_to 7997
  155.6564  140.3496  155.4747 H   0  0  0  0  0  0  0  0  0  0  0  0  # atno 8009 bound_to 7997
  155.9750  140.1149  157.0768 H   0  0  0  0  0  0  0  0  0  0  0  0  # atno 8010 bound_to 7997
  140.4460  144.1118  150.6182 H   0  0  0  0  0  0  0  0  0  0  0  0  # atno 10167 bound_to 10162
  156.0732  130.4233  150.1413 H   0  0  0  0  0  0  0  0  0  0  0  0  # atno 10718 bound_to 10713
  153.2445  135.4281  155.0733 H   0  0  0  0  0  0  0  0  0  0  0  0  # atno 10763 bound_to 10752
  154.8355  135.3411  154.6602 H   0  0  0  0  0  0  0  0  0  0  0  0  # atno 10764 bound_to 10752
  153.7024  135.7027  153.5116 H   0  0  0  0  0  0  0  0  0  0  0  0  # atno 10765 bound_to 10752
  141.1596  133.7588  156.9496 H   0  0  0  0  0  0  0  0  0  0  0  0  # atno 11005 bound_to 11000
  146.3481  139.9661  142.8711 LP  0  0  0  0  0  0  0  0  0  0  0  0  # atno 17320 bound_to 7965
  145.1935  140.9822  143.4197 LP  0  0  0  0  0  0  0  0  0  0  0  0  # atno 17321 bound_to 7965
  140.4263  143.2588  151.9652 LP  0  0  0  0  0  0  0  0  0  0  0  0  # atno 17342 bound_to 10162
  139.4793  144.5785  151.7972 LP  0  0  0  0  0  0  0  0  0  0  0  0  # atno 17343 bound_to 10162
  156.9460  130.9759  151.3507 LP  0  0  0  0  0  0  0  0  0  0  0  0  # atno 17370 bound_to 10713
  157.5814  130.8379  149.8528 LP  0  0  0  0  0  0  0  0  0  0  0  0  # atno 17371 bound_to 10713
  140.1266  134.9383  157.2279 LP  0  0  0  0  0  0  0  0  0  0  0  0  # atno 17394 bound_to 11000
  140.3005  134.3137  155.7291 LP  0  0  0  0  0  0  0  0  0  0  0  0  # atno 17395 bound_to 11000

$$$$
