AV-unprocessed.smi:3208|AV-procd|sdf|12267|dock2
  -GOLD-   2272018103D 1   1.00000     0.00000
 Structure written by MMmdl.
 29 29  0  0  0  0  0  0  0  0  2 V2000
  151.8476  138.1299  154.1094 C   0  0  0  0  0  0  0  0  0  0  0  0
  151.7663  138.1227  155.4483 C   0  0  0  0  0  0  0  0  0  0  0  0
  151.4714  139.3401  156.2967 C   0  0  0  0  0  0  0  0  0  0  0  0
  151.5908  140.5233  155.5163 O   0  0  0  0  0  0  0  0  0  0  0  0
  150.8085  141.6307  155.9580 C   0  0  1  0  0  0  0  0  0  0  0  0
  149.3642  141.3917  155.4936 C   0  0  0  0  0  0  0  0  0  0  0  0
  150.8872  141.7716  157.4868 C   0  0  0  0  0  0  0  0  0  0  0  0
  149.8497  141.8313  158.1482 O   0  0  0  0  0  0  0  0  0  0  0  0
  152.1294  141.8040  158.0032 N   0  0  0  0  0  0  0  0  0  0  0  0
  152.5274  141.9360  159.3622 C   0  0  0  0  0  0  0  0  0  0  0  0
  152.0039  142.8695  160.1963 N   0  0  0  0  0  0  0  0  0  0  0  0
  152.4383  142.9346  161.4717 C   0  0  0  0  0  0  0  0  0  0  0  0
  153.4199  142.0759  161.9967 C   0  0  0  0  0  0  0  0  0  0  0  0
  153.9709  141.1027  161.1452 C   0  0  0  0  0  0  0  0  0  0  0  0
  153.5223  141.0276  159.8112 C   0  0  0  0  0  0  0  0  0  0  0  0
  154.0594  140.0796  158.9827 O   0  5  0  0  0  0  0  0  0  0  0  0
  151.7021  139.0384  153.5431 H   0  0  0  0  0  0  0  0  0  0  0  0
  152.0617  137.2238  153.5622 H   0  0  0  0  0  0  0  0  0  0  0  0
  151.9182  137.1958  155.9818 H   0  0  0  0  0  0  0  0  0  0  0  0
  150.4720  139.2516  156.7250 H   0  0  0  0  0  0  0  0  0  0  0  0
  152.1832  139.3612  157.1229 H   0  0  0  0  0  0  0  0  0  0  0  0
  151.1731  142.5429  155.4817 H   0  0  0  0  0  0  0  0  0  0  0  0
  148.7061  142.1999  155.8151 H   0  0  0  0  0  0  0  0  0  0  0  0
  148.9649  140.4565  155.8878 H   0  0  0  0  0  0  0  0  0  0  0  0
  149.3125  141.3384  154.4060 H   0  0  0  0  0  0  0  0  0  0  0  0
  152.8931  141.7325  157.3462 H   0  0  0  0  0  0  0  0  0  0  0  0
  151.9893  143.6959  162.0924 H   0  0  0  0  0  0  0  0  0  0  0  0
  153.7415  142.1610  163.0239 H   0  0  0  0  0  0  0  0  0  0  0  0
  154.7276  140.4247  161.5122 H   0  0  0  0  0  0  0  0  0  0  0  0
  1  2  2  0  0  0  0
  1 17  1  0  0  0  0
  1 18  1  0  0  0  0
  2  3  1  0  0  0  0
  2 19  1  0  0  0  0
  3  4  1  0  0  0  0
  3 20  1  0  0  0  0
  3 21  1  0  0  0  0
  4  5  1  0  0  0  0
  5  6  1  0  0  0  0
  5  7  1  0  0  0  0
  5 22  1  0  0  0  0
  6 23  1  0  0  0  0
  6 24  1  0  0  0  0
  6 25  1  0  0  0  0
  7  8  2  0  0  0  0
  7  9  1  0  0  0  0
  9 26  1  0  0  0  0
  9 10  1  0  0  0  0
 10 15  2  0  0  0  0
 10 11  1  0  0  0  0
 11 12  2  0  0  0  0
 12 27  1  0  0  0  0
 12 13  1  0  0  0  0
 13 28  1  0  0  0  0
 13 14  2  0  0  0  0
 14 15  1  0  0  0  0
 14 29  1  0  0  0  0
 15 16  1  0  0  0  0
M  CHG  1  16  -1
M  END
> <s_m_source_file>
AV-unprocessed.smi

> <i_m_source_file_index>
3208

> <i_lp_mmshare_version>
43012

> <i_f3d_flags>
0

> <s_epik_input>
W0NIMl09W0NIXVtDSDJdT1tDQEhdKFtDSDNdKUMoPU8pW05IXWMxbltjSF1bY0hdW2NIXWMxW09IXQ==

> <s_epik_cmdline>
J2VwaWtfcHl0aG9uJywgJy1waCcsICc3LjAnLCAnLXRuJywgJzgnLCAnLW1hJywgJzIwMCcsICctbWV0YWxfYmluZGluZycsICctaW1hZScsICc8aW5maWxlLm1hZT4nLCAnLW9tYWUnLCAnPG91dGZpbGUubWFlPic=

> <r_epik_Ionization_Penalty>
4.05889

> <r_epik_Ionization_Penalty_Charging>
2.07983

> <r_epik_Ionization_Penalty_Neutral>
1.97905

> <r_epik_State_Penalty>
2.65143

> <r_epik_Charging_Adjusted_Penalty>
4.73126

> <i_epik_Tot_Q>
-1

> <i_epik_Tot_abs_Q>
1

> <r_epik_Metal_State_Penalty>
0.650759

> <b_epik_Metal_Only>
0

> <s_lp_Force_Field>
OPLS_2005

> <r_lp_Energy>
4.10408

> <b_lp_Chiralities_Consistent>
1

> <s_lp_Variant>
AV-unprocessed.smi:3208-8

> <Gold.Version>
5.8.1

> <Gold.Id.Protein>
6NUR|6NUR_protein|mol2

> <Gold.PLP.Fitness>
40.1184

> <Gold.PLP.PLP>
-33.5300

> <Gold.PLP.part.hbond>
-2.0000

> <Gold.PLP.part.metal>
0.0000

> <Gold.PLP.part.buried>
-3.7999

> <Gold.PLP.part.nonpolar>
-26.6382

> <Gold.PLP.part.repulsive>
0.1750

> <Gold.PLP.ligand.clash>
0.0000

> <Gold.PLP.ligand.torsion>
0.9024

> <Gold.PLP.Chemscore.Hbond>
2.7930

> <Gold.PLP.Chemscore.CHOScore>
0.0000

> <Gold.PLP.Chemscore.Metal>
0.0000

> <Gold.Chemscore.Hbonds>
donor molecule, donor type, donor heavy atom, donor atom, acceptor molecule, acceptor atom, score
      P1  H  7989  7998       L1     4  0.78
      P1  H  7997  8010       L1    16  1.98

> <Gold.PLP.Chemscore.Internal.Correction>
0.0141

> <Gold.Rescore>
     Score         DG    S(hbond)    S(metal)    S(lipo)     H(rot)  DE(clash)    DE(int)     intcor
     14.37     -15.47       1.58        0.00      76.30       1.65       0.15       0.95       ----

> <Gold.Chemscore.Fitness>
14.3659

> <Gold.Chemscore.DG>
-15.4672

> <Gold.Chemscore.ZeroCoef>
-5.4800

> <Gold.Chemscore.Hbond>
1.5845

> <Gold.Chemscore.Metal>
0.0000

> <Gold.Chemscore.Lipo>
76.3029

> <Gold.Chemscore.Internal_Hbond>
0.0000

> <Gold.Chemscore.DEClash>
0.1527

> <Gold.Chemscore.DEInternal>
0.9486

> <Gold.Chemscore.Rot>
1.6533

> <Gold.Chemscore.Internal.Correction>
   9.000000E+99

> <Gold.Chemscore.Hbonds>
donor molecule, donor type, donor heavy atom, donor atom, acceptor molecule, acceptor atom, score
      P1  H  7989  7998       L1     4  0.22
      P1  H  7997  8010       L1    16  0.94

> <Gold.Chemscore.Hbond.Weighted>
-5.2921

> <Gold.Chemscore.Metal.Weighted>
-0.0000

> <Gold.Chemscore.Lipo.Weighted>
-8.9274

> <Gold.Chemscore.Internal_Hbond.Weighted>
0.0000

> <Gold.Chemscore.DEClash.Weighted>
0.1527

> <Gold.Chemscore.DEInternal.Weighted>
0.9486

> <Gold.Chemscore.Rot.Weighted>
4.2324

> <Gold.Chemscore.Internal.Correction.Weighted>
   9.000000E+99

> <Gold.Protein.RotatedTorsions>
[ 6907 6896 6895 6894 ] final    1.56 input  -60.11 | X-H torsion
[ 7974 7965 7964 7962 ] final -125.47 input  175.53 | X-H torsion
[ 8008 7997 7996 7995 ] final   10.71 input   59.86 | X-H torsion
[ 10167 10162 10161 10158 ] final -105.23 input  -65.29 | X-H torsion
[ 10718 10713 10712 10709 ] final -127.95 input   66.30 | X-H torsion
[ 10763 10752 10751 10750 ] final -160.47 input  -60.55 | X-H torsion
[ 11005 11000 10999 10996 ] final -133.98 input  -57.11 | X-H torsion

> <Gold.Protein.ActiveResidues>
 VAL166  LYS551  ARG553  GLY616  TRP617  ASP618  TYR619  PRO620  LYS621  CYS622 
 ASP623  PHE694  ASN695  SER759  ASP760  ASP761  ALA762  ILE779  LEU786  VAL792 
 PHE793  MET794  SER795  GLU796  ALA797  LYS798  CYS799  TRP800  GLU811  SER814 

> <Gold.Protein.RotatedAtoms>
  151.5947  135.1051  160.0046 H   0  0  0  0  0  0  0  0  0  0  0  0  # atno 6907 bound_to 6896
  152.4288  133.7238  159.6559 H   0  0  0  0  0  0  0  0  0  0  0  0  # atno 6908 bound_to 6896
  150.8179  133.8233  159.3174 H   0  0  0  0  0  0  0  0  0  0  0  0  # atno 6909 bound_to 6896
  144.9972  140.7787  143.4518 H   0  0  0  0  0  0  0  0  0  0  0  0  # atno 7974 bound_to 7965
  154.7970  140.2845  155.5949 H   0  0  0  0  0  0  0  0  0  0  0  0  # atno 8008 bound_to 7997
  156.2972  140.2593  156.2759 H   0  0  0  0  0  0  0  0  0  0  0  0  # atno 8009 bound_to 7997
  154.9602  140.0378  157.2176 H   0  0  0  0  0  0  0  0  0  0  0  0  # atno 8010 bound_to 7997
  140.2007  143.3820  152.1131 H   0  0  0  0  0  0  0  0  0  0  0  0  # atno 10167 bound_to 10162
  156.1904  130.6792  151.0417 H   0  0  0  0  0  0  0  0  0  0  0  0  # atno 10718 bound_to 10713
  154.7387  135.3063  154.8765 H   0  0  0  0  0  0  0  0  0  0  0  0  # atno 10763 bound_to 10752
  153.9586  135.6755  153.4749 H   0  0  0  0  0  0  0  0  0  0  0  0  # atno 10764 bound_to 10752
  153.0988  135.4922  154.8752 H   0  0  0  0  0  0  0  0  0  0  0  0  # atno 10765 bound_to 10752
  140.9031  134.1664  157.4445 H   0  0  0  0  0  0  0  0  0  0  0  0  # atno 11005 bound_to 11000
  145.2202  139.2162  143.5097 LP  0  0  0  0  0  0  0  0  0  0  0  0  # atno 17320 bound_to 7965
  146.3444  140.2059  142.8589 LP  0  0  0  0  0  0  0  0  0  0  0  0  # atno 17321 bound_to 7965
  139.5218  144.7051  151.5379 LP  0  0  0  0  0  0  0  0  0  0  0  0  # atno 17342 bound_to 10162
  140.6392  143.8923  150.6676 LP  0  0  0  0  0  0  0  0  0  0  0  0  # atno 17343 bound_to 10162
  157.6926  131.0805  150.7064 LP  0  0  0  0  0  0  0  0  0  0  0  0  # atno 17370 bound_to 10713
  156.7121  130.4655  149.5544 LP  0  0  0  0  0  0  0  0  0  0  0  0  # atno 17371 bound_to 10713
  139.8745  134.9906  156.5511 LP  0  0  0  0  0  0  0  0  0  0  0  0  # atno 17394 bound_to 11000
  140.8204  133.8358  155.8891 LP  0  0  0  0  0  0  0  0  0  0  0  0  # atno 17395 bound_to 11000

$$$$
