AV-unprocessed.smi:437|AV-procd|sdf|2560|dock8
  -GOLD-   2262022533D 1   1.00000     0.00000
 Structure written by MMmdl.
 48 49  0  0  0  0  0  0  0  0  1 V2000
  151.2631  142.7750  157.3706 C   0  0  0  0  0  0  0  0  0  0  0  0
  151.0136  141.3134  157.1128 C   0  0  0  0  0  0  0  0  0  0  0  0
  150.3879  141.0143  156.0221 N   0  0  0  0  0  0  0  0  0  0  0  0
  150.1060  139.7031  155.6908 N   0  0  0  0  0  0  0  0  0  0  0  0
  149.3742  139.5501  154.4241 C   0  0  0  0  0  0  0  0  0  0  0  0
  147.9541  138.9898  154.6037 C   0  0  0  0  0  0  0  0  0  0  0  0
  147.1611  139.5372  155.3745 O   0  0  0  0  0  0  0  0  0  0  0  0
  147.6783  137.8991  153.8603 N   0  0  0  0  0  0  0  0  0  0  0  0
  146.5249  137.2049  153.8174 C   0  0  0  0  0  0  0  0  0  0  0  0
  145.4461  137.5713  154.2887 O   0  0  0  0  0  0  0  0  0  0  0  0
  146.6912  136.0370  153.1796 N   0  0  0  0  0  0  0  0  0  0  0  0
  145.7739  134.8976  153.2375 C   0  0  1  0  0  0  0  0  0  0  0  0
  144.3281  135.3314  152.9087 C   0  0  0  0  0  0  0  0  0  0  0  0
  144.1593  135.7122  151.4282 C   0  0  0  0  0  0  0  0  0  0  0  0
  144.6136  134.5706  150.5069 C   0  0  0  0  0  0  0  0  0  0  0  0
  146.0587  134.1456  150.8129 C   0  0  0  0  0  0  0  0  0  0  0  0
  146.2367  133.7580  152.2960 C   0  0  1  0  0  0  0  0  0  0  0  0
  147.6716  133.2865  152.5890 C   0  0  0  0  0  0  0  0  0  0  0  0
  150.4581  138.6194  156.4411 C   0  0  0  0  0  0  0  0  0  0  0  0
  150.1978  137.4648  156.0993 O   0  0  0  0  0  0  0  0  0  0  0  0
  151.1621  138.9659  157.6778 C   0  0  0  0  0  0  0  0  0  0  0  0
  151.5368  137.8611  158.5001 C   0  0  0  0  0  0  0  0  0  0  0  0
  151.8272  136.9711  159.1811 N   0  0  0  0  0  0  0  0  0  0  0  0
  151.4374  140.2500  158.0179 C   0  0  0  0  0  0  0  0  0  0  0  0
  152.1667  140.6637  159.2887 C   0  0  0  0  0  0  0  0  0  0  0  0
  152.3318  142.9784  157.4402 H   0  0  0  0  0  0  0  0  0  0  0  0
  150.7967  143.0887  158.3048 H   0  0  0  0  0  0  0  0  0  0  0  0
  150.8605  143.4035  156.5747 H   0  0  0  0  0  0  0  0  0  0  0  0
  149.2955  140.5146  153.9189 H   0  0  0  0  0  0  0  0  0  0  0  0
  149.9330  138.9077  153.7410 H   0  0  0  0  0  0  0  0  0  0  0  0
  148.4223  137.5675  153.2643 H   0  0  0  0  0  0  0  0  0  0  0  0
  147.5134  135.9223  152.6054 H   0  0  0  0  0  0  0  0  0  0  0  0
  145.7872  134.5087  154.2574 H   0  0  0  0  0  0  0  0  0  0  0  0
  143.6493  134.5104  153.1425 H   0  0  0  0  0  0  0  0  0  0  0  0
  144.0217  136.1623  153.5451 H   0  0  0  0  0  0  0  0  0  0  0  0
  143.1168  135.9590  151.2258 H   0  0  0  0  0  0  0  0  0  0  0  0
  144.7357  136.6120  151.2099 H   0  0  0  0  0  0  0  0  0  0  0  0
  143.9478  133.7155  150.6306 H   0  0  0  0  0  0  0  0  0  0  0  0
  144.5295  134.8789  149.4643 H   0  0  0  0  0  0  0  0  0  0  0  0
  146.3308  133.3047  150.1742 H   0  0  0  0  0  0  0  0  0  0  0  0
  146.7394  134.9580  150.5550 H   0  0  0  0  0  0  0  0  0  0  0  0
  145.5833  132.9046  152.4847 H   0  0  0  0  0  0  0  0  0  0  0  0
  148.4055  134.0639  152.3755 H   0  0  0  0  0  0  0  0  0  0  0  0
  147.9277  132.4178  151.9821 H   0  0  0  0  0  0  0  0  0  0  0  0
  147.7835  133.0005  153.6352 H   0  0  0  0  0  0  0  0  0  0  0  0
  152.4566  139.8075  159.8965 H   0  0  0  0  0  0  0  0  0  0  0  0
  151.5308  141.3017  159.9031 H   0  0  0  0  0  0  0  0  0  0  0  0
  153.0754  141.2150  159.0460 H   0  0  0  0  0  0  0  0  0  0  0  0
  1  2  1  0  0  0  0
  1 26  1  0  0  0  0
  1 27  1  0  0  0  0
  1 28  1  0  0  0  0
  2 24  1  0  0  0  0
  2  3  2  0  0  0  0
  3  4  1  0  0  0  0
  4  5  1  0  0  0  0
  4 19  1  0  0  0  0
  5  6  1  0  0  0  0
  5 29  1  0  0  0  0
  5 30  1  0  0  0  0
  6  7  2  0  0  0  0
  6  8  1  0  0  0  0
  8  9  1  0  0  0  0
  8 31  1  0  0  0  0
  9 10  2  0  0  0  0
  9 11  1  0  0  0  0
 11 12  1  0  0  0  0
 11 32  1  0  0  0  0
 12 17  1  0  0  0  0
 12 13  1  0  0  0  0
 12 33  1  0  0  0  0
 13 14  1  0  0  0  0
 13 34  1  0  0  0  0
 13 35  1  0  0  0  0
 14 15  1  0  0  0  0
 14 36  1  0  0  0  0
 14 37  1  0  0  0  0
 15 16  1  0  0  0  0
 15 38  1  0  0  0  0
 15 39  1  0  0  0  0
 16 17  1  0  0  0  0
 16 40  1  0  0  0  0
 16 41  1  0  0  0  0
 17 18  1  0  0  0  0
 17 42  1  0  0  0  0
 18 43  1  0  0  0  0
 18 44  1  0  0  0  0
 18 45  1  0  0  0  0
 19 20  2  0  0  0  0
 19 21  1  0  0  0  0
 21 22  1  0  0  0  0
 21 24  2  0  0  0  0
 22 23  3  0  0  0  0
 24 25  1  0  0  0  0
 25 46  1  0  0  0  0
 25 47  1  0  0  0  0
 25 48  1  0  0  0  0
M  END
> <s_m_source_file>
AV-unprocessed.smi

> <i_m_source_file_index>
437

> <i_lp_mmshare_version>
43012

> <i_f3d_flags>
0

> <s_epik_input>
TiNDYyhjMVtDSDNdKWMoPU8pbihuYzFbQ0gzXSlbQ0gyXUMoPU8pW05IXUMoPU8pW05IXVtDQEBIXTJbQ0gyXVtDSDJdW0NIMl1bQ0gyXVtDQEhdMltDSDNd

> <s_epik_cmdline>
J2VwaWtfcHl0aG9uJywgJy1waCcsICc3LjAnLCAnLXRuJywgJzgnLCAnLW1hJywgJzIwMCcsICctbWV0YWxfYmluZGluZycsICctaW1hZScsICc8aW5maWxlLm1hZT4nLCAnLW9tYWUnLCAnPG91dGZpbGUubWFlPic=

> <r_lp_tautomer_probability>
1

> <r_epik_Ionization_Penalty>
3.27035e-05

> <r_epik_Ionization_Penalty_Charging>
1.6965e-11

> <r_epik_Ionization_Penalty_Neutral>
3.27035e-05

> <r_epik_State_Penalty>
-0

> <r_epik_Charging_Adjusted_Penalty>
1.6965e-11

> <i_epik_Tot_Q>
0

> <i_epik_Tot_abs_Q>
0

> <r_epik_Metal_State_Penalty>
-0

> <b_epik_Metal_Only>
0

> <s_lp_Force_Field>
OPLS_2005

> <r_lp_Energy>
26.066

> <b_lp_Chiralities_Consistent>
1

> <s_lp_Variant>
AV-unprocessed.smi:437-2

> <Gold.Version>
5.8.1

> <Gold.Id.Protein>
6NUR|6NUR_protein|mol2

> <Gold.PLP.Fitness>
41.5322

> <Gold.PLP.PLP>
-33.1363

> <Gold.PLP.part.hbond>
-3.0000

> <Gold.PLP.part.metal>
0.0000

> <Gold.PLP.part.buried>
-4.6904

> <Gold.PLP.part.nonpolar>
-24.6942

> <Gold.PLP.part.repulsive>
0.1934

> <Gold.PLP.ligand.clash>
0.0000

> <Gold.PLP.ligand.torsion>
0.2072

> <Gold.PLP.Chemscore.Hbond>
2.9280

> <Gold.PLP.Chemscore.CHOScore>
0.0000

> <Gold.PLP.Chemscore.Metal>
0.0000

> <Gold.Chemscore.Hbonds>
donor molecule, donor type, donor heavy atom, donor atom, acceptor molecule, acceptor atom, score
      L1  H     8    31       P1  7948  0.93
      L1  H    11    32       P1  7948  1.00
      P1  H  6896  6908       L1    23  1.00

> <Gold.PLP.Chemscore.Internal.Correction>
0.0262

> <Gold.Rescore>
     Score         DG    S(hbond)    S(metal)    S(lipo)     H(rot)  DE(clash)    DE(int)     intcor
     16.56     -19.43       2.89        0.00      70.90       1.57       0.04       2.82       ----

> <Gold.Chemscore.Fitness>
16.5597

> <Gold.Chemscore.DG>
-19.4269

> <Gold.Chemscore.ZeroCoef>
-5.4800

> <Gold.Chemscore.Hbond>
2.8919

> <Gold.Chemscore.Metal>
0.0000

> <Gold.Chemscore.Lipo>
70.9034

> <Gold.Chemscore.Internal_Hbond>
0.0000

> <Gold.Chemscore.DEClash>
0.0432

> <Gold.Chemscore.DEInternal>
2.8240

> <Gold.Chemscore.Rot>
1.5656

> <Gold.Chemscore.Internal.Correction>
   9.000000E+99

> <Gold.Chemscore.Hbonds>
donor molecule, donor type, donor heavy atom, donor atom, acceptor molecule, acceptor atom, score
      L1  H     8    31       P1  7948  0.87
      L1  H    11    32       P1  7948  0.99
      P1  H  6896  6908       L1    23  0.94

> <Gold.Chemscore.Hbond.Weighted>
-9.6591

> <Gold.Chemscore.Metal.Weighted>
-0.0000

> <Gold.Chemscore.Lipo.Weighted>
-8.2957

> <Gold.Chemscore.Internal_Hbond.Weighted>
0.0000

> <Gold.Chemscore.DEClash.Weighted>
0.0432

> <Gold.Chemscore.DEInternal.Weighted>
2.8240

> <Gold.Chemscore.Rot.Weighted>
4.0079

> <Gold.Chemscore.Internal.Correction.Weighted>
   9.000000E+99

> <Gold.Protein.RotatedTorsions>
[ 6907 6896 6895 6894 ] final -124.28 input  -60.11 | X-H torsion
[ 7974 7965 7964 7962 ] final  129.86 input  175.53 | X-H torsion
[ 8008 7997 7996 7995 ] final -170.80 input   59.86 | X-H torsion
[ 10167 10162 10161 10158 ] final   15.22 input  -65.29 | X-H torsion
[ 10718 10713 10712 10709 ] final -151.16 input   66.30 | X-H torsion
[ 10763 10752 10751 10750 ] final  161.56 input  -60.55 | X-H torsion
[ 11005 11000 10999 10996 ] final   98.13 input  -57.11 | X-H torsion

> <Gold.Protein.ActiveResidues>
 VAL166  LYS551  ARG553  GLY616  TRP617  ASP618  TYR619  PRO620  LYS621  CYS622 
 ASP623  PHE694  ASN695  SER759  ASP760  ASP761  ALA762  ILE779  LEU786  VAL792 
 PHE793  MET794  SER795  GLU796  ALA797  LYS798  CYS799  TRP800  GLU811  SER814 

> <Gold.Protein.RotatedAtoms>
  150.8753  133.7448  159.2948 H   0  0  0  0  0  0  0  0  0  0  0  0  # atno 6907 bound_to 6896
  151.5047  135.1061  159.9847 H   0  0  0  0  0  0  0  0  0  0  0  0  # atno 6908 bound_to 6896
  152.4723  133.8013  159.7010 H   0  0  0  0  0  0  0  0  0  0  0  0  # atno 6909 bound_to 6896
  145.0241  139.4105  143.5182 H   0  0  0  0  0  0  0  0  0  0  0  0  # atno 7974 bound_to 7965
  155.9231  140.1077  157.1191 H   0  0  0  0  0  0  0  0  0  0  0  0  # atno 8008 bound_to 7997
  154.4057  140.1252  156.4770 H   0  0  0  0  0  0  0  0  0  0  0  0  # atno 8009 bound_to 7997
  155.7172  140.3470  155.5002 H   0  0  0  0  0  0  0  0  0  0  0  0  # atno 8010 bound_to 7997
  140.5882  143.8847  150.6849 H   0  0  0  0  0  0  0  0  0  0  0  0  # atno 10167 bound_to 10162
  156.4556  130.8189  151.2420 H   0  0  0  0  0  0  0  0  0  0  0  0  # atno 10718 bound_to 10713
  154.2648  135.2767  155.2763 H   0  0  0  0  0  0  0  0  0  0  0  0  # atno 10763 bound_to 10752
  154.5352  135.5718  153.6796 H   0  0  0  0  0  0  0  0  0  0  0  0  # atno 10764 bound_to 10752
  152.9955  135.6237  154.2800 H   0  0  0  0  0  0  0  0  0  0  0  0  # atno 10765 bound_to 10752
  139.8773  134.9034  156.4410 H   0  0  0  0  0  0  0  0  0  0  0  0  # atno 11005 bound_to 11000
  146.3490  139.9755  142.8701 LP  0  0  0  0  0  0  0  0  0  0  0  0  # atno 17320 bound_to 7965
  145.1856  140.9788  143.4240 LP  0  0  0  0  0  0  0  0  0  0  0  0  # atno 17321 bound_to 7965
  140.2364  143.3697  152.1523 LP  0  0  0  0  0  0  0  0  0  0  0  0  # atno 17342 bound_to 10162
  139.5211  144.7041  151.5406 LP  0  0  0  0  0  0  0  0  0  0  0  0  # atno 17343 bound_to 10162
  157.7500  131.0123  150.3381 LP  0  0  0  0  0  0  0  0  0  0  0  0  # atno 17370 bound_to 10713
  156.3770  130.3873  149.7131 LP  0  0  0  0  0  0  0  0  0  0  0  0  # atno 17371 bound_to 10713
  140.8999  133.7787  155.9668 LP  0  0  0  0  0  0  0  0  0  0  0  0  # atno 17394 bound_to 11000
  140.8662  134.2781  157.5212 LP  0  0  0  0  0  0  0  0  0  0  0  0  # atno 17395 bound_to 11000

$$$$
