AV-unprocessed.smi:759|AV-procd|sdf|3620|dock5
  -GOLD-   22720 1 13D 1   1.00000     0.00000
 Structure written by MMmdl.
 24 25  0  0  0  0  0  0  0  0  2 V2000
  148.0698  133.5991  153.6675 C   0  0  0  0  0  0  0  0  0  0  0  0
  147.0166  134.2497  154.1586 N   0  0  0  0  0  0  0  0  0  0  0  0
  146.0847  134.3635  153.1879 N   0  0  0  0  0  0  0  0  0  0  0  0
  146.6748  133.7527  152.1588 C   0  0  0  0  0  0  0  0  0  0  0  0
  145.9884  133.6342  150.8327 C   0  0  1  0  0  0  0  0  0  0  0  0
  145.9010  132.1736  150.3511 C   0  0  0  0  0  0  0  0  0  0  0  0
  145.1789  132.0980  148.9970 C   0  0  0  0  0  0  0  0  0  0  0  0
  143.8084  132.7928  149.0643 C   0  0  0  0  0  0  0  0  0  0  0  0
  143.9535  134.1954  149.5119 N   0  3  0  0  0  0  0  0  0  0  0  0
  144.6052  134.3161  150.8349 C   0  0  0  0  0  0  0  0  0  0  0  0
  147.9256  133.2486  152.3965 N   0  0  0  0  0  0  0  0  0  0  0  0
  146.8933  134.6136  155.0930 H   0  0  0  0  0  0  0  0  0  0  0  0
  148.9539  133.3781  154.2474 H   0  0  0  0  0  0  0  0  0  0  0  0
  146.6020  134.1690  150.1049 H   0  0  0  0  0  0  0  0  0  0  0  0
  146.8989  131.7415  150.2672 H   0  0  0  0  0  0  0  0  0  0  0  0
  145.3604  131.5714  151.0829 H   0  0  0  0  0  0  0  0  0  0  0  0
  145.7918  132.5696  148.2277 H   0  0  0  0  0  0  0  0  0  0  0  0
  145.0554  131.0565  148.6982 H   0  0  0  0  0  0  0  0  0  0  0  0
  143.3290  132.7799  148.0852 H   0  0  0  0  0  0  0  0  0  0  0  0
  143.1467  132.2626  149.7506 H   0  0  0  0  0  0  0  0  0  0  0  0
  144.5108  134.6932  148.8322 H   0  0  0  0  0  0  0  0  0  0  0  0
  143.9570  133.8674  151.5891 H   0  0  0  0  0  0  0  0  0  0  0  0
  144.7016  135.3730  151.0853 H   0  0  0  0  0  0  0  0  0  0  0  0
  143.0388  134.6216  149.5577 H   0  0  0  0  0  0  0  0  0  0  0  0
  1 11  2  0  0  0  0
  1 13  1  0  0  0  0
  1  2  1  0  0  0  0
  2 12  1  0  0  0  0
  2  3  1  0  0  0  0
  3  4  2  0  0  0  0
  4 11  1  0  0  0  0
  4  5  1  0  0  0  0
  5 10  1  0  0  0  0
  5  6  1  0  0  0  0
  5 14  1  0  0  0  0
  6  7  1  0  0  0  0
  6 15  1  0  0  0  0
  6 16  1  0  0  0  0
  7  8  1  0  0  0  0
  7 17  1  0  0  0  0
  7 18  1  0  0  0  0
  8  9  1  0  0  0  0
  8 19  1  0  0  0  0
  8 20  1  0  0  0  0
  9 10  1  0  0  0  0
  9 21  1  0  0  0  0
  9 24  1  0  0  0  0
 10 22  1  0  0  0  0
 10 23  1  0  0  0  0
M  CHG  1   9   1
M  END
> <s_m_source_file>
AV-unprocessed.smi

> <i_m_source_file_index>
759

> <i_lp_mmshare_version>
43012

> <i_f3d_flags>
0

> <s_epik_input>
W25IXTFbY0hdbm5jMVtDQEBIXTJbQ0gyXVtDSDJdW0NIMl1bTkhdW0NIMl0y

> <s_epik_cmdline>
J2VwaWtfcHl0aG9uJywgJy1waCcsICc3LjAnLCAnLXRuJywgJzgnLCAnLW1hJywgJzIwMCcsICctbWV0YWxfYmluZGluZycsICctaW1hZScsICc8aW5maWxlLm1hZT4nLCAnLW9tYWUnLCAnPG91dGZpbGUubWFlPic=

> <r_lp_tautomer_probability>
0.948284

> <r_epik_Ionization_Penalty>
0.0050177

> <r_epik_Ionization_Penalty_Charging>
0.000345518

> <r_epik_Ionization_Penalty_Neutral>
0.00467218

> <r_epik_State_Penalty>
0.271452

> <r_epik_Charging_Adjusted_Penalty>
0.271797

> <i_epik_Tot_Q>
1

> <i_epik_Tot_abs_Q>
1

> <r_epik_Metal_State_Penalty>
0.537172

> <b_epik_Metal_Only>
0

> <s_lp_Force_Field>
OPLS_2005

> <r_lp_Energy>
9.69095

> <b_lp_Chiralities_Consistent>
1

> <s_lp_Variant>
AV-unprocessed.smi:759-2

> <Gold.Version>
5.8.1

> <Gold.Id.Protein>
6NUR|6NUR_protein|mol2

> <Gold.PLP.Fitness>
29.8699

> <Gold.PLP.PLP>
-20.8826

> <Gold.PLP.part.hbond>
-2.0000

> <Gold.PLP.part.metal>
0.0000

> <Gold.PLP.part.buried>
-2.5551

> <Gold.PLP.part.nonpolar>
-17.1509

> <Gold.PLP.part.repulsive>
0.4010

> <Gold.PLP.ligand.clash>
0.0000

> <Gold.PLP.ligand.torsion>
0.0277

> <Gold.PLP.Chemscore.Hbond>
3.0000

> <Gold.PLP.Chemscore.CHOScore>
0.0000

> <Gold.PLP.Chemscore.Metal>
0.0000

> <Gold.Chemscore.Hbonds>
donor molecule, donor type, donor heavy atom, donor atom, acceptor molecule, acceptor atom, score
      L1  H     9    21       P1  7921  1.00
      L1  H     9    24       P1 10186  2.00

> <Gold.PLP.Chemscore.Internal.Correction>
0.0427

> <Gold.Rescore>
     Score         DG    S(hbond)    S(metal)    S(lipo)     H(rot)  DE(clash)    DE(int)     intcor
     15.29     -15.32       1.94        0.00      50.57       1.00       0.00       0.02       ----

> <Gold.Chemscore.Fitness>
15.2903

> <Gold.Chemscore.DG>
-15.3152

> <Gold.Chemscore.ZeroCoef>
-5.4800

> <Gold.Chemscore.Hbond>
1.9396

> <Gold.Chemscore.Metal>
0.0000

> <Gold.Chemscore.Lipo>
50.5734

> <Gold.Chemscore.Internal_Hbond>
0.0000

> <Gold.Chemscore.DEClash>
0.0008

> <Gold.Chemscore.DEInternal>
0.0241

> <Gold.Chemscore.Rot>
1.0000

> <Gold.Chemscore.Internal.Correction>
   9.000000E+99

> <Gold.Chemscore.Hbonds>
donor molecule, donor type, donor heavy atom, donor atom, acceptor molecule, acceptor atom, score
      L1  H     9    21       P1  7921  0.90
      L1  H     9    24       P1 10186  0.83

> <Gold.Chemscore.Hbond.Weighted>
-6.4781

> <Gold.Chemscore.Metal.Weighted>
-0.0000

> <Gold.Chemscore.Lipo.Weighted>
-5.9171

> <Gold.Chemscore.Internal_Hbond.Weighted>
0.0000

> <Gold.Chemscore.DEClash.Weighted>
0.0008

> <Gold.Chemscore.DEInternal.Weighted>
0.0241

> <Gold.Chemscore.Rot.Weighted>
2.5600

> <Gold.Chemscore.Internal.Correction.Weighted>
   9.000000E+99

> <Gold.Protein.RotatedTorsions>
[ 6907 6896 6895 6894 ] final -100.95 input  -60.11 | X-H torsion
[ 7974 7965 7964 7962 ] final   -6.57 input  175.53 | X-H torsion
[ 8008 7997 7996 7995 ] final  -34.63 input   59.86 | X-H torsion
[ 10167 10162 10161 10158 ] final  -35.58 input  -65.29 | X-H torsion
[ 10718 10713 10712 10709 ] final  -79.96 input   66.30 | X-H torsion
[ 10763 10752 10751 10750 ] final  -29.64 input  -60.55 | X-H torsion
[ 11005 11000 10999 10996 ] final -103.26 input  -57.11 | X-H torsion

> <Gold.Protein.ActiveResidues>
 VAL166  LYS551  ARG553  GLY616  TRP617  ASP618  TYR619  PRO620  LYS621  CYS622 
 ASP623  PHE694  ASN695  SER759  ASP760  ASP761  ALA762  ILE779  LEU786  VAL792 
 PHE793  MET794  SER795  GLU796  ALA797  LYS798  CYS799  TRP800  GLU811  SER814 

> <Gold.Protein.RotatedAtoms>
  150.7135  134.0809  159.3897 H   0  0  0  0  0  0  0  0  0  0  0  0  # atno 6907 bound_to 6896
  151.8793  135.0457  160.0496 H   0  0  0  0  0  0  0  0  0  0  0  0  # atno 6908 bound_to 6896
  152.2581  133.5237  159.5402 H   0  0  0  0  0  0  0  0  0  0  0  0  # atno 6909 bound_to 6896
  146.2328  140.2189  142.8337 H   0  0  0  0  0  0  0  0  0  0  0  0  # atno 7974 bound_to 7965
  154.4116  140.1679  156.2081 H   0  0  0  0  0  0  0  0  0  0  0  0  # atno 8008 bound_to 7997
  155.9467  140.3404  155.6350 H   0  0  0  0  0  0  0  0  0  0  0  0  # atno 8009 bound_to 7997
  155.6921  140.0735  157.2435 H   0  0  0  0  0  0  0  0  0  0  0  0  # atno 8010 bound_to 7997
  140.7162  143.3467  151.2241 H   0  0  0  0  0  0  0  0  0  0  0  0  # atno 10167 bound_to 10162
  156.0080  130.4560  150.3728 H   0  0  0  0  0  0  0  0  0  0  0  0  # atno 10718 bound_to 10713
  153.7679  135.6914  153.4912 H   0  0  0  0  0  0  0  0  0  0  0  0  # atno 10763 bound_to 10752
  153.1894  135.4476  155.0129 H   0  0  0  0  0  0  0  0  0  0  0  0  # atno 10764 bound_to 10752
  154.8129  135.3385  154.7190 H   0  0  0  0  0  0  0  0  0  0  0  0  # atno 10765 bound_to 10752
  141.1154  133.8625  157.1463 H   0  0  0  0  0  0  0  0  0  0  0  0  # atno 11005 bound_to 11000
  144.9647  140.8310  143.5492 LP  0  0  0  0  0  0  0  0  0  0  0  0  # atno 17320 bound_to 7965
  145.2164  139.2180  143.5116 LP  0  0  0  0  0  0  0  0  0  0  0  0  # atno 17321 bound_to 7965
  139.6988  143.9567  152.2896 LP  0  0  0  0  0  0  0  0  0  0  0  0  # atno 17342 bound_to 10162
  139.9253  144.6774  150.8419 LP  0  0  0  0  0  0  0  0  0  0  0  0  # atno 17343 bound_to 10162
  157.1812  131.0392  151.2747 LP  0  0  0  0  0  0  0  0  0  0  0  0  # atno 17370 bound_to 10713
  157.4144  130.7403  149.6864 LP  0  0  0  0  0  0  0  0  0  0  0  0  # atno 17371 bound_to 10713
  140.0072  135.0003  157.0319 LP  0  0  0  0  0  0  0  0  0  0  0  0  # atno 17394 bound_to 11000
  140.4661  134.1434  155.7197 LP  0  0  0  0  0  0  0  0  0  0  0  0  # atno 17395 bound_to 11000

$$$$
