AV-unprocessed.smi:540|AV-procd|sdf|2870|dock4
  -GOLD-   2262023363D 1   1.00000     0.00000
 Structure written by MMmdl.
 48 50  0  0  0  0  0  0  0  0  2 V2000
  147.7317  141.4639  154.2961 C   0  0  0  0  0  0  0  0  0  0  0  0
  148.4582  140.1231  154.4228 C   0  0  0  0  0  0  0  0  0  0  0  0
  149.8157  140.3741  154.7370 O   0  0  0  0  0  0  0  0  0  0  0  0
  150.2327  139.7471  155.9382 C   0  0  0  0  0  0  0  0  0  0  0  0
  151.5914  140.3148  156.3714 C   0  0  0  0  0  0  0  0  0  0  0  0
  152.1200  139.6208  157.5457 N   0  0  0  0  0  0  0  0  0  0  0  0
  152.2592  140.1035  158.8112 C   0  0  0  0  0  0  0  0  0  0  0  0
  151.8569  141.3914  159.1726 N   0  0  0  0  0  0  0  0  0  0  0  0
  152.4245  142.1248  160.3022 C   0  0  0  0  0  0  0  0  0  0  0  0
  152.8546  143.5439  159.8904 C   0  0  0  0  0  0  0  0  0  0  0  0
  151.6690  144.3355  159.3112 C   0  0  0  0  0  0  0  0  0  0  0  0
  152.0957  145.7236  158.8141 C   0  0  0  0  0  0  0  0  0  0  0  0
  150.9994  143.5094  158.1993 C   0  0  0  0  0  0  0  0  0  0  0  0
  150.6637  142.0928  158.6992 C   0  0  0  0  0  0  0  0  0  0  0  0
  152.8564  139.2680  159.6627 N   0  0  0  0  0  0  0  0  0  0  0  0
  153.0997  138.1485  158.8835 C   0  0  0  0  0  0  0  0  0  0  0  0
  152.6759  138.3357  157.6043 C   0  0  0  0  0  0  0  0  0  0  0  0
  152.8449  137.3278  156.5308 C   0  0  0  0  0  0  0  0  0  0  0  0
  152.4674  137.5466  155.3818 O   0  0  0  0  0  0  0  0  0  0  0  0
  153.4526  136.1856  156.9830 N   0  5  0  0  0  0  0  0  0  0  0  0
  153.8901  135.9545  158.2688 C   0  0  0  0  0  0  0  0  0  0  0  0
  154.4338  134.8970  158.5903 O   0  0  0  0  0  0  0  0  0  0  0  0
  153.7242  136.9188  159.2274 N   0  0  0  0  0  0  0  0  0  0  0  0
  154.1860  136.7035  160.6019 C   0  0  0  0  0  0  0  0  0  0  0  0
  146.6799  141.3172  154.0506 H   0  0  0  0  0  0  0  0  0  0  0  0
  148.1774  142.0756  153.5112 H   0  0  0  0  0  0  0  0  0  0  0  0
  147.7840  142.0261  155.2288 H   0  0  0  0  0  0  0  0  0  0  0  0
  147.9952  139.5203  155.2054 H   0  0  0  0  0  0  0  0  0  0  0  0
  148.3844  139.5675  153.4871 H   0  0  0  0  0  0  0  0  0  0  0  0
  149.4931  139.9191  156.7214 H   0  0  0  0  0  0  0  0  0  0  0  0
  150.3092  138.6688  155.7926 H   0  0  0  0  0  0  0  0  0  0  0  0
  152.2979  140.2529  155.5501 H   0  0  0  0  0  0  0  0  0  0  0  0
  151.5109  141.3799  156.5732 H   0  0  0  0  0  0  0  0  0  0  0  0
  151.6940  142.1673  161.1112 H   0  0  0  0  0  0  0  0  0  0  0  0
  153.2875  141.5839  160.6917 H   0  0  0  0  0  0  0  0  0  0  0  0
  153.2691  144.0674  160.7523 H   0  0  0  0  0  0  0  0  0  0  0  0
  153.6557  143.4791  159.1525 H   0  0  0  0  0  0  0  0  0  0  0  0
  150.9390  144.4778  160.1094 H   0  0  0  0  0  0  0  0  0  0  0  0
  152.8308  145.6494  158.0122 H   0  0  0  0  0  0  0  0  0  0  0  0
  152.5393  146.3091  159.6199 H   0  0  0  0  0  0  0  0  0  0  0  0
  151.2413  146.2826  158.4319 H   0  0  0  0  0  0  0  0  0  0  0  0
  150.0892  144.0058  157.8613 H   0  0  0  0  0  0  0  0  0  0  0  0
  151.6589  143.4494  157.3331 H   0  0  0  0  0  0  0  0  0  0  0  0
  150.1650  141.5149  157.9220 H   0  0  0  0  0  0  0  0  0  0  0  0
  149.9473  142.1545  159.5194 H   0  0  0  0  0  0  0  0  0  0  0  0
  153.7301  135.8074  161.0253 H   0  0  0  0  0  0  0  0  0  0  0  0
  153.9416  137.5340  161.2636 H   0  0  0  0  0  0  0  0  0  0  0  0
  155.2690  136.5766  160.6224 H   0  0  0  0  0  0  0  0  0  0  0  0
  1  2  1  0  0  0  0
  1 25  1  0  0  0  0
  1 26  1  0  0  0  0
  1 27  1  0  0  0  0
  2  3  1  0  0  0  0
  2 28  1  0  0  0  0
  2 29  1  0  0  0  0
  3  4  1  0  0  0  0
  4  5  1  0  0  0  0
  4 30  1  0  0  0  0
  4 31  1  0  0  0  0
  5  6  1  0  0  0  0
  5 32  1  0  0  0  0
  5 33  1  0  0  0  0
  6 17  1  0  0  0  0
  6  7  1  0  0  0  0
  7  8  1  0  0  0  0
  7 15  2  0  0  0  0
  8 14  1  0  0  0  0
  8  9  1  0  0  0  0
  9 10  1  0  0  0  0
  9 34  1  0  0  0  0
  9 35  1  0  0  0  0
 10 11  1  0  0  0  0
 10 36  1  0  0  0  0
 10 37  1  0  0  0  0
 11 12  1  0  0  0  0
 11 13  1  0  0  0  0
 11 38  1  0  0  0  0
 12 39  1  0  0  0  0
 12 40  1  0  0  0  0
 12 41  1  0  0  0  0
 13 14  1  0  0  0  0
 13 42  1  0  0  0  0
 13 43  1  0  0  0  0
 14 44  1  0  0  0  0
 14 45  1  0  0  0  0
 15 16  1  0  0  0  0
 16 23  1  0  0  0  0
 16 17  2  0  0  0  0
 17 18  1  0  0  0  0
 18 19  2  0  0  0  0
 18 20  1  0  0  0  0
 20 21  1  0  0  0  0
 21 22  2  0  0  0  0
 21 23  1  0  0  0  0
 23 24  1  0  0  0  0
 24 46  1  0  0  0  0
 24 47  1  0  0  0  0
 24 48  1  0  0  0  0
M  CHG  1  20  -1
M  END
> <s_m_source_file>
AV-unprocessed.smi

> <i_m_source_file_index>
540

> <i_lp_mmshare_version>
43012

> <i_f3d_flags>
0

> <s_epik_input>
W0NIM11uMWMoPU8pW25IXWMoPU8pYyhjMTIpbihbQ0gyXVtDSDJdT1tDSDJdW0NIM10pYyhuMilOM1tDSDJdW0NIMl1bQ0hdKFtDSDNdKVtDSDJdW0NIMl0z

> <s_epik_cmdline>
J2VwaWtfcHl0aG9uJywgJy1waCcsICc3LjAnLCAnLXRuJywgJzgnLCAnLW1hJywgJzIwMCcsICctbWV0YWxfYmluZGluZycsICctaW1hZScsICc8aW5maWxlLm1hZT4nLCAnLW9tYWUnLCAnPG91dGZpbGUubWFlPic=

> <r_lp_tautomer_probability>
1

> <r_epik_Ionization_Penalty>
5.11981

> <r_epik_Ionization_Penalty_Charging>
0.0737583

> <r_epik_Ionization_Penalty_Neutral>
5.04605

> <r_epik_State_Penalty>
5.03218

> <r_epik_Charging_Adjusted_Penalty>
5.10594

> <i_epik_Tot_Q>
-1

> <i_epik_Tot_abs_Q>
1

> <r_epik_Metal_State_Penalty>
1.14277

> <b_epik_Metal_Only>
1

> <s_lp_Force_Field>
OPLS_2005

> <r_lp_Energy>
41.1943

> <b_lp_Chiralities_Consistent>
1

> <s_lp_Variant>
AV-unprocessed.smi:540-2

> <Gold.Version>
5.8.1

> <Gold.Id.Protein>
6NUR|6NUR_protein|mol2

> <Gold.PLP.Fitness>
49.1065

> <Gold.PLP.PLP>
-40.5398

> <Gold.PLP.part.hbond>
-3.6499

> <Gold.PLP.part.metal>
0.0000

> <Gold.PLP.part.buried>
-3.2179

> <Gold.PLP.part.nonpolar>
-33.9724

> <Gold.PLP.part.repulsive>
0.1316

> <Gold.PLP.ligand.clash>
0.0000

> <Gold.PLP.ligand.torsion>
0.9334

> <Gold.PLP.Chemscore.Hbond>
3.3018

> <Gold.PLP.Chemscore.CHOScore>
0.0000

> <Gold.PLP.Chemscore.Metal>
0.0000

> <Gold.Chemscore.Hbonds>
donor molecule, donor type, donor heavy atom, donor atom, acceptor molecule, acceptor atom, score
      P1  H  6896  6909       L1    22  0.15
      P1  H  7989  7998       L1     3  0.41
      P1  H 10752 10763       L1    19  0.02
      P1  H 10752 10764       L1    20  2.00

> <Gold.PLP.Chemscore.Internal.Correction>
0.5281

> <Gold.Rescore>
     Score         DG    S(hbond)    S(metal)    S(lipo)     H(rot)  DE(clash)    DE(int)     intcor
     16.44     -17.97       1.38        0.00     101.34       1.55       0.41       1.12       ----

> <Gold.Chemscore.Fitness>
16.4370

> <Gold.Chemscore.DG>
-17.9663

> <Gold.Chemscore.ZeroCoef>
-5.4800

> <Gold.Chemscore.Hbond>
1.3791

> <Gold.Chemscore.Metal>
0.0000

> <Gold.Chemscore.Lipo>
101.3410

> <Gold.Chemscore.Internal_Hbond>
0.0000

> <Gold.Chemscore.DEClash>
0.4128

> <Gold.Chemscore.DEInternal>
1.1165

> <Gold.Chemscore.Rot>
1.5534

> <Gold.Chemscore.Internal.Correction>
   9.000000E+99

> <Gold.Chemscore.Hbonds>
donor molecule, donor type, donor heavy atom, donor atom, acceptor molecule, acceptor atom, score
      P1  H  6896  6909       L1    22  0.02
      P1  H  7989  7998       L1     3  0.30
      P1  H 10752 10763       L1    19  0.02
      P1  H 10752 10764       L1    20  0.30

> <Gold.Chemscore.Hbond.Weighted>
-4.6062

> <Gold.Chemscore.Metal.Weighted>
-0.0000

> <Gold.Chemscore.Lipo.Weighted>
-11.8569

> <Gold.Chemscore.Internal_Hbond.Weighted>
0.0000

> <Gold.Chemscore.DEClash.Weighted>
0.4128

> <Gold.Chemscore.DEInternal.Weighted>
1.1165

> <Gold.Chemscore.Rot.Weighted>
3.9768

> <Gold.Chemscore.Internal.Correction.Weighted>
   9.000000E+99

> <Gold.Protein.RotatedTorsions>
[ 6907 6896 6895 6894 ] final -139.38 input  -60.11 | X-H torsion
[ 7974 7965 7964 7962 ] final  -89.75 input  175.53 | X-H torsion
[ 8008 7997 7996 7995 ] final  -68.80 input   59.86 | X-H torsion
[ 10167 10162 10161 10158 ] final -136.68 input  -65.29 | X-H torsion
[ 10718 10713 10712 10709 ] final -106.05 input   66.30 | X-H torsion
[ 10763 10752 10751 10750 ] final   17.71 input  -60.55 | X-H torsion
[ 11005 11000 10999 10996 ] final -143.62 input  -57.11 | X-H torsion

> <Gold.Protein.ActiveResidues>
 VAL166  LYS551  ARG553  GLY616  TRP617  ASP618  TYR619  PRO620  LYS621  CYS622 
 ASP623  PHE694  ASN695  SER759  ASP760  ASP761  ALA762  ILE779  LEU786  VAL792 
 PHE793  MET794  SER795  GLU796  ALA797  LYS798  CYS799  TRP800  GLU811  SER814 

> <Gold.Protein.RotatedAtoms>
  151.0470  133.5656  159.2645 H   0  0  0  0  0  0  0  0  0  0  0  0  # atno 6907 bound_to 6896
  151.2681  135.0675  159.9134 H   0  0  0  0  0  0  0  0  0  0  0  0  # atno 6908 bound_to 6896
  152.5375  134.0205  159.8033 H   0  0  0  0  0  0  0  0  0  0  0  0  # atno 6909 bound_to 6896
  145.4356  140.9557  143.2104 H   0  0  0  0  0  0  0  0  0  0  0  0  # atno 7974 bound_to 7965
  154.4893  140.0866  156.7558 H   0  0  0  0  0  0  0  0  0  0  0  0  # atno 8008 bound_to 7997
  155.4271  140.3448  155.4258 H   0  0  0  0  0  0  0  0  0  0  0  0  # atno 8009 bound_to 7997
  156.1307  140.1500  156.9058 H   0  0  0  0  0  0  0  0  0  0  0  0  # atno 8010 bound_to 7997
  139.8654  143.7025  152.2646 H   0  0  0  0  0  0  0  0  0  0  0  0  # atno 10167 bound_to 10162
  156.0372  130.5593  150.7625 H   0  0  0  0  0  0  0  0  0  0  0  0  # atno 10718 bound_to 10713
  153.1314  135.6741  153.9172 H   0  0  0  0  0  0  0  0  0  0  0  0  # atno 10763 bound_to 10752
  153.8657  135.3076  155.3441 H   0  0  0  0  0  0  0  0  0  0  0  0  # atno 10764 bound_to 10752
  154.7710  135.4939  153.9731 H   0  0  0  0  0  0  0  0  0  0  0  0  # atno 10765 bound_to 10752
  140.8106  134.2749  157.4942 H   0  0  0  0  0  0  0  0  0  0  0  0  # atno 11005 bound_to 11000
  144.8154  139.5885  143.7010 LP  0  0  0  0  0  0  0  0  0  0  0  0  # atno 17320 bound_to 7965
  146.2584  139.6354  142.9379 LP  0  0  0  0  0  0  0  0  0  0  0  0  # atno 17321 bound_to 7965
  139.7334  144.7577  151.0765 LP  0  0  0  0  0  0  0  0  0  0  0  0  # atno 17342 bound_to 10162
  140.7769  143.5060  150.9712 LP  0  0  0  0  0  0  0  0  0  0  0  0  # atno 17343 bound_to 10162
  157.5141  131.0927  151.0162 LP  0  0  0  0  0  0  0  0  0  0  0  0  # atno 17370 bound_to 10713
  157.0509  130.5787  149.5370 LP  0  0  0  0  0  0  0  0  0  0  0  0  # atno 17371 bound_to 10713
  139.8714  134.9481  156.3986 LP  0  0  0  0  0  0  0  0  0  0  0  0  # atno 17394 bound_to 11000
  140.9201  133.7651  155.9896 LP  0  0  0  0  0  0  0  0  0  0  0  0  # atno 17395 bound_to 11000

$$$$
