AV-unprocessed.smi:3045|AV-procd|sdf|11610|dock1
  -GOLD-   2272016593D 1   1.00000     0.00000
 Structure written by MMmdl.
 35 36  0  0  0  0  0  0  0  0  1 V2000
  149.5468  140.7664  155.6917 C   0  0  0  0  0  0  0  0  0  0  0  0
  150.5219  139.7344  155.3669 N   0  0  0  0  0  0  0  0  0  0  0  0
  150.2034  138.6669  154.4338 C   0  0  0  0  0  0  0  0  0  0  0  0
  151.4083  137.7012  154.4844 C   0  0  2  0  0  0  0  0  0  0  0  0
  151.0703  136.3660  155.1649 C   0  0  0  0  0  0  0  0  0  0  0  0
  151.7200  135.9860  156.1396 O   0  0  0  0  0  0  0  0  0  0  0  0
  150.0654  135.6575  154.6253 N   0  0  0  0  0  0  0  0  0  0  0  0
  149.6333  134.3315  155.0602 C   0  0  0  0  0  0  0  0  0  0  0  0
  149.6172  133.3150  153.9015 C   0  0  0  0  0  0  0  0  0  0  0  0
  148.5550  132.2390  154.0483 C   0  0  0  0  0  0  0  0  0  0  0  0
  147.5575  132.0624  153.0666 C   0  0  0  0  0  0  0  0  0  0  0  0
  146.6144  131.0308  153.2357 C   0  0  0  0  0  0  0  0  0  0  0  0
  146.7071  130.2193  154.3838 C   0  0  0  0  0  0  0  0  0  0  0  0
  147.6536  130.3824  155.3329 N   0  0  0  0  0  0  0  0  0  0  0  0
  148.5552  131.3730  155.1623 C   0  0  0  0  0  0  0  0  0  0  0  0
  152.4994  138.4598  155.2672 C   0  0  0  0  0  0  0  0  0  0  0  0
  151.7781  139.6778  155.8183 C   0  0  0  0  0  0  0  0  0  0  0  0
  152.3113  140.4805  156.5826 O   0  0  0  0  0  0  0  0  0  0  0  0
  149.8355  141.7163  155.2402 H   0  0  0  0  0  0  0  0  0  0  0  0
  149.4771  140.9057  156.7711 H   0  0  0  0  0  0  0  0  0  0  0  0
  148.5558  140.5018  155.3216 H   0  0  0  0  0  0  0  0  0  0  0  0
  149.2591  138.1901  154.7029 H   0  0  0  0  0  0  0  0  0  0  0  0
  150.0854  139.0862  153.4337 H   0  0  0  0  0  0  0  0  0  0  0  0
  151.7544  137.5031  153.4685 H   0  0  0  0  0  0  0  0  0  0  0  0
  149.5868  136.0509  153.8280 H   0  0  0  0  0  0  0  0  0  0  0  0
  150.2668  133.9668  155.8706 H   0  0  0  0  0  0  0  0  0  0  0  0
  148.6310  134.4215  155.4792 H   0  0  0  0  0  0  0  0  0  0  0  0
  149.4536  133.8379  152.9587 H   0  0  0  0  0  0  0  0  0  0  0  0
  150.5957  132.8403  153.8176 H   0  0  0  0  0  0  0  0  0  0  0  0
  147.5203  132.6975  152.1938 H   0  0  0  0  0  0  0  0  0  0  0  0
  145.8406  130.8625  152.5014 H   0  0  0  0  0  0  0  0  0  0  0  0
  146.0012  129.4179  154.5443 H   0  0  0  0  0  0  0  0  0  0  0  0
  149.3060  131.4710  155.9326 H   0  0  0  0  0  0  0  0  0  0  0  0
  152.9404  137.8804  156.0802 H   0  0  0  0  0  0  0  0  0  0  0  0
  153.3058  138.7809  154.6072 H   0  0  0  0  0  0  0  0  0  0  0  0
  1  2  1  0  0  0  0
  1 19  1  0  0  0  0
  1 20  1  0  0  0  0
  1 21  1  0  0  0  0
  2 17  1  0  0  0  0
  2  3  1  0  0  0  0
  3  4  1  0  0  0  0
  3 22  1  0  0  0  0
  3 23  1  0  0  0  0
  4  5  1  0  0  0  0
  4 16  1  0  0  0  0
  4 24  1  0  0  0  0
  5  6  2  0  0  0  0
  5  7  1  0  0  0  0
  7  8  1  0  0  0  0
  7 25  1  0  0  0  0
  8  9  1  0  0  0  0
  8 26  1  0  0  0  0
  8 27  1  0  0  0  0
  9 10  1  0  0  0  0
  9 28  1  0  0  0  0
  9 29  1  0  0  0  0
 10 15  1  0  0  0  0
 10 11  2  0  0  0  0
 11 12  1  0  0  0  0
 11 30  1  0  0  0  0
 12 13  2  0  0  0  0
 12 31  1  0  0  0  0
 13 14  1  0  0  0  0
 13 32  1  0  0  0  0
 14 15  2  0  0  0  0
 15 33  1  0  0  0  0
 16 17  1  0  0  0  0
 16 34  1  0  0  0  0
 16 35  1  0  0  0  0
 17 18  2  0  0  0  0
M  END
> <s_m_source_file>
AV-unprocessed.smi

> <i_m_source_file_index>
3045

> <i_lp_mmshare_version>
43012

> <i_f3d_flags>
0

> <s_epik_input>
W0NIM11OMVtDSDJdW0NASF0oW0NIMl1DMT1PKUMoPU8pW05IXVtDSDJdW0NIMl1jMltjSF1bY0hdW2NIXW5bY0hdMg==

> <s_epik_cmdline>
J2VwaWtfcHl0aG9uJywgJy1waCcsICc3LjAnLCAnLXRuJywgJzgnLCAnLW1hJywgJzIwMCcsICctbWV0YWxfYmluZGluZycsICctaW1hZScsICc8aW5maWxlLm1hZT4nLCAnLW9tYWUnLCAnPG91dGZpbGUubWFlPic=

> <r_epik_Ionization_Penalty>
0.0130932

> <r_epik_Ionization_Penalty_Charging>
0

> <r_epik_Ionization_Penalty_Neutral>
0.0130932

> <r_epik_State_Penalty>
0.0101714

> <r_epik_Charging_Adjusted_Penalty>
0.0101714

> <i_epik_Tot_Q>
0

> <i_epik_Tot_abs_Q>
0

> <r_epik_Metal_State_Penalty>
0.00995082

> <b_epik_Metal_Only>
0

> <s_lp_Force_Field>
OPLS_2005

> <r_lp_Energy>
10.4335

> <b_lp_Chiralities_Consistent>
1

> <s_lp_Variant>
AV-unprocessed.smi:3045-2

> <Gold.Version>
5.8.1

> <Gold.Id.Protein>
6NUR|6NUR_protein|mol2

> <Gold.PLP.Fitness>
41.8401

> <Gold.PLP.PLP>
-30.7202

> <Gold.PLP.part.hbond>
-3.6361

> <Gold.PLP.part.metal>
0.0000

> <Gold.PLP.part.buried>
1.0954

> <Gold.PLP.part.nonpolar>
-29.3957

> <Gold.PLP.part.repulsive>
0.1336

> <Gold.PLP.ligand.clash>
0.0000

> <Gold.PLP.ligand.torsion>
0.2452

> <Gold.PLP.Chemscore.Hbond>
2.8640

> <Gold.PLP.Chemscore.CHOScore>
0.9959

> <Gold.PLP.Chemscore.Metal>
0.0000

> <Gold.Chemscore.Hbonds>
donor molecule, donor type, donor heavy atom, donor atom, acceptor molecule, acceptor atom, score
      L1  H     7    25       P1  7948  0.98
      P1  H  7997  8009       L1    18  0.73
      P1  H 10752 10765       L1     6  0.50
      L1  C    13    32       P1 10956  0.48

> <Gold.PLP.Chemscore.Internal.Correction>
0.0306

> <Gold.Rescore>
     Score         DG    S(hbond)    S(metal)    S(lipo)     H(rot)  DE(clash)    DE(int)     intcor
     14.00     -14.81       1.67        0.00      67.44       1.62       0.47       0.33       ----

> <Gold.Chemscore.Fitness>
14.0046

> <Gold.Chemscore.DG>
-14.8068

> <Gold.Chemscore.ZeroCoef>
-5.4800

> <Gold.Chemscore.Hbond>
1.6727

> <Gold.Chemscore.Metal>
0.0000

> <Gold.Chemscore.Lipo>
67.4350

> <Gold.Chemscore.Internal_Hbond>
0.0000

> <Gold.Chemscore.DEClash>
0.4747

> <Gold.Chemscore.DEInternal>
0.3275

> <Gold.Chemscore.Rot>
1.6210

> <Gold.Chemscore.Internal.Correction>
   9.000000E+99

> <Gold.Chemscore.Hbonds>
donor molecule, donor type, donor heavy atom, donor atom, acceptor molecule, acceptor atom, score
      L1  H     7    25       P1  7948  0.45
      P1  H  7997  8009       L1    18  0.50
      P1  H 10752 10765       L1     6  0.02

> <Gold.Chemscore.Hbond.Weighted>
-5.5867

> <Gold.Chemscore.Metal.Weighted>
-0.0000

> <Gold.Chemscore.Lipo.Weighted>
-7.8899

> <Gold.Chemscore.Internal_Hbond.Weighted>
0.0000

> <Gold.Chemscore.DEClash.Weighted>
0.4747

> <Gold.Chemscore.DEInternal.Weighted>
0.3275

> <Gold.Chemscore.Rot.Weighted>
4.1498

> <Gold.Chemscore.Internal.Correction.Weighted>
   9.000000E+99

> <Gold.Protein.RotatedTorsions>
[ 6907 6896 6895 6894 ] final -165.95 input  -60.11 | X-H torsion
[ 7974 7965 7964 7962 ] final -148.17 input  175.53 | X-H torsion
[ 8008 7997 7996 7995 ] final -179.74 input   59.86 | X-H torsion
[ 10167 10162 10161 10158 ] final -122.70 input  -65.29 | X-H torsion
[ 10718 10713 10712 10709 ] final  -70.93 input   66.30 | X-H torsion
[ 10763 10752 10751 10750 ] final -154.05 input  -60.55 | X-H torsion
[ 11005 11000 10999 10996 ] final -156.45 input  -57.11 | X-H torsion

> <Gold.Protein.ActiveResidues>
 VAL166  LYS551  ARG553  GLY616  TRP617  ASP618  TYR619  PRO620  LYS621  CYS622 
 ASP623  PHE694  ASN695  SER759  ASP760  ASP761  ALA762  ILE779  LEU786  VAL792 
 PHE793  MET794  SER795  GLU796  ALA797  LYS798  CYS799  TRP800  GLU811  SER814 

> <Gold.Protein.RotatedAtoms>
  151.4358  133.3657  159.2774 H   0  0  0  0  0  0  0  0  0  0  0  0  # atno 6907 bound_to 6896
  150.9192  134.8611  159.7488 H   0  0  0  0  0  0  0  0  0  0  0  0  # atno 6908 bound_to 6896
  152.4973  134.4295  159.9559 H   0  0  0  0  0  0  0  0  0  0  0  0  # atno 6909 bound_to 6896
  144.8046  140.5231  143.5684 H   0  0  0  0  0  0  0  0  0  0  0  0  # atno 7974 bound_to 7965
  156.0340  140.1288  157.0227 H   0  0  0  0  0  0  0  0  0  0  0  0  # atno 8008 bound_to 7997
  154.4362  140.1043  156.6211 H   0  0  0  0  0  0  0  0  0  0  0  0  # atno 8009 bound_to 7997
  155.5765  140.3467  155.4531 H   0  0  0  0  0  0  0  0  0  0  0  0  # atno 8010 bound_to 7997
  140.0115  143.5437  152.2261 H   0  0  0  0  0  0  0  0  0  0  0  0  # atno 10167 bound_to 10162
  156.0385  130.4341  150.2368 H   0  0  0  0  0  0  0  0  0  0  0  0  # atno 10718 bound_to 10713
  154.7886  135.3199  154.7830 H   0  0  0  0  0  0  0  0  0  0  0  0  # atno 10763 bound_to 10752
  153.8524  135.6861  153.4795 H   0  0  0  0  0  0  0  0  0  0  0  0  # atno 10764 bound_to 10752
  153.1546  135.4685  154.9626 H   0  0  0  0  0  0  0  0  0  0  0  0  # atno 10765 bound_to 10752
  140.6754  134.4202  157.5229 H   0  0  0  0  0  0  0  0  0  0  0  0  # atno 11005 bound_to 11000
  145.5469  139.1476  143.3415 LP  0  0  0  0  0  0  0  0  0  0  0  0  # atno 17320 bound_to 7965
  146.2335  140.5608  142.8965 LP  0  0  0  0  0  0  0  0  0  0  0  0  # atno 17321 bound_to 7965
  139.6202  144.7627  151.2757 LP  0  0  0  0  0  0  0  0  0  0  0  0  # atno 17342 bound_to 10162
  140.7379  143.6663  150.8120 LP  0  0  0  0  0  0  0  0  0  0  0  0  # atno 17343 bound_to 10162
  157.0465  131.0050  151.3267 LP  0  0  0  0  0  0  0  0  0  0  0  0  # atno 17370 bound_to 10713
  157.5171  130.7975  149.7768 LP  0  0  0  0  0  0  0  0  0  0  0  0  # atno 17371 bound_to 10713
  139.8968  134.8650  156.2070 LP  0  0  0  0  0  0  0  0  0  0  0  0  # atno 17394 bound_to 11000
  141.0359  133.6963  156.1512 LP  0  0  0  0  0  0  0  0  0  0  0  0  # atno 17395 bound_to 11000

$$$$
