AV-unprocessed.smi:3089|AV-procd|sdf|11773|dock10
  -GOLD-   2272017153D 1   1.00000     0.00000
 Structure written by MMmdl.
 24 24  0  0  0  0  0  0  0  0  1 V2000
  146.5242  129.0751  152.2966 C   0  0  0  0  0  0  0  0  0  0  0  0
  146.0953  130.3970  151.8933 N   0  0  0  0  0  0  0  0  0  0  0  0
  145.0227  130.7497  151.1037 C   0  0  0  0  0  0  0  0  0  0  0  0
  145.0187  132.1131  150.9933 C   0  0  0  0  0  0  0  0  0  0  0  0
  144.0512  132.9952  150.2322 C   0  0  2  0  0  0  0  0  0  0  0  0
  144.3806  134.4753  150.4939 C   0  0  0  0  0  0  0  0  0  0  0  0
  142.7147  132.8266  150.6653 O   0  0  0  0  0  0  0  0  0  0  0  0
  144.0773  132.7085  148.7142 C   0  0  0  0  0  0  0  0  0  0  0  0
  143.3830  133.7267  147.9076 N   0  0  0  0  0  0  0  0  0  0  0  0
  146.1484  132.5026  151.7719 C   0  0  0  0  0  0  0  0  0  0  0  0
  146.7895  131.4760  152.3065 N   0  0  0  0  0  0  0  0  0  0  0  0
  145.8640  128.3208  151.8681 H   0  0  0  0  0  0  0  0  0  0  0  0
  146.4974  128.9933  153.3835 H   0  0  0  0  0  0  0  0  0  0  0  0
  147.5413  128.8946  151.9472 H   0  0  0  0  0  0  0  0  0  0  0  0
  144.3560  130.0095  150.6866 H   0  0  0  0  0  0  0  0  0  0  0  0
  145.3878  134.7242  150.1575 H   0  0  0  0  0  0  0  0  0  0  0  0
  144.3229  134.7131  151.5571 H   0  0  0  0  0  0  0  0  0  0  0  0
  143.6904  135.1378  149.9701 H   0  0  0  0  0  0  0  0  0  0  0  0
  142.1518  133.3417  150.1079 H   0  0  0  0  0  0  0  0  0  0  0  0
  145.1083  132.6045  148.3740 H   0  0  0  0  0  0  0  0  0  0  0  0
  143.6050  131.7433  148.5286 H   0  0  0  0  0  0  0  0  0  0  0  0
  142.9562  133.2975  147.0876 H   0  0  0  0  0  0  0  0  0  0  0  0
  142.6326  134.1578  148.4452 H   0  0  0  0  0  0  0  0  0  0  0  0
  146.5203  133.4987  151.9626 H   0  0  0  0  0  0  0  0  0  0  0  0
  1  2  1  0  0  0  0
  1 12  1  0  0  0  0
  1 13  1  0  0  0  0
  1 14  1  0  0  0  0
  2 11  1  0  0  0  0
  2  3  1  0  0  0  0
  3  4  2  0  0  0  0
  3 15  1  0  0  0  0
  4  5  1  0  0  0  0
  4 10  1  0  0  0  0
  5  6  1  0  0  0  0
  5  7  1  0  0  0  0
  5  8  1  0  0  0  0
  6 16  1  0  0  0  0
  6 17  1  0  0  0  0
  6 18  1  0  0  0  0
  7 19  1  0  0  0  0
  8  9  1  0  0  0  0
  8 20  1  0  0  0  0
  8 21  1  0  0  0  0
  9 22  1  0  0  0  0
  9 23  1  0  0  0  0
 10 11  2  0  0  0  0
 10 24  1  0  0  0  0
M  END
> <s_m_source_file>
AV-unprocessed.smi

> <i_m_source_file_index>
3089

> <i_lp_mmshare_version>
43012

> <i_f3d_flags>
0

> <s_epik_input>
W0NIM11uMVtjSF1jKFtjSF1uMSlbQ0BAXShbQ0gzXSkoW09IXSlbQ0gyXVtOSDJd

> <s_epik_cmdline>
J2VwaWtfcHl0aG9uJywgJy1waCcsICc3LjAnLCAnLXRuJywgJzgnLCAnLW1hJywgJzIwMCcsICctbWV0YWxfYmluZGluZycsICctaW1hZScsICc8aW5maWxlLm1hZT4nLCAnLW9tYWUnLCAnPG91dGZpbGUubWFlPic=

> <r_lp_tautomer_probability>
1

> <r_epik_Ionization_Penalty>
2.22427

> <r_epik_Ionization_Penalty_Charging>
0

> <r_epik_Ionization_Penalty_Neutral>
2.22427

> <r_epik_State_Penalty>
2.36938

> <r_epik_Charging_Adjusted_Penalty>
2.36938

> <i_epik_Tot_Q>
0

> <i_epik_Tot_abs_Q>
0

> <r_epik_Metal_State_Penalty>
2.36933

> <b_epik_Metal_Only>
0

> <s_lp_Force_Field>
OPLS_2005

> <r_lp_Energy>
8.30456

> <b_lp_Chiralities_Consistent>
1

> <s_lp_Variant>
AV-unprocessed.smi:3089-4

> <Gold.Version>
5.8.1

> <Gold.Id.Protein>
6NUR|6NUR_protein|mol2

> <Gold.PLP.Fitness>
37.5358

> <Gold.PLP.PLP>
-28.7968

> <Gold.PLP.part.hbond>
-4.7266

> <Gold.PLP.part.metal>
0.0000

> <Gold.PLP.part.buried>
-5.1158

> <Gold.PLP.part.nonpolar>
-18.8151

> <Gold.PLP.part.repulsive>
0.6151

> <Gold.PLP.ligand.clash>
0.0000

> <Gold.PLP.ligand.torsion>
0.1409

> <Gold.PLP.Chemscore.Hbond>
3.0000

> <Gold.PLP.Chemscore.CHOScore>
0.0000

> <Gold.PLP.Chemscore.Metal>
0.0000

> <Gold.Chemscore.Hbonds>
donor molecule, donor type, donor heavy atom, donor atom, acceptor molecule, acceptor atom, score
      L1  H     7    19       P1 10186  1.00
      L1  H     9    22       P1 10195  1.00
      L1  H     9    23       P1 10186  1.00

> <Gold.PLP.Chemscore.Internal.Correction>
0.0207

> <Gold.Rescore>
     Score         DG    S(hbond)    S(metal)    S(lipo)     H(rot)  DE(clash)    DE(int)     intcor
     17.63     -17.82       2.96        0.00      61.28       1.84       0.13       0.06       ----

> <Gold.Chemscore.Fitness>
17.6340

> <Gold.Chemscore.DG>
-17.8236

> <Gold.Chemscore.ZeroCoef>
-5.4800

> <Gold.Chemscore.Hbond>
2.9585

> <Gold.Chemscore.Metal>
0.0000

> <Gold.Chemscore.Lipo>
61.2756

> <Gold.Chemscore.Internal_Hbond>
0.0000

> <Gold.Chemscore.DEClash>
0.1307

> <Gold.Chemscore.DEInternal>
0.0589

> <Gold.Chemscore.Rot>
1.8386

> <Gold.Chemscore.Internal.Correction>
   9.000000E+99

> <Gold.Chemscore.Hbonds>
donor molecule, donor type, donor heavy atom, donor atom, acceptor molecule, acceptor atom, score
      L1  H     7    19       P1 10186  1.00
      L1  H     9    22       P1 10195  0.98
      L1  H     9    23       P1 10186  0.98

> <Gold.Chemscore.Hbond.Weighted>
-9.8813

> <Gold.Chemscore.Metal.Weighted>
-0.0000

> <Gold.Chemscore.Lipo.Weighted>
-7.1692

> <Gold.Chemscore.Internal_Hbond.Weighted>
0.0000

> <Gold.Chemscore.DEClash.Weighted>
0.1307

> <Gold.Chemscore.DEInternal.Weighted>
0.0589

> <Gold.Chemscore.Rot.Weighted>
4.7069

> <Gold.Chemscore.Internal.Correction.Weighted>
   9.000000E+99

> <Gold.Protein.RotatedTorsions>
[ 6907 6896 6895 6894 ] final  -71.22 input  -60.11 | X-H torsion
[ 7974 7965 7964 7962 ] final  164.24 input  175.53 | X-H torsion
[ 8008 7997 7996 7995 ] final   66.35 input   59.86 | X-H torsion
[ 10167 10162 10161 10158 ] final -127.97 input  -65.29 | X-H torsion
[ 10718 10713 10712 10709 ] final   86.89 input   66.30 | X-H torsion
[ 10763 10752 10751 10750 ] final  148.25 input  -60.55 | X-H torsion
[ 11005 11000 10999 10996 ] final -142.18 input  -57.11 | X-H torsion

> <Gold.Protein.ActiveResidues>
 VAL166  LYS551  ARG553  GLY616  TRP617  ASP618  TYR619  PRO620  LYS621  CYS622 
 ASP623  PHE694  ASN695  SER759  ASP760  ASP761  ALA762  ILE779  LEU786  VAL792 
 PHE793  MET794  SER795  GLU796  ALA797  LYS798  CYS799  TRP800  GLU811  SER814 

> <Gold.Protein.RotatedAtoms>
  150.7222  134.5339  159.5713 H   0  0  0  0  0  0  0  0  0  0  0  0  # atno 6907 bound_to 6896
  152.2866  134.7766  160.0395 H   0  0  0  0  0  0  0  0  0  0  0  0  # atno 6908 bound_to 6896
  151.8394  133.3386  159.3675 H   0  0  0  0  0  0  0  0  0  0  0  0  # atno 6909 bound_to 6896
  144.7554  139.8297  143.6352 H   0  0  0  0  0  0  0  0  0  0  0  0  # atno 7974 bound_to 7965
  155.6760  140.3497  155.4837 H   0  0  0  0  0  0  0  0  0  0  0  0  # atno 8008 bound_to 7997
  155.9647  140.1144  157.0887 H   0  0  0  0  0  0  0  0  0  0  0  0  # atno 8009 bound_to 7997
  154.4151  140.1168  156.5213 H   0  0  0  0  0  0  0  0  0  0  0  0  # atno 8010 bound_to 7997
  139.9552  143.6011  152.2463 H   0  0  0  0  0  0  0  0  0  0  0  0  # atno 10167 bound_to 10162
  157.6934  131.0233  150.3040 H   0  0  0  0  0  0  0  0  0  0  0  0  # atno 10718 bound_to 10713
  154.0517  135.2881  155.3339 H   0  0  0  0  0  0  0  0  0  0  0  0  # atno 10763 bound_to 10752
  154.6865  135.5243  153.8336 H   0  0  0  0  0  0  0  0  0  0  0  0  # atno 10764 bound_to 10752
  153.0558  135.6594  154.0713 H   0  0  0  0  0  0  0  0  0  0  0  0  # atno 10765 bound_to 10752
  140.8251  134.2585  157.4883 H   0  0  0  0  0  0  0  0  0  0  0  0  # atno 11005 bound_to 11000
  146.1557  139.4654  143.0020 LP  0  0  0  0  0  0  0  0  0  0  0  0  # atno 17320 bound_to 7965
  145.6798  141.0194  143.1612 LP  0  0  0  0  0  0  0  0  0  0  0  0  # atno 17321 bound_to 7965
  139.6597  144.7662  151.1987 LP  0  0  0  0  0  0  0  0  0  0  0  0  # atno 17342 bound_to 10162
  140.7570  143.6030  150.8681 LP  0  0  0  0  0  0  0  0  0  0  0  0  # atno 17343 bound_to 10162
  156.3552  130.3837  149.7296 LP  0  0  0  0  0  0  0  0  0  0  0  0  # atno 17370 bound_to 10713
  156.4761  130.8019  151.3035 LP  0  0  0  0  0  0  0  0  0  0  0  0  # atno 17371 bound_to 10713
  139.8707  134.9556  156.4211 LP  0  0  0  0  0  0  0  0  0  0  0  0  # atno 17394 bound_to 11000
  140.9058  133.7747  155.9733 LP  0  0  0  0  0  0  0  0  0  0  0  0  # atno 17395 bound_to 11000

$$$$
