AV-unprocessed.smi:1718|AV-procd|sdf|6922|dock4
  -GOLD-   22720 8123D 1   1.00000     0.00000
 Structure written by MMmdl.
 40 41  0  0  0  0  0  0  0  0  1 V2000
  153.1423  136.2888  157.6053 C   0  0  0  0  0  0  0  0  0  0  0  0
  153.4549  137.4815  156.6892 C   0  0  2  0  0  0  0  0  0  0  0  0
  154.8561  137.4677  156.4331 O   0  0  0  0  0  0  0  0  0  0  0  0
  155.2719  138.1490  155.2537 C   0  0  0  0  0  0  0  0  0  0  0  0
  156.7136  137.7467  154.9138 C   0  0  2  0  0  0  0  0  0  0  0  0
  157.3298  138.5108  153.7318 C   0  0  0  0  0  0  0  0  0  0  0  0
  157.5022  137.4420  152.6702 C   0  0  0  0  0  0  0  0  0  0  0  0
  157.6762  136.1826  153.5080 C   0  0  0  0  0  0  0  0  0  0  0  0
  156.7493  136.3649  154.5665 O   0  0  0  0  0  0  0  0  0  0  0  0
  153.0464  138.8143  157.3379 C   0  0  0  0  0  0  0  0  0  0  0  0
  153.4339  139.0775  158.4760 O   0  0  0  0  0  0  0  0  0  0  0  0
  152.2691  139.6113  156.5781 N   0  0  0  0  0  0  0  0  0  0  0  0
  151.7757  140.8993  156.8459 C   0  0  0  0  0  0  0  0  0  0  0  0
  152.1118  141.6530  157.9255 C   0  0  0  0  0  0  0  0  0  0  0  0
  151.5762  142.9877  158.1320 C   0  0  0  0  0  0  0  0  0  0  0  0
  151.9049  143.7859  159.3841 C   0  0  0  0  0  0  0  0  0  0  0  0
  150.8062  144.0686  160.0854 F   0  0  0  0  0  0  0  0  0  0  0  0
  152.7414  143.1090  160.1709 F   0  0  0  0  0  0  0  0  0  0  0  0
  152.4912  144.9339  159.0478 F   0  0  0  0  0  0  0  0  0  0  0  0
  150.7199  143.4424  157.1985 C   0  0  0  0  0  0  0  0  0  0  0  0
  150.3854  142.6828  156.0750 N   0  0  0  0  0  0  0  0  0  0  0  0
  150.8566  141.4395  155.8302 C   0  0  0  0  0  0  0  0  0  0  0  0
  150.5146  140.8348  154.8146 O   0  0  0  0  0  0  0  0  0  0  0  0
  149.7486  143.1006  155.4118 H   0  0  0  0  0  0  0  0  0  0  0  0
  152.0819  136.2489  157.8574 H   0  0  0  0  0  0  0  0  0  0  0  0
  153.7077  136.3377  158.5369 H   0  0  0  0  0  0  0  0  0  0  0  0
  153.3996  135.3494  157.1157 H   0  0  0  0  0  0  0  0  0  0  0  0
  152.9131  137.3416  155.7516 H   0  0  0  0  0  0  0  0  0  0  0  0
  154.6124  137.8817  154.4267 H   0  0  0  0  0  0  0  0  0  0  0  0
  155.2170  139.2310  155.3775 H   0  0  0  0  0  0  0  0  0  0  0  0
  157.3409  137.8866  155.7952 H   0  0  0  0  0  0  0  0  0  0  0  0
  156.7182  139.3450  153.3857 H   0  0  0  0  0  0  0  0  0  0  0  0
  158.3034  138.9106  154.0178 H   0  0  0  0  0  0  0  0  0  0  0  0
  156.5961  137.3650  152.0679 H   0  0  0  0  0  0  0  0  0  0  0  0
  158.3432  137.6317  152.0029 H   0  0  0  0  0  0  0  0  0  0  0  0
  157.4726  135.2700  152.9478 H   0  0  0  0  0  0  0  0  0  0  0  0
  158.6868  136.1219  153.9146 H   0  0  0  0  0  0  0  0  0  0  0  0
  151.9759  139.2282  155.6906 H   0  0  0  0  0  0  0  0  0  0  0  0
  152.8115  141.2928  158.6616 H   0  0  0  0  0  0  0  0  0  0  0  0
  150.2279  144.4030  157.2385 H   0  0  0  0  0  0  0  0  0  0  0  0
  1  2  1  0  0  0  0
  1 25  1  0  0  0  0
  1 26  1  0  0  0  0
  1 27  1  0  0  0  0
  2  3  1  0  0  0  0
  2 10  1  0  0  0  0
  2 28  1  0  0  0  0
  3  4  1  0  0  0  0
  4  5  1  0  0  0  0
  4 29  1  0  0  0  0
  4 30  1  0  0  0  0
  5  9  1  0  0  0  0
  5  6  1  0  0  0  0
  5 31  1  0  0  0  0
  6  7  1  0  0  0  0
  6 32  1  0  0  0  0
  6 33  1  0  0  0  0
  7  8  1  0  0  0  0
  7 34  1  0  0  0  0
  7 35  1  0  0  0  0
  8  9  1  0  0  0  0
  8 36  1  0  0  0  0
  8 37  1  0  0  0  0
 10 11  2  0  0  0  0
 10 12  1  0  0  0  0
 12 13  1  0  0  0  0
 12 38  1  0  0  0  0
 13 22  1  0  0  0  0
 13 14  2  0  0  0  0
 14 15  1  0  0  0  0
 14 39  1  0  0  0  0
 15 16  1  0  0  0  0
 15 20  2  0  0  0  0
 16 17  1  0  0  0  0
 16 18  1  0  0  0  0
 16 19  1  0  0  0  0
 20 21  1  0  0  0  0
 20 40  1  0  0  0  0
 21 24  1  0  0  0  0
 21 22  1  0  0  0  0
 22 23  2  0  0  0  0
M  END
> <s_m_source_file>
AV-unprocessed.smi

> <i_m_source_file_index>
1718

> <i_lp_mmshare_version>
43012

> <i_f3d_flags>
0

> <s_epik_input>
TzFbQ0gyXVtDSDJdW0NIMl1bQ0BIXTFbQ0gyXU9bQ0BASF0oW0NIM10pQyg9TylbTkhdYzJbY0hdYyhDKEYpKEYpRilbY0hdW25IXWMyPU8=

> <s_epik_cmdline>
J2VwaWtfcHl0aG9uJywgJy1waCcsICc3LjAnLCAnLXRuJywgJzgnLCAnLW1hJywgJzIwMCcsICctbWV0YWxfYmluZGluZycsICctaW1hZScsICc8aW5maWxlLm1hZT4nLCAnLW9tYWUnLCAnPG91dGZpbGUubWFlPic=

> <r_lp_tautomer_probability>
0.999

> <r_epik_Ionization_Penalty>
0.00894336

> <r_epik_Ionization_Penalty_Charging>
0.00894326

> <r_epik_Ionization_Penalty_Neutral>
1.00145e-07

> <r_epik_State_Penalty>
0.00676626

> <r_epik_Charging_Adjusted_Penalty>
0.0157095

> <i_epik_Tot_Q>
0

> <i_epik_Tot_abs_Q>
0

> <r_epik_Metal_State_Penalty>
0.321145

> <b_epik_Metal_Only>
0

> <s_lp_Force_Field>
OPLS_2005

> <r_lp_Energy>
34.6519

> <b_lp_Chiralities_Consistent>
1

> <s_lp_Variant>
AV-unprocessed.smi:1718-1

> <Gold.Version>
5.8.1

> <Gold.Id.Protein>
6NUR|6NUR_protein|mol2

> <Gold.PLP.Fitness>
45.1763

> <Gold.PLP.PLP>
-36.6529

> <Gold.PLP.part.hbond>
-5.6508

> <Gold.PLP.part.metal>
0.0000

> <Gold.PLP.part.buried>
3.6077

> <Gold.PLP.part.nonpolar>
-34.8540

> <Gold.PLP.part.repulsive>
0.3365

> <Gold.PLP.ligand.clash>
0.0284

> <Gold.PLP.ligand.torsion>
0.4263

> <Gold.PLP.Chemscore.Hbond>
2.3600

> <Gold.PLP.Chemscore.CHOScore>
0.7002

> <Gold.PLP.Chemscore.Metal>
0.0000

> <Gold.Chemscore.Hbonds>
donor molecule, donor type, donor heavy atom, donor atom, acceptor molecule, acceptor atom, score
      L1  H    21    24       P1  8028  0.50
      P1  H  7989  7998       L1    23  0.82
      P1  H 10752 10764       L1     9  0.93
      L1  C    20    40       P1  8028  0.70

> <Gold.PLP.Chemscore.Internal.Correction>
0.2237

> <Gold.Rescore>
     Score         DG    S(hbond)    S(metal)    S(lipo)     H(rot)  DE(clash)    DE(int)     intcor
     17.82     -22.09       2.55        0.00     110.29       1.88       2.53       1.74       ----

> <Gold.Chemscore.Fitness>
17.8190

> <Gold.Chemscore.DG>
-22.0908

> <Gold.Chemscore.ZeroCoef>
-5.4800

> <Gold.Chemscore.Hbond>
2.5499

> <Gold.Chemscore.Metal>
0.0000

> <Gold.Chemscore.Lipo>
110.2921

> <Gold.Chemscore.Internal_Hbond>
0.0000

> <Gold.Chemscore.DEClash>
2.5331

> <Gold.Chemscore.DEInternal>
1.7388

> <Gold.Chemscore.Rot>
1.8790

> <Gold.Chemscore.Internal.Correction>
   9.000000E+99

> <Gold.Chemscore.Hbonds>
donor molecule, donor type, donor heavy atom, donor atom, acceptor molecule, acceptor atom, score
      L1  H    21    24       P1  8028  0.50
      P1  H  7989  7998       L1    23  0.75
      P1  H 10752 10764       L1     9  0.72

> <Gold.Chemscore.Hbond.Weighted>
-8.5168

> <Gold.Chemscore.Metal.Weighted>
-0.0000

> <Gold.Chemscore.Lipo.Weighted>
-12.9042

> <Gold.Chemscore.Internal_Hbond.Weighted>
0.0000

> <Gold.Chemscore.DEClash.Weighted>
2.5331

> <Gold.Chemscore.DEInternal.Weighted>
1.7388

> <Gold.Chemscore.Rot.Weighted>
4.8102

> <Gold.Chemscore.Internal.Correction.Weighted>
   9.000000E+99

> <Gold.Protein.RotatedTorsions>
[ 6907 6896 6895 6894 ] final  -32.87 input  -60.11 | X-H torsion
[ 7974 7965 7964 7962 ] final -179.93 input  175.53 | X-H torsion
[ 8008 7997 7996 7995 ] final -167.59 input   59.86 | X-H torsion
[ 10167 10162 10161 10158 ] final  -96.40 input  -65.29 | X-H torsion
[ 10718 10713 10712 10709 ] final   13.86 input   66.30 | X-H torsion
[ 10763 10752 10751 10750 ] final  120.08 input  -60.55 | X-H torsion
[ 11005 11000 10999 10996 ] final  -72.38 input  -57.11 | X-H torsion

> <Gold.Protein.ActiveResidues>
 VAL166  LYS551  ARG553  GLY616  TRP617  ASP618  TYR619  PRO620  LYS621  CYS622 
 ASP623  PHE694  ASN695  SER759  ASP760  ASP761  ALA762  ILE779  LEU786  VAL792 
 PHE793  MET794  SER795  GLU796  ALA797  LYS798  CYS799  TRP800  GLU811  SER814 

> <Gold.Protein.RotatedAtoms>
  151.0730  134.9810  159.8317 H   0  0  0  0  0  0  0  0  0  0  0  0  # atno 6907 bound_to 6896
  152.5411  134.2275  159.8822 H   0  0  0  0  0  0  0  0  0  0  0  0  # atno 6908 bound_to 6896
  151.2301  133.4411  159.2637 H   0  0  0  0  0  0  0  0  0  0  0  0  # atno 6909 bound_to 6896
  144.7140  140.0643  143.6431 H   0  0  0  0  0  0  0  0  0  0  0  0  # atno 7974 bound_to 7965
  155.8798  140.1007  157.1493 H   0  0  0  0  0  0  0  0  0  0  0  0  # atno 8008 bound_to 7997
  154.4004  140.1331  156.4246 H   0  0  0  0  0  0  0  0  0  0  0  0  # atno 8009 bound_to 7997
  155.7655  140.3462  155.5222 H   0  0  0  0  0  0  0  0  0  0  0  0  # atno 8010 bound_to 7997
  140.2941  143.3203  152.0315 H   0  0  0  0  0  0  0  0  0  0  0  0  # atno 10167 bound_to 10162
  157.0308  130.6192  149.5735 H   0  0  0  0  0  0  0  0  0  0  0  0  # atno 10718 bound_to 10713
  153.5930  135.3462  155.2918 H   0  0  0  0  0  0  0  0  0  0  0  0  # atno 10763 bound_to 10752
  154.8649  135.4209  154.2495 H   0  0  0  0  0  0  0  0  0  0  0  0  # atno 10764 bound_to 10752
  153.3307  135.7044  153.7021 H   0  0  0  0  0  0  0  0  0  0  0  0  # atno 10765 bound_to 10752
  141.1607  133.6845  156.7050 H   0  0  0  0  0  0  0  0  0  0  0  0  # atno 11005 bound_to 11000
  145.9837  139.2961  143.1026 LP  0  0  0  0  0  0  0  0  0  0  0  0  # atno 17320 bound_to 7965
  145.8981  140.9260  143.0517 LP  0  0  0  0  0  0  0  0  0  0  0  0  # atno 17321 bound_to 7965
  139.4930  144.6503  151.6689 LP  0  0  0  0  0  0  0  0  0  0  0  0  # atno 17342 bound_to 10162
  140.5707  144.0114  150.6215 LP  0  0  0  0  0  0  0  0  0  0  0  0  # atno 17343 bound_to 10162
  156.0070  130.5158  150.7863 LP  0  0  0  0  0  0  0  0  0  0  0  0  # atno 17370 bound_to 10713
  157.5179  131.0929  151.0116 LP  0  0  0  0  0  0  0  0  0  0  0  0  # atno 17371 bound_to 10713
  140.2930  134.8225  157.4033 LP  0  0  0  0  0  0  0  0  0  0  0  0  # atno 17394 bound_to 11000
  140.1330  134.5070  155.8091 LP  0  0  0  0  0  0  0  0  0  0  0  0  # atno 17395 bound_to 11000

$$$$
