AV-unprocessed.smi:2923|AV-procd|sdf|11214|dock9
  -GOLD-   2272016103D 1   1.00000     0.00000
 Structure written by MMmdl.
 46 48  0  0  0  0  0  0  0  0  1 V2000
  147.2176  129.6554  153.5395 C   0  0  0  0  0  0  0  0  0  0  0  0
  148.6110  130.0073  153.3152 N   0  0  0  0  0  0  0  0  0  0  0  0
  149.5999  129.0480  153.7824 C   0  0  0  0  0  0  0  0  0  0  0  0
  148.9039  131.3256  153.6880 C   0  0  0  0  0  0  0  0  0  0  0  0
  149.7741  131.6089  154.7651 C   0  0  0  0  0  0  0  0  0  0  0  0
  150.0290  132.9534  155.0960 C   0  0  0  0  0  0  0  0  0  0  0  0
  149.3994  133.9736  154.3438 C   0  0  0  0  0  0  0  0  0  0  0  0
  149.5862  135.3648  154.5651 N   0  0  0  0  0  0  0  0  0  0  0  0
  150.0174  135.9869  155.6755 C   0  0  0  0  0  0  0  0  0  0  0  0
  150.3319  135.4318  156.7278 O   0  0  0  0  0  0  0  0  0  0  0  0
  150.0476  137.3140  155.4999 N   0  0  0  0  0  0  0  0  0  0  0  0
  150.4626  138.2930  156.5067 C   0  0  2  0  0  0  0  0  0  0  0  0
  149.6924  139.6286  156.4002 C   0  0  2  0  0  0  0  0  0  0  0  0
  148.4637  139.8013  155.5407 C   0  0  0  0  0  0  0  0  0  0  0  0
  149.0313  140.4187  154.2592 C   0  0  0  0  0  0  0  0  0  0  0  0
  150.4164  140.0786  154.2728 O   0  0  0  0  0  0  0  0  0  0  0  0
  150.8756  140.1771  155.6192 C   0  0  2  0  0  0  0  0  0  0  0  0
  151.7740  139.0291  156.1260 C   0  0  0  0  0  0  0  0  0  0  0  0
  152.6516  139.4045  157.3238 C   0  0  0  0  0  0  0  0  0  0  0  0
  152.7091  138.3866  155.0922 C   0  0  0  0  0  0  0  0  0  0  0  0
  148.5598  133.5814  153.2807 C   0  0  0  0  0  0  0  0  0  0  0  0
  148.3094  132.2946  152.9593 N   0  0  0  0  0  0  0  0  0  0  0  0
  146.5538  130.4286  153.1507 H   0  0  0  0  0  0  0  0  0  0  0  0
  147.0138  129.5277  154.6032 H   0  0  0  0  0  0  0  0  0  0  0  0
  146.9792  128.7210  153.0311 H   0  0  0  0  0  0  0  0  0  0  0  0
  150.6100  129.3920  153.5561 H   0  0  0  0  0  0  0  0  0  0  0  0
  149.4534  128.0871  153.2885 H   0  0  0  0  0  0  0  0  0  0  0  0
  149.5200  128.8939  154.8591 H   0  0  0  0  0  0  0  0  0  0  0  0
  150.2418  130.8142  155.3277 H   0  0  0  0  0  0  0  0  0  0  0  0
  150.7077  133.1705  155.9057 H   0  0  0  0  0  0  0  0  0  0  0  0
  149.2993  135.9644  153.8052 H   0  0  0  0  0  0  0  0  0  0  0  0
  149.7678  137.6824  154.6025 H   0  0  0  0  0  0  0  0  0  0  0  0
  150.4768  137.9083  157.5282 H   0  0  0  0  0  0  0  0  0  0  0  0
  149.6138  140.1084  157.3771 H   0  0  0  0  0  0  0  0  0  0  0  0
  147.9662  138.8530  155.3383 H   0  0  0  0  0  0  0  0  0  0  0  0
  147.7282  140.4613  156.0015 H   0  0  0  0  0  0  0  0  0  0  0  0
  148.5374  140.0505  153.3599 H   0  0  0  0  0  0  0  0  0  0  0  0
  148.9336  141.5050  154.2820 H   0  0  0  0  0  0  0  0  0  0  0  0
  151.1716  141.1867  155.9080 H   0  0  0  0  0  0  0  0  0  0  0  0
  153.4240  140.1222  157.0456 H   0  0  0  0  0  0  0  0  0  0  0  0
  153.1495  138.5301  157.7442 H   0  0  0  0  0  0  0  0  0  0  0  0
  152.0674  139.8577  158.1253 H   0  0  0  0  0  0  0  0  0  0  0  0
  153.5439  139.0433  154.8458 H   0  0  0  0  0  0  0  0  0  0  0  0
  152.1993  138.1659  154.1543 H   0  0  0  0  0  0  0  0  0  0  0  0
  153.1259  137.4489  155.4611 H   0  0  0  0  0  0  0  0  0  0  0  0
  148.0671  134.3233  152.6691 H   0  0  0  0  0  0  0  0  0  0  0  0
  1  2  1  0  0  0  0
  1 23  1  0  0  0  0
  1 24  1  0  0  0  0
  1 25  1  0  0  0  0
  2  3  1  0  0  0  0
  2  4  1  0  0  0  0
  3 26  1  0  0  0  0
  3 27  1  0  0  0  0
  3 28  1  0  0  0  0
  4 22  1  0  0  0  0
  4  5  2  0  0  0  0
  5  6  1  0  0  0  0
  5 29  1  0  0  0  0
  6  7  2  0  0  0  0
  6 30  1  0  0  0  0
  7  8  1  0  0  0  0
  7 21  1  0  0  0  0
  8  9  1  0  0  0  0
  8 31  1  0  0  0  0
  9 10  2  0  0  0  0
  9 11  1  0  0  0  0
 11 12  1  0  0  0  0
 11 32  1  0  0  0  0
 12 18  1  0  0  0  0
 12 13  1  0  0  0  0
 12 33  1  0  0  0  0
 13 17  1  0  0  0  0
 13 14  1  0  0  0  0
 13 34  1  0  0  0  0
 14 15  1  0  0  0  0
 14 35  1  0  0  0  0
 14 36  1  0  0  0  0
 15 16  1  0  0  0  0
 15 37  1  0  0  0  0
 15 38  1  0  0  0  0
 16 17  1  0  0  0  0
 17 18  1  0  0  0  0
 17 39  1  0  0  0  0
 18 19  1  0  0  0  0
 18 20  1  0  0  0  0
 19 40  1  0  0  0  0
 19 41  1  0  0  0  0
 19 42  1  0  0  0  0
 20 43  1  0  0  0  0
 20 44  1  0  0  0  0
 20 45  1  0  0  0  0
 21 22  2  0  0  0  0
 21 46  1  0  0  0  0
M  END
> <s_m_source_file>
AV-unprocessed.smi

> <i_m_source_file_index>
2923

> <i_lp_mmshare_version>
43012

> <i_f3d_flags>
0

> <s_epik_input>
W0NIM11OKFtDSDNdKWMxW2NIXVtjSF1jKFtjSF1uMSlbTkhdQyg9TylbTkhdW0NASF0yQyhbQ0gzXSkoW0NIM10pW0NAQEhdKFtDQEhdMjMpT1tDSDJdW0NIMl0z

> <s_epik_cmdline>
J2VwaWtfcHl0aG9uJywgJy1waCcsICc3LjAnLCAnLXRuJywgJzgnLCAnLW1hJywgJzIwMCcsICctbWV0YWxfYmluZGluZycsICctaW1hZScsICc8aW5maWxlLm1hZT4nLCAnLW9tYWUnLCAnPG91dGZpbGUubWFlPic=

> <r_lp_tautomer_probability>
1

> <r_epik_Ionization_Penalty>
0.628785

> <r_epik_Ionization_Penalty_Charging>
0

> <r_epik_Ionization_Penalty_Neutral>
0.628785

> <r_epik_State_Penalty>
0.644286

> <r_epik_Charging_Adjusted_Penalty>
0.644286

> <i_epik_Tot_Q>
0

> <i_epik_Tot_abs_Q>
0

> <r_epik_Metal_State_Penalty>
0.308404

> <b_epik_Metal_Only>
0

> <s_lp_Force_Field>
OPLS_2005

> <r_lp_Energy>
44.9088

> <b_lp_Chiralities_Consistent>
1

> <s_lp_Variant>
AV-unprocessed.smi:2923-13

> <Gold.Version>
5.8.1

> <Gold.Id.Protein>
6NUR|6NUR_protein|mol2

> <Gold.PLP.Fitness>
37.8211

> <Gold.PLP.PLP>
-30.0164

> <Gold.PLP.part.hbond>
-2.0000

> <Gold.PLP.part.metal>
0.0000

> <Gold.PLP.part.buried>
-1.5624

> <Gold.PLP.part.nonpolar>
-26.7632

> <Gold.PLP.part.repulsive>
0.5485

> <Gold.PLP.ligand.clash>
0.0539

> <Gold.PLP.ligand.torsion>
0.6234

> <Gold.PLP.Chemscore.Hbond>
1.9760

> <Gold.PLP.Chemscore.CHOScore>
0.9269

> <Gold.PLP.Chemscore.Metal>
0.0000

> <Gold.Chemscore.Hbonds>
donor molecule, donor type, donor heavy atom, donor atom, acceptor molecule, acceptor atom, score
      L1  H     8    31       P1  7948  0.98
      P1  H  7989  7998       L1    16  1.00
      L1  C    21    46       P1  7948  0.94

> <Gold.PLP.Chemscore.Internal.Correction>
0.3967

> <Gold.Rescore>
     Score         DG    S(hbond)    S(metal)    S(lipo)     H(rot)  DE(clash)    DE(int)     intcor
     13.71     -15.98       1.48        0.00      73.52       1.19       0.61       1.66       ----

> <Gold.Chemscore.Fitness>
13.7078

> <Gold.Chemscore.DG>
-15.9793

> <Gold.Chemscore.ZeroCoef>
-5.4800

> <Gold.Chemscore.Hbond>
1.4829

> <Gold.Chemscore.Metal>
0.0000

> <Gold.Chemscore.Lipo>
73.5250

> <Gold.Chemscore.Internal_Hbond>
0.0000

> <Gold.Chemscore.DEClash>
0.6089

> <Gold.Chemscore.DEInternal>
1.6625

> <Gold.Chemscore.Rot>
1.1937

> <Gold.Chemscore.Internal.Correction>
   9.000000E+99

> <Gold.Chemscore.Hbonds>
donor molecule, donor type, donor heavy atom, donor atom, acceptor molecule, acceptor atom, score
      L1  H     8    31       P1  7948  0.68
      P1  H  7989  7998       L1    16  0.29

> <Gold.Chemscore.Hbond.Weighted>
-4.9527

> <Gold.Chemscore.Metal.Weighted>
-0.0000

> <Gold.Chemscore.Lipo.Weighted>
-8.6024

> <Gold.Chemscore.Internal_Hbond.Weighted>
0.0000

> <Gold.Chemscore.DEClash.Weighted>
0.6089

> <Gold.Chemscore.DEInternal.Weighted>
1.6625

> <Gold.Chemscore.Rot.Weighted>
3.0559

> <Gold.Chemscore.Internal.Correction.Weighted>
   9.000000E+99

> <Gold.Protein.RotatedTorsions>
[ 6907 6896 6895 6894 ] final    8.18 input  -60.11 | X-H torsion
[ 7974 7965 7964 7962 ] final -107.84 input  175.53 | X-H torsion
[ 8008 7997 7996 7995 ] final   81.27 input   59.86 | X-H torsion
[ 10167 10162 10161 10158 ] final    8.55 input  -65.29 | X-H torsion
[ 10718 10713 10712 10709 ] final  103.54 input   66.30 | X-H torsion
[ 10763 10752 10751 10750 ] final -162.71 input  -60.55 | X-H torsion
[ 11005 11000 10999 10996 ] final  166.60 input  -57.11 | X-H torsion

> <Gold.Protein.ActiveResidues>
 VAL166  LYS551  ARG553  GLY616  TRP617  ASP618  TYR619  PRO620  LYS621  CYS622 
 ASP623  PHE694  ASN695  SER759  ASP760  ASP761  ALA762  ILE779  LEU786  VAL792 
 PHE793  MET794  SER795  GLU796  ALA797  LYS798  CYS799  TRP800  GLU811  SER814 

> <Gold.Protein.RotatedAtoms>
  151.7019  135.0928  160.0252 H   0  0  0  0  0  0  0  0  0  0  0  0  # atno 6907 bound_to 6896
  152.3715  133.6421  159.6099 H   0  0  0  0  0  0  0  0  0  0  0  0  # atno 6908 bound_to 6896
  150.7677  133.9178  159.3430 H   0  0  0  0  0  0  0  0  0  0  0  0  # atno 6909 bound_to 6896
  145.2003  140.9053  143.3373 H   0  0  0  0  0  0  0  0  0  0  0  0  # atno 7974 bound_to 7965
  155.8948  140.3437  155.5983 H   0  0  0  0  0  0  0  0  0  0  0  0  # atno 8008 bound_to 7997
  155.7569  140.0827  157.2193 H   0  0  0  0  0  0  0  0  0  0  0  0  # atno 8009 bound_to 7997
  154.4037  140.1543  156.2775 H   0  0  0  0  0  0  0  0  0  0  0  0  # atno 8010 bound_to 7997
  140.6307  143.7999  150.7292 H   0  0  0  0  0  0  0  0  0  0  0  0  # atno 10167 bound_to 10162
  157.6769  131.0781  150.5571 H   0  0  0  0  0  0  0  0  0  0  0  0  # atno 10718 bound_to 10713
  154.7189  135.3021  154.9079 H   0  0  0  0  0  0  0  0  0  0  0  0  # atno 10763 bound_to 10752
  153.9957  135.6713  153.4760 H   0  0  0  0  0  0  0  0  0  0  0  0  # atno 10764 bound_to 10752
  153.0817  135.5005  154.8433 H   0  0  0  0  0  0  0  0  0  0  0  0  # atno 10765 bound_to 10752
  140.2681  134.7848  157.3651 H   0  0  0  0  0  0  0  0  0  0  0  0  # atno 11005 bound_to 11000
  144.9954  139.3649  143.6194 LP  0  0  0  0  0  0  0  0  0  0  0  0  # atno 17320 bound_to 7965
  146.3419  139.9155  142.8774 LP  0  0  0  0  0  0  0  0  0  0  0  0  # atno 17321 bound_to 7965
  140.1610  143.4275  152.2067 LP  0  0  0  0  0  0  0  0  0  0  0  0  # atno 17342 bound_to 10162
  139.5522  144.7346  151.4401 LP  0  0  0  0  0  0  0  0  0  0  0  0  # atno 17343 bound_to 10162
  156.5874  130.4320  149.5951 LP  0  0  0  0  0  0  0  0  0  0  0  0  # atno 17370 bound_to 10713
  156.2611  130.6963  151.1731 LP  0  0  0  0  0  0  0  0  0  0  0  0  # atno 17371 bound_to 10713
  140.1399  134.4985  155.8039 LP  0  0  0  0  0  0  0  0  0  0  0  0  # atno 17394 bound_to 11000
  141.2181  133.6821  156.7191 LP  0  0  0  0  0  0  0  0  0  0  0  0  # atno 17395 bound_to 11000

$$$$
