AV-unprocessed.smi:1263|AV-procd|sdf|5310|dock7
  -GOLD-   22720 4433D 1   1.00000     0.00000
 Structure written by MMmdl.
 44 46  0  0  0  0  0  0  0  0  2 V2000
  145.3923  143.3746  154.7466 C   0  0  0  0  0  0  0  0  0  0  0  0
  145.5939  142.0249  154.3423 O   0  0  0  0  0  0  0  0  0  0  0  0
  146.8723  141.5029  154.3988 C   0  0  0  0  0  0  0  0  0  0  0  0
  147.8475  142.2460  154.9800 N   0  0  0  0  0  0  0  0  0  0  0  0
  149.0970  141.7404  155.0306 C   0  0  0  0  0  0  0  0  0  0  0  0
  149.4405  140.4820  154.5035 C   0  0  0  0  0  0  0  0  0  0  0  0
  148.4310  139.7091  153.9010 C   0  0  0  0  0  0  0  0  0  0  0  0
  147.1108  140.2192  153.8540 C   0  0  0  0  0  0  0  0  0  0  0  0
  146.0217  139.5304  153.2519 N   0  0  0  0  0  0  0  0  0  0  0  0
  145.9319  138.2302  152.9251 C   0  0  0  0  0  0  0  0  0  0  0  0
  146.8070  137.3852  153.1131 O   0  0  0  0  0  0  0  0  0  0  0  0
  144.7421  137.9496  152.3740 N   0  0  0  0  0  0  0  0  0  0  0  0
  144.3119  136.6255  151.9341 C   0  0  2  0  0  0  0  0  0  0  0  0
  144.1021  135.6829  153.1347 C   0  0  0  0  0  0  0  0  0  0  0  0
  143.7445  134.2623  152.6666 C   0  0  0  0  0  0  0  0  0  0  0  0
  144.7829  133.7239  151.7532 N   0  3  1  0  0  0  0  0  0  0  0  0
  144.5181  132.3185  151.3758 C   0  0  0  0  0  0  0  0  0  0  0  0
  145.2612  131.8717  150.1383 C   0  0  0  0  0  0  0  0  0  0  0  0
  143.7800  132.1691  150.0659 C   0  0  0  0  0  0  0  0  0  0  0  0
  144.9772  134.5942  150.5668 C   0  0  0  0  0  0  0  0  0  0  0  0
  145.3619  136.0232  150.9858 C   0  0  0  0  0  0  0  0  0  0  0  0
  144.3381  143.6296  154.6398 H   0  0  0  0  0  0  0  0  0  0  0  0
  145.9639  144.0667  154.1265 H   0  0  0  0  0  0  0  0  0  0  0  0
  145.6637  143.5228  155.7929 H   0  0  0  0  0  0  0  0  0  0  0  0
  149.8468  142.3605  155.4988 H   0  0  0  0  0  0  0  0  0  0  0  0
  150.4565  140.1199  154.5551 H   0  0  0  0  0  0  0  0  0  0  0  0
  148.6917  138.7525  153.4760 H   0  0  0  0  0  0  0  0  0  0  0  0
  145.1868  140.0821  153.1181 H   0  0  0  0  0  0  0  0  0  0  0  0
  144.0815  138.7051  152.2634 H   0  0  0  0  0  0  0  0  0  0  0  0
  143.3716  136.7221  151.3876 H   0  0  0  0  0  0  0  0  0  0  0  0
  145.0074  135.6477  153.7427 H   0  0  0  0  0  0  0  0  0  0  0  0
  143.3105  136.0627  153.7818 H   0  0  0  0  0  0  0  0  0  0  0  0
  143.6451  133.6083  153.5336 H   0  0  0  0  0  0  0  0  0  0  0  0
  142.7780  134.2654  152.1600 H   0  0  0  0  0  0  0  0  0  0  0  0
  144.3377  131.6232  152.1941 H   0  0  0  0  0  0  0  0  0  0  0  0
  145.9380  132.5769  149.6590 H   0  0  0  0  0  0  0  0  0  0  0  0
  145.5633  130.8278  150.0830 H   0  0  0  0  0  0  0  0  0  0  0  0
  143.1062  131.3207  149.9625 H   0  0  0  0  0  0  0  0  0  0  0  0
  143.4744  133.0717  149.5397 H   0  0  0  0  0  0  0  0  0  0  0  0
  145.7608  134.1782  149.9326 H   0  0  0  0  0  0  0  0  0  0  0  0
  144.0632  134.6099  149.9709 H   0  0  0  0  0  0  0  0  0  0  0  0
  145.4698  136.6498  150.0995 H   0  0  0  0  0  0  0  0  0  0  0  0
  146.3379  136.0064  151.4735 H   0  0  0  0  0  0  0  0  0  0  0  0
  145.6533  133.7276  152.2652 H   0  0  0  0  0  0  0  0  0  0  0  0
  1  2  1  0  0  0  0
  1 22  1  0  0  0  0
  1 23  1  0  0  0  0
  1 24  1  0  0  0  0
  2  3  1  0  0  0  0
  3  8  1  0  0  0  0
  3  4  2  0  0  0  0
  4  5  1  0  0  0  0
  5  6  2  0  0  0  0
  5 25  1  0  0  0  0
  6  7  1  0  0  0  0
  6 26  1  0  0  0  0
  7  8  2  0  0  0  0
  7 27  1  0  0  0  0
  8  9  1  0  0  0  0
  9 10  1  0  0  0  0
  9 28  1  0  0  0  0
 10 11  2  0  0  0  0
 10 12  1  0  0  0  0
 12 13  1  0  0  0  0
 12 29  1  0  0  0  0
 13 21  1  0  0  0  0
 13 14  1  0  0  0  0
 13 30  1  0  0  0  0
 14 15  1  0  0  0  0
 14 31  1  0  0  0  0
 14 32  1  0  0  0  0
 15 16  1  0  0  0  0
 15 33  1  0  0  0  0
 15 34  1  0  0  0  0
 16 17  1  0  0  0  0
 16 20  1  0  0  0  0
 16 44  1  0  0  0  0
 17 19  1  0  0  0  0
 17 18  1  0  0  0  0
 17 35  1  0  0  0  0
 18 19  1  0  0  0  0
 18 36  1  0  0  0  0
 18 37  1  0  0  0  0
 19 38  1  0  0  0  0
 19 39  1  0  0  0  0
 20 21  1  0  0  0  0
 20 40  1  0  0  0  0
 20 41  1  0  0  0  0
 21 42  1  0  0  0  0
 21 43  1  0  0  0  0
M  CHG  1  16   1
M  END
> <s_m_source_file>
AV-unprocessed.smi

> <i_m_source_file_index>
1263

> <i_lp_mmshare_version>
43012

> <i_f3d_flags>
0

> <s_epik_input>
W0NIM11PYzFuW2NIXVtjSF1bY0hdYzFbTkhdQyg9TylbTkhdW0NIXTJbQ0gyXVtDSDJdTihbQ0gyXVtDSDJdMilbQ0hdM1tDSDJdW0NIMl0z

> <s_epik_cmdline>
J2VwaWtfcHl0aG9uJywgJy1waCcsICc3LjAnLCAnLXRuJywgJzgnLCAnLW1hJywgJzIwMCcsICctbWV0YWxfYmluZGluZycsICctaW1hZScsICc8aW5maWxlLm1hZT4nLCAnLW9tYWUnLCAnPG91dGZpbGUubWFlPic=

> <r_lp_tautomer_probability>
1

> <r_epik_Ionization_Penalty>
0.115628

> <r_epik_Ionization_Penalty_Charging>
0.115549

> <r_epik_Ionization_Penalty_Neutral>
7.89431e-05

> <r_epik_State_Penalty>
0.105184

> <r_epik_Charging_Adjusted_Penalty>
0.220733

> <i_epik_Tot_Q>
1

> <i_epik_Tot_abs_Q>
1

> <r_epik_Metal_State_Penalty>
0.105186

> <b_epik_Metal_Only>
0

> <s_lp_Force_Field>
OPLS_2005

> <r_lp_Energy>
28.8205

> <b_lp_Chiralities_Consistent>
1

> <s_lp_Variant>
AV-unprocessed.smi:1263-1

> <Gold.Version>
5.8.1

> <Gold.Id.Protein>
6NUR|6NUR_protein|mol2

> <Gold.PLP.Fitness>
39.0422

> <Gold.PLP.PLP>
-32.0012

> <Gold.PLP.part.hbond>
-3.0000

> <Gold.PLP.part.metal>
0.0000

> <Gold.PLP.part.buried>
-3.1053

> <Gold.PLP.part.nonpolar>
-31.9092

> <Gold.PLP.part.repulsive>
5.3766

> <Gold.PLP.ligand.clash>
0.0000

> <Gold.PLP.ligand.torsion>
0.8048

> <Gold.PLP.Chemscore.Hbond>
2.0000

> <Gold.PLP.Chemscore.CHOScore>
0.4624

> <Gold.PLP.Chemscore.Metal>
0.0000

> <Gold.Chemscore.Hbonds>
donor molecule, donor type, donor heavy atom, donor atom, acceptor molecule, acceptor atom, score
      L1  H     9    28       P1 10175  1.00
      L1  H    12    29       P1 10175  1.00
      L1  C     5    25       P1  8028  0.52

> <Gold.PLP.Chemscore.Internal.Correction>
1.2634

> <Gold.Rescore>
     Score         DG    S(hbond)    S(metal)    S(lipo)     H(rot)  DE(clash)    DE(int)     intcor
     14.90     -17.05       1.90        0.00      76.13       1.43       0.12       2.03       ----

> <Gold.Chemscore.Fitness>
14.9000

> <Gold.Chemscore.DG>
-17.0525

> <Gold.Chemscore.ZeroCoef>
-5.4800

> <Gold.Chemscore.Hbond>
1.8953

> <Gold.Chemscore.Metal>
0.0000

> <Gold.Chemscore.Lipo>
76.1340

> <Gold.Chemscore.Internal_Hbond>
0.0000

> <Gold.Chemscore.DEClash>
0.1183

> <Gold.Chemscore.DEInternal>
2.0342

> <Gold.Chemscore.Rot>
1.4318

> <Gold.Chemscore.Internal.Correction>
   9.000000E+99

> <Gold.Chemscore.Hbonds>
donor molecule, donor type, donor heavy atom, donor atom, acceptor molecule, acceptor atom, score
      L1  H     9    28       P1 10175  0.99
      L1  H    12    29       P1 10175  0.95

> <Gold.Chemscore.Hbond.Weighted>
-6.3302

> <Gold.Chemscore.Metal.Weighted>
-0.0000

> <Gold.Chemscore.Lipo.Weighted>
-8.9077

> <Gold.Chemscore.Internal_Hbond.Weighted>
0.0000

> <Gold.Chemscore.DEClash.Weighted>
0.1183

> <Gold.Chemscore.DEInternal.Weighted>
2.0342

> <Gold.Chemscore.Rot.Weighted>
3.6653

> <Gold.Chemscore.Internal.Correction.Weighted>
   9.000000E+99

> <Gold.Protein.RotatedTorsions>
[ 6907 6896 6895 6894 ] final -121.72 input  -60.11 | X-H torsion
[ 7974 7965 7964 7962 ] final -163.90 input  175.53 | X-H torsion
[ 8008 7997 7996 7995 ] final  153.65 input   59.86 | X-H torsion
[ 10167 10162 10161 10158 ] final   28.23 input  -65.29 | X-H torsion
[ 10718 10713 10712 10709 ] final   58.09 input   66.30 | X-H torsion
[ 10763 10752 10751 10750 ] final -125.48 input  -60.55 | X-H torsion
[ 11005 11000 10999 10996 ] final -156.66 input  -57.11 | X-H torsion

> <Gold.Protein.ActiveResidues>
 VAL166  LYS551  ARG553  GLY616  TRP617  ASP618  TYR619  PRO620  LYS621  CYS622 
 ASP623  PHE694  ASN695  SER759  ASP760  ASP761  ALA762  ILE779  LEU786  VAL792 
 PHE793  MET794  SER795  GLU796  ALA797  LYS798  CYS799  TRP800  GLU811  SER814 

> <Gold.Protein.RotatedAtoms>
  150.8509  133.7789  159.3025 H   0  0  0  0  0  0  0  0  0  0  0  0  # atno 6907 bound_to 6896
  151.5461  135.1066  159.9948 H   0  0  0  0  0  0  0  0  0  0  0  0  # atno 6908 bound_to 6896
  152.4552  133.7665  159.6831 H   0  0  0  0  0  0  0  0  0  0  0  0  # atno 6909 bound_to 6896
  144.7312  140.3039  143.6200 H   0  0  0  0  0  0  0  0  0  0  0  0  # atno 7974 bound_to 7965
  156.2571  140.1988  156.6523 H   0  0  0  0  0  0  0  0  0  0  0  0  # atno 8008 bound_to 7997
  154.6527  140.0570  156.9999 H   0  0  0  0  0  0  0  0  0  0  0  0  # atno 8009 bound_to 7997
  155.1394  140.3241  155.4458 H   0  0  0  0  0  0  0  0  0  0  0  0  # atno 8010 bound_to 7997
  140.4870  144.0526  150.6284 H   0  0  0  0  0  0  0  0  0  0  0  0  # atno 10167 bound_to 10162
  157.5568  130.8806  149.9049 H   0  0  0  0  0  0  0  0  0  0  0  0  # atno 10718 bound_to 10713
  154.8736  135.4028  154.3275 H   0  0  0  0  0  0  0  0  0  0  0  0  # atno 10763 bound_to 10752
  153.4094  135.7020  153.6375 H   0  0  0  0  0  0  0  0  0  0  0  0  # atno 10764 bound_to 10752
  153.5084  135.3712  155.2545 H   0  0  0  0  0  0  0  0  0  0  0  0  # atno 10765 bound_to 10752
  140.6732  134.4225  157.5230 H   0  0  0  0  0  0  0  0  0  0  0  0  # atno 11005 bound_to 11000
  145.7733  139.1865  143.2200 LP  0  0  0  0  0  0  0  0  0  0  0  0  # atno 17320 bound_to 7965
  146.0893  140.7674  142.9603 LP  0  0  0  0  0  0  0  0  0  0  0  0  # atno 17321 bound_to 7965
  140.3785  143.2816  152.0198 LP  0  0  0  0  0  0  0  0  0  0  0  0  # atno 17342 bound_to 10162
  139.4844  144.6174  151.7320 LP  0  0  0  0  0  0  0  0  0  0  0  0  # atno 17343 bound_to 10162
  156.0626  130.3697  150.0948 LP  0  0  0  0  0  0  0  0  0  0  0  0  # atno 17370 bound_to 10713
  156.9116  130.9653  151.3562 LP  0  0  0  0  0  0  0  0  0  0  0  0  # atno 17371 bound_to 10713
  139.8975  134.8635  156.2042 LP  0  0  0  0  0  0  0  0  0  0  0  0  # atno 17394 bound_to 11000
  141.0376  133.6955  156.1540 LP  0  0  0  0  0  0  0  0  0  0  0  0  # atno 17395 bound_to 11000

$$$$
