AV-unprocessed.smi:2095|AV-procd|sdf|8554|dock6
  -GOLD-   2272011273D 1   1.00000     0.00000
 Structure written by MMmdl.
 42 43  0  0  0  0  0  0  0  0  2 V2000
  144.6423  133.9848  150.3136 C   0  0  0  0  0  0  0  0  0  0  0  0
  145.5816  134.6255  151.3455 C   0  0  2  0  0  0  0  0  0  0  0  0
  145.4218  133.9718  152.7260 C   0  0  0  0  0  0  0  0  0  0  0  0
  146.3509  134.6504  153.7358 C   0  0  0  0  0  0  0  0  0  0  0  0
  146.0934  136.1634  153.7775 C   0  0  0  0  0  0  0  0  0  0  0  0
  146.2712  136.7893  152.4360 N   0  3  2  0  0  0  0  0  0  0  0  0
  146.2262  138.2882  152.5064 C   0  0  2  0  0  0  0  0  0  0  0  0
  146.6214  138.9954  151.1853 C   0  0  0  0  0  0  0  0  0  0  0  0
  147.1093  138.7840  153.6811 C   0  0  0  0  0  0  0  0  0  0  0  0
  148.4886  138.3177  153.5728 N   0  0  0  0  0  0  0  0  0  0  0  0
  149.5179  138.7380  154.3259 C   0  0  0  0  0  0  0  0  0  0  0  0
  149.4282  139.6364  155.1616 O   0  0  0  0  0  0  0  0  0  0  0  0
  150.8473  138.0103  154.1254 C   0  0  0  0  0  0  0  0  0  0  0  0
  151.7490  138.2822  155.2297 N   0  0  0  0  0  0  0  0  0  0  0  0
  152.1428  139.4341  155.7766 C   0  0  0  0  0  0  0  0  0  0  0  0
  153.0132  139.2388  156.7549 N   0  0  0  0  0  0  0  0  0  0  0  0
  153.1407  137.8602  156.7919 N   0  0  0  0  0  0  0  0  0  0  0  0
  152.3935  137.2871  155.8889 N   0  0  0  0  0  0  0  0  0  0  0  0
  145.3654  136.1513  151.4345 C   0  0  0  0  0  0  0  0  0  0  0  0
  143.5965  134.1193  150.5918 H   0  0  0  0  0  0  0  0  0  0  0  0
  144.8277  132.9138  150.2253 H   0  0  0  0  0  0  0  0  0  0  0  0
  144.7828  134.4249  149.3260 H   0  0  0  0  0  0  0  0  0  0  0  0
  146.6048  134.4515  151.0083 H   0  0  0  0  0  0  0  0  0  0  0  0
  144.3874  134.0548  153.0629 H   0  0  0  0  0  0  0  0  0  0  0  0
  145.6486  132.9064  152.6707 H   0  0  0  0  0  0  0  0  0  0  0  0
  146.2000  134.2195  154.7262 H   0  0  0  0  0  0  0  0  0  0  0  0
  147.3914  134.4598  153.4694 H   0  0  0  0  0  0  0  0  0  0  0  0
  145.0807  136.3568  154.1356 H   0  0  0  0  0  0  0  0  0  0  0  0
  146.7680  136.6044  154.5091 H   0  0  0  0  0  0  0  0  0  0  0  0
  145.1929  138.5771  152.7075 H   0  0  0  0  0  0  0  0  0  0  0  0
  146.5591  140.0798  151.2718 H   0  0  0  0  0  0  0  0  0  0  0  0
  145.9540  138.7351  150.3640 H   0  0  0  0  0  0  0  0  0  0  0  0
  147.6427  138.7513  150.8907 H   0  0  0  0  0  0  0  0  0  0  0  0
  147.1573  139.8710  153.7098 H   0  0  0  0  0  0  0  0  0  0  0  0
  146.6631  138.4816  154.6299 H   0  0  0  0  0  0  0  0  0  0  0  0
  148.6656  137.5808  152.9053 H   0  0  0  0  0  0  0  0  0  0  0  0
  150.6798  136.9344  154.0588 H   0  0  0  0  0  0  0  0  0  0  0  0
  151.3163  138.3249  153.1917 H   0  0  0  0  0  0  0  0  0  0  0  0
  151.8048  140.4072  155.4519 H   0  0  0  0  0  0  0  0  0  0  0  0
  145.5537  136.5538  150.4397 H   0  0  0  0  0  0  0  0  0  0  0  0
  144.3275  136.3762  151.6861 H   0  0  0  0  0  0  0  0  0  0  0  0
  147.2062  136.5598  152.1300 H   0  0  0  0  0  0  0  0  0  0  0  0
  1  2  1  0  0  0  0
  1 20  1  0  0  0  0
  1 21  1  0  0  0  0
  1 22  1  0  0  0  0
  2 19  1  0  0  0  0
  2  3  1  0  0  0  0
  2 23  1  0  0  0  0
  3  4  1  0  0  0  0
  3 24  1  0  0  0  0
  3 25  1  0  0  0  0
  4  5  1  0  0  0  0
  4 26  1  0  0  0  0
  4 27  1  0  0  0  0
  5  6  1  0  0  0  0
  5 28  1  0  0  0  0
  5 29  1  0  0  0  0
  6  7  1  0  0  0  0
  6 19  1  0  0  0  0
  6 42  1  0  0  0  0
  7  8  1  0  0  0  0
  7  9  1  0  0  0  0
  7 30  1  0  0  0  0
  8 31  1  0  0  0  0
  8 32  1  0  0  0  0
  8 33  1  0  0  0  0
  9 10  1  0  0  0  0
  9 34  1  0  0  0  0
  9 35  1  0  0  0  0
 10 11  1  0  0  0  0
 10 36  1  0  0  0  0
 11 12  2  0  0  0  0
 11 13  1  0  0  0  0
 13 14  1  0  0  0  0
 13 37  1  0  0  0  0
 13 38  1  0  0  0  0
 14 18  1  0  0  0  0
 14 15  1  0  0  0  0
 15 16  2  0  0  0  0
 15 39  1  0  0  0  0
 16 17  1  0  0  0  0
 17 18  2  0  0  0  0
 19 40  1  0  0  0  0
 19 41  1  0  0  0  0
M  CHG  1   6   1
M  END
> <s_m_source_file>
AV-unprocessed.smi

> <i_m_source_file_index>
2095

> <i_lp_mmshare_version>
43012

> <i_f3d_flags>
0

> <s_epik_input>
W0NIM11bQ0BASF0xW0NIMl1bQ0gyXVtDSDJdTihbQ0gyXTEpW0NASF0oW0NIM10pW0NIMl1bTkhdQyg9TylbQ0gyXW4yW2NIXW5ubjI=

> <s_epik_cmdline>
J2VwaWtfcHl0aG9uJywgJy1waCcsICc3LjAnLCAnLXRuJywgJzgnLCAnLW1hJywgJzIwMCcsICctbWV0YWxfYmluZGluZycsICctaW1hZScsICc8aW5maWxlLm1hZT4nLCAnLW9tYWUnLCAnPG91dGZpbGUubWFlPic=

> <r_lp_tautomer_probability>
1

> <r_epik_Ionization_Penalty>
0.00268321

> <r_epik_Ionization_Penalty_Charging>
0.00267875

> <r_epik_Ionization_Penalty_Neutral>
4.46125e-06

> <r_epik_State_Penalty>
0.00186642

> <r_epik_Charging_Adjusted_Penalty>
0.00454517

> <i_epik_Tot_Q>
1

> <i_epik_Tot_abs_Q>
1

> <r_epik_Metal_State_Penalty>
-0

> <b_epik_Metal_Only>
0

> <s_lp_Force_Field>
OPLS_2005

> <r_lp_Energy>
25.312

> <b_lp_Chiralities_Consistent>
1

> <s_lp_Variant>
AV-unprocessed.smi:2095-1

> <Gold.Version>
5.8.1

> <Gold.Id.Protein>
6NUR|6NUR_protein|mol2

> <Gold.PLP.Fitness>
44.7920

> <Gold.PLP.PLP>
-31.3927

> <Gold.PLP.part.hbond>
-4.6748

> <Gold.PLP.part.metal>
0.0000

> <Gold.PLP.part.buried>
-1.7909

> <Gold.PLP.part.nonpolar>
-27.2765

> <Gold.PLP.part.repulsive>
0.1491

> <Gold.PLP.ligand.clash>
0.0000

> <Gold.PLP.ligand.torsion>
0.4297

> <Gold.PLP.Chemscore.Hbond>
4.7296

> <Gold.PLP.Chemscore.CHOScore>
0.0000

> <Gold.PLP.Chemscore.Metal>
0.0000

> <Gold.Chemscore.Hbonds>
donor molecule, donor type, donor heavy atom, donor atom, acceptor molecule, acceptor atom, score
      L1  H     6    42       P1  7948  2.00
      L1  H    10    36       P1  7948  1.00
      P1  H  7997  8008       L1    16  1.00
      P1  H 10752 10764       L1    18  0.64

> <Gold.PLP.Chemscore.Internal.Correction>
0.0700

> <Gold.Rescore>
     Score         DG    S(hbond)    S(metal)    S(lipo)     H(rot)  DE(clash)    DE(int)     intcor
     15.53     -17.48       3.71        0.00      54.54       2.64       0.08       1.87       ----

> <Gold.Chemscore.Fitness>
15.5315

> <Gold.Chemscore.DG>
-17.4779

> <Gold.Chemscore.ZeroCoef>
-5.4800

> <Gold.Chemscore.Hbond>
3.7080

> <Gold.Chemscore.Metal>
0.0000

> <Gold.Chemscore.Lipo>
54.5435

> <Gold.Chemscore.Internal_Hbond>
0.0000

> <Gold.Chemscore.DEClash>
0.0785

> <Gold.Chemscore.DEInternal>
1.8678

> <Gold.Chemscore.Rot>
2.6439

> <Gold.Chemscore.Internal.Correction>
   9.000000E+99

> <Gold.Chemscore.Hbonds>
donor molecule, donor type, donor heavy atom, donor atom, acceptor molecule, acceptor atom, score
      L1  H     6    42       P1  7948  1.00
      L1  H    10    36       P1  7948  1.00
      P1  H  7997  8008       L1    16  0.86
      P1  H 10752 10764       L1    18  0.60

> <Gold.Chemscore.Hbond.Weighted>
-12.3847

> <Gold.Chemscore.Metal.Weighted>
-0.0000

> <Gold.Chemscore.Lipo.Weighted>
-6.3816

> <Gold.Chemscore.Internal_Hbond.Weighted>
0.0000

> <Gold.Chemscore.DEClash.Weighted>
0.0785

> <Gold.Chemscore.DEInternal.Weighted>
1.8678

> <Gold.Chemscore.Rot.Weighted>
6.7685

> <Gold.Chemscore.Internal.Correction.Weighted>
   9.000000E+99

> <Gold.Protein.RotatedTorsions>
[ 6907 6896 6895 6894 ] final  -94.67 input  -60.11 | X-H torsion
[ 7974 7965 7964 7962 ] final  -42.70 input  175.53 | X-H torsion
[ 8008 7997 7996 7995 ] final  -65.30 input   59.86 | X-H torsion
[ 10167 10162 10161 10158 ] final  118.25 input  -65.29 | X-H torsion
[ 10718 10713 10712 10709 ] final   16.37 input   66.30 | X-H torsion
[ 10763 10752 10751 10750 ] final  -38.58 input  -60.55 | X-H torsion
[ 11005 11000 10999 10996 ] final  166.42 input  -57.11 | X-H torsion

> <Gold.Protein.ActiveResidues>
 VAL166  LYS551  ARG553  GLY616  TRP617  ASP618  TYR619  PRO620  LYS621  CYS622 
 ASP623  PHE694  ASN695  SER759  ASP760  ASP761  ALA762  ILE779  LEU786  VAL792 
 PHE793  MET794  SER795  GLU796  ALA797  LYS798  CYS799  TRP800  GLU811  SER814 

> <Gold.Protein.RotatedAtoms>
  150.6947  134.1776  159.4236 H   0  0  0  0  0  0  0  0  0  0  0  0  # atno 6907 bound_to 6896
  151.9752  135.0054  160.0564 H   0  0  0  0  0  0  0  0  0  0  0  0  # atno 6908 bound_to 6896
  152.1805  133.4669  159.4992 H   0  0  0  0  0  0  0  0  0  0  0  0  # atno 6909 bound_to 6896
  146.0090  140.6986  142.9233 H   0  0  0  0  0  0  0  0  0  0  0  0  # atno 7974 bound_to 7965
  154.4663  140.0936  156.7030 H   0  0  0  0  0  0  0  0  0  0  0  0  # atno 8008 bound_to 7997
  155.4848  140.3469  155.4327 H   0  0  0  0  0  0  0  0  0  0  0  0  # atno 8009 bound_to 7997
  156.0962  140.1410  156.9516 H   0  0  0  0  0  0  0  0  0  0  0  0  # atno 8010 bound_to 7997
  139.6124  144.7085  151.2814 H   0  0  0  0  0  0  0  0  0  0  0  0  # atno 10167 bound_to 10162
  157.0669  130.6332  149.5797 H   0  0  0  0  0  0  0  0  0  0  0  0  # atno 10718 bound_to 10713
  153.9151  135.6788  153.4749 H   0  0  0  0  0  0  0  0  0  0  0  0  # atno 10763 bound_to 10752
  153.1058  135.4806  154.8945 H   0  0  0  0  0  0  0  0  0  0  0  0  # atno 10764 bound_to 10752
  154.7507  135.3184  154.8519 H   0  0  0  0  0  0  0  0  0  0  0  0  # atno 10765 bound_to 10752
  140.2662  134.7863  157.3635 H   0  0  0  0  0  0  0  0  0  0  0  0  # atno 11005 bound_to 11000
  144.6946  140.3366  143.7206 LP  0  0  0  0  0  0  0  0  0  0  0  0  # atno 17320 bound_to 7965
  145.7371  139.1753  143.2397 LP  0  0  0  0  0  0  0  0  0  0  0  0  # atno 17321 bound_to 7965
  140.7328  143.6812  150.7999 LP  0  0  0  0  0  0  0  0  0  0  0  0  # atno 17342 bound_to 10162
  140.0409  143.5346  152.2718 LP  0  0  0  0  0  0  0  0  0  0  0  0  # atno 17343 bound_to 10162
  155.9962  130.5030  150.7486 LP  0  0  0  0  0  0  0  0  0  0  0  0  # atno 17370 bound_to 10713
  157.4909  131.0911  151.0427 LP  0  0  0  0  0  0  0  0  0  0  0  0  # atno 17371 bound_to 10713
  140.1416  134.4964  155.8027 LP  0  0  0  0  0  0  0  0  0  0  0  0  # atno 17394 bound_to 11000
  141.2184  133.6827  156.7221 LP  0  0  0  0  0  0  0  0  0  0  0  0  # atno 17395 bound_to 11000

$$$$
