AV-unprocessed.smi:3278|AV-procd|sdf|12541|dock6
  -GOLD-   2272018453D 1   1.00000     0.00000
 Structure written by MMmdl.
 39 40  0  0  0  0  0  0  0  0  2 V2000
  145.9600  143.0194  153.8625 C   0  0  0  0  0  0  0  0  0  0  0  0
  147.0118  142.0518  154.0901 N   0  0  0  0  0  0  0  0  0  0  0  0
  147.9434  142.0150  155.1045 C   0  0  0  0  0  0  0  0  0  0  0  0
  148.7340  140.9165  154.9031 C   0  0  0  0  0  0  0  0  0  0  0  0
  149.8958  140.4229  155.7396 C   0  0  2  0  0  0  0  0  0  0  0  0
  150.5820  139.2336  155.0452 C   0  0  0  0  0  0  0  0  0  0  0  0
  149.4702  139.9405  157.0008 O   0  0  0  0  0  0  0  0  0  0  0  0
  150.9115  141.5558  156.0018 C   0  0  0  0  0  0  0  0  0  0  0  0
  150.3878  142.5506  156.9656 N   0  3  0  0  0  0  0  0  0  0  0  0
  151.3604  143.0463  157.9638 C   0  0  2  0  0  0  0  0  0  0  0  0
  151.7111  141.9469  158.9911 C   0  0  0  0  0  0  0  0  0  0  0  0
  152.7570  142.4039  160.0217 C   0  0  0  0  0  0  0  0  0  0  0  0
  152.2798  143.6034  160.8509 C   0  0  0  0  0  0  0  0  0  0  0  0
  151.9766  145.0443  159.7942 S   0  0  0  0  0  0  0  0  0  0  0  0
  150.7809  144.2932  158.6562 C   0  0  0  0  0  0  0  0  0  0  0  0
  148.1917  140.3431  153.7147 C   0  0  0  0  0  0  0  0  0  0  0  0
  147.1616  141.0201  153.2360 N   0  0  0  0  0  0  0  0  0  0  0  0
  145.9645  143.7702  154.6530 H   0  0  0  0  0  0  0  0  0  0  0  0
  144.9916  142.5181  153.8552 H   0  0  0  0  0  0  0  0  0  0  0  0
  146.1150  143.5139  152.9028 H   0  0  0  0  0  0  0  0  0  0  0  0
  147.9675  142.7666  155.8800 H   0  0  0  0  0  0  0  0  0  0  0  0
  150.9788  139.5159  154.0693 H   0  0  0  0  0  0  0  0  0  0  0  0
  149.8846  138.4094  154.8891 H   0  0  0  0  0  0  0  0  0  0  0  0
  151.4156  138.8518  155.6358 H   0  0  0  0  0  0  0  0  0  0  0  0
  149.0890  140.6559  157.4870 H   0  0  0  0  0  0  0  0  0  0  0  0
  151.8499  141.1383  156.3672 H   0  0  0  0  0  0  0  0  0  0  0  0
  151.1396  142.0679  155.0658 H   0  0  0  0  0  0  0  0  0  0  0  0
  150.0706  143.3433  156.4256 H   0  0  0  0  0  0  0  0  0  0  0  0
  152.2655  143.3467  157.4330 H   0  0  0  0  0  0  0  0  0  0  0  0
  150.8075  141.6229  159.5096 H   0  0  0  0  0  0  0  0  0  0  0  0
  152.1009  141.0656  158.4826 H   0  0  0  0  0  0  0  0  0  0  0  0
  152.9869  141.5746  160.6915 H   0  0  0  0  0  0  0  0  0  0  0  0
  153.6905  142.6537  159.5158 H   0  0  0  0  0  0  0  0  0  0  0  0
  151.3635  143.3560  161.3885 H   0  0  0  0  0  0  0  0  0  0  0  0
  153.0278  143.8679  161.5984 H   0  0  0  0  0  0  0  0  0  0  0  0
  150.5016  145.0442  157.9164 H   0  0  0  0  0  0  0  0  0  0  0  0
  149.8763  144.0407  159.2108 H   0  0  0  0  0  0  0  0  0  0  0  0
  148.5117  139.4541  153.1910 H   0  0  0  0  0  0  0  0  0  0  0  0
  149.5911  142.1580  157.4468 H   0  0  0  0  0  0  0  0  0  0  0  0
  1  2  1  0  0  0  0
  1 18  1  0  0  0  0
  1 19  1  0  0  0  0
  1 20  1  0  0  0  0
  2 17  1  0  0  0  0
  2  3  1  0  0  0  0
  3  4  2  0  0  0  0
  3 21  1  0  0  0  0
  4  5  1  0  0  0  0
  4 16  1  0  0  0  0
  5  6  1  0  0  0  0
  5  7  1  0  0  0  0
  5  8  1  0  0  0  0
  6 22  1  0  0  0  0
  6 23  1  0  0  0  0
  6 24  1  0  0  0  0
  7 25  1  0  0  0  0
  8  9  1  0  0  0  0
  8 26  1  0  0  0  0
  8 27  1  0  0  0  0
  9 10  1  0  0  0  0
  9 28  1  0  0  0  0
  9 39  1  0  0  0  0
 10 15  1  0  0  0  0
 10 11  1  0  0  0  0
 10 29  1  0  0  0  0
 11 12  1  0  0  0  0
 11 30  1  0  0  0  0
 11 31  1  0  0  0  0
 12 13  1  0  0  0  0
 12 32  1  0  0  0  0
 12 33  1  0  0  0  0
 13 14  1  0  0  0  0
 13 34  1  0  0  0  0
 13 35  1  0  0  0  0
 14 15  1  0  0  0  0
 15 36  1  0  0  0  0
 15 37  1  0  0  0  0
 16 17  2  0  0  0  0
 16 38  1  0  0  0  0
M  CHG  1   9   1
M  END
> <s_m_source_file>
AV-unprocessed.smi

> <i_m_source_file_index>
3278

> <i_lp_mmshare_version>
43012

> <i_f3d_flags>
0

> <s_epik_input>
W0NIM11uMVtjSF1jKFtjSF1uMSlbQ0BAXShbQ0gzXSkoW09IXSlbQ0gyXVtOSF1bQ0BASF0yW0NIMl1bQ0gyXVtDSDJdU1tDSDJdMg==

> <s_epik_cmdline>
J2VwaWtfcHl0aG9uJywgJy1waCcsICc3LjAnLCAnLXRuJywgJzgnLCAnLW1hJywgJzIwMCcsICctbWV0YWxfYmluZGluZycsICctaW1hZScsICc8aW5maWxlLm1hZT4nLCAnLW9tYWUnLCAnPG91dGZpbGUubWFlPic=

> <r_lp_tautomer_probability>
1

> <r_epik_Ionization_Penalty>
0.0185703

> <r_epik_Ionization_Penalty_Charging>
0.0185619

> <r_epik_Ionization_Penalty_Neutral>
8.47286e-06

> <r_epik_State_Penalty>
0.0147768

> <r_epik_Charging_Adjusted_Penalty>
0.0333386

> <i_epik_Tot_Q>
1

> <i_epik_Tot_abs_Q>
1

> <r_epik_Metal_State_Penalty>
0.0147782

> <b_epik_Metal_Only>
0

> <s_lp_Force_Field>
OPLS_2005

> <r_lp_Energy>
8.69531

> <b_lp_Chiralities_Consistent>
1

> <s_lp_Variant>
AV-unprocessed.smi:3278-2

> <Gold.Version>
5.8.1

> <Gold.Id.Protein>
6NUR|6NUR_protein|mol2

> <Gold.PLP.Fitness>
49.1210

> <Gold.PLP.PLP>
-39.8630

> <Gold.PLP.part.hbond>
-1.0000

> <Gold.PLP.part.metal>
0.0000

> <Gold.PLP.part.buried>
-0.9472

> <Gold.PLP.part.nonpolar>
-37.2063

> <Gold.PLP.part.repulsive>
0.2080

> <Gold.PLP.ligand.clash>
0.0000

> <Gold.PLP.ligand.torsion>
0.6736

> <Gold.PLP.Chemscore.Hbond>
2.0000

> <Gold.PLP.Chemscore.CHOScore>
1.5268

> <Gold.PLP.Chemscore.Metal>
0.0000

> <Gold.Chemscore.Hbonds>
donor molecule, donor type, donor heavy atom, donor atom, acceptor molecule, acceptor atom, score
      L1  H     9    28       P1  8028  2.00
      L1  C     3    21       P1  8028  0.89
      L1  C    16    38       P1  7957  0.61

> <Gold.PLP.Chemscore.Internal.Correction>
0.0248

> <Gold.Rescore>
     Score         DG    S(hbond)    S(metal)    S(lipo)     H(rot)  DE(clash)    DE(int)     intcor
     16.07     -16.83       1.00        0.00     112.39       2.00       0.11       0.64       ----

> <Gold.Chemscore.Fitness>
16.0742

> <Gold.Chemscore.DG>
-16.8251

> <Gold.Chemscore.ZeroCoef>
-5.4800

> <Gold.Chemscore.Hbond>
0.9957

> <Gold.Chemscore.Metal>
0.0000

> <Gold.Chemscore.Lipo>
112.3866

> <Gold.Chemscore.Internal_Hbond>
0.0000

> <Gold.Chemscore.DEClash>
0.1148

> <Gold.Chemscore.DEInternal>
0.6361

> <Gold.Chemscore.Rot>
2.0038

> <Gold.Chemscore.Internal.Correction>
   9.000000E+99

> <Gold.Chemscore.Hbonds>
donor molecule, donor type, donor heavy atom, donor atom, acceptor molecule, acceptor atom, score
      L1  H     9    28       P1  8028  0.98

> <Gold.Chemscore.Hbond.Weighted>
-3.3255

> <Gold.Chemscore.Metal.Weighted>
-0.0000

> <Gold.Chemscore.Lipo.Weighted>
-13.1492

> <Gold.Chemscore.Internal_Hbond.Weighted>
0.0000

> <Gold.Chemscore.DEClash.Weighted>
0.1148

> <Gold.Chemscore.DEInternal.Weighted>
0.6361

> <Gold.Chemscore.Rot.Weighted>
5.1296

> <Gold.Chemscore.Internal.Correction.Weighted>
   9.000000E+99

> <Gold.Protein.RotatedTorsions>
[ 6907 6896 6895 6894 ] final  -37.58 input  -60.11 | X-H torsion
[ 7974 7965 7964 7962 ] final  168.57 input  175.53 | X-H torsion
[ 8008 7997 7996 7995 ] final  -74.81 input   59.86 | X-H torsion
[ 10167 10162 10161 10158 ] final   13.72 input  -65.29 | X-H torsion
[ 10718 10713 10712 10709 ] final  136.49 input   66.30 | X-H torsion
[ 10763 10752 10751 10750 ] final -171.97 input  -60.55 | X-H torsion
[ 11005 11000 10999 10996 ] final  -74.60 input  -57.11 | X-H torsion

> <Gold.Protein.ActiveResidues>
 VAL166  LYS551  ARG553  GLY616  TRP617  ASP618  TYR619  PRO620  LYS621  CYS622 
 ASP623  PHE694  ASN695  SER759  ASP760  ASP761  ALA762  ILE779  LEU786  VAL792 
 PHE793  MET794  SER795  GLU796  ALA797  LYS798  CYS799  TRP800  GLU811  SER814 

> <Gold.Protein.RotatedAtoms>
  151.0129  134.9410  159.8016 H   0  0  0  0  0  0  0  0  0  0  0  0  # atno 6907 bound_to 6896
  152.5307  134.3004  159.9086 H   0  0  0  0  0  0  0  0  0  0  0  0  # atno 6908 bound_to 6896
  151.3011  133.4080  159.2674 H   0  0  0  0  0  0  0  0  0  0  0  0  # atno 6909 bound_to 6896
  144.7384  139.8926  143.6404 H   0  0  0  0  0  0  0  0  0  0  0  0  # atno 7974 bound_to 7965
  154.5362  140.0755  156.8432 H   0  0  0  0  0  0  0  0  0  0  0  0  # atno 8008 bound_to 7997
  155.3273  140.3399  155.4222 H   0  0  0  0  0  0  0  0  0  0  0  0  # atno 8009 bound_to 7997
  156.1831  140.1659  156.8224 H   0  0  0  0  0  0  0  0  0  0  0  0  # atno 8010 bound_to 7997
  140.5984  143.8655  150.6940 H   0  0  0  0  0  0  0  0  0  0  0  0  # atno 10167 bound_to 10162
  157.4461  131.1062  151.0088 H   0  0  0  0  0  0  0  0  0  0  0  0  # atno 10718 bound_to 10713
  154.6245  135.2879  155.0288 H   0  0  0  0  0  0  0  0  0  0  0  0  # atno 10763 bound_to 10752
  154.1471  135.6509  153.4959 H   0  0  0  0  0  0  0  0  0  0  0  0  # atno 10764 bound_to 10752
  153.0251  135.5346  154.7048 H   0  0  0  0  0  0  0  0  0  0  0  0  # atno 10765 bound_to 10752
  141.1637  133.6917  156.7390 H   0  0  0  0  0  0  0  0  0  0  0  0  # atno 11005 bound_to 11000
  146.1130  139.4137  143.0276 LP  0  0  0  0  0  0  0  0  0  0  0  0  # atno 17320 bound_to 7965
  145.7415  141.0006  143.1298 LP  0  0  0  0  0  0  0  0  0  0  0  0  # atno 17321 bound_to 7965
  140.2195  143.3820  152.1654 LP  0  0  0  0  0  0  0  0  0  0  0  0  # atno 17342 bound_to 10162
  139.5274  144.7118  151.5180 LP  0  0  0  0  0  0  0  0  0  0  0  0  # atno 17343 bound_to 10162
  157.0934  130.5952  149.5444 LP  0  0  0  0  0  0  0  0  0  0  0  0  # atno 17370 bound_to 10713
  155.9968  130.5038  150.7509 LP  0  0  0  0  0  0  0  0  0  0  0  0  # atno 17371 bound_to 10713
  140.2689  134.8408  157.3828 LP  0  0  0  0  0  0  0  0  0  0  0  0  # atno 17394 bound_to 11000
  140.1540  134.4813  155.7941 LP  0  0  0  0  0  0  0  0  0  0  0  0  # atno 17395 bound_to 11000

$$$$
