AV-unprocessed.smi:69|AV-procd|sdf|643|dock8
  -GOLD-   2262016533D 1   1.00000     0.00000
 Structure written by MMmdl.
 32 34  0  0  0  0  0  0  0  0  1 V2000
  150.8455  134.1484  156.7004 N   0  0  0  0  0  0  0  0  0  0  0  0
  150.6372  135.4643  156.8458 C   0  0  0  0  0  0  0  0  0  0  0  0
  150.1624  135.9134  158.0312 N   0  0  0  0  0  0  0  0  0  0  0  0
  149.9444  137.2216  158.2000 C   0  0  0  0  0  0  0  0  0  0  0  0
  150.1300  138.2186  157.3307 N   0  0  0  0  0  0  0  0  0  0  0  0
  150.6093  137.7641  156.1357 C   0  0  0  0  0  0  0  0  0  0  0  0
  150.8895  136.4064  155.8165 C   0  0  0  0  0  0  0  0  0  0  0  0
  151.3644  136.3143  154.5154 N   0  0  0  0  0  0  0  0  0  0  0  0
  151.3625  137.5501  154.0925 C   0  0  0  0  0  0  0  0  0  0  0  0
  150.9185  138.4866  155.0007 N   0  0  0  0  0  0  0  0  0  0  0  0
  150.7982  139.9637  154.8027 C   0  0  2  0  0  0  0  0  0  0  0  0
  151.1231  140.5901  156.0053 O   0  0  0  0  0  0  0  0  0  0  0  0
  150.2193  141.6620  156.2468 C   0  0  2  0  0  0  0  0  0  0  0  0
  150.1648  141.9672  157.7515 C   0  0  0  0  0  0  0  0  0  0  0  0
  149.6625  143.2693  157.9643 O   0  0  0  0  0  0  0  0  0  0  0  0
  148.9052  141.1176  155.6843 C   0  0  1  0  0  0  0  0  0  0  0  0
  147.9616  142.1367  155.4082 O   0  0  0  0  0  0  0  0  0  0  0  0
  149.3539  140.3519  154.4410 C   0  0  1  0  0  0  0  0  0  0  0  0
  149.3226  141.1567  153.2757 O   0  0  0  0  0  0  0  0  0  0  0  0
  151.5301  140.2052  154.0299 H   0  0  0  0  0  0  0  0  0  0  0  0
  150.5327  142.5364  155.6724 H   0  0  0  0  0  0  0  0  0  0  0  0
  148.4625  140.4198  156.3952 H   0  0  0  0  0  0  0  0  0  0  0  0
  148.7383  139.4675  154.2698 H   0  0  0  0  0  0  0  0  0  0  0  0
  151.1984  133.7894  155.8249 H   0  0  0  0  0  0  0  0  0  0  0  0
  150.6482  133.5190  157.4649 H   0  0  0  0  0  0  0  0  0  0  0  0
  149.5670  137.5113  159.1695 H   0  0  0  0  0  0  0  0  0  0  0  0
  151.6835  137.8136  153.0951 H   0  0  0  0  0  0  0  0  0  0  0  0
  149.4900  141.2721  158.2519 H   0  0  0  0  0  0  0  0  0  0  0  0
  151.1457  141.8559  158.2146 H   0  0  0  0  0  0  0  0  0  0  0  0
  149.1584  143.5245  157.2067 H   0  0  0  0  0  0  0  0  0  0  0  0
  148.3864  142.9741  155.5153 H   0  0  0  0  0  0  0  0  0  0  0  0
  148.8761  140.6773  152.5945 H   0  0  0  0  0  0  0  0  0  0  0  0
  1  2  1  0  0  0  0
  1 24  1  0  0  0  0
  1 25  1  0  0  0  0
  2  7  1  0  0  0  0
  2  3  2  0  0  0  0
  3  4  1  0  0  0  0
  4  5  2  0  0  0  0
  4 26  1  0  0  0  0
  5  6  1  0  0  0  0
  6 10  1  0  0  0  0
  6  7  2  0  0  0  0
  7  8  1  0  0  0  0
  8  9  2  0  0  0  0
  9 10  1  0  0  0  0
  9 27  1  0  0  0  0
 10 11  1  0  0  0  0
 11 20  1  0  0  0  0
 11 18  1  0  0  0  0
 11 12  1  0  0  0  0
 12 13  1  0  0  0  0
 13 21  1  0  0  0  0
 13 14  1  0  0  0  0
 13 16  1  0  0  0  0
 14 15  1  0  0  0  0
 14 28  1  0  0  0  0
 14 29  1  0  0  0  0
 15 30  1  0  0  0  0
 16 22  1  0  0  0  0
 16 17  1  0  0  0  0
 16 18  1  0  0  0  0
 17 31  1  0  0  0  0
 18 23  1  0  0  0  0
 18 19  1  0  0  0  0
 19 32  1  0  0  0  0
M  END
> <s_m_source_file>
AV-unprocessed.smi

> <i_m_source_file_index>
69

> <i_lp_mmshare_version>
43012

> <i_f3d_flags>
0

> <s_epik_input>
bjFbY0hdbmMoW05IMl0pYyhjMTIpbltjSF1uMltDQEBIXTNPW0NASF0oW0NIMl1bT0hdKVtDQEBIXShbT0hdKVtDQEhdM1tPSF0=

> <s_epik_cmdline>
J2VwaWtfcHl0aG9uJywgJy1waCcsICc3LjAnLCAnLXRuJywgJzgnLCAnLW1hJywgJzIwMCcsICctbWV0YWxfYmluZGluZycsICctaW1hZScsICc8aW5maWxlLm1hZT4nLCAnLW9tYWUnLCAnPG91dGZpbGUubWFlPic=

> <r_lp_tautomer_probability>
1

> <r_epik_Ionization_Penalty>
0.000428445

> <r_epik_Ionization_Penalty_Charging>
0

> <r_epik_Ionization_Penalty_Neutral>
0.000428445

> <r_epik_State_Penalty>
-0

> <r_epik_Charging_Adjusted_Penalty>
0

> <i_epik_Tot_Q>
0

> <i_epik_Tot_abs_Q>
0

> <r_epik_Metal_State_Penalty>
-0

> <b_epik_Metal_Only>
0

> <s_epik_Chemistry_Notes>
This compound contains an acetal/aminal-like group ( X-CH(R)-Y where X, Y are N, S, or O) that may be acid/base labile, releasing an aldehyde.

> <s_lp_Force_Field>
OPLS_2005

> <r_lp_Energy>
38.6476

> <b_lp_Chiralities_Consistent>
1

> <s_lp_Variant>
AV-unprocessed.smi:69-1

> <Gold.Version>
5.8.1

> <Gold.Id.Protein>
6NUR|6NUR_protein|mol2

> <Gold.PLP.Fitness>
43.1554

> <Gold.PLP.PLP>
-26.9094

> <Gold.PLP.part.hbond>
-6.8633

> <Gold.PLP.part.metal>
0.0000

> <Gold.PLP.part.buried>
-2.4903

> <Gold.PLP.part.nonpolar>
-19.7291

> <Gold.PLP.part.repulsive>
0.3376

> <Gold.PLP.ligand.clash>
0.0000

> <Gold.PLP.ligand.torsion>
0.8963

> <Gold.PLP.Chemscore.Hbond>
5.3088

> <Gold.PLP.Chemscore.CHOScore>
0.6998

> <Gold.PLP.Chemscore.Metal>
0.0000

> <Gold.Chemscore.Hbonds>
donor molecule, donor type, donor heavy atom, donor atom, acceptor molecule, acceptor atom, score
      L1  H    15    30       P1  8028  0.99
      L1  H    17    31       P1  8028  1.00
      L1  H    19    32       P1  7957  0.51
      P1  H  6896  6907       L1     3  0.81
      P1  H  8011  8017       L1    19  0.80
      P1  H 10752 10763       L1     8  0.98
      L1  C     9    27       P1  7949  0.63

> <Gold.PLP.Chemscore.Internal.Correction>
0.0128

> <Gold.Rescore>
     Score         DG    S(hbond)    S(metal)    S(lipo)     H(rot)  DE(clash)    DE(int)     intcor
      7.58     -11.28       3.83        0.00      28.47       4.03       1.42       2.28       ----

> <Gold.Chemscore.Fitness>
7.5829

> <Gold.Chemscore.DG>
-11.2835

> <Gold.Chemscore.ZeroCoef>
-5.4800

> <Gold.Chemscore.Hbond>
3.8275

> <Gold.Chemscore.Metal>
0.0000

> <Gold.Chemscore.Lipo>
28.4669

> <Gold.Chemscore.Internal_Hbond>
0.0000

> <Gold.Chemscore.DEClash>
1.4206

> <Gold.Chemscore.DEInternal>
2.2800

> <Gold.Chemscore.Rot>
4.0277

> <Gold.Chemscore.Internal.Correction>
   9.000000E+99

> <Gold.Chemscore.Hbonds>
donor molecule, donor type, donor heavy atom, donor atom, acceptor molecule, acceptor atom, score
      L1  H    15    30       P1  8028  0.56
      L1  H    17    31       P1  8028  0.99
      L1  H    19    32       P1  7957  0.52
      P1  H  6896  6907       L1     3  0.62
      P1  H  8011  8017       L1    19  0.12
      P1  H 10752 10763       L1     8  0.31

> <Gold.Chemscore.Hbond.Weighted>
-12.7838

> <Gold.Chemscore.Metal.Weighted>
-0.0000

> <Gold.Chemscore.Lipo.Weighted>
-3.3306

> <Gold.Chemscore.Internal_Hbond.Weighted>
0.0000

> <Gold.Chemscore.DEClash.Weighted>
1.4206

> <Gold.Chemscore.DEInternal.Weighted>
2.2800

> <Gold.Chemscore.Rot.Weighted>
10.3110

> <Gold.Chemscore.Internal.Correction.Weighted>
   9.000000E+99

> <Gold.Protein.RotatedTorsions>
[ 6907 6896 6895 6894 ] final  -60.36 input  -60.11 | X-H torsion
[ 7974 7965 7964 7962 ] final  137.52 input  175.53 | X-H torsion
[ 8008 7997 7996 7995 ] final  -87.25 input   59.86 | X-H torsion
[ 10167 10162 10161 10158 ] final  110.46 input  -65.29 | X-H torsion
[ 10718 10713 10712 10709 ] final  -15.34 input   66.30 | X-H torsion
[ 10763 10752 10751 10750 ] final   70.93 input  -60.55 | X-H torsion
[ 11005 11000 10999 10996 ] final   29.02 input  -57.11 | X-H torsion

> <Gold.Protein.ActiveResidues>
 VAL166  LYS551  ARG553  GLY616  TRP617  ASP618  TYR619  PRO620  LYS621  CYS622 
 ASP623  PHE694  ASN695  SER759  ASP760  ASP761  ALA762  ILE779  LEU786  VAL792 
 PHE793  MET794  SER795  GLU796  ALA797  LYS798  CYS799  TRP800  GLU811  SER814 

> <Gold.Protein.RotatedAtoms>
  150.7862  134.6848  159.6463 H   0  0  0  0  0  0  0  0  0  0  0  0  # atno 6907 bound_to 6896
  152.3958  134.6364  160.0098 H   0  0  0  0  0  0  0  0  0  0  0  0  # atno 6908 bound_to 6896
  151.6650  133.3279  159.3219 H   0  0  0  0  0  0  0  0  0  0  0  0  # atno 6909 bound_to 6896
  144.9459  139.4875  143.5549 H   0  0  0  0  0  0  0  0  0  0  0  0  # atno 7974 bound_to 7965
  154.6611  140.0568  157.0063 H   0  0  0  0  0  0  0  0  0  0  0  0  # atno 8008 bound_to 7997
  155.1228  140.3249  155.4474 H   0  0  0  0  0  0  0  0  0  0  0  0  # atno 8009 bound_to 7997
  156.2618  140.1994  156.6349 H   0  0  0  0  0  0  0  0  0  0  0  0  # atno 8010 bound_to 7997
  139.6687  144.7126  151.1729 H   0  0  0  0  0  0  0  0  0  0  0  0  # atno 10167 bound_to 10162
  156.6031  130.4829  149.6231 H   0  0  0  0  0  0  0  0  0  0  0  0  # atno 10718 bound_to 10713
  153.0370  135.5155  154.7517 H   0  0  0  0  0  0  0  0  0  0  0  0  # atno 10763 bound_to 10752
  154.6485  135.2922  155.0018 H   0  0  0  0  0  0  0  0  0  0  0  0  # atno 10764 bound_to 10752
  154.0911  135.6650  153.4905 H   0  0  0  0  0  0  0  0  0  0  0  0  # atno 10765 bound_to 10752
  140.3094  134.2667  155.7737 H   0  0  0  0  0  0  0  0  0  0  0  0  # atno 11005 bound_to 11000
  146.3303  139.8511  142.8873 LP  0  0  0  0  0  0  0  0  0  0  0  0  # atno 17320 bound_to 7965
  145.2918  141.0169  143.3659 LP  0  0  0  0  0  0  0  0  0  0  0  0  # atno 17321 bound_to 7965
  140.7609  143.5879  150.8827 LP  0  0  0  0  0  0  0  0  0  0  0  0  # atno 17342 bound_to 10162
  139.9542  143.6237  152.3020 LP  0  0  0  0  0  0  0  0  0  0  0  0  # atno 17343 bound_to 10162
  156.2452  130.6875  151.1593 LP  0  0  0  0  0  0  0  0  0  0  0  0  # atno 17370 bound_to 10713
  157.7274  131.0639  150.5866 LP  0  0  0  0  0  0  0  0  0  0  0  0  # atno 17371 bound_to 10713
  141.2111  133.7698  156.9884 LP  0  0  0  0  0  0  0  0  0  0  0  0  # atno 17394 bound_to 11000
  140.1038  134.9519  157.1964 LP  0  0  0  0  0  0  0  0  0  0  0  0  # atno 17395 bound_to 11000

$$$$
