AV-unprocessed.smi:709|AV-procd|sdf|3461|dock1
  -GOLD-   22720 0453D 1   1.00000     0.00000
 Structure written by MMmdl.
 48 50  0  0  0  0  0  0  0  0  1 V2000
  152.9074  138.1785  156.0165 C   0  0  0  0  0  0  0  0  0  0  0  0
  152.8045  138.9675  154.7094 C   0  0  0  0  0  0  0  0  0  0  0  0
  151.5991  139.7136  154.7188 O   0  0  0  0  0  0  0  0  0  0  0  0
  150.4631  138.9303  154.3896 C   0  0  1  0  0  0  0  0  0  0  0  0
  149.9473  138.0416  155.5263 C   0  0  0  0  0  0  0  0  0  0  0  0
  148.5284  138.4334  155.0972 C   0  0  2  0  0  0  0  0  0  0  0  0
  147.9889  137.4709  154.1360 N   0  0  0  0  0  0  0  0  0  0  0  0
  146.7227  137.0331  154.1253 C   0  0  0  0  0  0  0  0  0  0  0  0
  145.8748  137.4089  154.9339 O   0  0  0  0  0  0  0  0  0  0  0  0
  146.5301  136.1603  153.1192 N   0  0  0  0  0  0  0  0  0  0  0  0
  145.3718  135.4593  152.7381 C   0  0  0  0  0  0  0  0  0  0  0  0
  144.1084  135.7717  153.1241 C   0  0  0  0  0  0  0  0  0  0  0  0
  142.9817  134.9856  152.6818 C   0  0  0  0  0  0  0  0  0  0  0  0
  143.2117  133.9335  151.8843 C   0  0  0  0  0  0  0  0  0  0  0  0
  144.5109  133.5881  151.4766 N   0  0  0  0  0  0  0  0  0  0  0  0
  144.6605  132.4188  150.6064 C   0  0  0  0  0  0  0  0  0  0  0  0
  145.6137  134.2979  151.8591 C   0  0  0  0  0  0  0  0  0  0  0  0
  146.7426  133.9728  151.4822 O   0  0  0  0  0  0  0  0  0  0  0  0
  149.1324  139.7136  154.4513 C   0  0  0  0  0  0  0  0  0  0  0  0
  149.0704  140.9651  155.3309 C   0  0  0  0  0  0  0  0  0  0  0  0
  147.7852  141.7071  154.9517 C   0  0  0  0  0  0  0  0  0  0  0  0
  147.4473  141.2468  153.5296 C   0  0  0  0  0  0  0  0  0  0  0  0
  148.5531  140.2605  153.1457 C   0  0  0  0  0  0  0  0  0  0  0  0
  153.8270  137.5938  156.0472 H   0  0  0  0  0  0  0  0  0  0  0  0
  152.0689  137.4903  156.1249 H   0  0  0  0  0  0  0  0  0  0  0  0
  152.9068  138.8469  156.8778 H   0  0  0  0  0  0  0  0  0  0  0  0
  153.6604  139.6368  154.6114 H   0  0  0  0  0  0  0  0  0  0  0  0
  152.8211  138.2832  153.8602 H   0  0  0  0  0  0  0  0  0  0  0  0
  150.5727  138.3894  153.4467 H   0  0  0  0  0  0  0  0  0  0  0  0
  150.1933  136.9837  155.4269 H   0  0  0  0  0  0  0  0  0  0  0  0
  150.2088  138.4220  156.5151 H   0  0  0  0  0  0  0  0  0  0  0  0
  147.8709  138.6318  155.9456 H   0  0  0  0  0  0  0  0  0  0  0  0
  148.6240  137.1180  153.4352 H   0  0  0  0  0  0  0  0  0  0  0  0
  147.3311  135.9819  152.5309 H   0  0  0  0  0  0  0  0  0  0  0  0
  143.8944  136.6030  153.7744 H   0  0  0  0  0  0  0  0  0  0  0  0
  141.9773  135.2393  152.9869 H   0  0  0  0  0  0  0  0  0  0  0  0
  142.4222  133.2968  151.5123 H   0  0  0  0  0  0  0  0  0  0  0  0
  145.1060  132.7061  149.6530 H   0  0  0  0  0  0  0  0  0  0  0  0
  143.7099  131.9317  150.3873 H   0  0  0  0  0  0  0  0  0  0  0  0
  145.3062  131.6732  151.0729 H   0  0  0  0  0  0  0  0  0  0  0  0
  149.0964  140.7348  156.3964 H   0  0  0  0  0  0  0  0  0  0  0  0
  149.9249  141.6124  155.1294 H   0  0  0  0  0  0  0  0  0  0  0  0
  146.9767  141.4318  155.6302 H   0  0  0  0  0  0  0  0  0  0  0  0
  147.9144  142.7879  155.0145 H   0  0  0  0  0  0  0  0  0  0  0  0
  146.4779  140.7475  153.5231 H   0  0  0  0  0  0  0  0  0  0  0  0
  147.3934  142.0804  152.8288 H   0  0  0  0  0  0  0  0  0  0  0  0
  149.3319  140.7945  152.5994 H   0  0  0  0  0  0  0  0  0  0  0  0
  148.1857  139.4893  152.4700 H   0  0  0  0  0  0  0  0  0  0  0  0
  1  2  1  0  0  0  0
  1 24  1  0  0  0  0
  1 25  1  0  0  0  0
  1 26  1  0  0  0  0
  2  3  1  0  0  0  0
  2 27  1  0  0  0  0
  2 28  1  0  0  0  0
  3  4  1  0  0  0  0
  4 19  1  0  0  0  0
  4  5  1  0  0  0  0
  4 29  1  0  0  0  0
  5  6  1  0  0  0  0
  5 30  1  0  0  0  0
  5 31  1  0  0  0  0
  6  7  1  0  0  0  0
  6 19  1  0  0  0  0
  6 32  1  0  0  0  0
  7  8  1  0  0  0  0
  7 33  1  0  0  0  0
  8  9  2  0  0  0  0
  8 10  1  0  0  0  0
 10 11  1  0  0  0  0
 10 34  1  0  0  0  0
 11 17  1  0  0  0  0
 11 12  2  0  0  0  0
 12 13  1  0  0  0  0
 12 35  1  0  0  0  0
 13 14  2  0  0  0  0
 13 36  1  0  0  0  0
 14 15  1  0  0  0  0
 14 37  1  0  0  0  0
 15 16  1  0  0  0  0
 15 17  1  0  0  0  0
 16 38  1  0  0  0  0
 16 39  1  0  0  0  0
 16 40  1  0  0  0  0
 17 18  2  0  0  0  0
 19 23  1  0  0  0  0
 19 20  1  0  0  0  0
 20 21  1  0  0  0  0
 20 41  1  0  0  0  0
 20 42  1  0  0  0  0
 21 22  1  0  0  0  0
 21 43  1  0  0  0  0
 21 44  1  0  0  0  0
 22 23  1  0  0  0  0
 22 45  1  0  0  0  0
 22 46  1  0  0  0  0
 23 47  1  0  0  0  0
 23 48  1  0  0  0  0
M  END
> <s_m_source_file>
AV-unprocessed.smi

> <i_m_source_file_index>
709

> <i_lp_mmshare_version>
43012

> <i_f3d_flags>
0

> <s_epik_input>
W0NIMl0xW0NIMl1bQ0gyXVtDSDJdQzEyW0NASF0oT1tDSDJdW0NIM10pW0NIMl1bQ0BIXTJbTkhdQyg9TylbTkhdYzNbY0hdW2NIXVtjSF1uKFtDSDNdKWMzPU8=

> <s_epik_cmdline>
J2VwaWtfcHl0aG9uJywgJy1waCcsICc3LjAnLCAnLXRuJywgJzgnLCAnLW1hJywgJzIwMCcsICctbWV0YWxfYmluZGluZycsICctaW1hZScsICc8aW5maWxlLm1hZT4nLCAnLW9tYWUnLCAnPG91dGZpbGUubWFlPic=

> <r_lp_tautomer_probability>
1

> <r_epik_Ionization_Penalty>
2.50859e-05

> <r_epik_Ionization_Penalty_Charging>
5.10493e-06

> <r_epik_Ionization_Penalty_Neutral>
1.9981e-05

> <r_epik_State_Penalty>
-0

> <r_epik_Charging_Adjusted_Penalty>
5.10493e-06

> <i_epik_Tot_Q>
0

> <i_epik_Tot_abs_Q>
0

> <r_epik_Metal_State_Penalty>
-0

> <b_epik_Metal_Only>
0

> <s_lp_Force_Field>
OPLS_2005

> <r_lp_Energy>
51.0091

> <b_lp_Chiralities_Consistent>
1

> <s_lp_Variant>
AV-unprocessed.smi:709-4

> <Gold.Version>
5.8.1

> <Gold.Id.Protein>
6NUR|6NUR_protein|mol2

> <Gold.PLP.Fitness>
45.0252

> <Gold.PLP.PLP>
-34.3144

> <Gold.PLP.part.hbond>
-3.0000

> <Gold.PLP.part.metal>
0.0000

> <Gold.PLP.part.buried>
0.0664

> <Gold.PLP.part.nonpolar>
-31.4996

> <Gold.PLP.part.repulsive>
0.4258

> <Gold.PLP.ligand.clash>
0.0000

> <Gold.PLP.ligand.torsion>
0.3777

> <Gold.PLP.Chemscore.Hbond>
3.0000

> <Gold.PLP.Chemscore.CHOScore>
0.7031

> <Gold.PLP.Chemscore.Metal>
0.0000

> <Gold.Chemscore.Hbonds>
donor molecule, donor type, donor heavy atom, donor atom, acceptor molecule, acceptor atom, score
      L1  H     7    33       P1  7948  1.00
      L1  H    10    34       P1  7948  1.00
      P1  H  7989  7998       L1     3  1.00
      L1  C    14    37       P1 10186  0.46

> <Gold.PLP.Chemscore.Internal.Correction>
0.3569

> <Gold.Rescore>
     Score         DG    S(hbond)    S(metal)    S(lipo)     H(rot)  DE(clash)    DE(int)     intcor
     18.14     -20.94       2.47        0.00      91.44       1.36       2.13       0.66       ----

> <Gold.Chemscore.Fitness>
18.1440

> <Gold.Chemscore.DG>
-20.9373

> <Gold.Chemscore.ZeroCoef>
-5.4800

> <Gold.Chemscore.Hbond>
2.4670

> <Gold.Chemscore.Metal>
0.0000

> <Gold.Chemscore.Lipo>
91.4435

> <Gold.Chemscore.Internal_Hbond>
0.0000

> <Gold.Chemscore.DEClash>
2.1325

> <Gold.Chemscore.DEInternal>
0.6608

> <Gold.Chemscore.Rot>
1.3599

> <Gold.Chemscore.Internal.Correction>
   9.000000E+99

> <Gold.Chemscore.Hbonds>
donor molecule, donor type, donor heavy atom, donor atom, acceptor molecule, acceptor atom, score
      L1  H     7    33       P1  7948  0.96
      L1  H    10    34       P1  7948  0.99
      P1  H  7989  7998       L1     3  0.31

> <Gold.Chemscore.Hbond.Weighted>
-8.2396

> <Gold.Chemscore.Metal.Weighted>
-0.0000

> <Gold.Chemscore.Lipo.Weighted>
-10.6989

> <Gold.Chemscore.Internal_Hbond.Weighted>
0.0000

> <Gold.Chemscore.DEClash.Weighted>
2.1325

> <Gold.Chemscore.DEInternal.Weighted>
0.6608

> <Gold.Chemscore.Rot.Weighted>
3.4813

> <Gold.Chemscore.Internal.Correction.Weighted>
   9.000000E+99

> <Gold.Protein.RotatedTorsions>
[ 6907 6896 6895 6894 ] final   65.77 input  -60.11 | X-H torsion
[ 7974 7965 7964 7962 ] final  -43.38 input  175.53 | X-H torsion
[ 8008 7997 7996 7995 ] final -103.76 input   59.86 | X-H torsion
[ 10167 10162 10161 10158 ] final  166.45 input  -65.29 | X-H torsion
[ 10718 10713 10712 10709 ] final  -25.62 input   66.30 | X-H torsion
[ 10763 10752 10751 10750 ] final   59.81 input  -60.55 | X-H torsion
[ 11005 11000 10999 10996 ] final  -83.66 input  -57.11 | X-H torsion

> <Gold.Protein.ActiveResidues>
 VAL166  LYS551  ARG553  GLY616  TRP617  ASP618  TYR619  PRO620  LYS621  CYS622 
 ASP623  PHE694  ASN695  SER759  ASP760  ASP761  ALA762  ILE779  LEU786  VAL792 
 PHE793  MET794  SER795  GLU796  ALA797  LYS798  CYS799  TRP800  GLU811  SER814 

> <Gold.Protein.RotatedAtoms>
  152.4432  134.5549  159.9877 H   0  0  0  0  0  0  0  0  0  0  0  0  # atno 6907 bound_to 6896
  151.5641  133.3393  159.2984 H   0  0  0  0  0  0  0  0  0  0  0  0  # atno 6908 bound_to 6896
  150.8342  134.7641  159.6943 H   0  0  0  0  0  0  0  0  0  0  0  0  # atno 6909 bound_to 6896
  146.0024  140.7058  142.9264 H   0  0  0  0  0  0  0  0  0  0  0  0  # atno 7974 bound_to 7965
  154.8755  140.0421  157.1750 H   0  0  0  0  0  0  0  0  0  0  0  0  # atno 8008 bound_to 7997
  154.8694  140.2956  155.5470 H   0  0  0  0  0  0  0  0  0  0  0  0  # atno 8009 bound_to 7997
  156.2999  140.2432  156.3680 H   0  0  0  0  0  0  0  0  0  0  0  0  # atno 8010 bound_to 7997
  139.4925  144.4026  151.9392 H   0  0  0  0  0  0  0  0  0  0  0  0  # atno 10167 bound_to 10162
  156.4619  130.4506  149.6923 H   0  0  0  0  0  0  0  0  0  0  0  0  # atno 10718 bound_to 10713
  152.9904  135.5558  154.5773 H   0  0  0  0  0  0  0  0  0  0  0  0  # atno 10763 bound_to 10752
  154.5161  135.2805  155.1304 H   0  0  0  0  0  0  0  0  0  0  0  0  # atno 10764 bound_to 10752
  154.2676  135.6369  153.5350 H   0  0  0  0  0  0  0  0  0  0  0  0  # atno 10765 bound_to 10752
  141.1656  133.7306  156.8753 H   0  0  0  0  0  0  0  0  0  0  0  0  # atno 11005 bound_to 11000
  144.6924  140.3257  143.7225 LP  0  0  0  0  0  0  0  0  0  0  0  0  # atno 17320 bound_to 7965
  145.7467  139.1781  143.2345 LP  0  0  0  0  0  0  0  0  0  0  0  0  # atno 17321 bound_to 7965
  140.3465  144.3140  150.5957 LP  0  0  0  0  0  0  0  0  0  0  0  0  # atno 17342 bound_to 10162
  140.5521  143.2205  151.7909 LP  0  0  0  0  0  0  0  0  0  0  0  0  # atno 17343 bound_to 10162
  156.3707  130.7529  151.2512 LP  0  0  0  0  0  0  0  0  0  0  0  0  # atno 17370 bound_to 10713
  157.7497  131.0324  150.4224 LP  0  0  0  0  0  0  0  0  0  0  0  0  # atno 17371 bound_to 10713
  140.1753  134.9071  157.2883 LP  0  0  0  0  0  0  0  0  0  0  0  0  # atno 17394 bound_to 11000
  140.2456  134.3743  155.7462 LP  0  0  0  0  0  0  0  0  0  0  0  0  # atno 17395 bound_to 11000

$$$$
