AV-unprocessed.smi:3257|AV-procd|sdf|12467|dock1
  -GOLD-   2272018363D 1   1.00000     0.00000
 Structure written by MMmdl.
 38 39  0  0  0  0  0  0  0  0  1 V2000
  153.4859  142.7005  163.2067 C   0  0  0  0  0  0  0  0  0  0  0  0
  153.0858  142.9253  161.8341 N   0  0  0  0  0  0  0  0  0  0  0  0
  152.2144  143.8697  161.3364 C   0  0  0  0  0  0  0  0  0  0  0  0
  152.1516  143.6970  159.9822 C   0  0  0  0  0  0  0  0  0  0  0  0
  151.3511  144.4695  158.9718 C   0  0  0  0  0  0  0  0  0  0  0  0
  151.6004  143.9578  157.5439 C   0  0  0  0  0  0  0  0  0  0  0  0
  150.5526  143.0402  157.1130 N   0  0  0  0  0  0  0  0  0  0  0  0
  150.7112  141.7231  156.8977 C   0  0  0  0  0  0  0  0  0  0  0  0
  151.7961  141.1617  157.0574 O   0  0  0  0  0  0  0  0  0  0  0  0
  149.5858  141.0704  156.5094 N   0  0  0  0  0  0  0  0  0  0  0  0
  148.2368  141.6523  156.3853 C   0  0  0  0  0  0  0  0  0  0  0  0
  147.8924  141.7957  154.8914 C   0  0  0  0  0  0  0  0  0  0  0  0
  147.9969  140.4341  154.1759 C   0  0  0  0  0  0  0  0  0  0  0  0
  147.8338  140.6095  152.7845 O   0  0  0  0  0  0  0  0  0  0  0  0
  149.3468  139.7468  154.4624 C   0  0  0  0  0  0  0  0  0  0  0  0
  149.6260  139.7016  155.9763 C   0  0  0  0  0  0  0  0  0  0  0  0
  153.0311  142.6016  159.7480 C   0  0  0  0  0  0  0  0  0  0  0  0
  153.5878  142.1422  160.8571 N   0  0  0  0  0  0  0  0  0  0  0  0
  153.1642  143.5351  163.8304 H   0  0  0  0  0  0  0  0  0  0  0  0
  154.5712  142.6111  163.2689 H   0  0  0  0  0  0  0  0  0  0  0  0
  153.0280  141.7831  163.5768 H   0  0  0  0  0  0  0  0  0  0  0  0
  151.7172  144.5813  161.9793 H   0  0  0  0  0  0  0  0  0  0  0  0
  150.2868  144.4041  159.2010 H   0  0  0  0  0  0  0  0  0  0  0  0
  151.5994  145.5304  159.0225 H   0  0  0  0  0  0  0  0  0  0  0  0
  151.6170  144.7954  156.8458 H   0  0  0  0  0  0  0  0  0  0  0  0
  152.5771  143.4753  157.4734 H   0  0  0  0  0  0  0  0  0  0  0  0
  149.6348  143.4342  156.9664 H   0  0  0  0  0  0  0  0  0  0  0  0
  147.5178  140.9897  156.8691 H   0  0  0  0  0  0  0  0  0  0  0  0
  148.1197  142.6139  156.8845 H   0  0  0  0  0  0  0  0  0  0  0  0
  146.8881  142.2048  154.7764 H   0  0  0  0  0  0  0  0  0  0  0  0
  148.5752  142.5122  154.4319 H   0  0  0  0  0  0  0  0  0  0  0  0
  147.1918  139.7880  154.5278 H   0  0  0  0  0  0  0  0  0  0  0  0
  148.6727  140.4907  152.3656 H   0  0  0  0  0  0  0  0  0  0  0  0
  149.3495  138.7371  154.0508 H   0  0  0  0  0  0  0  0  0  0  0  0
  150.1533  140.2875  153.9642 H   0  0  0  0  0  0  0  0  0  0  0  0
  150.5777  139.2025  156.1631 H   0  0  0  0  0  0  0  0  0  0  0  0
  148.8720  139.0946  156.4792 H   0  0  0  0  0  0  0  0  0  0  0  0
  153.2797  142.1296  158.8090 H   0  0  0  0  0  0  0  0  0  0  0  0
  1  2  1  0  0  0  0
  1 19  1  0  0  0  0
  1 20  1  0  0  0  0
  1 21  1  0  0  0  0
  2 18  1  0  0  0  0
  2  3  1  0  0  0  0
  3  4  2  0  0  0  0
  3 22  1  0  0  0  0
  4  5  1  0  0  0  0
  4 17  1  0  0  0  0
  5  6  1  0  0  0  0
  5 23  1  0  0  0  0
  5 24  1  0  0  0  0
  6  7  1  0  0  0  0
  6 25  1  0  0  0  0
  6 26  1  0  0  0  0
  7  8  1  0  0  0  0
  7 27  1  0  0  0  0
  8  9  2  0  0  0  0
  8 10  1  0  0  0  0
 10 16  1  0  0  0  0
 10 11  1  0  0  0  0
 11 12  1  0  0  0  0
 11 28  1  0  0  0  0
 11 29  1  0  0  0  0
 12 13  1  0  0  0  0
 12 30  1  0  0  0  0
 12 31  1  0  0  0  0
 13 14  1  0  0  0  0
 13 15  1  0  0  0  0
 13 32  1  0  0  0  0
 14 33  1  0  0  0  0
 15 16  1  0  0  0  0
 15 34  1  0  0  0  0
 15 35  1  0  0  0  0
 16 36  1  0  0  0  0
 16 37  1  0  0  0  0
 17 18  2  0  0  0  0
 17 38  1  0  0  0  0
M  END
> <s_m_source_file>
AV-unprocessed.smi

> <i_m_source_file_index>
3257

> <i_lp_mmshare_version>
43012

> <i_f3d_flags>
0

> <s_epik_input>
W0NIM11uMVtjSF1jKFtjSF1uMSlbQ0gyXVtDSDJdW05IXUMoPU8pTjJbQ0gyXVtDSDJdW0NIXShbT0hdKVtDSDJdW0NIMl0y

> <s_epik_cmdline>
J2VwaWtfcHl0aG9uJywgJy1waCcsICc3LjAnLCAnLXRuJywgJzgnLCAnLW1hJywgJzIwMCcsICctbWV0YWxfYmluZGluZycsICctaW1hZScsICc8aW5maWxlLm1hZT4nLCAnLW9tYWUnLCAnPG91dGZpbGUubWFlPic=

> <r_lp_tautomer_probability>
1

> <r_epik_Ionization_Penalty>
0.000563034

> <r_epik_Ionization_Penalty_Charging>
0

> <r_epik_Ionization_Penalty_Neutral>
0.000563034

> <r_epik_State_Penalty>
-0

> <r_epik_Charging_Adjusted_Penalty>
0

> <i_epik_Tot_Q>
0

> <i_epik_Tot_abs_Q>
0

> <r_epik_Metal_State_Penalty>
-0

> <b_epik_Metal_Only>
0

> <s_lp_Force_Field>
OPLS_2005

> <r_lp_Energy>
25.1646

> <b_lp_Chiralities_Consistent>
1

> <s_lp_Variant>
AV-unprocessed.smi:3257-1

> <Gold.Version>
5.8.1

> <Gold.Id.Protein>
6NUR|6NUR_protein|mol2

> <Gold.PLP.Fitness>
47.1042

> <Gold.PLP.PLP>
-42.2939

> <Gold.PLP.part.hbond>
-1.5960

> <Gold.PLP.part.metal>
0.0000

> <Gold.PLP.part.buried>
-5.2274

> <Gold.PLP.part.nonpolar>
-34.5351

> <Gold.PLP.part.repulsive>
0.0184

> <Gold.PLP.ligand.clash>
0.0000

> <Gold.PLP.ligand.torsion>
0.3410

> <Gold.PLP.Chemscore.Hbond>
1.8160

> <Gold.PLP.Chemscore.CHOScore>
0.0000

> <Gold.PLP.Chemscore.Metal>
0.0000

> <Gold.Chemscore.Hbonds>
donor molecule, donor type, donor heavy atom, donor atom, acceptor molecule, acceptor atom, score
      L1  H     7    27       P1  8028  0.69
      L1  H    14    33       P1  7957  1.00

> <Gold.PLP.Chemscore.Internal.Correction>
0.0444

> <Gold.Rescore>
     Score         DG    S(hbond)    S(metal)    S(lipo)     H(rot)  DE(clash)    DE(int)     intcor
     17.50     -17.85       1.80        0.00      96.81       1.95       0.03       0.32       ----

> <Gold.Chemscore.Fitness>
17.5009

> <Gold.Chemscore.DG>
-17.8508

> <Gold.Chemscore.ZeroCoef>
-5.4800

> <Gold.Chemscore.Hbond>
1.8036

> <Gold.Chemscore.Metal>
0.0000

> <Gold.Chemscore.Lipo>
96.8127

> <Gold.Chemscore.Internal_Hbond>
0.0000

> <Gold.Chemscore.DEClash>
0.0294

> <Gold.Chemscore.DEInternal>
0.3205

> <Gold.Chemscore.Rot>
1.9454

> <Gold.Chemscore.Internal.Correction>
   9.000000E+99

> <Gold.Chemscore.Hbonds>
donor molecule, donor type, donor heavy atom, donor atom, acceptor molecule, acceptor atom, score
      L1  H     7    27       P1  8028  0.65
      L1  H    14    33       P1  7957  0.94

> <Gold.Chemscore.Hbond.Weighted>
-6.0239

> <Gold.Chemscore.Metal.Weighted>
-0.0000

> <Gold.Chemscore.Lipo.Weighted>
-11.3271

> <Gold.Chemscore.Internal_Hbond.Weighted>
0.0000

> <Gold.Chemscore.DEClash.Weighted>
0.0294

> <Gold.Chemscore.DEInternal.Weighted>
0.3205

> <Gold.Chemscore.Rot.Weighted>
4.9802

> <Gold.Chemscore.Internal.Correction.Weighted>
   9.000000E+99

> <Gold.Protein.RotatedTorsions>
[ 6907 6896 6895 6894 ] final   61.29 input  -60.11 | X-H torsion
[ 7974 7965 7964 7962 ] final  -71.52 input  175.53 | X-H torsion
[ 8008 7997 7996 7995 ] final   90.08 input   59.86 | X-H torsion
[ 10167 10162 10161 10158 ] final   70.69 input  -65.29 | X-H torsion
[ 10718 10713 10712 10709 ] final   44.70 input   66.30 | X-H torsion
[ 10763 10752 10751 10750 ] final   67.35 input  -60.55 | X-H torsion
[ 11005 11000 10999 10996 ] final  169.68 input  -57.11 | X-H torsion

> <Gold.Protein.ActiveResidues>
 VAL166  LYS551  ARG553  GLY616  TRP617  ASP618  TYR619  PRO620  LYS621  CYS622 
 ASP623  PHE694  ASN695  SER759  ASP760  ASP761  ALA762  ILE779  LEU786  VAL792 
 PHE793  MET794  SER795  GLU796  ALA797  LYS798  CYS799  TRP800  GLU811  SER814 

> <Gold.Protein.RotatedAtoms>
  152.4076  134.6180  160.0043 H   0  0  0  0  0  0  0  0  0  0  0  0  # atno 6907 bound_to 6896
  151.6367  133.3323  159.3129 H   0  0  0  0  0  0  0  0  0  0  0  0  # atno 6908 bound_to 6896
  150.7970  134.7077  159.6631 H   0  0  0  0  0  0  0  0  0  0  0  0  # atno 6909 bound_to 6896
  145.6770  140.9201  143.0853 H   0  0  0  0  0  0  0  0  0  0  0  0  # atno 7974 bound_to 7965
  156.0077  140.3353  155.6909 H   0  0  0  0  0  0  0  0  0  0  0  0  # atno 8008 bound_to 7997
  155.6202  140.0674  157.2698 H   0  0  0  0  0  0  0  0  0  0  0  0  # atno 8009 bound_to 7997
  154.4270  140.1778  156.1351 H   0  0  0  0  0  0  0  0  0  0  0  0  # atno 8010 bound_to 7997
  140.0542  144.5287  150.7341 H   0  0  0  0  0  0  0  0  0  0  0  0  # atno 10167 bound_to 10162
  157.4296  130.8017  149.7591 H   0  0  0  0  0  0  0  0  0  0  0  0  # atno 10718 bound_to 10713
  153.0182  135.5287  154.6965 H   0  0  0  0  0  0  0  0  0  0  0  0  # atno 10763 bound_to 10752
  154.6085  135.2876  155.0460 H   0  0  0  0  0  0  0  0  0  0  0  0  # atno 10764 bound_to 10752
  154.1490  135.6566  153.5011 H   0  0  0  0  0  0  0  0  0  0  0  0  # atno 10765 bound_to 10752
  140.3004  134.7600  157.3911 H   0  0  0  0  0  0  0  0  0  0  0  0  # atno 11005 bound_to 11000
  144.7038  139.8646  143.7436 LP  0  0  0  0  0  0  0  0  0  0  0  0  # atno 17320 bound_to 7965
  146.0997  139.3992  143.0354 LP  0  0  0  0  0  0  0  0  0  0  0  0  # atno 17321 bound_to 7965
  140.7202  143.2582  151.4302 LP  0  0  0  0  0  0  0  0  0  0  0  0  # atno 17342 bound_to 10162
  139.5934  144.1450  152.2115 LP  0  0  0  0  0  0  0  0  0  0  0  0  # atno 17343 bound_to 10162
  155.9908  130.3942  150.3010 LP  0  0  0  0  0  0  0  0  0  0  0  0  # atno 17370 bound_to 10713
  157.1166  131.0235  151.3026 LP  0  0  0  0  0  0  0  0  0  0  0  0  # atno 17371 bound_to 10713
  140.1115  134.5340  155.8262 LP  0  0  0  0  0  0  0  0  0  0  0  0  # atno 17394 bound_to 11000
  141.2129  133.6726  156.6697 LP  0  0  0  0  0  0  0  0  0  0  0  0  # atno 17395 bound_to 11000

$$$$
