AV-unprocessed.smi:2672|AV-procd|sdf|10354|dock4
  -GOLD-   2272014383D 1   1.00000     0.00000
 Structure written by MMmdl.
 36 36  0  0  0  0  0  0  0  0  2 V2000
  154.3151  140.9178  160.8644 C   0  0  0  0  0  0  0  0  0  0  0  0
  153.1976  141.7715  160.2838 C   0  0  0  0  0  0  0  0  0  0  0  0
  153.0394  143.0357  160.7205 C   0  0  0  0  0  0  0  0  0  0  0  0
  151.9842  143.9143  160.2303 C   0  0  0  0  0  0  0  0  0  0  0  0
  151.8705  145.0697  160.6439 O   0  0  0  0  0  0  0  0  0  0  0  0
  151.1282  143.3714  159.3117 N   0  0  0  0  0  0  0  0  0  0  0  0
  149.9540  144.1821  158.9050 C   0  0  0  0  0  0  0  0  0  0  0  0
  149.0000  144.5286  160.0593 C   0  0  0  0  0  0  0  0  0  0  0  0
  149.2173  144.1348  161.2059 O   0  0  0  0  0  0  0  0  0  0  0  0
  147.9403  145.2833  159.7307 N   0  0  0  0  0  0  0  0  0  0  0  0
  146.9069  145.7418  160.6546 C   0  0  0  0  0  0  0  0  0  0  0  0
  146.2104  144.5282  161.2839 C   0  0  0  0  0  0  0  0  0  0  0  0
  145.9055  146.6574  159.9323 C   0  0  0  0  0  0  0  0  0  0  0  0
  151.3130  142.0555  158.7881 C   0  0  0  0  0  0  0  0  0  0  0  0
  150.3621  141.6175  157.6661 C   0  0  0  0  0  0  0  0  0  0  0  0
  152.3047  141.2532  159.2544 C   0  0  0  0  0  0  0  0  0  0  0  0
  152.5170  139.8008  158.7163 C   0  0  0  0  0  0  0  0  0  0  0  0
  151.4777  139.1645  158.4367 O   0  0  0  0  0  0  0  0  0  0  0  0
  153.7040  139.4188  158.6228 O   0  5  0  0  0  0  0  0  0  0  0  0
  154.8618  141.4432  161.6479 H   0  0  0  0  0  0  0  0  0  0  0  0
  155.0270  140.6437  160.0854 H   0  0  0  0  0  0  0  0  0  0  0  0
  153.9096  140.0031  161.2980 H   0  0  0  0  0  0  0  0  0  0  0  0
  153.7081  143.4222  161.4757 H   0  0  0  0  0  0  0  0  0  0  0  0
  150.2537  145.0960  158.3933 H   0  0  0  0  0  0  0  0  0  0  0  0
  149.3740  143.6608  158.1412 H   0  0  0  0  0  0  0  0  0  0  0  0
  147.8433  145.5628  158.7655 H   0  0  0  0  0  0  0  0  0  0  0  0
  147.3784  146.3083  161.4597 H   0  0  0  0  0  0  0  0  0  0  0  0
  145.4544  144.8407  162.0049 H   0  0  0  0  0  0  0  0  0  0  0  0
  146.9245  143.8949  161.8113 H   0  0  0  0  0  0  0  0  0  0  0  0
  145.7163  143.9169  160.5280 H   0  0  0  0  0  0  0  0  0  0  0  0
  145.1337  147.0094  160.6172 H   0  0  0  0  0  0  0  0  0  0  0  0
  145.4104  146.1358  159.1125 H   0  0  0  0  0  0  0  0  0  0  0  0
  146.3992  147.5369  159.5172 H   0  0  0  0  0  0  0  0  0  0  0  0
  150.8215  140.8865  157.0024 H   0  0  0  0  0  0  0  0  0  0  0  0
  150.0674  142.4334  157.0090 H   0  0  0  0  0  0  0  0  0  0  0  0
  149.4652  141.1645  158.0886 H   0  0  0  0  0  0  0  0  0  0  0  0
  1  2  1  0  0  0  0
  1 20  1  0  0  0  0
  1 21  1  0  0  0  0
  1 22  1  0  0  0  0
  2 16  1  0  0  0  0
  2  3  2  0  0  0  0
  3  4  1  0  0  0  0
  3 23  1  0  0  0  0
  4  5  2  0  0  0  0
  4  6  1  0  0  0  0
  6  7  1  0  0  0  0
  6 14  1  0  0  0  0
  7  8  1  0  0  0  0
  7 24  1  0  0  0  0
  7 25  1  0  0  0  0
  8  9  2  0  0  0  0
  8 10  1  0  0  0  0
 10 11  1  0  0  0  0
 10 26  1  0  0  0  0
 11 12  1  0  0  0  0
 11 13  1  0  0  0  0
 11 27  1  0  0  0  0
 12 28  1  0  0  0  0
 12 29  1  0  0  0  0
 12 30  1  0  0  0  0
 13 31  1  0  0  0  0
 13 32  1  0  0  0  0
 13 33  1  0  0  0  0
 14 15  1  0  0  0  0
 14 16  2  0  0  0  0
 15 34  1  0  0  0  0
 15 35  1  0  0  0  0
 15 36  1  0  0  0  0
 16 17  1  0  0  0  0
 17 18  2  0  0  0  0
 17 19  1  0  0  0  0
M  CHG  1  19  -1
M  END
> <s_m_source_file>
AV-unprocessed.smi

> <i_m_source_file_index>
2672

> <i_lp_mmshare_version>
43012

> <i_f3d_flags>
0

> <s_epik_input>
W0NIM11jMVtjSF1jKD1PKW4oYyhbQ0gzXSljMUMoPU8pW09IXSlbQ0gyXUMoPU8pW05IXVtDSF0oW0NIM10pW0NIM10=

> <s_epik_cmdline>
J2VwaWtfcHl0aG9uJywgJy1waCcsICc3LjAnLCAnLXRuJywgJzgnLCAnLW1hJywgJzIwMCcsICctbWV0YWxfYmluZGluZycsICctaW1hZScsICc8aW5maWxlLm1hZT4nLCAnLW9tYWUnLCAnPG91dGZpbGUubWFlPic=

> <r_lp_tautomer_probability>
1

> <r_epik_Ionization_Penalty>
0.000277152

> <r_epik_Ionization_Penalty_Charging>
0.000277132

> <r_epik_Ionization_Penalty_Neutral>
2.06705e-08

> <r_epik_State_Penalty>
-0

> <r_epik_Charging_Adjusted_Penalty>
0.000277132

> <i_epik_Tot_Q>
-1

> <i_epik_Tot_abs_Q>
1

> <r_epik_Metal_State_Penalty>
-0

> <b_epik_Metal_Only>
0

> <s_lp_Force_Field>
OPLS_2005

> <r_lp_Energy>
18.8997

> <b_lp_Chiralities_Consistent>
1

> <s_lp_Variant>
AV-unprocessed.smi:2672-1

> <Gold.Version>
5.8.1

> <Gold.Id.Protein>
6NUR|6NUR_protein|mol2

> <Gold.PLP.Fitness>
49.6289

> <Gold.PLP.PLP>
-39.3429

> <Gold.PLP.part.hbond>
-3.0000

> <Gold.PLP.part.metal>
0.0000

> <Gold.PLP.part.buried>
-6.7301

> <Gold.PLP.part.nonpolar>
-30.9436

> <Gold.PLP.part.repulsive>
0.6023

> <Gold.PLP.ligand.clash>
0.0000

> <Gold.PLP.ligand.torsion>
0.5361

> <Gold.PLP.Chemscore.Hbond>
3.4480

> <Gold.PLP.Chemscore.CHOScore>
0.0000

> <Gold.PLP.Chemscore.Metal>
0.0000

> <Gold.Chemscore.Hbonds>
donor molecule, donor type, donor heavy atom, donor atom, acceptor molecule, acceptor atom, score
      L1  H    10    26       P1  8029  1.00
      P1  H  6933  6944       L1     9  0.48
      P1  H  7997  8010       L1    19  2.00

> <Gold.PLP.Chemscore.Internal.Correction>
1.0143

> <Gold.Rescore>
     Score         DG    S(hbond)    S(metal)    S(lipo)     H(rot)  DE(clash)    DE(int)     intcor
     15.31     -18.97       2.52        0.00      76.24       1.50       0.13       3.52       ----

> <Gold.Chemscore.Fitness>
15.3139

> <Gold.Chemscore.DG>
-18.9668

> <Gold.Chemscore.ZeroCoef>
-5.4800

> <Gold.Chemscore.Hbond>
2.5154

> <Gold.Chemscore.Metal>
0.0000

> <Gold.Chemscore.Lipo>
76.2433

> <Gold.Chemscore.Internal_Hbond>
0.0000

> <Gold.Chemscore.DEClash>
0.1317

> <Gold.Chemscore.DEInternal>
3.5212

> <Gold.Chemscore.Rot>
1.4980

> <Gold.Chemscore.Internal.Correction>
   9.000000E+99

> <Gold.Chemscore.Hbonds>
donor molecule, donor type, donor heavy atom, donor atom, acceptor molecule, acceptor atom, score
      L1  H    10    26       P1  8029  0.93
      P1  H  6933  6944       L1     9  0.38
      P1  H  7997  8010       L1    19  0.97

> <Gold.Chemscore.Hbond.Weighted>
-8.4013

> <Gold.Chemscore.Metal.Weighted>
-0.0000

> <Gold.Chemscore.Lipo.Weighted>
-8.9205

> <Gold.Chemscore.Internal_Hbond.Weighted>
0.0000

> <Gold.Chemscore.DEClash.Weighted>
0.1317

> <Gold.Chemscore.DEInternal.Weighted>
3.5212

> <Gold.Chemscore.Rot.Weighted>
3.8350

> <Gold.Chemscore.Internal.Correction.Weighted>
   9.000000E+99

> <Gold.Protein.RotatedTorsions>
[ 6907 6896 6895 6894 ] final  119.28 input  -60.11 | X-H torsion
[ 7974 7965 7964 7962 ] final  156.74 input  175.53 | X-H torsion
[ 8008 7997 7996 7995 ] final   22.01 input   59.86 | X-H torsion
[ 10167 10162 10161 10158 ] final  148.46 input  -65.29 | X-H torsion
[ 10718 10713 10712 10709 ] final -105.90 input   66.30 | X-H torsion
[ 10763 10752 10751 10750 ] final   -5.23 input  -60.55 | X-H torsion
[ 11005 11000 10999 10996 ] final  -52.33 input  -57.11 | X-H torsion

> <Gold.Protein.ActiveResidues>
 VAL166  LYS551  ARG553  GLY616  TRP617  ASP618  TYR619  PRO620  LYS621  CYS622 
 ASP623  PHE694  ASN695  SER759  ASP760  ASP761  ALA762  ILE779  LEU786  VAL792 
 PHE793  MET794  SER795  GLU796  ALA797  LYS798  CYS799  TRP800  GLU811  SER814 

> <Gold.Protein.RotatedAtoms>
  152.4483  133.7579  159.6729 H   0  0  0  0  0  0  0  0  0  0  0  0  # atno 6907 bound_to 6896
  150.8388  133.7959  159.3075 H   0  0  0  0  0  0  0  0  0  0  0  0  # atno 6908 bound_to 6896
  151.5591  135.1068  160.0020 H   0  0  0  0  0  0  0  0  0  0  0  0  # atno 6909 bound_to 6896
  144.7945  139.7245  143.6207 H   0  0  0  0  0  0  0  0  0  0  0  0  # atno 7974 bound_to 7965
  154.9592  140.3076  155.5039 H   0  0  0  0  0  0  0  0  0  0  0  0  # atno 8008 bound_to 7997
  156.2979  140.2304  156.4614 H   0  0  0  0  0  0  0  0  0  0  0  0  # atno 8009 bound_to 7997
  154.7981  140.0435  157.1241 H   0  0  0  0  0  0  0  0  0  0  0  0  # atno 8010 bound_to 7997
  139.4874  144.5678  151.7113 H   0  0  0  0  0  0  0  0  0  0  0  0  # atno 10167 bound_to 10162
  156.0366  130.5586  150.7605 H   0  0  0  0  0  0  0  0  0  0  0  0  # atno 10718 bound_to 10713
  153.3956  135.7003  153.6463 H   0  0  0  0  0  0  0  0  0  0  0  0  # atno 10763 bound_to 10752
  153.5017  135.3651  155.2543 H   0  0  0  0  0  0  0  0  0  0  0  0  # atno 10764 bound_to 10752
  154.8706  135.4113  154.3282 H   0  0  0  0  0  0  0  0  0  0  0  0  # atno 10765 bound_to 10752
  141.0918  133.6631  156.4008 H   0  0  0  0  0  0  0  0  0  0  0  0  # atno 11005 bound_to 11000
  146.2208  139.5633  142.9619 LP  0  0  0  0  0  0  0  0  0  0  0  0  # atno 17320 bound_to 7965
  145.5709  141.0394  143.2175 LP  0  0  0  0  0  0  0  0  0  0  0  0  # atno 17321 bound_to 7965
  140.5259  144.0806  150.6037 LP  0  0  0  0  0  0  0  0  0  0  0  0  # atno 17342 bound_to 10162
  140.3780  143.2818  152.0203 LP  0  0  0  0  0  0  0  0  0  0  0  0  # atno 17343 bound_to 10162
  157.5126  131.0926  151.0179 LP  0  0  0  0  0  0  0  0  0  0  0  0  # atno 17370 bound_to 10713
  157.0531  130.5795  149.5373 LP  0  0  0  0  0  0  0  0  0  0  0  0  # atno 17371 bound_to 10713
  140.5233  134.6283  157.5325 LP  0  0  0  0  0  0  0  0  0  0  0  0  # atno 17394 bound_to 11000
  139.9746  134.7237  155.9975 LP  0  0  0  0  0  0  0  0  0  0  0  0  # atno 17395 bound_to 11000

$$$$
