AV-unprocessed.smi:1393|AV-procd|sdf|5663|dock4
  -GOLD-   22720 5283D 1   1.00000     0.00000
 Structure written by MMmdl.
 39 40  0  0  0  0  0  0  0  0  1 V2000
  149.9034  140.0314  157.7568 O   0  0  0  0  0  0  0  0  0  0  0  0
  150.9689  140.1742  157.1548 C   0  0  0  0  0  0  0  0  0  0  0  0
  151.7755  141.4761  157.2671 C   0  0  0  0  0  0  0  0  0  0  0  0
  152.3977  141.6739  158.5876 N   0  0  0  0  0  0  0  0  0  0  0  0
  152.1631  142.9070  159.2216 C   0  0  0  0  0  0  0  0  0  0  0  0
  152.6771  143.1903  160.4259 C   0  0  0  0  0  0  0  0  0  0  0  0
  153.4861  142.1877  161.0751 C   0  0  0  0  0  0  0  0  0  0  0  0
  153.7293  140.9917  160.4904 C   0  0  0  0  0  0  0  0  0  0  0  0
  154.5711  139.9144  161.1705 C   0  0  0  0  0  0  0  0  0  0  0  0
  155.7096  139.7234  160.5030 F   0  0  0  0  0  0  0  0  0  0  0  0
  154.8835  140.2479  162.4236 F   0  0  0  0  0  0  0  0  0  0  0  0
  153.9124  138.7553  161.2113 F   0  0  0  0  0  0  0  0  0  0  0  0
  153.1617  140.6920  159.1597 C   0  0  0  0  0  0  0  0  0  0  0  0
  153.3582  139.6199  158.5848 O   0  0  0  0  0  0  0  0  0  0  0  0
  151.4976  139.2300  156.3617 N   0  0  0  0  0  0  0  0  0  0  0  0
  150.9153  137.9163  156.0870 C   0  0  2  0  0  0  0  0  0  0  0  0
  149.6398  138.0565  155.2140 C   0  0  0  0  0  0  0  0  0  0  0  0
  148.5827  136.9425  155.3664 C   0  0  0  0  0  0  0  0  0  0  0  0
  149.0925  135.5055  155.1349 C   0  0  0  0  0  0  0  0  0  0  0  0
  150.3261  135.0683  155.9591 C   0  0  0  0  0  0  0  0  0  0  0  0
  150.4719  135.7705  157.2332 N   0  0  0  0  0  0  0  0  0  0  0  0
  150.7580  137.0769  157.3705 C   0  0  0  0  0  0  0  0  0  0  0  0
  150.8743  137.5945  158.4807 O   0  0  0  0  0  0  0  0  0  0  0  0
  152.5379  141.4909  156.4859 H   0  0  0  0  0  0  0  0  0  0  0  0
  151.1115  142.3086  157.0299 H   0  0  0  0  0  0  0  0  0  0  0  0
  151.5403  143.5984  158.6728 H   0  0  0  0  0  0  0  0  0  0  0  0
  152.4864  144.1415  160.9007 H   0  0  0  0  0  0  0  0  0  0  0  0
  153.8950  142.4113  162.0490 H   0  0  0  0  0  0  0  0  0  0  0  0
  152.3711  139.4370  155.8988 H   0  0  0  0  0  0  0  0  0  0  0  0
  151.6560  137.3785  155.4937 H   0  0  0  0  0  0  0  0  0  0  0  0
  149.1480  139.0028  155.4440 H   0  0  0  0  0  0  0  0  0  0  0  0
  149.9359  138.1300  154.1667 H   0  0  0  0  0  0  0  0  0  0  0  0
  148.1289  137.0087  156.3563 H   0  0  0  0  0  0  0  0  0  0  0  0
  147.7667  137.1383  154.6703 H   0  0  0  0  0  0  0  0  0  0  0  0
  148.2700  134.8256  155.3600 H   0  0  0  0  0  0  0  0  0  0  0  0
  149.3078  135.3608  154.0759 H   0  0  0  0  0  0  0  0  0  0  0  0
  150.2696  133.9981  156.1594 H   0  0  0  0  0  0  0  0  0  0  0  0
  151.2345  135.2007  155.3705 H   0  0  0  0  0  0  0  0  0  0  0  0
  150.3567  135.2221  158.0732 H   0  0  0  0  0  0  0  0  0  0  0  0
  1  2  2  0  0  0  0
  2  3  1  0  0  0  0
  2 15  1  0  0  0  0
  3  4  1  0  0  0  0
  3 24  1  0  0  0  0
  3 25  1  0  0  0  0
  4 13  1  0  0  0  0
  4  5  1  0  0  0  0
  5  6  2  0  0  0  0
  5 26  1  0  0  0  0
  6  7  1  0  0  0  0
  6 27  1  0  0  0  0
  7  8  2  0  0  0  0
  7 28  1  0  0  0  0
  8  9  1  0  0  0  0
  8 13  1  0  0  0  0
  9 10  1  0  0  0  0
  9 11  1  0  0  0  0
  9 12  1  0  0  0  0
 13 14  2  0  0  0  0
 15 16  1  0  0  0  0
 15 29  1  0  0  0  0
 16 22  1  0  0  0  0
 16 17  1  0  0  0  0
 16 30  1  0  0  0  0
 17 18  1  0  0  0  0
 17 31  1  0  0  0  0
 17 32  1  0  0  0  0
 18 19  1  0  0  0  0
 18 33  1  0  0  0  0
 18 34  1  0  0  0  0
 19 20  1  0  0  0  0
 19 35  1  0  0  0  0
 19 36  1  0  0  0  0
 20 21  1  0  0  0  0
 20 37  1  0  0  0  0
 20 38  1  0  0  0  0
 21 22  1  0  0  0  0
 21 39  1  0  0  0  0
 22 23  2  0  0  0  0
M  END
> <s_m_source_file>
AV-unprocessed.smi

> <i_m_source_file_index>
1393

> <i_lp_mmshare_version>
43012

> <i_f3d_flags>
0

> <s_epik_input>
RkMoRikoRiljKGMxPU8pW2NIXVtjSF1bY0hdbjFbQ0gyXUMoPU8pW05IXVtDQEBIXTJbQ0gyXVtDSDJdW0NIMl1bQ0gyXVtOSF1DMj1P

> <s_epik_cmdline>
J2VwaWtfcHl0aG9uJywgJy1waCcsICc3LjAnLCAnLXRuJywgJzgnLCAnLW1hJywgJzIwMCcsICctbWV0YWxfYmluZGluZycsICctaW1hZScsICc8aW5maWxlLm1hZT4nLCAnLW9tYWUnLCAnPG91dGZpbGUubWFlPic=

> <r_lp_tautomer_probability>
1

> <r_epik_Ionization_Penalty>
5.5009e-08

> <r_epik_Ionization_Penalty_Charging>
1.68727e-09

> <r_epik_Ionization_Penalty_Neutral>
5.33217e-08

> <r_epik_State_Penalty>
-0

> <r_epik_Charging_Adjusted_Penalty>
1.68727e-09

> <i_epik_Tot_Q>
0

> <i_epik_Tot_abs_Q>
0

> <r_epik_Metal_State_Penalty>
-0

> <b_epik_Metal_Only>
0

> <s_lp_Force_Field>
OPLS_2005

> <r_lp_Energy>
24.6208

> <b_lp_Chiralities_Consistent>
1

> <s_lp_Variant>
AV-unprocessed.smi:1393-1

> <Gold.Version>
5.8.1

> <Gold.Id.Protein>
6NUR|6NUR_protein|mol2

> <Gold.PLP.Fitness>
38.3497

> <Gold.PLP.PLP>
-35.8722

> <Gold.PLP.part.hbond>
-1.0000

> <Gold.PLP.part.metal>
0.0000

> <Gold.PLP.part.buried>
-4.3270

> <Gold.PLP.part.nonpolar>
-29.9995

> <Gold.PLP.part.repulsive>
0.2453

> <Gold.PLP.ligand.clash>
0.1861

> <Gold.PLP.ligand.torsion>
0.3638

> <Gold.PLP.Chemscore.Hbond>
1.0000

> <Gold.PLP.Chemscore.CHOScore>
0.0000

> <Gold.PLP.Chemscore.Metal>
0.0000

> <Gold.Chemscore.Hbonds>
donor molecule, donor type, donor heavy atom, donor atom, acceptor molecule, acceptor atom, score
      P1  H  7997  8009       L1    14  1.00

> <Gold.PLP.Chemscore.Internal.Correction>
0.3912

> <Gold.Rescore>
     Score         DG    S(hbond)    S(metal)    S(lipo)     H(rot)  DE(clash)    DE(int)     intcor
      6.98     -13.18       0.98        0.00      75.60       1.72       0.02       6.18       ----

> <Gold.Chemscore.Fitness>
6.9770

> <Gold.Chemscore.DG>
-13.1773

> <Gold.Chemscore.ZeroCoef>
-5.4800

> <Gold.Chemscore.Hbond>
0.9757

> <Gold.Chemscore.Metal>
0.0000

> <Gold.Chemscore.Lipo>
75.5957

> <Gold.Chemscore.Internal_Hbond>
0.0000

> <Gold.Chemscore.DEClash>
0.0215

> <Gold.Chemscore.DEInternal>
6.1788

> <Gold.Chemscore.Rot>
1.7212

> <Gold.Chemscore.Internal.Correction>
   9.000000E+99

> <Gold.Chemscore.Hbonds>
donor molecule, donor type, donor heavy atom, donor atom, acceptor molecule, acceptor atom, score
      P1  H  7997  8009       L1    14  0.47

> <Gold.Chemscore.Hbond.Weighted>
-3.2588

> <Gold.Chemscore.Metal.Weighted>
-0.0000

> <Gold.Chemscore.Lipo.Weighted>
-8.8447

> <Gold.Chemscore.Internal_Hbond.Weighted>
0.0000

> <Gold.Chemscore.DEClash.Weighted>
0.0215

> <Gold.Chemscore.DEInternal.Weighted>
6.1788

> <Gold.Chemscore.Rot.Weighted>
4.4062

> <Gold.Chemscore.Internal.Correction.Weighted>
   9.000000E+99

> <Gold.Protein.RotatedTorsions>
[ 6907 6896 6895 6894 ] final  -24.31 input  -60.11 | X-H torsion
[ 7974 7965 7964 7962 ] final -176.98 input  175.53 | X-H torsion
[ 8008 7997 7996 7995 ] final  147.76 input   59.86 | X-H torsion
[ 10167 10162 10161 10158 ] final  -19.53 input  -65.29 | X-H torsion
[ 10718 10713 10712 10709 ] final  -44.55 input   66.30 | X-H torsion
[ 10763 10752 10751 10750 ] final   46.51 input  -60.55 | X-H torsion
[ 11005 11000 10999 10996 ] final   -3.55 input  -57.11 | X-H torsion

> <Gold.Protein.ActiveResidues>
 VAL166  LYS551  ARG553  GLY616  TRP617  ASP618  TYR619  PRO620  LYS621  CYS622 
 ASP623  PHE694  ASN695  SER759  ASP760  ASP761  ALA762  ILE779  LEU786  VAL792 
 PHE793  MET794  SER795  GLU796  ALA797  LYS798  CYS799  TRP800  GLU811  SER814 

> <Gold.Protein.RotatedAtoms>
  151.1914  135.0404  159.8833 H   0  0  0  0  0  0  0  0  0  0  0  0  # atno 6907 bound_to 6896
  152.5439  134.0951  159.8304 H   0  0  0  0  0  0  0  0  0  0  0  0  # atno 6908 bound_to 6896
  151.1080  133.5146  159.2639 H   0  0  0  0  0  0  0  0  0  0  0  0  # atno 6909 bound_to 6896
  144.7127  140.1089  143.6412 H   0  0  0  0  0  0  0  0  0  0  0  0  # atno 7974 bound_to 7965
  156.2814  140.2147  156.5590 H   0  0  0  0  0  0  0  0  0  0  0  0  # atno 8008 bound_to 7997
  154.7229  140.0502  157.0679 H   0  0  0  0  0  0  0  0  0  0  0  0  # atno 8009 bound_to 7997
  155.0455  140.3150  155.4713 H   0  0  0  0  0  0  0  0  0  0  0  0  # atno 8010 bound_to 7997
  140.7269  143.4810  151.0118 H   0  0  0  0  0  0  0  0  0  0  0  0  # atno 10167 bound_to 10162
  156.2374  130.4177  149.8802 H   0  0  0  0  0  0  0  0  0  0  0  0  # atno 10718 bound_to 10713
  152.9810  135.6006  154.3611 H   0  0  0  0  0  0  0  0  0  0  0  0  # atno 10763 bound_to 10752
  154.3292  135.2769  155.2482 H   0  0  0  0  0  0  0  0  0  0  0  0  # atno 10764 bound_to 10752
  154.4613  135.5965  153.6313 H   0  0  0  0  0  0  0  0  0  0  0  0  # atno 10765 bound_to 10752
  140.6705  133.9240  155.8492 H   0  0  0  0  0  0  0  0  0  0  0  0  # atno 11005 bound_to 11000
  145.9472  139.2709  143.1233 LP  0  0  0  0  0  0  0  0  0  0  0  0  # atno 17320 bound_to 7965
  145.9361  140.9013  143.0331 LP  0  0  0  0  0  0  0  0  0  0  0  0  # atno 17321 bound_to 7965
  139.8508  143.7440  152.3178 LP  0  0  0  0  0  0  0  0  0  0  0  0  # atno 17342 bound_to 10162
  139.7622  144.7503  151.0347 LP  0  0  0  0  0  0  0  0  0  0  0  0  # atno 17343 bound_to 10162
  156.6395  130.8699  151.3511 LP  0  0  0  0  0  0  0  0  0  0  0  0  # atno 17370 bound_to 10713
  157.7160  130.9498  150.1258 LP  0  0  0  0  0  0  0  0  0  0  0  0  # atno 17371 bound_to 10713
  141.0395  134.0641  157.3918 LP  0  0  0  0  0  0  0  0  0  0  0  0  # atno 17394 bound_to 11000
  139.8983  135.0154  156.7142 LP  0  0  0  0  0  0  0  0  0  0  0  0  # atno 17395 bound_to 11000

$$$$
