AV-unprocessed.smi:3031|AV-procd|sdf|11556|dock8
  -GOLD-   2272016523D 1   1.00000     0.00000
 Structure written by MMmdl.
 46 47  0  0  0  0  0  0  0  0  1 V2000
  144.1227  133.3701  149.7015 C   0  0  0  0  0  0  0  0  0  0  0  0
  144.0134  134.2560  150.9087 C   0  0  0  0  0  0  0  0  0  0  0  0
  143.6308  133.8892  152.2298 C   0  0  0  0  0  0  0  0  0  0  0  0
  143.6233  134.9139  153.0661 N   0  0  0  0  0  0  0  0  0  0  0  0
  144.0183  135.9659  152.3174 N   0  0  0  0  0  0  0  0  0  0  0  0
  144.0981  137.2889  152.9147 C   0  0  0  0  0  0  0  0  0  0  0  0
  145.5463  137.8002  153.1123 C   0  0  1  0  0  0  0  0  0  0  0  0
  146.2124  138.0641  151.7546 C   0  0  0  0  0  0  0  0  0  0  0  0
  145.6186  139.0289  153.9099 N   0  0  0  0  0  0  0  0  0  0  0  0
  146.8713  139.2664  154.6253 C   0  0  0  0  0  0  0  0  0  0  0  0
  147.9575  139.8239  153.6863 C   0  0  1  0  0  0  0  0  0  0  0  0
  147.3116  140.6709  152.7596 O   0  0  0  0  0  0  0  0  0  0  0  0
  149.0268  140.6805  154.4028 C   0  0  0  0  0  0  0  0  0  0  0  0
  150.0305  139.9417  155.1706 N   0  0  0  0  0  0  0  0  0  0  0  0
  150.9401  140.8476  155.8623 C   0  0  0  0  0  0  0  0  0  0  0  0
  151.9867  140.0838  156.6919 C   0  0  0  0  0  0  0  0  0  0  0  0
  152.7064  139.1919  155.8467 O   0  0  0  0  0  0  0  0  0  0  0  0
  151.8589  138.2614  155.1809 C   0  0  0  0  0  0  0  0  0  0  0  0
  150.8110  139.0202  154.3479 C   0  0  0  0  0  0  0  0  0  0  0  0
  144.2435  135.5990  151.0067 C   0  0  0  0  0  0  0  0  0  0  0  0
  144.3679  132.3436  149.9744 H   0  0  0  0  0  0  0  0  0  0  0  0
  144.8982  133.7133  149.0165 H   0  0  0  0  0  0  0  0  0  0  0  0
  143.1881  133.3391  149.1413 H   0  0  0  0  0  0  0  0  0  0  0  0
  143.3535  132.9141  152.6022 H   0  0  0  0  0  0  0  0  0  0  0  0
  143.5573  137.9613  152.2473 H   0  0  0  0  0  0  0  0  0  0  0  0
  143.5547  137.3006  153.8614 H   0  0  0  0  0  0  0  0  0  0  0  0
  146.1356  137.0238  153.6010 H   0  0  0  0  0  0  0  0  0  0  0  0
  146.2420  137.1583  151.1482 H   0  0  0  0  0  0  0  0  0  0  0  0
  147.2408  138.4052  151.8801 H   0  0  0  0  0  0  0  0  0  0  0  0
  145.6751  138.8264  151.1891 H   0  0  0  0  0  0  0  0  0  0  0  0
  145.4240  139.8276  153.3132 H   0  0  0  0  0  0  0  0  0  0  0  0
  146.7013  139.9834  155.4267 H   0  0  0  0  0  0  0  0  0  0  0  0
  147.2246  138.3465  155.0930 H   0  0  0  0  0  0  0  0  0  0  0  0
  148.4128  139.0179  153.1109 H   0  0  0  0  0  0  0  0  0  0  0  0
  147.8394  140.7149  151.9769 H   0  0  0  0  0  0  0  0  0  0  0  0
  149.5341  141.3071  153.6671 H   0  0  0  0  0  0  0  0  0  0  0  0
  148.5092  141.3712  155.0704 H   0  0  0  0  0  0  0  0  0  0  0  0
  151.4491  141.4856  155.1381 H   0  0  0  0  0  0  0  0  0  0  0  0
  150.3747  141.5101  156.5188 H   0  0  0  0  0  0  0  0  0  0  0  0
  152.6863  140.7797  157.1548 H   0  0  0  0  0  0  0  0  0  0  0  0
  151.5078  139.5252  157.4978 H   0  0  0  0  0  0  0  0  0  0  0  0
  152.4647  137.6218  154.5390 H   0  0  0  0  0  0  0  0  0  0  0  0
  151.3732  137.6134  155.9126 H   0  0  0  0  0  0  0  0  0  0  0  0
  150.1585  138.2922  153.8677 H   0  0  0  0  0  0  0  0  0  0  0  0
  151.3112  139.5688  153.5484 H   0  0  0  0  0  0  0  0  0  0  0  0
  144.5467  136.3165  150.2584 H   0  0  0  0  0  0  0  0  0  0  0  0
  1  2  1  0  0  0  0
  1 21  1  0  0  0  0
  1 22  1  0  0  0  0
  1 23  1  0  0  0  0
  2 20  2  0  0  0  0
  2  3  1  0  0  0  0
  3  4  2  0  0  0  0
  3 24  1  0  0  0  0
  4  5  1  0  0  0  0
  5  6  1  0  0  0  0
  5 20  1  0  0  0  0
  6  7  1  0  0  0  0
  6 25  1  0  0  0  0
  6 26  1  0  0  0  0
  7  8  1  0  0  0  0
  7  9  1  0  0  0  0
  7 27  1  0  0  0  0
  8 28  1  0  0  0  0
  8 29  1  0  0  0  0
  8 30  1  0  0  0  0
  9 10  1  0  0  0  0
  9 31  1  0  0  0  0
 10 11  1  0  0  0  0
 10 32  1  0  0  0  0
 10 33  1  0  0  0  0
 11 12  1  0  0  0  0
 11 13  1  0  0  0  0
 11 34  1  0  0  0  0
 12 35  1  0  0  0  0
 13 14  1  0  0  0  0
 13 36  1  0  0  0  0
 13 37  1  0  0  0  0
 14 19  1  0  0  0  0
 14 15  1  0  0  0  0
 15 16  1  0  0  0  0
 15 38  1  0  0  0  0
 15 39  1  0  0  0  0
 16 17  1  0  0  0  0
 16 40  1  0  0  0  0
 16 41  1  0  0  0  0
 17 18  1  0  0  0  0
 18 19  1  0  0  0  0
 18 42  1  0  0  0  0
 18 43  1  0  0  0  0
 19 44  1  0  0  0  0
 19 45  1  0  0  0  0
 20 46  1  0  0  0  0
M  END
> <s_m_source_file>
AV-unprocessed.smi

> <i_m_source_file_index>
3031

> <i_lp_mmshare_version>
43012

> <i_f3d_flags>
0

> <s_epik_input>
W0NIM11jMVtjSF1ubihbY0hdMSlbQ0gyXVtDQEhdKFtDSDNdKVtOSF1bQ0gyXVtDQEhdKFtPSF0pW0NIMl1OMltDSDJdW0NIMl1PW0NIMl1bQ0gyXTI=

> <s_epik_cmdline>
J2VwaWtfcHl0aG9uJywgJy1waCcsICc3LjAnLCAnLXRuJywgJzgnLCAnLW1hJywgJzIwMCcsICctbWV0YWxfYmluZGluZycsICctaW1hZScsICc8aW5maWxlLm1hZT4nLCAnLW9tYWUnLCAnPG91dGZpbGUubWFlPic=

> <r_lp_tautomer_probability>
1

> <r_epik_Ionization_Penalty>
2.8101

> <r_epik_Ionization_Penalty_Charging>
0

> <r_epik_Ionization_Penalty_Neutral>
2.8101

> <r_epik_State_Penalty>
2.12351

> <r_epik_Charging_Adjusted_Penalty>
2.12351

> <i_epik_Tot_Q>
0

> <i_epik_Tot_abs_Q>
0

> <r_epik_Metal_State_Penalty>
2.12345

> <b_epik_Metal_Only>
0

> <s_lp_Force_Field>
OPLS_2005

> <r_lp_Energy>
29.6213

> <b_lp_Chiralities_Consistent>
1

> <s_lp_Variant>
AV-unprocessed.smi:3031-16

> <Gold.Version>
5.8.1

> <Gold.Id.Protein>
6NUR|6NUR_protein|mol2

> <Gold.PLP.Fitness>
46.4445

> <Gold.PLP.PLP>
-34.8177

> <Gold.PLP.part.hbond>
-3.0000

> <Gold.PLP.part.metal>
0.0000

> <Gold.PLP.part.buried>
-0.6355

> <Gold.PLP.part.nonpolar>
-31.6636

> <Gold.PLP.part.repulsive>
0.1494

> <Gold.PLP.ligand.clash>
0.0000

> <Gold.PLP.ligand.torsion>
0.9291

> <Gold.PLP.Chemscore.Hbond>
2.5200

> <Gold.PLP.Chemscore.CHOScore>
1.9466

> <Gold.PLP.Chemscore.Metal>
0.0000

> <Gold.Chemscore.Hbonds>
donor molecule, donor type, donor heavy atom, donor atom, acceptor molecule, acceptor atom, score
      L1  H     9    31       P1 10175  0.61
      L1  H    12    35       P1  7957  0.87
      P1  H  7997  8009       L1    17  0.75
      L1  C     3    24       P1 10957  0.92
      L1  C    20    46       P1 10171  1.00

> <Gold.PLP.Chemscore.Internal.Correction>
0.0854

> <Gold.Rescore>
     Score         DG    S(hbond)    S(metal)    S(lipo)     H(rot)  DE(clash)    DE(int)     intcor
     14.71     -16.32       2.23        0.00      84.31       2.53       0.51       1.10       ----

> <Gold.Chemscore.Fitness>
14.7099

> <Gold.Chemscore.DG>
-16.3153

> <Gold.Chemscore.ZeroCoef>
-5.4800

> <Gold.Chemscore.Hbond>
2.2325

> <Gold.Chemscore.Metal>
0.0000

> <Gold.Chemscore.Lipo>
84.3066

> <Gold.Chemscore.Internal_Hbond>
0.0000

> <Gold.Chemscore.DEClash>
0.5102

> <Gold.Chemscore.DEInternal>
1.0951

> <Gold.Chemscore.Rot>
2.5333

> <Gold.Chemscore.Internal.Correction>
   9.000000E+99

> <Gold.Chemscore.Hbonds>
donor molecule, donor type, donor heavy atom, donor atom, acceptor molecule, acceptor atom, score
      L1  H     9    31       P1 10175  0.57
      L1  H    12    35       P1  7957  0.80
      P1  H  7997  8009       L1    17  0.09

> <Gold.Chemscore.Hbond.Weighted>
-7.4565

> <Gold.Chemscore.Metal.Weighted>
-0.0000

> <Gold.Chemscore.Lipo.Weighted>
-9.8639

> <Gold.Chemscore.Internal_Hbond.Weighted>
0.0000

> <Gold.Chemscore.DEClash.Weighted>
0.5102

> <Gold.Chemscore.DEInternal.Weighted>
1.0951

> <Gold.Chemscore.Rot.Weighted>
6.4852

> <Gold.Chemscore.Internal.Correction.Weighted>
   9.000000E+99

> <Gold.Protein.RotatedTorsions>
[ 6907 6896 6895 6894 ] final -173.68 input  -60.11 | X-H torsion
[ 7974 7965 7964 7962 ] final  161.87 input  175.53 | X-H torsion
[ 8008 7997 7996 7995 ] final -138.82 input   59.86 | X-H torsion
[ 10167 10162 10161 10158 ] final   93.41 input  -65.29 | X-H torsion
[ 10718 10713 10712 10709 ] final   96.97 input   66.30 | X-H torsion
[ 10763 10752 10751 10750 ] final   -9.59 input  -60.55 | X-H torsion
[ 11005 11000 10999 10996 ] final  139.45 input  -57.11 | X-H torsion

> <Gold.Protein.ActiveResidues>
 VAL166  LYS551  ARG553  GLY616  TRP617  ASP618  TYR619  PRO620  LYS621  CYS622 
 ASP623  PHE694  ASN695  SER759  ASP760  ASP761  ALA762  ILE779  LEU786  VAL792 
 PHE793  MET794  SER795  GLU796  ALA797  LYS798  CYS799  TRP800  GLU811  SER814 

> <Gold.Protein.RotatedAtoms>
  151.5601  133.3404  159.2969 H   0  0  0  0  0  0  0  0  0  0  0  0  # atno 6907 bound_to 6896
  150.8428  134.7729  159.6957 H   0  0  0  0  0  0  0  0  0  0  0  0  # atno 6908 bound_to 6896
  152.4492  134.5437  159.9898 H   0  0  0  0  0  0  0  0  0  0  0  0  # atno 6909 bound_to 6896
  144.7664  139.7959  143.6313 H   0  0  0  0  0  0  0  0  0  0  0  0  # atno 7974 bound_to 7965
  155.4347  140.0527  157.3015 H   0  0  0  0  0  0  0  0  0  0  0  0  # atno 8008 bound_to 7997
  154.4844  140.2095  155.9646 H   0  0  0  0  0  0  0  0  0  0  0  0  # atno 8009 bound_to 7997
  156.1253  140.3181  155.8273 H   0  0  0  0  0  0  0  0  0  0  0  0  # atno 8010 bound_to 7997
  139.8183  144.6743  150.9552 H   0  0  0  0  0  0  0  0  0  0  0  0  # atno 10167 bound_to 10162
  157.6919  131.0595  150.4573 H   0  0  0  0  0  0  0  0  0  0  0  0  # atno 10718 bound_to 10713
  153.4570  135.7015  153.6074 H   0  0  0  0  0  0  0  0  0  0  0  0  # atno 10763 bound_to 10752
  153.4384  135.3786  155.2213 H   0  0  0  0  0  0  0  0  0  0  0  0  # atno 10764 bound_to 10752
  154.8728  135.3968  154.3990 H   0  0  0  0  0  0  0  0  0  0  0  0  # atno 10765 bound_to 10752
  140.0255  134.9376  157.0560 H   0  0  0  0  0  0  0  0  0  0  0  0  # atno 11005 bound_to 11000
  146.1775  139.4953  142.9887 LP  0  0  0  0  0  0  0  0  0  0  0  0  # atno 17320 bound_to 7965
  145.6456  141.0274  143.1788 LP  0  0  0  0  0  0  0  0  0  0  0  0  # atno 17321 bound_to 7965
  140.7814  143.4117  151.0982 LP  0  0  0  0  0  0  0  0  0  0  0  0  # atno 17342 bound_to 10162
  139.7779  143.8398  152.3132 LP  0  0  0  0  0  0  0  0  0  0  0  0  # atno 17343 bound_to 10162
  156.4920  130.4097  149.6401 LP  0  0  0  0  0  0  0  0  0  0  0  0  # atno 17370 bound_to 10713
  156.3408  130.7381  151.2326 LP  0  0  0  0  0  0  0  0  0  0  0  0  # atno 17371 bound_to 10713
  140.4313  134.1777  155.7168 LP  0  0  0  0  0  0  0  0  0  0  0  0  # atno 17394 bound_to 11000
  141.1800  133.8433  157.1290 LP  0  0  0  0  0  0  0  0  0  0  0  0  # atno 17395 bound_to 11000

$$$$
