AV-unprocessed.smi:2296|AV-procd|sdf|9220|dock2
  -GOLD-   2272012443D 1   1.00000     0.00000
 Structure written by MMmdl.
 24 24  0  0  0  0  0  0  0  0  2 V2000
  146.2623  137.3490  151.5299 N   0  3  0  0  0  0  0  0  0  0  0  0
  145.2148  136.3094  151.5421 C   0  0  2  0  0  0  0  0  0  0  0  0
  143.9969  136.7906  152.3492 C   0  0  0  0  0  0  0  0  0  0  0  0
  144.3870  137.7798  153.2785 O   0  0  0  0  0  0  0  0  0  0  0  0
  145.7711  134.9853  152.1011 C   0  0  0  0  0  0  0  0  0  0  0  0
  145.2681  133.7630  151.3527 C   0  0  0  0  0  0  0  0  0  0  0  0
  143.8895  133.5727  151.1233 C   0  0  0  0  0  0  0  0  0  0  0  0
  143.4772  132.4181  150.4275 C   0  0  0  0  0  0  0  0  0  0  0  0
  144.3360  131.4815  149.9714 N   0  0  0  0  0  0  0  0  0  0  0  0
  145.6547  131.6709  150.1923 C   0  0  0  0  0  0  0  0  0  0  0  0
  146.1710  132.7901  150.8762 C   0  0  0  0  0  0  0  0  0  0  0  0
  147.1590  136.9291  151.7286 H   0  0  0  0  0  0  0  0  0  0  0  0
  146.0508  138.0401  152.2356 H   0  0  0  0  0  0  0  0  0  0  0  0
  144.9014  136.1420  150.5103 H   0  0  0  0  0  0  0  0  0  0  0  0
  143.2501  137.2284  151.6859 H   0  0  0  0  0  0  0  0  0  0  0  0
  143.5168  135.9633  152.8734 H   0  0  0  0  0  0  0  0  0  0  0  0
  144.4018  138.6177  152.8402 H   0  0  0  0  0  0  0  0  0  0  0  0
  146.8619  134.9985  152.0850 H   0  0  0  0  0  0  0  0  0  0  0  0
  145.4860  134.8781  153.1487 H   0  0  0  0  0  0  0  0  0  0  0  0
  143.1607  134.2919  151.4678 H   0  0  0  0  0  0  0  0  0  0  0  0
  142.4294  132.2415  150.2351 H   0  0  0  0  0  0  0  0  0  0  0  0
  146.3183  130.9071  149.8147 H   0  0  0  0  0  0  0  0  0  0  0  0
  147.2353  132.8953  151.0287 H   0  0  0  0  0  0  0  0  0  0  0  0
  146.2890  137.7906  150.6218 H   0  0  0  0  0  0  0  0  0  0  0  0
  1  2  1  0  0  0  0
  1 12  1  0  0  0  0
  1 13  1  0  0  0  0
  1 24  1  0  0  0  0
  2  3  1  0  0  0  0
  2  5  1  0  0  0  0
  2 14  1  0  0  0  0
  3  4  1  0  0  0  0
  3 15  1  0  0  0  0
  3 16  1  0  0  0  0
  4 17  1  0  0  0  0
  5  6  1  0  0  0  0
  5 18  1  0  0  0  0
  5 19  1  0  0  0  0
  6 11  1  0  0  0  0
  6  7  2  0  0  0  0
  7  8  1  0  0  0  0
  7 20  1  0  0  0  0
  8  9  2  0  0  0  0
  8 21  1  0  0  0  0
  9 10  1  0  0  0  0
 10 11  2  0  0  0  0
 10 22  1  0  0  0  0
 11 23  1  0  0  0  0
M  CHG  1   1   1
M  END
> <s_m_source_file>
AV-unprocessed.smi

> <i_m_source_file_index>
2296

> <i_lp_mmshare_version>
43012

> <i_f3d_flags>
0

> <s_epik_input>
W09IXVtDSDJdW0NAQEhdKFtOSDJdKVtDSDJdYzFbY0hdW2NIXW5bY0hdW2NIXTE=

> <s_epik_cmdline>
J2VwaWtfcHl0aG9uJywgJy1waCcsICc3LjAnLCAnLXRuJywgJzgnLCAnLW1hJywgJzIwMCcsICctbWV0YWxfYmluZGluZycsICctaW1hZScsICc8aW5maWxlLm1hZT4nLCAnLW9tYWUnLCAnPG91dGZpbGUubWFlPic=

> <r_epik_Ionization_Penalty>
0.0199414

> <r_epik_Ionization_Penalty_Charging>
0.0188044

> <r_epik_Ionization_Penalty_Neutral>
0.00113699

> <r_epik_State_Penalty>
0.00788343

> <r_epik_Charging_Adjusted_Penalty>
0.0266878

> <i_epik_Tot_Q>
1

> <i_epik_Tot_abs_Q>
1

> <r_epik_Metal_State_Penalty>
-0

> <b_epik_Metal_Only>
0

> <s_lp_Force_Field>
OPLS_2005

> <r_lp_Energy>
8.03463

> <b_lp_Chiralities_Consistent>
1

> <s_lp_Variant>
AV-unprocessed.smi:2296-1

> <Gold.Version>
5.8.1

> <Gold.Id.Protein>
6NUR|6NUR_protein|mol2

> <Gold.PLP.Fitness>
36.4892

> <Gold.PLP.PLP>
-22.4146

> <Gold.PLP.part.hbond>
-3.6135

> <Gold.PLP.part.metal>
0.0000

> <Gold.PLP.part.buried>
-1.6115

> <Gold.PLP.part.nonpolar>
-17.9224

> <Gold.PLP.part.repulsive>
0.2081

> <Gold.PLP.ligand.clash>
0.0000

> <Gold.PLP.ligand.torsion>
1.1320

> <Gold.PLP.Chemscore.Hbond>
3.3661

> <Gold.PLP.Chemscore.CHOScore>
2.0781

> <Gold.PLP.Chemscore.Metal>
0.0000

> <Gold.Chemscore.Hbonds>
donor molecule, donor type, donor heavy atom, donor atom, acceptor molecule, acceptor atom, score
      L1  H     1    12       P1  7948  2.00
      L1  H     4    17       P1 10175  1.00
      P1  H 10785 10796       L1     9  0.39
      L1  C     8    21       P1 10186  0.45
      L1  C     8    21       P1 10952  0.92
      L1  C    10    22       P1 10747  0.57

> <Gold.PLP.Chemscore.Internal.Correction>
0.0060

> <Gold.Rescore>
     Score         DG    S(hbond)    S(metal)    S(lipo)     H(rot)  DE(clash)    DE(int)     intcor
     14.17     -15.47       2.66        0.00      56.39       2.14       0.11       1.18       ----

> <Gold.Chemscore.Fitness>
14.1743

> <Gold.Chemscore.DG>
-15.4660

> <Gold.Chemscore.ZeroCoef>
-5.4800

> <Gold.Chemscore.Hbond>
2.6550

> <Gold.Chemscore.Metal>
0.0000

> <Gold.Chemscore.Lipo>
56.3925

> <Gold.Chemscore.Internal_Hbond>
0.0000

> <Gold.Chemscore.DEClash>
0.1135

> <Gold.Chemscore.DEInternal>
1.1782

> <Gold.Chemscore.Rot>
2.1405

> <Gold.Chemscore.Internal.Correction>
   9.000000E+99

> <Gold.Chemscore.Hbonds>
donor molecule, donor type, donor heavy atom, donor atom, acceptor molecule, acceptor atom, score
      L1  H     1    12       P1  7948  1.00
      L1  H     4    17       P1 10175  0.92
      P1  H 10785 10796       L1     9  0.26

> <Gold.Chemscore.Hbond.Weighted>
-8.8678

> <Gold.Chemscore.Metal.Weighted>
-0.0000

> <Gold.Chemscore.Lipo.Weighted>
-6.5979

> <Gold.Chemscore.Internal_Hbond.Weighted>
0.0000

> <Gold.Chemscore.DEClash.Weighted>
0.1135

> <Gold.Chemscore.DEInternal.Weighted>
1.1782

> <Gold.Chemscore.Rot.Weighted>
5.4797

> <Gold.Chemscore.Internal.Correction.Weighted>
   9.000000E+99

> <Gold.Protein.RotatedTorsions>
[ 6907 6896 6895 6894 ] final -137.26 input  -60.11 | X-H torsion
[ 7974 7965 7964 7962 ] final  -39.05 input  175.53 | X-H torsion
[ 8008 7997 7996 7995 ] final  -62.07 input   59.86 | X-H torsion
[ 10167 10162 10161 10158 ] final   89.50 input  -65.29 | X-H torsion
[ 10718 10713 10712 10709 ] final   85.74 input   66.30 | X-H torsion
[ 10763 10752 10751 10750 ] final   76.35 input  -60.55 | X-H torsion
[ 11005 11000 10999 10996 ] final  118.81 input  -57.11 | X-H torsion

> <Gold.Protein.ActiveResidues>
 VAL166  LYS551  ARG553  GLY616  TRP617  ASP618  TYR619  PRO620  LYS621  CYS622 
 ASP623  PHE694  ASN695  SER759  ASP760  ASP761  ALA762  ILE779  LEU786  VAL792 
 PHE793  MET794  SER795  GLU796  ALA797  LYS798  CYS799  TRP800  GLU811  SER814 

> <Gold.Protein.RotatedAtoms>
  151.0202  133.5883  159.2671 H   0  0  0  0  0  0  0  0  0  0  0  0  # atno 6907 bound_to 6896
  151.3003  135.0766  159.9246 H   0  0  0  0  0  0  0  0  0  0  0  0  # atno 6908 bound_to 6896
  152.5321  133.9885  159.7894 H   0  0  0  0  0  0  0  0  0  0  0  0  # atno 6909 bound_to 6896
  146.0431  140.6582  142.9077 H   0  0  0  0  0  0  0  0  0  0  0  0  # atno 7974 bound_to 7965
  154.4480  140.1004  156.6529 H   0  0  0  0  0  0  0  0  0  0  0  0  # atno 8008 bound_to 7997
  155.5378  140.3483  155.4421 H   0  0  0  0  0  0  0  0  0  0  0  0  # atno 8009 bound_to 7997
  156.0619  140.1328  156.9920 H   0  0  0  0  0  0  0  0  0  0  0  0  # atno 8010 bound_to 7997
  139.8567  144.6565  150.9106 H   0  0  0  0  0  0  0  0  0  0  0  0  # atno 10167 bound_to 10162
  157.6919  131.0187  150.2867 H   0  0  0  0  0  0  0  0  0  0  0  0  # atno 10718 bound_to 10713
  153.0719  135.4954  154.8323 H   0  0  0  0  0  0  0  0  0  0  0  0  # atno 10763 bound_to 10752
  154.7035  135.3006  154.9308 H   0  0  0  0  0  0  0  0  0  0  0  0  # atno 10764 bound_to 10752
  154.0025  135.6764  153.4813 H   0  0  0  0  0  0  0  0  0  0  0  0  # atno 10765 bound_to 10752
  139.9123  134.9623  156.7560 H   0  0  0  0  0  0  0  0  0  0  0  0  # atno 11005 bound_to 11000
  144.7084  140.3945  143.7099 LP  0  0  0  0  0  0  0  0  0  0  0  0  # atno 17320 bound_to 7965
  145.6851  139.1626  143.2679 LP  0  0  0  0  0  0  0  0  0  0  0  0  # atno 17321 bound_to 7965
  140.7780  143.3780  151.1528 LP  0  0  0  0  0  0  0  0  0  0  0  0  # atno 17342 bound_to 10162
  139.7413  143.8920  152.3050 LP  0  0  0  0  0  0  0  0  0  0  0  0  # atno 17343 bound_to 10162
  156.3405  130.3814  149.7413 LP  0  0  0  0  0  0  0  0  0  0  0  0  # atno 17370 bound_to 10713
  156.4924  130.8091  151.3100 LP  0  0  0  0  0  0  0  0  0  0  0  0  # atno 17371 bound_to 10713
  140.6735  133.9538  155.7870 LP  0  0  0  0  0  0  0  0  0  0  0  0  # atno 17394 bound_to 11000
  141.0560  134.0415  157.3721 LP  0  0  0  0  0  0  0  0  0  0  0  0  # atno 17395 bound_to 11000

$$$$
