AV-unprocessed.smi:2252|AV-procd|sdf|9112|dock8
  -GOLD-   2272012313D 1   1.00000     0.00000
 Structure written by MMmdl.
 44 46  0  0  0  0  0  0  0  0  3 V2000
  152.3728  142.8559  161.9841 C   0  0  0  0  0  0  0  0  0  0  0  0
  152.2466  143.3410  160.6228 N   0  0  0  0  0  0  0  0  0  0  0  0
  151.9092  144.6359  160.2517 C   0  0  0  0  0  0  0  0  0  0  0  0
  151.9065  144.6650  158.8786 C   0  0  0  0  0  0  0  0  0  0  0  0
  152.2379  143.4063  158.3903 N   0  0  0  0  0  0  0  0  0  0  0  0
  152.4271  142.6543  159.4741 C   0  0  0  0  0  0  0  0  0  0  0  0
  152.8128  141.1996  159.4298 C   0  0  0  0  0  0  0  0  0  0  0  0
  151.9229  140.3301  158.5130 C   0  0  0  0  0  0  0  0  0  0  0  0
  152.4838  140.2784  157.1644 N   0  5  0  0  0  0  0  0  0  0  0  0
  151.7549  139.9947  156.0470 C   0  0  0  0  0  0  0  0  0  0  0  0
  152.1235  139.7330  154.8977 O   0  0  0  0  0  0  0  0  0  0  0  0
  150.2411  140.0226  156.3347 C   0  0  1  0  0  0  0  0  0  0  0  0
  149.5585  141.1085  155.4696 C   0  0  0  0  0  0  0  0  0  0  0  0
  148.0593  141.0999  155.2592 C   0  0  0  0  0  0  0  0  0  0  0  0
  148.9799  140.7824  154.1094 C   0  0  0  0  0  0  0  0  0  0  0  0
  149.6082  138.6851  156.1517 N   0  3  0  0  0  0  0  0  0  0  0  0
  149.9111  138.0060  154.8736 C   0  0  0  0  0  0  0  0  0  0  0  0
  149.5179  136.5521  155.1077 C   0  0  0  0  0  0  0  0  0  0  0  0
  149.8994  136.3108  156.5664 C   0  0  0  0  0  0  0  0  0  0  0  0
  149.8731  137.6980  157.2256 C   0  0  0  0  0  0  0  0  0  0  0  0
  152.1099  143.6435  162.6904 H   0  0  0  0  0  0  0  0  0  0  0  0
  153.4004  142.5438  162.1709 H   0  0  0  0  0  0  0  0  0  0  0  0
  151.7051  142.0081  162.1390 H   0  0  0  0  0  0  0  0  0  0  0  0
  151.7053  145.4104  160.9763 H   0  0  0  0  0  0  0  0  0  0  0  0
  151.6947  145.4866  158.2105 H   0  0  0  0  0  0  0  0  0  0  0  0
  153.8489  141.1417  159.0935 H   0  0  0  0  0  0  0  0  0  0  0  0
  152.8101  140.7973  160.4433 H   0  0  0  0  0  0  0  0  0  0  0  0
  151.8560  139.3283  158.9378 H   0  0  0  0  0  0  0  0  0  0  0  0
  150.9031  140.7169  158.5209 H   0  0  0  0  0  0  0  0  0  0  0  0
  150.1163  140.2982  157.3836 H   0  0  0  0  0  0  0  0  0  0  0  0
  150.0026  142.0970  155.5757 H   0  0  0  0  0  0  0  0  0  0  0  0
  147.4910  140.2769  155.6887 H   0  0  0  0  0  0  0  0  0  0  0  0
  147.5506  142.0616  155.2489 H   0  0  0  0  0  0  0  0  0  0  0  0
  149.0866  141.5315  153.3277 H   0  0  0  0  0  0  0  0  0  0  0  0
  149.0185  139.7484  153.7726 H   0  0  0  0  0  0  0  0  0  0  0  0
  149.3715  138.4467  154.0346 H   0  0  0  0  0  0  0  0  0  0  0  0
  150.9799  138.0724  154.6640 H   0  0  0  0  0  0  0  0  0  0  0  0
  148.4400  136.4390  154.9840 H   0  0  0  0  0  0  0  0  0  0  0  0
  150.0094  135.8637  154.4196 H   0  0  0  0  0  0  0  0  0  0  0  0
  149.2242  135.6067  157.0538 H   0  0  0  0  0  0  0  0  0  0  0  0
  150.9065  135.8954  156.6237 H   0  0  0  0  0  0  0  0  0  0  0  0
  150.8354  137.8874  157.7024 H   0  0  0  0  0  0  0  0  0  0  0  0
  149.1003  137.7690  157.9916 H   0  0  0  0  0  0  0  0  0  0  0  0
  148.6105  138.8447  156.1487 H   0  0  0  0  0  0  0  0  0  0  0  0
  1  2  1  0  0  0  0
  1 21  1  0  0  0  0
  1 22  1  0  0  0  0
  1 23  1  0  0  0  0
  2  6  1  0  0  0  0
  2  3  1  0  0  0  0
  3  4  2  0  0  0  0
  3 24  1  0  0  0  0
  4  5  1  0  0  0  0
  4 25  1  0  0  0  0
  5  6  2  0  0  0  0
  6  7  1  0  0  0  0
  7  8  1  0  0  0  0
  7 26  1  0  0  0  0
  7 27  1  0  0  0  0
  8  9  1  0  0  0  0
  8 28  1  0  0  0  0
  8 29  1  0  0  0  0
  9 10  1  0  0  0  0
 10 11  2  0  0  0  0
 10 12  1  0  0  0  0
 12 13  1  0  0  0  0
 12 16  1  0  0  0  0
 12 30  1  0  0  0  0
 13 15  1  0  0  0  0
 13 14  1  0  0  0  0
 13 31  1  0  0  0  0
 14 15  1  0  0  0  0
 14 32  1  0  0  0  0
 14 33  1  0  0  0  0
 15 34  1  0  0  0  0
 15 35  1  0  0  0  0
 16 20  1  0  0  0  0
 16 17  1  0  0  0  0
 16 44  1  0  0  0  0
 17 18  1  0  0  0  0
 17 36  1  0  0  0  0
 17 37  1  0  0  0  0
 18 19  1  0  0  0  0
 18 38  1  0  0  0  0
 18 39  1  0  0  0  0
 19 20  1  0  0  0  0
 19 40  1  0  0  0  0
 19 41  1  0  0  0  0
 20 42  1  0  0  0  0
 20 43  1  0  0  0  0
M  CHG  1   9  -1
M  CHG  1  16   1
M  END
> <s_m_source_file>
AV-unprocessed.smi

> <i_m_source_file_index>
2252

> <i_lp_mmshare_version>
43012

> <i_f3d_flags>
0

> <s_epik_input>
W0NIM11uMVtjSF1bY0hdbmMxW0NIMl1bQ0gyXVtOSF1DKD1PKVtDQEhdKFtDSF0yW0NIMl1bQ0gyXTIpTjNbQ0gyXVtDSDJdW0NIMl1bQ0gyXTM=

> <s_epik_cmdline>
J2VwaWtfcHl0aG9uJywgJy1waCcsICc3LjAnLCAnLXRuJywgJzgnLCAnLW1hJywgJzIwMCcsICctbWV0YWxfYmluZGluZycsICctaW1hZScsICc8aW5maWxlLm1hZT4nLCAnLW9tYWUnLCAnPG91dGZpbGUubWFlPic=

> <r_lp_tautomer_probability>
1

> <r_epik_Ionization_Penalty>
7.86289

> <r_epik_Ionization_Penalty_Charging>
7.86289

> <r_epik_Ionization_Penalty_Neutral>
4.79398e-13

> <r_epik_State_Penalty>
7.18546

> <r_epik_Charging_Adjusted_Penalty>
15.0484

> <i_epik_Tot_Q>
0

> <i_epik_Tot_abs_Q>
2

> <r_epik_Metal_State_Penalty>
3.4294

> <b_epik_Metal_Only>
1

> <s_lp_Force_Field>
OPLS_2005

> <r_lp_Energy>
30.1163

> <b_lp_Chiralities_Consistent>
1

> <s_lp_Variant>
AV-unprocessed.smi:2252-10

> <Gold.Version>
5.8.1

> <Gold.Id.Protein>
6NUR|6NUR_protein|mol2

> <Gold.PLP.Fitness>
48.6272

> <Gold.PLP.PLP>
-41.4435

> <Gold.PLP.part.hbond>
-2.0000

> <Gold.PLP.part.metal>
0.0000

> <Gold.PLP.part.buried>
-4.9065

> <Gold.PLP.part.nonpolar>
-35.2017

> <Gold.PLP.part.repulsive>
0.0505

> <Gold.PLP.ligand.clash>
0.0000

> <Gold.PLP.ligand.torsion>
1.2535

> <Gold.PLP.Chemscore.Hbond>
2.8320

> <Gold.PLP.Chemscore.CHOScore>
0.0000

> <Gold.PLP.Chemscore.Metal>
0.0000

> <Gold.Chemscore.Hbonds>
donor molecule, donor type, donor heavy atom, donor atom, acceptor molecule, acceptor atom, score
      P1  H  7989  7998       L1    11  0.83
      P1  H  7997  8009       L1     9  2.00

> <Gold.PLP.Chemscore.Internal.Correction>
1.1948

> <Gold.Rescore>
     Score         DG    S(hbond)    S(metal)    S(lipo)     H(rot)  DE(clash)    DE(int)     intcor
     13.25     -16.23       1.67        0.00      85.33       1.88       0.05       2.94       ----

> <Gold.Chemscore.Fitness>
13.2481

> <Gold.Chemscore.DG>
-16.2301

> <Gold.Chemscore.ZeroCoef>
-5.4800

> <Gold.Chemscore.Hbond>
1.6713

> <Gold.Chemscore.Metal>
0.0000

> <Gold.Chemscore.Lipo>
85.3346

> <Gold.Chemscore.Internal_Hbond>
0.0000

> <Gold.Chemscore.DEClash>
0.0456

> <Gold.Chemscore.DEInternal>
2.9364

> <Gold.Chemscore.Rot>
1.8814

> <Gold.Chemscore.Internal.Correction>
   9.000000E+99

> <Gold.Chemscore.Hbonds>
donor molecule, donor type, donor heavy atom, donor atom, acceptor molecule, acceptor atom, score
      P1  H  7989  7998       L1    11  0.80
      P1  H  7997  8009       L1     9  0.56

> <Gold.Chemscore.Hbond.Weighted>
-5.5822

> <Gold.Chemscore.Metal.Weighted>
-0.0000

> <Gold.Chemscore.Lipo.Weighted>
-9.9841

> <Gold.Chemscore.Internal_Hbond.Weighted>
0.0000

> <Gold.Chemscore.DEClash.Weighted>
0.0456

> <Gold.Chemscore.DEInternal.Weighted>
2.9364

> <Gold.Chemscore.Rot.Weighted>
4.8163

> <Gold.Chemscore.Internal.Correction.Weighted>
   9.000000E+99

> <Gold.Protein.RotatedTorsions>
[ 6907 6896 6895 6894 ] final  107.97 input  -60.11 | X-H torsion
[ 7974 7965 7964 7962 ] final -151.16 input  175.53 | X-H torsion
[ 8008 7997 7996 7995 ] final  178.94 input   59.86 | X-H torsion
[ 10167 10162 10161 10158 ] final  -22.61 input  -65.29 | X-H torsion
[ 10718 10713 10712 10709 ] final  -42.78 input   66.30 | X-H torsion
[ 10763 10752 10751 10750 ] final  157.88 input  -60.55 | X-H torsion
[ 11005 11000 10999 10996 ] final  -75.68 input  -57.11 | X-H torsion

> <Gold.Protein.ActiveResidues>
 VAL166  LYS551  ARG553  GLY616  TRP617  ASP618  TYR619  PRO620  LYS621  CYS622 
 ASP623  PHE694  ASN695  SER759  ASP760  ASP761  ALA762  ILE779  LEU786  VAL792 
 PHE793  MET794  SER795  GLU796  ALA797  LYS798  CYS799  TRP800  GLU811  SER814 

> <Gold.Protein.RotatedAtoms>
  152.5132  133.9156  159.7509 H   0  0  0  0  0  0  0  0  0  0  0  0  # atno 6907 bound_to 6896
  150.9540  133.6510  159.2773 H   0  0  0  0  0  0  0  0  0  0  0  0  # atno 6908 bound_to 6896
  151.3778  135.0939  159.9539 H   0  0  0  0  0  0  0  0  0  0  0  0  # atno 6909 bound_to 6896
  144.7866  140.4835  143.5802 H   0  0  0  0  0  0  0  0  0  0  0  0  # atno 7974 bound_to 7965
  156.0491  140.1321  157.0071 H   0  0  0  0  0  0  0  0  0  0  0  0  # atno 8008 bound_to 7997
  154.4426  140.1014  156.6420 H   0  0  0  0  0  0  0  0  0  0  0  0  # atno 8009 bound_to 7997
  155.5551  140.3463  155.4480 H   0  0  0  0  0  0  0  0  0  0  0  0  # atno 8010 bound_to 7997
  140.7286  143.4519  151.0504 H   0  0  0  0  0  0  0  0  0  0  0  0  # atno 10167 bound_to 10162
  156.2560  130.4192  149.8596 H   0  0  0  0  0  0  0  0  0  0  0  0  # atno 10718 bound_to 10713
  154.2073  135.2787  155.2970 H   0  0  0  0  0  0  0  0  0  0  0  0  # atno 10763 bound_to 10752
  154.5807  135.5590  153.7186 H   0  0  0  0  0  0  0  0  0  0  0  0  # atno 10764 bound_to 10752
  153.0073  135.6344  154.2211 H   0  0  0  0  0  0  0  0  0  0  0  0  # atno 10765 bound_to 10752
  141.1647  133.6955  156.7554 H   0  0  0  0  0  0  0  0  0  0  0  0  # atno 11005 bound_to 11000
  145.5906  139.1495  143.3184 LP  0  0  0  0  0  0  0  0  0  0  0  0  # atno 17320 bound_to 7965
  146.2100  140.6032  142.9064 LP  0  0  0  0  0  0  0  0  0  0  0  0  # atno 17321 bound_to 7965
  139.8196  143.7838  152.3176 LP  0  0  0  0  0  0  0  0  0  0  0  0  # atno 17342 bound_to 10162
  139.7916  144.7408  150.9947 LP  0  0  0  0  0  0  0  0  0  0  0  0  # atno 17343 bound_to 10162
  156.6128  130.8594  151.3458 LP  0  0  0  0  0  0  0  0  0  0  0  0  # atno 17370 bound_to 10713
  157.7233  130.9587  150.1526 LP  0  0  0  0  0  0  0  0  0  0  0  0  # atno 17371 bound_to 10713
  140.2573  134.8494  157.3725 LP  0  0  0  0  0  0  0  0  0  0  0  0  # atno 17394 bound_to 11000
  140.1645  134.4687  155.7872 LP  0  0  0  0  0  0  0  0  0  0  0  0  # atno 17395 bound_to 11000

$$$$
