AV-unprocessed.smi:2126|AV-procd|sdf|8678|dock6
  -GOLD-   2272011433D 1   1.00000     0.00000
 Structure written by MMmdl.
 41 43  0  0  0  0  0  0  0  0  2 V2000
  154.7158  140.3448  162.1712 C   0  0  0  0  0  0  0  0  0  0  0  0
  154.2212  141.6415  161.8703 O   0  0  0  0  0  0  0  0  0  0  0  0
  153.4618  141.7971  160.7308 C   0  0  0  0  0  0  0  0  0  0  0  0
  153.1084  140.7396  159.8573 C   0  0  0  0  0  0  0  0  0  0  0  0
  152.3246  140.9914  158.7149 C   0  0  0  0  0  0  0  0  0  0  0  0
  151.8785  142.2934  158.4140 C   0  0  0  0  0  0  0  0  0  0  0  0
  151.1157  142.4474  157.2762 O   0  0  0  0  0  0  0  0  0  0  0  0
  151.2739  141.5026  156.2258 C   0  0  0  0  0  0  0  0  0  0  0  0
  149.9511  141.3968  155.4536 C   0  0  1  0  0  0  0  0  0  0  0  0
  150.0507  140.3345  154.5255 O   0  0  0  0  0  0  0  0  0  0  0  0
  148.7458  141.1592  156.3853 C   0  0  0  0  0  0  0  0  0  0  0  0
  147.4576  141.4141  155.7286 N   0  0  0  0  0  0  0  0  0  0  0  0
  146.9907  140.9899  154.5232 C   0  0  0  0  0  0  0  0  0  0  0  0
  145.7354  141.4952  154.3681 N   0  3  0  0  0  0  0  0  0  0  0  0
  145.3963  142.2542  155.4904 C   0  0  0  0  0  0  0  0  0  0  0  0
  144.2385  142.9622  155.7975 C   0  0  0  0  0  0  0  0  0  0  0  0
  144.2186  143.6363  157.0364 C   0  0  0  0  0  0  0  0  0  0  0  0
  145.3202  143.5906  157.9159 C   0  0  0  0  0  0  0  0  0  0  0  0
  146.4886  142.8684  157.5952 C   0  0  0  0  0  0  0  0  0  0  0  0
  146.4996  142.2060  156.3686 C   0  0  0  0  0  0  0  0  0  0  0  0
  152.2336  143.3512  159.2863 C   0  0  0  0  0  0  0  0  0  0  0  0
  153.0151  143.0990  160.4301 C   0  0  0  0  0  0  0  0  0  0  0  0
  155.2878  140.3836  163.0981 H   0  0  0  0  0  0  0  0  0  0  0  0
  155.3816  139.9811  161.3874 H   0  0  0  0  0  0  0  0  0  0  0  0
  153.9036  139.6313  162.3159 H   0  0  0  0  0  0  0  0  0  0  0  0
  153.4252  139.7244  160.0415 H   0  0  0  0  0  0  0  0  0  0  0  0
  152.0631  140.1728  158.0604 H   0  0  0  0  0  0  0  0  0  0  0  0
  152.0655  141.8372  155.5527 H   0  0  0  0  0  0  0  0  0  0  0  0
  151.5556  140.5258  156.6231 H   0  0  0  0  0  0  0  0  0  0  0  0
  149.8016  142.3143  154.8839 H   0  0  0  0  0  0  0  0  0  0  0  0
  150.0940  139.5206  155.0043 H   0  0  0  0  0  0  0  0  0  0  0  0
  148.7359  140.1262  156.7360 H   0  0  0  0  0  0  0  0  0  0  0  0
  148.8062  141.7871  157.2753 H   0  0  0  0  0  0  0  0  0  0  0  0
  147.5213  140.3675  153.8170 H   0  0  0  0  0  0  0  0  0  0  0  0
  143.3934  142.9990  155.1258 H   0  0  0  0  0  0  0  0  0  0  0  0
  143.3409  144.1999  157.3176 H   0  0  0  0  0  0  0  0  0  0  0  0
  145.2683  144.1202  158.8562 H   0  0  0  0  0  0  0  0  0  0  0  0
  147.3282  142.8388  158.2741 H   0  0  0  0  0  0  0  0  0  0  0  0
  151.9173  144.3666  159.1027 H   0  0  0  0  0  0  0  0  0  0  0  0
  153.2754  143.9168  161.0859 H   0  0  0  0  0  0  0  0  0  0  0  0
  145.1561  141.3328  153.5545 H   0  0  0  0  0  0  0  0  0  0  0  0
  1  2  1  0  0  0  0
  1 23  1  0  0  0  0
  1 24  1  0  0  0  0
  1 25  1  0  0  0  0
  2  3  1  0  0  0  0
  3 22  1  0  0  0  0
  3  4  2  0  0  0  0
  4  5  1  0  0  0  0
  4 26  1  0  0  0  0
  5  6  2  0  0  0  0
  5 27  1  0  0  0  0
  6  7  1  0  0  0  0
  6 21  1  0  0  0  0
  7  8  1  0  0  0  0
  8  9  1  0  0  0  0
  8 28  1  0  0  0  0
  8 29  1  0  0  0  0
  9 10  1  0  0  0  0
  9 11  1  0  0  0  0
  9 30  1  0  0  0  0
 10 31  1  0  0  0  0
 11 12  1  0  0  0  0
 11 32  1  0  0  0  0
 11 33  1  0  0  0  0
 12 20  1  0  0  0  0
 12 13  1  0  0  0  0
 13 14  2  0  0  0  0
 13 34  1  0  0  0  0
 14 15  1  0  0  0  0
 14 41  1  0  0  0  0
 15 20  2  0  0  0  0
 15 16  1  0  0  0  0
 16 17  2  0  0  0  0
 16 35  1  0  0  0  0
 17 18  1  0  0  0  0
 17 36  1  0  0  0  0
 18 19  2  0  0  0  0
 18 37  1  0  0  0  0
 19 20  1  0  0  0  0
 19 38  1  0  0  0  0
 21 22  2  0  0  0  0
 21 39  1  0  0  0  0
 22 40  1  0  0  0  0
M  CHG  1  14   1
M  END
> <s_m_source_file>
AV-unprocessed.smi

> <i_m_source_file_index>
2126

> <i_lp_mmshare_version>
43012

> <i_f3d_flags>
0

> <s_epik_input>
W0NIM11PYzFbY0hdW2NIXWMoW2NIXVtjSF0xKU9bQ0gyXVtDQEhdKFtPSF0pW0NIMl1uKFtjSF1uMiljKGMyMylbY0hdW2NIXVtjSF1bY0hdMw==

> <s_epik_cmdline>
J2VwaWtfcHl0aG9uJywgJy1waCcsICc3LjAnLCAnLXRuJywgJzgnLCAnLW1hJywgJzIwMCcsICctbWV0YWxfYmluZGluZycsICctaW1hZScsICc8aW5maWxlLm1hZT4nLCAnLW9tYWUnLCAnPG91dGZpbGUubWFlPic=

> <r_lp_tautomer_probability>
1

> <r_epik_Ionization_Penalty>
1.37822

> <r_epik_Ionization_Penalty_Charging>
1.37822

> <r_epik_Ionization_Penalty_Neutral>
2.3993e-06

> <r_epik_State_Penalty>
1.45852

> <r_epik_Charging_Adjusted_Penalty>
2.83674

> <i_epik_Tot_Q>
1

> <i_epik_Tot_abs_Q>
1

> <r_epik_Metal_State_Penalty>
5.4985

> <b_epik_Metal_Only>
0

> <s_lp_Force_Field>
OPLS_2005

> <r_lp_Energy>
22.1455

> <b_lp_Chiralities_Consistent>
1

> <s_lp_Variant>
AV-unprocessed.smi:2126-4

> <Gold.Version>
5.8.1

> <Gold.Id.Protein>
6NUR|6NUR_protein|mol2

> <Gold.PLP.Fitness>
47.0429

> <Gold.PLP.PLP>
-39.6912

> <Gold.PLP.part.hbond>
-3.0000

> <Gold.PLP.part.metal>
0.0000

> <Gold.PLP.part.buried>
-6.3535

> <Gold.PLP.part.nonpolar>
-29.5407

> <Gold.PLP.part.repulsive>
0.0870

> <Gold.PLP.ligand.clash>
0.0098

> <Gold.PLP.ligand.torsion>
0.8050

> <Gold.PLP.Chemscore.Hbond>
2.9600

> <Gold.PLP.Chemscore.CHOScore>
0.0000

> <Gold.PLP.Chemscore.Metal>
0.0000

> <Gold.Chemscore.Hbonds>
donor molecule, donor type, donor heavy atom, donor atom, acceptor molecule, acceptor atom, score
      L1  H    14    41       P1 10175  2.00
      P1  H  7989  7998       L1    10  0.96

> <Gold.PLP.Chemscore.Internal.Correction>
0.0915

> <Gold.Rescore>
     Score         DG    S(hbond)    S(metal)    S(lipo)     H(rot)  DE(clash)    DE(int)     intcor
     15.49     -16.14       1.65        0.00     101.05       2.60       0.05       0.60       ----

> <Gold.Chemscore.Fitness>
15.4856

> <Gold.Chemscore.DG>
-16.1410

> <Gold.Chemscore.ZeroCoef>
-5.4800

> <Gold.Chemscore.Hbond>
1.6483

> <Gold.Chemscore.Metal>
0.0000

> <Gold.Chemscore.Lipo>
101.0486

> <Gold.Chemscore.Internal_Hbond>
0.0000

> <Gold.Chemscore.DEClash>
0.0531

> <Gold.Chemscore.DEInternal>
0.6022

> <Gold.Chemscore.Rot>
2.6043

> <Gold.Chemscore.Internal.Correction>
   9.000000E+99

> <Gold.Chemscore.Hbonds>
donor molecule, donor type, donor heavy atom, donor atom, acceptor molecule, acceptor atom, score
      L1  H    14    41       P1 10175  0.24
      P1  H  7989  7998       L1    10  0.26

> <Gold.Chemscore.Hbond.Weighted>
-5.5053

> <Gold.Chemscore.Metal.Weighted>
-0.0000

> <Gold.Chemscore.Lipo.Weighted>
-11.8227

> <Gold.Chemscore.Internal_Hbond.Weighted>
0.0000

> <Gold.Chemscore.DEClash.Weighted>
0.0531

> <Gold.Chemscore.DEInternal.Weighted>
0.6022

> <Gold.Chemscore.Rot.Weighted>
6.6670

> <Gold.Chemscore.Internal.Correction.Weighted>
   9.000000E+99

> <Gold.Protein.RotatedTorsions>
[ 6907 6896 6895 6894 ] final   55.95 input  -60.11 | X-H torsion
[ 7974 7965 7964 7962 ] final   64.05 input  175.53 | X-H torsion
[ 8008 7997 7996 7995 ] final  168.85 input   59.86 | X-H torsion
[ 10167 10162 10161 10158 ] final -126.07 input  -65.29 | X-H torsion
[ 10718 10713 10712 10709 ] final -148.76 input   66.30 | X-H torsion
[ 10763 10752 10751 10750 ] final  -68.90 input  -60.55 | X-H torsion
[ 11005 11000 10999 10996 ] final   -1.25 input  -57.11 | X-H torsion

> <Gold.Protein.ActiveResidues>
 VAL166  LYS551  ARG553  GLY616  TRP617  ASP618  TYR619  PRO620  LYS621  CYS622 
 ASP623  PHE694  ASN695  SER759  ASP760  ASP761  ALA762  ILE779  LEU786  VAL792 
 PHE793  MET794  SER795  GLU796  ALA797  LYS798  CYS799  TRP800  GLU811  SER814 

> <Gold.Protein.RotatedAtoms>
  152.3589  134.6901  160.0213 H   0  0  0  0  0  0  0  0  0  0  0  0  # atno 6907 bound_to 6896
  151.7231  133.3309  159.3328 H   0  0  0  0  0  0  0  0  0  0  0  0  # atno 6908 bound_to 6896
  150.7590  134.6364  159.6258 H   0  0  0  0  0  0  0  0  0  0  0  0  # atno 6909 bound_to 6896
  145.8548  139.3276  143.0854 H   0  0  0  0  0  0  0  0  0  0  0  0  # atno 7974 bound_to 7965
  156.1510  140.1579  156.8770 H   0  0  0  0  0  0  0  0  0  0  0  0  # atno 8008 bound_to 7997
  154.5071  140.0810  156.7953 H   0  0  0  0  0  0  0  0  0  0  0  0  # atno 8009 bound_to 7997
  155.3896  140.3409  155.4253 H   0  0  0  0  0  0  0  0  0  0  0  0  # atno 8010 bound_to 7997
  139.9754  143.5800  152.2398 H   0  0  0  0  0  0  0  0  0  0  0  0  # atno 10167 bound_to 10162
  156.4244  130.8045  151.2269 H   0  0  0  0  0  0  0  0  0  0  0  0  # atno 10718 bound_to 10713
  154.3957  135.6042  153.5868 H   0  0  0  0  0  0  0  0  0  0  0  0  # atno 10763 bound_to 10752
  152.9787  135.5894  154.4244 H   0  0  0  0  0  0  0  0  0  0  0  0  # atno 10764 bound_to 10752
  154.4035  135.2843  155.2060 H   0  0  0  0  0  0  0  0  0  0  0  0  # atno 10765 bound_to 10752
  140.6452  133.9454  155.8348 H   0  0  0  0  0  0  0  0  0  0  0  0  # atno 11005 bound_to 11000
  145.9317  140.9044  143.0353 LP  0  0  0  0  0  0  0  0  0  0  0  0  # atno 17320 bound_to 7965
  144.6728  140.1427  143.7436 LP  0  0  0  0  0  0  0  0  0  0  0  0  # atno 17321 bound_to 7965
  139.6450  144.7657  151.2263 LP  0  0  0  0  0  0  0  0  0  0  0  0  # atno 17342 bound_to 10162
  140.7508  143.6254  150.8473 LP  0  0  0  0  0  0  0  0  0  0  0  0  # atno 17343 bound_to 10162
  157.7508  131.0218  150.3764 LP  0  0  0  0  0  0  0  0  0  0  0  0  # atno 17370 bound_to 10713
  156.4089  130.3930  149.6906 LP  0  0  0  0  0  0  0  0  0  0  0  0  # atno 17371 bound_to 10713
  141.0577  134.0392  157.3700 LP  0  0  0  0  0  0  0  0  0  0  0  0  # atno 17394 bound_to 11000
  139.9065  135.0181  156.7510 LP  0  0  0  0  0  0  0  0  0  0  0  0  # atno 17395 bound_to 11000

$$$$
