AV-unprocessed.smi:3198|AV-procd|sdf|12227|dock1
  -GOLD-   2272018 63D 1   1.00000     0.00000
 Structure written by MMmdl.
 38 39  0  0  0  0  0  0  0  0  2 V2000
  141.6342  138.1257  153.1010 C   0  0  0  0  0  0  0  0  0  0  0  0
  142.7150  137.0879  152.8842 C   0  0  0  0  0  0  0  0  0  0  0  0
  142.4481  135.7035  152.9118 C   0  0  0  0  0  0  0  0  0  0  0  0
  143.5072  134.7975  152.7026 C   0  0  0  0  0  0  0  0  0  0  0  0
  144.8076  135.2929  152.4733 C   0  0  0  0  0  0  0  0  0  0  0  0
  145.0244  136.6918  152.4565 C   0  0  0  0  0  0  0  0  0  0  0  0
  146.2707  137.2939  152.2428 N   0  0  0  0  0  0  0  0  0  0  0  0
  146.3903  138.7436  152.2441 C   0  0  0  0  0  0  0  0  0  0  0  0
  147.0174  139.2523  153.5459 C   0  0  0  0  0  0  0  0  0  0  0  0
  148.3146  138.6956  153.6777 O   0  0  0  0  0  0  0  0  0  0  0  0
  149.2358  139.5850  154.2863 C   0  0  0  0  0  0  0  0  0  0  0  0
  150.6277  138.9408  154.2762 C   0  0  2  0  0  0  0  0  0  0  0  0
  150.7782  137.7792  155.2573 C   0  0  0  0  0  0  0  0  0  0  0  0
  152.2686  137.7573  155.5626 C   0  0  0  0  0  0  0  0  0  0  0  0
  152.7770  139.1044  155.0412 C   0  0  0  0  0  0  0  0  0  0  0  0
  151.6058  139.8531  154.7483 O   0  0  0  0  0  0  0  0  0  0  0  0
  143.9759  137.5209  152.6599 N   0  3  0  0  0  0  0  0  0  0  0  0
  140.6576  137.6567  153.2255 H   0  0  0  0  0  0  0  0  0  0  0  0
  141.5794  138.8025  152.2480 H   0  0  0  0  0  0  0  0  0  0  0  0
  141.8464  138.7134  153.9944 H   0  0  0  0  0  0  0  0  0  0  0  0
  141.4472  135.3380  153.0904 H   0  0  0  0  0  0  0  0  0  0  0  0
  143.3245  133.7332  152.7182 H   0  0  0  0  0  0  0  0  0  0  0  0
  145.6165  134.5959  152.3122 H   0  0  0  0  0  0  0  0  0  0  0  0
  147.0230  136.7519  151.8425 H   0  0  0  0  0  0  0  0  0  0  0  0
  146.9842  139.0713  151.3900 H   0  0  0  0  0  0  0  0  0  0  0  0
  145.3946  139.1738  152.1321 H   0  0  0  0  0  0  0  0  0  0  0  0
  147.0914  140.3403  153.5112 H   0  0  0  0  0  0  0  0  0  0  0  0
  146.3929  138.9941  154.4030 H   0  0  0  0  0  0  0  0  0  0  0  0
  149.2532  140.5447  153.7672 H   0  0  0  0  0  0  0  0  0  0  0  0
  148.9251  139.7717  155.3156 H   0  0  0  0  0  0  0  0  0  0  0  0
  150.8913  138.6101  153.2695 H   0  0  0  0  0  0  0  0  0  0  0  0
  150.2229  137.9857  156.1735 H   0  0  0  0  0  0  0  0  0  0  0  0
  150.4144  136.8355  154.8502 H   0  0  0  0  0  0  0  0  0  0  0  0
  152.4433  137.6484  156.6337 H   0  0  0  0  0  0  0  0  0  0  0  0
  152.7714  136.9335  155.0547 H   0  0  0  0  0  0  0  0  0  0  0  0
  153.4056  139.6241  155.7647 H   0  0  0  0  0  0  0  0  0  0  0  0
  153.3535  138.9683  154.1249 H   0  0  0  0  0  0  0  0  0  0  0  0
  144.1434  138.5271  152.6459 H   0  0  0  0  0  0  0  0  0  0  0  0
  1  2  1  0  0  0  0
  1 18  1  0  0  0  0
  1 19  1  0  0  0  0
  1 20  1  0  0  0  0
  2 17  1  0  0  0  0
  2  3  2  0  0  0  0
  3  4  1  0  0  0  0
  3 21  1  0  0  0  0
  4  5  2  0  0  0  0
  4 22  1  0  0  0  0
  5  6  1  0  0  0  0
  5 23  1  0  0  0  0
  6  7  1  0  0  0  0
  6 17  2  0  0  0  0
  7  8  1  0  0  0  0
  7 24  1  0  0  0  0
  8  9  1  0  0  0  0
  8 25  1  0  0  0  0
  8 26  1  0  0  0  0
  9 10  1  0  0  0  0
  9 27  1  0  0  0  0
  9 28  1  0  0  0  0
 10 11  1  0  0  0  0
 11 12  1  0  0  0  0
 11 29  1  0  0  0  0
 11 30  1  0  0  0  0
 12 16  1  0  0  0  0
 12 13  1  0  0  0  0
 12 31  1  0  0  0  0
 13 14  1  0  0  0  0
 13 32  1  0  0  0  0
 13 33  1  0  0  0  0
 14 15  1  0  0  0  0
 14 34  1  0  0  0  0
 14 35  1  0  0  0  0
 15 16  1  0  0  0  0
 15 36  1  0  0  0  0
 15 37  1  0  0  0  0
 17 38  1  0  0  0  0
M  CHG  1  17   1
M  END
> <s_m_source_file>
AV-unprocessed.smi

> <i_m_source_file_index>
3198

> <i_lp_mmshare_version>
43012

> <i_f3d_flags>
0

> <s_epik_input>
W0NIM11jMVtjSF1bY0hdW2NIXWMobjEpW05IXVtDSDJdW0NIMl1PW0NIMl1bQ0BASF0yW0NIMl1bQ0gyXVtDSDJdTzI=

> <s_epik_cmdline>
J2VwaWtfcHl0aG9uJywgJy1waCcsICc3LjAnLCAnLXRuJywgJzgnLCAnLW1hJywgJzIwMCcsICctbWV0YWxfYmluZGluZycsICctaW1hZScsICc8aW5maWxlLm1hZT4nLCAnLW9tYWUnLCAnPG91dGZpbGUubWFlPic=

> <r_lp_tautomer_probability>
0.999994

> <r_epik_Ionization_Penalty>
0.0710016

> <r_epik_Ionization_Penalty_Charging>
0.0710012

> <r_epik_Ionization_Penalty_Neutral>
3.47026e-07

> <r_epik_State_Penalty>
0.0622974

> <r_epik_Charging_Adjusted_Penalty>
0.133299

> <i_epik_Tot_Q>
1

> <i_epik_Tot_abs_Q>
1

> <r_epik_Metal_State_Penalty>
2.79497

> <b_epik_Metal_Only>
0

> <s_lp_Force_Field>
OPLS_2005

> <r_lp_Energy>
24.6681

> <b_lp_Chiralities_Consistent>
1

> <s_lp_Variant>
AV-unprocessed.smi:3198-1

> <Gold.Version>
5.8.1

> <Gold.Id.Protein>
6NUR|6NUR_protein|mol2

> <Gold.PLP.Fitness>
44.2429

> <Gold.PLP.PLP>
-30.4257

> <Gold.PLP.part.hbond>
-3.9541

> <Gold.PLP.part.metal>
0.0000

> <Gold.PLP.part.buried>
-2.6048

> <Gold.PLP.part.nonpolar>
-25.2869

> <Gold.PLP.part.repulsive>
0.5633

> <Gold.PLP.ligand.clash>
0.4332

> <Gold.PLP.ligand.torsion>
0.3920

> <Gold.PLP.Chemscore.Hbond>
5.0000

> <Gold.PLP.Chemscore.CHOScore>
0.0000

> <Gold.PLP.Chemscore.Metal>
0.0000

> <Gold.Chemscore.Hbonds>
donor molecule, donor type, donor heavy atom, donor atom, acceptor molecule, acceptor atom, score
      L1  H     7    24       P1  7948  1.98
      L1  H    17    38       P1 10175  2.00
      P1  H  7989  7998       L1    16  1.00

> <Gold.PLP.Chemscore.Internal.Correction>
0.0344

> <Gold.Rescore>
     Score         DG    S(hbond)    S(metal)    S(lipo)     H(rot)  DE(clash)    DE(int)     intcor
     17.61     -18.16       2.69        0.00      68.95       1.71       0.03       0.52       ----

> <Gold.Chemscore.Fitness>
17.6098

> <Gold.Chemscore.DG>
-18.1573

> <Gold.Chemscore.ZeroCoef>
-5.4800

> <Gold.Chemscore.Hbond>
2.6881

> <Gold.Chemscore.Metal>
0.0000

> <Gold.Chemscore.Lipo>
68.9505

> <Gold.Chemscore.Internal_Hbond>
0.0000

> <Gold.Chemscore.DEClash>
0.0250

> <Gold.Chemscore.DEInternal>
0.5224

> <Gold.Chemscore.Rot>
1.7063

> <Gold.Chemscore.Internal.Correction>
   9.000000E+99

> <Gold.Chemscore.Hbonds>
donor molecule, donor type, donor heavy atom, donor atom, acceptor molecule, acceptor atom, score
      L1  H     7    24       P1  7948  0.92
      L1  H    17    38       P1 10175  0.95
      P1  H  7989  7998       L1    16  0.24

> <Gold.Chemscore.Hbond.Weighted>
-8.9782

> <Gold.Chemscore.Metal.Weighted>
-0.0000

> <Gold.Chemscore.Lipo.Weighted>
-8.0672

> <Gold.Chemscore.Internal_Hbond.Weighted>
0.0000

> <Gold.Chemscore.DEClash.Weighted>
0.0250

> <Gold.Chemscore.DEInternal.Weighted>
0.5224

> <Gold.Chemscore.Rot.Weighted>
4.3681

> <Gold.Chemscore.Internal.Correction.Weighted>
   9.000000E+99

> <Gold.Protein.RotatedTorsions>
[ 6907 6896 6895 6894 ] final   68.45 input  -60.11 | X-H torsion
[ 7974 7965 7964 7962 ] final   64.39 input  175.53 | X-H torsion
[ 8008 7997 7996 7995 ] final -141.74 input   59.86 | X-H torsion
[ 10167 10162 10161 10158 ] final  112.17 input  -65.29 | X-H torsion
[ 10718 10713 10712 10709 ] final   70.65 input   66.30 | X-H torsion
[ 10763 10752 10751 10750 ] final -144.67 input  -60.55 | X-H torsion
[ 11005 11000 10999 10996 ] final  -27.16 input  -57.11 | X-H torsion

> <Gold.Protein.ActiveResidues>
 VAL166  LYS551  ARG553  GLY616  TRP617  ASP618  TYR619  PRO620  LYS621  CYS622 
 ASP623  PHE694  ASN695  SER759  ASP760  ASP761  ALA762  ILE779  LEU786  VAL792 
 PHE793  MET794  SER795  GLU796  ALA797  LYS798  CYS799  TRP800  GLU811  SER814 

> <Gold.Protein.RotatedAtoms>
  152.4621  134.5160  159.9768 H   0  0  0  0  0  0  0  0  0  0  0  0  # atno 6907 bound_to 6896
  151.5207  133.3461  159.2908 H   0  0  0  0  0  0  0  0  0  0  0  0  # atno 6908 bound_to 6896
  150.8588  134.7964  159.7129 H   0  0  0  0  0  0  0  0  0  0  0  0  # atno 6909 bound_to 6896
  145.8508  139.3253  143.0876 H   0  0  0  0  0  0  0  0  0  0  0  0  # atno 7974 bound_to 7965
  155.4827  140.0561  157.2965 H   0  0  0  0  0  0  0  0  0  0  0  0  # atno 8008 bound_to 7997
  154.4654  140.2016  156.0085 H   0  0  0  0  0  0  0  0  0  0  0  0  # atno 8009 bound_to 7997
  156.0964  140.3225  155.7888 H   0  0  0  0  0  0  0  0  0  0  0  0  # atno 8010 bound_to 7997
  139.6556  144.7129  151.1964 H   0  0  0  0  0  0  0  0  0  0  0  0  # atno 10167 bound_to 10162
  157.6411  130.9488  150.0680 H   0  0  0  0  0  0  0  0  0  0  0  0  # atno 10718 bound_to 10713
  154.8418  135.3434  154.6383 H   0  0  0  0  0  0  0  0  0  0  0  0  # atno 10763 bound_to 10752
  153.6994  135.6970  153.5072 H   0  0  0  0  0  0  0  0  0  0  0  0  # atno 10764 bound_to 10752
  153.2534  135.4346  155.0776 H   0  0  0  0  0  0  0  0  0  0  0  0  # atno 10765 bound_to 10752
  140.9094  133.7471  156.0650 H   0  0  0  0  0  0  0  0  0  0  0  0  # atno 11005 bound_to 11000
  145.9360  140.9014  143.0332 LP  0  0  0  0  0  0  0  0  0  0  0  0  # atno 17320 bound_to 7965
  144.6729  140.1483  143.7432 LP  0  0  0  0  0  0  0  0  0  0  0  0  # atno 17321 bound_to 7965
  140.7557  143.6078  150.8635 LP  0  0  0  0  0  0  0  0  0  0  0  0  # atno 17342 bound_to 10162
  139.9731  143.6035  152.2967 LP  0  0  0  0  0  0  0  0  0  0  0  0  # atno 17343 bound_to 10162
  156.1693  130.3646  149.9188 LP  0  0  0  0  0  0  0  0  0  0  0  0  # atno 17370 bound_to 10713
  156.7167  130.8991  151.3614 LP  0  0  0  0  0  0  0  0  0  0  0  0  # atno 17371 bound_to 10713
  140.8129  134.3378  157.5406 LP  0  0  0  0  0  0  0  0  0  0  0  0  # atno 17394 bound_to 11000
  139.8755  134.9265  156.3400 LP  0  0  0  0  0  0  0  0  0  0  0  0  # atno 17395 bound_to 11000

$$$$
