AV-unprocessed.smi:2180|AV-procd|sdf|8860|dock1
  -GOLD-   2272012 53D 1   1.00000     0.00000
 Structure written by MMmdl.
 39 40  0  0  0  0  0  0  0  0  1 V2000
  151.6900  145.2406  159.0993 C   0  0  0  0  0  0  0  0  0  0  0  0
  152.1700  143.8369  159.3230 C   0  0  0  0  0  0  0  0  0  0  0  0
  152.8387  143.3036  160.4602 C   0  0  0  0  0  0  0  0  0  0  0  0
  153.0385  141.9882  160.1486 C   0  0  0  0  0  0  0  0  0  0  0  0
  153.6846  140.8976  160.9385 C   0  0  0  0  0  0  0  0  0  0  0  0
  152.5053  141.7893  158.8874 N   0  0  0  0  0  0  0  0  0  0  0  0
  152.4416  140.5673  158.0991 C   0  0  0  0  0  0  0  0  0  0  0  0
  151.0404  140.3401  157.5272 C   0  0  0  0  0  0  0  0  0  0  0  0
  150.0918  140.1373  158.2848 O   0  0  0  0  0  0  0  0  0  0  0  0
  150.9266  140.3715  156.1893 N   0  0  0  0  0  0  0  0  0  0  0  0
  149.6899  140.1799  155.4306 C   0  0  1  0  0  0  0  0  0  0  0  0
  149.3595  141.5247  154.7439 C   0  0  0  0  0  0  0  0  0  0  0  0
  147.8783  141.6784  154.3578 C   0  0  0  0  0  0  0  0  0  0  0  0
  147.3826  140.6960  153.2860 C   0  0  0  0  0  0  0  0  0  0  0  0
  147.4570  139.2212  153.7165 C   0  0  0  0  0  0  0  0  0  0  0  0
  148.8125  138.6925  153.6359 N   0  0  0  0  0  0  0  0  0  0  0  0
  149.8766  139.0886  154.3508 C   0  0  0  0  0  0  0  0  0  0  0  0
  150.9833  138.5904  154.1444 O   0  0  0  0  0  0  0  0  0  0  0  0
  151.9752  142.9260  158.3842 N   0  0  0  0  0  0  0  0  0  0  0  0
  152.0210  145.9027  159.8995 H   0  0  0  0  0  0  0  0  0  0  0  0
  150.6010  145.2805  159.0647 H   0  0  0  0  0  0  0  0  0  0  0  0
  152.0692  145.6419  158.1591 H   0  0  0  0  0  0  0  0  0  0  0  0
  153.1254  143.8104  161.3698 H   0  0  0  0  0  0  0  0  0  0  0  0
  154.0538  141.2737  161.8928 H   0  0  0  0  0  0  0  0  0  0  0  0
  154.5297  140.4724  160.3970 H   0  0  0  0  0  0  0  0  0  0  0  0
  152.9760  140.0956  161.1467 H   0  0  0  0  0  0  0  0  0  0  0  0
  153.1641  140.6207  157.2832 H   0  0  0  0  0  0  0  0  0  0  0  0
  152.7338  139.7244  158.7263 H   0  0  0  0  0  0  0  0  0  0  0  0
  151.7655  140.5376  155.6521 H   0  0  0  0  0  0  0  0  0  0  0  0
  148.8876  139.8982  156.1149 H   0  0  0  0  0  0  0  0  0  0  0  0
  149.5945  142.3399  155.4306 H   0  0  0  0  0  0  0  0  0  0  0  0
  149.9967  141.6869  153.8726 H   0  0  0  0  0  0  0  0  0  0  0  0
  147.2597  141.5836  155.2510 H   0  0  0  0  0  0  0  0  0  0  0  0
  147.7193  142.6942  153.9945 H   0  0  0  0  0  0  0  0  0  0  0  0
  146.3431  140.9377  153.0619 H   0  0  0  0  0  0  0  0  0  0  0  0
  147.9313  140.8453  152.3551 H   0  0  0  0  0  0  0  0  0  0  0  0
  147.0488  139.0794  154.7182 H   0  0  0  0  0  0  0  0  0  0  0  0
  146.8401  138.6218  153.0466 H   0  0  0  0  0  0  0  0  0  0  0  0
  148.9677  137.9702  152.9475 H   0  0  0  0  0  0  0  0  0  0  0  0
  1  2  1  0  0  0  0
  1 20  1  0  0  0  0
  1 21  1  0  0  0  0
  1 22  1  0  0  0  0
  2 19  2  0  0  0  0
  2  3  1  0  0  0  0
  3  4  2  0  0  0  0
  3 23  1  0  0  0  0
  4  5  1  0  0  0  0
  4  6  1  0  0  0  0
  5 24  1  0  0  0  0
  5 25  1  0  0  0  0
  5 26  1  0  0  0  0
  6  7  1  0  0  0  0
  6 19  1  0  0  0  0
  7  8  1  0  0  0  0
  7 27  1  0  0  0  0
  7 28  1  0  0  0  0
  8  9  2  0  0  0  0
  8 10  1  0  0  0  0
 10 11  1  0  0  0  0
 10 29  1  0  0  0  0
 11 17  1  0  0  0  0
 11 12  1  0  0  0  0
 11 30  1  0  0  0  0
 12 13  1  0  0  0  0
 12 31  1  0  0  0  0
 12 32  1  0  0  0  0
 13 14  1  0  0  0  0
 13 33  1  0  0  0  0
 13 34  1  0  0  0  0
 14 15  1  0  0  0  0
 14 35  1  0  0  0  0
 14 36  1  0  0  0  0
 15 16  1  0  0  0  0
 15 37  1  0  0  0  0
 15 38  1  0  0  0  0
 16 17  1  0  0  0  0
 16 39  1  0  0  0  0
 17 18  2  0  0  0  0
M  END
> <s_m_source_file>
AV-unprocessed.smi

> <i_m_source_file_index>
2180

> <i_lp_mmshare_version>
43012

> <i_f3d_flags>
0

> <s_epik_input>
W0NIM11jMVtjSF1jKFtDSDNdKW4objEpW0NIMl1DKD1PKVtOSF1bQ0BASF0yW0NIMl1bQ0gyXVtDSDJdW0NIMl1bTkhdQzI9Tw==

> <s_epik_cmdline>
J2VwaWtfcHl0aG9uJywgJy1waCcsICc3LjAnLCAnLXRuJywgJzgnLCAnLW1hJywgJzIwMCcsICctbWV0YWxfYmluZGluZycsICctaW1hZScsICc8aW5maWxlLm1hZT4nLCAnLW9tYWUnLCAnPG91dGZpbGUubWFlPic=

> <r_lp_tautomer_probability>
1

> <r_epik_Ionization_Penalty>
0.000287215

> <r_epik_Ionization_Penalty_Charging>
0

> <r_epik_Ionization_Penalty_Neutral>
0.000287215

> <r_epik_State_Penalty>
-0

> <r_epik_Charging_Adjusted_Penalty>
0

> <i_epik_Tot_Q>
0

> <i_epik_Tot_abs_Q>
0

> <r_epik_Metal_State_Penalty>
-0

> <b_epik_Metal_Only>
0

> <s_lp_Force_Field>
OPLS_2005

> <r_lp_Energy>
9.48422

> <b_lp_Chiralities_Consistent>
1

> <s_lp_Variant>
AV-unprocessed.smi:2180-2

> <Gold.Version>
5.8.1

> <Gold.Id.Protein>
6NUR|6NUR_protein|mol2

> <Gold.PLP.Fitness>
44.7269

> <Gold.PLP.PLP>
-42.1387

> <Gold.PLP.part.hbond>
-2.0000

> <Gold.PLP.part.metal>
0.0000

> <Gold.PLP.part.buried>
-3.4138

> <Gold.PLP.part.nonpolar>
-36.8654

> <Gold.PLP.part.repulsive>
0.3881

> <Gold.PLP.ligand.clash>
0.0000

> <Gold.PLP.ligand.torsion>
0.2092

> <Gold.PLP.Chemscore.Hbond>
1.0000

> <Gold.PLP.Chemscore.CHOScore>
0.0000

> <Gold.PLP.Chemscore.Metal>
0.0000

> <Gold.Chemscore.Hbonds>
donor molecule, donor type, donor heavy atom, donor atom, acceptor molecule, acceptor atom, score
      L1  H    16    39       P1  7948  1.00

> <Gold.PLP.Chemscore.Internal.Correction>
0.0067

> <Gold.Rescore>
     Score         DG    S(hbond)    S(metal)    S(lipo)     H(rot)  DE(clash)    DE(int)     intcor
     16.58     -16.67       0.99        0.00      99.72       1.48       0.03       0.06       ----

> <Gold.Chemscore.Fitness>
16.5778

> <Gold.Chemscore.DG>
-16.6676

> <Gold.Chemscore.ZeroCoef>
-5.4800

> <Gold.Chemscore.Hbond>
0.9938

> <Gold.Chemscore.Metal>
0.0000

> <Gold.Chemscore.Lipo>
99.7225

> <Gold.Chemscore.Internal_Hbond>
0.0000

> <Gold.Chemscore.DEClash>
0.0336

> <Gold.Chemscore.DEInternal>
0.0562

> <Gold.Chemscore.Rot>
1.4840

> <Gold.Chemscore.Internal.Correction>
   9.000000E+99

> <Gold.Chemscore.Hbonds>
donor molecule, donor type, donor heavy atom, donor atom, acceptor molecule, acceptor atom, score
      L1  H    16    39       P1  7948  0.94

> <Gold.Chemscore.Hbond.Weighted>
-3.3192

> <Gold.Chemscore.Metal.Weighted>
-0.0000

> <Gold.Chemscore.Lipo.Weighted>
-11.6675

> <Gold.Chemscore.Internal_Hbond.Weighted>
0.0000

> <Gold.Chemscore.DEClash.Weighted>
0.0336

> <Gold.Chemscore.DEInternal.Weighted>
0.0562

> <Gold.Chemscore.Rot.Weighted>
3.7991

> <Gold.Chemscore.Internal.Correction.Weighted>
   9.000000E+99

> <Gold.Protein.RotatedTorsions>
[ 6907 6896 6895 6894 ] final  -57.64 input  -60.11 | X-H torsion
[ 7974 7965 7964 7962 ] final  -79.22 input  175.53 | X-H torsion
[ 8008 7997 7996 7995 ] final -149.23 input   59.86 | X-H torsion
[ 10167 10162 10161 10158 ] final  -28.53 input  -65.29 | X-H torsion
[ 10718 10713 10712 10709 ] final   57.92 input   66.30 | X-H torsion
[ 10763 10752 10751 10750 ] final    1.81 input  -60.55 | X-H torsion
[ 11005 11000 10999 10996 ] final  -83.77 input  -57.11 | X-H torsion

> <Gold.Protein.ActiveResidues>
 VAL166  LYS551  ARG553  GLY616  TRP617  ASP618  TYR619  PRO620  LYS621  CYS622 
 ASP623  PHE694  ASN695  SER759  ASP760  ASP761  ALA762  ILE779  LEU786  VAL792 
 PHE793  MET794  SER795  GLU796  ALA797  LYS798  CYS799  TRP800  GLU811  SER814 

> <Gold.Protein.RotatedAtoms>
  150.8069  134.7200  159.6652 H   0  0  0  0  0  0  0  0  0  0  0  0  # atno 6907 bound_to 6896
  152.4189  134.5988  160.0004 H   0  0  0  0  0  0  0  0  0  0  0  0  # atno 6908 bound_to 6896
  151.6209  133.3302  159.3124 H   0  0  0  0  0  0  0  0  0  0  0  0  # atno 6909 bound_to 6896
  145.5761  140.9457  143.1369 H   0  0  0  0  0  0  0  0  0  0  0  0  # atno 7974 bound_to 7965
  155.6044  140.0665  157.2724 H   0  0  0  0  0  0  0  0  0  0  0  0  # atno 8008 bound_to 7997
  154.4270  140.1812  156.1254 H   0  0  0  0  0  0  0  0  0  0  0  0  # atno 8009 bound_to 7997
  156.0134  140.3324  155.6967 H   0  0  0  0  0  0  0  0  0  0  0  0  # atno 8010 bound_to 7997
  140.7269  143.4002  151.1277 H   0  0  0  0  0  0  0  0  0  0  0  0  # atno 10167 bound_to 10162
  157.5554  130.8796  149.9027 H   0  0  0  0  0  0  0  0  0  0  0  0  # atno 10718 bound_to 10713
  153.3034  135.6957  153.7182 H   0  0  0  0  0  0  0  0  0  0  0  0  # atno 10763 bound_to 10752
  153.6087  135.3448  155.2972 H   0  0  0  0  0  0  0  0  0  0  0  0  # atno 10764 bound_to 10752
  154.8557  135.4358  154.2152 H   0  0  0  0  0  0  0  0  0  0  0  0  # atno 10765 bound_to 10752
  141.1655  133.7311  156.8770 H   0  0  0  0  0  0  0  0  0  0  0  0  # atno 11005 bound_to 11000
  144.7415  139.7435  143.7309 LP  0  0  0  0  0  0  0  0  0  0  0  0  # atno 17320 bound_to 7965
  146.1750  139.4916  142.9903 LP  0  0  0  0  0  0  0  0  0  0  0  0  # atno 17321 bound_to 7965
  139.7621  143.8620  152.3102 LP  0  0  0  0  0  0  0  0  0  0  0  0  # atno 17342 bound_to 10162
  139.8509  144.7165  150.9215 LP  0  0  0  0  0  0  0  0  0  0  0  0  # atno 17343 bound_to 10162
  156.0614  130.3699  150.0974 LP  0  0  0  0  0  0  0  0  0  0  0  0  # atno 17370 bound_to 10713
  156.9143  130.9662  151.3558 LP  0  0  0  0  0  0  0  0  0  0  0  0  # atno 17371 bound_to 10713
  140.1742  134.9079  157.2870 LP  0  0  0  0  0  0  0  0  0  0  0  0  # atno 17394 bound_to 11000
  140.2468  134.3730  155.7458 LP  0  0  0  0  0  0  0  0  0  0  0  0  # atno 17395 bound_to 11000

$$$$
