AV-unprocessed.smi:129|AV-procd|sdf|1157|dock2
  -GOLD-   2262018293D 1   1.00000     0.00000
 Structure written by MMmdl.
 58 61  0  0  0  0  0  0  0  0  1 V2000
  151.0991  141.2403  156.1308 C   0  0  0  0  0  0  0  0  0  0  0  0
  151.6596  141.2372  157.4356 O   0  0  0  0  0  0  0  0  0  0  0  0
  151.8746  142.4499  158.0602 C   0  0  0  0  0  0  0  0  0  0  0  0
  151.4430  143.6912  157.5258 C   0  0  0  0  0  0  0  0  0  0  0  0
  151.6891  144.8928  158.2149 C   0  0  0  0  0  0  0  0  0  0  0  0
  152.3612  144.8714  159.4486 C   0  0  0  0  0  0  0  0  0  0  0  0
  152.7946  143.6484  159.9906 C   0  0  0  0  0  0  0  0  0  0  0  0
  152.5687  142.4359  159.2945 C   0  0  0  0  0  0  0  0  0  0  0  0
  152.9721  141.1715  159.8079 N   0  0  0  0  0  0  0  0  0  0  0  0
  153.7719  140.9065  160.8587 C   0  0  0  0  0  0  0  0  0  0  0  0
  154.2541  141.7558  161.6082 O   0  0  0  0  0  0  0  0  0  0  0  0
  154.0199  139.4466  161.1151 C   0  0  0  0  0  0  0  0  0  0  0  0
  154.3496  139.0071  162.4158 C   0  0  0  0  0  0  0  0  0  0  0  0
  154.6153  137.6474  162.6651 C   0  0  0  0  0  0  0  0  0  0  0  0
  154.5562  136.7018  161.6217 C   0  0  0  0  0  0  0  0  0  0  0  0
  154.8658  135.3541  161.9505 N   0  0  0  0  0  0  0  0  0  0  0  0
  154.8844  134.2708  161.1530 C   0  0  0  0  0  0  0  0  0  0  0  0
  154.5778  134.2758  159.9600 O   0  0  0  0  0  0  0  0  0  0  0  0
  155.2991  132.9638  161.8481 C   0  0  0  0  0  0  0  0  0  0  0  0
  154.3954  132.5625  162.9486 N   0  0  0  0  0  0  0  0  0  0  0  0
  154.3898  133.3313  164.1389 C   0  0  0  0  0  0  0  0  0  0  0  0
  155.1223  134.3132  164.2684 O   0  0  0  0  0  0  0  0  0  0  0  0
  153.4660  132.8822  165.1739 C   0  0  0  0  0  0  0  0  0  0  0  0
  153.4058  133.5418  166.3432 F   0  0  0  0  0  0  0  0  0  0  0  0
  152.6692  131.8115  164.9785 C   0  0  0  0  0  0  0  0  0  0  0  0
  152.6703  131.0818  163.8028 N   0  0  0  0  0  0  0  0  0  0  0  0
  151.7631  129.8870  163.5950 C   0  0  2  0  0  0  0  0  0  0  0  0
  150.2840  130.3178  163.6205 C   0  0  0  0  0  0  0  0  0  0  0  0
  149.6762  129.3748  164.6401 C   0  0  0  0  0  0  0  0  0  0  0  0
  150.8591  129.0911  165.5532 C   0  0  0  0  0  0  0  0  0  0  0  0
  151.9386  128.9688  164.6365 O   0  0  0  0  0  0  0  0  0  0  0  0
  153.5481  131.4449  162.7584 C   0  0  0  0  0  0  0  0  0  0  0  0
  153.5675  130.8053  161.7043 O   0  0  0  0  0  0  0  0  0  0  0  0
  154.2476  137.1415  160.3120 C   0  0  0  0  0  0  0  0  0  0  0  0
  153.9811  138.5022  160.0633 C   0  0  0  0  0  0  0  0  0  0  0  0
  150.9925  140.2128  155.7836 H   0  0  0  0  0  0  0  0  0  0  0  0
  151.7425  141.7625  155.4216 H   0  0  0  0  0  0  0  0  0  0  0  0
  150.1074  141.6945  156.1232 H   0  0  0  0  0  0  0  0  0  0  0  0
  150.9171  143.7502  156.5852 H   0  0  0  0  0  0  0  0  0  0  0  0
  151.3547  145.8319  157.7993 H   0  0  0  0  0  0  0  0  0  0  0  0
  152.5397  145.7925  159.9835 H   0  0  0  0  0  0  0  0  0  0  0  0
  153.2868  143.6629  160.9508 H   0  0  0  0  0  0  0  0  0  0  0  0
  152.7019  140.3745  159.2499 H   0  0  0  0  0  0  0  0  0  0  0  0
  154.4019  139.7110  163.2341 H   0  0  0  0  0  0  0  0  0  0  0  0
  154.8663  137.3331  163.6678 H   0  0  0  0  0  0  0  0  0  0  0  0
  155.0477  135.1812  162.9285 H   0  0  0  0  0  0  0  0  0  0  0  0
  155.3639  132.1772  161.0945 H   0  0  0  0  0  0  0  0  0  0  0  0
  156.3251  133.0720  162.2034 H   0  0  0  0  0  0  0  0  0  0  0  0
  152.0118  131.5307  165.7867 H   0  0  0  0  0  0  0  0  0  0  0  0
  152.0816  129.4348  162.6541 H   0  0  0  0  0  0  0  0  0  0  0  0
  150.1961  131.3520  163.9580 H   0  0  0  0  0  0  0  0  0  0  0  0
  149.8339  130.2284  162.6315 H   0  0  0  0  0  0  0  0  0  0  0  0
  148.8242  129.8058  165.1662 H   0  0  0  0  0  0  0  0  0  0  0  0
  149.3507  128.4541  164.1541 H   0  0  0  0  0  0  0  0  0  0  0  0
  151.0331  129.9256  166.2336 H   0  0  0  0  0  0  0  0  0  0  0  0
  150.7294  128.1849  166.1449 H   0  0  0  0  0  0  0  0  0  0  0  0
  154.2293  136.4585  159.4770 H   0  0  0  0  0  0  0  0  0  0  0  0
  153.7605  138.8116  159.0518 H   0  0  0  0  0  0  0  0  0  0  0  0
  1  2  1  0  0  0  0
  1 36  1  0  0  0  0
  1 37  1  0  0  0  0
  1 38  1  0  0  0  0
  2  3  1  0  0  0  0
  3  8  1  0  0  0  0
  3  4  2  0  0  0  0
  4  5  1  0  0  0  0
  4 39  1  0  0  0  0
  5  6  2  0  0  0  0
  5 40  1  0  0  0  0
  6  7  1  0  0  0  0
  6 41  1  0  0  0  0
  7  8  2  0  0  0  0
  7 42  1  0  0  0  0
  8  9  1  0  0  0  0
  9 10  1  0  0  0  0
  9 43  1  0  0  0  0
 10 11  2  0  0  0  0
 10 12  1  0  0  0  0
 12 35  1  0  0  0  0
 12 13  2  0  0  0  0
 13 14  1  0  0  0  0
 13 44  1  0  0  0  0
 14 15  2  0  0  0  0
 14 45  1  0  0  0  0
 15 16  1  0  0  0  0
 15 34  1  0  0  0  0
 16 17  1  0  0  0  0
 16 46  1  0  0  0  0
 17 18  2  0  0  0  0
 17 19  1  0  0  0  0
 19 20  1  0  0  0  0
 19 47  1  0  0  0  0
 19 48  1  0  0  0  0
 20 32  1  0  0  0  0
 20 21  1  0  0  0  0
 21 22  2  0  0  0  0
 21 23  1  0  0  0  0
 23 24  1  0  0  0  0
 23 25  2  0  0  0  0
 25 26  1  0  0  0  0
 25 49  1  0  0  0  0
 26 27  1  0  0  0  0
 26 32  1  0  0  0  0
 27 31  1  0  0  0  0
 27 28  1  0  0  0  0
 27 50  1  0  0  0  0
 28 29  1  0  0  0  0
 28 51  1  0  0  0  0
 28 52  1  0  0  0  0
 29 30  1  0  0  0  0
 29 53  1  0  0  0  0
 29 54  1  0  0  0  0
 30 31  1  0  0  0  0
 30 55  1  0  0  0  0
 30 56  1  0  0  0  0
 32 33  2  0  0  0  0
 34 35  2  0  0  0  0
 34 57  1  0  0  0  0
 35 58  1  0  0  0  0
M  END
> <s_m_source_file>
AV-unprocessed.smi

> <i_m_source_file_index>
129

> <i_lp_mmshare_version>
43012

> <i_f3d_flags>
0

> <s_epik_input>
W0NIM11PYzFbY0hdW2NIXVtjSF1bY0hdYzFbTkhdQyg9TyljMltjSF1bY0hdYyhbY0hdW2NIXTIpW05IXUMoPU8pW0NIMl1uM2MoPU8pYyhGKVtjSF1uKGMzPU8pW0NAQEhdNFtDSDJdW0NIMl1bQ0gyXU80

> <s_epik_cmdline>
J2VwaWtfcHl0aG9uJywgJy1waCcsICc3LjAnLCAnLXRuJywgJzgnLCAnLW1hJywgJzIwMCcsICctbWV0YWxfYmluZGluZycsICctaW1hZScsICc8aW5maWxlLm1hZT4nLCAnLW9tYWUnLCAnPG91dGZpbGUubWFlPic=

> <r_lp_tautomer_probability>
1

> <r_epik_Ionization_Penalty>
2.57954e-06

> <r_epik_Ionization_Penalty_Charging>
3.88729e-08

> <r_epik_Ionization_Penalty_Neutral>
2.54066e-06

> <r_epik_State_Penalty>
-0

> <r_epik_Charging_Adjusted_Penalty>
3.88729e-08

> <i_epik_Tot_Q>
0

> <i_epik_Tot_abs_Q>
0

> <r_epik_Metal_State_Penalty>
-0

> <b_epik_Metal_Only>
0

> <s_epik_Chemistry_Notes>
This compound contains an acetal/aminal-like group ( X-CH(R)-Y where X, Y are N, S, or O) that may be acid/base labile, releasing an aldehyde.

> <s_lp_Force_Field>
OPLS_2005

> <r_lp_Energy>
50.6218

> <b_lp_Chiralities_Consistent>
1

> <s_lp_Variant>
AV-unprocessed.smi:129-1

> <Gold.Version>
5.8.1

> <Gold.Id.Protein>
6NUR|6NUR_protein|mol2

> <Gold.PLP.Fitness>
59.9493

> <Gold.PLP.PLP>
-57.8146

> <Gold.PLP.part.hbond>
-2.0000

> <Gold.PLP.part.metal>
0.0000

> <Gold.PLP.part.buried>
-5.6586

> <Gold.PLP.part.nonpolar>
-51.3210

> <Gold.PLP.part.repulsive>
0.2343

> <Gold.PLP.ligand.clash>
0.0000

> <Gold.PLP.ligand.torsion>
0.5104

> <Gold.PLP.Chemscore.Hbond>
1.0000

> <Gold.PLP.Chemscore.CHOScore>
0.0000

> <Gold.PLP.Chemscore.Metal>
0.0000

> <Gold.Chemscore.Hbonds>
donor molecule, donor type, donor heavy atom, donor atom, acceptor molecule, acceptor atom, score
      P1  H  6896  6909       L1    18  1.00

> <Gold.PLP.Chemscore.Internal.Correction>
0.1555

> <Gold.Rescore>
     Score         DG    S(hbond)    S(metal)    S(lipo)     H(rot)  DE(clash)    DE(int)     intcor
     15.33     -20.48       0.65        0.00     152.06       1.94       0.61       4.54       ----

> <Gold.Chemscore.Fitness>
15.3297

> <Gold.Chemscore.DG>
-20.4772

> <Gold.Chemscore.ZeroCoef>
-5.4800

> <Gold.Chemscore.Hbond>
0.6529

> <Gold.Chemscore.Metal>
0.0000

> <Gold.Chemscore.Lipo>
152.0561

> <Gold.Chemscore.Internal_Hbond>
0.0000

> <Gold.Chemscore.DEClash>
0.6074

> <Gold.Chemscore.DEInternal>
4.5401

> <Gold.Chemscore.Rot>
1.9430

> <Gold.Chemscore.Internal.Correction>
   9.000000E+99

> <Gold.Chemscore.Hbonds>
donor molecule, donor type, donor heavy atom, donor atom, acceptor molecule, acceptor atom, score
      P1  H  6896  6909       L1    18  0.48

> <Gold.Chemscore.Hbond.Weighted>
-2.1808

> <Gold.Chemscore.Metal.Weighted>
-0.0000

> <Gold.Chemscore.Lipo.Weighted>
-17.7906

> <Gold.Chemscore.Internal_Hbond.Weighted>
0.0000

> <Gold.Chemscore.DEClash.Weighted>
0.6074

> <Gold.Chemscore.DEInternal.Weighted>
4.5401

> <Gold.Chemscore.Rot.Weighted>
4.9741

> <Gold.Chemscore.Internal.Correction.Weighted>
   9.000000E+99

> <Gold.Protein.RotatedTorsions>
[ 6907 6896 6895 6894 ] final -160.99 input  -60.11 | X-H torsion
[ 7974 7965 7964 7962 ] final  -39.76 input  175.53 | X-H torsion
[ 8008 7997 7996 7995 ] final  151.30 input   59.86 | X-H torsion
[ 10167 10162 10161 10158 ] final  161.65 input  -65.29 | X-H torsion
[ 10718 10713 10712 10709 ] final  -80.36 input   66.30 | X-H torsion
[ 10763 10752 10751 10750 ] final  119.41 input  -60.55 | X-H torsion
[ 11005 11000 10999 10996 ] final -127.15 input  -57.11 | X-H torsion

> <Gold.Protein.ActiveResidues>
 VAL166  LYS551  ARG553  GLY616  TRP617  ASP618  TYR619  PRO620  LYS621  CYS622 
 ASP623  PHE694  ASN695  SER759  ASP760  ASP761  ALA762  ILE779  LEU786  VAL792 
 PHE793  MET794  SER795  GLU796  ALA797  LYS798  CYS799  TRP800  GLU811  SER814 

> <Gold.Protein.RotatedAtoms>
  151.3577  133.3901  159.2686 H   0  0  0  0  0  0  0  0  0  0  0  0  # atno 6907 bound_to 6896
  150.9750  134.9117  159.7821 H   0  0  0  0  0  0  0  0  0  0  0  0  # atno 6908 bound_to 6896
  152.5198  134.3540  159.9313 H   0  0  0  0  0  0  0  0  0  0  0  0  # atno 6909 bound_to 6896
  146.0366  140.6662  142.9107 H   0  0  0  0  0  0  0  0  0  0  0  0  # atno 7974 bound_to 7965
  156.2680  140.2051  156.6153 H   0  0  0  0  0  0  0  0  0  0  0  0  # atno 8008 bound_to 7997
  154.6799  140.0541  157.0279 H   0  0  0  0  0  0  0  0  0  0  0  0  # atno 8009 bound_to 7997
  155.1015  140.3206  155.4548 H   0  0  0  0  0  0  0  0  0  0  0  0  # atno 8010 bound_to 7997
  139.4851  144.4515  151.8823 H   0  0  0  0  0  0  0  0  0  0  0  0  # atno 10167 bound_to 10162
  156.0072  130.4572  150.3789 H   0  0  0  0  0  0  0  0  0  0  0  0  # atno 10718 bound_to 10713
  153.5826  135.3481  155.2880 H   0  0  0  0  0  0  0  0  0  0  0  0  # atno 10763 bound_to 10752
  154.8665  135.4185  154.2604 H   0  0  0  0  0  0  0  0  0  0  0  0  # atno 10764 bound_to 10752
  153.3393  135.7049  153.6951 H   0  0  0  0  0  0  0  0  0  0  0  0  # atno 10765 bound_to 10752
  140.9623  134.0919  157.3956 H   0  0  0  0  0  0  0  0  0  0  0  0  # atno 11005 bound_to 11000
  144.7055  140.3833  143.7122 LP  0  0  0  0  0  0  0  0  0  0  0  0  # atno 17320 bound_to 7965
  145.6953  139.1648  143.2624 LP  0  0  0  0  0  0  0  0  0  0  0  0  # atno 17321 bound_to 7965
  140.3972  144.2540  150.5895 LP  0  0  0  0  0  0  0  0  0  0  0  0  # atno 17342 bound_to 10162
  140.5091  143.2296  151.8563 LP  0  0  0  0  0  0  0  0  0  0  0  0  # atno 17343 bound_to 10162
  157.1869  131.0406  151.2720 LP  0  0  0  0  0  0  0  0  0  0  0  0  # atno 17370 bound_to 10713
  157.4095  130.7377  149.6828 LP  0  0  0  0  0  0  0  0  0  0  0  0  # atno 17371 bound_to 10713
  139.8882  135.0096  156.6608 LP  0  0  0  0  0  0  0  0  0  0  0  0  # atno 17394 bound_to 11000
  140.7450  133.8946  155.8305 LP  0  0  0  0  0  0  0  0  0  0  0  0  # atno 17395 bound_to 11000

$$$$
