AV-unprocessed.smi:3257|AV-procd|sdf|12467|dock2
  -GOLD-   2272018363D 1   1.00000     0.00000
 Structure written by MMmdl.
 38 39  0  0  0  0  0  0  0  0  1 V2000
  146.6686  138.9742  152.8699 C   0  0  0  0  0  0  0  0  0  0  0  0
  147.3725  140.0312  153.5641 N   0  0  0  0  0  0  0  0  0  0  0  0
  148.5340  139.9504  154.3014 C   0  0  0  0  0  0  0  0  0  0  0  0
  148.8142  141.2053  154.7645 C   0  0  0  0  0  0  0  0  0  0  0  0
  149.9693  141.6586  155.6124 C   0  0  0  0  0  0  0  0  0  0  0  0
  149.6781  141.4698  157.1100 C   0  0  0  0  0  0  0  0  0  0  0  0
  150.6361  142.1932  157.9373 N   0  0  0  0  0  0  0  0  0  0  0  0
  151.6058  141.6305  158.6785 C   0  0  0  0  0  0  0  0  0  0  0  0
  151.7731  140.4107  158.7169 O   0  0  0  0  0  0  0  0  0  0  0  0
  152.3841  142.5100  159.3597 N   0  0  0  0  0  0  0  0  0  0  0  0
  152.0573  143.9162  159.6594 C   0  0  0  0  0  0  0  0  0  0  0  0
  151.7269  144.0416  161.1580 C   0  0  0  0  0  0  0  0  0  0  0  0
  152.8996  143.5302  162.0183 C   0  0  0  0  0  0  0  0  0  0  0  0
  152.5215  143.5043  163.3783 O   0  0  0  0  0  0  0  0  0  0  0  0
  153.3561  142.1260  161.5749 C   0  0  0  0  0  0  0  0  0  0  0  0
  153.6075  142.0880  160.0559 C   0  0  0  0  0  0  0  0  0  0  0  0
  147.7447  141.9931  154.2510 C   0  0  0  0  0  0  0  0  0  0  0  0
  146.8843  141.2883  153.5341 N   0  0  0  0  0  0  0  0  0  0  0  0
  147.2944  138.0829  152.8149 H   0  0  0  0  0  0  0  0  0  0  0  0
  146.4201  139.2942  151.8572 H   0  0  0  0  0  0  0  0  0  0  0  0
  145.7507  138.7314  153.4055 H   0  0  0  0  0  0  0  0  0  0  0  0
  149.0616  139.0171  154.4333 H   0  0  0  0  0  0  0  0  0  0  0  0
  150.8736  141.1101  155.3458 H   0  0  0  0  0  0  0  0  0  0  0  0
  150.1927  142.7084  155.4186 H   0  0  0  0  0  0  0  0  0  0  0  0
  148.6827  141.8472  157.3461 H   0  0  0  0  0  0  0  0  0  0  0  0
  149.6785  140.4099  157.3711 H   0  0  0  0  0  0  0  0  0  0  0  0
  150.5582  143.1996  157.9493 H   0  0  0  0  0  0  0  0  0  0  0  0
  152.9180  144.5409  159.4164 H   0  0  0  0  0  0  0  0  0  0  0  0
  151.2363  144.3181  159.0661 H   0  0  0  0  0  0  0  0  0  0  0  0
  151.5030  145.0796  161.4065 H   0  0  0  0  0  0  0  0  0  0  0  0
  150.8252  143.4674  161.3770 H   0  0  0  0  0  0  0  0  0  0  0  0
  153.7381  144.2204  161.9178 H   0  0  0  0  0  0  0  0  0  0  0  0
  152.7549  142.6628  163.7399 H   0  0  0  0  0  0  0  0  0  0  0  0
  154.2606  141.8378  162.1114 H   0  0  0  0  0  0  0  0  0  0  0  0
  152.5941  141.3882  161.8316 H   0  0  0  0  0  0  0  0  0  0  0  0
  153.9407  141.0925  159.7600 H   0  0  0  0  0  0  0  0  0  0  0  0
  154.4244  142.7616  159.7936 H   0  0  0  0  0  0  0  0  0  0  0  0
  147.5698  143.0513  154.3778 H   0  0  0  0  0  0  0  0  0  0  0  0
  1  2  1  0  0  0  0
  1 19  1  0  0  0  0
  1 20  1  0  0  0  0
  1 21  1  0  0  0  0
  2 18  1  0  0  0  0
  2  3  1  0  0  0  0
  3  4  2  0  0  0  0
  3 22  1  0  0  0  0
  4  5  1  0  0  0  0
  4 17  1  0  0  0  0
  5  6  1  0  0  0  0
  5 23  1  0  0  0  0
  5 24  1  0  0  0  0
  6  7  1  0  0  0  0
  6 25  1  0  0  0  0
  6 26  1  0  0  0  0
  7  8  1  0  0  0  0
  7 27  1  0  0  0  0
  8  9  2  0  0  0  0
  8 10  1  0  0  0  0
 10 16  1  0  0  0  0
 10 11  1  0  0  0  0
 11 12  1  0  0  0  0
 11 28  1  0  0  0  0
 11 29  1  0  0  0  0
 12 13  1  0  0  0  0
 12 30  1  0  0  0  0
 12 31  1  0  0  0  0
 13 14  1  0  0  0  0
 13 15  1  0  0  0  0
 13 32  1  0  0  0  0
 14 33  1  0  0  0  0
 15 16  1  0  0  0  0
 15 34  1  0  0  0  0
 15 35  1  0  0  0  0
 16 36  1  0  0  0  0
 16 37  1  0  0  0  0
 17 18  2  0  0  0  0
 17 38  1  0  0  0  0
M  END
> <s_m_source_file>
AV-unprocessed.smi

> <i_m_source_file_index>
3257

> <i_lp_mmshare_version>
43012

> <i_f3d_flags>
0

> <s_epik_input>
W0NIM11uMVtjSF1jKFtjSF1uMSlbQ0gyXVtDSDJdW05IXUMoPU8pTjJbQ0gyXVtDSDJdW0NIXShbT0hdKVtDSDJdW0NIMl0y

> <s_epik_cmdline>
J2VwaWtfcHl0aG9uJywgJy1waCcsICc3LjAnLCAnLXRuJywgJzgnLCAnLW1hJywgJzIwMCcsICctbWV0YWxfYmluZGluZycsICctaW1hZScsICc8aW5maWxlLm1hZT4nLCAnLW9tYWUnLCAnPG91dGZpbGUubWFlPic=

> <r_lp_tautomer_probability>
1

> <r_epik_Ionization_Penalty>
0.000563034

> <r_epik_Ionization_Penalty_Charging>
0

> <r_epik_Ionization_Penalty_Neutral>
0.000563034

> <r_epik_State_Penalty>
-0

> <r_epik_Charging_Adjusted_Penalty>
0

> <i_epik_Tot_Q>
0

> <i_epik_Tot_abs_Q>
0

> <r_epik_Metal_State_Penalty>
-0

> <b_epik_Metal_Only>
0

> <s_lp_Force_Field>
OPLS_2005

> <r_lp_Energy>
25.1646

> <b_lp_Chiralities_Consistent>
1

> <s_lp_Variant>
AV-unprocessed.smi:3257-1

> <Gold.Version>
5.8.1

> <Gold.Id.Protein>
6NUR|6NUR_protein|mol2

> <Gold.PLP.Fitness>
45.4204

> <Gold.PLP.PLP>
-43.4875

> <Gold.PLP.part.hbond>
-1.0015

> <Gold.PLP.part.metal>
0.0000

> <Gold.PLP.part.buried>
-4.7759

> <Gold.PLP.part.nonpolar>
-36.9216

> <Gold.PLP.part.repulsive>
0.2350

> <Gold.PLP.ligand.clash>
0.0000

> <Gold.PLP.ligand.torsion>
0.5533

> <Gold.PLP.Chemscore.Hbond>
0.0000

> <Gold.PLP.Chemscore.CHOScore>
1.0000

> <Gold.PLP.Chemscore.Metal>
0.0000

> <Gold.Chemscore.Hbonds>
donor molecule, donor type, donor heavy atom, donor atom, acceptor molecule, acceptor atom, score
      L1  C    17    38       P1  8028  1.00

> <Gold.PLP.Chemscore.Internal.Correction>
0.0395

> <Gold.Rescore>
     Score         DG    S(hbond)    S(metal)    S(lipo)     H(rot)  DE(clash)    DE(int)     intcor
     10.16     -12.12       0.00        0.00      99.35       1.95       1.53       0.43       ----

> <Gold.Chemscore.Fitness>
10.1629

> <Gold.Chemscore.DG>
-12.1243

> <Gold.Chemscore.ZeroCoef>
-5.4800

> <Gold.Chemscore.Hbond>
0.0000

> <Gold.Chemscore.Metal>
0.0000

> <Gold.Chemscore.Lipo>
99.3548

> <Gold.Chemscore.Internal_Hbond>
0.0000

> <Gold.Chemscore.DEClash>
1.5315

> <Gold.Chemscore.DEInternal>
0.4299

> <Gold.Chemscore.Rot>
1.9454

> <Gold.Chemscore.Internal.Correction>
   9.000000E+99

> <Gold.Chemscore.Hbond.Weighted>
-0.0000

> <Gold.Chemscore.Metal.Weighted>
-0.0000

> <Gold.Chemscore.Lipo.Weighted>
-11.6245

> <Gold.Chemscore.Internal_Hbond.Weighted>
0.0000

> <Gold.Chemscore.DEClash.Weighted>
1.5315

> <Gold.Chemscore.DEInternal.Weighted>
0.4299

> <Gold.Chemscore.Rot.Weighted>
4.9802

> <Gold.Chemscore.Internal.Correction.Weighted>
   9.000000E+99

> <Gold.Protein.RotatedTorsions>
[ 6907 6896 6895 6894 ] final -170.11 input  -60.11 | X-H torsion
[ 7974 7965 7964 7962 ] final  -48.90 input  175.53 | X-H torsion
[ 8008 7997 7996 7995 ] final -125.61 input   59.86 | X-H torsion
[ 10167 10162 10161 10158 ] final  106.30 input  -65.29 | X-H torsion
[ 10718 10713 10712 10709 ] final  -21.71 input   66.30 | X-H torsion
[ 10763 10752 10751 10750 ] final -147.25 input  -60.55 | X-H torsion
[ 11005 11000 10999 10996 ] final -173.64 input  -57.11 | X-H torsion

> <Gold.Protein.ActiveResidues>
 VAL166  LYS551  ARG553  GLY616  TRP617  ASP618  TYR619  PRO620  LYS621  CYS622 
 ASP623  PHE694  ASN695  SER759  ASP760  ASP761  ALA762  ILE779  LEU786  VAL792 
 PHE793  MET794  SER795  GLU796  ALA797  LYS798  CYS799  TRP800  GLU811  SER814 

> <Gold.Protein.RotatedAtoms>
  151.5025  133.3501  159.2871 H   0  0  0  0  0  0  0  0  0  0  0  0  # atno 6907 bound_to 6896
  150.8764  134.8149  159.7204 H   0  0  0  0  0  0  0  0  0  0  0  0  # atno 6908 bound_to 6896
  152.4733  134.4916  159.9749 H   0  0  0  0  0  0  0  0  0  0  0  0  # atno 6909 bound_to 6896
  145.9462  140.7615  142.9527 H   0  0  0  0  0  0  0  0  0  0  0  0  # atno 7974 bound_to 7965
  155.2160  140.0420  157.2941 H   0  0  0  0  0  0  0  0  0  0  0  0  # atno 8008 bound_to 7997
  154.5980  140.2444  155.7801 H   0  0  0  0  0  0  0  0  0  0  0  0  # atno 8009 bound_to 7997
  156.2303  140.2940  156.0180 H   0  0  0  0  0  0  0  0  0  0  0  0  # atno 8010 bound_to 7997
  139.7020  144.7092  151.1169 H   0  0  0  0  0  0  0  0  0  0  0  0  # atno 10167 bound_to 10162
  156.5144  130.4617  149.6631 H   0  0  0  0  0  0  0  0  0  0  0  0  # atno 10718 bound_to 10713
  154.8295  135.3365  154.6788 H   0  0  0  0  0  0  0  0  0  0  0  0  # atno 10763 bound_to 10752
  153.7409  135.6946  153.4971 H   0  0  0  0  0  0  0  0  0  0  0  0  # atno 10764 bound_to 10752
  153.2244  135.4438  155.0477 H   0  0  0  0  0  0  0  0  0  0  0  0  # atno 10765 bound_to 10752
  140.4835  134.6053  157.4928 H   0  0  0  0  0  0  0  0  0  0  0  0  # atno 11005 bound_to 11000
  144.6787  140.2361  143.7349 LP  0  0  0  0  0  0  0  0  0  0  0  0  # atno 17320 bound_to 7965
  145.8233  139.2053  143.1925 LP  0  0  0  0  0  0  0  0  0  0  0  0  # atno 17321 bound_to 7965
  140.7712  143.5410  150.9312 LP  0  0  0  0  0  0  0  0  0  0  0  0  # atno 17342 bound_to 10162
  139.9092  143.6740  152.3118 LP  0  0  0  0  0  0  0  0  0  0  0  0  # atno 17343 bound_to 10162
  156.3209  130.7280  151.2192 LP  0  0  0  0  0  0  0  0  0  0  0  0  # atno 17370 bound_to 10713
  157.7446  131.0456  150.4850 LP  0  0  0  0  0  0  0  0  0  0  0  0  # atno 17371 bound_to 10713
  139.9812  134.7134  155.9856 LP  0  0  0  0  0  0  0  0  0  0  0  0  # atno 17394 bound_to 11000
  141.1519  133.6547  156.4041 LP  0  0  0  0  0  0  0  0  0  0  0  0  # atno 17395 bound_to 11000

$$$$
