AV-unprocessed.smi:3237|AV-procd|sdf|12371|dock4
  -GOLD-   2272018233D 1   1.00000     0.00000
 Structure written by MMmdl.
 36 38  0  0  0  0  0  0  0  0  3 V2000
  153.4833  142.0023  161.3217 C   0  0  0  0  0  0  0  0  0  0  0  0
  153.1470  141.3587  160.0204 C   0  0  0  0  0  0  0  0  0  0  0  0
  152.2534  141.6677  159.0340 C   0  0  0  0  0  0  0  0  0  0  0  0
  152.4569  140.6345  158.0809 C   0  0  0  0  0  0  0  0  0  0  0  0
  151.6997  140.5990  156.8802 N   0  0  0  0  0  0  0  0  0  0  0  0
  151.9756  139.9613  155.7280 C   0  0  0  0  0  0  0  0  0  0  0  0
  153.0058  139.2862  155.6177 O   0  0  0  0  0  0  0  0  0  0  0  0
  151.0157  140.1659  154.7841 N   0  5  0  0  0  0  0  0  0  0  0  0
  150.1733  139.1159  154.2098 C   0  0  2  0  0  0  0  0  0  0  0  0
  148.7347  139.1787  154.7290 C   0  0  0  0  0  0  0  0  0  0  0  0
  148.2323  137.7309  154.6351 C   0  0  0  0  0  0  0  0  0  0  0  0
  149.4307  136.8736  154.4749 N   0  3  2  0  0  0  0  0  0  0  0  0
  149.4237  135.6518  155.3081 C   0  0  0  0  0  0  0  0  0  0  0  0
  149.9991  134.4420  154.6114 C   0  0  0  0  0  0  0  0  0  0  0  0
  148.5019  134.5737  154.7908 C   0  0  0  0  0  0  0  0  0  0  0  0
  150.6185  137.7286  154.6673 C   0  0  0  0  0  0  0  0  0  0  0  0
  153.3936  139.7740  158.4521 N   0  0  0  0  0  0  0  0  0  0  0  0
  153.8403  140.2337  159.6967 O   0  0  0  0  0  0  0  0  0  0  0  0
  152.7243  142.7327  161.6022 H   0  0  0  0  0  0  0  0  0  0  0  0
  154.4420  142.5171  161.2601 H   0  0  0  0  0  0  0  0  0  0  0  0
  153.5472  141.2594  162.1168 H   0  0  0  0  0  0  0  0  0  0  0  0
  151.5649  142.4990  159.0015 H   0  0  0  0  0  0  0  0  0  0  0  0
  150.8370  141.1223  156.8945 H   0  0  0  0  0  0  0  0  0  0  0  0
  150.1597  139.1320  153.1186 H   0  0  0  0  0  0  0  0  0  0  0  0
  148.7170  139.4975  155.7731 H   0  0  0  0  0  0  0  0  0  0  0  0
  148.1159  139.8747  154.1610 H   0  0  0  0  0  0  0  0  0  0  0  0
  147.6587  137.4672  155.5252 H   0  0  0  0  0  0  0  0  0  0  0  0
  147.5799  137.5899  153.7716 H   0  0  0  0  0  0  0  0  0  0  0  0
  149.5646  135.7932  156.3783 H   0  0  0  0  0  0  0  0  0  0  0  0
  150.3987  134.5677  153.6065 H   0  0  0  0  0  0  0  0  0  0  0  0
  150.5127  133.7057  155.2265 H   0  0  0  0  0  0  0  0  0  0  0  0
  148.0290  133.9233  155.5237 H   0  0  0  0  0  0  0  0  0  0  0  0
  147.9059  134.7879  153.9054 H   0  0  0  0  0  0  0  0  0  0  0  0
  151.4748  137.3560  154.1046 H   0  0  0  0  0  0  0  0  0  0  0  0
  150.8882  137.7423  155.7256 H   0  0  0  0  0  0  0  0  0  0  0  0
  149.4449  136.5880  153.5065 H   0  0  0  0  0  0  0  0  0  0  0  0
  1  2  1  0  0  0  0
  1 19  1  0  0  0  0
  1 20  1  0  0  0  0
  1 21  1  0  0  0  0
  2 18  1  0  0  0  0
  2  3  2  0  0  0  0
  3  4  1  0  0  0  0
  3 22  1  0  0  0  0
  4  5  1  0  0  0  0
  4 17  2  0  0  0  0
  5  6  1  0  0  0  0
  5 23  1  0  0  0  0
  6  7  2  0  0  0  0
  6  8  1  0  0  0  0
  8  9  1  0  0  0  0
  9 16  1  0  0  0  0
  9 10  1  0  0  0  0
  9 24  1  0  0  0  0
 10 11  1  0  0  0  0
 10 25  1  0  0  0  0
 10 26  1  0  0  0  0
 11 12  1  0  0  0  0
 11 27  1  0  0  0  0
 11 28  1  0  0  0  0
 12 13  1  0  0  0  0
 12 16  1  0  0  0  0
 12 36  1  0  0  0  0
 13 15  1  0  0  0  0
 13 14  1  0  0  0  0
 13 29  1  0  0  0  0
 14 15  1  0  0  0  0
 14 30  1  0  0  0  0
 14 31  1  0  0  0  0
 15 32  1  0  0  0  0
 15 33  1  0  0  0  0
 16 34  1  0  0  0  0
 16 35  1  0  0  0  0
 17 18  1  0  0  0  0
M  CHG  1   8  -1
M  CHG  1  12   1
M  END
> <s_m_source_file>
AV-unprocessed.smi

> <i_m_source_file_index>
3237

> <i_lp_mmshare_version>
43012

> <i_f3d_flags>
0

> <s_epik_input>
W0NIM11jMVtjSF1jKG5vMSlbTkhdQyg9TylbTkhdW0NAQEhdMltDSDJdW0NIMl1OKFtDSDJdMilbQ0hdM1tDSDJdW0NIMl0z

> <s_epik_cmdline>
J2VwaWtfcHl0aG9uJywgJy1waCcsICc3LjAnLCAnLXRuJywgJzgnLCAnLW1hJywgJzIwMCcsICctbWV0YWxfYmluZGluZycsICctaW1hZScsICc8aW5maWxlLm1hZT4nLCAnLW9tYWUnLCAnPG91dGZpbGUubWFlPic=

> <r_epik_Ionization_Penalty>
6.76456

> <r_epik_Ionization_Penalty_Charging>
6.76456

> <r_epik_Ionization_Penalty_Neutral>
5.76722e-06

> <r_epik_State_Penalty>
6.78919

> <r_epik_Charging_Adjusted_Penalty>
13.5538

> <i_epik_Tot_Q>
0

> <i_epik_Tot_abs_Q>
2

> <r_epik_Metal_State_Penalty>
2.728

> <b_epik_Metal_Only>
1

> <s_lp_Force_Field>
OPLS_2005

> <r_lp_Energy>
30.701

> <b_lp_Chiralities_Consistent>
1

> <s_lp_Variant>
AV-unprocessed.smi:3237-9

> <Gold.Version>
5.8.1

> <Gold.Id.Protein>
6NUR|6NUR_protein|mol2

> <Gold.PLP.Fitness>
42.9797

> <Gold.PLP.PLP>
-31.1796

> <Gold.PLP.part.hbond>
-4.0000

> <Gold.PLP.part.metal>
0.0000

> <Gold.PLP.part.buried>
-5.1299

> <Gold.PLP.part.nonpolar>
-22.5756

> <Gold.PLP.part.repulsive>
0.1974

> <Gold.PLP.ligand.clash>
0.0000

> <Gold.PLP.ligand.torsion>
1.4309

> <Gold.PLP.Chemscore.Hbond>
4.4560

> <Gold.PLP.Chemscore.CHOScore>
0.0000

> <Gold.PLP.Chemscore.Metal>
0.0000

> <Gold.Chemscore.Hbonds>
donor molecule, donor type, donor heavy atom, donor atom, acceptor molecule, acceptor atom, score
      L1  H    12    36       P1  7948  2.00
      P1  H  7989  7998       L1     8  1.00
      P1  H  7997  8009       L1    17  0.77
      P1  H  7997  8010       L1     7  0.67

> <Gold.PLP.Chemscore.Internal.Correction>
1.2939

> <Gold.Rescore>
     Score         DG    S(hbond)    S(metal)    S(lipo)     H(rot)  DE(clash)    DE(int)     intcor
     13.40     -17.18       2.21        0.00      64.18       1.25       0.02       3.76       ----

> <Gold.Chemscore.Fitness>
13.4020

> <Gold.Chemscore.DG>
-17.1828

> <Gold.Chemscore.ZeroCoef>
-5.4800

> <Gold.Chemscore.Hbond>
2.2110

> <Gold.Chemscore.Metal>
0.0000

> <Gold.Chemscore.Lipo>
64.1792

> <Gold.Chemscore.Internal_Hbond>
0.0000

> <Gold.Chemscore.DEClash>
0.0202

> <Gold.Chemscore.DEInternal>
3.7605

> <Gold.Chemscore.Rot>
1.2464

> <Gold.Chemscore.Internal.Correction>
   9.000000E+99

> <Gold.Chemscore.Hbonds>
donor molecule, donor type, donor heavy atom, donor atom, acceptor molecule, acceptor atom, score
      L1  H    12    36       P1  7948  0.82
      P1  H  7989  7998       L1     8  0.29
      P1  H  7997  8009       L1    17  0.18
      P1  H  7997  8010       L1     7  0.63

> <Gold.Chemscore.Hbond.Weighted>
-7.3847

> <Gold.Chemscore.Metal.Weighted>
-0.0000

> <Gold.Chemscore.Lipo.Weighted>
-7.5090

> <Gold.Chemscore.Internal_Hbond.Weighted>
0.0000

> <Gold.Chemscore.DEClash.Weighted>
0.0202

> <Gold.Chemscore.DEInternal.Weighted>
3.7605

> <Gold.Chemscore.Rot.Weighted>
3.1909

> <Gold.Chemscore.Internal.Correction.Weighted>
   9.000000E+99

> <Gold.Protein.RotatedTorsions>
[ 6907 6896 6895 6894 ] final -137.74 input  -60.11 | X-H torsion
[ 7974 7965 7964 7962 ] final  -30.12 input  175.53 | X-H torsion
[ 8008 7997 7996 7995 ] final  123.41 input   59.86 | X-H torsion
[ 10167 10162 10161 10158 ] final  162.71 input  -65.29 | X-H torsion
[ 10718 10713 10712 10709 ] final   94.28 input   66.30 | X-H torsion
[ 10763 10752 10751 10750 ] final   59.59 input  -60.55 | X-H torsion
[ 11005 11000 10999 10996 ] final -135.39 input  -57.11 | X-H torsion

> <Gold.Protein.ActiveResidues>
 VAL166  LYS551  ARG553  GLY616  TRP617  ASP618  TYR619  PRO620  LYS621  CYS622 
 ASP623  PHE694  ASN695  SER759  ASP760  ASP761  ALA762  ILE779  LEU786  VAL792 
 PHE793  MET794  SER795  GLU796  ALA797  LYS798  CYS799  TRP800  GLU811  SER814 

> <Gold.Protein.RotatedAtoms>
  151.0262  133.5831  159.2665 H   0  0  0  0  0  0  0  0  0  0  0  0  # atno 6907 bound_to 6896
  151.2930  135.0746  159.9221 H   0  0  0  0  0  0  0  0  0  0  0  0  # atno 6908 bound_to 6896
  152.5334  133.9957  159.7925 H   0  0  0  0  0  0  0  0  0  0  0  0  # atno 6909 bound_to 6896
  146.1166  140.5500  142.8754 H   0  0  0  0  0  0  0  0  0  0  0  0  # atno 7974 bound_to 7965
  156.2765  140.2763  156.1624 H   0  0  0  0  0  0  0  0  0  0  0  0  # atno 8008 bound_to 7997
  155.0740  140.0387  157.2635 H   0  0  0  0  0  0  0  0  0  0  0  0  # atno 8009 bound_to 7997
  154.7017  140.2650  155.6719 H   0  0  0  0  0  0  0  0  0  0  0  0  # atno 8010 bound_to 7997
  139.4864  144.4410  151.8952 H   0  0  0  0  0  0  0  0  0  0  0  0  # atno 10167 bound_to 10162
  157.6949  131.0507  150.4162 H   0  0  0  0  0  0  0  0  0  0  0  0  # atno 10718 bound_to 10713
  152.9898  135.5566  154.5738 H   0  0  0  0  0  0  0  0  0  0  0  0  # atno 10763 bound_to 10752
  154.5133  135.2803  155.1326 H   0  0  0  0  0  0  0  0  0  0  0  0  # atno 10764 bound_to 10752
  154.2709  135.6363  153.5363 H   0  0  0  0  0  0  0  0  0  0  0  0  # atno 10765 bound_to 10752
  140.8902  134.1821  157.4533 H   0  0  0  0  0  0  0  0  0  0  0  0  # atno 11005 bound_to 11000
  144.7559  140.5305  143.6769 LP  0  0  0  0  0  0  0  0  0  0  0  0  # atno 17320 bound_to 7965
  145.5554  139.1478  143.3371 LP  0  0  0  0  0  0  0  0  0  0  0  0  # atno 17321 bound_to 7965
  140.3862  144.2674  150.5904 LP  0  0  0  0  0  0  0  0  0  0  0  0  # atno 17342 bound_to 10162
  140.5188  143.2271  151.8421 LP  0  0  0  0  0  0  0  0  0  0  0  0  # atno 17343 bound_to 10162
  156.4542  130.4018  149.6617 LP  0  0  0  0  0  0  0  0  0  0  0  0  # atno 17370 bound_to 10713
  156.3755  130.7552  151.2540 LP  0  0  0  0  0  0  0  0  0  0  0  0  # atno 17371 bound_to 10713
  139.8729  134.9855  156.5285 LP  0  0  0  0  0  0  0  0  0  0  0  0  # atno 17394 bound_to 11000
  140.8356  133.8245  155.9025 LP  0  0  0  0  0  0  0  0  0  0  0  0  # atno 17395 bound_to 11000

$$$$
