AV-unprocessed.smi:1681|AV-procd|sdf|6741|dock6
  -GOLD-   22720 7493D 1   1.00000     0.00000
 Structure written by MMmdl.
 40 41  0  0  0  0  0  0  0  0  1 V2000
  147.7806  140.0848  153.7440 C   0  0  0  0  0  0  0  0  0  0  0  0
  149.0425  140.7448  154.3045 C   0  0  0  0  0  0  0  0  0  0  0  0
  149.3177  141.8826  153.9230 O   0  0  0  0  0  0  0  0  0  0  0  0
  149.8065  140.0664  155.1943 N   0  0  0  0  0  0  0  0  0  0  0  0
  151.0807  140.5375  155.7524 C   0  0  0  0  0  0  0  0  0  0  0  0
  152.2225  139.6982  155.1518 C   0  0  0  0  0  0  0  0  0  0  0  0
  151.9948  138.1960  155.4078 C   0  0  0  0  0  0  0  0  0  0  0  0
  150.5784  137.7490  154.9749 C   0  0  1  0  0  0  0  0  0  0  0  0
  150.3168  136.2859  155.3571 C   0  0  0  0  0  0  0  0  0  0  0  0
  150.6558  135.8733  156.4664 O   0  0  0  0  0  0  0  0  0  0  0  0
  149.7135  135.5333  154.4204 N   0  0  0  0  0  0  0  0  0  0  0  0
  149.3637  134.1631  154.5092 C   0  0  0  0  0  0  0  0  0  0  0  0
  149.6941  133.2091  155.5128 C   0  0  0  0  0  0  0  0  0  0  0  0
  149.1774  132.0228  155.2291 N   0  0  0  0  0  0  0  0  0  0  0  0
  148.5168  132.1957  154.0567 N   0  0  0  0  0  0  0  0  0  0  0  0
  147.8263  131.0733  153.4467 C   0  0  0  0  0  0  0  0  0  0  0  0
  146.4120  131.4618  153.0120 C   0  0  0  0  0  0  0  0  0  0  0  0
  146.1202  131.3500  151.7133 N   0  0  0  0  0  0  0  0  0  0  0  0
  145.5927  131.8561  153.8389 O   0  0  0  0  0  0  0  0  0  0  0  0
  148.6094  133.4937  153.5933 C   0  0  0  0  0  0  0  0  0  0  0  0
  149.5164  138.6841  155.5971 C   0  0  0  0  0  0  0  0  0  0  0  0
  147.0901  139.8237  154.5467 H   0  0  0  0  0  0  0  0  0  0  0  0
  148.0321  139.1839  153.1836 H   0  0  0  0  0  0  0  0  0  0  0  0
  147.2608  140.7630  153.0664 H   0  0  0  0  0  0  0  0  0  0  0  0
  151.2693  141.5964  155.5817 H   0  0  0  0  0  0  0  0  0  0  0  0
  151.0615  140.4176  156.8366 H   0  0  0  0  0  0  0  0  0  0  0  0
  152.2837  139.8819  154.0782 H   0  0  0  0  0  0  0  0  0  0  0  0
  153.1789  140.0077  155.5739 H   0  0  0  0  0  0  0  0  0  0  0  0
  152.7531  137.6136  154.8830 H   0  0  0  0  0  0  0  0  0  0  0  0
  152.1379  137.9985  156.4713 H   0  0  0  0  0  0  0  0  0  0  0  0
  150.5114  137.8390  153.8890 H   0  0  0  0  0  0  0  0  0  0  0  0
  149.4859  135.9911  153.5495 H   0  0  0  0  0  0  0  0  0  0  0  0
  150.2753  133.3231  156.4156 H   0  0  0  0  0  0  0  0  0  0  0  0
  148.3959  130.7113  152.5890 H   0  0  0  0  0  0  0  0  0  0  0  0
  147.7825  130.2575  154.1695 H   0  0  0  0  0  0  0  0  0  0  0  0
  145.1961  131.5892  151.3828 H   0  0  0  0  0  0  0  0  0  0  0  0
  146.8228  131.0201  151.0674 H   0  0  0  0  0  0  0  0  0  0  0  0
  148.1449  133.8154  152.6728 H   0  0  0  0  0  0  0  0  0  0  0  0
  149.5375  138.6205  156.6865 H   0  0  0  0  0  0  0  0  0  0  0  0
  148.5143  138.3660  155.3042 H   0  0  0  0  0  0  0  0  0  0  0  0
  1  2  1  0  0  0  0
  1 22  1  0  0  0  0
  1 23  1  0  0  0  0
  1 24  1  0  0  0  0
  2  3  2  0  0  0  0
  2  4  1  0  0  0  0
  4 21  1  0  0  0  0
  4  5  1  0  0  0  0
  5  6  1  0  0  0  0
  5 25  1  0  0  0  0
  5 26  1  0  0  0  0
  6  7  1  0  0  0  0
  6 27  1  0  0  0  0
  6 28  1  0  0  0  0
  7  8  1  0  0  0  0
  7 29  1  0  0  0  0
  7 30  1  0  0  0  0
  8  9  1  0  0  0  0
  8 21  1  0  0  0  0
  8 31  1  0  0  0  0
  9 10  2  0  0  0  0
  9 11  1  0  0  0  0
 11 12  1  0  0  0  0
 11 32  1  0  0  0  0
 12 20  2  0  0  0  0
 12 13  1  0  0  0  0
 13 14  2  0  0  0  0
 13 33  1  0  0  0  0
 14 15  1  0  0  0  0
 15 16  1  0  0  0  0
 15 20  1  0  0  0  0
 16 17  1  0  0  0  0
 16 34  1  0  0  0  0
 16 35  1  0  0  0  0
 17 18  1  0  0  0  0
 17 19  2  0  0  0  0
 18 36  1  0  0  0  0
 18 37  1  0  0  0  0
 20 38  1  0  0  0  0
 21 39  1  0  0  0  0
 21 40  1  0  0  0  0
M  END
> <s_m_source_file>
AV-unprocessed.smi

> <i_m_source_file_index>
1681

> <i_lp_mmshare_version>
43012

> <i_f3d_flags>
0

> <s_epik_input>
W0NIM11DKD1PKU4xW0NIMl1bQ0gyXVtDSDJdW0NASF0oW0NIMl0xKUMoPU8pW05IXWMyW2NIXW5uKFtjSF0yKVtDSDJdQyg9TylbTkgyXQ==

> <s_epik_cmdline>
J2VwaWtfcHl0aG9uJywgJy1waCcsICc3LjAnLCAnLXRuJywgJzgnLCAnLW1hJywgJzIwMCcsICctbWV0YWxfYmluZGluZycsICctaW1hZScsICc8aW5maWxlLm1hZT4nLCAnLW9tYWUnLCAnPG91dGZpbGUubWFlPic=

> <r_lp_tautomer_probability>
1

> <r_epik_Ionization_Penalty>
6.05275e-06

> <r_epik_Ionization_Penalty_Charging>
0

> <r_epik_Ionization_Penalty_Neutral>
6.05275e-06

> <r_epik_State_Penalty>
-0

> <r_epik_Charging_Adjusted_Penalty>
0

> <i_epik_Tot_Q>
0

> <i_epik_Tot_abs_Q>
0

> <r_epik_Metal_State_Penalty>
-0

> <b_epik_Metal_Only>
0

> <s_lp_Force_Field>
OPLS_2005

> <r_lp_Energy>
29.0931

> <b_lp_Chiralities_Consistent>
1

> <s_lp_Variant>
AV-unprocessed.smi:1681-1

> <Gold.Version>
5.8.1

> <Gold.Id.Protein>
6NUR|6NUR_protein|mol2

> <Gold.PLP.Fitness>
41.5858

> <Gold.PLP.PLP>
-34.5040

> <Gold.PLP.part.hbond>
-4.1015

> <Gold.PLP.part.metal>
0.0000

> <Gold.PLP.part.buried>
-0.2513

> <Gold.PLP.part.nonpolar>
-30.2532

> <Gold.PLP.part.repulsive>
0.4380

> <Gold.PLP.ligand.clash>
0.0000

> <Gold.PLP.ligand.torsion>
0.6501

> <Gold.PLP.Chemscore.Hbond>
2.4960

> <Gold.PLP.Chemscore.CHOScore>
0.2894

> <Gold.PLP.Chemscore.Metal>
0.0000

> <Gold.Chemscore.Hbonds>
donor molecule, donor type, donor heavy atom, donor atom, acceptor molecule, acceptor atom, score
      L1  H    11    32       P1  7948  1.00
      L1  H    18    37       P1 10747  0.34
      P1  H  8011  8017       L1     3  0.50
      L1  C    20    38       P1  7948  0.39

> <Gold.PLP.Chemscore.Internal.Correction>
0.0257

> <Gold.Rescore>
     Score         DG    S(hbond)    S(metal)    S(lipo)     H(rot)  DE(clash)    DE(int)     intcor
     11.72     -13.52       1.97        0.00      55.31       1.96       0.03       1.77       ----

> <Gold.Chemscore.Fitness>
11.7214

> <Gold.Chemscore.DG>
-13.5168

> <Gold.Chemscore.ZeroCoef>
-5.4800

> <Gold.Chemscore.Hbond>
1.9723

> <Gold.Chemscore.Metal>
0.0000

> <Gold.Chemscore.Lipo>
55.3117

> <Gold.Chemscore.Internal_Hbond>
0.0000

> <Gold.Chemscore.DEClash>
0.0282

> <Gold.Chemscore.DEInternal>
1.7672

> <Gold.Chemscore.Rot>
1.9617

> <Gold.Chemscore.Internal.Correction>
   9.000000E+99

> <Gold.Chemscore.Hbonds>
donor molecule, donor type, donor heavy atom, donor atom, acceptor molecule, acceptor atom, score
      L1  H    11    32       P1  7948  0.45
      L1  H    18    37       P1 10747  0.32
      P1  H  8011  8017       L1     3  0.50

> <Gold.Chemscore.Hbond.Weighted>
-6.5874

> <Gold.Chemscore.Metal.Weighted>
-0.0000

> <Gold.Chemscore.Lipo.Weighted>
-6.4715

> <Gold.Chemscore.Internal_Hbond.Weighted>
0.0000

> <Gold.Chemscore.DEClash.Weighted>
0.0282

> <Gold.Chemscore.DEInternal.Weighted>
1.7672

> <Gold.Chemscore.Rot.Weighted>
5.0220

> <Gold.Chemscore.Internal.Correction.Weighted>
   9.000000E+99

> <Gold.Protein.RotatedTorsions>
[ 6907 6896 6895 6894 ] final  170.65 input  -60.11 | X-H torsion
[ 7974 7965 7964 7962 ] final -142.11 input  175.53 | X-H torsion
[ 8008 7997 7996 7995 ] final  -79.09 input   59.86 | X-H torsion
[ 10167 10162 10161 10158 ] final -160.82 input  -65.29 | X-H torsion
[ 10718 10713 10712 10709 ] final   68.79 input   66.30 | X-H torsion
[ 10763 10752 10751 10750 ] final  -60.17 input  -60.55 | X-H torsion
[ 11005 11000 10999 10996 ] final  -64.08 input  -57.11 | X-H torsion

> <Gold.Protein.ActiveResidues>
 VAL166  LYS551  ARG553  GLY616  TRP617  ASP618  TYR619  PRO620  LYS621  CYS622 
 ASP623  PHE694  ASN695  SER759  ASP760  ASP761  ALA762  ILE779  LEU786  VAL792 
 PHE793  MET794  SER795  GLU796  ALA797  LYS798  CYS799  TRP800  GLU811  SER814 

> <Gold.Protein.RotatedAtoms>
  151.8127  133.3384  159.3559 H   0  0  0  0  0  0  0  0  0  0  0  0  # atno 6907 bound_to 6896
  150.7321  134.5649  159.5870 H   0  0  0  0  0  0  0  0  0  0  0  0  # atno 6908 bound_to 6896
  152.3063  134.7552  160.0398 H   0  0  0  0  0  0  0  0  0  0  0  0  # atno 6909 bound_to 6896
  144.8468  140.5998  143.5416 H   0  0  0  0  0  0  0  0  0  0  0  0  # atno 7974 bound_to 7965
  154.5751  140.0684  156.9022 H   0  0  0  0  0  0  0  0  0  0  0  0  # atno 8008 bound_to 7997
  155.2563  140.3355  155.4259 H   0  0  0  0  0  0  0  0  0  0  0  0  # atno 8009 bound_to 7997
  156.2148  140.1774  156.7599 H   0  0  0  0  0  0  0  0  0  0  0  0  # atno 8010 bound_to 7997
  139.6511  144.0083  152.2162 H   0  0  0  0  0  0  0  0  0  0  0  0  # atno 10167 bound_to 10162
  157.6309  130.9392  150.0426 H   0  0  0  0  0  0  0  0  0  0  0  0  # atno 10718 bound_to 10713
  154.2651  135.6301  153.5289 H   0  0  0  0  0  0  0  0  0  0  0  0  # atno 10763 bound_to 10752
  152.9889  135.5597  154.5662 H   0  0  0  0  0  0  0  0  0  0  0  0  # atno 10764 bound_to 10752
  154.5219  135.2883  155.1230 H   0  0  0  0  0  0  0  0  0  0  0  0  # atno 10765 bound_to 10752
  141.1413  133.6660  156.5779 H   0  0  0  0  0  0  0  0  0  0  0  0  # atno 11005 bound_to 11000
  145.4580  139.1516  143.3882 LP  0  0  0  0  0  0  0  0  0  0  0  0  # atno 17320 bound_to 7965
  146.2751  140.4709  142.8798 LP  0  0  0  0  0  0  0  0  0  0  0  0  # atno 17321 bound_to 7965
  139.9797  144.6437  150.7912 LP  0  0  0  0  0  0  0  0  0  0  0  0  # atno 17342 bound_to 10162
  140.7538  143.3015  151.3069 LP  0  0  0  0  0  0  0  0  0  0  0  0  # atno 17343 bound_to 10162
  156.1513  130.3642  149.9434 LP  0  0  0  0  0  0  0  0  0  0  0  0  # atno 17370 bound_to 10713
  156.7454  130.9095  151.3634 LP  0  0  0  0  0  0  0  0  0  0  0  0  # atno 17371 bound_to 10713
  140.3861  134.7481  157.4692 LP  0  0  0  0  0  0  0  0  0  0  0  0  # atno 17394 bound_to 11000
  140.0601  134.6008  155.8759 LP  0  0  0  0  0  0  0  0  0  0  0  0  # atno 17395 bound_to 11000

$$$$
