AV-unprocessed.smi:115|AV-procd|sdf|1125|dock2
  -GOLD-   2262018253D 1   1.00000     0.00000
 Structure written by MMmdl.
 55 57  0  0  0  0  0  0  0  0  1 V2000
  147.8139  127.3446  152.7912 C   0  0  0  0  0  0  0  0  0  0  0  0
  148.2302  128.7009  152.7359 O   0  0  0  0  0  0  0  0  0  0  0  0
  149.4889  128.9460  153.3503 C   0  0  0  0  0  0  0  0  0  0  0  0
  149.3233  129.6207  154.7324 C   0  0  2  0  0  0  0  0  0  0  0  0
  148.0958  129.1274  155.5174 C   0  0  0  0  0  0  0  0  0  0  0  0
  149.3847  131.0910  154.6770 N   0  0  0  0  0  0  0  0  0  0  0  0
  148.4900  131.8783  153.9544 C   0  0  0  0  0  0  0  0  0  0  0  0
  147.3637  131.3201  153.1425 C   0  0  0  0  0  0  0  0  0  0  0  0
  148.8327  133.1828  154.1413 C   0  0  0  0  0  0  0  0  0  0  0  0
  149.9812  133.2381  154.9763 C   0  0  0  0  0  0  0  0  0  0  0  0
  150.7005  134.4375  155.4881 C   0  0  0  0  0  0  0  0  0  0  0  0
  151.7544  134.3704  156.1198 O   0  0  0  0  0  0  0  0  0  0  0  0
  150.0768  135.8164  155.2098 C   0  0  0  0  0  0  0  0  0  0  0  0
  150.2967  136.7352  156.3188 N   0  0  0  0  0  0  0  0  0  0  0  0
  149.9206  136.3007  157.6151 C   0  0  0  0  0  0  0  0  0  0  0  0
  149.4221  135.1914  157.8143 O   0  0  0  0  0  0  0  0  0  0  0  0
  150.1636  137.2722  158.6759 C   0  0  0  0  0  0  0  0  0  0  0  0
  149.8374  136.9678  159.9435 F   0  0  0  0  0  0  0  0  0  0  0  0
  150.7100  138.4771  158.4058 C   0  0  0  0  0  0  0  0  0  0  0  0
  151.0737  138.8730  157.1302 N   0  0  0  0  0  0  0  0  0  0  0  0
  151.6747  140.2373  156.8821 C   0  0  1  0  0  0  0  0  0  0  0  0
  150.6380  141.3341  157.1539 C   0  0  0  0  0  0  0  0  0  0  0  0
  151.0150  141.7905  158.5472 C   0  0  0  0  0  0  0  0  0  0  0  0
  152.5275  141.6066  158.5325 C   0  0  0  0  0  0  0  0  0  0  0  0
  152.7426  140.4270  157.7652 O   0  0  0  0  0  0  0  0  0  0  0  0
  150.8541  138.0067  156.0368 C   0  0  0  0  0  0  0  0  0  0  0  0
  151.1281  138.3585  154.8872 O   0  0  0  0  0  0  0  0  0  0  0  0
  150.3307  131.9387  155.2743 C   0  0  0  0  0  0  0  0  0  0  0  0
  151.4871  131.4163  156.0822 C   0  0  0  0  0  0  0  0  0  0  0  0
  146.8416  127.2439  152.3088 H   0  0  0  0  0  0  0  0  0  0  0  0
  147.7149  126.9855  153.8156 H   0  0  0  0  0  0  0  0  0  0  0  0
  148.5155  126.6979  152.2629 H   0  0  0  0  0  0  0  0  0  0  0  0
  150.0605  128.0190  153.4276 H   0  0  0  0  0  0  0  0  0  0  0  0
  150.0423  129.5931  152.6729 H   0  0  0  0  0  0  0  0  0  0  0  0
  150.1822  129.2937  155.3118 H   0  0  0  0  0  0  0  0  0  0  0  0
  148.1251  128.0445  155.6397 H   0  0  0  0  0  0  0  0  0  0  0  0
  147.1552  129.3734  155.0289 H   0  0  0  0  0  0  0  0  0  0  0  0
  148.0714  129.5665  156.5151 H   0  0  0  0  0  0  0  0  0  0  0  0
  146.8518  132.1114  152.5943 H   0  0  0  0  0  0  0  0  0  0  0  0
  146.6269  130.8298  153.7792 H   0  0  0  0  0  0  0  0  0  0  0  0
  147.7272  130.5966  152.4124 H   0  0  0  0  0  0  0  0  0  0  0  0
  148.2940  134.0154  153.7144 H   0  0  0  0  0  0  0  0  0  0  0  0
  150.4564  136.2976  154.3095 H   0  0  0  0  0  0  0  0  0  0  0  0
  149.0032  135.7225  155.0430 H   0  0  0  0  0  0  0  0  0  0  0  0
  150.8615  139.1570  159.2311 H   0  0  0  0  0  0  0  0  0  0  0  0
  152.0516  140.2340  155.8584 H   0  0  0  0  0  0  0  0  0  0  0  0
  150.7882  142.1396  156.4339 H   0  0  0  0  0  0  0  0  0  0  0  0
  149.6135  140.9694  157.0676 H   0  0  0  0  0  0  0  0  0  0  0  0
  150.7120  142.8161  158.7593 H   0  0  0  0  0  0  0  0  0  0  0  0
  150.5615  141.1383  159.2943 H   0  0  0  0  0  0  0  0  0  0  0  0
  153.0093  142.4471  158.0311 H   0  0  0  0  0  0  0  0  0  0  0  0
  152.9519  141.5166  159.5326 H   0  0  0  0  0  0  0  0  0  0  0  0
  152.3437  132.0867  156.0370 H   0  0  0  0  0  0  0  0  0  0  0  0
  151.8545  130.4627  155.7152 H   0  0  0  0  0  0  0  0  0  0  0  0
  151.2073  131.2982  157.1289 H   0  0  0  0  0  0  0  0  0  0  0  0
  1  2  1  0  0  0  0
  1 30  1  0  0  0  0
  1 31  1  0  0  0  0
  1 32  1  0  0  0  0
  2  3  1  0  0  0  0
  3  4  1  0  0  0  0
  3 33  1  0  0  0  0
  3 34  1  0  0  0  0
  4  5  1  0  0  0  0
  4  6  1  0  0  0  0
  4 35  1  0  0  0  0
  5 36  1  0  0  0  0
  5 37  1  0  0  0  0
  5 38  1  0  0  0  0
  6 28  1  0  0  0  0
  6  7  1  0  0  0  0
  7  8  1  0  0  0  0
  7  9  2  0  0  0  0
  8 39  1  0  0  0  0
  8 40  1  0  0  0  0
  8 41  1  0  0  0  0
  9 10  1  0  0  0  0
  9 42  1  0  0  0  0
 10 11  1  0  0  0  0
 10 28  2  0  0  0  0
 11 12  2  0  0  0  0
 11 13  1  0  0  0  0
 13 14  1  0  0  0  0
 13 43  1  0  0  0  0
 13 44  1  0  0  0  0
 14 26  1  0  0  0  0
 14 15  1  0  0  0  0
 15 16  2  0  0  0  0
 15 17  1  0  0  0  0
 17 18  1  0  0  0  0
 17 19  2  0  0  0  0
 19 20  1  0  0  0  0
 19 45  1  0  0  0  0
 20 21  1  0  0  0  0
 20 26  1  0  0  0  0
 21 25  1  0  0  0  0
 21 22  1  0  0  0  0
 21 46  1  0  0  0  0
 22 23  1  0  0  0  0
 22 47  1  0  0  0  0
 22 48  1  0  0  0  0
 23 24  1  0  0  0  0
 23 49  1  0  0  0  0
 23 50  1  0  0  0  0
 24 25  1  0  0  0  0
 24 51  1  0  0  0  0
 24 52  1  0  0  0  0
 26 27  2  0  0  0  0
 28 29  1  0  0  0  0
 29 53  1  0  0  0  0
 29 54  1  0  0  0  0
 29 55  1  0  0  0  0
M  END
> <s_m_source_file>
AV-unprocessed.smi

> <i_m_source_file_index>
115

> <i_lp_mmshare_version>
43012

> <i_f3d_flags>
0

> <s_epik_input>
W0NIM11PW0NIMl1bQ0BIXShbQ0gzXSluMWMoW0NIM10pW2NIXWMoYzFbQ0gzXSlDKD1PKVtDSDJdbjJjKD1PKWMoRilbY0hdbihjMj1PKVtDQEBIXTNbQ0gyXVtDSDJdW0NIMl1PMw==

> <s_epik_cmdline>
J2VwaWtfcHl0aG9uJywgJy1waCcsICc3LjAnLCAnLXRuJywgJzgnLCAnLW1hJywgJzIwMCcsICctbWV0YWxfYmluZGluZycsICctaW1hZScsICc8aW5maWxlLm1hZT4nLCAnLW9tYWUnLCAnPG91dGZpbGUubWFlPic=

> <r_lp_tautomer_probability>
1

> <r_epik_Ionization_Penalty>
5.02611e-09

> <r_epik_Ionization_Penalty_Charging>
5.01743e-09

> <r_epik_Ionization_Penalty_Neutral>
8.68114e-12

> <r_epik_State_Penalty>
-0

> <r_epik_Charging_Adjusted_Penalty>
5.01743e-09

> <i_epik_Tot_Q>
0

> <i_epik_Tot_abs_Q>
0

> <r_epik_Metal_State_Penalty>
-0

> <b_epik_Metal_Only>
0

> <s_epik_Chemistry_Notes>
This compound contains an acetal/aminal-like group ( X-CH(R)-Y where X, Y are N, S, or O) that may be acid/base labile, releasing an aldehyde.

> <s_lp_Force_Field>
OPLS_2005

> <r_lp_Energy>
51.0988

> <b_lp_Chiralities_Consistent>
1

> <s_lp_Variant>
AV-unprocessed.smi:115-3

> <Gold.Version>
5.8.1

> <Gold.Id.Protein>
6NUR|6NUR_protein|mol2

> <Gold.PLP.Fitness>
39.2262

> <Gold.PLP.PLP>
-35.4458

> <Gold.PLP.part.hbond>
-2.6474

> <Gold.PLP.part.metal>
0.0000

> <Gold.PLP.part.buried>
-1.2130

> <Gold.PLP.part.nonpolar>
-31.8513

> <Gold.PLP.part.repulsive>
0.2327

> <Gold.PLP.ligand.clash>
0.0000

> <Gold.PLP.ligand.torsion>
1.2983

> <Gold.PLP.Chemscore.Hbond>
1.9998

> <Gold.PLP.Chemscore.CHOScore>
0.0000

> <Gold.PLP.Chemscore.Metal>
0.0000

> <Gold.Chemscore.Hbonds>
donor molecule, donor type, donor heavy atom, donor atom, acceptor molecule, acceptor atom, score
      P1  H  6896  6907       L1    16  0.57
      P1  H  7997  8008       L1    25  0.88
      P1  H 10752 10764       L1    12  0.61

> <Gold.PLP.Chemscore.Internal.Correction>
0.3775

> <Gold.Rescore>
     Score         DG    S(hbond)    S(metal)    S(lipo)     H(rot)  DE(clash)    DE(int)     intcor
      6.97     -15.79       2.06        0.00      77.34       2.19       1.65       7.17       ----

> <Gold.Chemscore.Fitness>
6.9722

> <Gold.Chemscore.DG>
-15.7918

> <Gold.Chemscore.ZeroCoef>
-5.4800

> <Gold.Chemscore.Hbond>
2.0595

> <Gold.Chemscore.Metal>
0.0000

> <Gold.Chemscore.Lipo>
77.3422

> <Gold.Chemscore.Internal_Hbond>
0.0000

> <Gold.Chemscore.DEClash>
1.6459

> <Gold.Chemscore.DEInternal>
7.1737

> <Gold.Chemscore.Rot>
2.1938

> <Gold.Chemscore.Internal.Correction>
   9.000000E+99

> <Gold.Chemscore.Hbonds>
donor molecule, donor type, donor heavy atom, donor atom, acceptor molecule, acceptor atom, score
      P1  H  6896  6907       L1    16  0.29
      P1  H  7997  8008       L1    25  0.59
      P1  H 10752 10764       L1    12  0.46

> <Gold.Chemscore.Hbond.Weighted>
-6.8787

> <Gold.Chemscore.Metal.Weighted>
-0.0000

> <Gold.Chemscore.Lipo.Weighted>
-9.0490

> <Gold.Chemscore.Internal_Hbond.Weighted>
0.0000

> <Gold.Chemscore.DEClash.Weighted>
1.6459

> <Gold.Chemscore.DEInternal.Weighted>
7.1737

> <Gold.Chemscore.Rot.Weighted>
5.6160

> <Gold.Chemscore.Internal.Correction.Weighted>
   9.000000E+99

> <Gold.Protein.RotatedTorsions>
[ 6907 6896 6895 6894 ] final  -88.72 input  -60.11 | X-H torsion
[ 7974 7965 7964 7962 ] final   67.10 input  175.53 | X-H torsion
[ 8008 7997 7996 7995 ] final  -69.54 input   59.86 | X-H torsion
[ 10167 10162 10161 10158 ] final  -36.49 input  -65.29 | X-H torsion
[ 10718 10713 10712 10709 ] final  153.10 input   66.30 | X-H torsion
[ 10763 10752 10751 10750 ] final  -19.84 input  -60.55 | X-H torsion
[ 11005 11000 10999 10996 ] final   42.33 input  -57.11 | X-H torsion

> <Gold.Protein.ActiveResidues>
 VAL166  LYS551  ARG553  GLY616  TRP617  ASP618  TYR619  PRO620  LYS621  CYS622 
 ASP623  PHE694  ASN695  SER759  ASP760  ASP761  ALA762  ILE779  LEU786  VAL792 
 PHE793  MET794  SER795  GLU796  ALA797  LYS798  CYS799  TRP800  GLU811  SER814 

> <Gold.Protein.RotatedAtoms>
  150.6870  134.2697  159.4582 H   0  0  0  0  0  0  0  0  0  0  0  0  # atno 6907 bound_to 6896
  152.0620  134.9585  160.0584 H   0  0  0  0  0  0  0  0  0  0  0  0  # atno 6908 bound_to 6896
  152.1008  133.4214  159.4623 H   0  0  0  0  0  0  0  0  0  0  0  0  # atno 6909 bound_to 6896
  145.8187  139.3072  143.1056 H   0  0  0  0  0  0  0  0  0  0  0  0  # atno 7974 bound_to 7965
  154.4946  140.0851  156.7669 H   0  0  0  0  0  0  0  0  0  0  0  0  # atno 8008 bound_to 7997
  155.4147  140.3443  155.4248 H   0  0  0  0  0  0  0  0  0  0  0  0  # atno 8009 bound_to 7997
  156.1377  140.1520  156.8957 H   0  0  0  0  0  0  0  0  0  0  0  0  # atno 8010 bound_to 7997
  140.7141  143.3405  151.2368 H   0  0  0  0  0  0  0  0  0  0  0  0  # atno 10167 bound_to 10162
  157.2492  131.0775  151.1741 H   0  0  0  0  0  0  0  0  0  0  0  0  # atno 10718 bound_to 10713
  153.6111  135.6996  153.5346 H   0  0  0  0  0  0  0  0  0  0  0  0  # atno 10763 bound_to 10752
  153.3016  135.4127  155.1257 H   0  0  0  0  0  0  0  0  0  0  0  0  # atno 10764 bound_to 10752
  154.8563  135.3650  154.5650 H   0  0  0  0  0  0  0  0  0  0  0  0  # atno 10765 bound_to 10752
  140.1749  134.4176  155.8235 H   0  0  0  0  0  0  0  0  0  0  0  0  # atno 11005 bound_to 11000
  145.9699  140.8769  143.0168 LP  0  0  0  0  0  0  0  0  0  0  0  0  # atno 17320 bound_to 7965
  144.6750  140.1930  143.7395 LP  0  0  0  0  0  0  0  0  0  0  0  0  # atno 17321 bound_to 7965
  139.6911  143.9690  152.2859 LP  0  0  0  0  0  0  0  0  0  0  0  0  # atno 17342 bound_to 10162
  139.9352  144.6716  150.8322 LP  0  0  0  0  0  0  0  0  0  0  0  0  # atno 17343 bound_to 10162
  157.3296  130.6978  149.6317 LP  0  0  0  0  0  0  0  0  0  0  0  0  # atno 17370 bound_to 10713
  155.9667  130.4311  150.4906 LP  0  0  0  0  0  0  0  0  0  0  0  0  # atno 17371 bound_to 10713
  141.2220  133.6973  156.7829 LP  0  0  0  0  0  0  0  0  0  0  0  0  # atno 17394 bound_to 11000
  140.2334  134.8668  157.3500 LP  0  0  0  0  0  0  0  0  0  0  0  0  # atno 17395 bound_to 11000

$$$$
