AV-unprocessed.smi:143|AV-procd|sdf|1194|dock4
  -GOLD-   2262018353D 1   1.00000     0.00000
 Structure written by MMmdl.
 38 40  0  0  0  0  0  0  0  0  1 V2000
  153.1811  139.3170  157.9934 O   0  0  0  0  0  0  0  0  0  0  0  0
  152.7828  140.4703  158.1694 C   0  0  0  0  0  0  0  0  0  0  0  0
  152.1243  141.2449  157.0075 C   0  0  0  0  0  0  0  0  0  0  0  0
  151.3569  140.3882  156.1100 N   0  0  0  0  0  0  0  0  0  0  0  0
  152.0561  139.3865  155.3923 C   0  0  0  0  0  0  0  0  0  0  0  0
  153.2746  139.2353  155.4954 O   0  0  0  0  0  0  0  0  0  0  0  0
  151.2127  138.5470  154.5504 C   0  0  0  0  0  0  0  0  0  0  0  0
  151.7641  137.5401  153.8520 F   0  0  0  0  0  0  0  0  0  0  0  0
  149.8799  138.7498  154.4738 C   0  0  0  0  0  0  0  0  0  0  0  0
  149.2217  139.7604  155.1598 N   0  0  0  0  0  0  0  0  0  0  0  0
  147.7082  139.9159  155.1362 C   0  0  1  0  0  0  0  0  0  0  0  0
  147.2186  141.2469  154.5490 C   0  0  0  0  0  0  0  0  0  0  0  0
  146.8727  140.8887  153.1061 C   0  0  0  0  0  0  0  0  0  0  0  0
  147.2023  139.3975  152.9831 C   0  0  0  0  0  0  0  0  0  0  0  0
  147.1754  138.9207  154.3215 O   0  0  0  0  0  0  0  0  0  0  0  0
  149.9558  140.5835  156.0441 C   0  0  0  0  0  0  0  0  0  0  0  0
  149.3890  141.4335  156.7353 O   0  0  0  0  0  0  0  0  0  0  0  0
  152.9071  141.1722  159.4806 C   0  0  0  0  0  0  0  0  0  0  0  0
  153.6554  140.5697  160.5194 C   0  0  0  0  0  0  0  0  0  0  0  0
  153.7959  141.2072  161.7672 C   0  0  0  0  0  0  0  0  0  0  0  0
  153.1903  142.4569  161.9925 C   0  0  0  0  0  0  0  0  0  0  0  0
  153.3837  143.3207  163.6772 Br  0  0  0  0  0  0  0  0  0  0  0  0
  152.4422  143.0664  160.9685 C   0  0  0  0  0  0  0  0  0  0  0  0
  152.3000  142.4293  159.7201 C   0  0  0  0  0  0  0  0  0  0  0  0
  151.4545  142.0207  157.3820 H   0  0  0  0  0  0  0  0  0  0  0  0
  152.8721  141.7685  156.4104 H   0  0  0  0  0  0  0  0  0  0  0  0
  149.3202  138.0684  153.8528 H   0  0  0  0  0  0  0  0  0  0  0  0
  147.3875  139.7991  156.1726 H   0  0  0  0  0  0  0  0  0  0  0  0
  146.3126  141.5411  155.0801 H   0  0  0  0  0  0  0  0  0  0  0  0
  147.9434  142.0523  154.6659 H   0  0  0  0  0  0  0  0  0  0  0  0
  145.8109  141.0598  152.9255 H   0  0  0  0  0  0  0  0  0  0  0  0
  147.4326  141.4841  152.3845 H   0  0  0  0  0  0  0  0  0  0  0  0
  146.4889  138.8620  152.3566 H   0  0  0  0  0  0  0  0  0  0  0  0
  148.1961  139.2503  152.5583 H   0  0  0  0  0  0  0  0  0  0  0  0
  154.1312  139.6109  160.3713 H   0  0  0  0  0  0  0  0  0  0  0  0
  154.3702  140.7358  162.5511 H   0  0  0  0  0  0  0  0  0  0  0  0
  151.9757  144.0255  161.1390 H   0  0  0  0  0  0  0  0  0  0  0  0
  151.7185  142.9287  158.9601 H   0  0  0  0  0  0  0  0  0  0  0  0
  1  2  2  0  0  0  0
  2  3  1  0  0  0  0
  2 18  1  0  0  0  0
  3  4  1  0  0  0  0
  3 25  1  0  0  0  0
  3 26  1  0  0  0  0
  4 16  1  0  0  0  0
  4  5  1  0  0  0  0
  5  6  2  0  0  0  0
  5  7  1  0  0  0  0
  7  8  1  0  0  0  0
  7  9  2  0  0  0  0
  9 10  1  0  0  0  0
  9 27  1  0  0  0  0
 10 11  1  0  0  0  0
 10 16  1  0  0  0  0
 11 15  1  0  0  0  0
 11 12  1  0  0  0  0
 11 28  1  0  0  0  0
 12 13  1  0  0  0  0
 12 29  1  0  0  0  0
 12 30  1  0  0  0  0
 13 14  1  0  0  0  0
 13 31  1  0  0  0  0
 13 32  1  0  0  0  0
 14 15  1  0  0  0  0
 14 33  1  0  0  0  0
 14 34  1  0  0  0  0
 16 17  2  0  0  0  0
 18 24  1  0  0  0  0
 18 19  2  0  0  0  0
 19 20  1  0  0  0  0
 19 35  1  0  0  0  0
 20 21  2  0  0  0  0
 20 36  1  0  0  0  0
 21 22  1  0  0  0  0
 21 23  1  0  0  0  0
 23 24  2  0  0  0  0
 23 37  1  0  0  0  0
 24 38  1  0  0  0  0
M  END
> <s_m_source_file>
AV-unprocessed.smi

> <i_m_source_file_index>
143

> <i_lp_mmshare_version>
43012

> <i_f3d_flags>
0

> <s_epik_input>
W2NIXTFbY0hdYyhCcilbY0hdW2NIXWMxQyg9TylbQ0gyXW4yYyg9TyljKEYpW2NIXW4oYzI9TylbQ0BASF0zW0NIMl1bQ0gyXVtDSDJdTzM=

> <s_epik_cmdline>
J2VwaWtfcHl0aG9uJywgJy1waCcsICc3LjAnLCAnLXRuJywgJzgnLCAnLW1hJywgJzIwMCcsICctbWV0YWxfYmluZGluZycsICctaW1hZScsICc8aW5maWxlLm1hZT4nLCAnLW9tYWUnLCAnPG91dGZpbGUubWFlPic=

> <r_lp_tautomer_probability>
1

> <r_epik_Ionization_Penalty>
4.7008e-09

> <r_epik_Ionization_Penalty_Charging>
4.69459e-09

> <r_epik_Ionization_Penalty_Neutral>
6.21034e-12

> <r_epik_State_Penalty>
-0

> <r_epik_Charging_Adjusted_Penalty>
4.69459e-09

> <i_epik_Tot_Q>
0

> <i_epik_Tot_abs_Q>
0

> <r_epik_Metal_State_Penalty>
-0

> <b_epik_Metal_Only>
0

> <s_epik_Chemistry_Notes>
This compound contains an acetal/aminal-like group ( X-CH(R)-Y where X, Y are N, S, or O) that may be acid/base labile, releasing an aldehyde.

> <s_lp_Force_Field>
OPLS_2005

> <r_lp_Energy>
39.4707

> <b_lp_Chiralities_Consistent>
1

> <s_lp_Variant>
AV-unprocessed.smi:143-2

> <Gold.Version>
5.8.1

> <Gold.Id.Protein>
6NUR|6NUR_protein|mol2

> <Gold.PLP.Fitness>
50.1563

> <Gold.PLP.PLP>
-44.8336

> <Gold.PLP.part.hbond>
-2.0000

> <Gold.PLP.part.metal>
0.0000

> <Gold.PLP.part.buried>
1.0645

> <Gold.PLP.part.nonpolar>
-42.2758

> <Gold.PLP.part.repulsive>
0.2541

> <Gold.PLP.ligand.clash>
0.0000

> <Gold.PLP.ligand.torsion>
0.4667

> <Gold.PLP.Chemscore.Hbond>
1.2728

> <Gold.PLP.Chemscore.CHOScore>
0.7826

> <Gold.PLP.Chemscore.Metal>
0.0000

> <Gold.Chemscore.Hbonds>
donor molecule, donor type, donor heavy atom, donor atom, acceptor molecule, acceptor atom, score
      P1  H  7997  8008       L1     6  0.48
      P1  H  7997  8010       L1     1  0.46
      L1  C     9    27       P1  7948  0.56

> <Gold.PLP.Chemscore.Internal.Correction>
0.0898

> <Gold.Rescore>
     Score         DG    S(hbond)    S(metal)    S(lipo)     H(rot)  DE(clash)    DE(int)     intcor
     11.82     -19.43       1.08        0.00     122.78       1.58       3.19       4.43       ----

> <Gold.Chemscore.Fitness>
11.8179

> <Gold.Chemscore.DG>
-19.4316

> <Gold.Chemscore.ZeroCoef>
-5.4800

> <Gold.Chemscore.Hbond>
1.0846

> <Gold.Chemscore.Metal>
0.0000

> <Gold.Chemscore.Lipo>
122.7779

> <Gold.Chemscore.Internal_Hbond>
0.0000

> <Gold.Chemscore.DEClash>
3.1864

> <Gold.Chemscore.DEInternal>
4.4273

> <Gold.Chemscore.Rot>
1.5765

> <Gold.Chemscore.Internal.Correction>
   9.000000E+99

> <Gold.Chemscore.Hbonds>
donor molecule, donor type, donor heavy atom, donor atom, acceptor molecule, acceptor atom, score
      P1  H  7997  8008       L1     6  0.48
      P1  H  7997  8010       L1     1  0.02

> <Gold.Chemscore.Hbond.Weighted>
-3.6225

> <Gold.Chemscore.Metal.Weighted>
-0.0000

> <Gold.Chemscore.Lipo.Weighted>
-14.3650

> <Gold.Chemscore.Internal_Hbond.Weighted>
0.0000

> <Gold.Chemscore.DEClash.Weighted>
3.1864

> <Gold.Chemscore.DEInternal.Weighted>
4.4273

> <Gold.Chemscore.Rot.Weighted>
4.0359

> <Gold.Chemscore.Internal.Correction.Weighted>
   9.000000E+99

> <Gold.Protein.RotatedTorsions>
[ 6907 6896 6895 6894 ] final  -44.40 input  -60.11 | X-H torsion
[ 7974 7965 7964 7962 ] final  -93.93 input  175.53 | X-H torsion
[ 8008 7997 7996 7995 ] final   14.42 input   59.86 | X-H torsion
[ 10167 10162 10161 10158 ] final   39.85 input  -65.29 | X-H torsion
[ 10718 10713 10712 10709 ] final   71.34 input   66.30 | X-H torsion
[ 10763 10752 10751 10750 ] final  -56.24 input  -60.55 | X-H torsion
[ 11005 11000 10999 10996 ] final -111.37 input  -57.11 | X-H torsion

> <Gold.Protein.ActiveResidues>
 VAL166  LYS551  ARG553  GLY616  TRP617  ASP618  TYR619  PRO620  LYS621  CYS622 
 ASP623  PHE694  ASN695  SER759  ASP760  ASP761  ALA762  ILE779  LEU786  VAL792 
 PHE793  MET794  SER795  GLU796  ALA797  LYS798  CYS799  TRP800  GLU811  SER814 

> <Gold.Protein.RotatedAtoms>
  150.9332  134.8746  159.7564 H   0  0  0  0  0  0  0  0  0  0  0  0  # atno 6907 bound_to 6896
  152.5047  134.4048  159.9438 H   0  0  0  0  0  0  0  0  0  0  0  0  # atno 6908 bound_to 6896
  151.4074  133.3698  159.2774 H   0  0  0  0  0  0  0  0  0  0  0  0  # atno 6909 bound_to 6896
  145.3800  140.9516  143.2399 H   0  0  0  0  0  0  0  0  0  0  0  0  # atno 7974 bound_to 7965
  154.8482  140.2925  155.5615 H   0  0  0  0  0  0  0  0  0  0  0  0  # atno 8008 bound_to 7997
  156.3015  140.2501  156.3368 H   0  0  0  0  0  0  0  0  0  0  0  0  # atno 8009 bound_to 7997
  154.9050  140.0390  157.1904 H   0  0  0  0  0  0  0  0  0  0  0  0  # atno 8010 bound_to 7997
  140.3799  144.1994  150.6131 H   0  0  0  0  0  0  0  0  0  0  0  0  # atno 10167 bound_to 10162
  157.6447  130.9523  150.0776 H   0  0  0  0  0  0  0  0  0  0  0  0  # atno 10718 bound_to 10713
  154.2036  135.6407  153.5094 H   0  0  0  0  0  0  0  0  0  0  0  0  # atno 10763 bound_to 10752
  153.0006  135.5457  154.6289 H   0  0  0  0  0  0  0  0  0  0  0  0  # atno 10764 bound_to 10752
  154.5709  135.2916  155.0802 H   0  0  0  0  0  0  0  0  0  0  0  0  # atno 10765 bound_to 10752
  141.0738  133.9335  157.2431 H   0  0  0  0  0  0  0  0  0  0  0  0  # atno 11005 bound_to 11000
  144.8515  139.5315  143.6854 LP  0  0  0  0  0  0  0  0  0  0  0  0  # atno 17320 bound_to 7965
  146.2846  139.6970  142.9204 LP  0  0  0  0  0  0  0  0  0  0  0  0  # atno 17321 bound_to 7965
  140.4948  143.2336  151.8765 LP  0  0  0  0  0  0  0  0  0  0  0  0  # atno 17342 bound_to 10162
  139.4796  144.5125  151.8912 LP  0  0  0  0  0  0  0  0  0  0  0  0  # atno 17343 bound_to 10162
  156.1762  130.3648  149.9097 LP  0  0  0  0  0  0  0  0  0  0  0  0  # atno 17370 bound_to 10713
  156.7061  130.8952  151.3604 LP  0  0  0  0  0  0  0  0  0  0  0  0  # atno 17371 bound_to 10713
  139.9551  135.0167  156.9104 LP  0  0  0  0  0  0  0  0  0  0  0  0  # atno 17394 bound_to 11000
  140.5617  134.0529  155.7401 LP  0  0  0  0  0  0  0  0  0  0  0  0  # atno 17395 bound_to 11000

$$$$
