AV-unprocessed.smi:3337|AV-procd|sdf|12862|dock4
  -GOLD-   2272019263D 1   1.00000     0.00000
 Structure written by MMmdl.
 46 47  0  0  0  0  0  0  0  0  2 V2000
  144.5003  132.9233  149.7012 C   0  0  0  0  0  0  0  0  0  0  0  0
  145.2150  133.1009  151.0481 C   0  0  1  0  0  0  0  0  0  0  0  0
  145.8967  131.7967  151.4969 C   0  0  0  0  0  0  0  0  0  0  0  0
  146.6457  131.9955  152.8262 C   0  0  1  0  0  0  0  0  0  0  0  0
  147.3481  130.7045  153.2698 C   0  0  0  0  0  0  0  0  0  0  0  0
  147.6442  133.1656  152.7006 C   0  0  0  0  0  0  0  0  0  0  0  0
  146.9816  134.4259  152.2729 N   0  3  2  0  0  0  0  0  0  0  0  0
  146.2028  135.0848  153.3554 C   0  0  0  0  0  0  0  0  0  0  0  0
  147.0693  135.4122  154.5876 C   0  0  0  0  0  0  0  0  0  0  0  0
  148.0715  136.4272  154.2852 N   0  0  0  0  0  0  0  0  0  0  0  0
  148.6323  137.2438  155.1916 C   0  0  0  0  0  0  0  0  0  0  0  0
  148.3623  137.1951  156.3924 O   0  0  0  0  0  0  0  0  0  0  0  0
  149.6475  138.2658  154.6561 C   0  0  2  0  0  0  0  0  0  0  0  0
  151.0758  138.0117  155.1789 C   0  0  0  0  0  0  0  0  0  0  0  0
  149.1934  139.6225  154.9349 N   0  0  0  0  0  0  0  0  0  0  0  0
  148.7627  140.5715  154.1007 C   0  0  0  0  0  0  0  0  0  0  0  0
  148.3834  141.6885  154.7049 N   0  0  0  0  0  0  0  0  0  0  0  0
  148.6131  141.3347  156.0041 C   0  0  0  0  0  0  0  0  0  0  0  0
  149.0879  140.1046  156.1986 N   0  0  0  0  0  0  0  0  0  0  0  0
  146.2445  134.2514  150.9907 C   0  0  0  0  0  0  0  0  0  0  0  0
  145.2038  132.6710  148.9070 H   0  0  0  0  0  0  0  0  0  0  0  0
  143.9817  133.8370  149.4090 H   0  0  0  0  0  0  0  0  0  0  0  0
  143.7571  132.1270  149.7527 H   0  0  0  0  0  0  0  0  0  0  0  0
  144.4485  133.3518  151.7815 H   0  0  0  0  0  0  0  0  0  0  0  0
  145.1523  131.0064  151.6042 H   0  0  0  0  0  0  0  0  0  0  0  0
  146.5946  131.4617  150.7278 H   0  0  0  0  0  0  0  0  0  0  0  0
  145.9137  132.2455  153.5953 H   0  0  0  0  0  0  0  0  0  0  0  0
  148.1073  130.3970  152.5498 H   0  0  0  0  0  0  0  0  0  0  0  0
  146.6359  129.8850  153.3715 H   0  0  0  0  0  0  0  0  0  0  0  0
  147.8379  130.8353  154.2351 H   0  0  0  0  0  0  0  0  0  0  0  0
  148.1752  133.3227  153.6403 H   0  0  0  0  0  0  0  0  0  0  0  0
  148.4080  132.9153  151.9625 H   0  0  0  0  0  0  0  0  0  0  0  0
  145.7080  135.9791  152.9777 H   0  0  0  0  0  0  0  0  0  0  0  0
  145.4054  134.4139  153.6781 H   0  0  0  0  0  0  0  0  0  0  0  0
  146.4403  135.7876  155.3952 H   0  0  0  0  0  0  0  0  0  0  0  0
  147.5717  134.5255  154.9745 H   0  0  0  0  0  0  0  0  0  0  0  0
  148.3447  136.5298  153.3183 H   0  0  0  0  0  0  0  0  0  0  0  0
  149.6797  138.1564  153.5705 H   0  0  0  0  0  0  0  0  0  0  0  0
  151.4167  137.0094  154.9172 H   0  0  0  0  0  0  0  0  0  0  0  0
  151.1407  138.1095  156.2633 H   0  0  0  0  0  0  0  0  0  0  0  0
  151.7802  138.7204  154.7425 H   0  0  0  0  0  0  0  0  0  0  0  0
  148.7232  140.4426  153.0291 H   0  0  0  0  0  0  0  0  0  0  0  0
  148.4183  142.0011  156.8315 H   0  0  0  0  0  0  0  0  0  0  0  0
  146.9775  134.0398  150.2109 H   0  0  0  0  0  0  0  0  0  0  0  0
  145.7592  135.1806  150.6948 H   0  0  0  0  0  0  0  0  0  0  0  0
  147.7368  135.0667  152.0748 H   0  0  0  0  0  0  0  0  0  0  0  0
  1  2  1  0  0  0  0
  1 21  1  0  0  0  0
  1 22  1  0  0  0  0
  1 23  1  0  0  0  0
  2 20  1  0  0  0  0
  2  3  1  0  0  0  0
  2 24  1  0  0  0  0
  3  4  1  0  0  0  0
  3 25  1  0  0  0  0
  3 26  1  0  0  0  0
  4  5  1  0  0  0  0
  4  6  1  0  0  0  0
  4 27  1  0  0  0  0
  5 28  1  0  0  0  0
  5 29  1  0  0  0  0
  5 30  1  0  0  0  0
  6  7  1  0  0  0  0
  6 31  1  0  0  0  0
  6 32  1  0  0  0  0
  7  8  1  0  0  0  0
  7 20  1  0  0  0  0
  7 46  1  0  0  0  0
  8  9  1  0  0  0  0
  8 33  1  0  0  0  0
  8 34  1  0  0  0  0
  9 10  1  0  0  0  0
  9 35  1  0  0  0  0
  9 36  1  0  0  0  0
 10 11  1  0  0  0  0
 10 37  1  0  0  0  0
 11 12  2  0  0  0  0
 11 13  1  0  0  0  0
 13 14  1  0  0  0  0
 13 15  1  0  0  0  0
 13 38  1  0  0  0  0
 14 39  1  0  0  0  0
 14 40  1  0  0  0  0
 14 41  1  0  0  0  0
 15 19  1  0  0  0  0
 15 16  1  0  0  0  0
 16 17  2  0  0  0  0
 16 42  1  0  0  0  0
 17 18  1  0  0  0  0
 18 19  2  0  0  0  0
 18 43  1  0  0  0  0
 20 44  1  0  0  0  0
 20 45  1  0  0  0  0
M  CHG  1   7   1
M  END
> <s_m_source_file>
AV-unprocessed.smi

> <i_m_source_file_index>
3337

> <i_lp_mmshare_version>
43012

> <i_f3d_flags>
0

> <s_epik_input>
W0NIM11bQ0BASF0xW0NIMl1bQ0BASF0oW0NIM10pW0NIMl1OKFtDSDJdMSlbQ0gyXVtDSDJdW05IXUMoPU8pW0NASF0oW0NIM10pbjJbY0hdbltjSF1uMg==

> <s_epik_cmdline>
J2VwaWtfcHl0aG9uJywgJy1waCcsICc3LjAnLCAnLXRuJywgJzgnLCAnLW1hJywgJzIwMCcsICctbWV0YWxfYmluZGluZycsICctaW1hZScsICc8aW5maWxlLm1hZT4nLCAnLW9tYWUnLCAnPG91dGZpbGUubWFlPic=

> <r_lp_tautomer_probability>
1

> <r_epik_Ionization_Penalty>
0.00175613

> <r_epik_Ionization_Penalty_Charging>
0.00174812

> <r_epik_Ionization_Penalty_Neutral>
8.01354e-06

> <r_epik_State_Penalty>
0.00118332

> <r_epik_Charging_Adjusted_Penalty>
0.00293143

> <i_epik_Tot_Q>
1

> <i_epik_Tot_abs_Q>
1

> <r_epik_Metal_State_Penalty>
-0

> <b_epik_Metal_Only>
0

> <s_lp_Force_Field>
OPLS_2005

> <r_lp_Energy>
24.5444

> <b_lp_Chiralities_Consistent>
1

> <s_lp_Variant>
AV-unprocessed.smi:3337-2

> <Gold.Version>
5.8.1

> <Gold.Id.Protein>
6NUR|6NUR_protein|mol2

> <Gold.PLP.Fitness>
43.6989

> <Gold.PLP.PLP>
-30.3216

> <Gold.PLP.part.hbond>
-1.8022

> <Gold.PLP.part.metal>
0.0000

> <Gold.PLP.part.buried>
-1.2339

> <Gold.PLP.part.nonpolar>
-27.3854

> <Gold.PLP.part.repulsive>
0.2660

> <Gold.PLP.ligand.clash>
0.0000

> <Gold.PLP.ligand.torsion>
0.2911

> <Gold.PLP.Chemscore.Hbond>
2.9920

> <Gold.PLP.Chemscore.CHOScore>
1.6168

> <Gold.PLP.Chemscore.Metal>
0.0000

> <Gold.Chemscore.Hbonds>
donor molecule, donor type, donor heavy atom, donor atom, acceptor molecule, acceptor atom, score
      L1  H     7    46       P1  7948  2.00
      L1  H    10    37       P1  7948  1.00
      L1  C    16    42       P1  7957  1.00

> <Gold.PLP.Chemscore.Internal.Correction>
0.1332

> <Gold.Rescore>
     Score         DG    S(hbond)    S(metal)    S(lipo)     H(rot)  DE(clash)    DE(int)     intcor
     12.34     -12.88       1.90        0.00      63.89       2.51       0.12       0.42       ----

> <Gold.Chemscore.Fitness>
12.3384

> <Gold.Chemscore.DG>
-12.8760

> <Gold.Chemscore.ZeroCoef>
-5.4800

> <Gold.Chemscore.Hbond>
1.9023

> <Gold.Chemscore.Metal>
0.0000

> <Gold.Chemscore.Lipo>
63.8912

> <Gold.Chemscore.Internal_Hbond>
0.0000

> <Gold.Chemscore.DEClash>
0.1160

> <Gold.Chemscore.DEInternal>
0.4216

> <Gold.Chemscore.Rot>
2.5129

> <Gold.Chemscore.Internal.Correction>
   9.000000E+99

> <Gold.Chemscore.Hbonds>
donor molecule, donor type, donor heavy atom, donor atom, acceptor molecule, acceptor atom, score
      L1  H     7    46       P1  7948  0.88
      L1  H    10    37       P1  7948  0.98

> <Gold.Chemscore.Hbond.Weighted>
-6.3538

> <Gold.Chemscore.Metal.Weighted>
-0.0000

> <Gold.Chemscore.Lipo.Weighted>
-7.4753

> <Gold.Chemscore.Internal_Hbond.Weighted>
0.0000

> <Gold.Chemscore.DEClash.Weighted>
0.1160

> <Gold.Chemscore.DEInternal.Weighted>
0.4216

> <Gold.Chemscore.Rot.Weighted>
6.4331

> <Gold.Chemscore.Internal.Correction.Weighted>
   9.000000E+99

> <Gold.Protein.RotatedTorsions>
[ 6907 6896 6895 6894 ] final   76.14 input  -60.11 | X-H torsion
[ 7974 7965 7964 7962 ] final  -10.36 input  175.53 | X-H torsion
[ 8008 7997 7996 7995 ] final -101.42 input   59.86 | X-H torsion
[ 10167 10162 10161 10158 ] final   90.42 input  -65.29 | X-H torsion
[ 10718 10713 10712 10709 ] final  178.02 input   66.30 | X-H torsion
[ 10763 10752 10751 10750 ] final   22.06 input  -60.55 | X-H torsion
[ 11005 11000 10999 10996 ] final   50.30 input  -57.11 | X-H torsion

> <Gold.Protein.ActiveResidues>
 VAL166  LYS551  ARG553  GLY616  TRP617  ASP618  TYR619  PRO620  LYS621  CYS622 
 ASP623  PHE694  ASN695  SER759  ASP760  ASP761  ALA762  ILE779  LEU786  VAL792 
 PHE793  MET794  SER795  GLU796  ALA797  LYS798  CYS799  TRP800  GLU811  SER814 

> <Gold.Protein.RotatedAtoms>
  152.5059  134.4014  159.9417 H   0  0  0  0  0  0  0  0  0  0  0  0  # atno 6907 bound_to 6896
  151.3978  133.3761  159.2736 H   0  0  0  0  0  0  0  0  0  0  0  0  # atno 6908 bound_to 6896
  150.9384  134.8816  159.7655 H   0  0  0  0  0  0  0  0  0  0  0  0  # atno 6909 bound_to 6896
  146.2223  140.2752  142.8359 H   0  0  0  0  0  0  0  0  0  0  0  0  # atno 7974 bound_to 7965
  154.8424  140.0434  157.1550 H   0  0  0  0  0  0  0  0  0  0  0  0  # atno 8008 bound_to 7997
  154.9033  140.3003  155.5285 H   0  0  0  0  0  0  0  0  0  0  0  0  # atno 8009 bound_to 7997
  156.2993  140.2372  156.4063 H   0  0  0  0  0  0  0  0  0  0  0  0  # atno 8010 bound_to 7997
  139.8475  144.6610  150.9209 H   0  0  0  0  0  0  0  0  0  0  0  0  # atno 10167 bound_to 10162
  156.8967  130.9865  151.3041 H   0  0  0  0  0  0  0  0  0  0  0  0  # atno 10718 bound_to 10713
  153.0945  135.6656  153.9790 H   0  0  0  0  0  0  0  0  0  0  0  0  # atno 10763 bound_to 10752
  153.9377  135.2997  155.3445 H   0  0  0  0  0  0  0  0  0  0  0  0  # atno 10764 bound_to 10752
  154.7362  135.5100  153.9120 H   0  0  0  0  0  0  0  0  0  0  0  0  # atno 10765 bound_to 10752
  140.1029  134.5057  155.8746 H   0  0  0  0  0  0  0  0  0  0  0  0  # atno 11005 bound_to 11000
  144.9238  140.7898  143.5732 LP  0  0  0  0  0  0  0  0  0  0  0  0  # atno 17320 bound_to 7965
  145.2690  139.1962  143.4851 LP  0  0  0  0  0  0  0  0  0  0  0  0  # atno 17321 bound_to 7965
  140.7791  143.3857  151.1398 LP  0  0  0  0  0  0  0  0  0  0  0  0  # atno 17342 bound_to 10162
  139.7498  143.8796  152.3073 LP  0  0  0  0  0  0  0  0  0  0  0  0  # atno 17343 bound_to 10162
  157.6051  130.8541  149.8862 LP  0  0  0  0  0  0  0  0  0  0  0  0  # atno 17370 bound_to 10713
  156.0602  130.3701  150.1000 LP  0  0  0  0  0  0  0  0  0  0  0  0  # atno 17371 bound_to 10713
  141.2110  133.6702  156.6554 LP  0  0  0  0  0  0  0  0  0  0  0  0  # atno 17394 bound_to 11000
  140.3195  134.8020  157.4241 LP  0  0  0  0  0  0  0  0  0  0  0  0  # atno 17395 bound_to 11000

$$$$
