AV-unprocessed.smi:1910|AV-procd|sdf|7736|dock2
  -GOLD-   22720 9473D 1   1.00000     0.00000
 Structure written by MMmdl.
 40 41  0  0  0  0  0  0  0  0  1 V2000
  151.7536  138.3282  154.4050 C   0  0  0  0  0  0  0  0  0  0  0  0
  150.3703  138.2712  154.0742 O   0  0  0  0  0  0  0  0  0  0  0  0
  149.6091  139.4156  154.2198 C   0  0  0  0  0  0  0  0  0  0  0  0
  150.1988  140.5184  154.7462 N   0  0  0  0  0  0  0  0  0  0  0  0
  149.4573  141.6350  154.8948 C   0  0  0  0  0  0  0  0  0  0  0  0
  148.0990  141.7099  154.5368 C   0  0  0  0  0  0  0  0  0  0  0  0
  147.4847  140.5676  153.9907 C   0  0  0  0  0  0  0  0  0  0  0  0
  148.2535  139.3906  153.8147 C   0  0  0  0  0  0  0  0  0  0  0  0
  147.7392  138.1731  153.2853 N   0  0  0  0  0  0  0  0  0  0  0  0
  146.4800  137.7033  153.3016 C   0  0  0  0  0  0  0  0  0  0  0  0
  145.5092  138.2722  153.7997 O   0  0  0  0  0  0  0  0  0  0  0  0
  146.4011  136.5154  152.6855 N   0  0  0  0  0  0  0  0  0  0  0  0
  145.1809  135.7304  152.5261 C   0  0  0  0  0  0  0  0  0  0  0  0
  144.8346  135.4897  151.0424 C   0  0  0  0  0  0  0  0  0  0  0  0
  144.7542  134.0848  150.6470 N   0  0  0  0  0  0  0  0  0  0  0  0
  146.0429  133.4039  150.7465 C   0  0  0  0  0  0  0  0  0  0  0  0
  145.9392  131.9200  150.3532 C   0  0  0  0  0  0  0  0  0  0  0  0
  144.9618  131.2771  151.1645 O   0  0  0  0  0  0  0  0  0  0  0  0
  143.6779  131.8842  151.0620 C   0  0  0  0  0  0  0  0  0  0  0  0
  143.7762  133.3675  151.4579 C   0  0  0  0  0  0  0  0  0  0  0  0
  152.2040  137.3498  154.2395 H   0  0  0  0  0  0  0  0  0  0  0  0
  151.9025  138.5869  155.4544 H   0  0  0  0  0  0  0  0  0  0  0  0
  152.2852  139.0468  153.7796 H   0  0  0  0  0  0  0  0  0  0  0  0
  149.9601  142.4922  155.3174 H   0  0  0  0  0  0  0  0  0  0  0  0
  147.5393  142.6222  154.6815 H   0  0  0  0  0  0  0  0  0  0  0  0
  146.4390  140.6196  153.7334 H   0  0  0  0  0  0  0  0  0  0  0  0
  148.4110  137.6115  152.7826 H   0  0  0  0  0  0  0  0  0  0  0  0
  147.2468  136.1224  152.2988 H   0  0  0  0  0  0  0  0  0  0  0  0
  145.3148  134.7711  153.0284 H   0  0  0  0  0  0  0  0  0  0  0  0
  144.3597  136.2253  153.0454 H   0  0  0  0  0  0  0  0  0  0  0  0
  143.9201  136.0162  150.7647 H   0  0  0  0  0  0  0  0  0  0  0  0
  145.6255  135.9583  150.4551 H   0  0  0  0  0  0  0  0  0  0  0  0
  146.7757  133.8879  150.1010 H   0  0  0  0  0  0  0  0  0  0  0  0
  146.4248  133.4817  151.7655 H   0  0  0  0  0  0  0  0  0  0  0  0
  145.6717  131.8177  149.3003 H   0  0  0  0  0  0  0  0  0  0  0  0
  146.8996  131.4229  150.4897 H   0  0  0  0  0  0  0  0  0  0  0  0
  143.2984  131.7799  150.0442 H   0  0  0  0  0  0  0  0  0  0  0  0
  142.9825  131.3611  151.7183 H   0  0  0  0  0  0  0  0  0  0  0  0
  144.0457  133.4403  152.5127 H   0  0  0  0  0  0  0  0  0  0  0  0
  142.7958  133.8334  151.3537 H   0  0  0  0  0  0  0  0  0  0  0  0
  1  2  1  0  0  0  0
  1 21  1  0  0  0  0
  1 22  1  0  0  0  0
  1 23  1  0  0  0  0
  2  3  1  0  0  0  0
  3  8  1  0  0  0  0
  3  4  2  0  0  0  0
  4  5  1  0  0  0  0
  5  6  2  0  0  0  0
  5 24  1  0  0  0  0
  6  7  1  0  0  0  0
  6 25  1  0  0  0  0
  7  8  2  0  0  0  0
  7 26  1  0  0  0  0
  8  9  1  0  0  0  0
  9 10  1  0  0  0  0
  9 27  1  0  0  0  0
 10 11  2  0  0  0  0
 10 12  1  0  0  0  0
 12 13  1  0  0  0  0
 12 28  1  0  0  0  0
 13 14  1  0  0  0  0
 13 29  1  0  0  0  0
 13 30  1  0  0  0  0
 14 15  1  0  0  0  0
 14 31  1  0  0  0  0
 14 32  1  0  0  0  0
 15 20  1  0  0  0  0
 15 16  1  0  0  0  0
 16 17  1  0  0  0  0
 16 33  1  0  0  0  0
 16 34  1  0  0  0  0
 17 18  1  0  0  0  0
 17 35  1  0  0  0  0
 17 36  1  0  0  0  0
 18 19  1  0  0  0  0
 19 20  1  0  0  0  0
 19 37  1  0  0  0  0
 19 38  1  0  0  0  0
 20 39  1  0  0  0  0
 20 40  1  0  0  0  0
M  END
> <s_m_source_file>
AV-unprocessed.smi

> <i_m_source_file_index>
1910

> <i_lp_mmshare_version>
43012

> <i_f3d_flags>
0

> <s_epik_input>
W0NIM11PYzFuW2NIXVtjSF1bY0hdYzFbTkhdQyg9TylbTkhdW0NIMl1bQ0gyXU4yW0NIMl1bQ0gyXU9bQ0gyXVtDSDJdMg==

> <s_epik_cmdline>
J2VwaWtfcHl0aG9uJywgJy1waCcsICc3LjAnLCAnLXRuJywgJzgnLCAnLW1hJywgJzIwMCcsICctbWV0YWxfYmluZGluZycsICctaW1hZScsICc8aW5maWxlLm1hZT4nLCAnLW9tYWUnLCAnPG91dGZpbGUubWFlPic=

> <r_lp_tautomer_probability>
1

> <r_epik_Ionization_Penalty>
0.266083

> <r_epik_Ionization_Penalty_Charging>
0

> <r_epik_Ionization_Penalty_Neutral>
0.266083

> <r_epik_State_Penalty>
0.257924

> <r_epik_Charging_Adjusted_Penalty>
0.257924

> <i_epik_Tot_Q>
0

> <i_epik_Tot_abs_Q>
0

> <r_epik_Metal_State_Penalty>
0.257922

> <b_epik_Metal_Only>
0

> <s_lp_Force_Field>
OPLS_2005

> <r_lp_Energy>
30.1373

> <b_lp_Chiralities_Consistent>
1

> <s_lp_Variant>
AV-unprocessed.smi:1910-1

> <Gold.Version>
5.8.1

> <Gold.Id.Protein>
6NUR|6NUR_protein|mol2

> <Gold.PLP.Fitness>
45.2326

> <Gold.PLP.PLP>
-34.8755

> <Gold.PLP.part.hbond>
-3.0380

> <Gold.PLP.part.metal>
0.0000

> <Gold.PLP.part.buried>
-3.1956

> <Gold.PLP.part.nonpolar>
-30.2226

> <Gold.PLP.part.repulsive>
1.4190

> <Gold.PLP.ligand.clash>
0.0000

> <Gold.PLP.ligand.torsion>
0.5546

> <Gold.PLP.Chemscore.Hbond>
2.9600

> <Gold.PLP.Chemscore.CHOScore>
0.8516

> <Gold.PLP.Chemscore.Metal>
0.0000

> <Gold.Chemscore.Hbonds>
donor molecule, donor type, donor heavy atom, donor atom, acceptor molecule, acceptor atom, score
      L1  H     9    27       P1  7948  1.00
      L1  H    12    28       P1  7948  1.00
      P1  H  7989  7998       L1     4  0.94
      L1  C     5    24       P1  8028  0.88

> <Gold.PLP.Chemscore.Internal.Correction>
0.0314

> <Gold.Rescore>
     Score         DG    S(hbond)    S(metal)    S(lipo)     H(rot)  DE(clash)    DE(int)     intcor
     15.68     -17.37       2.10        0.00      80.22       1.76       0.17       1.53       ----

> <Gold.Chemscore.Fitness>
15.6775

> <Gold.Chemscore.DG>
-17.3728

> <Gold.Chemscore.ZeroCoef>
-5.4800

> <Gold.Chemscore.Hbond>
2.1016

> <Gold.Chemscore.Metal>
0.0000

> <Gold.Chemscore.Lipo>
80.2219

> <Gold.Chemscore.Internal_Hbond>
0.0000

> <Gold.Chemscore.DEClash>
0.1699

> <Gold.Chemscore.DEInternal>
1.5255

> <Gold.Chemscore.Rot>
1.7626

> <Gold.Chemscore.Internal.Correction>
   9.000000E+99

> <Gold.Chemscore.Hbonds>
donor molecule, donor type, donor heavy atom, donor atom, acceptor molecule, acceptor atom, score
      L1  H     9    27       P1  7948  0.99
      L1  H    12    28       P1  7948  0.97
      P1  H  7989  7998       L1     4  0.23

> <Gold.Chemscore.Hbond.Weighted>
-7.0192

> <Gold.Chemscore.Metal.Weighted>
-0.0000

> <Gold.Chemscore.Lipo.Weighted>
-9.3860

> <Gold.Chemscore.Internal_Hbond.Weighted>
0.0000

> <Gold.Chemscore.DEClash.Weighted>
0.1699

> <Gold.Chemscore.DEInternal.Weighted>
1.5255

> <Gold.Chemscore.Rot.Weighted>
4.5123

> <Gold.Chemscore.Internal.Correction.Weighted>
   9.000000E+99

> <Gold.Protein.RotatedTorsions>
[ 6907 6896 6895 6894 ] final   85.52 input  -60.11 | X-H torsion
[ 7974 7965 7964 7962 ] final  132.39 input  175.53 | X-H torsion
[ 8008 7997 7996 7995 ] final  175.92 input   59.86 | X-H torsion
[ 10167 10162 10161 10158 ] final  -82.66 input  -65.29 | X-H torsion
[ 10718 10713 10712 10709 ] final  -79.46 input   66.30 | X-H torsion
[ 10763 10752 10751 10750 ] final  -54.74 input  -60.55 | X-H torsion
[ 11005 11000 10999 10996 ] final   79.56 input  -57.11 | X-H torsion

> <Gold.Protein.ActiveResidues>
 VAL166  LYS551  ARG553  GLY616  TRP617  ASP618  TYR619  PRO620  LYS621  CYS622 
 ASP623  PHE694  ASN695  SER759  ASP760  ASP761  ALA762  ILE779  LEU786  VAL792 
 PHE793  MET794  SER795  GLU796  ALA797  LYS798  CYS799  TRP800  GLU811  SER814 

> <Gold.Protein.RotatedAtoms>
  152.5376  134.2573  159.8921 H   0  0  0  0  0  0  0  0  0  0  0  0  # atno 6907 bound_to 6896
  151.2534  133.4332  159.2620 H   0  0  0  0  0  0  0  0  0  0  0  0  # atno 6908 bound_to 6896
  151.0518  134.9692  159.8272 H   0  0  0  0  0  0  0  0  0  0  0  0  # atno 6909 bound_to 6896
  144.9974  139.4346  143.5309 H   0  0  0  0  0  0  0  0  0  0  0  0  # atno 7974 bound_to 7965
  156.0820  140.1396  156.9701 H   0  0  0  0  0  0  0  0  0  0  0  0  # atno 8008 bound_to 7997
  154.4590  140.0950  156.6889 H   0  0  0  0  0  0  0  0  0  0  0  0  # atno 8009 bound_to 7997
  155.5061  140.3452  155.4382 H   0  0  0  0  0  0  0  0  0  0  0  0  # atno 8010 bound_to 7997
  140.4299  143.2552  151.8774 H   0  0  0  0  0  0  0  0  0  0  0  0  # atno 10167 bound_to 10162
  156.0092  130.4546  150.3651 H   0  0  0  0  0  0  0  0  0  0  0  0  # atno 10718 bound_to 10713
  154.1797  135.6445  153.5031 H   0  0  0  0  0  0  0  0  0  0  0  0  # atno 10763 bound_to 10752
  153.0062  135.5403  154.6527 H   0  0  0  0  0  0  0  0  0  0  0  0  # atno 10764 bound_to 10752
  154.5888  135.2932  155.0630 H   0  0  0  0  0  0  0  0  0  0  0  0  # atno 10765 bound_to 10752
  139.9168  134.7852  156.1795 H   0  0  0  0  0  0  0  0  0  0  0  0  # atno 11005 bound_to 11000
  146.3445  139.9342  142.8749 LP  0  0  0  0  0  0  0  0  0  0  0  0  # atno 17320 bound_to 7965
  145.2201  140.9931  143.4050 LP  0  0  0  0  0  0  0  0  0  0  0  0  # atno 17321 bound_to 7965
  139.4784  144.5346  151.8617 LP  0  0  0  0  0  0  0  0  0  0  0  0  # atno 17342 bound_to 10162
  140.4439  144.1948  150.5893 LP  0  0  0  0  0  0  0  0  0  0  0  0  # atno 17343 bound_to 10162
  157.1738  131.0375  151.2782 LP  0  0  0  0  0  0  0  0  0  0  0  0  # atno 17370 bound_to 10713
  157.4205  130.7435  149.6910 LP  0  0  0  0  0  0  0  0  0  0  0  0  # atno 17371 bound_to 10713
  141.0651  133.6823  156.2028 LP  0  0  0  0  0  0  0  0  0  0  0  0  # atno 17394 bound_to 11000
  140.6598  134.4979  157.5582 LP  0  0  0  0  0  0  0  0  0  0  0  0  # atno 17395 bound_to 11000

$$$$
