AV-unprocessed.smi:1954|AV-procd|sdf|7895|dock1
  -GOLD-   2272010 53D 1   1.00000     0.00000
 Structure written by MMmdl.
 44 46  0  0  0  0  0  0  0  0  1 V2000
  154.0793  140.0746  159.2651 O   0  0  0  0  0  0  0  0  0  0  0  0
  154.0603  140.2195  160.4877 C   0  0  0  0  0  0  0  0  0  0  0  0
  154.5404  139.3114  161.3493 N   0  0  0  0  0  0  0  0  0  0  0  0
  155.1561  138.0341  160.9907 C   0  0  0  0  0  0  0  0  0  0  0  0
  154.2278  136.8087  161.2843 C   0  0  2  0  0  0  0  0  0  0  0  0
  153.2886  136.5832  160.1422 N   0  0  0  0  0  0  0  0  0  0  0  0
  153.9095  136.3608  158.8283 C   0  0  0  0  0  0  0  0  0  0  0  0
  152.8728  136.0553  157.7339 C   0  0  0  0  0  0  0  0  0  0  0  0
  151.9247  137.1112  157.6609 O   0  0  0  0  0  0  0  0  0  0  0  0
  151.2446  137.3059  158.8931 C   0  0  0  0  0  0  0  0  0  0  0  0
  152.2616  137.6248  160.0016 C   0  0  0  0  0  0  0  0  0  0  0  0
  153.5040  137.0648  162.6385 C   0  0  0  0  0  0  0  0  0  0  0  0
  154.5197  136.9626  163.7810 C   0  0  0  0  0  0  0  0  0  0  0  0
  155.7419  135.7200  163.3009 S   0  0  0  0  0  0  0  0  0  0  0  0
  155.1289  135.5866  161.5980 C   0  0  0  0  0  0  0  0  0  0  0  0
  153.5692  141.2899  161.1364 N   0  0  0  0  0  0  0  0  0  0  0  0
  152.9857  142.4605  160.5827 C   0  0  0  0  0  0  0  0  0  0  0  0
  152.3767  143.3265  161.5190 C   0  0  0  0  0  0  0  0  0  0  0  0
  151.7684  144.5149  161.0704 C   0  0  0  0  0  0  0  0  0  0  0  0
  151.7860  144.8079  159.6953 C   0  0  0  0  0  0  0  0  0  0  0  0
  152.4146  143.8931  158.8305 C   0  0  0  0  0  0  0  0  0  0  0  0
  152.9978  142.7535  159.2581 N   0  0  0  0  0  0  0  0  0  0  0  0
  154.4922  139.5237  162.3350 H   0  0  0  0  0  0  0  0  0  0  0  0
  155.4153  138.0825  159.9341 H   0  0  0  0  0  0  0  0  0  0  0  0
  156.1254  137.9349  161.4791 H   0  0  0  0  0  0  0  0  0  0  0  0
  154.4915  137.2303  158.5256 H   0  0  0  0  0  0  0  0  0  0  0  0
  154.5880  135.5116  158.8543 H   0  0  0  0  0  0  0  0  0  0  0  0
  153.3641  135.9508  156.7664 H   0  0  0  0  0  0  0  0  0  0  0  0
  152.3638  135.1117  157.9371 H   0  0  0  0  0  0  0  0  0  0  0  0
  150.5365  138.1271  158.7818 H   0  0  0  0  0  0  0  0  0  0  0  0
  150.6657  136.4158  159.1442 H   0  0  0  0  0  0  0  0  0  0  0  0
  151.7003  137.7503  160.9248 H   0  0  0  0  0  0  0  0  0  0  0  0
  152.7317  138.5848  159.7861 H   0  0  0  0  0  0  0  0  0  0  0  0
  152.9629  138.0105  162.6607 H   0  0  0  0  0  0  0  0  0  0  0  0
  152.7695  136.2899  162.8456 H   0  0  0  0  0  0  0  0  0  0  0  0
  155.0272  137.9144  163.9376 H   0  0  0  0  0  0  0  0  0  0  0  0
  154.0430  136.6917  164.7234 H   0  0  0  0  0  0  0  0  0  0  0  0
  154.5701  134.6536  161.5466 H   0  0  0  0  0  0  0  0  0  0  0  0
  155.9646  135.4930  160.9039 H   0  0  0  0  0  0  0  0  0  0  0  0
  153.6169  141.2643  162.1440 H   0  0  0  0  0  0  0  0  0  0  0  0
  152.3718  143.0858  162.5723 H   0  0  0  0  0  0  0  0  0  0  0  0
  151.2969  145.1891  161.7701 H   0  0  0  0  0  0  0  0  0  0  0  0
  151.3301  145.7092  159.3132 H   0  0  0  0  0  0  0  0  0  0  0  0
  152.4510  144.0808  157.7676 H   0  0  0  0  0  0  0  0  0  0  0  0
  1  2  2  0  0  0  0
  2  3  1  0  0  0  0
  2 16  1  0  0  0  0
  3  4  1  0  0  0  0
  3 23  1  0  0  0  0
  4  5  1  0  0  0  0
  4 24  1  0  0  0  0
  4 25  1  0  0  0  0
  5 15  1  0  0  0  0
  5  6  1  0  0  0  0
  5 12  1  0  0  0  0
  6 11  1  0  0  0  0
  6  7  1  0  0  0  0
  7  8  1  0  0  0  0
  7 26  1  0  0  0  0
  7 27  1  0  0  0  0
  8  9  1  0  0  0  0
  8 28  1  0  0  0  0
  8 29  1  0  0  0  0
  9 10  1  0  0  0  0
 10 11  1  0  0  0  0
 10 30  1  0  0  0  0
 10 31  1  0  0  0  0
 11 32  1  0  0  0  0
 11 33  1  0  0  0  0
 12 13  1  0  0  0  0
 12 34  1  0  0  0  0
 12 35  1  0  0  0  0
 13 14  1  0  0  0  0
 13 36  1  0  0  0  0
 13 37  1  0  0  0  0
 14 15  1  0  0  0  0
 15 38  1  0  0  0  0
 15 39  1  0  0  0  0
 16 17  1  0  0  0  0
 16 40  1  0  0  0  0
 17 22  1  0  0  0  0
 17 18  2  0  0  0  0
 18 19  1  0  0  0  0
 18 41  1  0  0  0  0
 19 20  2  0  0  0  0
 19 42  1  0  0  0  0
 20 21  1  0  0  0  0
 20 43  1  0  0  0  0
 21 22  2  0  0  0  0
 21 44  1  0  0  0  0
M  END
> <s_m_source_file>
AV-unprocessed.smi

> <i_m_source_file_index>
1954

> <i_lp_mmshare_version>
43012

> <i_f3d_flags>
0

> <s_epik_input>
bjFbY0hdW2NIXVtjSF1bY0hdYzFbTkhdQyg9TylbTkhdW0NIMl1bQ0BdMihbQ0gyXVtDSDJdU1tDSDJdMilOM1tDSDJdW0NIMl1PW0NIMl1bQ0gyXTM=

> <s_epik_cmdline>
J2VwaWtfcHl0aG9uJywgJy1waCcsICc3LjAnLCAnLXRuJywgJzgnLCAnLW1hJywgJzIwMCcsICctbWV0YWxfYmluZGluZycsICctaW1hZScsICc8aW5maWxlLm1hZT4nLCAnLW9tYWUnLCAnPG91dGZpbGUubWFlPic=

> <r_epik_Ionization_Penalty>
0.0195535

> <r_epik_Ionization_Penalty_Charging>
0

> <r_epik_Ionization_Penalty_Neutral>
0.0195535

> <r_epik_State_Penalty>
0.0155843

> <r_epik_Charging_Adjusted_Penalty>
0.0155843

> <i_epik_Tot_Q>
0

> <i_epik_Tot_abs_Q>
0

> <r_epik_Metal_State_Penalty>
0.0155842

> <b_epik_Metal_Only>
0

> <s_lp_Force_Field>
OPLS_2005

> <r_lp_Energy>
55.0934

> <b_lp_Chiralities_Consistent>
1

> <s_lp_Variant>
AV-unprocessed.smi:1954-2

> <Gold.Version>
5.8.1

> <Gold.Id.Protein>
6NUR|6NUR_protein|mol2

> <Gold.PLP.Fitness>
46.4972

> <Gold.PLP.PLP>
-41.6967

> <Gold.PLP.part.hbond>
-2.0000

> <Gold.PLP.part.metal>
0.0000

> <Gold.PLP.part.buried>
-5.5757

> <Gold.PLP.part.nonpolar>
-34.4227

> <Gold.PLP.part.repulsive>
0.0378

> <Gold.PLP.ligand.clash>
0.0000

> <Gold.PLP.ligand.torsion>
0.5930

> <Gold.PLP.Chemscore.Hbond>
1.9675

> <Gold.PLP.Chemscore.CHOScore>
0.0000

> <Gold.PLP.Chemscore.Metal>
0.0000

> <Gold.Chemscore.Hbonds>
donor molecule, donor type, donor heavy atom, donor atom, acceptor molecule, acceptor atom, score
      P1  H  6896  6909       L1     6  0.75
      P1  H  7997  8010       L1     1  0.68

> <Gold.PLP.Chemscore.Internal.Correction>
0.0841

> <Gold.Rescore>
     Score         DG    S(hbond)    S(metal)    S(lipo)     H(rot)  DE(clash)    DE(int)     intcor
     15.59     -17.55       1.11        0.00     104.23       1.49       0.04       1.92       ----

> <Gold.Chemscore.Fitness>
15.5931

> <Gold.Chemscore.DG>
-17.5531

> <Gold.Chemscore.ZeroCoef>
-5.4800

> <Gold.Chemscore.Hbond>
1.1085

> <Gold.Chemscore.Metal>
0.0000

> <Gold.Chemscore.Lipo>
104.2344

> <Gold.Chemscore.Internal_Hbond>
0.0000

> <Gold.Chemscore.DEClash>
0.0396

> <Gold.Chemscore.DEInternal>
1.9204

> <Gold.Chemscore.Rot>
1.4940

> <Gold.Chemscore.Internal.Correction>
   9.000000E+99

> <Gold.Chemscore.Hbonds>
donor molecule, donor type, donor heavy atom, donor atom, acceptor molecule, acceptor atom, score
      P1  H  6896  6909       L1     6  0.02
      P1  H  7997  8010       L1     1  0.63

> <Gold.Chemscore.Hbond.Weighted>
-3.7023

> <Gold.Chemscore.Metal.Weighted>
-0.0000

> <Gold.Chemscore.Lipo.Weighted>
-12.1954

> <Gold.Chemscore.Internal_Hbond.Weighted>
0.0000

> <Gold.Chemscore.DEClash.Weighted>
0.0396

> <Gold.Chemscore.DEInternal.Weighted>
1.9204

> <Gold.Chemscore.Rot.Weighted>
3.8246

> <Gold.Chemscore.Internal.Correction.Weighted>
   9.000000E+99

> <Gold.Protein.RotatedTorsions>
[ 6907 6896 6895 6894 ] final  154.74 input  -60.11 | X-H torsion
[ 7974 7965 7964 7962 ] final  138.04 input  175.53 | X-H torsion
[ 8008 7997 7996 7995 ] final    8.05 input   59.86 | X-H torsion
[ 10167 10162 10161 10158 ] final  -19.72 input  -65.29 | X-H torsion
[ 10718 10713 10712 10709 ] final -146.44 input   66.30 | X-H torsion
[ 10763 10752 10751 10750 ] final -105.57 input  -60.55 | X-H torsion
[ 11005 11000 10999 10996 ] final   22.72 input  -57.11 | X-H torsion

> <Gold.Protein.ActiveResidues>
 VAL166  LYS551  ARG553  GLY616  TRP617  ASP618  TYR619  PRO620  LYS621  CYS622 
 ASP623  PHE694  ASN695  SER759  ASP760  ASP761  ALA762  ILE779  LEU786  VAL792 
 PHE793  MET794  SER795  GLU796  ALA797  LYS798  CYS799  TRP800  GLU811  SER814 

> <Gold.Protein.RotatedAtoms>
  152.0542  133.4032  159.4389 H   0  0  0  0  0  0  0  0  0  0  0  0  # atno 6907 bound_to 6896
  150.6869  134.3274  159.4821 H   0  0  0  0  0  0  0  0  0  0  0  0  # atno 6908 bound_to 6896
  152.1087  134.9289  160.0618 H   0  0  0  0  0  0  0  0  0  0  0  0  # atno 6909 bound_to 6896
  144.9410  139.4931  143.5572 H   0  0  0  0  0  0  0  0  0  0  0  0  # atno 7974 bound_to 7965
  154.7618  140.2786  155.6208 H   0  0  0  0  0  0  0  0  0  0  0  0  # atno 8008 bound_to 7997
  156.2917  140.2658  156.2326 H   0  0  0  0  0  0  0  0  0  0  0  0  # atno 8009 bound_to 7997
  155.0008  140.0373  157.2349 H   0  0  0  0  0  0  0  0  0  0  0  0  # atno 8010 bound_to 7997
  140.7270  143.4791  151.0141 H   0  0  0  0  0  0  0  0  0  0  0  0  # atno 10167 bound_to 10162
  156.3949  130.7905  151.2110 H   0  0  0  0  0  0  0  0  0  0  0  0  # atno 10718 bound_to 10713
  154.7955  135.4744  154.0151 H   0  0  0  0  0  0  0  0  0  0  0  0  # atno 10763 bound_to 10752
  153.1697  135.6823  153.8632 H   0  0  0  0  0  0  0  0  0  0  0  0  # atno 10764 bound_to 10752
  153.8219  135.3203  155.3389 H   0  0  0  0  0  0  0  0  0  0  0  0  # atno 10765 bound_to 10752
  140.3775  134.1956  155.7664 H   0  0  0  0  0  0  0  0  0  0  0  0  # atno 11005 bound_to 11000
  146.3285  139.8428  142.8887 LP  0  0  0  0  0  0  0  0  0  0  0  0  # atno 17320 bound_to 7965
  145.2992  141.0189  143.3619 LP  0  0  0  0  0  0  0  0  0  0  0  0  # atno 17321 bound_to 7965
  139.8489  143.7465  152.3178 LP  0  0  0  0  0  0  0  0  0  0  0  0  # atno 17342 bound_to 10162
  139.7640  144.7498  151.0322 LP  0  0  0  0  0  0  0  0  0  0  0  0  # atno 17343 bound_to 10162
  157.7501  131.0304  150.4136 LP  0  0  0  0  0  0  0  0  0  0  0  0  # atno 17370 bound_to 10713
  156.4405  130.3990  149.6701 LP  0  0  0  0  0  0  0  0  0  0  0  0  # atno 17371 bound_to 10713
  141.1934  133.8151  157.0799 LP  0  0  0  0  0  0  0  0  0  0  0  0  # atno 17394 bound_to 11000
  140.0504  134.9808  157.1126 LP  0  0  0  0  0  0  0  0  0  0  0  0  # atno 17395 bound_to 11000

$$$$
