AV-unprocessed.smi:615|AV-procd|sdf|3070|dock2
  -GOLD-   2262023593D 1   1.00000     0.00000
 Structure written by MMmdl.
 26 27  0  0  0  0  0  0  0  0  1 V2000
  146.6786  141.5871  153.8044 C   0  0  0  0  0  0  0  0  0  0  0  0
  148.2056  141.5933  153.6527 C   0  0  0  0  0  0  0  0  0  0  0  0
  148.8596  142.1645  154.8246 N   0  0  0  0  0  0  0  0  0  0  0  0
  149.8455  141.5777  155.5191 C   0  0  0  0  0  0  0  0  0  0  0  0
  150.3124  140.4748  155.2335 O   0  0  0  0  0  0  0  0  0  0  0  0
  150.2423  142.3479  156.5478 N   0  0  0  0  0  0  0  0  0  0  0  0
  151.2396  142.0711  157.5206 C   0  0  0  0  0  0  0  0  0  0  0  0
  151.9649  140.9445  157.5426 N   0  0  0  0  0  0  0  0  0  0  0  0
  152.8626  140.9267  158.6005 N   0  0  0  0  0  0  0  0  0  0  0  0
  152.7930  142.0366  159.3451 C   0  0  0  0  0  0  0  0  0  0  0  0
  153.6612  142.2471  160.5409 C   0  0  0  0  0  0  0  0  0  0  0  0
  153.7422  141.2240  161.6527 C   0  0  0  0  0  0  0  0  0  0  0  0
  153.0539  142.5434  161.8931 C   0  0  0  0  0  0  0  0  0  0  0  0
  151.6012  143.2140  158.8030 S   0  0  0  0  0  0  0  0  0  0  0  0
  146.2030  141.1912  152.9070 H   0  0  0  0  0  0  0  0  0  0  0  0
  146.2939  142.5940  153.9678 H   0  0  0  0  0  0  0  0  0  0  0  0
  146.3647  140.9670  154.6448 H   0  0  0  0  0  0  0  0  0  0  0  0
  148.5738  140.5826  153.4683 H   0  0  0  0  0  0  0  0  0  0  0  0
  148.4857  142.1885  152.7835 H   0  0  0  0  0  0  0  0  0  0  0  0
  148.5363  143.0713  155.1283 H   0  0  0  0  0  0  0  0  0  0  0  0
  149.7696  143.2334  156.6525 H   0  0  0  0  0  0  0  0  0  0  0  0
  154.5743  142.7714  160.2654 H   0  0  0  0  0  0  0  0  0  0  0  0
  153.1117  140.3397  161.5869 H   0  0  0  0  0  0  0  0  0  0  0  0
  154.7118  141.0706  162.1224 H   0  0  0  0  0  0  0  0  0  0  0  0
  153.5629  143.2701  162.5230 H   0  0  0  0  0  0  0  0  0  0  0  0
  151.9685  142.5358  161.9725 H   0  0  0  0  0  0  0  0  0  0  0  0
  1  2  1  0  0  0  0
  1 15  1  0  0  0  0
  1 16  1  0  0  0  0
  1 17  1  0  0  0  0
  2  3  1  0  0  0  0
  2 18  1  0  0  0  0
  2 19  1  0  0  0  0
  3  4  1  0  0  0  0
  3 20  1  0  0  0  0
  4  5  2  0  0  0  0
  4  6  1  0  0  0  0
  6  7  1  0  0  0  0
  6 21  1  0  0  0  0
  7 14  1  0  0  0  0
  7  8  2  0  0  0  0
  8  9  1  0  0  0  0
  9 10  2  0  0  0  0
 10 11  1  0  0  0  0
 10 14  1  0  0  0  0
 11 13  1  0  0  0  0
 11 12  1  0  0  0  0
 11 22  1  0  0  0  0
 12 13  1  0  0  0  0
 12 23  1  0  0  0  0
 12 24  1  0  0  0  0
 13 25  1  0  0  0  0
 13 26  1  0  0  0  0
M  END
> <s_m_source_file>
AV-unprocessed.smi

> <i_m_source_file_index>
615

> <i_lp_mmshare_version>
43012

> <i_f3d_flags>
0

> <s_epik_input>
W0NIM11bQ0gyXVtOSF1DKD1PKVtOSF1jMW5uYyhzMSlbQ0hdMltDSDJdW0NIMl0y

> <s_epik_cmdline>
J2VwaWtfcHl0aG9uJywgJy1waCcsICc3LjAnLCAnLXRuJywgJzgnLCAnLW1hJywgJzIwMCcsICctbWV0YWxfYmluZGluZycsICctaW1hZScsICc8aW5maWxlLm1hZT4nLCAnLW9tYWUnLCAnPG91dGZpbGUubWFlPic=

> <r_lp_tautomer_probability>
1

> <r_epik_Ionization_Penalty>
0.000941979

> <r_epik_Ionization_Penalty_Charging>
0

> <r_epik_Ionization_Penalty_Neutral>
0.000941979

> <r_epik_State_Penalty>
-0

> <r_epik_Charging_Adjusted_Penalty>
0

> <i_epik_Tot_Q>
0

> <i_epik_Tot_abs_Q>
0

> <r_epik_Metal_State_Penalty>
0.281647

> <b_epik_Metal_Only>
0

> <s_lp_Force_Field>
OPLS_2005

> <r_lp_Energy>
0.300577

> <b_lp_Chiralities_Consistent>
1

> <s_lp_Variant>
AV-unprocessed.smi:615-1

> <Gold.Version>
5.8.1

> <Gold.Id.Protein>
6NUR|6NUR_protein|mol2

> <Gold.PLP.Fitness>
37.3690

> <Gold.PLP.PLP>
-29.9661

> <Gold.PLP.part.hbond>
-3.2034

> <Gold.PLP.part.metal>
0.0000

> <Gold.PLP.part.buried>
-0.9497

> <Gold.PLP.part.nonpolar>
-23.9830

> <Gold.PLP.part.repulsive>
0.3614

> <Gold.PLP.ligand.clash>
0.0000

> <Gold.PLP.ligand.torsion>
0.0960

> <Gold.PLP.Chemscore.Hbond>
2.4888

> <Gold.PLP.Chemscore.CHOScore>
0.0000

> <Gold.PLP.Chemscore.Metal>
0.0000

> <Gold.Chemscore.Hbonds>
donor molecule, donor type, donor heavy atom, donor atom, acceptor molecule, acceptor atom, score
      L1  H     3    20       P1  8028  1.00
      L1  H     6    21       P1  8028  0.90
      P1  H  7989  7998       L1     5  0.55

> <Gold.PLP.Chemscore.Internal.Correction>
0.1286

> <Gold.Rescore>
     Score         DG    S(hbond)    S(metal)    S(lipo)     H(rot)  DE(clash)    DE(int)     intcor
     15.34     -17.36       2.09        0.00      69.07       1.24       0.67       1.35       ----

> <Gold.Chemscore.Fitness>
15.3435

> <Gold.Chemscore.DG>
-17.3625

> <Gold.Chemscore.ZeroCoef>
-5.4800

> <Gold.Chemscore.Hbond>
2.0910

> <Gold.Chemscore.Metal>
0.0000

> <Gold.Chemscore.Lipo>
69.0743

> <Gold.Chemscore.Internal_Hbond>
0.0000

> <Gold.Chemscore.DEClash>
0.6656

> <Gold.Chemscore.DEInternal>
1.3533

> <Gold.Chemscore.Rot>
1.2434

> <Gold.Chemscore.Internal.Correction>
   9.000000E+99

> <Gold.Chemscore.Hbonds>
donor molecule, donor type, donor heavy atom, donor atom, acceptor molecule, acceptor atom, score
      L1  H     3    20       P1  8028  0.95
      L1  H     6    21       P1  8028  0.85
      P1  H  7989  7998       L1     5  0.23

> <Gold.Chemscore.Hbond.Weighted>
-6.9839

> <Gold.Chemscore.Metal.Weighted>
-0.0000

> <Gold.Chemscore.Lipo.Weighted>
-8.0817

> <Gold.Chemscore.Internal_Hbond.Weighted>
0.0000

> <Gold.Chemscore.DEClash.Weighted>
0.6656

> <Gold.Chemscore.DEInternal.Weighted>
1.3533

> <Gold.Chemscore.Rot.Weighted>
3.1832

> <Gold.Chemscore.Internal.Correction.Weighted>
   9.000000E+99

> <Gold.Protein.RotatedTorsions>
[ 6907 6896 6895 6894 ] final -136.81 input  -60.11 | X-H torsion
[ 7974 7965 7964 7962 ] final   14.63 input  175.53 | X-H torsion
[ 8008 7997 7996 7995 ] final  144.46 input   59.86 | X-H torsion
[ 10167 10162 10161 10158 ] final  -72.77 input  -65.29 | X-H torsion
[ 10718 10713 10712 10709 ] final   19.10 input   66.30 | X-H torsion
[ 10763 10752 10751 10750 ] final   68.31 input  -60.55 | X-H torsion
[ 11005 11000 10999 10996 ] final -121.65 input  -57.11 | X-H torsion

> <Gold.Protein.ActiveResidues>
 VAL166  LYS551  ARG553  GLY616  TRP617  ASP618  TYR619  PRO620  LYS621  CYS622 
 ASP623  PHE694  ASN695  SER759  ASP760  ASP761  ALA762  ILE779  LEU786  VAL792 
 PHE793  MET794  SER795  GLU796  ALA797  LYS798  CYS799  TRP800  GLU811  SER814 

> <Gold.Protein.RotatedAtoms>
  151.0147  133.5932  159.2678 H   0  0  0  0  0  0  0  0  0  0  0  0  # atno 6907 bound_to 6896
  151.3071  135.0783  159.9269 H   0  0  0  0  0  0  0  0  0  0  0  0  # atno 6908 bound_to 6896
  152.5308  133.9818  159.7864 H   0  0  0  0  0  0  0  0  0  0  0  0  # atno 6909 bound_to 6896
  146.2300  139.9013  142.8539 H   0  0  0  0  0  0  0  0  0  0  0  0  # atno 7974 bound_to 7965
  156.2907  140.2235  156.5056 H   0  0  0  0  0  0  0  0  0  0  0  0  # atno 8008 bound_to 7997
  154.7652  140.0470  157.1028 H   0  0  0  0  0  0  0  0  0  0  0  0  # atno 8009 bound_to 7997
  154.9941  140.3094  155.4897 H   0  0  0  0  0  0  0  0  0  0  0  0  # atno 8010 bound_to 7997
  140.5165  143.2337  151.7503 H   0  0  0  0  0  0  0  0  0  0  0  0  # atno 10167 bound_to 10162
  157.1057  130.6487  149.5884 H   0  0  0  0  0  0  0  0  0  0  0  0  # atno 10718 bound_to 10713
  153.0229  135.5252  154.7114 H   0  0  0  0  0  0  0  0  0  0  0  0  # atno 10763 bound_to 10752
  154.6195  135.2887  155.0344 H   0  0  0  0  0  0  0  0  0  0  0  0  # atno 10764 bound_to 10752
  154.1335  135.6589  153.4979 H   0  0  0  0  0  0  0  0  0  0  0  0  # atno 10765 bound_to 10752
  141.0054  134.0342  157.3483 H   0  0  0  0  0  0  0  0  0  0  0  0  # atno 11005 bound_to 11000
  145.2320  140.9977  143.3985 LP  0  0  0  0  0  0  0  0  0  0  0  0  # atno 17320 bound_to 7965
  144.9522  139.4070  143.6397 LP  0  0  0  0  0  0  0  0  0  0  0  0  # atno 17321 bound_to 7965
  139.4911  144.4316  151.9866 LP  0  0  0  0  0  0  0  0  0  0  0  0  # atno 17342 bound_to 10162
  140.3410  144.3203  150.5967 LP  0  0  0  0  0  0  0  0  0  0  0  0  # atno 17343 bound_to 10162
  155.9863  130.4896  150.7071 LP  0  0  0  0  0  0  0  0  0  0  0  0  # atno 17370 bound_to 10713
  157.4603  131.0882  151.0753 LP  0  0  0  0  0  0  0  0  0  0  0  0  # atno 17371 bound_to 10713
  139.9061  135.0179  156.7490 LP  0  0  0  0  0  0  0  0  0  0  0  0  # atno 17394 bound_to 11000
  140.6821  133.9465  155.7916 LP  0  0  0  0  0  0  0  0  0  0  0  0  # atno 17395 bound_to 11000

$$$$
