AV-unprocessed.smi:1911|AV-procd|sdf|7739|dock4
  -GOLD-   22720 9483D 1   1.00000     0.00000
 Structure written by MMmdl.
 52 54  0  0  0  0  0  0  0  0  2 V2000
  145.9730  128.5634  154.9955 N   0  0  0  0  0  0  0  0  0  0  0  0
  147.1212  128.5619  154.3145 C   0  0  0  0  0  0  0  0  0  0  0  0
  148.1464  128.0488  154.7596 O   0  0  0  0  0  0  0  0  0  0  0  0
  147.1035  129.2164  152.9287 C   0  0  0  0  0  0  0  0  0  0  0  0
  147.5802  130.6238  152.9421 N   0  3  2  0  0  0  0  0  0  0  0  0
  148.7474  130.8365  153.8402 C   0  0  0  0  0  0  0  0  0  0  0  0
  149.2869  132.2716  153.7195 C   0  0  0  0  0  0  0  0  0  0  0  0
  148.1870  133.3032  154.0165 C   0  0  1  0  0  0  0  0  0  0  0  0
  148.7053  134.6548  153.8249 N   0  0  0  0  0  0  0  0  0  0  0  0
  149.0999  135.4744  154.8102 C   0  0  0  0  0  0  0  0  0  0  0  0
  149.0514  135.1702  156.0017 O   0  0  0  0  0  0  0  0  0  0  0  0
  149.5245  136.6529  154.3230 N   0  0  0  0  0  0  0  0  0  0  0  0
  150.0261  137.7755  155.0358 C   0  0  0  0  0  0  0  0  0  0  0  0
  150.2172  137.6464  156.4253 C   0  0  0  0  0  0  0  0  0  0  0  0
  150.6986  138.7456  157.1612 C   0  0  0  0  0  0  0  0  0  0  0  0
  150.9729  139.9578  156.4846 C   0  0  0  0  0  0  0  0  0  0  0  0
  151.4526  141.0874  157.1773 N   0  0  0  0  0  0  0  0  0  0  0  0
  150.9810  142.4327  156.8925 C   0  0  0  0  0  0  0  0  0  0  0  0
  151.6569  143.3119  157.9445 C   0  0  0  0  0  0  0  0  0  0  0  0
  151.7822  142.3800  159.1497 C   0  0  0  0  0  0  0  0  0  0  0  0
  151.9920  140.9946  158.5284 C   0  0  0  0  0  0  0  0  0  0  0  0
  150.7705  140.0891  155.1522 N   0  0  0  0  0  0  0  0  0  0  0  0
  150.3102  139.0323  154.4503 C   0  0  0  0  0  0  0  0  0  0  0  0
  146.9773  133.0401  153.1007 C   0  0  0  0  0  0  0  0  0  0  0  0
  146.4877  131.5880  153.2301 C   0  0  0  0  0  0  0  0  0  0  0  0
  145.9338  128.1393  155.9117 H   0  0  0  0  0  0  0  0  0  0  0  0
  145.1449  128.9819  154.5961 H   0  0  0  0  0  0  0  0  0  0  0  0
  147.7552  128.6150  152.2933 H   0  0  0  0  0  0  0  0  0  0  0  0
  146.1046  129.1634  152.4920 H   0  0  0  0  0  0  0  0  0  0  0  0
  148.4561  130.6323  154.8718 H   0  0  0  0  0  0  0  0  0  0  0  0
  149.5448  130.1347  153.5945 H   0  0  0  0  0  0  0  0  0  0  0  0
  150.1238  132.4089  154.4054 H   0  0  0  0  0  0  0  0  0  0  0  0
  149.6820  132.4259  152.7140 H   0  0  0  0  0  0  0  0  0  0  0  0
  147.8795  133.1851  155.0577 H   0  0  0  0  0  0  0  0  0  0  0  0
  148.7747  134.9879  152.8741 H   0  0  0  0  0  0  0  0  0  0  0  0
  149.4294  136.7829  153.3265 H   0  0  0  0  0  0  0  0  0  0  0  0
  150.0022  136.7137  156.9262 H   0  0  0  0  0  0  0  0  0  0  0  0
  150.8471  138.6420  158.2255 H   0  0  0  0  0  0  0  0  0  0  0  0
  151.2411  142.7481  155.8815 H   0  0  0  0  0  0  0  0  0  0  0  0
  149.8961  142.4673  157.0004 H   0  0  0  0  0  0  0  0  0  0  0  0
  152.6506  143.6023  157.6002 H   0  0  0  0  0  0  0  0  0  0  0  0
  151.0954  144.2209  158.1626 H   0  0  0  0  0  0  0  0  0  0  0  0
  152.5863  142.6659  159.8283 H   0  0  0  0  0  0  0  0  0  0  0  0
  150.8486  142.3890  159.7143 H   0  0  0  0  0  0  0  0  0  0  0  0
  151.4995  140.2233  159.1216 H   0  0  0  0  0  0  0  0  0  0  0  0
  153.0537  140.7536  158.4673 H   0  0  0  0  0  0  0  0  0  0  0  0
  150.1534  139.2246  153.4007 H   0  0  0  0  0  0  0  0  0  0  0  0
  146.1619  133.7220  153.3450 H   0  0  0  0  0  0  0  0  0  0  0  0
  147.2469  133.2410  152.0627 H   0  0  0  0  0  0  0  0  0  0  0  0
  145.6617  131.4276  152.5360 H   0  0  0  0  0  0  0  0  0  0  0  0
  146.0986  131.4097  154.2338 H   0  0  0  0  0  0  0  0  0  0  0  0
  147.8922  130.8210  152.0015 H   0  0  0  0  0  0  0  0  0  0  0  0
  1  2  1  0  0  0  0
  1 26  1  0  0  0  0
  1 27  1  0  0  0  0
  2  3  2  0  0  0  0
  2  4  1  0  0  0  0
  4  5  1  0  0  0  0
  4 28  1  0  0  0  0
  4 29  1  0  0  0  0
  5 25  1  0  0  0  0
  5  6  1  0  0  0  0
  5 52  1  0  0  0  0
  6  7  1  0  0  0  0
  6 30  1  0  0  0  0
  6 31  1  0  0  0  0
  7  8  1  0  0  0  0
  7 32  1  0  0  0  0
  7 33  1  0  0  0  0
  8  9  1  0  0  0  0
  8 24  1  0  0  0  0
  8 34  1  0  0  0  0
  9 10  1  0  0  0  0
  9 35  1  0  0  0  0
 10 11  2  0  0  0  0
 10 12  1  0  0  0  0
 12 13  1  0  0  0  0
 12 36  1  0  0  0  0
 13 23  1  0  0  0  0
 13 14  2  0  0  0  0
 14 15  1  0  0  0  0
 14 37  1  0  0  0  0
 15 16  2  0  0  0  0
 15 38  1  0  0  0  0
 16 17  1  0  0  0  0
 16 22  1  0  0  0  0
 17 21  1  0  0  0  0
 17 18  1  0  0  0  0
 18 19  1  0  0  0  0
 18 39  1  0  0  0  0
 18 40  1  0  0  0  0
 19 20  1  0  0  0  0
 19 41  1  0  0  0  0
 19 42  1  0  0  0  0
 20 21  1  0  0  0  0
 20 43  1  0  0  0  0
 20 44  1  0  0  0  0
 21 45  1  0  0  0  0
 21 46  1  0  0  0  0
 22 23  2  0  0  0  0
 23 47  1  0  0  0  0
 24 25  1  0  0  0  0
 24 48  1  0  0  0  0
 24 49  1  0  0  0  0
 25 50  1  0  0  0  0
 25 51  1  0  0  0  0
M  CHG  1   5   1
M  END
> <s_m_source_file>
AV-unprocessed.smi

> <i_m_source_file_index>
1911

> <i_lp_mmshare_version>
43012

> <i_f3d_flags>
0

> <s_epik_input>
W05IMl1DKD1PKVtDSDJdTjFbQ0gyXVtDSDJdW0NIXShbQ0gyXVtDSDJdMSlbTkhdQyg9TylbTkhdYzJbY0hdW2NIXWMobltjSF0yKU4zW0NIMl1bQ0gyXVtDSDJdW0NIMl0z

> <s_epik_cmdline>
J2VwaWtfcHl0aG9uJywgJy1waCcsICc3LjAnLCAnLXRuJywgJzgnLCAnLW1hJywgJzIwMCcsICctbWV0YWxfYmluZGluZycsICctaW1hZScsICc8aW5maWxlLm1hZT4nLCAnLW9tYWUnLCAnPG91dGZpbGUubWFlPic=

> <r_lp_tautomer_probability>
1

> <r_epik_Ionization_Penalty>
0.91661

> <r_epik_Ionization_Penalty_Charging>
0.838844

> <r_epik_Ionization_Penalty_Neutral>
0.0777665

> <r_epik_State_Penalty>
0.927046

> <r_epik_Charging_Adjusted_Penalty>
1.76589

> <i_epik_Tot_Q>
1

> <i_epik_Tot_abs_Q>
1

> <r_epik_Metal_State_Penalty>
0.950553

> <b_epik_Metal_Only>
0

> <s_lp_Force_Field>
OPLS_2005

> <r_lp_Energy>
39.0232

> <b_lp_Chiralities_Consistent>
1

> <s_lp_Variant>
AV-unprocessed.smi:1911-2

> <Gold.Version>
5.8.1

> <Gold.Id.Protein>
6NUR|6NUR_protein|mol2

> <Gold.PLP.Fitness>
49.1052

> <Gold.PLP.PLP>
-34.5829

> <Gold.PLP.part.hbond>
-4.8986

> <Gold.PLP.part.metal>
0.0000

> <Gold.PLP.part.buried>
-3.4713

> <Gold.PLP.part.nonpolar>
-26.9144

> <Gold.PLP.part.repulsive>
0.1182

> <Gold.PLP.ligand.clash>
0.0000

> <Gold.PLP.ligand.torsion>
1.2188

> <Gold.PLP.Chemscore.Hbond>
4.5920

> <Gold.PLP.Chemscore.CHOScore>
1.0000

> <Gold.PLP.Chemscore.Metal>
0.0000

> <Gold.Chemscore.Hbonds>
donor molecule, donor type, donor heavy atom, donor atom, acceptor molecule, acceptor atom, score
      L1  H     1    27       P1 10956  0.99
      L1  H     5    52       P1 10747  1.00
      L1  H     9    35       P1  7948  1.00
      L1  H    12    36       P1  7948  1.00
      P1  H  7989  7998       L1    22  0.60
      L1  C    23    47       P1  7957  1.00

> <Gold.PLP.Chemscore.Internal.Correction>
0.1838

> <Gold.Rescore>
     Score         DG    S(hbond)    S(metal)    S(lipo)     H(rot)  DE(clash)    DE(int)     intcor
     18.85     -21.53       3.30        0.00      84.81       1.91       0.02       2.66       ----

> <Gold.Chemscore.Fitness>
18.8515

> <Gold.Chemscore.DG>
-21.5313

> <Gold.Chemscore.ZeroCoef>
-5.4800

> <Gold.Chemscore.Hbond>
3.2968

> <Gold.Chemscore.Metal>
0.0000

> <Gold.Chemscore.Lipo>
84.8101

> <Gold.Chemscore.Internal_Hbond>
0.0000

> <Gold.Chemscore.DEClash>
0.0158

> <Gold.Chemscore.DEInternal>
2.6641

> <Gold.Chemscore.Rot>
1.9074

> <Gold.Chemscore.Internal.Correction>
   9.000000E+99

> <Gold.Chemscore.Hbonds>
donor molecule, donor type, donor heavy atom, donor atom, acceptor molecule, acceptor atom, score
      L1  H     1    27       P1 10956  0.93
      L1  H     5    52       P1 10747  0.93
      L1  H     9    35       P1  7948  0.23
      L1  H    12    36       P1  7948  0.81
      P1  H  7989  7998       L1    22  0.04

> <Gold.Chemscore.Hbond.Weighted>
-11.0114

> <Gold.Chemscore.Metal.Weighted>
-0.0000

> <Gold.Chemscore.Lipo.Weighted>
-9.9228

> <Gold.Chemscore.Internal_Hbond.Weighted>
0.0000

> <Gold.Chemscore.DEClash.Weighted>
0.0158

> <Gold.Chemscore.DEInternal.Weighted>
2.6641

> <Gold.Chemscore.Rot.Weighted>
4.8829

> <Gold.Chemscore.Internal.Correction.Weighted>
   9.000000E+99

> <Gold.Protein.RotatedTorsions>
[ 6907 6896 6895 6894 ] final  108.27 input  -60.11 | X-H torsion
[ 7974 7965 7964 7962 ] final  -94.49 input  175.53 | X-H torsion
[ 8008 7997 7996 7995 ] final -138.33 input   59.86 | X-H torsion
[ 10167 10162 10161 10158 ] final   53.63 input  -65.29 | X-H torsion
[ 10718 10713 10712 10709 ] final   53.47 input   66.30 | X-H torsion
[ 10763 10752 10751 10750 ] final  -32.92 input  -60.55 | X-H torsion
[ 11005 11000 10999 10996 ] final  -37.65 input  -57.11 | X-H torsion

> <Gold.Protein.ActiveResidues>
 VAL166  LYS551  ARG553  GLY616  TRP617  ASP618  TYR619  PRO620  LYS621  CYS622 
 ASP623  PHE694  ASN695  SER759  ASP760  ASP761  ALA762  ILE779  LEU786  VAL792 
 PHE793  MET794  SER795  GLU796  ALA797  LYS798  CYS799  TRP800  GLU811  SER814 

> <Gold.Protein.RotatedAtoms>
  152.5119  133.9112  159.7488 H   0  0  0  0  0  0  0  0  0  0  0  0  # atno 6907 bound_to 6896
  150.9505  133.6546  159.2780 H   0  0  0  0  0  0  0  0  0  0  0  0  # atno 6908 bound_to 6896
  151.3826  135.0947  159.9553 H   0  0  0  0  0  0  0  0  0  0  0  0  # atno 6909 bound_to 6896
  145.3726  140.9507  143.2438 H   0  0  0  0  0  0  0  0  0  0  0  0  # atno 7974 bound_to 7965
  155.4265  140.0522  157.3022 H   0  0  0  0  0  0  0  0  0  0  0  0  # atno 8008 bound_to 7997
  154.4879  140.2108  155.9572 H   0  0  0  0  0  0  0  0  0  0  0  0  # atno 8009 bound_to 7997
  156.1301  140.3173  155.8341 H   0  0  0  0  0  0  0  0  0  0  0  0  # atno 8010 bound_to 7997
  140.2388  144.3607  150.6388 H   0  0  0  0  0  0  0  0  0  0  0  0  # atno 10167 bound_to 10162
  157.5170  130.8539  149.8508 H   0  0  0  0  0  0  0  0  0  0  0  0  # atno 10718 bound_to 10713
  153.8217  135.6873  153.4826 H   0  0  0  0  0  0  0  0  0  0  0  0  # atno 10763 bound_to 10752
  153.1565  135.4597  154.9710 H   0  0  0  0  0  0  0  0  0  0  0  0  # atno 10764 bound_to 10752
  154.7924  135.3307  154.7689 H   0  0  0  0  0  0  0  0  0  0  0  0  # atno 10765 bound_to 10752
  140.9968  133.6976  156.1948 H   0  0  0  0  0  0  0  0  0  0  0  0  # atno 11005 bound_to 11000
  144.8565  139.5241  143.6832 LP  0  0  0  0  0  0  0  0  0  0  0  0  # atno 17320 bound_to 7965
  146.2878  139.7054  142.9182 LP  0  0  0  0  0  0  0  0  0  0  0  0  # atno 17321 bound_to 7965
  140.6130  143.2170  151.6849 LP  0  0  0  0  0  0  0  0  0  0  0  0  # atno 17342 bound_to 10162
  139.5084  144.3611  152.0561 LP  0  0  0  0  0  0  0  0  0  0  0  0  # atno 17343 bound_to 10162
  156.0327  130.3760  150.1644 LP  0  0  0  0  0  0  0  0  0  0  0  0  # atno 17370 bound_to 10713
  156.9833  130.9871  151.3432 LP  0  0  0  0  0  0  0  0  0  0  0  0  # atno 17371 bound_to 10713
  140.6953  134.4622  157.5588 LP  0  0  0  0  0  0  0  0  0  0  0  0  # atno 17394 bound_to 11000
  139.9018  134.8538  156.1863 LP  0  0  0  0  0  0  0  0  0  0  0  0  # atno 17395 bound_to 11000

$$$$
