AV-unprocessed.smi:3279|AV-procd|sdf|12549|dock7
  -GOLD-   2272018463D 1   1.00000     0.00000
 Structure written by MMmdl.
 35 35  0  0  0  0  0  0  0  0  2 V2000
  148.5833  138.6029  154.0595 C   0  0  0  0  0  0  0  0  0  0  0  0
  149.4480  139.8194  154.4260 C   0  0  1  0  0  0  0  0  0  0  0  0
  148.6579  140.8953  155.2022 C   0  0  0  0  0  0  0  0  0  0  0  0
  149.5403  141.9175  155.7614 N   0  0  0  0  0  0  0  0  0  0  0  0
  150.2551  141.8046  156.8918 C   0  0  0  0  0  0  0  0  0  0  0  0
  150.1872  140.8352  157.6483 O   0  0  0  0  0  0  0  0  0  0  0  0
  151.1960  142.9655  157.2113 C   0  0  0  0  0  0  0  0  0  0  0  0
  150.8541  143.4902  158.4909 O   0  0  0  0  0  0  0  0  0  0  0  0
  151.8734  144.1436  159.2507 C   0  0  0  0  0  0  0  0  0  0  0  0
  152.6449  143.1420  160.1332 C   0  0  0  0  0  0  0  0  0  0  0  0
  151.1048  145.1291  160.1457 C   0  0  0  0  0  0  0  0  0  0  0  0
  152.8285  144.9237  158.3258 C   0  0  0  0  0  0  0  0  0  0  0  0
  150.7131  139.4076  155.1281 C   0  0  0  0  0  0  0  0  0  0  0  0
  150.7161  138.6852  156.2588 N   0  0  0  0  0  0  0  0  0  0  0  0
  152.0191  138.5130  156.5179 N   0  0  0  0  0  0  0  0  0  0  0  0
  152.7514  139.1137  155.5725 N   0  0  0  0  0  0  0  0  0  0  0  0
  151.9442  139.6923  154.6735 N   0  5  0  0  0  0  0  0  0  0  0  0
  149.1410  137.8982  153.4420 H   0  0  0  0  0  0  0  0  0  0  0  0
  147.6981  138.9048  153.4993 H   0  0  0  0  0  0  0  0  0  0  0  0
  148.2462  138.0715  154.9500 H   0  0  0  0  0  0  0  0  0  0  0  0
  149.7079  140.2820  153.4722 H   0  0  0  0  0  0  0  0  0  0  0  0
  147.9478  141.3862  154.5363 H   0  0  0  0  0  0  0  0  0  0  0  0
  148.0622  140.4213  155.9841 H   0  0  0  0  0  0  0  0  0  0  0  0
  149.6690  142.7525  155.2086 H   0  0  0  0  0  0  0  0  0  0  0  0
  152.2250  142.6050  157.1998 H   0  0  0  0  0  0  0  0  0  0  0  0
  151.0889  143.7156  156.4285 H   0  0  0  0  0  0  0  0  0  0  0  0
  153.3160  143.6607  160.8183 H   0  0  0  0  0  0  0  0  0  0  0  0
  153.2592  142.4632  159.5419 H   0  0  0  0  0  0  0  0  0  0  0  0
  151.9625  142.5386  160.7329 H   0  0  0  0  0  0  0  0  0  0  0  0
  150.4042  144.6052  160.7973 H   0  0  0  0  0  0  0  0  0  0  0  0
  150.5290  145.8376  159.5493 H   0  0  0  0  0  0  0  0  0  0  0  0
  151.7808  145.7031  160.7802 H   0  0  0  0  0  0  0  0  0  0  0  0
  153.5130  145.5441  158.9051 H   0  0  0  0  0  0  0  0  0  0  0  0
  152.2764  145.5812  157.6536 H   0  0  0  0  0  0  0  0  0  0  0  0
  153.4412  144.2606  157.7155 H   0  0  0  0  0  0  0  0  0  0  0  0
  1  2  1  0  0  0  0
  1 18  1  0  0  0  0
  1 19  1  0  0  0  0
  1 20  1  0  0  0  0
  2  3  1  0  0  0  0
  2 13  1  0  0  0  0
  2 21  1  0  0  0  0
  3  4  1  0  0  0  0
  3 22  1  0  0  0  0
  3 23  1  0  0  0  0
  4  5  1  0  0  0  0
  4 24  1  0  0  0  0
  5  6  2  0  0  0  0
  5  7  1  0  0  0  0
  7  8  1  0  0  0  0
  7 25  1  0  0  0  0
  7 26  1  0  0  0  0
  8  9  1  0  0  0  0
  9 10  1  0  0  0  0
  9 11  1  0  0  0  0
  9 12  1  0  0  0  0
 10 27  1  0  0  0  0
 10 28  1  0  0  0  0
 10 29  1  0  0  0  0
 11 30  1  0  0  0  0
 11 31  1  0  0  0  0
 11 32  1  0  0  0  0
 12 33  1  0  0  0  0
 12 34  1  0  0  0  0
 12 35  1  0  0  0  0
 13 17  1  0  0  0  0
 13 14  2  0  0  0  0
 14 15  1  0  0  0  0
 15 16  2  0  0  0  0
 16 17  1  0  0  0  0
M  CHG  1  17  -1
M  END
> <s_m_source_file>
AV-unprocessed.smi

> <i_m_source_file_index>
3279

> <i_lp_mmshare_version>
43012

> <i_f3d_flags>
0

> <s_epik_input>
W25IXTFubm5jMVtDQEhdKFtDSDNdKVtDSDJdW05IXUMoPU8pW0NIMl1PQyhbQ0gzXSkoW0NIM10pW0NIM10=

> <s_epik_cmdline>
J2VwaWtfcHl0aG9uJywgJy1waCcsICc3LjAnLCAnLXRuJywgJzgnLCAnLW1hJywgJzIwMCcsICctbWV0YWxfYmluZGluZycsICctaW1hZScsICc8aW5maWxlLm1hZT4nLCAnLW9tYWUnLCAnPG91dGZpbGUubWFlPic=

> <r_epik_Ionization_Penalty>
0.054353

> <r_epik_Ionization_Penalty_Charging>
0.054353

> <r_epik_Ionization_Penalty_Neutral>
3.0997e-08

> <r_epik_State_Penalty>
0.0139445

> <r_epik_Charging_Adjusted_Penalty>
0.0682975

> <i_epik_Tot_Q>
-1

> <i_epik_Tot_abs_Q>
1

> <r_epik_Metal_State_Penalty>
0.0109703

> <b_epik_Metal_Only>
0

> <s_lp_Force_Field>
OPLS_2005

> <r_lp_Energy>
1.27922

> <b_lp_Chiralities_Consistent>
1

> <s_lp_Variant>
AV-unprocessed.smi:3279-2

> <Gold.Version>
5.8.1

> <Gold.Id.Protein>
6NUR|6NUR_protein|mol2

> <Gold.PLP.Fitness>
37.9493

> <Gold.PLP.PLP>
-32.9281

> <Gold.PLP.part.hbond>
-3.0000

> <Gold.PLP.part.metal>
0.0000

> <Gold.PLP.part.buried>
-5.2984

> <Gold.PLP.part.nonpolar>
-25.6441

> <Gold.PLP.part.repulsive>
0.3401

> <Gold.PLP.ligand.clash>
0.0000

> <Gold.PLP.ligand.torsion>
0.9699

> <Gold.PLP.Chemscore.Hbond>
2.2851

> <Gold.PLP.Chemscore.CHOScore>
0.0000

> <Gold.PLP.Chemscore.Metal>
0.0000

> <Gold.Chemscore.Hbonds>
donor molecule, donor type, donor heavy atom, donor atom, acceptor molecule, acceptor atom, score
      L1  H     4    24       P1  8028  0.37
      P1  H  7989  7998       L1    17  0.93
      P1  H  7997  8009       L1    16  1.00

> <Gold.PLP.Chemscore.Internal.Correction>
0.1056

> <Gold.Rescore>
     Score         DG    S(hbond)    S(metal)    S(lipo)     H(rot)  DE(clash)    DE(int)     intcor
     12.31     -16.28       2.59        0.00      76.21       2.64       0.07       3.90       ----

> <Gold.Chemscore.Fitness>
12.3111

> <Gold.Chemscore.DG>
-16.2831

> <Gold.Chemscore.ZeroCoef>
-5.4800

> <Gold.Chemscore.Hbond>
2.5891

> <Gold.Chemscore.Metal>
0.0000

> <Gold.Chemscore.Lipo>
76.2060

> <Gold.Chemscore.Internal_Hbond>
0.0000

> <Gold.Chemscore.DEClash>
0.0677

> <Gold.Chemscore.DEInternal>
3.9044

> <Gold.Chemscore.Rot>
2.6409

> <Gold.Chemscore.Internal.Correction>
   9.000000E+99

> <Gold.Chemscore.Hbonds>
donor molecule, donor type, donor heavy atom, donor atom, acceptor molecule, acceptor atom, score
      L1  H     4    24       P1  8028  0.36
      P1  H  7989  7998       L1    17  0.41
      P1  H  7997  8009       L1    16  0.87

> <Gold.Chemscore.Hbond.Weighted>
-8.6477

> <Gold.Chemscore.Metal.Weighted>
-0.0000

> <Gold.Chemscore.Lipo.Weighted>
-8.9161

> <Gold.Chemscore.Internal_Hbond.Weighted>
0.0000

> <Gold.Chemscore.DEClash.Weighted>
0.0677

> <Gold.Chemscore.DEInternal.Weighted>
3.9044

> <Gold.Chemscore.Rot.Weighted>
6.7607

> <Gold.Chemscore.Internal.Correction.Weighted>
   9.000000E+99

> <Gold.Protein.RotatedTorsions>
[ 6907 6896 6895 6894 ] final   56.81 input  -60.11 | X-H torsion
[ 7974 7965 7964 7962 ] final  -39.55 input  175.53 | X-H torsion
[ 8008 7997 7996 7995 ] final -151.53 input   59.86 | X-H torsion
[ 10167 10162 10161 10158 ] final  -73.58 input  -65.29 | X-H torsion
[ 10718 10713 10712 10709 ] final   64.61 input   66.30 | X-H torsion
[ 10763 10752 10751 10750 ] final  -25.03 input  -60.55 | X-H torsion
[ 11005 11000 10999 10996 ] final -100.14 input  -57.11 | X-H torsion

> <Gold.Protein.ActiveResidues>
 VAL166  LYS551  ARG553  GLY616  TRP617  ASP618  TYR619  PRO620  LYS621  CYS622 
 ASP623  PHE694  ASN695  SER759  ASP760  ASP761  ALA762  ILE779  LEU786  VAL792 
 PHE793  MET794  SER795  GLU796  ALA797  LYS798  CYS799  TRP800  GLU811  SER814 

> <Gold.Protein.RotatedAtoms>
  152.3672  134.6787  160.0187 H   0  0  0  0  0  0  0  0  0  0  0  0  # atno 6907 bound_to 6896
  151.7092  133.3306  159.3294 H   0  0  0  0  0  0  0  0  0  0  0  0  # atno 6908 bound_to 6896
  150.7647  134.6482  159.6318 H   0  0  0  0  0  0  0  0  0  0  0  0  # atno 6909 bound_to 6896
  146.0386  140.6638  142.9098 H   0  0  0  0  0  0  0  0  0  0  0  0  # atno 7974 bound_to 7965
  155.6409  140.0701  157.2618 H   0  0  0  0  0  0  0  0  0  0  0  0  # atno 8008 bound_to 7997
  154.4184  140.1750  156.1622 H   0  0  0  0  0  0  0  0  0  0  0  0  # atno 8009 bound_to 7997
  155.9856  140.3350  155.6707 H   0  0  0  0  0  0  0  0  0  0  0  0  # atno 8010 bound_to 7997
  140.5098  143.2347  151.7612 H   0  0  0  0  0  0  0  0  0  0  0  0  # atno 10167 bound_to 10162
  157.6051  130.9169  149.9869 H   0  0  0  0  0  0  0  0  0  0  0  0  # atno 10718 bound_to 10713
  153.6933  135.6960  153.5084 H   0  0  0  0  0  0  0  0  0  0  0  0  # atno 10763 bound_to 10752
  153.2397  135.4310  155.0683 H   0  0  0  0  0  0  0  0  0  0  0  0  # atno 10764 bound_to 10752
  154.8366  135.3504  154.6474 H   0  0  0  0  0  0  0  0  0  0  0  0  # atno 10765 bound_to 10752
  141.1282  133.8376  157.1064 H   0  0  0  0  0  0  0  0  0  0  0  0  # atno 11005 bound_to 11000
  144.7063  140.3866  143.7115 LP  0  0  0  0  0  0  0  0  0  0  0  0  # atno 17320 bound_to 7965
  145.6922  139.1642  143.2640 LP  0  0  0  0  0  0  0  0  0  0  0  0  # atno 17321 bound_to 7965
  139.4893  144.4406  151.9769 LP  0  0  0  0  0  0  0  0  0  0  0  0  # atno 17342 bound_to 10162
  140.3498  144.3103  150.5951 LP  0  0  0  0  0  0  0  0  0  0  0  0  # atno 17343 bound_to 10162
  156.1135  130.3649  150.0008 LP  0  0  0  0  0  0  0  0  0  0  0  0  # atno 17370 bound_to 10713
  156.8102  130.9322  151.3644 LP  0  0  0  0  0  0  0  0  0  0  0  0  # atno 17371 bound_to 10713
  140.0302  134.9905  157.0765 LP  0  0  0  0  0  0  0  0  0  0  0  0  # atno 17394 bound_to 11000
  140.4298  134.1793  155.7167 LP  0  0  0  0  0  0  0  0  0  0  0  0  # atno 17395 bound_to 11000

$$$$
