AV-unprocessed.smi:1518|AV-procd|sdf|6125|dock8
  -GOLD-   22720 6263D 1   1.00000     0.00000
 Structure written by MMmdl.
 45 47  0  0  0  0  0  0  0  0  1 V2000
  145.0984  145.1378  151.9897 C   0  0  0  0  0  0  0  0  0  0  0  0
  144.4464  144.9771  153.3623 C   0  0  0  0  0  0  0  0  0  0  0  0
  143.6204  145.8148  153.7236 O   0  0  0  0  0  0  0  0  0  0  0  0
  144.8474  143.8054  154.1938 C   0  0  0  0  0  0  0  0  0  0  0  0
  144.1679  143.5576  155.4079 C   0  0  0  0  0  0  0  0  0  0  0  0
  144.5224  142.4597  156.2122 C   0  0  0  0  0  0  0  0  0  0  0  0
  145.5602  141.5997  155.8120 C   0  0  0  0  0  0  0  0  0  0  0  0
  146.2565  141.8243  154.6083 C   0  0  0  0  0  0  0  0  0  0  0  0
  147.2617  140.9333  154.2973 O   0  0  0  0  0  0  0  0  0  0  0  0
  147.8692  140.1993  155.3526 C   0  0  0  0  0  0  0  0  0  0  0  0
  148.5904  141.1804  156.2908 C   0  0  1  0  0  0  0  0  0  0  0  0
  148.7342  140.5695  157.5579 O   0  0  0  0  0  0  0  0  0  0  0  0
  149.9846  141.5670  155.7549 C   0  0  0  0  0  0  0  0  0  0  0  0
  151.0438  141.3985  156.7435 N   0  0  0  0  0  0  0  0  0  0  0  0
  151.9233  140.3712  156.8718 C   0  0  0  0  0  0  0  0  0  0  0  0
  151.9206  139.1838  155.9571 C   0  0  0  0  0  0  0  0  0  0  0  0
  152.0396  139.5365  154.5965 O   0  0  0  0  0  0  0  0  0  0  0  0
  152.7962  140.4773  157.8742 N   0  0  0  0  0  0  0  0  0  0  0  0
  152.4478  141.6796  158.4567 C   0  0  0  0  0  0  0  0  0  0  0  0
  152.9971  142.3525  159.5715 C   0  0  0  0  0  0  0  0  0  0  0  0
  152.4652  143.5888  159.9921 C   0  0  0  0  0  0  0  0  0  0  0  0
  151.3793  144.1691  159.3051 C   0  0  0  0  0  0  0  0  0  0  0  0
  150.8177  143.5152  158.1916 C   0  0  0  0  0  0  0  0  0  0  0  0
  151.3523  142.2810  157.7754 C   0  0  0  0  0  0  0  0  0  0  0  0
  145.8919  142.9328  153.8015 C   0  0  0  0  0  0  0  0  0  0  0  0
  144.8866  144.2717  151.3627 H   0  0  0  0  0  0  0  0  0  0  0  0
  146.1786  145.2456  152.0891 H   0  0  0  0  0  0  0  0  0  0  0  0
  144.7128  146.0247  151.4863 H   0  0  0  0  0  0  0  0  0  0  0  0
  143.3673  144.2053  155.7354 H   0  0  0  0  0  0  0  0  0  0  0  0
  143.9968  142.2769  157.1379 H   0  0  0  0  0  0  0  0  0  0  0  0
  145.8255  140.7588  156.4361 H   0  0  0  0  0  0  0  0  0  0  0  0
  147.1399  139.6005  155.9012 H   0  0  0  0  0  0  0  0  0  0  0  0
  148.6012  139.5175  154.9163 H   0  0  0  0  0  0  0  0  0  0  0  0
  147.9856  142.0795  156.4042 H   0  0  0  0  0  0  0  0  0  0  0  0
  149.3995  141.0363  158.0404 H   0  0  0  0  0  0  0  0  0  0  0  0
  150.2299  140.9644  154.8794 H   0  0  0  0  0  0  0  0  0  0  0  0
  149.9837  142.6002  155.4098 H   0  0  0  0  0  0  0  0  0  0  0  0
  152.7554  138.5313  156.2158 H   0  0  0  0  0  0  0  0  0  0  0  0
  151.0149  138.5971  156.1078 H   0  0  0  0  0  0  0  0  0  0  0  0
  152.1235  138.7446  154.0878 H   0  0  0  0  0  0  0  0  0  0  0  0
  153.8288  141.9157  160.1040 H   0  0  0  0  0  0  0  0  0  0  0  0
  152.8924  144.0942  160.8458 H   0  0  0  0  0  0  0  0  0  0  0  0
  150.9779  145.1165  159.6333 H   0  0  0  0  0  0  0  0  0  0  0  0
  149.9870  143.9581  157.6622 H   0  0  0  0  0  0  0  0  0  0  0  0
  146.4148  143.1168  152.8765 H   0  0  0  0  0  0  0  0  0  0  0  0
  1  2  1  0  0  0  0
  1 26  1  0  0  0  0
  1 27  1  0  0  0  0
  1 28  1  0  0  0  0
  2  3  2  0  0  0  0
  2  4  1  0  0  0  0
  4 25  1  0  0  0  0
  4  5  2  0  0  0  0
  5  6  1  0  0  0  0
  5 29  1  0  0  0  0
  6  7  2  0  0  0  0
  6 30  1  0  0  0  0
  7  8  1  0  0  0  0
  7 31  1  0  0  0  0
  8  9  1  0  0  0  0
  8 25  2  0  0  0  0
  9 10  1  0  0  0  0
 10 11  1  0  0  0  0
 10 32  1  0  0  0  0
 10 33  1  0  0  0  0
 11 12  1  0  0  0  0
 11 13  1  0  0  0  0
 11 34  1  0  0  0  0
 12 35  1  0  0  0  0
 13 14  1  0  0  0  0
 13 36  1  0  0  0  0
 13 37  1  0  0  0  0
 14 24  1  0  0  0  0
 14 15  1  0  0  0  0
 15 16  1  0  0  0  0
 15 18  2  0  0  0  0
 16 17  1  0  0  0  0
 16 38  1  0  0  0  0
 16 39  1  0  0  0  0
 17 40  1  0  0  0  0
 18 19  1  0  0  0  0
 19 24  2  0  0  0  0
 19 20  1  0  0  0  0
 20 21  2  0  0  0  0
 20 41  1  0  0  0  0
 21 22  1  0  0  0  0
 21 42  1  0  0  0  0
 22 23  2  0  0  0  0
 22 43  1  0  0  0  0
 23 24  1  0  0  0  0
 23 44  1  0  0  0  0
 25 45  1  0  0  0  0
M  END
> <s_m_source_file>
AV-unprocessed.smi

> <i_m_source_file_index>
1518

> <i_lp_mmshare_version>
43012

> <i_f3d_flags>
0

> <s_epik_input>
W0NIM11DKD1PKWMxW2NIXVtjSF1bY0hdYyhbY0hdMSlPW0NIMl1bQ0BIXShbT0hdKVtDSDJdbihjKG4yKVtDSDJdW09IXSljKGMyMylbY0hdW2NIXVtjSF1bY0hdMw==

> <s_epik_cmdline>
J2VwaWtfcHl0aG9uJywgJy1waCcsICc3LjAnLCAnLXRuJywgJzgnLCAnLW1hJywgJzIwMCcsICctbWV0YWxfYmluZGluZycsICctaW1hZScsICc8aW5maWxlLm1hZT4nLCAnLW9tYWUnLCAnPG91dGZpbGUubWFlPic=

> <r_lp_tautomer_probability>
0.99995

> <r_epik_Ionization_Penalty>
0.0583159

> <r_epik_Ionization_Penalty_Charging>
0

> <r_epik_Ionization_Penalty_Neutral>
0.0583159

> <r_epik_State_Penalty>
0.0503525

> <r_epik_Charging_Adjusted_Penalty>
0.0503525

> <i_epik_Tot_Q>
0

> <i_epik_Tot_abs_Q>
0

> <r_epik_Metal_State_Penalty>
5.25517e-05

> <b_epik_Metal_Only>
0

> <s_lp_Force_Field>
OPLS_2005

> <r_lp_Energy>
23.8716

> <b_lp_Chiralities_Consistent>
1

> <s_lp_Variant>
AV-unprocessed.smi:1518-2

> <Gold.Version>
5.8.1

> <Gold.Id.Protein>
6NUR|6NUR_protein|mol2

> <Gold.PLP.Fitness>
54.2632

> <Gold.PLP.PLP>
-52.1773

> <Gold.PLP.part.hbond>
-3.6738

> <Gold.PLP.part.metal>
0.0000

> <Gold.PLP.part.buried>
-6.6746

> <Gold.PLP.part.nonpolar>
-41.1293

> <Gold.PLP.part.repulsive>
0.1997

> <Gold.PLP.ligand.clash>
0.3891

> <Gold.PLP.ligand.torsion>
1.5955

> <Gold.PLP.Chemscore.Hbond>
1.8643

> <Gold.PLP.Chemscore.CHOScore>
0.0000

> <Gold.PLP.Chemscore.Metal>
0.0000

> <Gold.Chemscore.Hbonds>
donor molecule, donor type, donor heavy atom, donor atom, acceptor molecule, acceptor atom, score
      P1  H  7989  7998       L1    17  0.88
      P1  H  7997  8008       L1    18  0.82

> <Gold.PLP.Chemscore.Internal.Correction>
0.0731

> <Gold.Rescore>
     Score         DG    S(hbond)    S(metal)    S(lipo)     H(rot)  DE(clash)    DE(int)     intcor
     14.22     -15.98       1.46        0.00     119.20       3.25       0.15       1.62       ----

> <Gold.Chemscore.Fitness>
14.2171

> <Gold.Chemscore.DG>
-15.9841

> <Gold.Chemscore.ZeroCoef>
-5.4800

> <Gold.Chemscore.Hbond>
1.4592

> <Gold.Chemscore.Metal>
0.0000

> <Gold.Chemscore.Lipo>
119.1965

> <Gold.Chemscore.Internal_Hbond>
0.0000

> <Gold.Chemscore.DEClash>
0.1485

> <Gold.Chemscore.DEInternal>
1.6184

> <Gold.Chemscore.Rot>
3.2482

> <Gold.Chemscore.Internal.Correction>
   9.000000E+99

> <Gold.Chemscore.Hbonds>
donor molecule, donor type, donor heavy atom, donor atom, acceptor molecule, acceptor atom, score
      P1  H  7989  7998       L1    17  0.56
      P1  H  7997  8008       L1    18  0.27

> <Gold.Chemscore.Hbond.Weighted>
-4.8736

> <Gold.Chemscore.Metal.Weighted>
-0.0000

> <Gold.Chemscore.Lipo.Weighted>
-13.9460

> <Gold.Chemscore.Internal_Hbond.Weighted>
0.0000

> <Gold.Chemscore.DEClash.Weighted>
0.1485

> <Gold.Chemscore.DEInternal.Weighted>
1.6184

> <Gold.Chemscore.Rot.Weighted>
8.3155

> <Gold.Chemscore.Internal.Correction.Weighted>
   9.000000E+99

> <Gold.Protein.RotatedTorsions>
[ 6907 6896 6895 6894 ] final  136.35 input  -60.11 | X-H torsion
[ 7974 7965 7964 7962 ] final  140.85 input  175.53 | X-H torsion
[ 8008 7997 7996 7995 ] final  -81.57 input   59.86 | X-H torsion
[ 10167 10162 10161 10158 ] final   57.50 input  -65.29 | X-H torsion
[ 10718 10713 10712 10709 ] final  -40.62 input   66.30 | X-H torsion
[ 10763 10752 10751 10750 ] final  132.16 input  -60.55 | X-H torsion
[ 11005 11000 10999 10996 ] final  154.98 input  -57.11 | X-H torsion

> <Gold.Protein.ActiveResidues>
 VAL166  LYS551  ARG553  GLY616  TRP617  ASP618  TYR619  PRO620  LYS621  CYS622 
 ASP623  PHE694  ASN695  SER759  ASP760  ASP761  ALA762  ILE779  LEU786  VAL792 
 PHE793  MET794  SER795  GLU796  ALA797  LYS798  CYS799  TRP800  GLU811  SER814 

> <Gold.Protein.RotatedAtoms>
  152.2903  133.5555  159.5553 H   0  0  0  0  0  0  0  0  0  0  0  0  # atno 6907 bound_to 6896
  150.7232  134.0438  159.3783 H   0  0  0  0  0  0  0  0  0  0  0  0  # atno 6908 bound_to 6896
  151.8344  135.0611  160.0491 H   0  0  0  0  0  0  0  0  0  0  0  0  # atno 6909 bound_to 6896
  144.9149  139.5243  143.5691 H   0  0  0  0  0  0  0  0  0  0  0  0  # atno 7974 bound_to 7965
  154.5996  140.0646  156.9351 H   0  0  0  0  0  0  0  0  0  0  0  0  # atno 8008 bound_to 7997
  155.2154  140.3326  155.4304 H   0  0  0  0  0  0  0  0  0  0  0  0  # atno 8009 bound_to 7997
  156.2310  140.1841  156.7227 H   0  0  0  0  0  0  0  0  0  0  0  0  # atno 8010 bound_to 7997
  140.1974  144.4024  150.6544 H   0  0  0  0  0  0  0  0  0  0  0  0  # atno 10167 bound_to 10162
  156.2793  130.4215  149.8353 H   0  0  0  0  0  0  0  0  0  0  0  0  # atno 10718 bound_to 10713
  153.7862  135.3161  155.3372 H   0  0  0  0  0  0  0  0  0  0  0  0  # atno 10763 bound_to 10752
  154.8143  135.4647  154.0603 H   0  0  0  0  0  0  0  0  0  0  0  0  # atno 10764 bound_to 10752
  153.1907  135.6908  153.8443 H   0  0  0  0  0  0  0  0  0  0  0  0  # atno 10765 bound_to 10752
  140.1539  134.8656  157.2489 H   0  0  0  0  0  0  0  0  0  0  0  0  # atno 11005 bound_to 11000
  146.3177  139.7985  142.8970 LP  0  0  0  0  0  0  0  0  0  0  0  0  # atno 17320 bound_to 7965
  145.3391  141.0284  143.3402 LP  0  0  0  0  0  0  0  0  0  0  0  0  # atno 17321 bound_to 7965
  140.6414  143.2204  151.6281 LP  0  0  0  0  0  0  0  0  0  0  0  0  # atno 17342 bound_to 10162
  139.5231  144.3143  152.0966 LP  0  0  0  0  0  0  0  0  0  0  0  0  # atno 17343 bound_to 10162
  156.5806  130.8464  151.3382 LP  0  0  0  0  0  0  0  0  0  0  0  0  # atno 17370 bound_to 10713
  157.7309  130.9693  150.1856 LP  0  0  0  0  0  0  0  0  0  0  0  0  # atno 17371 bound_to 10713
  140.2571  134.3614  155.7420 LP  0  0  0  0  0  0  0  0  0  0  0  0  # atno 17394 bound_to 11000
  141.2202  133.7349  156.9024 LP  0  0  0  0  0  0  0  0  0  0  0  0  # atno 17395 bound_to 11000

$$$$
