AV-unprocessed.smi:1047|AV-procd|sdf|4603|dock7
  -GOLD-   22720 3 93D 1   1.00000     0.00000
 Structure written by MMmdl.
 57 59  0  0  0  0  0  0  0  0  3 V2000
  146.0692  133.5165  150.9831 C   0  0  0  0  0  0  0  0  0  0  0  0
  145.6463  134.9724  150.7416 C   0  0  0  0  0  0  0  0  0  0  0  0
  146.2118  135.9065  151.7471 N   0  3  2  0  0  0  0  0  0  0  0  0
  145.6780  135.6990  153.1161 C   0  0  0  0  0  0  0  0  0  0  0  0
  146.3240  136.6880  154.1001 C   0  0  0  0  0  0  0  0  0  0  0  0
  146.1062  138.0178  153.6472 O   0  0  0  0  0  0  0  0  0  0  0  0
  146.7099  138.2624  152.3809 C   0  0  2  0  0  0  0  0  0  0  0  0
  146.4859  139.7398  152.0272 C   0  0  0  0  0  0  0  0  0  0  0  0
  146.3355  140.5521  153.2300 N   0  0  0  0  0  0  0  0  0  0  0  0
  147.4612  141.4507  153.4677 C   0  0  0  0  0  0  0  0  0  0  0  0
  148.5269  140.7925  154.3610 C   0  0  1  0  0  0  0  0  0  0  0  0
  149.6996  140.5977  153.5954 O   0  0  0  0  0  0  0  0  0  0  0  0
  148.8600  141.6652  155.5872 C   0  0  0  0  0  0  0  0  0  0  0  0
  149.6141  140.9355  156.6170 N   0  0  0  0  0  0  0  0  0  0  0  0
  149.5479  139.6229  156.9692 C   0  0  0  0  0  0  0  0  0  0  0  0
  150.4420  139.4211  157.9758 N   0  3  0  0  0  0  0  0  0  0  0  0
  151.0888  140.6225  158.2720 C   0  0  0  0  0  0  0  0  0  0  0  0
  152.0700  140.9187  159.2107 C   0  0  0  0  0  0  0  0  0  0  0  0
  152.5302  142.2536  159.2632 C   0  0  0  0  0  0  0  0  0  0  0  0
  153.6039  142.6111  160.2769 C   0  0  0  0  0  0  0  0  0  0  0  0
  152.0053  143.2412  158.3902 C   0  0  0  0  0  0  0  0  0  0  0  0
  152.5081  144.6733  158.4554 C   0  0  0  0  0  0  0  0  0  0  0  0
  151.0076  142.9196  157.4420 C   0  0  0  0  0  0  0  0  0  0  0  0
  150.5637  141.5996  157.4035 C   0  0  0  0  0  0  0  0  0  0  0  0
  146.0604  137.3252  151.3435 C   0  0  0  0  0  0  0  0  0  0  0  0
  145.7096  132.8756  150.1778 H   0  0  0  0  0  0  0  0  0  0  0  0
  145.6627  133.1210  151.9135 H   0  0  0  0  0  0  0  0  0  0  0  0
  147.1548  133.4218  151.0202 H   0  0  0  0  0  0  0  0  0  0  0  0
  145.9992  135.2614  149.7505 H   0  0  0  0  0  0  0  0  0  0  0  0
  144.5589  135.0584  150.7202 H   0  0  0  0  0  0  0  0  0  0  0  0
  144.5953  135.8339  153.1121 H   0  0  0  0  0  0  0  0  0  0  0  0
  145.8728  134.6816  153.4536 H   0  0  0  0  0  0  0  0  0  0  0  0
  145.8818  136.5758  155.0901 H   0  0  0  0  0  0  0  0  0  0  0  0
  147.3928  136.4950  154.2052 H   0  0  0  0  0  0  0  0  0  0  0  0
  147.7818  138.0595  152.4328 H   0  0  0  0  0  0  0  0  0  0  0  0
  147.3340  140.1080  151.4485 H   0  0  0  0  0  0  0  0  0  0  0  0
  145.6069  139.8358  151.3885 H   0  0  0  0  0  0  0  0  0  0  0  0
  145.4756  141.0888  153.1748 H   0  0  0  0  0  0  0  0  0  0  0  0
  147.8991  141.7851  152.5261 H   0  0  0  0  0  0  0  0  0  0  0  0
  147.0910  142.3465  153.9682 H   0  0  0  0  0  0  0  0  0  0  0  0
  148.1727  139.8212  154.7106 H   0  0  0  0  0  0  0  0  0  0  0  0
  149.4515  140.4619  152.6939 H   0  0  0  0  0  0  0  0  0  0  0  0
  149.4065  142.5641  155.3014 H   0  0  0  0  0  0  0  0  0  0  0  0
  147.9373  142.0080  156.0575 H   0  0  0  0  0  0  0  0  0  0  0  0
  148.9032  138.8755  156.5294 H   0  0  0  0  0  0  0  0  0  0  0  0
  152.4656  140.1610  159.8712 H   0  0  0  0  0  0  0  0  0  0  0  0
  153.2355  143.3621  160.9762 H   0  0  0  0  0  0  0  0  0  0  0  0
  154.4871  143.0072  159.7751 H   0  0  0  0  0  0  0  0  0  0  0  0
  153.9128  141.7399  160.8553 H   0  0  0  0  0  0  0  0  0  0  0  0
  151.9970  145.3097  157.7323 H   0  0  0  0  0  0  0  0  0  0  0  0
  153.5759  144.7135  158.2392 H   0  0  0  0  0  0  0  0  0  0  0  0
  152.3384  145.0940  159.4469 H   0  0  0  0  0  0  0  0  0  0  0  0
  150.6140  143.6722  156.7755 H   0  0  0  0  0  0  0  0  0  0  0  0
  146.5256  137.4799  150.3689 H   0  0  0  0  0  0  0  0  0  0  0  0
  145.0001  137.5607  151.2334 H   0  0  0  0  0  0  0  0  0  0  0  0
  147.2051  135.7270  151.7849 H   0  0  0  0  0  0  0  0  0  0  0  0
  150.5981  138.5278  158.4249 H   0  0  0  0  0  0  0  0  0  0  0  0
  1  2  1  0  0  0  0
  1 26  1  0  0  0  0
  1 27  1  0  0  0  0
  1 28  1  0  0  0  0
  2  3  1  0  0  0  0
  2 29  1  0  0  0  0
  2 30  1  0  0  0  0
  3 25  1  0  0  0  0
  3  4  1  0  0  0  0
  3 56  1  0  0  0  0
  4  5  1  0  0  0  0
  4 31  1  0  0  0  0
  4 32  1  0  0  0  0
  5  6  1  0  0  0  0
  5 33  1  0  0  0  0
  5 34  1  0  0  0  0
  6  7  1  0  0  0  0
  7  8  1  0  0  0  0
  7 25  1  0  0  0  0
  7 35  1  0  0  0  0
  8  9  1  0  0  0  0
  8 36  1  0  0  0  0
  8 37  1  0  0  0  0
  9 10  1  0  0  0  0
  9 38  1  0  0  0  0
 10 11  1  0  0  0  0
 10 39  1  0  0  0  0
 10 40  1  0  0  0  0
 11 12  1  0  0  0  0
 11 13  1  0  0  0  0
 11 41  1  0  0  0  0
 12 42  1  0  0  0  0
 13 14  1  0  0  0  0
 13 43  1  0  0  0  0
 13 44  1  0  0  0  0
 14 24  1  0  0  0  0
 14 15  1  0  0  0  0
 15 16  2  0  0  0  0
 15 45  1  0  0  0  0
 16 17  1  0  0  0  0
 16 57  1  0  0  0  0
 17 24  2  0  0  0  0
 17 18  1  0  0  0  0
 18 19  2  0  0  0  0
 18 46  1  0  0  0  0
 19 20  1  0  0  0  0
 19 21  1  0  0  0  0
 20 47  1  0  0  0  0
 20 48  1  0  0  0  0
 20 49  1  0  0  0  0
 21 22  1  0  0  0  0
 21 23  2  0  0  0  0
 22 50  1  0  0  0  0
 22 51  1  0  0  0  0
 22 52  1  0  0  0  0
 23 24  1  0  0  0  0
 23 53  1  0  0  0  0
 25 54  1  0  0  0  0
 25 55  1  0  0  0  0
M  CHG  1   3   1
M  CHG  1  16   1
M  END
> <s_m_source_file>
AV-unprocessed.smi

> <i_m_source_file_index>
1047

> <i_lp_mmshare_version>
43012

> <i_f3d_flags>
0

> <s_epik_input>
W0NIM11bQ0gyXU4xW0NIMl1bQ0gyXU9bQ0BIXShbQ0gyXTEpW0NIMl1bTkhdW0NIMl1bQ0BIXShbT0hdKVtDSDJdbihbY0hdbjIpYyhjMjMpW2NIXWMoW0NIM10pYyhbY0hdMylbQ0gzXQ==

> <s_epik_cmdline>
J2VwaWtfcHl0aG9uJywgJy1waCcsICc3LjAnLCAnLXRuJywgJzgnLCAnLW1hJywgJzIwMCcsICctbWV0YWxfYmluZGluZycsICctaW1hZScsICc8aW5maWxlLm1hZT4nLCAnLW9tYWUnLCAnPG91dGZpbGUubWFlPic=

> <r_epik_Ionization_Penalty>
2.03028

> <r_epik_Ionization_Penalty_Charging>
1.21256

> <r_epik_Ionization_Penalty_Neutral>
0.817715

> <r_epik_State_Penalty>
2.54959

> <r_epik_Charging_Adjusted_Penalty>
3.76215

> <i_epik_Tot_Q>
2

> <i_epik_Tot_abs_Q>
2

> <r_epik_Metal_State_Penalty>
6.52811

> <b_epik_Metal_Only>
0

> <s_lp_Force_Field>
OPLS_2005

> <r_lp_Energy>
34.649

> <b_lp_Chiralities_Consistent>
1

> <s_lp_Variant>
AV-unprocessed.smi:1047-44

> <Gold.Version>
5.8.1

> <Gold.Id.Protein>
6NUR|6NUR_protein|mol2

> <Gold.PLP.Fitness>
54.2542

> <Gold.PLP.PLP>
-46.3213

> <Gold.PLP.part.hbond>
-4.2699

> <Gold.PLP.part.metal>
0.0000

> <Gold.PLP.part.buried>
1.5012

> <Gold.PLP.part.nonpolar>
-44.5424

> <Gold.PLP.part.repulsive>
0.3422

> <Gold.PLP.ligand.clash>
0.0000

> <Gold.PLP.ligand.torsion>
2.2450

> <Gold.PLP.Chemscore.Hbond>
4.0720

> <Gold.PLP.Chemscore.CHOScore>
0.0000

> <Gold.PLP.Chemscore.Metal>
0.0000

> <Gold.Chemscore.Hbonds>
donor molecule, donor type, donor heavy atom, donor atom, acceptor molecule, acceptor atom, score
      L1  H     3    56       P1  7948  2.00
      L1  H     9    38       P1 10175  0.58
      L1  H    12    42       P1  7957  1.00
      P1  H  7989  7998       L1    12  0.46

> <Gold.PLP.Chemscore.Internal.Correction>
0.2069

> <Gold.Rescore>
     Score         DG    S(hbond)    S(metal)    S(lipo)     H(rot)  DE(clash)    DE(int)     intcor
     19.00     -22.18       2.29        0.00     136.71       2.71       1.01       2.17       ----

> <Gold.Chemscore.Fitness>
19.0000

> <Gold.Chemscore.DG>
-22.1794

> <Gold.Chemscore.ZeroCoef>
-5.4800

> <Gold.Chemscore.Hbond>
2.2872

> <Gold.Chemscore.Metal>
0.0000

> <Gold.Chemscore.Lipo>
136.7079

> <Gold.Chemscore.Internal_Hbond>
0.0000

> <Gold.Chemscore.DEClash>
1.0095

> <Gold.Chemscore.DEInternal>
2.1698

> <Gold.Chemscore.Rot>
2.7088

> <Gold.Chemscore.Internal.Correction>
   9.000000E+99

> <Gold.Chemscore.Hbonds>
donor molecule, donor type, donor heavy atom, donor atom, acceptor molecule, acceptor atom, score
      L1  H     3    56       P1  7948  0.98
      L1  H     9    38       P1 10175  0.17
      L1  H    12    42       P1  7957  0.97
      P1  H  7989  7998       L1    12  0.16

> <Gold.Chemscore.Hbond.Weighted>
-7.6392

> <Gold.Chemscore.Metal.Weighted>
-0.0000

> <Gold.Chemscore.Lipo.Weighted>
-15.9948

> <Gold.Chemscore.Internal_Hbond.Weighted>
0.0000

> <Gold.Chemscore.DEClash.Weighted>
1.0095

> <Gold.Chemscore.DEInternal.Weighted>
2.1698

> <Gold.Chemscore.Rot.Weighted>
6.9346

> <Gold.Chemscore.Internal.Correction.Weighted>
   9.000000E+99

> <Gold.Protein.RotatedTorsions>
[ 6907 6896 6895 6894 ] final    3.57 input  -60.11 | X-H torsion
[ 7974 7965 7964 7962 ] final   32.18 input  175.53 | X-H torsion
[ 8008 7997 7996 7995 ] final   47.17 input   59.86 | X-H torsion
[ 10167 10162 10161 10158 ] final -140.77 input  -65.29 | X-H torsion
[ 10718 10713 10712 10709 ] final  -58.92 input   66.30 | X-H torsion
[ 10763 10752 10751 10750 ] final -166.21 input  -60.55 | X-H torsion
[ 11005 11000 10999 10996 ] final   27.07 input  -57.11 | X-H torsion

> <Gold.Protein.ActiveResidues>
 VAL166  LYS551  ARG553  GLY616  TRP617  ASP618  TYR619  PRO620  LYS621  CYS622 
 ASP623  PHE694  ASN695  SER759  ASP760  ASP761  ALA762  ILE779  LEU786  VAL792 
 PHE793  MET794  SER795  GLU796  ALA797  LYS798  CYS799  TRP800  GLU811  SER814 

> <Gold.Protein.RotatedAtoms>
  151.6272  135.1026  160.0113 H   0  0  0  0  0  0  0  0  0  0  0  0  # atno 6907 bound_to 6896
  152.4126  133.6983  159.6419 H   0  0  0  0  0  0  0  0  0  0  0  0  # atno 6908 bound_to 6896
  150.8015  133.8514  159.3247 H   0  0  0  0  0  0  0  0  0  0  0  0  # atno 6909 bound_to 6896
  146.1503  139.6559  142.9103 H   0  0  0  0  0  0  0  0  0  0  0  0  # atno 7974 bound_to 7965
  155.3646  140.3420  155.4241 H   0  0  0  0  0  0  0  0  0  0  0  0  # atno 8008 bound_to 7997
  156.1695  140.1627  156.8506 H   0  0  0  0  0  0  0  0  0  0  0  0  # atno 8009 bound_to 7997
  154.5219  140.0765  156.8170 H   0  0  0  0  0  0  0  0  0  0  0  0  # atno 8010 bound_to 7997
  139.8249  143.7524  152.2666 H   0  0  0  0  0  0  0  0  0  0  0  0  # atno 10167 bound_to 10162
  156.1100  130.4176  150.0643 H   0  0  0  0  0  0  0  0  0  0  0  0  # atno 10718 bound_to 10713
  154.6856  135.2962  154.9552 H   0  0  0  0  0  0  0  0  0  0  0  0  # atno 10763 bound_to 10752
  154.0533  135.6641  153.4807 H   0  0  0  0  0  0  0  0  0  0  0  0  # atno 10764 bound_to 10752
  153.0576  135.5135  154.7921 H   0  0  0  0  0  0  0  0  0  0  0  0  # atno 10765 bound_to 10752
  140.3302  134.2446  155.7703 H   0  0  0  0  0  0  0  0  0  0  0  0  # atno 11005 bound_to 11000
  145.4840  141.0438  143.2630 LP  0  0  0  0  0  0  0  0  0  0  0  0  # atno 17320 bound_to 7965
  144.7896  139.6356  143.7119 LP  0  0  0  0  0  0  0  0  0  0  0  0  # atno 17321 bound_to 7965
  139.7713  144.7475  151.0220 LP  0  0  0  0  0  0  0  0  0  0  0  0  # atno 17342 bound_to 10162
  140.7811  143.4641  151.0236 LP  0  0  0  0  0  0  0  0  0  0  0  0  # atno 17343 bound_to 10162
  156.8609  130.9491  151.3618 LP  0  0  0  0  0  0  0  0  0  0  0  0  # atno 17370 bound_to 10713
  157.6280  130.8707  149.9223 LP  0  0  0  0  0  0  0  0  0  0  0  0  # atno 17371 bound_to 10713
  141.2065  133.7831  157.0172 LP  0  0  0  0  0  0  0  0  0  0  0  0  # atno 17394 bound_to 11000
  140.0867  134.9616  157.1711 LP  0  0  0  0  0  0  0  0  0  0  0  0  # atno 17395 bound_to 11000

$$$$
