AV-unprocessed.smi:1426|AV-procd|sdf|5806|dock9
  -GOLD-   22720 5463D 1   1.00000     0.00000
 Structure written by MMmdl.
 43 45  0  0  0  0  0  0  0  0  1 V2000
  144.6369  136.3937  151.5992 O   0  0  0  0  0  0  0  0  0  0  0  0
  145.8185  136.2102  151.8921 C   0  0  0  0  0  0  0  0  0  0  0  0
  146.6800  137.2017  152.1596 N   0  0  0  0  0  0  0  0  0  0  0  0
  146.3704  138.6274  152.1156 C   0  0  0  0  0  0  0  0  0  0  0  0
  146.8384  139.3505  153.3926 C   0  0  1  0  0  0  0  0  0  0  0  0
  148.2295  138.9826  153.8723 C   0  0  0  0  0  0  0  0  0  0  0  0
  148.5686  140.1536  154.7893 C   0  0  0  0  0  0  0  0  0  0  0  0
  147.8739  141.2792  154.2593 O   0  0  0  0  0  0  0  0  0  0  0  0
  146.9819  140.8630  153.2298 C   0  0  0  0  0  0  0  0  0  0  0  0
  146.4234  135.0128  151.9604 N   0  0  0  0  0  0  0  0  0  0  0  0
  145.8722  133.7314  151.6747 C   0  0  0  0  0  0  0  0  0  0  0  0
  144.9276  133.5243  150.6403 C   0  0  0  0  0  0  0  0  0  0  0  0
  144.4185  132.2315  150.4243 C   0  0  0  0  0  0  0  0  0  0  0  0
  144.8649  131.1907  151.2573 C   0  0  0  0  0  0  0  0  0  0  0  0
  145.7494  131.3749  152.2581 N   0  0  0  0  0  0  0  0  0  0  0  0
  146.2492  132.6170  152.4711 C   0  0  0  0  0  0  0  0  0  0  0  0
  147.1442  132.7870  153.5474 N   0  0  0  0  0  0  0  0  0  0  0  0
  147.2215  131.6206  154.4229 C   0  0  0  0  0  0  0  0  0  0  0  0
  148.6841  131.4982  154.8550 C   0  0  0  0  0  0  0  0  0  0  0  0
  149.4388  132.1366  153.6956 C   0  0  0  0  0  0  0  0  0  0  0  0
  148.4987  133.2640  153.2726 C   0  0  0  0  0  0  0  0  0  0  0  0
  147.6311  136.9524  152.3886 H   0  0  0  0  0  0  0  0  0  0  0  0
  146.8016  139.0936  151.2278 H   0  0  0  0  0  0  0  0  0  0  0  0
  145.2894  138.7288  152.0166 H   0  0  0  0  0  0  0  0  0  0  0  0
  146.1291  139.1560  154.1991 H   0  0  0  0  0  0  0  0  0  0  0  0
  148.2696  138.0207  154.3844 H   0  0  0  0  0  0  0  0  0  0  0  0
  148.9255  138.9515  153.0326 H   0  0  0  0  0  0  0  0  0  0  0  0
  148.2012  139.9642  155.7986 H   0  0  0  0  0  0  0  0  0  0  0  0
  149.6415  140.3381  154.8487 H   0  0  0  0  0  0  0  0  0  0  0  0
  147.4318  141.1074  152.2665 H   0  0  0  0  0  0  0  0  0  0  0  0
  146.0262  141.3831  153.2976 H   0  0  0  0  0  0  0  0  0  0  0  0
  147.4199  135.0269  152.1211 H   0  0  0  0  0  0  0  0  0  0  0  0
  144.5754  134.3345  150.0203 H   0  0  0  0  0  0  0  0  0  0  0  0
  143.6989  132.0439  149.6413 H   0  0  0  0  0  0  0  0  0  0  0  0
  144.4946  130.1852  151.1233 H   0  0  0  0  0  0  0  0  0  0  0  0
  146.5608  131.7317  155.2832 H   0  0  0  0  0  0  0  0  0  0  0  0
  146.9171  130.7219  153.8830 H   0  0  0  0  0  0  0  0  0  0  0  0
  148.8519  132.0750  155.7658 H   0  0  0  0  0  0  0  0  0  0  0  0
  148.9852  130.4678  155.0462 H   0  0  0  0  0  0  0  0  0  0  0  0
  150.4313  132.4925  153.9733 H   0  0  0  0  0  0  0  0  0  0  0  0
  149.5488  131.4180  152.8820 H   0  0  0  0  0  0  0  0  0  0  0  0
  148.6675  133.5686  152.2393 H   0  0  0  0  0  0  0  0  0  0  0  0
  148.6715  134.1436  153.8934 H   0  0  0  0  0  0  0  0  0  0  0  0
  1  2  2  0  0  0  0
  2  3  1  0  0  0  0
  2 10  1  0  0  0  0
  3  4  1  0  0  0  0
  3 22  1  0  0  0  0
  4  5  1  0  0  0  0
  4 23  1  0  0  0  0
  4 24  1  0  0  0  0
  5  9  1  0  0  0  0
  5  6  1  0  0  0  0
  5 25  1  0  0  0  0
  6  7  1  0  0  0  0
  6 26  1  0  0  0  0
  6 27  1  0  0  0  0
  7  8  1  0  0  0  0
  7 28  1  0  0  0  0
  7 29  1  0  0  0  0
  8  9  1  0  0  0  0
  9 30  1  0  0  0  0
  9 31  1  0  0  0  0
 10 11  1  0  0  0  0
 10 32  1  0  0  0  0
 11 16  1  0  0  0  0
 11 12  2  0  0  0  0
 12 13  1  0  0  0  0
 12 33  1  0  0  0  0
 13 14  2  0  0  0  0
 13 34  1  0  0  0  0
 14 15  1  0  0  0  0
 14 35  1  0  0  0  0
 15 16  2  0  0  0  0
 16 17  1  0  0  0  0
 17 21  1  0  0  0  0
 17 18  1  0  0  0  0
 18 19  1  0  0  0  0
 18 36  1  0  0  0  0
 18 37  1  0  0  0  0
 19 20  1  0  0  0  0
 19 38  1  0  0  0  0
 19 39  1  0  0  0  0
 20 21  1  0  0  0  0
 20 40  1  0  0  0  0
 20 41  1  0  0  0  0
 21 42  1  0  0  0  0
 21 43  1  0  0  0  0
M  END
> <s_m_source_file>
AV-unprocessed.smi

> <i_m_source_file_index>
1426

> <i_lp_mmshare_version>
43012

> <i_f3d_flags>
0

> <s_epik_input>
W0NIMl0xT1tDSDJdW0NIMl1bQ0BIXTFbQ0gyXVtOSF1DKD1PKVtOSF1jMltjSF1bY0hdW2NIXW5jMk4zW0NIMl1bQ0gyXVtDSDJdW0NIMl0z

> <s_epik_cmdline>
J2VwaWtfcHl0aG9uJywgJy1waCcsICc3LjAnLCAnLXRuJywgJzgnLCAnLW1hJywgJzIwMCcsICctbWV0YWxfYmluZGluZycsICctaW1hZScsICc8aW5maWxlLm1hZT4nLCAnLW9tYWUnLCAnPG91dGZpbGUubWFlPic=

> <r_lp_tautomer_probability>
1

> <r_epik_Ionization_Penalty>
0.0999657

> <r_epik_Ionization_Penalty_Charging>
0

> <r_epik_Ionization_Penalty_Neutral>
0.0999657

> <r_epik_State_Penalty>
0.0894442

> <r_epik_Charging_Adjusted_Penalty>
0.0894442

> <i_epik_Tot_Q>
0

> <i_epik_Tot_abs_Q>
0

> <r_epik_Metal_State_Penalty>
0.076486

> <b_epik_Metal_Only>
0

> <s_lp_Force_Field>
OPLS_2005

> <r_lp_Energy>
46.9111

> <b_lp_Chiralities_Consistent>
1

> <s_lp_Variant>
AV-unprocessed.smi:1426-2

> <Gold.Version>
5.8.1

> <Gold.Id.Protein>
6NUR|6NUR_protein|mol2

> <Gold.PLP.Fitness>
37.8427

> <Gold.PLP.PLP>
-34.0428

> <Gold.PLP.part.hbond>
-1.5605

> <Gold.PLP.part.metal>
0.0000

> <Gold.PLP.part.buried>
-5.1134

> <Gold.PLP.part.nonpolar>
-28.8433

> <Gold.PLP.part.repulsive>
2.3717

> <Gold.PLP.ligand.clash>
0.0000

> <Gold.PLP.ligand.torsion>
0.5766

> <Gold.PLP.Chemscore.Hbond>
1.6117

> <Gold.PLP.Chemscore.CHOScore>
0.0000

> <Gold.PLP.Chemscore.Metal>
0.0000

> <Gold.Chemscore.Hbonds>
donor molecule, donor type, donor heavy atom, donor atom, acceptor molecule, acceptor atom, score
      L1  H     3    22       P1  7948  0.88
      L1  H    10    32       P1  7948  0.80

> <Gold.PLP.Chemscore.Internal.Correction>
0.1180

> <Gold.Rescore>
     Score         DG    S(hbond)    S(metal)    S(lipo)     H(rot)  DE(clash)    DE(int)     intcor
     15.78     -17.45       1.73        0.00      82.98       1.38       0.17       1.50       ----

> <Gold.Chemscore.Fitness>
15.7751

> <Gold.Chemscore.DG>
-17.4492

> <Gold.Chemscore.ZeroCoef>
-5.4800

> <Gold.Chemscore.Hbond>
1.7341

> <Gold.Chemscore.Metal>
0.0000

> <Gold.Chemscore.Lipo>
82.9820

> <Gold.Chemscore.Internal_Hbond>
0.0000

> <Gold.Chemscore.DEClash>
0.1714

> <Gold.Chemscore.DEInternal>
1.5027

> <Gold.Chemscore.Rot>
1.3796

> <Gold.Chemscore.Internal.Correction>
   9.000000E+99

> <Gold.Chemscore.Hbonds>
donor molecule, donor type, donor heavy atom, donor atom, acceptor molecule, acceptor atom, score
      L1  H     3    22       P1  7948  0.85
      L1  H    10    32       P1  7948  0.76

> <Gold.Chemscore.Hbond.Weighted>
-5.7920

> <Gold.Chemscore.Metal.Weighted>
-0.0000

> <Gold.Chemscore.Lipo.Weighted>
-9.7089

> <Gold.Chemscore.Internal_Hbond.Weighted>
0.0000

> <Gold.Chemscore.DEClash.Weighted>
0.1714

> <Gold.Chemscore.DEInternal.Weighted>
1.5027

> <Gold.Chemscore.Rot.Weighted>
3.5317

> <Gold.Chemscore.Internal.Correction.Weighted>
   9.000000E+99

> <Gold.Protein.RotatedTorsions>
[ 6907 6896 6895 6894 ] final   98.15 input  -60.11 | X-H torsion
[ 7974 7965 7964 7962 ] final   90.72 input  175.53 | X-H torsion
[ 8008 7997 7996 7995 ] final  113.23 input   59.86 | X-H torsion
[ 10167 10162 10161 10158 ] final  -76.79 input  -65.29 | X-H torsion
[ 10718 10713 10712 10709 ] final   35.03 input   66.30 | X-H torsion
[ 10763 10752 10751 10750 ] final  178.28 input  -60.55 | X-H torsion
[ 11005 11000 10999 10996 ] final -169.04 input  -57.11 | X-H torsion

> <Gold.Protein.ActiveResidues>
 VAL166  LYS551  ARG553  GLY616  TRP617  ASP618  TYR619  PRO620  LYS621  CYS622 
 ASP623  PHE694  ASN695  SER759  ASP760  ASP761  ALA762  ILE779  LEU786  VAL792 
 PHE793  MET794  SER795  GLU796  ALA797  LYS798  CYS799  TRP800  GLU811  SER814 

> <Gold.Protein.RotatedAtoms>
  152.5413  134.0625  159.8158 H   0  0  0  0  0  0  0  0  0  0  0  0  # atno 6907 bound_to 6896
  151.0751  133.5427  159.2631 H   0  0  0  0  0  0  0  0  0  0  0  0  # atno 6908 bound_to 6896
  151.2276  135.0550  159.9028 H   0  0  0  0  0  0  0  0  0  0  0  0  # atno 6909 bound_to 6896
  145.5152  139.2278  143.2702 H   0  0  0  0  0  0  0  0  0  0  0  0  # atno 7974 bound_to 7965
  156.2244  140.2984  156.0031 H   0  0  0  0  0  0  0  0  0  0  0  0  # atno 8008 bound_to 7997
  155.2395  140.0422  157.2990 H   0  0  0  0  0  0  0  0  0  0  0  0  # atno 8009 bound_to 7997
  154.5892  140.2397  155.7952 H   0  0  0  0  0  0  0  0  0  0  0  0  # atno 8010 bound_to 7997
  140.4827  143.2398  151.8033 H   0  0  0  0  0  0  0  0  0  0  0  0  # atno 10167 bound_to 10162
  157.3177  130.7432  149.6765 H   0  0  0  0  0  0  0  0  0  0  0  0  # atno 10718 bound_to 10713
  154.5056  135.2786  155.1385 H   0  0  0  0  0  0  0  0  0  0  0  0  # atno 10763 bound_to 10752
  154.3000  135.6250  153.5424 H   0  0  0  0  0  0  0  0  0  0  0  0  # atno 10764 bound_to 10752
  152.9910  135.5694  154.5510 H   0  0  0  0  0  0  0  0  0  0  0  0  # atno 10765 bound_to 10752
  140.5353  134.5576  157.5085 H   0  0  0  0  0  0  0  0  0  0  0  0  # atno 11005 bound_to 11000
  146.2141  140.5961  142.9046 LP  0  0  0  0  0  0  0  0  0  0  0  0  # atno 17320 bound_to 7965
  144.7706  140.5628  143.6673 LP  0  0  0  0  0  0  0  0  0  0  0  0  # atno 17321 bound_to 7965
  139.4836  144.4752  151.9376 LP  0  0  0  0  0  0  0  0  0  0  0  0  # atno 17342 bound_to 10162
  140.3838  144.2703  150.5906 LP  0  0  0  0  0  0  0  0  0  0  0  0  # atno 17343 bound_to 10162
  155.9683  130.4232  150.4553 LP  0  0  0  0  0  0  0  0  0  0  0  0  # atno 17370 bound_to 10713
  157.2563  131.0557  151.2348 LP  0  0  0  0  0  0  0  0  0  0  0  0  # atno 17371 bound_to 10713
  139.9533  134.7579  156.0399 LP  0  0  0  0  0  0  0  0  0  0  0  0  # atno 17394 bound_to 11000
  141.1258  133.6599  156.3334 LP  0  0  0  0  0  0  0  0  0  0  0  0  # atno 17395 bound_to 11000

$$$$
