AV-unprocessed.smi:626|AV-procd|sdf|3112|dock3
  -GOLD-   22720 0 33D 1   1.00000     0.00000
 Structure written by MMmdl.
 34 36  0  0  0  0  0  0  0  0  1 V2000
  150.3488  135.1147  154.7499 C   0  0  0  0  0  0  0  0  0  0  0  0
  150.9617  136.3889  154.4081 N   0  0  0  0  0  0  0  0  0  0  0  0
  151.4333  137.2649  155.3078 C   0  0  0  0  0  0  0  0  0  0  0  0
  151.3851  137.0762  156.5236 O   0  0  0  0  0  0  0  0  0  0  0  0
  152.0546  138.5498  154.7551 C   0  0  0  0  0  0  0  0  0  0  0  0
  151.5346  139.7459  155.4865 C   0  0  0  0  0  0  0  0  0  0  0  0
  150.6942  140.5976  154.9103 N   0  0  0  0  0  0  0  0  0  0  0  0
  150.4487  141.5410  155.9180 O   0  0  0  0  0  0  0  0  0  0  0  0
  151.2039  141.1617  156.9777 C   0  0  0  0  0  0  0  0  0  0  0  0
  151.0749  141.9294  158.2583 C   0  0  1  0  0  0  0  0  0  0  0  0
  152.0685  141.4995  159.3580 C   0  0  0  0  0  0  0  0  0  0  0  0
  152.6783  142.8424  159.8033 C   0  0  2  0  0  0  0  0  0  0  0  0
  151.6082  143.6941  160.5145 C   0  0  0  0  0  0  0  0  0  0  0  0
  150.7041  144.1511  159.3516 C   0  0  0  0  0  0  0  0  0  0  0  0
  151.3388  143.4482  158.1363 C   0  0  1  0  0  0  0  0  0  0  0  0
  152.8236  143.5691  158.4724 C   0  0  0  0  0  0  0  0  0  0  0  0
  151.8630  140.0216  156.7787 N   0  0  0  0  0  0  0  0  0  0  0  0
  149.9667  134.6324  153.8503 H   0  0  0  0  0  0  0  0  0  0  0  0
  149.5164  135.2526  155.4413 H   0  0  0  0  0  0  0  0  0  0  0  0
  151.0784  134.4482  155.2114 H   0  0  0  0  0  0  0  0  0  0  0  0
  151.0395  136.6165  153.4272 H   0  0  0  0  0  0  0  0  0  0  0  0
  153.1426  138.5170  154.8313 H   0  0  0  0  0  0  0  0  0  0  0  0
  151.8147  138.6358  153.6945 H   0  0  0  0  0  0  0  0  0  0  0  0
  150.0546  141.7718  158.6118 H   0  0  0  0  0  0  0  0  0  0  0  0
  151.5837  140.9618  160.1735 H   0  0  0  0  0  0  0  0  0  0  0  0
  152.8497  140.8541  158.9531 H   0  0  0  0  0  0  0  0  0  0  0  0
  153.6023  142.7344  160.3720 H   0  0  0  0  0  0  0  0  0  0  0  0
  151.0623  143.1229  161.2663 H   0  0  0  0  0  0  0  0  0  0  0  0
  152.0592  144.5549  161.0098 H   0  0  0  0  0  0  0  0  0  0  0  0
  149.6591  143.8767  159.4999 H   0  0  0  0  0  0  0  0  0  0  0  0
  150.7490  145.2348  159.2362 H   0  0  0  0  0  0  0  0  0  0  0  0
  151.0320  143.8817  157.1835 H   0  0  0  0  0  0  0  0  0  0  0  0
  153.1618  144.6017  158.5772 H   0  0  0  0  0  0  0  0  0  0  0  0
  153.4768  143.0523  157.7677 H   0  0  0  0  0  0  0  0  0  0  0  0
  1  2  1  0  0  0  0
  1 18  1  0  0  0  0
  1 19  1  0  0  0  0
  1 20  1  0  0  0  0
  2  3  1  0  0  0  0
  2 21  1  0  0  0  0
  3  4  2  0  0  0  0
  3  5  1  0  0  0  0
  5  6  1  0  0  0  0
  5 22  1  0  0  0  0
  5 23  1  0  0  0  0
  6 17  1  0  0  0  0
  6  7  2  0  0  0  0
  7  8  1  0  0  0  0
  8  9  1  0  0  0  0
  9 10  1  0  0  0  0
  9 17  2  0  0  0  0
 10 15  1  0  0  0  0
 10 11  1  0  0  0  0
 10 24  1  0  0  0  0
 11 12  1  0  0  0  0
 11 25  1  0  0  0  0
 11 26  1  0  0  0  0
 12 16  1  0  0  0  0
 12 13  1  0  0  0  0
 12 27  1  0  0  0  0
 13 14  1  0  0  0  0
 13 28  1  0  0  0  0
 13 29  1  0  0  0  0
 14 15  1  0  0  0  0
 14 30  1  0  0  0  0
 14 31  1  0  0  0  0
 15 16  1  0  0  0  0
 15 32  1  0  0  0  0
 16 33  1  0  0  0  0
 16 34  1  0  0  0  0
M  END
> <s_m_source_file>
AV-unprocessed.smi

> <i_m_source_file_index>
626

> <i_lp_mmshare_version>
43012

> <i_f3d_flags>
0

> <s_epik_input>
W0NIM11bTkhdQyg9TylbQ0gyXWMxbm9jKG4xKVtDQEhdKFtDSDJdW0NAQEhdMjMpW0NAQEhdKFtDSDJdMylbQ0gyXVtDSDJdMg==

> <s_epik_cmdline>
J2VwaWtfcHl0aG9uJywgJy1waCcsICc3LjAnLCAnLXRuJywgJzgnLCAnLW1hJywgJzIwMCcsICctbWV0YWxfYmluZGluZycsICctaW1hZScsICc8aW5maWxlLm1hZT4nLCAnLW9tYWUnLCAnPG91dGZpbGUubWFlPic=

> <r_lp_tautomer_probability>
1

> <r_epik_Ionization_Penalty>
1.02916e-07

> <r_epik_Ionization_Penalty_Charging>
0

> <r_epik_Ionization_Penalty_Neutral>
1.02916e-07

> <r_epik_State_Penalty>
-0

> <r_epik_Charging_Adjusted_Penalty>
0

> <i_epik_Tot_Q>
0

> <i_epik_Tot_abs_Q>
0

> <r_epik_Metal_State_Penalty>
-0

> <b_epik_Metal_Only>
0

> <s_lp_Force_Field>
OPLS_2005

> <r_lp_Energy>
48.5493

> <b_lp_Chiralities_Consistent>
1

> <s_lp_Variant>
AV-unprocessed.smi:626-4

> <Gold.Version>
5.8.1

> <Gold.Id.Protein>
6NUR|6NUR_protein|mol2

> <Gold.PLP.Fitness>
39.3861

> <Gold.PLP.PLP>
-34.6369

> <Gold.PLP.part.hbond>
-2.5512

> <Gold.PLP.part.metal>
0.0000

> <Gold.PLP.part.buried>
-4.7065

> <Gold.PLP.part.nonpolar>
-28.3798

> <Gold.PLP.part.repulsive>
0.2580

> <Gold.PLP.ligand.clash>
0.0000

> <Gold.PLP.ligand.torsion>
0.4374

> <Gold.PLP.Chemscore.Hbond>
1.8459

> <Gold.PLP.Chemscore.CHOScore>
0.0000

> <Gold.PLP.Chemscore.Metal>
0.0000

> <Gold.Chemscore.Hbonds>
donor molecule, donor type, donor heavy atom, donor atom, acceptor molecule, acceptor atom, score
      L1  H     2    21       P1  7949  0.95
      P1  H  7989  7998       L1     7  0.83

> <Gold.PLP.Chemscore.Internal.Correction>
0.0865

> <Gold.Rescore>
     Score         DG    S(hbond)    S(metal)    S(lipo)     H(rot)  DE(clash)    DE(int)     intcor
     13.64     -15.50       1.29        0.00      84.19       1.61       0.53       1.33       ----

> <Gold.Chemscore.Fitness>
13.6418

> <Gold.Chemscore.DG>
-15.5008

> <Gold.Chemscore.ZeroCoef>
-5.4800

> <Gold.Chemscore.Hbond>
1.2866

> <Gold.Chemscore.Metal>
0.0000

> <Gold.Chemscore.Lipo>
84.1906

> <Gold.Chemscore.Internal_Hbond>
0.0000

> <Gold.Chemscore.DEClash>
0.5274

> <Gold.Chemscore.DEInternal>
1.3317

> <Gold.Chemscore.Rot>
1.6119

> <Gold.Chemscore.Internal.Correction>
   9.000000E+99

> <Gold.Chemscore.Hbonds>
donor molecule, donor type, donor heavy atom, donor atom, acceptor molecule, acceptor atom, score
      L1  H     2    21       P1  7949  0.26
      P1  H  7989  7998       L1     7  0.14

> <Gold.Chemscore.Hbond.Weighted>
-4.2971

> <Gold.Chemscore.Metal.Weighted>
-0.0000

> <Gold.Chemscore.Lipo.Weighted>
-9.8503

> <Gold.Chemscore.Internal_Hbond.Weighted>
0.0000

> <Gold.Chemscore.DEClash.Weighted>
0.5274

> <Gold.Chemscore.DEInternal.Weighted>
1.3317

> <Gold.Chemscore.Rot.Weighted>
4.1266

> <Gold.Chemscore.Internal.Correction.Weighted>
   9.000000E+99

> <Gold.Protein.RotatedTorsions>
[ 6907 6896 6895 6894 ] final  -51.06 input  -60.11 | X-H torsion
[ 7974 7965 7964 7962 ] final   43.14 input  175.53 | X-H torsion
[ 8008 7997 7996 7995 ] final  -29.06 input   59.86 | X-H torsion
[ 10167 10162 10161 10158 ] final -139.11 input  -65.29 | X-H torsion
[ 10718 10713 10712 10709 ] final  124.01 input   66.30 | X-H torsion
[ 10763 10752 10751 10750 ] final   20.33 input  -60.55 | X-H torsion
[ 11005 11000 10999 10996 ] final   52.64 input  -57.11 | X-H torsion

> <Gold.Protein.ActiveResidues>
 VAL166  LYS551  ARG553  GLY616  TRP617  ASP618  TYR619  PRO620  LYS621  CYS622 
 ASP623  PHE694  ASN695  SER759  ASP760  ASP761  ALA762  ILE779  LEU786  VAL792 
 PHE793  MET794  SER795  GLU796  ALA797  LYS798  CYS799  TRP800  GLU811  SER814 

> <Gold.Protein.RotatedAtoms>
  150.8647  134.8008  159.7109 H   0  0  0  0  0  0  0  0  0  0  0  0  # atno 6907 bound_to 6896
  152.4673  134.5042  159.9744 H   0  0  0  0  0  0  0  0  0  0  0  0  # atno 6908 bound_to 6896
  151.5141  133.3441  159.2925 H   0  0  0  0  0  0  0  0  0  0  0  0  # atno 6909 bound_to 6896
  146.0681  139.5220  142.9615 H   0  0  0  0  0  0  0  0  0  0  0  0  # atno 7974 bound_to 7965
  154.4306  140.1828  156.1188 H   0  0  0  0  0  0  0  0  0  0  0  0  # atno 8008 bound_to 7997
  156.0159  140.3346  155.6963 H   0  0  0  0  0  0  0  0  0  0  0  0  # atno 8009 bound_to 7997
  155.6044  140.0643  157.2714 H   0  0  0  0  0  0  0  0  0  0  0  0  # atno 8010 bound_to 7997
  139.8412  143.7319  152.2663 H   0  0  0  0  0  0  0  0  0  0  0  0  # atno 10167 bound_to 10162
  157.5619  131.1089  150.8523 H   0  0  0  0  0  0  0  0  0  0  0  0  # atno 10718 bound_to 10713
  153.1086  135.6691  153.9540 H   0  0  0  0  0  0  0  0  0  0  0  0  # atno 10763 bound_to 10752
  153.9090  135.3027  155.3450 H   0  0  0  0  0  0  0  0  0  0  0  0  # atno 10764 bound_to 10752
  154.7507  135.5036  153.9360 H   0  0  0  0  0  0  0  0  0  0  0  0  # atno 10765 bound_to 10752
  140.0833  134.5309  155.8925 H   0  0  0  0  0  0  0  0  0  0  0  0  # atno 11005 bound_to 11000
  145.6441  141.0278  143.1796 LP  0  0  0  0  0  0  0  0  0  0  0  0  # atno 17320 bound_to 7965
  144.7214  139.8016  143.7380 LP  0  0  0  0  0  0  0  0  0  0  0  0  # atno 17321 bound_to 7965
  139.7557  144.7521  151.0439 LP  0  0  0  0  0  0  0  0  0  0  0  0  # atno 17342 bound_to 10162
  140.7798  143.4808  151.0020 LP  0  0  0  0  0  0  0  0  0  0  0  0  # atno 17343 bound_to 10162
  156.9018  130.5249  149.5282 LP  0  0  0  0  0  0  0  0  0  0  0  0  # atno 17370 bound_to 10713
  156.0671  130.5712  150.9310 LP  0  0  0  0  0  0  0  0  0  0  0  0  # atno 17371 bound_to 10713
  141.2054  133.6646  156.6178 LP  0  0  0  0  0  0  0  0  0  0  0  0  # atno 17394 bound_to 11000
  140.3457  134.7811  157.4430 LP  0  0  0  0  0  0  0  0  0  0  0  0  # atno 17395 bound_to 11000

$$$$
