AV-unprocessed.smi:3352|AV-procd|sdf|12952|dock5
  -GOLD-   2272019393D 1   1.00000     0.00000
 Structure written by MMmdl.
 38 39  0  0  0  0  0  0  0  0  1 V2000
  151.3399  145.3996  159.7799 C   0  0  0  0  0  0  0  0  0  0  0  0
  152.1222  144.2497  159.1289 C   0  0  0  0  0  0  0  0  0  0  0  0
  151.2796  143.4704  158.1092 C   0  0  0  0  0  0  0  0  0  0  0  0
  152.7367  143.3429  160.1495 C   0  0  0  0  0  0  0  0  0  0  0  0
  153.5004  142.2932  159.8331 N   0  0  0  0  0  0  0  0  0  0  0  0
  153.9568  141.5957  160.9568 C   0  0  0  0  0  0  0  0  0  0  0  0
  154.8334  140.3894  160.7868 C   0  0  0  0  0  0  0  0  0  0  0  0
  153.9931  139.1817  160.3700 C   0  0  0  0  0  0  0  0  0  0  0  0
  154.1569  138.0968  160.9282 O   0  0  0  0  0  0  0  0  0  0  0  0
  153.0984  139.3846  159.3902 N   0  0  0  0  0  0  0  0  0  0  0  0
  152.1970  138.3737  158.8499 C   0  0  0  0  0  0  0  0  0  0  0  0
  152.4784  138.1010  157.3630 C   0  0  1  0  0  0  0  0  0  0  0  0
  151.4919  137.1244  156.7242 C   0  0  0  0  0  0  0  0  0  0  0  0
  151.5780  137.5116  155.2659 C   0  0  0  0  0  0  0  0  0  0  0  0
  151.6987  139.0294  155.3572 C   0  0  0  0  0  0  0  0  0  0  0  0
  152.3638  139.2942  156.5895 O   0  0  0  0  0  0  0  0  0  0  0  0
  153.5148  142.1315  162.1412 C   0  0  0  0  0  0  0  0  0  0  0  0
  152.5150  143.5346  161.8873 S   0  0  0  0  0  0  0  0  0  0  0  0
  151.9779  145.9783  160.4488 H   0  0  0  0  0  0  0  0  0  0  0  0
  150.4955  145.0289  160.3618 H   0  0  0  0  0  0  0  0  0  0  0  0
  150.9473  146.0825  159.0260 H   0  0  0  0  0  0  0  0  0  0  0  0
  152.9434  144.7057  158.5735 H   0  0  0  0  0  0  0  0  0  0  0  0
  151.8773  142.7077  157.6089 H   0  0  0  0  0  0  0  0  0  0  0  0
  150.8815  144.1335  157.3409 H   0  0  0  0  0  0  0  0  0  0  0  0
  150.4356  142.9725  158.5875 H   0  0  0  0  0  0  0  0  0  0  0  0
  155.5959  140.5739  160.0289 H   0  0  0  0  0  0  0  0  0  0  0  0
  155.3684  140.1607  161.7098 H   0  0  0  0  0  0  0  0  0  0  0  0
  153.0380  140.3099  158.9901 H   0  0  0  0  0  0  0  0  0  0  0  0
  152.3514  137.4591  159.4228 H   0  0  0  0  0  0  0  0  0  0  0  0
  151.1546  138.6594  159.0009 H   0  0  0  0  0  0  0  0  0  0  0  0
  153.4911  137.7149  157.2346 H   0  0  0  0  0  0  0  0  0  0  0  0
  151.7484  136.0803  156.9063 H   0  0  0  0  0  0  0  0  0  0  0  0
  150.4807  137.2984  157.0955 H   0  0  0  0  0  0  0  0  0  0  0  0
  152.4779  137.0877  154.8181 H   0  0  0  0  0  0  0  0  0  0  0  0
  150.7169  137.1861  154.6817 H   0  0  0  0  0  0  0  0  0  0  0  0
  152.2396  139.4553  154.5121 H   0  0  0  0  0  0  0  0  0  0  0  0
  150.7102  139.4888  155.3935 H   0  0  0  0  0  0  0  0  0  0  0  0
  153.7190  141.7872  163.1444 H   0  0  0  0  0  0  0  0  0  0  0  0
  1  2  1  0  0  0  0
  1 19  1  0  0  0  0
  1 20  1  0  0  0  0
  1 21  1  0  0  0  0
  2  3  1  0  0  0  0
  2  4  1  0  0  0  0
  2 22  1  0  0  0  0
  3 23  1  0  0  0  0
  3 24  1  0  0  0  0
  3 25  1  0  0  0  0
  4 18  1  0  0  0  0
  4  5  2  0  0  0  0
  5  6  1  0  0  0  0
  6  7  1  0  0  0  0
  6 17  2  0  0  0  0
  7  8  1  0  0  0  0
  7 26  1  0  0  0  0
  7 27  1  0  0  0  0
  8  9  2  0  0  0  0
  8 10  1  0  0  0  0
 10 11  1  0  0  0  0
 10 28  1  0  0  0  0
 11 12  1  0  0  0  0
 11 29  1  0  0  0  0
 11 30  1  0  0  0  0
 12 16  1  0  0  0  0
 12 13  1  0  0  0  0
 12 31  1  0  0  0  0
 13 14  1  0  0  0  0
 13 32  1  0  0  0  0
 13 33  1  0  0  0  0
 14 15  1  0  0  0  0
 14 34  1  0  0  0  0
 14 35  1  0  0  0  0
 15 16  1  0  0  0  0
 15 36  1  0  0  0  0
 15 37  1  0  0  0  0
 17 18  1  0  0  0  0
 17 38  1  0  0  0  0
M  END
> <s_m_source_file>
AV-unprocessed.smi

> <i_m_source_file_index>
3352

> <i_lp_mmshare_version>
43012

> <i_f3d_flags>
0

> <s_epik_input>
W0NIM11bQ0hdKFtDSDNdKWMxbmMoW2NIXXMxKVtDSDJdQyg9TylbTkhdW0NIMl1bQ0BASF0yW0NIMl1bQ0gyXVtDSDJdTzI=

> <s_epik_cmdline>
J2VwaWtfcHl0aG9uJywgJy1waCcsICc3LjAnLCAnLXRuJywgJzgnLCAnLW1hJywgJzIwMCcsICctbWV0YWxfYmluZGluZycsICctaW1hZScsICc8aW5maWxlLm1hZT4nLCAnLW9tYWUnLCAnPG91dGZpbGUubWFlPic=

> <r_lp_tautomer_probability>
1

> <r_epik_Ionization_Penalty>
4.66014e-05

> <r_epik_Ionization_Penalty_Charging>
0

> <r_epik_Ionization_Penalty_Neutral>
4.66014e-05

> <r_epik_State_Penalty>
-0

> <r_epik_Charging_Adjusted_Penalty>
0

> <i_epik_Tot_Q>
0

> <i_epik_Tot_abs_Q>
0

> <r_epik_Metal_State_Penalty>
-0

> <b_epik_Metal_Only>
0

> <s_lp_Force_Field>
OPLS_2005

> <r_lp_Energy>
9.02769

> <b_lp_Chiralities_Consistent>
1

> <s_lp_Variant>
AV-unprocessed.smi:3352-2

> <Gold.Version>
5.8.1

> <Gold.Id.Protein>
6NUR|6NUR_protein|mol2

> <Gold.PLP.Fitness>
46.0124

> <Gold.PLP.PLP>
-43.8178

> <Gold.PLP.part.hbond>
-1.0000

> <Gold.PLP.part.metal>
0.0000

> <Gold.PLP.part.buried>
-4.3736

> <Gold.PLP.part.nonpolar>
-38.5958

> <Gold.PLP.part.repulsive>
0.0933

> <Gold.PLP.ligand.clash>
0.0000

> <Gold.PLP.ligand.torsion>
0.4367

> <Gold.PLP.Chemscore.Hbond>
1.0000

> <Gold.PLP.Chemscore.CHOScore>
0.0000

> <Gold.PLP.Chemscore.Metal>
0.0000

> <Gold.Chemscore.Hbonds>
donor molecule, donor type, donor heavy atom, donor atom, acceptor molecule, acceptor atom, score
      P1  H  7997  8009       L1    16  0.67

> <Gold.PLP.Chemscore.Internal.Correction>
0.0680

> <Gold.Rescore>
     Score         DG    S(hbond)    S(metal)    S(lipo)     H(rot)  DE(clash)    DE(int)     intcor
     18.43     -18.95       0.92        0.00     122.78       1.55       0.02       0.50       ----

> <Gold.Chemscore.Fitness>
18.4313

> <Gold.Chemscore.DG>
-18.9524

> <Gold.Chemscore.ZeroCoef>
-5.4800

> <Gold.Chemscore.Hbond>
0.9220

> <Gold.Chemscore.Metal>
0.0000

> <Gold.Chemscore.Lipo>
122.7833

> <Gold.Chemscore.Internal_Hbond>
0.0000

> <Gold.Chemscore.DEClash>
0.0216

> <Gold.Chemscore.DEInternal>
0.4994

> <Gold.Chemscore.Rot>
1.5518

> <Gold.Chemscore.Internal.Correction>
   9.000000E+99

> <Gold.Chemscore.Hbonds>
donor molecule, donor type, donor heavy atom, donor atom, acceptor molecule, acceptor atom, score
      P1  H  7997  8009       L1    16  0.38

> <Gold.Chemscore.Hbond.Weighted>
-3.0794

> <Gold.Chemscore.Metal.Weighted>
-0.0000

> <Gold.Chemscore.Lipo.Weighted>
-14.3656

> <Gold.Chemscore.Internal_Hbond.Weighted>
0.0000

> <Gold.Chemscore.DEClash.Weighted>
0.0216

> <Gold.Chemscore.DEInternal.Weighted>
0.4994

> <Gold.Chemscore.Rot.Weighted>
3.9727

> <Gold.Chemscore.Internal.Correction.Weighted>
   9.000000E+99

> <Gold.Protein.RotatedTorsions>
[ 6907 6896 6895 6894 ] final   -5.37 input  -60.11 | X-H torsion
[ 7974 7965 7964 7962 ] final -121.77 input  175.53 | X-H torsion
[ 8008 7997 7996 7995 ] final -159.16 input   59.86 | X-H torsion
[ 10167 10162 10161 10158 ] final  -10.87 input  -65.29 | X-H torsion
[ 10718 10713 10712 10709 ] final  168.23 input   66.30 | X-H torsion
[ 10763 10752 10751 10750 ] final -103.17 input  -60.55 | X-H torsion
[ 11005 11000 10999 10996 ] final   73.12 input  -57.11 | X-H torsion

> <Gold.Protein.ActiveResidues>
 VAL166  LYS551  ARG553  GLY616  TRP617  ASP618  TYR619  PRO620  LYS621  CYS622 
 ASP623  PHE694  ASN695  SER759  ASP760  ASP761  ALA762  ILE779  LEU786  VAL792 
 PHE793  MET794  SER795  GLU796  ALA797  LYS798  CYS799  TRP800  GLU811  SER814 

> <Gold.Protein.RotatedAtoms>
  151.4826  135.1053  159.9781 H   0  0  0  0  0  0  0  0  0  0  0  0  # atno 6907 bound_to 6896
  152.4773  133.8165  159.7041 H   0  0  0  0  0  0  0  0  0  0  0  0  # atno 6908 bound_to 6896
  150.8820  133.7298  159.2956 H   0  0  0  0  0  0  0  0  0  0  0  0  # atno 6909 bound_to 6896
  145.0367  140.8111  143.4291 H   0  0  0  0  0  0  0  0  0  0  0  0  # atno 7974 bound_to 7965
  155.7584  140.0836  157.2167 H   0  0  0  0  0  0  0  0  0  0  0  0  # atno 8008 bound_to 7997
  154.4005  140.1547  156.2860 H   0  0  0  0  0  0  0  0  0  0  0  0  # atno 8009 bound_to 7997
  155.8863  140.3418  155.5926 H   0  0  0  0  0  0  0  0  0  0  0  0  # atno 8010 bound_to 7997
  140.7124  143.5701  150.9101 H   0  0  0  0  0  0  0  0  0  0  0  0  # atno 10167 bound_to 10162
  157.0401  131.0284  151.2716 H   0  0  0  0  0  0  0  0  0  0  0  0  # atno 10718 bound_to 10713
  154.7788  135.4833  153.9800 H   0  0  0  0  0  0  0  0  0  0  0  0  # atno 10763 bound_to 10752
  153.1465  135.6783  153.8955 H   0  0  0  0  0  0  0  0  0  0  0  0  # atno 10764 bound_to 10752
  153.8612  135.3155  155.3416 H   0  0  0  0  0  0  0  0  0  0  0  0  # atno 10765 bound_to 10752
  139.9456  134.7319  156.0989 H   0  0  0  0  0  0  0  0  0  0  0  0  # atno 11005 bound_to 11000
  145.1701  139.2409  143.5346 LP  0  0  0  0  0  0  0  0  0  0  0  0  # atno 17320 bound_to 7965
  146.3505  140.1449  142.8593 LP  0  0  0  0  0  0  0  0  0  0  0  0  # atno 17321 bound_to 7965
  139.9427  143.6363  152.3049 LP  0  0  0  0  0  0  0  0  0  0  0  0  # atno 17342 bound_to 10162
  139.6853  144.7652  151.1534 LP  0  0  0  0  0  0  0  0  0  0  0  0  # atno 17343 bound_to 10162
  157.5111  130.7939  149.7706 LP  0  0  0  0  0  0  0  0  0  0  0  0  # atno 17370 bound_to 10713
  156.0041  130.3865  150.2497 LP  0  0  0  0  0  0  0  0  0  0  0  0  # atno 17371 bound_to 10713
  141.1105  133.6645  156.2967 LP  0  0  0  0  0  0  0  0  0  0  0  0  # atno 17394 bound_to 11000
  140.5844  134.5714  157.5486 LP  0  0  0  0  0  0  0  0  0  0  0  0  # atno 17395 bound_to 11000

$$$$
