AV-unprocessed.smi:2390|AV-procd|sdf|9475|dock1
  -GOLD-   2272013103D 1   1.00000     0.00000
 Structure written by MMmdl.
 45 46  0  0  0  0  0  0  0  0  1 V2000
  153.8265  141.3291  159.8536 C   0  0  0  0  0  0  0  0  0  0  0  0
  152.9177  142.4435  159.3792 C   0  0  0  0  0  0  0  0  0  0  0  0
  153.0224  143.7417  159.9157 C   0  0  0  0  0  0  0  0  0  0  0  0
  152.1513  144.7324  159.4288 C   0  0  0  0  0  0  0  0  0  0  0  0
  151.2193  144.3873  158.4312 C   0  0  0  0  0  0  0  0  0  0  0  0
  151.1800  143.0608  157.9455 C   0  0  0  0  0  0  0  0  0  0  0  0
  150.2121  142.8179  156.9351 N   0  0  0  0  0  0  0  0  0  0  0  0
  150.1323  141.7715  156.0944 C   0  0  0  0  0  0  0  0  0  0  0  0
  150.8820  140.7946  156.0977 O   0  0  0  0  0  0  0  0  0  0  0  0
  149.1112  141.9182  155.2372 N   0  0  0  0  0  0  0  0  0  0  0  0
  148.7358  140.9680  154.1906 C   0  0  2  0  0  0  0  0  0  0  0  0
  147.5072  141.5148  153.4424 C   0  0  0  0  0  0  0  0  0  0  0  0
  148.5262  139.5262  154.7589 C   0  0  1  0  0  0  0  0  0  0  0  0
  147.5708  138.7264  153.8344 C   0  0  0  0  0  0  0  0  0  0  0  0
  149.7894  138.8057  155.0482 N   0  0  0  0  0  0  0  0  0  0  0  0
  149.5830  137.3778  155.3170 C   0  0  0  0  0  0  0  0  0  0  0  0
  150.8972  136.6278  155.5961 C   0  0  0  0  0  0  0  0  0  0  0  0
  151.7912  136.7988  154.5048 O   0  0  0  0  0  0  0  0  0  0  0  0
  152.0776  138.1685  154.2591 C   0  0  0  0  0  0  0  0  0  0  0  0
  150.7705  138.9241  153.9640 C   0  0  0  0  0  0  0  0  0  0  0  0
  152.0240  142.1122  158.4224 N   0  0  0  0  0  0  0  0  0  0  0  0
  154.3595  141.6135  160.7612 H   0  0  0  0  0  0  0  0  0  0  0  0
  154.5624  141.0904  159.0855 H   0  0  0  0  0  0  0  0  0  0  0  0
  153.2491  140.4292  160.0681 H   0  0  0  0  0  0  0  0  0  0  0  0
  153.7501  143.9751  160.6791 H   0  0  0  0  0  0  0  0  0  0  0  0
  152.1973  145.7409  159.8123 H   0  0  0  0  0  0  0  0  0  0  0  0
  150.5440  145.1372  158.0449 H   0  0  0  0  0  0  0  0  0  0  0  0
  149.5079  143.5329  156.8287 H   0  0  0  0  0  0  0  0  0  0  0  0
  148.5468  142.7517  155.3113 H   0  0  0  0  0  0  0  0  0  0  0  0
  149.5665  140.9699  153.4860 H   0  0  0  0  0  0  0  0  0  0  0  0
  147.2189  140.8600  152.6200 H   0  0  0  0  0  0  0  0  0  0  0  0
  147.7170  142.4958  153.0152 H   0  0  0  0  0  0  0  0  0  0  0  0
  146.6452  141.6222  154.1012 H   0  0  0  0  0  0  0  0  0  0  0  0
  147.9987  139.6434  155.7070 H   0  0  0  0  0  0  0  0  0  0  0  0
  146.6881  139.2969  153.5486 H   0  0  0  0  0  0  0  0  0  0  0  0
  147.1866  137.8325  154.3243 H   0  0  0  0  0  0  0  0  0  0  0  0
  148.0706  138.4145  152.9171 H   0  0  0  0  0  0  0  0  0  0  0  0
  148.9489  137.2358  156.1896 H   0  0  0  0  0  0  0  0  0  0  0  0
  149.0716  136.9123  154.4730 H   0  0  0  0  0  0  0  0  0  0  0  0
  151.3596  136.9900  156.5157 H   0  0  0  0  0  0  0  0  0  0  0  0
  150.7035  135.5638  155.7330 H   0  0  0  0  0  0  0  0  0  0  0  0
  152.5898  138.6023  155.1196 H   0  0  0  0  0  0  0  0  0  0  0  0
  152.7583  138.2428  153.4110 H   0  0  0  0  0  0  0  0  0  0  0  0
  150.3398  138.5520  153.0332 H   0  0  0  0  0  0  0  0  0  0  0  0
  151.0345  139.9671  153.7973 H   0  0  0  0  0  0  0  0  0  0  0  0
  1  2  1  0  0  0  0
  1 22  1  0  0  0  0
  1 23  1  0  0  0  0
  1 24  1  0  0  0  0
  2 21  1  0  0  0  0
  2  3  2  0  0  0  0
  3  4  1  0  0  0  0
  3 25  1  0  0  0  0
  4  5  2  0  0  0  0
  4 26  1  0  0  0  0
  5  6  1  0  0  0  0
  5 27  1  0  0  0  0
  6  7  1  0  0  0  0
  6 21  2  0  0  0  0
  7  8  1  0  0  0  0
  7 28  1  0  0  0  0
  8  9  2  0  0  0  0
  8 10  1  0  0  0  0
 10 11  1  0  0  0  0
 10 29  1  0  0  0  0
 11 12  1  0  0  0  0
 11 13  1  0  0  0  0
 11 30  1  0  0  0  0
 12 31  1  0  0  0  0
 12 32  1  0  0  0  0
 12 33  1  0  0  0  0
 13 14  1  0  0  0  0
 13 15  1  0  0  0  0
 13 34  1  0  0  0  0
 14 35  1  0  0  0  0
 14 36  1  0  0  0  0
 14 37  1  0  0  0  0
 15 20  1  0  0  0  0
 15 16  1  0  0  0  0
 16 17  1  0  0  0  0
 16 38  1  0  0  0  0
 16 39  1  0  0  0  0
 17 18  1  0  0  0  0
 17 40  1  0  0  0  0
 17 41  1  0  0  0  0
 18 19  1  0  0  0  0
 19 20  1  0  0  0  0
 19 42  1  0  0  0  0
 19 43  1  0  0  0  0
 20 44  1  0  0  0  0
 20 45  1  0  0  0  0
M  END
> <s_m_source_file>
AV-unprocessed.smi

> <i_m_source_file_index>
2390

> <i_lp_mmshare_version>
43012

> <i_f3d_flags>
0

> <s_epik_input>
W0NIM11jMVtjSF1bY0hdW2NIXWMobjEpW05IXUMoPU8pW05IXVtDQEhdKFtDSDNdKVtDQEhdKFtDSDNdKU4yW0NIMl1bQ0gyXU9bQ0gyXVtDSDJdMg==

> <s_epik_cmdline>
J2VwaWtfcHl0aG9uJywgJy1waCcsICc3LjAnLCAnLXRuJywgJzgnLCAnLW1hJywgJzIwMCcsICctbWV0YWxfYmluZGluZycsICctaW1hZScsICc8aW5maWxlLm1hZT4nLCAnLW9tYWUnLCAnPG91dGZpbGUubWFlPic=

> <r_epik_Ionization_Penalty>
0.266074

> <r_epik_Ionization_Penalty_Charging>
0

> <r_epik_Ionization_Penalty_Neutral>
0.266074

> <r_epik_State_Penalty>
0.257924

> <r_epik_Charging_Adjusted_Penalty>
0.257924

> <i_epik_Tot_Q>
0

> <i_epik_Tot_abs_Q>
0

> <r_epik_Metal_State_Penalty>
0.257919

> <b_epik_Metal_Only>
0

> <s_lp_Force_Field>
OPLS_2005

> <r_lp_Energy>
33.31

> <b_lp_Chiralities_Consistent>
1

> <s_lp_Variant>
AV-unprocessed.smi:2390-3

> <Gold.Version>
5.8.1

> <Gold.Id.Protein>
6NUR|6NUR_protein|mol2

> <Gold.PLP.Fitness>
49.5706

> <Gold.PLP.PLP>
-42.5330

> <Gold.PLP.part.hbond>
-3.0000

> <Gold.PLP.part.metal>
0.0000

> <Gold.PLP.part.buried>
-7.1045

> <Gold.PLP.part.nonpolar>
-33.2490

> <Gold.PLP.part.repulsive>
0.4634

> <Gold.PLP.ligand.clash>
0.0000

> <Gold.PLP.ligand.torsion>
0.8054

> <Gold.PLP.Chemscore.Hbond>
2.8320

> <Gold.PLP.Chemscore.CHOScore>
0.0000

> <Gold.PLP.Chemscore.Metal>
0.0000

> <Gold.Chemscore.Hbonds>
donor molecule, donor type, donor heavy atom, donor atom, acceptor molecule, acceptor atom, score
      L1  H     7    28       P1  8028  0.85
      L1  H    10    29       P1  8028  0.74
      P1  H 10752 10765       L1    18  0.90

> <Gold.PLP.Chemscore.Internal.Correction>
0.1525

> <Gold.Rescore>
     Score         DG    S(hbond)    S(metal)    S(lipo)     H(rot)  DE(clash)    DE(int)     intcor
     16.64     -23.23       2.66        0.00     107.25       1.44       0.48       6.11       ----

> <Gold.Chemscore.Fitness>
16.6376

> <Gold.Chemscore.DG>
-23.2312

> <Gold.Chemscore.ZeroCoef>
-5.4800

> <Gold.Chemscore.Hbond>
2.6612

> <Gold.Chemscore.Metal>
0.0000

> <Gold.Chemscore.Lipo>
107.2503

> <Gold.Chemscore.Internal_Hbond>
0.0000

> <Gold.Chemscore.DEClash>
0.4808

> <Gold.Chemscore.DEInternal>
6.1128

> <Gold.Chemscore.Rot>
1.4396

> <Gold.Chemscore.Internal.Correction>
   9.000000E+99

> <Gold.Chemscore.Hbonds>
donor molecule, donor type, donor heavy atom, donor atom, acceptor molecule, acceptor atom, score
      L1  H     7    28       P1  8028  0.83
      L1  H    10    29       P1  8028  0.70
      P1  H 10752 10765       L1    18  0.44

> <Gold.Chemscore.Hbond.Weighted>
-8.8884

> <Gold.Chemscore.Metal.Weighted>
-0.0000

> <Gold.Chemscore.Lipo.Weighted>
-12.5483

> <Gold.Chemscore.Internal_Hbond.Weighted>
0.0000

> <Gold.Chemscore.DEClash.Weighted>
0.4808

> <Gold.Chemscore.DEInternal.Weighted>
6.1128

> <Gold.Chemscore.Rot.Weighted>
3.6855

> <Gold.Chemscore.Internal.Correction.Weighted>
   9.000000E+99

> <Gold.Protein.RotatedTorsions>
[ 6907 6896 6895 6894 ] final  -87.89 input  -60.11 | X-H torsion
[ 7974 7965 7964 7962 ] final    1.67 input  175.53 | X-H torsion
[ 8008 7997 7996 7995 ] final  -16.00 input   59.86 | X-H torsion
[ 10167 10162 10161 10158 ] final  -75.94 input  -65.29 | X-H torsion
[ 10718 10713 10712 10709 ] final  -34.24 input   66.30 | X-H torsion
[ 10763 10752 10751 10750 ] final -172.24 input  -60.55 | X-H torsion
[ 11005 11000 10999 10996 ] final  -16.74 input  -57.11 | X-H torsion

> <Gold.Protein.ActiveResidues>
 VAL166  LYS551  ARG553  GLY616  TRP617  ASP618  TYR619  PRO620  LYS621  CYS622 
 ASP623  PHE694  ASN695  SER759  ASP760  ASP761  ALA762  ILE779  LEU786  VAL792 
 PHE793  MET794  SER795  GLU796  ALA797  LYS798  CYS799  TRP800  GLU811  SER814 

> <Gold.Protein.RotatedAtoms>
  150.6867  134.2826  159.4633 H   0  0  0  0  0  0  0  0  0  0  0  0  # atno 6907 bound_to 6896
  152.0738  134.9513  160.0583 H   0  0  0  0  0  0  0  0  0  0  0  0  # atno 6908 bound_to 6896
  152.0893  133.4157  159.4573 H   0  0  0  0  0  0  0  0  0  0  0  0  # atno 6909 bound_to 6896
  146.2441  140.0952  142.8350 H   0  0  0  0  0  0  0  0  0  0  0  0  # atno 7974 bound_to 7965
  154.5087  140.2181  155.9199 H   0  0  0  0  0  0  0  0  0  0  0  0  # atno 8008 bound_to 7997
  156.1525  140.3158  155.8638 H   0  0  0  0  0  0  0  0  0  0  0  0  # atno 8009 bound_to 7997
  155.3910  140.0478  157.3031 H   0  0  0  0  0  0  0  0  0  0  0  0  # atno 8010 bound_to 7997
  140.4899  143.2382  151.7923 H   0  0  0  0  0  0  0  0  0  0  0  0  # atno 10167 bound_to 10162
  156.3529  130.4311  149.7689 H   0  0  0  0  0  0  0  0  0  0  0  0  # atno 10718 bound_to 10713
  154.6215  135.2876  155.0320 H   0  0  0  0  0  0  0  0  0  0  0  0  # atno 10763 bound_to 10752
  154.1513  135.6503  153.4968 H   0  0  0  0  0  0  0  0  0  0  0  0  # atno 10764 bound_to 10752
  153.0238  135.5356  154.7007 H   0  0  0  0  0  0  0  0  0  0  0  0  # atno 10765 bound_to 10752
  140.8098  133.8149  155.9552 H   0  0  0  0  0  0  0  0  0  0  0  0  # atno 11005 bound_to 11000
  145.0616  140.9092  143.4935 LP  0  0  0  0  0  0  0  0  0  0  0  0  # atno 17320 bound_to 7965
  145.1068  139.2784  143.5658 LP  0  0  0  0  0  0  0  0  0  0  0  0  # atno 17321 bound_to 7965
  139.4849  144.4662  151.9481 LP  0  0  0  0  0  0  0  0  0  0  0  0  # atno 17342 bound_to 10162
  140.3749  144.2809  150.5915 LP  0  0  0  0  0  0  0  0  0  0  0  0  # atno 17343 bound_to 10162
  156.4882  130.8073  151.3084 LP  0  0  0  0  0  0  0  0  0  0  0  0  # atno 17370 bound_to 10713
  157.7463  130.9984  150.2850 LP  0  0  0  0  0  0  0  0  0  0  0  0  # atno 17371 bound_to 10713
  140.9210  134.2142  157.4927 LP  0  0  0  0  0  0  0  0  0  0  0  0  # atno 17394 bound_to 11000
  139.8715  134.9792  156.5027 LP  0  0  0  0  0  0  0  0  0  0  0  0  # atno 17395 bound_to 11000

$$$$
