AV-unprocessed.smi:3076|AV-procd|sdf|11727|dock8
  -GOLD-   2272017123D 1   1.00000     0.00000
 Structure written by MMmdl.
 20 20  0  0  0  0  0  0  0  0  1 V2000
  148.1535  138.5531  153.0791 N   0  0  0  0  0  0  0  0  0  0  0  0
  148.9721  138.7593  154.2837 C   0  0  0  0  0  0  0  0  0  0  0  0
  149.2955  140.2415  154.5398 C   0  0  2  0  0  0  0  0  0  0  0  0
  149.7758  140.8076  153.3364 O   0  0  0  0  0  0  0  0  0  0  0  0
  150.3113  140.3893  155.6614 C   0  0  0  0  0  0  0  0  0  0  0  0
  150.0272  141.1531  156.8146 C   0  0  0  0  0  0  0  0  0  0  0  0
  151.0105  141.2657  157.8161 C   0  0  0  0  0  0  0  0  0  0  0  0
  152.2424  140.6100  157.6231 C   0  0  0  0  0  0  0  0  0  0  0  0
  152.5284  139.8790  156.5244 N   0  0  0  0  0  0  0  0  0  0  0  0
  151.5798  139.7763  155.5686 C   0  0  0  0  0  0  0  0  0  0  0  0
  148.5320  139.0843  152.2962 H   0  0  0  0  0  0  0  0  0  0  0  0
  148.1612  137.5713  152.8067 H   0  0  0  0  0  0  0  0  0  0  0  0
  148.4201  138.3710  155.1402 H   0  0  0  0  0  0  0  0  0  0  0  0
  149.8904  138.1738  154.2263 H   0  0  0  0  0  0  0  0  0  0  0  0
  148.3854  140.7730  154.8225 H   0  0  0  0  0  0  0  0  0  0  0  0
  149.7498  140.1462  152.6621 H   0  0  0  0  0  0  0  0  0  0  0  0
  149.0736  141.6474  156.9305 H   0  0  0  0  0  0  0  0  0  0  0  0
  150.8257  141.8425  158.7101 H   0  0  0  0  0  0  0  0  0  0  0  0
  153.0194  140.6762  158.3701 H   0  0  0  0  0  0  0  0  0  0  0  0
  151.8450  139.1877  154.7025 H   0  0  0  0  0  0  0  0  0  0  0  0
  1  2  1  0  0  0  0
  1 11  1  0  0  0  0
  1 12  1  0  0  0  0
  2  3  1  0  0  0  0
  2 13  1  0  0  0  0
  2 14  1  0  0  0  0
  3  4  1  0  0  0  0
  3  5  1  0  0  0  0
  3 15  1  0  0  0  0
  4 16  1  0  0  0  0
  5 10  1  0  0  0  0
  5  6  2  0  0  0  0
  6  7  1  0  0  0  0
  6 17  1  0  0  0  0
  7  8  2  0  0  0  0
  7 18  1  0  0  0  0
  8  9  1  0  0  0  0
  8 19  1  0  0  0  0
  9 10  2  0  0  0  0
 10 20  1  0  0  0  0
M  END
> <s_m_source_file>
AV-unprocessed.smi

> <i_m_source_file_index>
3076

> <i_lp_mmshare_version>
43012

> <i_f3d_flags>
0

> <s_epik_input>
W05IMl1bQ0gyXVtDQEhdKFtPSF0pYzFbY0hdW2NIXVtjSF1uW2NIXTE=

> <s_epik_cmdline>
J2VwaWtfcHl0aG9uJywgJy1waCcsICc3LjAnLCAnLXRuJywgJzgnLCAnLW1hJywgJzIwMCcsICctbWV0YWxfYmluZGluZycsICctaW1hZScsICc8aW5maWxlLm1hZT4nLCAnLW9tYWUnLCAnPG91dGZpbGUubWFlPic=

> <r_epik_Ionization_Penalty>
2.22627

> <r_epik_Ionization_Penalty_Charging>
0

> <r_epik_Ionization_Penalty_Neutral>
2.22627

> <r_epik_State_Penalty>
2.36938

> <r_epik_Charging_Adjusted_Penalty>
2.36938

> <i_epik_Tot_Q>
0

> <i_epik_Tot_abs_Q>
0

> <r_epik_Metal_State_Penalty>
2.36785

> <b_epik_Metal_Only>
0

> <s_lp_Force_Field>
OPLS_2005

> <r_lp_Energy>
11.5599

> <b_lp_Chiralities_Consistent>
1

> <s_lp_Variant>
AV-unprocessed.smi:3076-3

> <Gold.Version>
5.8.1

> <Gold.Id.Protein>
6NUR|6NUR_protein|mol2

> <Gold.PLP.Fitness>
35.7768

> <Gold.PLP.PLP>
-20.8007

> <Gold.PLP.part.hbond>
-4.9581

> <Gold.PLP.part.metal>
0.0000

> <Gold.PLP.part.buried>
-1.2131

> <Gold.PLP.part.nonpolar>
-13.3777

> <Gold.PLP.part.repulsive>
0.0000

> <Gold.PLP.ligand.clash>
0.0000

> <Gold.PLP.ligand.torsion>
0.0638

> <Gold.PLP.Chemscore.Hbond>
5.0336

> <Gold.PLP.Chemscore.CHOScore>
0.0000

> <Gold.PLP.Chemscore.Metal>
0.0000

> <Gold.Chemscore.Hbonds>
donor molecule, donor type, donor heavy atom, donor atom, acceptor molecule, acceptor atom, score
      L1  H     1    11       P1  7957  1.00
      L1  H     1    12       P1  7948  0.94
      L1  H     4    16       P1  7957  0.74
      P1  H  7989  7998       L1     4  0.22
      P1  H  7997  8008       L1     9  1.00
      P1  H  8011  8017       L1     4  1.00

> <Gold.PLP.Chemscore.Internal.Correction>
0.0028

> <Gold.Rescore>
     Score         DG    S(hbond)    S(metal)    S(lipo)     H(rot)  DE(clash)    DE(int)     intcor
     18.53     -18.63       3.89        0.00      41.68       1.85       0.07       0.02       ----

> <Gold.Chemscore.Fitness>
18.5344

> <Gold.Chemscore.DG>
-18.6278

> <Gold.Chemscore.ZeroCoef>
-5.4800

> <Gold.Chemscore.Hbond>
3.8908

> <Gold.Chemscore.Metal>
0.0000

> <Gold.Chemscore.Lipo>
41.6849

> <Gold.Chemscore.Internal_Hbond>
0.0000

> <Gold.Chemscore.DEClash>
0.0739

> <Gold.Chemscore.DEInternal>
0.0195

> <Gold.Chemscore.Rot>
1.8455

> <Gold.Chemscore.Internal.Correction>
   9.000000E+99

> <Gold.Chemscore.Hbonds>
donor molecule, donor type, donor heavy atom, donor atom, acceptor molecule, acceptor atom, score
      L1  H     1    11       P1  7957  1.00
      L1  H     1    12       P1  7948  0.91
      L1  H     4    16       P1  7957  0.70
      P1  H  7989  7998       L1     4  0.02
      P1  H  7997  8008       L1     9  0.40
      P1  H  8011  8017       L1     4  0.34

> <Gold.Chemscore.Hbond.Weighted>
-12.9952

> <Gold.Chemscore.Metal.Weighted>
-0.0000

> <Gold.Chemscore.Lipo.Weighted>
-4.8771

> <Gold.Chemscore.Internal_Hbond.Weighted>
0.0000

> <Gold.Chemscore.DEClash.Weighted>
0.0739

> <Gold.Chemscore.DEInternal.Weighted>
0.0195

> <Gold.Chemscore.Rot.Weighted>
4.7245

> <Gold.Chemscore.Internal.Correction.Weighted>
   9.000000E+99

> <Gold.Protein.RotatedTorsions>
[ 6907 6896 6895 6894 ] final -102.49 input  -60.11 | X-H torsion
[ 7974 7965 7964 7962 ] final  -72.05 input  175.53 | X-H torsion
[ 8008 7997 7996 7995 ] final  -39.81 input   59.86 | X-H torsion
[ 10167 10162 10161 10158 ] final  -35.84 input  -65.29 | X-H torsion
[ 10718 10713 10712 10709 ] final   -2.88 input   66.30 | X-H torsion
[ 10763 10752 10751 10750 ] final  176.59 input  -60.55 | X-H torsion
[ 11005 11000 10999 10996 ] final   38.64 input  -57.11 | X-H torsion

> <Gold.Protein.ActiveResidues>
 VAL166  LYS551  ARG553  GLY616  TRP617  ASP618  TYR619  PRO620  LYS621  CYS622 
 ASP623  PHE694  ASN695  SER759  ASP760  ASP761  ALA762  ILE779  LEU786  VAL792 
 PHE793  MET794  SER795  GLU796  ALA797  LYS798  CYS799  TRP800  GLU811  SER814 

> <Gold.Protein.RotatedAtoms>
  150.7199  134.0573  159.3818 H   0  0  0  0  0  0  0  0  0  0  0  0  # atno 6907 bound_to 6896
  151.8551  135.0542  160.0472 H   0  0  0  0  0  0  0  0  0  0  0  0  # atno 6908 bound_to 6896
  152.2760  133.5390  159.5505 H   0  0  0  0  0  0  0  0  0  0  0  0  # atno 6909 bound_to 6896
  145.6701  140.9224  143.0887 H   0  0  0  0  0  0  0  0  0  0  0  0  # atno 7974 bound_to 7965
  154.4019  140.1542  156.2924 H   0  0  0  0  0  0  0  0  0  0  0  0  # atno 8008 bound_to 7997
  155.8773  140.3445  155.5841 H   0  0  0  0  0  0  0  0  0  0  0  0  # atno 8009 bound_to 7997
  155.7707  140.0830  157.2100 H   0  0  0  0  0  0  0  0  0  0  0  0  # atno 8010 bound_to 7997
  140.7156  143.3450  151.2276 H   0  0  0  0  0  0  0  0  0  0  0  0  # atno 10167 bound_to 10162
  156.7844  130.5341  149.5746 H   0  0  0  0  0  0  0  0  0  0  0  0  # atno 10718 bound_to 10713
  154.4832  135.2776  155.1554 H   0  0  0  0  0  0  0  0  0  0  0  0  # atno 10763 bound_to 10752
  154.3256  135.6200  153.5531 H   0  0  0  0  0  0  0  0  0  0  0  0  # atno 10764 bound_to 10752
  152.9878  135.5753  154.5237 H   0  0  0  0  0  0  0  0  0  0  0  0  # atno 10765 bound_to 10752
  140.2106  134.3760  155.8051 H   0  0  0  0  0  0  0  0  0  0  0  0  # atno 11005 bound_to 11000
  144.7059  139.8561  143.7430 LP  0  0  0  0  0  0  0  0  0  0  0  0  # atno 17320 bound_to 7965
  146.1052  139.4051  143.0322 LP  0  0  0  0  0  0  0  0  0  0  0  0  # atno 17321 bound_to 7965
  139.6967  143.9601  152.2886 LP  0  0  0  0  0  0  0  0  0  0  0  0  # atno 17342 bound_to 10162
  139.9281  144.6758  150.8391 LP  0  0  0  0  0  0  0  0  0  0  0  0  # atno 17343 bound_to 10162
  156.1198  130.6101  151.0176 LP  0  0  0  0  0  0  0  0  0  0  0  0  # atno 17370 bound_to 10713
  157.6631  131.0877  150.7792 LP  0  0  0  0  0  0  0  0  0  0  0  0  # atno 17371 bound_to 10713
  141.2226  133.7141  156.8411 LP  0  0  0  0  0  0  0  0  0  0  0  0  # atno 17394 bound_to 11000
  140.1955  134.8935  157.3109 LP  0  0  0  0  0  0  0  0  0  0  0  0  # atno 17395 bound_to 11000

$$$$
