AV-unprocessed.smi:1367|AV-procd|sdf|5574|dock2
  -GOLD-   22720 5163D 1   1.00000     0.00000
 Structure written by MMmdl.
 29 29  0  0  0  0  0  0  0  0  2 V2000
  150.3027  134.9775  154.7960 C   0  0  0  0  0  0  0  0  0  0  0  0
  150.6215  136.4277  155.0904 C   0  0  0  0  0  0  0  0  0  0  0  0
  149.7491  137.1533  155.6796 N   0  0  0  0  0  0  0  0  0  0  0  0
  150.0407  138.5004  155.9540 C   0  0  0  0  0  0  0  0  0  0  0  0
  148.9453  139.2889  156.6499 C   0  0  0  0  0  0  0  0  0  0  0  0
  151.2399  139.0480  155.6049 C   0  0  0  0  0  0  0  0  0  0  0  0
  151.6019  140.5097  155.8723 C   0  0  0  0  0  0  0  0  0  0  0  0
  152.0613  140.8322  157.2959 C   0  0  0  0  0  0  0  0  0  0  0  0
  152.8304  140.0696  157.8806 O   0  0  0  0  0  0  0  0  0  0  0  0
  151.5884  141.9638  157.8400 N   0  0  0  0  0  0  0  0  0  0  0  0
  151.8618  142.4274  159.1952 C   0  0  0  0  0  0  0  0  0  0  0  0
  151.5886  143.9330  159.3547 C   0  0  0  0  0  0  0  0  0  0  0  0
  151.9317  144.3100  160.5861 F   0  0  0  0  0  0  0  0  0  0  0  0
  152.3129  144.6296  158.4785 F   0  0  0  0  0  0  0  0  0  0  0  0
  150.2969  144.2071  159.1721 F   0  0  0  0  0  0  0  0  0  0  0  0
  152.2167  138.1785  154.9246 C   0  0  0  0  0  0  0  0  0  0  0  0
  153.3067  138.6271  154.5719 O   0  0  0  0  0  0  0  0  0  0  0  0
  151.8599  136.8828  154.6965 N   0  5  0  0  0  0  0  0  0  0  0  0
  149.2566  134.7534  155.0097 H   0  0  0  0  0  0  0  0  0  0  0  0
  150.9258  134.3235  155.4065 H   0  0  0  0  0  0  0  0  0  0  0  0
  150.4904  134.7526  153.7457 H   0  0  0  0  0  0  0  0  0  0  0  0
  149.2815  139.6256  157.6304 H   0  0  0  0  0  0  0  0  0  0  0  0
  148.0512  138.6811  156.7932 H   0  0  0  0  0  0  0  0  0  0  0  0
  148.6643  140.1607  156.0590 H   0  0  0  0  0  0  0  0  0  0  0  0
  152.3962  140.7990  155.1836 H   0  0  0  0  0  0  0  0  0  0  0  0
  150.7699  141.1686  155.6221 H   0  0  0  0  0  0  0  0  0  0  0  0
  150.9637  142.5291  157.2822 H   0  0  0  0  0  0  0  0  0  0  0  0
  151.2810  141.8553  159.9204 H   0  0  0  0  0  0  0  0  0  0  0  0
  152.9103  142.2208  159.4110 H   0  0  0  0  0  0  0  0  0  0  0  0
  1  2  1  0  0  0  0
  1 19  1  0  0  0  0
  1 20  1  0  0  0  0
  1 21  1  0  0  0  0
  2 18  1  0  0  0  0
  2  3  2  0  0  0  0
  3  4  1  0  0  0  0
  4  5  1  0  0  0  0
  4  6  2  0  0  0  0
  5 22  1  0  0  0  0
  5 23  1  0  0  0  0
  5 24  1  0  0  0  0
  6  7  1  0  0  0  0
  6 16  1  0  0  0  0
  7  8  1  0  0  0  0
  7 25  1  0  0  0  0
  7 26  1  0  0  0  0
  8  9  2  0  0  0  0
  8 10  1  0  0  0  0
 10 11  1  0  0  0  0
 10 27  1  0  0  0  0
 11 12  1  0  0  0  0
 11 28  1  0  0  0  0
 11 29  1  0  0  0  0
 12 13  1  0  0  0  0
 12 14  1  0  0  0  0
 12 15  1  0  0  0  0
 16 17  2  0  0  0  0
 16 18  1  0  0  0  0
M  CHG  1  18  -1
M  END
> <s_m_source_file>
AV-unprocessed.smi

> <i_m_source_file_index>
1367

> <i_lp_mmshare_version>
43012

> <i_f3d_flags>
0

> <s_epik_input>
W0NIM11jMW5jKFtDSDNdKWMoYyg9TylbbkhdMSlbQ0gyXUMoPU8pW05IXVtDSDJdQyhGKShGKUY=

> <s_epik_cmdline>
J2VwaWtfcHl0aG9uJywgJy1waCcsICc3LjAnLCAnLXRuJywgJzgnLCAnLW1hJywgJzIwMCcsICctbWV0YWxfYmluZGluZycsICctaW1hZScsICc8aW5maWxlLm1hZT4nLCAnLW9tYWUnLCAnPG91dGZpbGUubWFlPic=

> <r_lp_tautomer_probability>
0.839158

> <r_epik_Ionization_Penalty>
6.39142

> <r_epik_Ionization_Penalty_Charging>
4.71143e-08

> <r_epik_Ionization_Penalty_Neutral>
6.39142

> <r_epik_State_Penalty>
4.29634

> <r_epik_Charging_Adjusted_Penalty>
4.29634

> <i_epik_Tot_Q>
-1

> <i_epik_Tot_abs_Q>
1

> <r_epik_Metal_State_Penalty>
0.740852

> <b_epik_Metal_Only>
1

> <s_lp_Force_Field>
OPLS_2005

> <r_lp_Energy>
6.28206

> <b_lp_Chiralities_Consistent>
1

> <s_lp_Variant>
AV-unprocessed.smi:1367-3

> <Gold.Version>
5.8.1

> <Gold.Id.Protein>
6NUR|6NUR_protein|mol2

> <Gold.PLP.Fitness>
41.1748

> <Gold.PLP.PLP>
-33.7493

> <Gold.PLP.part.hbond>
-2.2828

> <Gold.PLP.part.metal>
0.0000

> <Gold.PLP.part.buried>
-4.8967

> <Gold.PLP.part.nonpolar>
-26.1610

> <Gold.PLP.part.repulsive>
0.2708

> <Gold.PLP.ligand.clash>
0.0000

> <Gold.PLP.ligand.torsion>
0.6686

> <Gold.PLP.Chemscore.Hbond>
2.9120

> <Gold.PLP.Chemscore.CHOScore>
0.0000

> <Gold.PLP.Chemscore.Metal>
0.0000

> <Gold.Chemscore.Hbonds>
donor molecule, donor type, donor heavy atom, donor atom, acceptor molecule, acceptor atom, score
      P1  H  7997  8009       L1     9  0.88
      P1  H 10752 10765       L1    18  2.00

> <Gold.PLP.Chemscore.Internal.Correction>
0.0266

> <Gold.Rescore>
     Score         DG    S(hbond)    S(metal)    S(lipo)     H(rot)  DE(clash)    DE(int)     intcor
     11.05     -11.77       1.77        0.00      43.82       1.86       0.13       0.58       ----

> <Gold.Chemscore.Fitness>
11.0527

> <Gold.Chemscore.DG>
-11.7677

> <Gold.Chemscore.ZeroCoef>
-5.4800

> <Gold.Chemscore.Hbond>
1.7746

> <Gold.Chemscore.Metal>
0.0000

> <Gold.Chemscore.Lipo>
43.8176

> <Gold.Chemscore.Internal_Hbond>
0.0000

> <Gold.Chemscore.DEClash>
0.1347

> <Gold.Chemscore.DEInternal>
0.5803

> <Gold.Chemscore.Rot>
1.8617

> <Gold.Chemscore.Internal.Correction>
   9.000000E+99

> <Gold.Chemscore.Hbonds>
donor molecule, donor type, donor heavy atom, donor atom, acceptor molecule, acceptor atom, score
      P1  H  7997  8009       L1     9  0.72
      P1  H 10752 10765       L1    18  0.87

> <Gold.Chemscore.Hbond.Weighted>
-5.9271

> <Gold.Chemscore.Metal.Weighted>
-0.0000

> <Gold.Chemscore.Lipo.Weighted>
-5.1267

> <Gold.Chemscore.Internal_Hbond.Weighted>
0.0000

> <Gold.Chemscore.DEClash.Weighted>
0.1347

> <Gold.Chemscore.DEInternal.Weighted>
0.5803

> <Gold.Chemscore.Rot.Weighted>
4.7660

> <Gold.Chemscore.Internal.Correction.Weighted>
   9.000000E+99

> <Gold.Protein.RotatedTorsions>
[ 6907 6896 6895 6894 ] final   36.59 input  -60.11 | X-H torsion
[ 7974 7965 7964 7962 ] final -120.51 input  175.53 | X-H torsion
[ 8008 7997 7996 7995 ] final  148.24 input   59.86 | X-H torsion
[ 10167 10162 10161 10158 ] final  153.84 input  -65.29 | X-H torsion
[ 10718 10713 10712 10709 ] final   76.59 input   66.30 | X-H torsion
[ 10763 10752 10751 10750 ] final  161.04 input  -60.55 | X-H torsion
[ 11005 11000 10999 10996 ] final   -4.90 input  -57.11 | X-H torsion

> <Gold.Protein.ActiveResidues>
 VAL166  LYS551  ARG553  GLY616  TRP617  ASP618  TYR619  PRO620  LYS621  CYS622 
 ASP623  PHE694  ASN695  SER759  ASP760  ASP761  ALA762  ILE779  LEU786  VAL792 
 PHE793  MET794  SER795  GLU796  ALA797  LYS798  CYS799  TRP800  GLU811  SER814 

> <Gold.Protein.RotatedAtoms>
  152.1318  134.9129  160.0558 H   0  0  0  0  0  0  0  0  0  0  0  0  # atno 6907 bound_to 6896
  152.0230  133.3901  159.4274 H   0  0  0  0  0  0  0  0  0  0  0  0  # atno 6908 bound_to 6896
  150.6857  134.3526  159.4959 H   0  0  0  0  0  0  0  0  0  0  0  0  # atno 6909 bound_to 6896
  145.0505  140.8215  143.4212 H   0  0  0  0  0  0  0  0  0  0  0  0  # atno 7974 bound_to 7965
  156.2798  140.2134  156.5667 H   0  0  0  0  0  0  0  0  0  0  0  0  # atno 8008 bound_to 7997
  154.7169  140.0507  157.0625 H   0  0  0  0  0  0  0  0  0  0  0  0  # atno 8009 bound_to 7997
  155.0531  140.3158  155.4688 H   0  0  0  0  0  0  0  0  0  0  0  0  # atno 8010 bound_to 7997
  139.4825  144.5238  151.7833 H   0  0  0  0  0  0  0  0  0  0  0  0  # atno 10167 bound_to 10162
  157.6679  130.9781  150.1519 H   0  0  0  0  0  0  0  0  0  0  0  0  # atno 10718 bound_to 10713
  154.2568  135.2770  155.2794 H   0  0  0  0  0  0  0  0  0  0  0  0  # atno 10763 bound_to 10752
  154.5418  135.5700  153.6849 H   0  0  0  0  0  0  0  0  0  0  0  0  # atno 10764 bound_to 10752
  152.9970  135.6253  154.2717 H   0  0  0  0  0  0  0  0  0  0  0  0  # atno 10765 bound_to 10752
  140.6853  133.9118  155.8582 H   0  0  0  0  0  0  0  0  0  0  0  0  # atno 11005 bound_to 11000
  145.1533  139.2501  143.5430 LP  0  0  0  0  0  0  0  0  0  0  0  0  # atno 17320 bound_to 7965
  146.3517  140.1241  142.8599 LP  0  0  0  0  0  0  0  0  0  0  0  0  # atno 17321 bound_to 7965
  140.4755  144.1525  150.5924 LP  0  0  0  0  0  0  0  0  0  0  0  0  # atno 17342 bound_to 10162
  140.4335  143.2557  151.9565 LP  0  0  0  0  0  0  0  0  0  0  0  0  # atno 17343 bound_to 10162
  156.2316  130.3682  149.8439 LP  0  0  0  0  0  0  0  0  0  0  0  0  # atno 17370 bound_to 10713
  156.6264  130.8647  151.3486 LP  0  0  0  0  0  0  0  0  0  0  0  0  # atno 17371 bound_to 10713
  141.0285  134.0790  157.4042 LP  0  0  0  0  0  0  0  0  0  0  0  0  # atno 17394 bound_to 11000
  139.8939  135.0133  156.6924 LP  0  0  0  0  0  0  0  0  0  0  0  0  # atno 17395 bound_to 11000

$$$$
