AV-unprocessed.smi:1650|AV-procd|sdf|6636|dock3
  -GOLD-   22720 7343D 1   1.00000     0.00000
 Structure written by MMmdl.
 30 31  0  0  0  0  0  0  0  0  1 V2000
  149.4973  133.9181  154.4628 C   0  0  0  0  0  0  0  0  0  0  0  0
  150.1661  135.1809  154.9959 C   0  0  0  0  0  0  0  0  0  0  0  0
  150.9741  135.0966  155.9198 O   0  0  0  0  0  0  0  0  0  0  0  0
  149.8121  136.3281  154.3918 N   0  0  0  0  0  0  0  0  0  0  0  0
  150.2732  137.6347  154.6894 C   0  0  0  0  0  0  0  0  0  0  0  0
  149.9561  138.8704  154.0575 C   0  0  0  0  0  0  0  0  0  0  0  0
  150.5996  139.8765  154.6305 N   0  0  0  0  0  0  0  0  0  0  0  0
  151.3286  139.3097  155.6242 N   0  0  0  0  0  0  0  0  0  0  0  0
  152.1713  140.1428  156.4633 C   0  0  0  0  0  0  0  0  0  0  0  0
  151.3784  141.3085  157.0562 C   0  0  0  0  0  0  0  0  0  0  0  0
  150.4060  141.7599  156.4513 O   0  0  0  0  0  0  0  0  0  0  0  0
  151.8055  141.7814  158.2368 N   0  0  0  0  0  0  0  0  0  0  0  0
  151.2070  142.8500  158.9686 C   0  0  0  0  0  0  0  0  0  0  0  0
  151.1474  144.2092  158.3057 C   0  0  0  0  0  0  0  0  0  0  0  0
  152.1100  143.9711  159.4362 C   0  0  0  0  0  0  0  0  0  0  0  0
  151.1499  137.9413  155.6862 C   0  0  0  0  0  0  0  0  0  0  0  0
  148.4254  134.0727  154.3365 H   0  0  0  0  0  0  0  0  0  0  0  0
  149.6411  133.0836  155.1498 H   0  0  0  0  0  0  0  0  0  0  0  0
  149.9232  133.6437  153.4975 H   0  0  0  0  0  0  0  0  0  0  0  0
  149.1405  136.2573  153.6412 H   0  0  0  0  0  0  0  0  0  0  0  0
  149.3011  139.0772  153.2244 H   0  0  0  0  0  0  0  0  0  0  0  0
  152.6057  139.5407  157.2631 H   0  0  0  0  0  0  0  0  0  0  0  0
  152.9981  140.5212  155.8608 H   0  0  0  0  0  0  0  0  0  0  0  0
  152.6118  141.3402  158.6555 H   0  0  0  0  0  0  0  0  0  0  0  0
  150.3742  142.6020  159.6255 H   0  0  0  0  0  0  0  0  0  0  0  0
  151.5627  144.3061  157.3044 H   0  0  0  0  0  0  0  0  0  0  0  0
  150.2753  144.8274  158.5095 H   0  0  0  0  0  0  0  0  0  0  0  0
  151.8822  144.4324  160.3952 H   0  0  0  0  0  0  0  0  0  0  0  0
  153.1683  143.9086  159.1897 H   0  0  0  0  0  0  0  0  0  0  0  0
  151.6534  137.3232  156.4150 H   0  0  0  0  0  0  0  0  0  0  0  0
  1  2  1  0  0  0  0
  1 17  1  0  0  0  0
  1 18  1  0  0  0  0
  1 19  1  0  0  0  0
  2  3  2  0  0  0  0
  2  4  1  0  0  0  0
  4  5  1  0  0  0  0
  4 20  1  0  0  0  0
  5 16  2  0  0  0  0
  5  6  1  0  0  0  0
  6  7  2  0  0  0  0
  6 21  1  0  0  0  0
  7  8  1  0  0  0  0
  8  9  1  0  0  0  0
  8 16  1  0  0  0  0
  9 10  1  0  0  0  0
  9 22  1  0  0  0  0
  9 23  1  0  0  0  0
 10 11  2  0  0  0  0
 10 12  1  0  0  0  0
 12 13  1  0  0  0  0
 12 24  1  0  0  0  0
 13 15  1  0  0  0  0
 13 14  1  0  0  0  0
 13 25  1  0  0  0  0
 14 15  1  0  0  0  0
 14 26  1  0  0  0  0
 14 27  1  0  0  0  0
 15 28  1  0  0  0  0
 15 29  1  0  0  0  0
 16 30  1  0  0  0  0
M  END
> <s_m_source_file>
AV-unprocessed.smi

> <i_m_source_file_index>
1650

> <i_lp_mmshare_version>
43012

> <i_f3d_flags>
0

> <s_epik_input>
W0NIM11DKD1PKVtOSF1jMVtjSF1ubihbY0hdMSlbQ0gyXUMoPU8pW05IXVtDSF0yW0NIMl1bQ0gyXTI=

> <s_epik_cmdline>
J2VwaWtfcHl0aG9uJywgJy1waCcsICc3LjAnLCAnLXRuJywgJzgnLCAnLW1hJywgJzIwMCcsICctbWV0YWxfYmluZGluZycsICctaW1hZScsICc8aW5maWxlLm1hZT4nLCAnLW9tYWUnLCAnPG91dGZpbGUubWFlPic=

> <r_lp_tautomer_probability>
1

> <r_epik_Ionization_Penalty>
3.66567e-06

> <r_epik_Ionization_Penalty_Charging>
0

> <r_epik_Ionization_Penalty_Neutral>
3.66567e-06

> <r_epik_State_Penalty>
-0

> <r_epik_Charging_Adjusted_Penalty>
0

> <i_epik_Tot_Q>
0

> <i_epik_Tot_abs_Q>
0

> <r_epik_Metal_State_Penalty>
-0

> <b_epik_Metal_Only>
0

> <s_lp_Force_Field>
OPLS_2005

> <r_lp_Energy>
20.9282

> <b_lp_Chiralities_Consistent>
1

> <s_lp_Variant>
AV-unprocessed.smi:1650-1

> <Gold.Version>
5.8.1

> <Gold.Id.Protein>
6NUR|6NUR_protein|mol2

> <Gold.PLP.Fitness>
39.5328

> <Gold.PLP.PLP>
-28.8341

> <Gold.PLP.part.hbond>
-3.5660

> <Gold.PLP.part.metal>
0.0000

> <Gold.PLP.part.buried>
-2.6788

> <Gold.PLP.part.nonpolar>
-22.2040

> <Gold.PLP.part.repulsive>
0.3285

> <Gold.PLP.ligand.clash>
0.0000

> <Gold.PLP.ligand.torsion>
0.4685

> <Gold.PLP.Chemscore.Hbond>
2.8713

> <Gold.PLP.Chemscore.CHOScore>
0.9949

> <Gold.PLP.Chemscore.Metal>
0.0000

> <Gold.Chemscore.Hbonds>
donor molecule, donor type, donor heavy atom, donor atom, acceptor molecule, acceptor atom, score
      L1  H     4    20       P1  7948  0.85
      P1  H  7989  7998       L1     7  1.00
      P1  H 10752 10764       L1     3  0.26
      L1  C     6    21       P1  7957  1.00

> <Gold.PLP.Chemscore.Internal.Correction>
0.0370

> <Gold.Rescore>
     Score         DG    S(hbond)    S(metal)    S(lipo)     H(rot)  DE(clash)    DE(int)     intcor
     11.66     -16.51       2.17        0.00      67.24       1.60       1.55       3.30       ----

> <Gold.Chemscore.Fitness>
11.6610

> <Gold.Chemscore.DG>
-16.5104

> <Gold.Chemscore.ZeroCoef>
-5.4800

> <Gold.Chemscore.Hbond>
2.1705

> <Gold.Chemscore.Metal>
0.0000

> <Gold.Chemscore.Lipo>
67.2371

> <Gold.Chemscore.Internal_Hbond>
0.0000

> <Gold.Chemscore.DEClash>
1.5504

> <Gold.Chemscore.DEInternal>
3.2990

> <Gold.Chemscore.Rot>
1.5960

> <Gold.Chemscore.Internal.Correction>
   9.000000E+99

> <Gold.Chemscore.Hbonds>
donor molecule, donor type, donor heavy atom, donor atom, acceptor molecule, acceptor atom, score
      L1  H     4    20       P1  7948  0.81
      P1  H  7989  7998       L1     7  0.72
      P1  H 10752 10764       L1     3  0.13

> <Gold.Chemscore.Hbond.Weighted>
-7.2494

> <Gold.Chemscore.Metal.Weighted>
-0.0000

> <Gold.Chemscore.Lipo.Weighted>
-7.8667

> <Gold.Chemscore.Internal_Hbond.Weighted>
0.0000

> <Gold.Chemscore.DEClash.Weighted>
1.5504

> <Gold.Chemscore.DEInternal.Weighted>
3.2990

> <Gold.Chemscore.Rot.Weighted>
4.0857

> <Gold.Chemscore.Internal.Correction.Weighted>
   9.000000E+99

> <Gold.Protein.RotatedTorsions>
[ 6907 6896 6895 6894 ] final  -78.11 input  -60.11 | X-H torsion
[ 7974 7965 7964 7962 ] final   54.91 input  175.53 | X-H torsion
[ 8008 7997 7996 7995 ] final  106.96 input   59.86 | X-H torsion
[ 10167 10162 10161 10158 ] final  -17.28 input  -65.29 | X-H torsion
[ 10718 10713 10712 10709 ] final   -3.07 input   66.30 | X-H torsion
[ 10763 10752 10751 10750 ] final  -37.18 input  -60.55 | X-H torsion
[ 11005 11000 10999 10996 ] final   38.65 input  -57.11 | X-H torsion

> <Gold.Protein.ActiveResidues>
 VAL166  LYS551  ARG553  GLY616  TRP617  ASP618  TYR619  PRO620  LYS621  CYS622 
 ASP623  PHE694  ASN695  SER759  ASP760  ASP761  ALA762  ILE779  LEU786  VAL792 
 PHE793  MET794  SER795  GLU796  ALA797  LYS798  CYS799  TRP800  GLU811  SER814 

> <Gold.Protein.RotatedAtoms>
  150.6981  134.4322  159.5253 H   0  0  0  0  0  0  0  0  0  0  0  0  # atno 6907 bound_to 6896
  152.2046  134.8554  160.0513 H   0  0  0  0  0  0  0  0  0  0  0  0  # atno 6908 bound_to 6896
  151.9461  133.3617  159.4020 H   0  0  0  0  0  0  0  0  0  0  0  0  # atno 6909 bound_to 6896
  145.9560  139.4015  143.0277 H   0  0  0  0  0  0  0  0  0  0  0  0  # atno 7974 bound_to 7965
  156.1786  140.3103  155.9106 H   0  0  0  0  0  0  0  0  0  0  0  0  # atno 8008 bound_to 7997
  155.3434  140.0467  157.3062 H   0  0  0  0  0  0  0  0  0  0  0  0  # atno 8009 bound_to 7997
  154.5317  140.2233  155.8802 H   0  0  0  0  0  0  0  0  0  0  0  0  # atno 8010 bound_to 7997
  140.7245  143.5032  150.9843 H   0  0  0  0  0  0  0  0  0  0  0  0  # atno 10167 bound_to 10162
  156.7815  130.5332  149.5750 H   0  0  0  0  0  0  0  0  0  0  0  0  # atno 10718 bound_to 10713
  153.8921  135.6811  153.4760 H   0  0  0  0  0  0  0  0  0  0  0  0  # atno 10763 bound_to 10752
  153.1175  135.4755  154.9138 H   0  0  0  0  0  0  0  0  0  0  0  0  # atno 10764 bound_to 10752
  154.7617  135.3212  154.8318 H   0  0  0  0  0  0  0  0  0  0  0  0  # atno 10765 bound_to 10752
  140.2105  134.3760  155.8051 H   0  0  0  0  0  0  0  0  0  0  0  0  # atno 11005 bound_to 11000
  145.8106  140.9727  143.0951 LP  0  0  0  0  0  0  0  0  0  0  0  0  # atno 17320 bound_to 7965
  144.6805  139.9916  143.7484 LP  0  0  0  0  0  0  0  0  0  0  0  0  # atno 17321 bound_to 7965
  139.8742  143.7154  152.3163 LP  0  0  0  0  0  0  0  0  0  0  0  0  # atno 17342 bound_to 10162
  139.7413  144.7558  151.0648 LP  0  0  0  0  0  0  0  0  0  0  0  0  # atno 17343 bound_to 10162
  156.1215  130.6113  151.0200 LP  0  0  0  0  0  0  0  0  0  0  0  0  # atno 17370 bound_to 10713
  157.6644  131.0874  150.7763 LP  0  0  0  0  0  0  0  0  0  0  0  0  # atno 17371 bound_to 10713
  141.2226  133.7141  156.8410 LP  0  0  0  0  0  0  0  0  0  0  0  0  # atno 17394 bound_to 11000
  140.1956  134.8934  157.3110 LP  0  0  0  0  0  0  0  0  0  0  0  0  # atno 17395 bound_to 11000

$$$$
