AV-unprocessed.smi:3198|AV-procd|sdf|12227|dock4
  -GOLD-   2272018 63D 1   1.00000     0.00000
 Structure written by MMmdl.
 38 39  0  0  0  0  0  0  0  0  2 V2000
  151.1994  145.4550  159.4162 C   0  0  0  0  0  0  0  0  0  0  0  0
  151.3278  144.0212  158.9475 C   0  0  0  0  0  0  0  0  0  0  0  0
  152.1245  143.0747  159.6243 C   0  0  0  0  0  0  0  0  0  0  0  0
  152.1955  141.7580  159.1265 C   0  0  0  0  0  0  0  0  0  0  0  0
  151.4727  141.4167  157.9646 C   0  0  0  0  0  0  0  0  0  0  0  0
  150.6880  142.4036  157.3205 C   0  0  0  0  0  0  0  0  0  0  0  0
  149.9344  142.1789  156.1617 N   0  0  0  0  0  0  0  0  0  0  0  0
  149.9245  140.8631  155.5416 C   0  0  0  0  0  0  0  0  0  0  0  0
  149.1652  140.8770  154.2111 C   0  0  0  0  0  0  0  0  0  0  0  0
  147.7746  140.7987  154.4764 O   0  0  0  0  0  0  0  0  0  0  0  0
  147.0168  141.7265  153.7182 C   0  0  0  0  0  0  0  0  0  0  0  0
  145.8928  142.2862  154.5991 C   0  0  2  0  0  0  0  0  0  0  0  0
  145.3018  143.5988  154.0869 C   0  0  0  0  0  0  0  0  0  0  0  0
  144.7637  144.2655  155.3443 C   0  0  0  0  0  0  0  0  0  0  0  0
  145.4070  143.4785  156.4895 C   0  0  0  0  0  0  0  0  0  0  0  0
  146.3940  142.6656  155.8705 O   0  0  0  0  0  0  0  0  0  0  0  0
  150.6498  143.6522  157.8376 N   0  3  0  0  0  0  0  0  0  0  0  0
  151.7530  145.6176  160.3415 H   0  0  0  0  0  0  0  0  0  0  0  0
  150.1537  145.7042  159.5979 H   0  0  0  0  0  0  0  0  0  0  0  0
  151.5902  146.1373  158.6609 H   0  0  0  0  0  0  0  0  0  0  0  0
  152.6744  143.3506  160.5125 H   0  0  0  0  0  0  0  0  0  0  0  0
  152.7985  141.0172  159.6304 H   0  0  0  0  0  0  0  0  0  0  0  0
  151.5284  140.4067  157.5867 H   0  0  0  0  0  0  0  0  0  0  0  0
  149.6095  142.9663  155.6190 H   0  0  0  0  0  0  0  0  0  0  0  0
  150.9462  140.5149  155.3853 H   0  0  0  0  0  0  0  0  0  0  0  0
  149.4426  140.1620  156.2237 H   0  0  0  0  0  0  0  0  0  0  0  0
  149.3815  141.8055  153.6805 H   0  0  0  0  0  0  0  0  0  0  0  0
  149.4879  140.0526  153.5728 H   0  0  0  0  0  0  0  0  0  0  0  0
  147.6489  142.5335  153.3438 H   0  0  0  0  0  0  0  0  0  0  0  0
  146.5871  141.2158  152.8550 H   0  0  0  0  0  0  0  0  0  0  0  0
  145.0983  141.5478  154.7243 H   0  0  0  0  0  0  0  0  0  0  0  0
  146.0861  144.2211  153.6532 H   0  0  0  0  0  0  0  0  0  0  0  0
  144.5358  143.4463  153.3262 H   0  0  0  0  0  0  0  0  0  0  0  0
  145.0425  145.3195  155.3737 H   0  0  0  0  0  0  0  0  0  0  0  0
  143.6761  144.2040  155.3984 H   0  0  0  0  0  0  0  0  0  0  0  0
  145.8491  144.1260  157.2472 H   0  0  0  0  0  0  0  0  0  0  0  0
  144.6699  142.8383  156.9767 H   0  0  0  0  0  0  0  0  0  0  0  0
  150.0815  144.3555  157.3654 H   0  0  0  0  0  0  0  0  0  0  0  0
  1  2  1  0  0  0  0
  1 18  1  0  0  0  0
  1 19  1  0  0  0  0
  1 20  1  0  0  0  0
  2 17  1  0  0  0  0
  2  3  2  0  0  0  0
  3  4  1  0  0  0  0
  3 21  1  0  0  0  0
  4  5  2  0  0  0  0
  4 22  1  0  0  0  0
  5  6  1  0  0  0  0
  5 23  1  0  0  0  0
  6  7  1  0  0  0  0
  6 17  2  0  0  0  0
  7  8  1  0  0  0  0
  7 24  1  0  0  0  0
  8  9  1  0  0  0  0
  8 25  1  0  0  0  0
  8 26  1  0  0  0  0
  9 10  1  0  0  0  0
  9 27  1  0  0  0  0
  9 28  1  0  0  0  0
 10 11  1  0  0  0  0
 11 12  1  0  0  0  0
 11 29  1  0  0  0  0
 11 30  1  0  0  0  0
 12 16  1  0  0  0  0
 12 13  1  0  0  0  0
 12 31  1  0  0  0  0
 13 14  1  0  0  0  0
 13 32  1  0  0  0  0
 13 33  1  0  0  0  0
 14 15  1  0  0  0  0
 14 34  1  0  0  0  0
 14 35  1  0  0  0  0
 15 16  1  0  0  0  0
 15 36  1  0  0  0  0
 15 37  1  0  0  0  0
 17 38  1  0  0  0  0
M  CHG  1  17   1
M  END
> <s_m_source_file>
AV-unprocessed.smi

> <i_m_source_file_index>
3198

> <i_lp_mmshare_version>
43012

> <i_f3d_flags>
0

> <s_epik_input>
W0NIM11jMVtjSF1bY0hdW2NIXWMobjEpW05IXVtDSDJdW0NIMl1PW0NIMl1bQ0BASF0yW0NIMl1bQ0gyXVtDSDJdTzI=

> <s_epik_cmdline>
J2VwaWtfcHl0aG9uJywgJy1waCcsICc3LjAnLCAnLXRuJywgJzgnLCAnLW1hJywgJzIwMCcsICctbWV0YWxfYmluZGluZycsICctaW1hZScsICc8aW5maWxlLm1hZT4nLCAnLW9tYWUnLCAnPG91dGZpbGUubWFlPic=

> <r_lp_tautomer_probability>
0.999994

> <r_epik_Ionization_Penalty>
0.0710016

> <r_epik_Ionization_Penalty_Charging>
0.0710012

> <r_epik_Ionization_Penalty_Neutral>
3.47026e-07

> <r_epik_State_Penalty>
0.0622974

> <r_epik_Charging_Adjusted_Penalty>
0.133299

> <i_epik_Tot_Q>
1

> <i_epik_Tot_abs_Q>
1

> <r_epik_Metal_State_Penalty>
2.79497

> <b_epik_Metal_Only>
0

> <s_lp_Force_Field>
OPLS_2005

> <r_lp_Energy>
24.6681

> <b_lp_Chiralities_Consistent>
1

> <s_lp_Variant>
AV-unprocessed.smi:3198-1

> <Gold.Version>
5.8.1

> <Gold.Id.Protein>
6NUR|6NUR_protein|mol2

> <Gold.PLP.Fitness>
46.0522

> <Gold.PLP.PLP>
-36.8922

> <Gold.PLP.part.hbond>
-2.0000

> <Gold.PLP.part.metal>
0.0000

> <Gold.PLP.part.buried>
-2.9674

> <Gold.PLP.part.nonpolar>
-31.8987

> <Gold.PLP.part.repulsive>
0.4014

> <Gold.PLP.ligand.clash>
0.0000

> <Gold.PLP.ligand.torsion>
0.8455

> <Gold.PLP.Chemscore.Hbond>
3.6061

> <Gold.PLP.Chemscore.CHOScore>
0.0000

> <Gold.PLP.Chemscore.Metal>
0.0000

> <Gold.Chemscore.Hbonds>
donor molecule, donor type, donor heavy atom, donor atom, acceptor molecule, acceptor atom, score
      L1  H     7    24       P1  8028  1.86
      L1  H    17    38       P1  8028  1.57

> <Gold.PLP.Chemscore.Internal.Correction>
0.0327

> <Gold.Rescore>
     Score         DG    S(hbond)    S(metal)    S(lipo)     H(rot)  DE(clash)    DE(int)     intcor
     16.31     -17.17       1.53        0.00      93.46       1.71       0.12       0.74       ----

> <Gold.Chemscore.Fitness>
16.3089

> <Gold.Chemscore.DG>
-17.1695

> <Gold.Chemscore.ZeroCoef>
-5.4800

> <Gold.Chemscore.Hbond>
1.5338

> <Gold.Chemscore.Metal>
0.0000

> <Gold.Chemscore.Lipo>
93.4599

> <Gold.Chemscore.Internal_Hbond>
0.0000

> <Gold.Chemscore.DEClash>
0.1248

> <Gold.Chemscore.DEInternal>
0.7357

> <Gold.Chemscore.Rot>
1.7063

> <Gold.Chemscore.Internal.Correction>
   9.000000E+99

> <Gold.Chemscore.Hbonds>
donor molecule, donor type, donor heavy atom, donor atom, acceptor molecule, acceptor atom, score
      L1  H     7    24       P1  8028  0.91
      L1  H    17    38       P1  8028  0.37

> <Gold.Chemscore.Hbond.Weighted>
-5.1228

> <Gold.Chemscore.Metal.Weighted>
-0.0000

> <Gold.Chemscore.Lipo.Weighted>
-10.9348

> <Gold.Chemscore.Internal_Hbond.Weighted>
0.0000

> <Gold.Chemscore.DEClash.Weighted>
0.1248

> <Gold.Chemscore.DEInternal.Weighted>
0.7357

> <Gold.Chemscore.Rot.Weighted>
4.3681

> <Gold.Chemscore.Internal.Correction.Weighted>
   9.000000E+99

> <Gold.Protein.RotatedTorsions>
[ 6907 6896 6895 6894 ] final  121.50 input  -60.11 | X-H torsion
[ 7974 7965 7964 7962 ] final    4.70 input  175.53 | X-H torsion
[ 8008 7997 7996 7995 ] final -133.87 input   59.86 | X-H torsion
[ 10167 10162 10161 10158 ] final   91.99 input  -65.29 | X-H torsion
[ 10718 10713 10712 10709 ] final  -40.09 input   66.30 | X-H torsion
[ 10763 10752 10751 10750 ] final  164.29 input  -60.55 | X-H torsion
[ 11005 11000 10999 10996 ] final  137.36 input  -57.11 | X-H torsion

> <Gold.Protein.ActiveResidues>
 VAL166  LYS551  ARG553  GLY616  TRP617  ASP618  TYR619  PRO620  LYS621  CYS622 
 ASP623  PHE694  ASN695  SER759  ASP760  ASP761  ALA762  ILE779  LEU786  VAL792 
 PHE793  MET794  SER795  GLU796  ALA797  LYS798  CYS799  TRP800  GLU811  SER814 

> <Gold.Protein.RotatedAtoms>
  152.4316  133.7288  159.6575 H   0  0  0  0  0  0  0  0  0  0  0  0  # atno 6907 bound_to 6896
  150.8196  133.8265  159.3151 H   0  0  0  0  0  0  0  0  0  0  0  0  # atno 6908 bound_to 6896
  151.5951  135.1053  160.0099 H   0  0  0  0  0  0  0  0  0  0  0  0  # atno 6909 bound_to 6896
  146.2443  140.0494  142.8376 H   0  0  0  0  0  0  0  0  0  0  0  0  # atno 7974 bound_to 7965
  155.3526  140.0478  157.3046 H   0  0  0  0  0  0  0  0  0  0  0  0  # atno 8008 bound_to 7997
  154.5219  140.2228  155.8924 H   0  0  0  0  0  0  0  0  0  0  0  0  # atno 8009 bound_to 7997
  156.1698  140.3098  155.8960 H   0  0  0  0  0  0  0  0  0  0  0  0  # atno 8010 bound_to 7997
  139.8321  144.6682  150.9387 H   0  0  0  0  0  0  0  0  0  0  0  0  # atno 10167 bound_to 10162
  156.2852  130.4222  149.8295 H   0  0  0  0  0  0  0  0  0  0  0  0  # atno 10718 bound_to 10713
  154.3067  135.2758  155.2585 H   0  0  0  0  0  0  0  0  0  0  0  0  # atno 10763 bound_to 10752
  154.4999  135.5811  153.6526 H   0  0  0  0  0  0  0  0  0  0  0  0  # atno 10764 bound_to 10752
  152.9893  135.6155  154.3241 H   0  0  0  0  0  0  0  0  0  0  0  0  # atno 10765 bound_to 10752
  140.0109  134.9439  157.0275 H   0  0  0  0  0  0  0  0  0  0  0  0  # atno 11005 bound_to 11000
  145.0997  140.9338  143.4720 LP  0  0  0  0  0  0  0  0  0  0  0  0  # atno 17320 bound_to 7965
  145.0685  139.3050  143.5844 LP  0  0  0  0  0  0  0  0  0  0  0  0  # atno 17321 bound_to 7965
  140.7806  143.3991  151.1179 LP  0  0  0  0  0  0  0  0  0  0  0  0  # atno 17342 bound_to 10162
  139.7644  143.8587  152.3107 LP  0  0  0  0  0  0  0  0  0  0  0  0  # atno 17343 bound_to 10162
  156.5728  130.8432  151.3361 LP  0  0  0  0  0  0  0  0  0  0  0  0  # atno 17370 bound_to 10713
  157.7326  130.9718  150.1938 LP  0  0  0  0  0  0  0  0  0  0  0  0  # atno 17371 bound_to 10713
  140.4557  134.1536  155.7186 LP  0  0  0  0  0  0  0  0  0  0  0  0  # atno 17394 bound_to 11000
  141.1710  133.8609  157.1571 LP  0  0  0  0  0  0  0  0  0  0  0  0  # atno 17395 bound_to 11000

$$$$
