AV-unprocessed.smi:3143|AV-procd|sdf|11977|dock1
  -GOLD-   2272017373D 1   1.00000     0.00000
 Structure written by MMmdl.
 37 38  0  0  0  0  0  0  0  0  1 V2000
  147.8801  141.3407  154.0292 C   0  0  0  0  0  0  0  0  0  0  0  0
  149.3251  141.2488  154.5430 C   0  0  1  0  0  0  0  0  0  0  0  0
  149.4689  142.0656  155.7626 N   0  0  0  0  0  0  0  0  0  0  0  0
  150.7940  141.9790  156.3669 C   0  0  0  0  0  0  0  0  0  0  0  0
  150.6567  141.9812  157.8961 C   0  0  0  0  0  0  0  0  0  0  0  0
  151.3623  143.0981  158.4939 N   0  0  0  0  0  0  0  0  0  0  0  0
  151.4062  144.4099  158.0708 C   0  0  0  0  0  0  0  0  0  0  0  0
  152.1984  145.0933  158.9482 C   0  0  0  0  0  0  0  0  0  0  0  0
  152.5981  144.1006  159.8863 C   0  0  0  0  0  0  0  0  0  0  0  0
  152.0956  142.9077  159.6119 N   0  0  0  0  0  0  0  0  0  0  0  0
  149.7138  139.7664  154.7467 C   0  0  0  0  0  0  0  0  0  0  0  0
  150.6516  139.3057  154.0935 O   0  0  0  0  0  0  0  0  0  0  0  0
  149.0233  139.0098  155.6278 N   0  0  0  0  0  0  0  0  0  0  0  0
  149.3062  137.5934  155.8563 C   0  0  0  0  0  0  0  0  0  0  0  0
  148.1555  137.0715  156.7161 C   0  0  0  0  0  0  0  0  0  0  0  0
  147.6584  138.3049  157.4555 C   0  0  0  0  0  0  0  0  0  0  0  0
  147.9236  139.4551  156.4838 C   0  0  0  0  0  0  0  0  0  0  0  0
  147.7514  140.7776  153.1038 H   0  0  0  0  0  0  0  0  0  0  0  0
  147.6035  142.3746  153.8211 H   0  0  0  0  0  0  0  0  0  0  0  0
  147.1693  140.9486  154.7581 H   0  0  0  0  0  0  0  0  0  0  0  0
  149.9640  141.7046  153.7880 H   0  0  0  0  0  0  0  0  0  0  0  0
  149.2484  143.0344  155.5826 H   0  0  0  0  0  0  0  0  0  0  0  0
  151.3107  141.0733  156.0473 H   0  0  0  0  0  0  0  0  0  0  0  0
  151.3979  142.8298  156.0479 H   0  0  0  0  0  0  0  0  0  0  0  0
  149.6066  142.0419  158.1860 H   0  0  0  0  0  0  0  0  0  0  0  0
  151.0495  141.0549  158.3187 H   0  0  0  0  0  0  0  0  0  0  0  0
  150.8769  144.7438  157.1905 H   0  0  0  0  0  0  0  0  0  0  0  0
  152.4535  146.1423  158.9238 H   0  0  0  0  0  0  0  0  0  0  0  0
  153.2332  144.2107  160.7529 H   0  0  0  0  0  0  0  0  0  0  0  0
  149.3875  137.0341  154.9228 H   0  0  0  0  0  0  0  0  0  0  0  0
  150.2539  137.5031  156.3892 H   0  0  0  0  0  0  0  0  0  0  0  0
  147.3628  136.6879  156.0724 H   0  0  0  0  0  0  0  0  0  0  0  0
  148.4594  136.2679  157.3876 H   0  0  0  0  0  0  0  0  0  0  0  0
  146.6106  138.2303  157.7476 H   0  0  0  0  0  0  0  0  0  0  0  0
  148.2481  138.4483  158.3619 H   0  0  0  0  0  0  0  0  0  0  0  0
  148.1657  140.3720  157.0231 H   0  0  0  0  0  0  0  0  0  0  0  0
  147.0435  139.6405  155.8662 H   0  0  0  0  0  0  0  0  0  0  0  0
  1  2  1  0  0  0  0
  1 18  1  0  0  0  0
  1 19  1  0  0  0  0
  1 20  1  0  0  0  0
  2  3  1  0  0  0  0
  2 11  1  0  0  0  0
  2 21  1  0  0  0  0
  3  4  1  0  0  0  0
  3 22  1  0  0  0  0
  4  5  1  0  0  0  0
  4 23  1  0  0  0  0
  4 24  1  0  0  0  0
  5  6  1  0  0  0  0
  5 25  1  0  0  0  0
  5 26  1  0  0  0  0
  6 10  1  0  0  0  0
  6  7  1  0  0  0  0
  7  8  2  0  0  0  0
  7 27  1  0  0  0  0
  8  9  1  0  0  0  0
  8 28  1  0  0  0  0
  9 10  2  0  0  0  0
  9 29  1  0  0  0  0
 11 12  2  0  0  0  0
 11 13  1  0  0  0  0
 13 17  1  0  0  0  0
 13 14  1  0  0  0  0
 14 15  1  0  0  0  0
 14 30  1  0  0  0  0
 14 31  1  0  0  0  0
 15 16  1  0  0  0  0
 15 32  1  0  0  0  0
 15 33  1  0  0  0  0
 16 17  1  0  0  0  0
 16 34  1  0  0  0  0
 16 35  1  0  0  0  0
 17 36  1  0  0  0  0
 17 37  1  0  0  0  0
M  END
> <s_m_source_file>
AV-unprocessed.smi

> <i_m_source_file_index>
3143

> <i_lp_mmshare_version>
43012

> <i_f3d_flags>
0

> <s_epik_input>
W0NIMl0xW0NIMl1bQ0gyXVtDSDJdTjFDKD1PKVtDQEhdKFtDSDNdKVtOSF1bQ0gyXVtDSDJdbjJbY0hdW2NIXVtjSF1uMg==

> <s_epik_cmdline>
J2VwaWtfcHl0aG9uJywgJy1waCcsICc3LjAnLCAnLXRuJywgJzgnLCAnLW1hJywgJzIwMCcsICctbWV0YWxfYmluZGluZycsICctaW1hZScsICc8aW5maWxlLm1hZT4nLCAnLW9tYWUnLCAnPG91dGZpbGUubWFlPic=

> <r_lp_tautomer_probability>
1

> <r_epik_Ionization_Penalty>
0.733724

> <r_epik_Ionization_Penalty_Charging>
0

> <r_epik_Ionization_Penalty_Neutral>
0.733724

> <r_epik_State_Penalty>
0.75825

> <r_epik_Charging_Adjusted_Penalty>
0.75825

> <i_epik_Tot_Q>
0

> <i_epik_Tot_abs_Q>
0

> <r_epik_Metal_State_Penalty>
0.757598

> <b_epik_Metal_Only>
0

> <s_lp_Force_Field>
OPLS_2005

> <r_lp_Energy>
31.5048

> <b_lp_Chiralities_Consistent>
1

> <s_lp_Variant>
AV-unprocessed.smi:3143-4

> <Gold.Version>
5.8.1

> <Gold.Id.Protein>
6NUR|6NUR_protein|mol2

> <Gold.PLP.Fitness>
39.7549

> <Gold.PLP.PLP>
-32.3905

> <Gold.PLP.part.hbond>
-2.0000

> <Gold.PLP.part.metal>
0.0000

> <Gold.PLP.part.buried>
-4.4259

> <Gold.PLP.part.nonpolar>
-26.4274

> <Gold.PLP.part.repulsive>
0.1907

> <Gold.PLP.ligand.clash>
0.0000

> <Gold.PLP.ligand.torsion>
0.8896

> <Gold.PLP.Chemscore.Hbond>
2.0000

> <Gold.PLP.Chemscore.CHOScore>
1.0000

> <Gold.PLP.Chemscore.Metal>
0.0000

> <Gold.Chemscore.Hbonds>
donor molecule, donor type, donor heavy atom, donor atom, acceptor molecule, acceptor atom, score
      L1  H     3    22       P1  8028  1.00
      P1  H  7989  7998       L1    12  1.00
      L1  C     7    27       P1  8028  1.00

> <Gold.PLP.Chemscore.Internal.Correction>
0.1436

> <Gold.Rescore>
     Score         DG    S(hbond)    S(metal)    S(lipo)     H(rot)  DE(clash)    DE(int)     intcor
     14.14     -15.74       1.88        0.00      72.79       1.77       0.86       0.74       ----

> <Gold.Chemscore.Fitness>
14.1371

> <Gold.Chemscore.DG>
-15.7405

> <Gold.Chemscore.ZeroCoef>
-5.4800

> <Gold.Chemscore.Hbond>
1.8808

> <Gold.Chemscore.Metal>
0.0000

> <Gold.Chemscore.Lipo>
72.7915

> <Gold.Chemscore.Internal_Hbond>
0.0000

> <Gold.Chemscore.DEClash>
0.8608

> <Gold.Chemscore.DEInternal>
0.7426

> <Gold.Chemscore.Rot>
1.7726

> <Gold.Chemscore.Internal.Correction>
   9.000000E+99

> <Gold.Chemscore.Hbonds>
donor molecule, donor type, donor heavy atom, donor atom, acceptor molecule, acceptor atom, score
      L1  H     3    22       P1  8028  1.00
      P1  H  7989  7998       L1    12  0.49

> <Gold.Chemscore.Hbond.Weighted>
-6.2818

> <Gold.Chemscore.Metal.Weighted>
-0.0000

> <Gold.Chemscore.Lipo.Weighted>
-8.5166

> <Gold.Chemscore.Internal_Hbond.Weighted>
0.0000

> <Gold.Chemscore.DEClash.Weighted>
0.8608

> <Gold.Chemscore.DEInternal.Weighted>
0.7426

> <Gold.Chemscore.Rot.Weighted>
4.5378

> <Gold.Chemscore.Internal.Correction.Weighted>
   9.000000E+99

> <Gold.Protein.RotatedTorsions>
[ 6907 6896 6895 6894 ] final   13.81 input  -60.11 | X-H torsion
[ 7974 7965 7964 7962 ] final  119.81 input  175.53 | X-H torsion
[ 8008 7997 7996 7995 ] final  169.68 input   59.86 | X-H torsion
[ 10167 10162 10161 10158 ] final    3.52 input  -65.29 | X-H torsion
[ 10718 10713 10712 10709 ] final  -17.56 input   66.30 | X-H torsion
[ 10763 10752 10751 10750 ] final  -82.53 input  -60.55 | X-H torsion
[ 11005 11000 10999 10996 ] final   52.39 input  -57.11 | X-H torsion

> <Gold.Protein.ActiveResidues>
 VAL166  LYS551  ARG553  GLY616  TRP617  ASP618  TYR619  PRO620  LYS621  CYS622 
 ASP623  PHE694  ASN695  SER759  ASP760  ASP761  ALA762  ILE779  LEU786  VAL792 
 PHE793  MET794  SER795  GLU796  ALA797  LYS798  CYS799  TRP800  GLU811  SER814 

> <Gold.Protein.RotatedAtoms>
  151.7922  135.0732  160.0388 H   0  0  0  0  0  0  0  0  0  0  0  0  # atno 6907 bound_to 6896
  152.3148  133.5786  159.5713 H   0  0  0  0  0  0  0  0  0  0  0  0  # atno 6908 bound_to 6896
  150.7338  134.0014  159.3681 H   0  0  0  0  0  0  0  0  0  0  0  0  # atno 6909 bound_to 6896
  145.1387  139.3281  143.4627 H   0  0  0  0  0  0  0  0  0  0  0  0  # atno 7974 bound_to 7965
  156.1435  140.1558  156.8883 H   0  0  0  0  0  0  0  0  0  0  0  0  # atno 8008 bound_to 7997
  154.5008  140.0826  156.7832 H   0  0  0  0  0  0  0  0  0  0  0  0  # atno 8009 bound_to 7997
  155.4033  140.3415  155.4260 H   0  0  0  0  0  0  0  0  0  0  0  0  # atno 8010 bound_to 7997
  140.6581  143.7374  150.7690 H   0  0  0  0  0  0  0  0  0  0  0  0  # atno 10167 bound_to 10162
  156.5718  130.4751  149.6359 H   0  0  0  0  0  0  0  0  0  0  0  0  # atno 10718 bound_to 10713
  154.5769  135.5588  153.7148 H   0  0  0  0  0  0  0  0  0  0  0  0  # atno 10763 bound_to 10752
  153.0068  135.6310  154.2036 H   0  0  0  0  0  0  0  0  0  0  0  0  # atno 10764 bound_to 10752
  154.1977  135.2879  155.2981 H   0  0  0  0  0  0  0  0  0  0  0  0  # atno 10765 bound_to 10752
  140.0853  134.5282  155.8905 H   0  0  0  0  0  0  0  0  0  0  0  0  # atno 11005 bound_to 11000
  146.3507  140.1415  142.8594 LP  0  0  0  0  0  0  0  0  0  0  0  0  # atno 17320 bound_to 7965
  145.0556  140.9050  143.4969 LP  0  0  0  0  0  0  0  0  0  0  0  0  # atno 17321 bound_to 7965
  140.1038  143.4763  152.2410 LP  0  0  0  0  0  0  0  0  0  0  0  0  # atno 17342 bound_to 10162
  139.5809  144.7510  151.3644 LP  0  0  0  0  0  0  0  0  0  0  0  0  # atno 17343 bound_to 10162
  156.2708  130.7016  151.1812 LP  0  0  0  0  0  0  0  0  0  0  0  0  # atno 17370 bound_to 10713
  157.7346  131.0580  150.5513 LP  0  0  0  0  0  0  0  0  0  0  0  0  # atno 17371 bound_to 10713
  141.2060  133.6652  156.6218 LP  0  0  0  0  0  0  0  0  0  0  0  0  # atno 17394 bound_to 11000
  140.3429  134.7834  157.4411 LP  0  0  0  0  0  0  0  0  0  0  0  0  # atno 17395 bound_to 11000

$$$$
