AV-unprocessed.smi:3110|AV-procd|sdf|11831|dock4
  -GOLD-   2272017203D 1   1.00000     0.00000
 Structure written by MMmdl.
 33 34  0  0  0  0  0  0  0  0  1 V2000
  150.3717  142.2234  159.1333 O   0  0  0  0  0  0  0  0  0  0  0  0
  151.2627  141.6920  158.4705 C   0  0  0  0  0  0  0  0  0  0  0  0
  152.7088  141.6907  158.9767 C   0  0  0  0  0  0  0  0  0  0  0  0
  153.0586  142.9297  159.8270 C   0  0  1  0  0  0  0  0  0  0  0  0
  152.4451  144.1909  159.2760 C   0  0  0  0  0  0  0  0  0  0  0  0
  151.7714  144.8801  160.1941 C   0  0  0  0  0  0  0  0  0  0  0  0
  151.7973  144.2185  161.5438 C   0  0  0  0  0  0  0  0  0  0  0  0
  152.5262  142.8816  161.2847 C   0  0  0  0  0  0  0  0  0  0  0  0
  151.0434  141.0916  157.2908 N   0  0  0  0  0  0  0  0  0  0  0  0
  149.7472  140.9922  156.6311 C   0  0  0  0  0  0  0  0  0  0  0  0
  149.8124  141.4930  155.1786 C   0  0  0  0  0  0  0  0  0  0  0  0
  148.5066  141.4727  154.5519 N   0  0  0  0  0  0  0  0  0  0  0  0
  148.1168  140.7251  153.4485 C   0  0  0  0  0  0  0  0  0  0  0  0
  146.7937  141.0271  153.2175 C   0  0  0  0  0  0  0  0  0  0  0  0
  146.3516  141.9510  154.1614 N   0  0  0  0  0  0  0  0  0  0  0  0
  147.4208  142.1680  154.9167 C   0  0  0  0  0  0  0  0  0  0  0  0
  152.8543  140.7860  159.5681 H   0  0  0  0  0  0  0  0  0  0  0  0
  153.3950  141.6194  158.1309 H   0  0  0  0  0  0  0  0  0  0  0  0
  154.1391  143.0818  159.8343 H   0  0  0  0  0  0  0  0  0  0  0  0
  152.5692  144.4875  158.2448 H   0  0  0  0  0  0  0  0  0  0  0  0
  151.2660  145.8191  160.0218 H   0  0  0  0  0  0  0  0  0  0  0  0
  152.3414  144.8445  162.2516 H   0  0  0  0  0  0  0  0  0  0  0  0
  150.7854  144.0640  161.9192 H   0  0  0  0  0  0  0  0  0  0  0  0
  151.8211  142.0590  161.4127 H   0  0  0  0  0  0  0  0  0  0  0  0
  153.3347  142.7211  161.9987 H   0  0  0  0  0  0  0  0  0  0  0  0
  151.8319  140.6785  156.8140 H   0  0  0  0  0  0  0  0  0  0  0  0
  149.4377  139.9468  156.6500 H   0  0  0  0  0  0  0  0  0  0  0  0
  148.9973  141.5485  157.1966 H   0  0  0  0  0  0  0  0  0  0  0  0
  150.1977  142.5127  155.1361 H   0  0  0  0  0  0  0  0  0  0  0  0
  150.4905  140.8726  154.5910 H   0  0  0  0  0  0  0  0  0  0  0  0
  148.7933  140.0585  152.9340 H   0  0  0  0  0  0  0  0  0  0  0  0
  146.1306  140.6526  152.4514 H   0  0  0  0  0  0  0  0  0  0  0  0
  147.4133  142.8460  155.7578 H   0  0  0  0  0  0  0  0  0  0  0  0
  1  2  2  0  0  0  0
  2  3  1  0  0  0  0
  2  9  1  0  0  0  0
  3  4  1  0  0  0  0
  3 17  1  0  0  0  0
  3 18  1  0  0  0  0
  4  8  1  0  0  0  0
  4  5  1  0  0  0  0
  4 19  1  0  0  0  0
  5  6  2  0  0  0  0
  5 20  1  0  0  0  0
  6  7  1  0  0  0  0
  6 21  1  0  0  0  0
  7  8  1  0  0  0  0
  7 22  1  0  0  0  0
  7 23  1  0  0  0  0
  8 24  1  0  0  0  0
  8 25  1  0  0  0  0
  9 10  1  0  0  0  0
  9 26  1  0  0  0  0
 10 11  1  0  0  0  0
 10 27  1  0  0  0  0
 10 28  1  0  0  0  0
 11 12  1  0  0  0  0
 11 29  1  0  0  0  0
 11 30  1  0  0  0  0
 12 16  1  0  0  0  0
 12 13  1  0  0  0  0
 13 14  2  0  0  0  0
 13 31  1  0  0  0  0
 14 15  1  0  0  0  0
 14 32  1  0  0  0  0
 15 16  2  0  0  0  0
 16 33  1  0  0  0  0
M  END
> <s_m_source_file>
AV-unprocessed.smi

> <i_m_source_file_index>
3110

> <i_lp_mmshare_version>
43012

> <i_f3d_flags>
0

> <s_epik_input>
W0NIMl0xW0NIMl1bQ0hdPVtDSF1bQ0BIXTFbQ0gyXUMoPU8pW05IXVtDSDJdW0NIMl1uMltjSF1bY0hdbltjSF0y

> <s_epik_cmdline>
J2VwaWtfcHl0aG9uJywgJy1waCcsICc3LjAnLCAnLXRuJywgJzgnLCAnLW1hJywgJzIwMCcsICctbWV0YWxfYmluZGluZycsICctaW1hZScsICc8aW5maWxlLm1hZT4nLCAnLW9tYWUnLCAnPG91dGZpbGUubWFlPic=

> <r_lp_tautomer_probability>
1

> <r_epik_Ionization_Penalty>
0.593629

> <r_epik_Ionization_Penalty_Charging>
0.593629

> <r_epik_Ionization_Penalty_Neutral>
1.57355e-08

> <r_epik_State_Penalty>
0.607413

> <r_epik_Charging_Adjusted_Penalty>
1.20104

> <i_epik_Tot_Q>
0

> <i_epik_Tot_abs_Q>
0

> <r_epik_Metal_State_Penalty>
0.299385

> <b_epik_Metal_Only>
0

> <s_lp_Force_Field>
OPLS_2005

> <r_lp_Energy>
16.9466

> <b_lp_Chiralities_Consistent>
1

> <s_lp_Variant>
AV-unprocessed.smi:3110-4

> <Gold.Version>
5.8.1

> <Gold.Id.Protein>
6NUR|6NUR_protein|mol2

> <Gold.PLP.Fitness>
44.6897

> <Gold.PLP.PLP>
-37.4134

> <Gold.PLP.part.hbond>
-0.7942

> <Gold.PLP.part.metal>
0.0000

> <Gold.PLP.part.buried>
0.8110

> <Gold.PLP.part.nonpolar>
-37.6903

> <Gold.PLP.part.repulsive>
0.2875

> <Gold.PLP.ligand.clash>
0.0000

> <Gold.PLP.ligand.torsion>
0.5840

> <Gold.PLP.Chemscore.Hbond>
0.0000

> <Gold.PLP.Chemscore.CHOScore>
2.8017

> <Gold.PLP.Chemscore.Metal>
0.0000

> <Gold.Chemscore.Hbonds>
donor molecule, donor type, donor heavy atom, donor atom, acceptor molecule, acceptor atom, score
      L1  C    13    31       P1  7957  0.80
      L1  C    14    32       P1 10175  0.99
      L1  C    16    33       P1  8028  0.72

> <Gold.PLP.Chemscore.Internal.Correction>
0.0393

> <Gold.Rescore>
     Score         DG    S(hbond)    S(metal)    S(lipo)     H(rot)  DE(clash)    DE(int)     intcor
      8.96     -11.92       0.00        0.00      99.07       2.01       0.08       2.89       ----

> <Gold.Chemscore.Fitness>
8.9569

> <Gold.Chemscore.DG>
-11.9239

> <Gold.Chemscore.ZeroCoef>
-5.4800

> <Gold.Chemscore.Hbond>
0.0000

> <Gold.Chemscore.Metal>
0.0000

> <Gold.Chemscore.Lipo>
99.0737

> <Gold.Chemscore.Internal_Hbond>
0.0000

> <Gold.Chemscore.DEClash>
0.0754

> <Gold.Chemscore.DEInternal>
2.8916

> <Gold.Chemscore.Rot>
2.0108

> <Gold.Chemscore.Internal.Correction>
   9.000000E+99

> <Gold.Chemscore.Hbond.Weighted>
-0.0000

> <Gold.Chemscore.Metal.Weighted>
-0.0000

> <Gold.Chemscore.Lipo.Weighted>
-11.5916

> <Gold.Chemscore.Internal_Hbond.Weighted>
0.0000

> <Gold.Chemscore.DEClash.Weighted>
0.0754

> <Gold.Chemscore.DEInternal.Weighted>
2.8916

> <Gold.Chemscore.Rot.Weighted>
5.1477

> <Gold.Chemscore.Internal.Correction.Weighted>
   9.000000E+99

> <Gold.Protein.RotatedTorsions>
[ 6907 6896 6895 6894 ] final -176.07 input  -60.11 | X-H torsion
[ 7974 7965 7964 7962 ] final -166.93 input  175.53 | X-H torsion
[ 8008 7997 7996 7995 ] final  -68.52 input   59.86 | X-H torsion
[ 10167 10162 10161 10158 ] final -153.56 input  -65.29 | X-H torsion
[ 10718 10713 10712 10709 ] final  -57.99 input   66.30 | X-H torsion
[ 10763 10752 10751 10750 ] final  120.59 input  -60.55 | X-H torsion
[ 11005 11000 10999 10996 ] final   32.62 input  -57.11 | X-H torsion

> <Gold.Protein.ActiveResidues>
 VAL166  LYS551  ARG553  GLY616  TRP617  ASP618  TYR619  PRO620  LYS621  CYS622 
 ASP623  PHE694  ASN695  SER759  ASP760  ASP761  ALA762  ILE779  LEU786  VAL792 
 PHE793  MET794  SER795  GLU796  ALA797  LYS798  CYS799  TRP800  GLU811  SER814 

> <Gold.Protein.RotatedAtoms>
  151.5988  133.3358  159.3042 H   0  0  0  0  0  0  0  0  0  0  0  0  # atno 6907 bound_to 6896
  150.8219  134.7434  159.6791 H   0  0  0  0  0  0  0  0  0  0  0  0  # atno 6908 bound_to 6896
  152.4312  134.5780  159.9991 H   0  0  0  0  0  0  0  0  0  0  0  0  # atno 6909 bound_to 6896
  144.7234  140.2593  143.6267 H   0  0  0  0  0  0  0  0  0  0  0  0  # atno 7974 bound_to 7965
  154.4873  140.0871  156.7516 H   0  0  0  0  0  0  0  0  0  0  0  0  # atno 8008 bound_to 7997
  155.4317  140.3450  155.4262 H   0  0  0  0  0  0  0  0  0  0  0  0  # atno 8009 bound_to 7997
  156.1280  140.1493  156.9095 H   0  0  0  0  0  0  0  0  0  0  0  0  # atno 8010 bound_to 7997
  139.7087  143.9144  152.2459 H   0  0  0  0  0  0  0  0  0  0  0  0  # atno 10167 bound_to 10162
  156.1168  130.4169  150.0516 H   0  0  0  0  0  0  0  0  0  0  0  0  # atno 10718 bound_to 10713
  153.6008  135.3448  155.2945 H   0  0  0  0  0  0  0  0  0  0  0  0  # atno 10763 bound_to 10752
  154.8636  135.4227  154.2414 H   0  0  0  0  0  0  0  0  0  0  0  0  # atno 10764 bound_to 10752
  153.3242  135.7040  153.7075 H   0  0  0  0  0  0  0  0  0  0  0  0  # atno 10765 bound_to 10752
  140.2716  134.3076  155.7826 H   0  0  0  0  0  0  0  0  0  0  0  0  # atno 11005 bound_to 11000
  145.8151  139.2019  143.1970 LP  0  0  0  0  0  0  0  0  0  0  0  0  # atno 17320 bound_to 7965
  146.0562  140.8018  142.9757 LP  0  0  0  0  0  0  0  0  0  0  0  0  # atno 17321 bound_to 7965
  139.9007  144.6913  150.8668 LP  0  0  0  0  0  0  0  0  0  0  0  0  # atno 17342 bound_to 10162
  140.7728  143.3516  151.2004 LP  0  0  0  0  0  0  0  0  0  0  0  0  # atno 17343 bound_to 10162
  156.8465  130.9444  151.3628 LP  0  0  0  0  0  0  0  0  0  0  0  0  # atno 17370 bound_to 10713
  157.6352  130.8761  149.9345 LP  0  0  0  0  0  0  0  0  0  0  0  0  # atno 17371 bound_to 10713
  141.2176  133.7470  156.9343 LP  0  0  0  0  0  0  0  0  0  0  0  0  # atno 17394 bound_to 11000
  140.1368  134.9320  157.2412 LP  0  0  0  0  0  0  0  0  0  0  0  0  # atno 17395 bound_to 11000

$$$$
