AV-unprocessed.smi:2841|AV-procd|sdf|10935|dock1
  -GOLD-   2272015383D 1   1.00000     0.00000
 Structure written by MMmdl.
 46 48  0  0  0  0  0  0  0  0  1 V2000
  145.9897  138.0968  154.3331 O   0  0  0  0  0  0  0  0  0  0  0  0
  146.8435  137.6343  153.5773 C   0  0  0  0  0  0  0  0  0  0  0  0
  146.5856  136.7087  152.6435 N   0  0  0  0  0  0  0  0  0  0  0  0
  145.2733  136.1240  152.3756 C   0  0  0  0  0  0  0  0  0  0  0  0
  145.2370  135.2096  151.1206 C   0  0  0  0  0  0  0  0  0  0  0  0
  145.4777  136.0468  150.0044 O   0  0  0  0  0  0  0  0  0  0  0  0
  146.3371  134.1149  151.1474 C   0  0  0  0  0  0  0  0  0  0  0  0
  146.1284  132.9174  150.2025 C   0  0  0  0  0  0  0  0  0  0  0  0
  145.2786  131.7989  150.8315 C   0  0  0  0  0  0  0  0  0  0  0  0
  143.7781  132.1094  150.9358 C   0  0  0  0  0  0  0  0  0  0  0  0
  143.4393  133.4020  151.6982 C   0  0  0  0  0  0  0  0  0  0  0  0
  143.8000  134.6704  150.9049 C   0  0  0  0  0  0  0  0  0  0  0  0
  148.1461  137.9635  153.5849 N   0  0  0  0  0  0  0  0  0  0  0  0
  148.8091  138.9028  154.4186 C   0  0  0  0  0  0  0  0  0  0  0  0
  148.2473  139.5059  155.5709 C   0  0  0  0  0  0  0  0  0  0  0  0
  148.9350  140.4065  156.3062 N   0  0  0  0  0  0  0  0  0  0  0  0
  150.1743  140.6998  155.9024 C   0  0  0  0  0  0  0  0  0  0  0  0
  150.9186  141.7236  156.7025 C   0  0  0  0  0  0  0  0  0  0  0  0
  151.3761  141.4192  158.1144 C   0  0  0  0  0  0  0  0  0  0  0  0
  150.2681  142.4093  157.8866 C   0  0  0  0  0  0  0  0  0  0  0  0
  150.7955  140.2153  154.8235 N   0  0  0  0  0  0  0  0  0  0  0  0
  150.1146  139.3165  154.0809 C   0  0  0  0  0  0  0  0  0  0  0  0
  147.3510  136.3851  152.0708 H   0  0  0  0  0  0  0  0  0  0  0  0
  145.0312  135.5293  153.2565 H   0  0  0  0  0  0  0  0  0  0  0  0
  144.5034  136.8969  152.3251 H   0  0  0  0  0  0  0  0  0  0  0  0
  145.4397  135.5208  149.2204 H   0  0  0  0  0  0  0  0  0  0  0  0
  147.2988  134.5754  150.9151 H   0  0  0  0  0  0  0  0  0  0  0  0
  146.4480  133.7345  152.1636 H   0  0  0  0  0  0  0  0  0  0  0  0
  145.7183  133.2353  149.2433 H   0  0  0  0  0  0  0  0  0  0  0  0
  147.1087  132.4957  149.9785 H   0  0  0  0  0  0  0  0  0  0  0  0
  145.3960  130.8948  150.2331 H   0  0  0  0  0  0  0  0  0  0  0  0
  145.6705  131.5496  151.8180 H   0  0  0  0  0  0  0  0  0  0  0  0
  143.3427  132.1480  149.9367 H   0  0  0  0  0  0  0  0  0  0  0  0
  143.2906  131.2717  151.4355 H   0  0  0  0  0  0  0  0  0  0  0  0
  142.3627  133.4088  151.8715 H   0  0  0  0  0  0  0  0  0  0  0  0
  143.8986  133.4065  152.6870 H   0  0  0  0  0  0  0  0  0  0  0  0
  143.0898  135.4582  151.1612 H   0  0  0  0  0  0  0  0  0  0  0  0
  143.6204  134.4755  149.8460 H   0  0  0  0  0  0  0  0  0  0  0  0
  148.7416  137.4405  152.9594 H   0  0  0  0  0  0  0  0  0  0  0  0
  147.2436  139.2988  155.9076 H   0  0  0  0  0  0  0  0  0  0  0  0
  151.5788  142.3156  156.0715 H   0  0  0  0  0  0  0  0  0  0  0  0
  151.1045  140.4553  158.5405 H   0  0  0  0  0  0  0  0  0  0  0  0
  152.3448  141.8083  158.4212 H   0  0  0  0  0  0  0  0  0  0  0  0
  150.4941  143.4623  158.0421 H   0  0  0  0  0  0  0  0  0  0  0  0
  149.2601  142.1037  158.1607 H   0  0  0  0  0  0  0  0  0  0  0  0
  150.6195  138.9229  153.2107 H   0  0  0  0  0  0  0  0  0  0  0  0
  1  2  2  0  0  0  0
  2  3  1  0  0  0  0
  2 13  1  0  0  0  0
  3  4  1  0  0  0  0
  3 23  1  0  0  0  0
  4  5  1  0  0  0  0
  4 24  1  0  0  0  0
  4 25  1  0  0  0  0
  5 12  1  0  0  0  0
  5  6  1  0  0  0  0
  5  7  1  0  0  0  0
  6 26  1  0  0  0  0
  7  8  1  0  0  0  0
  7 27  1  0  0  0  0
  7 28  1  0  0  0  0
  8  9  1  0  0  0  0
  8 29  1  0  0  0  0
  8 30  1  0  0  0  0
  9 10  1  0  0  0  0
  9 31  1  0  0  0  0
  9 32  1  0  0  0  0
 10 11  1  0  0  0  0
 10 33  1  0  0  0  0
 10 34  1  0  0  0  0
 11 12  1  0  0  0  0
 11 35  1  0  0  0  0
 11 36  1  0  0  0  0
 12 37  1  0  0  0  0
 12 38  1  0  0  0  0
 13 14  1  0  0  0  0
 13 39  1  0  0  0  0
 14 22  1  0  0  0  0
 14 15  2  0  0  0  0
 15 16  1  0  0  0  0
 15 40  1  0  0  0  0
 16 17  2  0  0  0  0
 17 18  1  0  0  0  0
 17 21  1  0  0  0  0
 18 20  1  0  0  0  0
 18 19  1  0  0  0  0
 18 41  1  0  0  0  0
 19 20  1  0  0  0  0
 19 42  1  0  0  0  0
 19 43  1  0  0  0  0
 20 44  1  0  0  0  0
 20 45  1  0  0  0  0
 21 22  2  0  0  0  0
 22 46  1  0  0  0  0
M  END
> <s_m_source_file>
AV-unprocessed.smi

> <i_m_source_file_index>
2841

> <i_lp_mmshare_version>
43012

> <i_f3d_flags>
0

> <s_epik_input>
W0NIMl0xW0NIMl1bQ0hdMWMobltjSF0yKW5bY0hdYzJbTkhdQyg9TylbTkhdW0NIMl1DMyhbT0hdKVtDSDJdW0NIMl1bQ0gyXVtDSDJdW0NIMl1bQ0gyXTM=

> <s_epik_cmdline>
J2VwaWtfcHl0aG9uJywgJy1waCcsICc3LjAnLCAnLXRuJywgJzgnLCAnLW1hJywgJzIwMCcsICctbWV0YWxfYmluZGluZycsICctaW1hZScsICc8aW5maWxlLm1hZT4nLCAnLW9tYWUnLCAnPG91dGZpbGUubWFlPic=

> <r_lp_tautomer_probability>
1

> <r_epik_Ionization_Penalty>
2.96041e-05

> <r_epik_Ionization_Penalty_Charging>
0

> <r_epik_Ionization_Penalty_Neutral>
2.96041e-05

> <r_epik_State_Penalty>
-0

> <r_epik_Charging_Adjusted_Penalty>
0

> <i_epik_Tot_Q>
0

> <i_epik_Tot_abs_Q>
0

> <r_epik_Metal_State_Penalty>
-0

> <b_epik_Metal_Only>
0

> <s_lp_Force_Field>
OPLS_2005

> <r_lp_Energy>
18.825

> <b_lp_Chiralities_Consistent>
1

> <s_lp_Variant>
AV-unprocessed.smi:2841-1

> <Gold.Version>
5.8.1

> <Gold.Id.Protein>
6NUR|6NUR_protein|mol2

> <Gold.PLP.Fitness>
49.5551

> <Gold.PLP.PLP>
-36.7550

> <Gold.PLP.part.hbond>
-4.9813

> <Gold.PLP.part.metal>
0.0000

> <Gold.PLP.part.buried>
-2.3686

> <Gold.PLP.part.nonpolar>
-29.2767

> <Gold.PLP.part.repulsive>
0.2501

> <Gold.PLP.ligand.clash>
0.0000

> <Gold.PLP.ligand.torsion>
0.1540

> <Gold.PLP.Chemscore.Hbond>
3.7420

> <Gold.PLP.Chemscore.CHOScore>
0.5744

> <Gold.PLP.Chemscore.Metal>
0.0000

> <Gold.Chemscore.Hbonds>
donor molecule, donor type, donor heavy atom, donor atom, acceptor molecule, acceptor atom, score
      L1  H     3    23       P1  7948  1.00
      L1  H     6    26       P1  7921  1.00
      L1  H    13    39       P1  7948  1.00
      P1  H  7989  7998       L1    21  0.75
      L1  C    22    46       P1  7957  0.57

> <Gold.PLP.Chemscore.Internal.Correction>
0.1588

> <Gold.Rescore>
     Score         DG    S(hbond)    S(metal)    S(lipo)     H(rot)  DE(clash)    DE(int)     intcor
     19.40     -20.87       2.99        0.00      88.11       1.92       0.13       1.34       ----

> <Gold.Chemscore.Fitness>
19.4025

> <Gold.Chemscore.DG>
-20.8703

> <Gold.Chemscore.ZeroCoef>
-5.4800

> <Gold.Chemscore.Hbond>
2.9896

> <Gold.Chemscore.Metal>
0.0000

> <Gold.Chemscore.Lipo>
88.1121

> <Gold.Chemscore.Internal_Hbond>
0.0000

> <Gold.Chemscore.DEClash>
0.1298

> <Gold.Chemscore.DEInternal>
1.3380

> <Gold.Chemscore.Rot>
1.9156

> <Gold.Chemscore.Internal.Correction>
   9.000000E+99

> <Gold.Chemscore.Hbonds>
donor molecule, donor type, donor heavy atom, donor atom, acceptor molecule, acceptor atom, score
      L1  H     3    23       P1  7948  0.93
      L1  H     6    26       P1  7921  0.97
      L1  H    13    39       P1  7948  0.96
      P1  H  7989  7998       L1    21  0.09

> <Gold.Chemscore.Hbond.Weighted>
-9.9852

> <Gold.Chemscore.Metal.Weighted>
-0.0000

> <Gold.Chemscore.Lipo.Weighted>
-10.3091

> <Gold.Chemscore.Internal_Hbond.Weighted>
0.0000

> <Gold.Chemscore.DEClash.Weighted>
0.1298

> <Gold.Chemscore.DEInternal.Weighted>
1.3380

> <Gold.Chemscore.Rot.Weighted>
4.9040

> <Gold.Chemscore.Internal.Correction.Weighted>
   9.000000E+99

> <Gold.Protein.RotatedTorsions>
[ 6907 6896 6895 6894 ] final  169.98 input  -60.11 | X-H torsion
[ 7974 7965 7964 7962 ] final  -32.29 input  175.53 | X-H torsion
[ 8008 7997 7996 7995 ] final   20.77 input   59.86 | X-H torsion
[ 10167 10162 10161 10158 ] final   75.45 input  -65.29 | X-H torsion
[ 10718 10713 10712 10709 ] final  -92.82 input   66.30 | X-H torsion
[ 10763 10752 10751 10750 ] final   72.66 input  -60.55 | X-H torsion
[ 11005 11000 10999 10996 ] final   62.04 input  -57.11 | X-H torsion

> <Gold.Protein.ActiveResidues>
 VAL166  LYS551  ARG553  GLY616  TRP617  ASP618  TYR619  PRO620  LYS621  CYS622 
 ASP623  PHE694  ASN695  SER759  ASP760  ASP761  ALA762  ILE779  LEU786  VAL792 
 PHE793  MET794  SER795  GLU796  ALA797  LYS798  CYS799  TRP800  GLU811  SER814 

> <Gold.Protein.RotatedAtoms>
  151.8233  133.3397  159.3590 H   0  0  0  0  0  0  0  0  0  0  0  0  # atno 6907 bound_to 6896
  150.7288  134.5553  159.5824 H   0  0  0  0  0  0  0  0  0  0  0  0  # atno 6908 bound_to 6896
  152.2990  134.7634  160.0413 H   0  0  0  0  0  0  0  0  0  0  0  0  # atno 6909 bound_to 6896
  146.1001  140.5774  142.8825 H   0  0  0  0  0  0  0  0  0  0  0  0  # atno 7974 bound_to 7965
  154.9406  140.3052  155.5122 H   0  0  0  0  0  0  0  0  0  0  0  0  # atno 8008 bound_to 7997
  156.2996  140.2337  156.4412 H   0  0  0  0  0  0  0  0  0  0  0  0  # atno 8009 bound_to 7997
  154.8149  140.0426  157.1358 H   0  0  0  0  0  0  0  0  0  0  0  0  # atno 8010 bound_to 7997
  140.0029  144.5673  150.7722 H   0  0  0  0  0  0  0  0  0  0  0  0  # atno 10167 bound_to 10162
  156.0006  130.5002  150.5683 H   0  0  0  0  0  0  0  0  0  0  0  0  # atno 10718 bound_to 10713
  153.0473  135.5091  154.7777 H   0  0  0  0  0  0  0  0  0  0  0  0  # atno 10763 bound_to 10752
  154.6668  135.2947  154.9797 H   0  0  0  0  0  0  0  0  0  0  0  0  # atno 10764 bound_to 10752
  154.0630  135.6688  153.4867 H   0  0  0  0  0  0  0  0  0  0  0  0  # atno 10765 bound_to 10752
  140.0119  134.6282  155.9767 H   0  0  0  0  0  0  0  0  0  0  0  0  # atno 11005 bound_to 11000
  144.7426  140.4983  143.6858 LP  0  0  0  0  0  0  0  0  0  0  0  0  # atno 17320 bound_to 7965
  145.5871  139.1493  143.3203 LP  0  0  0  0  0  0  0  0  0  0  0  0  # atno 17321 bound_to 7965
  140.7412  143.2814  151.3587 LP  0  0  0  0  0  0  0  0  0  0  0  0  # atno 17342 bound_to 10162
  139.6259  144.0815  152.2434 LP  0  0  0  0  0  0  0  0  0  0  0  0  # atno 17343 bound_to 10162
  157.3582  131.0745  151.1658 LP  0  0  0  0  0  0  0  0  0  0  0  0  # atno 17370 bound_to 10713
  157.2452  130.6588  149.5907 LP  0  0  0  0  0  0  0  0  0  0  0  0  # atno 17371 bound_to 10713
  141.1717  133.6538  156.4676 LP  0  0  0  0  0  0  0  0  0  0  0  0  # atno 17394 bound_to 11000
  140.4538  134.6904  157.5053 LP  0  0  0  0  0  0  0  0  0  0  0  0  # atno 17395 bound_to 11000

$$$$
