AV-unprocessed.smi:771|AV-procd|sdf|3684|dock1
  -GOLD-   22720 1103D 1   1.00000     0.00000
 Structure written by MMmdl.
 41 42  0  0  0  0  0  0  0  0  3 V2000
  147.2982  137.2618  154.9916 O   0  0  0  0  0  0  0  0  0  0  0  0
  146.9734  137.6589  153.8716 C   0  0  0  0  0  0  0  0  0  0  0  0
  147.3404  139.0708  153.3923 C   0  0  0  0  0  0  0  0  0  0  0  0
  148.4659  139.6649  154.1328 N   0  0  0  0  0  0  0  0  0  0  0  0
  149.6226  138.8724  154.2703 C   0  0  0  0  0  0  0  0  0  0  0  0
  150.7192  139.3118  154.9182 C   0  0  0  0  0  0  0  0  0  0  0  0
  151.8999  138.4860  155.0446 N   0  3  0  0  0  0  0  0  0  0  0  0
  152.9058  138.9709  155.5525 O   0  0  0  0  0  0  0  0  0  0  0  0
  151.8618  137.3271  154.6414 O   0  5  0  0  0  0  0  0  0  0  0  0
  150.6782  140.6465  155.4835 C   0  0  0  0  0  0  0  0  0  0  0  0
  149.5765  141.4114  155.3513 C   0  0  0  0  0  0  0  0  0  0  0  0
  148.3865  140.9332  154.6400 C   0  0  0  0  0  0  0  0  0  0  0  0
  147.3809  141.6308  154.5072 O   0  0  0  0  0  0  0  0  0  0  0  0
  146.2856  136.9071  152.9991 N   0  0  0  0  0  0  0  0  0  0  0  0
  145.8123  135.5493  153.2512 C   0  0  0  0  0  0  0  0  0  0  0  0
  144.8942  135.0113  152.1256 C   0  0  1  0  0  0  0  0  0  0  0  0
  145.7111  134.5713  150.8877 C   0  0  0  0  0  0  0  0  0  0  0  0
  144.8161  134.0099  149.7726 C   0  0  0  0  0  0  0  0  0  0  0  0
  143.9608  132.8436  150.2844 C   0  0  0  0  0  0  0  0  0  0  0  0
  143.1224  133.2740  151.4955 C   0  0  0  0  0  0  0  0  0  0  0  0
  144.0080  133.8414  152.6205 C   0  0  2  0  0  0  0  0  0  0  0  0
  143.1577  134.2746  153.6634 O   0  0  0  0  0  0  0  0  0  0  0  0
  147.5528  139.0323  152.3226 H   0  0  0  0  0  0  0  0  0  0  0  0
  146.4608  139.7106  153.4827 H   0  0  0  0  0  0  0  0  0  0  0  0
  149.5540  137.8979  153.8083 H   0  0  0  0  0  0  0  0  0  0  0  0
  151.5302  141.0430  156.0160 H   0  0  0  0  0  0  0  0  0  0  0  0
  149.5684  142.4030  155.7797 H   0  0  0  0  0  0  0  0  0  0  0  0
  146.0651  137.3064  152.0981 H   0  0  0  0  0  0  0  0  0  0  0  0
  146.6850  134.9043  153.3569 H   0  0  0  0  0  0  0  0  0  0  0  0
  145.3003  135.5282  154.2145 H   0  0  0  0  0  0  0  0  0  0  0  0
  144.2301  135.8182  151.8113 H   0  0  0  0  0  0  0  0  0  0  0  0
  146.2822  135.4102  150.4890 H   0  0  0  0  0  0  0  0  0  0  0  0
  146.4405  133.8149  151.1805 H   0  0  0  0  0  0  0  0  0  0  0  0
  144.1687  134.8001  149.3899 H   0  0  0  0  0  0  0  0  0  0  0  0
  145.4305  133.6802  148.9343 H   0  0  0  0  0  0  0  0  0  0  0  0
  143.3088  132.4822  149.4888 H   0  0  0  0  0  0  0  0  0  0  0  0
  144.6055  132.0084  150.5613 H   0  0  0  0  0  0  0  0  0  0  0  0
  142.3962  134.0249  151.1802 H   0  0  0  0  0  0  0  0  0  0  0  0
  142.5473  132.4237  151.8644 H   0  0  0  0  0  0  0  0  0  0  0  0
  144.6424  133.0452  153.0125 H   0  0  0  0  0  0  0  0  0  0  0  0
  143.0769  133.5767  154.2956 H   0  0  0  0  0  0  0  0  0  0  0  0
  1  2  2  0  0  0  0
  2  3  1  0  0  0  0
  2 14  1  0  0  0  0
  3  4  1  0  0  0  0
  3 23  1  0  0  0  0
  3 24  1  0  0  0  0
  4 12  1  0  0  0  0
  4  5  1  0  0  0  0
  5  6  2  0  0  0  0
  5 25  1  0  0  0  0
  6  7  1  0  0  0  0
  6 10  1  0  0  0  0
  7  8  2  0  0  0  0
  7  9  1  0  0  0  0
 10 11  2  0  0  0  0
 10 26  1  0  0  0  0
 11 12  1  0  0  0  0
 11 27  1  0  0  0  0
 12 13  2  0  0  0  0
 14 15  1  0  0  0  0
 14 28  1  0  0  0  0
 15 16  1  0  0  0  0
 15 29  1  0  0  0  0
 15 30  1  0  0  0  0
 16 21  1  0  0  0  0
 16 17  1  0  0  0  0
 16 31  1  0  0  0  0
 17 18  1  0  0  0  0
 17 32  1  0  0  0  0
 17 33  1  0  0  0  0
 18 19  1  0  0  0  0
 18 34  1  0  0  0  0
 18 35  1  0  0  0  0
 19 20  1  0  0  0  0
 19 36  1  0  0  0  0
 19 37  1  0  0  0  0
 20 21  1  0  0  0  0
 20 38  1  0  0  0  0
 20 39  1  0  0  0  0
 21 22  1  0  0  0  0
 21 40  1  0  0  0  0
 22 41  1  0  0  0  0
M  CHG  1   7   1
M  CHG  1   9  -1
M  END
> <s_m_source_file>
AV-unprocessed.smi

> <i_m_source_file_index>
771

> <i_lp_mmshare_version>
43012

> <i_f3d_flags>
0

> <s_epik_input>
Tz1jMVtjSF1bY0hdYyhbTitdKD1PKVtPLV0pW2NIXW4xW0NIMl1DKD1PKVtOSF1bQ0gyXVtDQEBIXTJbQ0gyXVtDSDJdW0NIMl1bQ0gyXVtDQEhdMltPSF0=

> <s_epik_cmdline>
J2VwaWtfcHl0aG9uJywgJy1waCcsICc3LjAnLCAnLXRuJywgJzgnLCAnLW1hJywgJzIwMCcsICctbWV0YWxfYmluZGluZycsICctaW1hZScsICc8aW5maWxlLm1hZT4nLCAnLW9tYWUnLCAnPG91dGZpbGUubWFlPic=

> <r_lp_tautomer_probability>
1

> <r_epik_Ionization_Penalty>
3.77175e-07

> <r_epik_Ionization_Penalty_Charging>
7.70067e-11

> <r_epik_Ionization_Penalty_Neutral>
3.77098e-07

> <r_epik_State_Penalty>
-0

> <r_epik_Charging_Adjusted_Penalty>
7.70067e-11

> <i_epik_Tot_Q>
0

> <i_epik_Tot_abs_Q>
2

> <r_epik_Metal_State_Penalty>
-0

> <b_epik_Metal_Only>
0

> <s_lp_Force_Field>
OPLS_2005

> <r_lp_Energy>
22.9473

> <b_lp_Chiralities_Consistent>
1

> <s_lp_Variant>
AV-unprocessed.smi:771-4

> <Gold.Version>
5.8.1

> <Gold.Id.Protein>
6NUR|6NUR_protein|mol2

> <Gold.PLP.Fitness>
45.1597

> <Gold.PLP.PLP>
-34.4910

> <Gold.PLP.part.hbond>
-4.0000

> <Gold.PLP.part.metal>
0.0000

> <Gold.PLP.part.buried>
3.4331

> <Gold.PLP.part.nonpolar>
-33.9734

> <Gold.PLP.part.repulsive>
0.3759

> <Gold.PLP.ligand.clash>
0.0000

> <Gold.PLP.ligand.torsion>
0.6184

> <Gold.PLP.Chemscore.Hbond>
2.9520

> <Gold.PLP.Chemscore.CHOScore>
1.0000

> <Gold.PLP.Chemscore.Metal>
0.0000

> <Gold.Chemscore.Hbonds>
donor molecule, donor type, donor heavy atom, donor atom, acceptor molecule, acceptor atom, score
      L1  H    22    41       P1 10957  1.00
      P1  H  7997  8009       L1     8  1.00
      P1  H 10752 10765       L1     9  0.94
      L1  C     5    25       P1  7948  0.82

> <Gold.PLP.Chemscore.Internal.Correction>
0.0495

> <Gold.Rescore>
     Score         DG    S(hbond)    S(metal)    S(lipo)     H(rot)  DE(clash)    DE(int)     intcor
     14.07     -17.65       2.89        0.00      75.53       2.48       1.64       1.94       ----

> <Gold.Chemscore.Fitness>
14.0651

> <Gold.Chemscore.DG>
-17.6478

> <Gold.Chemscore.ZeroCoef>
-5.4800

> <Gold.Chemscore.Hbond>
2.8944

> <Gold.Chemscore.Metal>
0.0000

> <Gold.Chemscore.Lipo>
75.5344

> <Gold.Chemscore.Internal_Hbond>
0.0000

> <Gold.Chemscore.DEClash>
1.6445

> <Gold.Chemscore.DEInternal>
1.9382

> <Gold.Chemscore.Rot>
2.4753

> <Gold.Chemscore.Internal.Correction>
   9.000000E+99

> <Gold.Chemscore.Hbonds>
donor molecule, donor type, donor heavy atom, donor atom, acceptor molecule, acceptor atom, score
      L1  H    22    41       P1 10957  0.96
      P1  H  7997  8009       L1     8  0.98
      P1  H 10752 10765       L1     9  0.87

> <Gold.Chemscore.Hbond.Weighted>
-9.6672

> <Gold.Chemscore.Metal.Weighted>
-0.0000

> <Gold.Chemscore.Lipo.Weighted>
-8.8375

> <Gold.Chemscore.Internal_Hbond.Weighted>
0.0000

> <Gold.Chemscore.DEClash.Weighted>
1.6445

> <Gold.Chemscore.DEInternal.Weighted>
1.9382

> <Gold.Chemscore.Rot.Weighted>
6.3369

> <Gold.Chemscore.Internal.Correction.Weighted>
   9.000000E+99

> <Gold.Protein.RotatedTorsions>
[ 6907 6896 6895 6894 ] final -179.59 input  -60.11 | X-H torsion
[ 7974 7965 7964 7962 ] final -103.94 input  175.53 | X-H torsion
[ 8008 7997 7996 7995 ] final -144.03 input   59.86 | X-H torsion
[ 10167 10162 10161 10158 ] final -158.24 input  -65.29 | X-H torsion
[ 10718 10713 10712 10709 ] final   74.52 input   66.30 | X-H torsion
[ 10763 10752 10751 10750 ] final  159.19 input  -60.55 | X-H torsion
[ 11005 11000 10999 10996 ] final  171.98 input  -57.11 | X-H torsion

> <Gold.Protein.ActiveResidues>
 VAL166  LYS551  ARG553  GLY616  TRP617  ASP618  TYR619  PRO620  LYS621  CYS622 
 ASP623  PHE694  ASN695  SER759  ASP760  ASP761  ALA762  ILE779  LEU786  VAL792 
 PHE793  MET794  SER795  GLU796  ALA797  LYS798  CYS799  TRP800  GLU811  SER814 

> <Gold.Protein.RotatedAtoms>
  151.6559  133.3319  159.3162 H   0  0  0  0  0  0  0  0  0  0  0  0  # atno 6907 bound_to 6896
  150.7937  134.6985  159.6546 H   0  0  0  0  0  0  0  0  0  0  0  0  # atno 6908 bound_to 6896
  152.4021  134.6272  160.0117 H   0  0  0  0  0  0  0  0  0  0  0  0  # atno 6909 bound_to 6896
  145.2495  140.9233  143.3103 H   0  0  0  0  0  0  0  0  0  0  0  0  # atno 7974 bound_to 7965
  155.5203  140.0591  157.2908 H   0  0  0  0  0  0  0  0  0  0  0  0  # atno 8008 bound_to 7997
  154.4520  140.1954  156.0437 H   0  0  0  0  0  0  0  0  0  0  0  0  # atno 8009 bound_to 7997
  156.0723  140.3258  155.7595 H   0  0  0  0  0  0  0  0  0  0  0  0  # atno 8010 bound_to 7997
  139.6708  143.9749  152.2282 H   0  0  0  0  0  0  0  0  0  0  0  0  # atno 10167 bound_to 10162
  157.6596  130.9682  150.1223 H   0  0  0  0  0  0  0  0  0  0  0  0  # atno 10718 bound_to 10713
  154.2278  135.2779  155.2901 H   0  0  0  0  0  0  0  0  0  0  0  0  # atno 10763 bound_to 10752
  154.5649  135.5636  153.7044 H   0  0  0  0  0  0  0  0  0  0  0  0  # atno 10764 bound_to 10752
  153.0027  135.6307  154.2419 H   0  0  0  0  0  0  0  0  0  0  0  0  # atno 10765 bound_to 10752
  140.3248  134.7407  157.4091 H   0  0  0  0  0  0  0  0  0  0  0  0  # atno 11005 bound_to 11000
  144.9516  139.4077  143.6400 LP  0  0  0  0  0  0  0  0  0  0  0  0  # atno 17320 bound_to 7965
  146.3306  139.8526  142.8870 LP  0  0  0  0  0  0  0  0  0  0  0  0  # atno 17321 bound_to 7965
  139.9513  144.6618  150.8169 LP  0  0  0  0  0  0  0  0  0  0  0  0  # atno 17342 bound_to 10162
  140.7617  143.3180  151.2687 LP  0  0  0  0  0  0  0  0  0  0  0  0  # atno 17343 bound_to 10162
  156.2091  130.3665  149.8692 LP  0  0  0  0  0  0  0  0  0  0  0  0  # atno 17370 bound_to 10713
  156.6576  130.8769  151.3542 LP  0  0  0  0  0  0  0  0  0  0  0  0  # atno 17371 bound_to 10713
  140.0910  134.5600  155.8444 LP  0  0  0  0  0  0  0  0  0  0  0  0  # atno 17394 bound_to 11000
  141.2078  133.6667  156.6327 LP  0  0  0  0  0  0  0  0  0  0  0  0  # atno 17395 bound_to 11000

$$$$
