AV-unprocessed.smi:2709|AV-procd|sdf|10463|dock6
  -GOLD-   2272014503D 1   1.00000     0.00000
 Structure written by MMmdl.
 40 42  0  0  0  0  0  0  0  0  1 V2000
  153.2518  141.2850  160.6587 C   0  0  0  0  0  0  0  0  0  0  0  0
  152.9945  141.8235  159.3716 O   0  0  0  0  0  0  0  0  0  0  0  0
  152.0392  142.8759  159.3714 C   0  0  1  0  0  0  0  0  0  0  0  0
  152.2512  143.8480  160.5402 C   0  0  0  0  0  0  0  0  0  0  0  0
  151.7706  145.1930  160.0086 C   0  0  0  0  0  0  0  0  0  0  0  0
  152.2326  145.1959  158.5526 C   0  0  0  0  0  0  0  0  0  0  0  0
  152.1806  143.7256  158.0894 C   0  0  2  0  0  0  0  0  0  0  0  0
  151.0526  143.4927  157.1900 N   0  0  0  0  0  0  0  0  0  0  0  0
  150.7529  142.3192  156.6165 C   0  0  0  0  0  0  0  0  0  0  0  0
  151.4098  141.2927  156.7875 O   0  0  0  0  0  0  0  0  0  0  0  0
  149.6492  142.4191  155.8567 N   0  0  0  0  0  0  0  0  0  0  0  0
  149.0302  141.4173  155.0618 C   0  0  0  0  0  0  0  0  0  0  0  0
  149.4151  140.0716  155.2383 C   0  0  0  0  0  0  0  0  0  0  0  0
  148.8580  139.0673  154.5282 N   0  0  0  0  0  0  0  0  0  0  0  0
  147.9186  139.4059  153.6409 C   0  0  0  0  0  0  0  0  0  0  0  0
  147.2763  138.2878  152.8799 C   0  0  0  0  0  0  0  0  0  0  0  0
  146.4760  138.5615  151.6224 C   0  0  0  0  0  0  0  0  0  0  0  0
  145.7705  138.1208  152.8743 C   0  0  0  0  0  0  0  0  0  0  0  0
  147.4539  140.6357  153.4044 N   0  0  0  0  0  0  0  0  0  0  0  0
  148.0072  141.6469  154.1087 C   0  0  0  0  0  0  0  0  0  0  0  0
  153.9672  140.4673  160.5739 H   0  0  0  0  0  0  0  0  0  0  0  0
  152.3416  140.8874  161.1093 H   0  0  0  0  0  0  0  0  0  0  0  0
  153.6775  142.0314  161.3299 H   0  0  0  0  0  0  0  0  0  0  0  0
  151.0288  142.4646  159.4290 H   0  0  0  0  0  0  0  0  0  0  0  0
  151.7247  143.5418  161.4446 H   0  0  0  0  0  0  0  0  0  0  0  0
  153.3135  143.9152  160.7802 H   0  0  0  0  0  0  0  0  0  0  0  0
  150.6817  145.2396  160.0515 H   0  0  0  0  0  0  0  0  0  0  0  0
  152.1658  146.0354  160.5763 H   0  0  0  0  0  0  0  0  0  0  0  0
  151.6385  145.8716  157.9358 H   0  0  0  0  0  0  0  0  0  0  0  0
  153.2641  145.5477  158.5062 H   0  0  0  0  0  0  0  0  0  0  0  0
  153.1115  143.4767  157.5755 H   0  0  0  0  0  0  0  0  0  0  0  0
  150.4544  144.2830  156.9990 H   0  0  0  0  0  0  0  0  0  0  0  0
  149.1758  143.3105  155.8760 H   0  0  0  0  0  0  0  0  0  0  0  0
  150.1763  139.7966  155.9538 H   0  0  0  0  0  0  0  0  0  0  0  0
  147.8877  137.3879  152.9079 H   0  0  0  0  0  0  0  0  0  0  0  0
  146.3490  139.5979  151.3155 H   0  0  0  0  0  0  0  0  0  0  0  0
  146.5548  137.8417  150.8104 H   0  0  0  0  0  0  0  0  0  0  0  0
  145.3794  137.1060  152.9020 H   0  0  0  0  0  0  0  0  0  0  0  0
  145.1744  138.8646  153.3996 H   0  0  0  0  0  0  0  0  0  0  0  0
  147.6020  142.6264  153.9090 H   0  0  0  0  0  0  0  0  0  0  0  0
  1  2  1  0  0  0  0
  1 21  1  0  0  0  0
  1 22  1  0  0  0  0
  1 23  1  0  0  0  0
  2  3  1  0  0  0  0
  3  7  1  0  0  0  0
  3  4  1  0  0  0  0
  3 24  1  0  0  0  0
  4  5  1  0  0  0  0
  4 25  1  0  0  0  0
  4 26  1  0  0  0  0
  5  6  1  0  0  0  0
  5 27  1  0  0  0  0
  5 28  1  0  0  0  0
  6  7  1  0  0  0  0
  6 29  1  0  0  0  0
  6 30  1  0  0  0  0
  7  8  1  0  0  0  0
  7 31  1  0  0  0  0
  8  9  1  0  0  0  0
  8 32  1  0  0  0  0
  9 10  2  0  0  0  0
  9 11  1  0  0  0  0
 11 12  1  0  0  0  0
 11 33  1  0  0  0  0
 12 20  1  0  0  0  0
 12 13  2  0  0  0  0
 13 14  1  0  0  0  0
 13 34  1  0  0  0  0
 14 15  2  0  0  0  0
 15 16  1  0  0  0  0
 15 19  1  0  0  0  0
 16 18  1  0  0  0  0
 16 17  1  0  0  0  0
 16 35  1  0  0  0  0
 17 18  1  0  0  0  0
 17 36  1  0  0  0  0
 17 37  1  0  0  0  0
 18 38  1  0  0  0  0
 18 39  1  0  0  0  0
 19 20  2  0  0  0  0
 20 40  1  0  0  0  0
M  END
> <s_m_source_file>
AV-unprocessed.smi

> <i_m_source_file_index>
2709

> <i_lp_mmshare_version>
43012

> <i_f3d_flags>
0

> <s_epik_input>
W0NIM11PW0NAQEhdMVtDSDJdW0NIMl1bQ0gyXVtDQEhdMVtOSF1DKD1PKVtOSF1jMltjSF1uYyhuW2NIXTIpW0NIXTNbQ0gyXVtDSDJdMw==

> <s_epik_cmdline>
J2VwaWtfcHl0aG9uJywgJy1waCcsICc3LjAnLCAnLXRuJywgJzgnLCAnLW1hJywgJzIwMCcsICctbWV0YWxfYmluZGluZycsICctaW1hZScsICc8aW5maWxlLm1hZT4nLCAnLW9tYWUnLCAnPG91dGZpbGUubWFlPic=

> <r_lp_tautomer_probability>
1

> <r_epik_Ionization_Penalty>
2.49969e-05

> <r_epik_Ionization_Penalty_Charging>
0

> <r_epik_Ionization_Penalty_Neutral>
2.49969e-05

> <r_epik_State_Penalty>
-0

> <r_epik_Charging_Adjusted_Penalty>
0

> <i_epik_Tot_Q>
0

> <i_epik_Tot_abs_Q>
0

> <r_epik_Metal_State_Penalty>
-0

> <b_epik_Metal_Only>
0

> <s_lp_Force_Field>
OPLS_2005

> <r_lp_Energy>
19.78

> <b_lp_Chiralities_Consistent>
1

> <s_lp_Variant>
AV-unprocessed.smi:2709-4

> <Gold.Version>
5.8.1

> <Gold.Id.Protein>
6NUR|6NUR_protein|mol2

> <Gold.PLP.Fitness>
45.9952

> <Gold.PLP.PLP>
-41.9865

> <Gold.PLP.part.hbond>
-1.8059

> <Gold.PLP.part.metal>
0.0000

> <Gold.PLP.part.buried>
-0.8195

> <Gold.PLP.part.nonpolar>
-41.3352

> <Gold.PLP.part.repulsive>
0.4808

> <Gold.PLP.ligand.clash>
0.0000

> <Gold.PLP.ligand.torsion>
0.4815

> <Gold.PLP.Chemscore.Hbond>
1.6145

> <Gold.PLP.Chemscore.CHOScore>
0.0000

> <Gold.PLP.Chemscore.Metal>
0.0000

> <Gold.Chemscore.Hbonds>
donor molecule, donor type, donor heavy atom, donor atom, acceptor molecule, acceptor atom, score
      L1  H     8    32       P1  8028  0.66
      L1  H    11    33       P1  8028  0.81

> <Gold.PLP.Chemscore.Internal.Correction>
0.1284

> <Gold.Rescore>
     Score         DG    S(hbond)    S(metal)    S(lipo)     H(rot)  DE(clash)    DE(int)     intcor
     17.10     -20.69       1.78        0.00     110.06       1.41       1.95       1.65       ----

> <Gold.Chemscore.Fitness>
17.0982

> <Gold.Chemscore.DG>
-20.6923

> <Gold.Chemscore.ZeroCoef>
-5.4800

> <Gold.Chemscore.Hbond>
1.7810

> <Gold.Chemscore.Metal>
0.0000

> <Gold.Chemscore.Lipo>
110.0594

> <Gold.Chemscore.Internal_Hbond>
0.0000

> <Gold.Chemscore.DEClash>
1.9487

> <Gold.Chemscore.DEInternal>
1.6453

> <Gold.Chemscore.Rot>
1.4114

> <Gold.Chemscore.Internal.Correction>
   9.000000E+99

> <Gold.Chemscore.Hbonds>
donor molecule, donor type, donor heavy atom, donor atom, acceptor molecule, acceptor atom, score
      L1  H     8    32       P1  8028  0.60
      L1  H    11    33       P1  8028  0.80

> <Gold.Chemscore.Hbond.Weighted>
-5.9486

> <Gold.Chemscore.Metal.Weighted>
-0.0000

> <Gold.Chemscore.Lipo.Weighted>
-12.8770

> <Gold.Chemscore.Internal_Hbond.Weighted>
0.0000

> <Gold.Chemscore.DEClash.Weighted>
1.9487

> <Gold.Chemscore.DEInternal.Weighted>
1.6453

> <Gold.Chemscore.Rot.Weighted>
3.6133

> <Gold.Chemscore.Internal.Correction.Weighted>
   9.000000E+99

> <Gold.Protein.RotatedTorsions>
[ 6907 6896 6895 6894 ] final  -50.40 input  -60.11 | X-H torsion
[ 7974 7965 7964 7962 ] final -120.24 input  175.53 | X-H torsion
[ 8008 7997 7996 7995 ] final -118.86 input   59.86 | X-H torsion
[ 10167 10162 10161 10158 ] final   56.25 input  -65.29 | X-H torsion
[ 10718 10713 10712 10709 ] final  102.34 input   66.30 | X-H torsion
[ 10763 10752 10751 10750 ] final -166.60 input  -60.55 | X-H torsion
[ 11005 11000 10999 10996 ] final  -82.58 input  -57.11 | X-H torsion

> <Gold.Protein.ActiveResidues>
 VAL166  LYS551  ARG553  GLY616  TRP617  ASP618  TYR619  PRO620  LYS621  CYS622 
 ASP623  PHE694  ASN695  SER759  ASP760  ASP761  ALA762  ILE779  LEU786  VAL792 
 PHE793  MET794  SER795  GLU796  ALA797  LYS798  CYS799  TRP800  GLU811  SER814 

> <Gold.Protein.RotatedAtoms>
  150.8711  134.8085  159.7155 H   0  0  0  0  0  0  0  0  0  0  0  0  # atno 6907 bound_to 6896
  152.4715  134.4945  159.9715 H   0  0  0  0  0  0  0  0  0  0  0  0  # atno 6908 bound_to 6896
  151.5034  133.3461  159.2908 H   0  0  0  0  0  0  0  0  0  0  0  0  # atno 6909 bound_to 6896
  145.0536  140.8237  143.4195 H   0  0  0  0  0  0  0  0  0  0  0  0  # atno 7974 bound_to 7965
  155.1064  140.0396  157.2711 H   0  0  0  0  0  0  0  0  0  0  0  0  # atno 8008 bound_to 7997
  154.6719  140.2614  155.6973 H   0  0  0  0  0  0  0  0  0  0  0  0  # atno 8009 bound_to 7997
  156.2661  140.2796  156.1231 H   0  0  0  0  0  0  0  0  0  0  0  0  # atno 8010 bound_to 7997
  140.2107  144.3892  150.6490 H   0  0  0  0  0  0  0  0  0  0  0  0  # atno 10167 bound_to 10162
  157.6805  131.0750  150.5389 H   0  0  0  0  0  0  0  0  0  0  0  0  # atno 10718 bound_to 10713
  154.6817  135.2955  154.9604 H   0  0  0  0  0  0  0  0  0  0  0  0  # atno 10763 bound_to 10752
  154.0597  135.6633  153.4814 H   0  0  0  0  0  0  0  0  0  0  0  0  # atno 10764 bound_to 10752
  153.0552  135.5149  154.7863 H   0  0  0  0  0  0  0  0  0  0  0  0  # atno 10765 bound_to 10752
  141.1662  133.7252  156.8593 H   0  0  0  0  0  0  0  0  0  0  0  0  # atno 11005 bound_to 11000
  145.1497  139.2522  143.5447 LP  0  0  0  0  0  0  0  0  0  0  0  0  # atno 17320 bound_to 7965
  146.3520  140.1196  142.8601 LP  0  0  0  0  0  0  0  0  0  0  0  0  # atno 17321 bound_to 7965
  140.6325  143.2189  151.6465 LP  0  0  0  0  0  0  0  0  0  0  0  0  # atno 17342 bound_to 10162
  139.5181  144.3295  152.0839 LP  0  0  0  0  0  0  0  0  0  0  0  0  # atno 17343 bound_to 10162
  156.5697  130.4276  149.6025 LP  0  0  0  0  0  0  0  0  0  0  0  0  # atno 17370 bound_to 10713
  156.2751  130.7039  151.1847 LP  0  0  0  0  0  0  0  0  0  0  0  0  # atno 17371 bound_to 10713
  140.1859  134.9000  157.3004 LP  0  0  0  0  0  0  0  0  0  0  0  0  # atno 17394 bound_to 11000
  140.2343  134.3872  155.7508 LP  0  0  0  0  0  0  0  0  0  0  0  0  # atno 17395 bound_to 11000

$$$$
