AV-unprocessed.smi:1444|AV-procd|sdf|5883|dock8
  -GOLD-   22720 5563D 1   1.00000     0.00000
 Structure written by MMmdl.
 44 45  0  0  0  0  0  0  0  0  2 V2000
  152.6855  139.8795  158.3483 C   0  0  0  0  0  0  0  0  0  0  0  0
  151.8940  141.0046  157.9823 O   0  0  0  0  0  0  0  0  0  0  0  0
  151.9482  142.1364  158.7738 C   0  0  0  0  0  0  0  0  0  0  0  0
  152.8449  142.1677  159.7911 N   0  0  0  0  0  0  0  0  0  0  0  0
  152.9009  143.2705  160.5648 C   0  0  0  0  0  0  0  0  0  0  0  0
  152.0760  144.3921  160.3654 C   0  0  0  0  0  0  0  0  0  0  0  0
  151.1446  144.3627  159.3112 C   0  0  0  0  0  0  0  0  0  0  0  0
  151.0705  143.2099  158.4902 C   0  0  0  0  0  0  0  0  0  0  0  0
  150.1741  143.0530  157.3945 N   0  0  0  0  0  0  0  0  0  0  0  0
  149.4710  141.9779  157.0003 C   0  0  0  0  0  0  0  0  0  0  0  0
  149.4625  140.8793  157.5536 O   0  0  0  0  0  0  0  0  0  0  0  0
  148.7470  142.2562  155.9062 N   0  0  0  0  0  0  0  0  0  0  0  0
  147.8890  141.3215  155.1767 C   0  0  2  0  0  0  0  0  0  0  0  0
  148.7515  140.1718  154.6386 C   0  0  0  0  0  0  0  0  0  0  0  0
  147.1260  142.0301  154.0338 C   0  0  0  0  0  0  0  0  0  0  0  0
  146.1433  143.0307  154.5217 N   0  3  0  0  0  0  0  0  0  0  0  0
  145.4861  143.7809  153.4263 C   0  0  0  0  0  0  0  0  0  0  0  0
  144.5415  144.8484  154.0050 C   0  0  0  0  0  0  0  0  0  0  0  0
  143.5846  144.2293  154.8561 O   0  0  0  0  0  0  0  0  0  0  0  0
  144.1978  143.5710  155.9581 C   0  0  0  0  0  0  0  0  0  0  0  0
  145.1283  142.4616  155.4415 C   0  0  0  0  0  0  0  0  0  0  0  0
  152.5265  139.0782  157.6268 H   0  0  0  0  0  0  0  0  0  0  0  0
  152.4071  139.4984  159.3321 H   0  0  0  0  0  0  0  0  0  0  0  0
  153.7495  140.1207  158.3444 H   0  0  0  0  0  0  0  0  0  0  0  0
  153.6251  143.2587  161.3658 H   0  0  0  0  0  0  0  0  0  0  0  0
  152.1556  145.2562  161.0081 H   0  0  0  0  0  0  0  0  0  0  0  0
  150.5165  145.2257  159.1642 H   0  0  0  0  0  0  0  0  0  0  0  0
  150.0672  143.8775  156.8212 H   0  0  0  0  0  0  0  0  0  0  0  0
  148.8172  143.1889  155.5258 H   0  0  0  0  0  0  0  0  0  0  0  0
  147.1728  140.8781  155.8699 H   0  0  0  0  0  0  0  0  0  0  0  0
  148.1402  139.4331  154.1195 H   0  0  0  0  0  0  0  0  0  0  0  0
  149.2703  139.6570  155.4482 H   0  0  0  0  0  0  0  0  0  0  0  0
  149.5044  140.5324  153.9367 H   0  0  0  0  0  0  0  0  0  0  0  0
  147.8586  142.5290  153.3972 H   0  0  0  0  0  0  0  0  0  0  0  0
  146.6191  141.3029  153.3976 H   0  0  0  0  0  0  0  0  0  0  0  0
  146.2389  144.2605  152.7996 H   0  0  0  0  0  0  0  0  0  0  0  0
  144.9291  143.0905  152.7907 H   0  0  0  0  0  0  0  0  0  0  0  0
  145.1010  145.6056  154.5570 H   0  0  0  0  0  0  0  0  0  0  0  0
  144.0176  145.3633  153.1994 H   0  0  0  0  0  0  0  0  0  0  0  0
  144.7489  144.2891  156.5676 H   0  0  0  0  0  0  0  0  0  0  0  0
  143.4207  143.1441  156.5924 H   0  0  0  0  0  0  0  0  0  0  0  0
  144.5464  141.6991  154.9217 H   0  0  0  0  0  0  0  0  0  0  0  0
  145.6115  141.9727  156.2869 H   0  0  0  0  0  0  0  0  0  0  0  0
  146.6700  143.7106  155.0521 H   0  0  0  0  0  0  0  0  0  0  0  0
  1  2  1  0  0  0  0
  1 22  1  0  0  0  0
  1 23  1  0  0  0  0
  1 24  1  0  0  0  0
  2  3  1  0  0  0  0
  3  8  1  0  0  0  0
  3  4  2  0  0  0  0
  4  5  1  0  0  0  0
  5  6  2  0  0  0  0
  5 25  1  0  0  0  0
  6  7  1  0  0  0  0
  6 26  1  0  0  0  0
  7  8  2  0  0  0  0
  7 27  1  0  0  0  0
  8  9  1  0  0  0  0
  9 10  1  0  0  0  0
  9 28  1  0  0  0  0
 10 11  2  0  0  0  0
 10 12  1  0  0  0  0
 12 13  1  0  0  0  0
 12 29  1  0  0  0  0
 13 14  1  0  0  0  0
 13 15  1  0  0  0  0
 13 30  1  0  0  0  0
 14 31  1  0  0  0  0
 14 32  1  0  0  0  0
 14 33  1  0  0  0  0
 15 16  1  0  0  0  0
 15 34  1  0  0  0  0
 15 35  1  0  0  0  0
 16 21  1  0  0  0  0
 16 17  1  0  0  0  0
 16 44  1  0  0  0  0
 17 18  1  0  0  0  0
 17 36  1  0  0  0  0
 17 37  1  0  0  0  0
 18 19  1  0  0  0  0
 18 38  1  0  0  0  0
 18 39  1  0  0  0  0
 19 20  1  0  0  0  0
 20 21  1  0  0  0  0
 20 40  1  0  0  0  0
 20 41  1  0  0  0  0
 21 42  1  0  0  0  0
 21 43  1  0  0  0  0
M  CHG  1  16   1
M  END
> <s_m_source_file>
AV-unprocessed.smi

> <i_m_source_file_index>
1444

> <i_lp_mmshare_version>
43012

> <i_f3d_flags>
0

> <s_epik_input>
W0NIM11PYzFuW2NIXVtjSF1bY0hdYzFbTkhdQyg9TylbTkhdW0NASF0oW0NIM10pW0NIMl1OMltDSDJdW0NIMl1PW0NIMl1bQ0gyXTI=

> <s_epik_cmdline>
J2VwaWtfcHl0aG9uJywgJy1waCcsICc3LjAnLCAnLXRuJywgJzgnLCAnLW1hJywgJzIwMCcsICctbWV0YWxfYmluZGluZycsICctaW1hZScsICc8aW5maWxlLm1hZT4nLCAnLW9tYWUnLCAnPG91dGZpbGUubWFlPic=

> <r_lp_tautomer_probability>
1

> <r_epik_Ionization_Penalty>
0.602604

> <r_epik_Ionization_Penalty_Charging>
0.602531

> <r_epik_Ionization_Penalty_Neutral>
7.37688e-05

> <r_epik_State_Penalty>
0.617039

> <r_epik_Charging_Adjusted_Penalty>
1.21957

> <i_epik_Tot_Q>
1

> <i_epik_Tot_abs_Q>
1

> <r_epik_Metal_State_Penalty>
0.617045

> <b_epik_Metal_Only>
0

> <s_lp_Force_Field>
OPLS_2005

> <r_lp_Energy>
24.7121

> <b_lp_Chiralities_Consistent>
1

> <s_lp_Variant>
AV-unprocessed.smi:1444-3

> <Gold.Version>
5.8.1

> <Gold.Id.Protein>
6NUR|6NUR_protein|mol2

> <Gold.PLP.Fitness>
41.4926

> <Gold.PLP.PLP>
-37.7761

> <Gold.PLP.part.hbond>
-1.7835

> <Gold.PLP.part.metal>
0.0000

> <Gold.PLP.part.buried>
-8.2632

> <Gold.PLP.part.nonpolar>
-28.5929

> <Gold.PLP.part.repulsive>
0.3775

> <Gold.PLP.ligand.clash>
1.1054

> <Gold.PLP.ligand.torsion>
0.3883

> <Gold.PLP.Chemscore.Hbond>
1.8529

> <Gold.PLP.Chemscore.CHOScore>
0.0000

> <Gold.PLP.Chemscore.Metal>
0.0000

> <Gold.Chemscore.Hbonds>
donor molecule, donor type, donor heavy atom, donor atom, acceptor molecule, acceptor atom, score
      L1  H     9    28       P1  8028  0.86
      L1  H    12    29       P1  8028  1.00

> <Gold.PLP.Chemscore.Internal.Correction>
0.0398

> <Gold.Rescore>
     Score         DG    S(hbond)    S(metal)    S(lipo)     H(rot)  DE(clash)    DE(int)     intcor
     12.58     -17.21       1.70        0.00      90.76       1.78       0.03       4.60       ----

> <Gold.Chemscore.Fitness>
12.5803

> <Gold.Chemscore.DG>
-17.2119

> <Gold.Chemscore.ZeroCoef>
-5.4800

> <Gold.Chemscore.Hbond>
1.6977

> <Gold.Chemscore.Metal>
0.0000

> <Gold.Chemscore.Lipo>
90.7566

> <Gold.Chemscore.Internal_Hbond>
0.0000

> <Gold.Chemscore.DEClash>
0.0282

> <Gold.Chemscore.DEInternal>
4.6034

> <Gold.Chemscore.Rot>
1.7801

> <Gold.Chemscore.Internal.Correction>
   9.000000E+99

> <Gold.Chemscore.Hbonds>
donor molecule, donor type, donor heavy atom, donor atom, acceptor molecule, acceptor atom, score
      L1  H     9    28       P1  8028  0.84
      L1  H    12    29       P1  8028  0.91

> <Gold.Chemscore.Hbond.Weighted>
-5.6704

> <Gold.Chemscore.Metal.Weighted>
-0.0000

> <Gold.Chemscore.Lipo.Weighted>
-10.6185

> <Gold.Chemscore.Internal_Hbond.Weighted>
0.0000

> <Gold.Chemscore.DEClash.Weighted>
0.0282

> <Gold.Chemscore.DEInternal.Weighted>
4.6034

> <Gold.Chemscore.Rot.Weighted>
4.5570

> <Gold.Chemscore.Internal.Correction.Weighted>
   9.000000E+99

> <Gold.Protein.RotatedTorsions>
[ 6907 6896 6895 6894 ] final  153.42 input  -60.11 | X-H torsion
[ 7974 7965 7964 7962 ] final  113.45 input  175.53 | X-H torsion
[ 8008 7997 7996 7995 ] final  -35.12 input   59.86 | X-H torsion
[ 10167 10162 10161 10158 ] final   16.50 input  -65.29 | X-H torsion
[ 10718 10713 10712 10709 ] final -108.48 input   66.30 | X-H torsion
[ 10763 10752 10751 10750 ] final -119.33 input  -60.55 | X-H torsion
[ 11005 11000 10999 10996 ] final -132.98 input  -57.11 | X-H torsion

> <Gold.Protein.ActiveResidues>
 VAL166  LYS551  ARG553  GLY616  TRP617  ASP618  TYR619  PRO620  LYS621  CYS622 
 ASP623  PHE694  ASN695  SER759  ASP760  ASP761  ALA762  ILE779  LEU786  VAL792 
 PHE793  MET794  SER795  GLU796  ALA797  LYS798  CYS799  TRP800  GLU811  SER814 

> <Gold.Protein.RotatedAtoms>
  152.0729  133.4115  159.4466 H   0  0  0  0  0  0  0  0  0  0  0  0  # atno 6907 bound_to 6896
  150.6863  134.3071  159.4740 H   0  0  0  0  0  0  0  0  0  0  0  0  # atno 6908 bound_to 6896
  152.0904  134.9410  160.0622 H   0  0  0  0  0  0  0  0  0  0  0  0  # atno 6909 bound_to 6896
  145.2167  139.2881  143.4240 H   0  0  0  0  0  0  0  0  0  0  0  0  # atno 7974 bound_to 7965
  154.4103  140.1665  156.2161 H   0  0  0  0  0  0  0  0  0  0  0  0  # atno 8008 bound_to 7997
  155.9403  140.3408  155.6299 H   0  0  0  0  0  0  0  0  0  0  0  0  # atno 8009 bound_to 7997
  155.6997  140.0743  157.2406 H   0  0  0  0  0  0  0  0  0  0  0  0  # atno 8010 bound_to 7997
  140.5792  143.9013  150.6776 H   0  0  0  0  0  0  0  0  0  0  0  0  # atno 10167 bound_to 10162
  156.0488  130.5715  150.7967 H   0  0  0  0  0  0  0  0  0  0  0  0  # atno 10718 bound_to 10713
  154.8614  135.4242  154.2282 H   0  0  0  0  0  0  0  0  0  0  0  0  # atno 10763 bound_to 10752
  153.3273  135.6986  153.6984 H   0  0  0  0  0  0  0  0  0  0  0  0  # atno 10764 bound_to 10752
  153.6015  135.3536  155.2920 H   0  0  0  0  0  0  0  0  0  0  0  0  # atno 10765 bound_to 10752
  140.9122  134.1553  157.4381 H   0  0  0  0  0  0  0  0  0  0  0  0  # atno 11005 bound_to 11000
  146.3385  140.2460  142.8597 LP  0  0  0  0  0  0  0  0  0  0  0  0  # atno 17320 bound_to 7965
  144.9804  140.8454  143.5401 LP  0  0  0  0  0  0  0  0  0  0  0  0  # atno 17321 bound_to 7965
  140.2508  143.3595  152.1407 LP  0  0  0  0  0  0  0  0  0  0  0  0  # atno 17342 bound_to 10162
  139.5160  144.6971  151.5598 LP  0  0  0  0  0  0  0  0  0  0  0  0  # atno 17343 bound_to 10162
  157.5392  131.0940  150.9851 LP  0  0  0  0  0  0  0  0  0  0  0  0  # atno 17370 bound_to 10713
  157.0138  130.5647  149.5323 LP  0  0  0  0  0  0  0  0  0  0  0  0  # atno 17371 bound_to 10713
  139.8759  134.9940  156.5671 LP  0  0  0  0  0  0  0  0  0  0  0  0  # atno 17394 bound_to 11000
  140.8096  133.8440  155.8798 LP  0  0  0  0  0  0  0  0  0  0  0  0  # atno 17395 bound_to 11000

$$$$
