AV-unprocessed.smi:891|AV-procd|sdf|4063|dock6
  -GOLD-   22720 1553D 1   1.00000     0.00000
 Structure written by MMmdl.
 38 38  0  0  0  0  0  0  0  0  1 V2000
  154.0430  140.6010  160.9845 C   0  0  0  0  0  0  0  0  0  0  0  0
  153.2295  141.7554  160.4765 C   0  0  0  0  0  0  0  0  0  0  0  0
  152.8332  141.7883  159.2134 N   0  0  0  0  0  0  0  0  0  0  0  0
  152.1474  142.9526  159.0775 N   0  0  0  0  0  0  0  0  0  0  0  0
  151.6327  143.3110  157.7626 C   0  0  0  0  0  0  0  0  0  0  0  0
  150.9091  142.1173  157.1384 C   0  0  0  0  0  0  0  0  0  0  0  0
  151.1505  140.9753  157.5277 O   0  0  0  0  0  0  0  0  0  0  0  0
  150.0703  142.4006  156.1303 N   0  0  0  0  0  0  0  0  0  0  0  0
  149.5190  141.4366  155.1847 C   0  0  0  0  0  0  0  0  0  0  0  0
  147.9740  141.4597  155.2086 C   0  0  2  0  0  0  0  0  0  0  0  0
  147.4296  140.0350  155.4078 C   0  0  0  0  0  0  0  0  0  0  0  0
  147.3705  142.1325  153.9508 C   0  0  0  0  0  0  0  0  0  0  0  0
  145.9936  142.7738  154.1825 C   0  0  0  0  0  0  0  0  0  0  0  0
  145.1055  141.8113  154.7090 O   0  0  0  0  0  0  0  0  0  0  0  0
  152.0878  143.6634  160.2685 C   0  0  0  0  0  0  0  0  0  0  0  0
  151.4026  144.9833  160.4182 C   0  0  0  0  0  0  0  0  0  0  0  0
  152.7817  142.9097  161.1678 C   0  0  0  0  0  0  0  0  0  0  0  0
  153.0772  143.2937  162.8243 Cl  0  0  0  0  0  0  0  0  0  0  0  0
  153.4122  139.8791  161.5029 H   0  0  0  0  0  0  0  0  0  0  0  0
  154.8066  140.9397  161.6849 H   0  0  0  0  0  0  0  0  0  0  0  0
  154.5499  140.0791  160.1722 H   0  0  0  0  0  0  0  0  0  0  0  0
  150.9483  144.1551  157.8608 H   0  0  0  0  0  0  0  0  0  0  0  0
  152.4519  143.6372  157.1216 H   0  0  0  0  0  0  0  0  0  0  0  0
  149.9219  143.3747  155.9108 H   0  0  0  0  0  0  0  0  0  0  0  0
  149.8810  141.6139  154.1706 H   0  0  0  0  0  0  0  0  0  0  0  0
  149.8820  140.4493  155.4721 H   0  0  0  0  0  0  0  0  0  0  0  0
  147.6752  142.0486  156.0772 H   0  0  0  0  0  0  0  0  0  0  0  0
  147.6654  139.3987  154.5543 H   0  0  0  0  0  0  0  0  0  0  0  0
  146.3479  140.0306  155.5391 H   0  0  0  0  0  0  0  0  0  0  0  0
  147.8610  139.5711  156.2952 H   0  0  0  0  0  0  0  0  0  0  0  0
  148.0332  142.9211  153.5976 H   0  0  0  0  0  0  0  0  0  0  0  0
  147.3130  141.4081  153.1372 H   0  0  0  0  0  0  0  0  0  0  0  0
  146.0568  143.6097  154.8785 H   0  0  0  0  0  0  0  0  0  0  0  0
  145.5836  143.1529  153.2458 H   0  0  0  0  0  0  0  0  0  0  0  0
  144.6106  141.4363  153.9965 H   0  0  0  0  0  0  0  0  0  0  0  0
  151.2714  145.2371  161.4700 H   0  0  0  0  0  0  0  0  0  0  0  0
  150.4154  144.9713  159.9574 H   0  0  0  0  0  0  0  0  0  0  0  0
  151.9875  145.7782  159.9565 H   0  0  0  0  0  0  0  0  0  0  0  0
  1  2  1  0  0  0  0
  1 19  1  0  0  0  0
  1 20  1  0  0  0  0
  1 21  1  0  0  0  0
  2 17  1  0  0  0  0
  2  3  2  0  0  0  0
  3  4  1  0  0  0  0
  4  5  1  0  0  0  0
  4 15  1  0  0  0  0
  5  6  1  0  0  0  0
  5 22  1  0  0  0  0
  5 23  1  0  0  0  0
  6  7  2  0  0  0  0
  6  8  1  0  0  0  0
  8  9  1  0  0  0  0
  8 24  1  0  0  0  0
  9 10  1  0  0  0  0
  9 25  1  0  0  0  0
  9 26  1  0  0  0  0
 10 11  1  0  0  0  0
 10 12  1  0  0  0  0
 10 27  1  0  0  0  0
 11 28  1  0  0  0  0
 11 29  1  0  0  0  0
 11 30  1  0  0  0  0
 12 13  1  0  0  0  0
 12 31  1  0  0  0  0
 12 32  1  0  0  0  0
 13 14  1  0  0  0  0
 13 33  1  0  0  0  0
 13 34  1  0  0  0  0
 14 35  1  0  0  0  0
 15 16  1  0  0  0  0
 15 17  2  0  0  0  0
 16 36  1  0  0  0  0
 16 37  1  0  0  0  0
 16 38  1  0  0  0  0
 17 18  1  0  0  0  0
M  END
> <s_m_source_file>
AV-unprocessed.smi

> <i_m_source_file_index>
891

> <i_lp_mmshare_version>
43012

> <i_f3d_flags>
0

> <s_epik_input>
W0NIM11jMW5uKGMoW0NIM10pYzFDbClbQ0gyXUMoPU8pW05IXVtDSDJdW0NASF0oW0NIM10pW0NIMl1bQ0gyXVtPSF0=

> <s_epik_cmdline>
J2VwaWtfcHl0aG9uJywgJy1waCcsICc3LjAnLCAnLXRuJywgJzgnLCAnLW1hJywgJzIwMCcsICctbWV0YWxfYmluZGluZycsICctaW1hZScsICc8aW5maWxlLm1hZT4nLCAnLW9tYWUnLCAnPG91dGZpbGUubWFlPic=

> <r_lp_tautomer_probability>
1

> <r_epik_Ionization_Penalty>
4.9564e-06

> <r_epik_Ionization_Penalty_Charging>
0

> <r_epik_Ionization_Penalty_Neutral>
4.9564e-06

> <r_epik_State_Penalty>
-0

> <r_epik_Charging_Adjusted_Penalty>
0

> <i_epik_Tot_Q>
0

> <i_epik_Tot_abs_Q>
0

> <r_epik_Metal_State_Penalty>
-0

> <b_epik_Metal_Only>
0

> <s_lp_Force_Field>
OPLS_2005

> <r_lp_Energy>
6.31297

> <b_lp_Chiralities_Consistent>
1

> <s_lp_Variant>
AV-unprocessed.smi:891-1

> <Gold.Version>
5.8.1

> <Gold.Id.Protein>
6NUR|6NUR_protein|mol2

> <Gold.PLP.Fitness>
49.3353

> <Gold.PLP.PLP>
-46.0712

> <Gold.PLP.part.hbond>
-2.0000

> <Gold.PLP.part.metal>
0.0000

> <Gold.PLP.part.buried>
-7.6584

> <Gold.PLP.part.nonpolar>
-37.6592

> <Gold.PLP.part.repulsive>
0.1232

> <Gold.PLP.ligand.clash>
0.0000

> <Gold.PLP.ligand.torsion>
1.4188

> <Gold.PLP.Chemscore.Hbond>
2.0000

> <Gold.PLP.Chemscore.CHOScore>
0.0000

> <Gold.PLP.Chemscore.Metal>
0.0000

> <Gold.Chemscore.Hbonds>
donor molecule, donor type, donor heavy atom, donor atom, acceptor molecule, acceptor atom, score
      L1  H     8    24       P1  8028  1.00
      L1  H    14    35       P1 10175  1.00

> <Gold.PLP.Chemscore.Internal.Correction>
0.1016

> <Gold.Rescore>
     Score         DG    S(hbond)    S(metal)    S(lipo)     H(rot)  DE(clash)    DE(int)     intcor
     14.67     -17.77       1.97        0.00     106.23       2.62       0.08       3.02       ----

> <Gold.Chemscore.Fitness>
14.6680

> <Gold.Chemscore.DG>
-17.7653

> <Gold.Chemscore.ZeroCoef>
-5.4800

> <Gold.Chemscore.Hbond>
1.9688

> <Gold.Chemscore.Metal>
0.0000

> <Gold.Chemscore.Lipo>
106.2282

> <Gold.Chemscore.Internal_Hbond>
0.0000

> <Gold.Chemscore.DEClash>
0.0765

> <Gold.Chemscore.DEInternal>
3.0208

> <Gold.Chemscore.Rot>
2.6247

> <Gold.Chemscore.Internal.Correction>
   9.000000E+99

> <Gold.Chemscore.Hbonds>
donor molecule, donor type, donor heavy atom, donor atom, acceptor molecule, acceptor atom, score
      L1  H     8    24       P1  8028  0.96
      L1  H    14    35       P1 10175  0.29

> <Gold.Chemscore.Hbond.Weighted>
-6.5758

> <Gold.Chemscore.Metal.Weighted>
-0.0000

> <Gold.Chemscore.Lipo.Weighted>
-12.4287

> <Gold.Chemscore.Internal_Hbond.Weighted>
0.0000

> <Gold.Chemscore.DEClash.Weighted>
0.0765

> <Gold.Chemscore.DEInternal.Weighted>
3.0208

> <Gold.Chemscore.Rot.Weighted>
6.7192

> <Gold.Chemscore.Internal.Correction.Weighted>
   9.000000E+99

> <Gold.Protein.RotatedTorsions>
[ 6907 6896 6895 6894 ] final   22.87 input  -60.11 | X-H torsion
[ 7974 7965 7964 7962 ] final  116.98 input  175.53 | X-H torsion
[ 8008 7997 7996 7995 ] final -136.33 input   59.86 | X-H torsion
[ 10167 10162 10161 10158 ] final -166.68 input  -65.29 | X-H torsion
[ 10718 10713 10712 10709 ] final   14.82 input   66.30 | X-H torsion
[ 10763 10752 10751 10750 ] final  153.30 input  -60.55 | X-H torsion
[ 11005 11000 10999 10996 ] final  124.62 input  -57.11 | X-H torsion

> <Gold.Protein.ActiveResidues>
 VAL166  LYS551  ARG553  GLY616  TRP617  ASP618  TYR619  PRO620  LYS621  CYS622 
 ASP623  PHE694  ASN695  SER759  ASP760  ASP761  ALA762  ILE779  LEU786  VAL792 
 PHE793  MET794  SER795  GLU796  ALA797  LYS798  CYS799  TRP800  GLU811  SER814 

> <Gold.Protein.RotatedAtoms>
  151.9337  135.0245  160.0530 H   0  0  0  0  0  0  0  0  0  0  0  0  # atno 6907 bound_to 6896
  152.2096  133.4897  159.5111 H   0  0  0  0  0  0  0  0  0  0  0  0  # atno 6908 bound_to 6896
  150.6973  134.1401  159.4144 H   0  0  0  0  0  0  0  0  0  0  0  0  # atno 6909 bound_to 6896
  145.1729  139.3091  143.4458 H   0  0  0  0  0  0  0  0  0  0  0  0  # atno 7974 bound_to 7965
  155.3935  140.0501  157.3040 H   0  0  0  0  0  0  0  0  0  0  0  0  # atno 8008 bound_to 7997
  154.5025  140.2162  155.9279 H   0  0  0  0  0  0  0  0  0  0  0  0  # atno 8009 bound_to 7997
  156.1485  140.3140  155.8614 H   0  0  0  0  0  0  0  0  0  0  0  0  # atno 8010 bound_to 7997
  139.6099  144.0836  152.1831 H   0  0  0  0  0  0  0  0  0  0  0  0  # atno 10167 bound_to 10162
  157.0446  130.6245  149.5757 H   0  0  0  0  0  0  0  0  0  0  0  0  # atno 10718 bound_to 10713
  154.1339  135.2825  155.3178 H   0  0  0  0  0  0  0  0  0  0  0  0  # atno 10763 bound_to 10752
  154.6335  135.5427  153.7711 H   0  0  0  0  0  0  0  0  0  0  0  0  # atno 10764 bound_to 10752
  153.0272  135.6468  154.1489 H   0  0  0  0  0  0  0  0  0  0  0  0  # atno 10765 bound_to 10752
  139.9367  134.9639  156.8436 H   0  0  0  0  0  0  0  0  0  0  0  0  # atno 11005 bound_to 11000
  146.3466  140.1881  142.8589 LP  0  0  0  0  0  0  0  0  0  0  0  0  # atno 17320 bound_to 7965
  145.0214  140.8797  143.5164 LP  0  0  0  0  0  0  0  0  0  0  0  0  # atno 17321 bound_to 7965
  140.0452  144.5976  150.7379 LP  0  0  0  0  0  0  0  0  0  0  0  0  # atno 17342 bound_to 10162
  140.7311  143.2691  151.3946 LP  0  0  0  0  0  0  0  0  0  0  0  0  # atno 17343 bound_to 10162
  156.0027  130.5109  150.7720 LP  0  0  0  0  0  0  0  0  0  0  0  0  # atno 17370 bound_to 10713
  157.5078  131.0923  151.0236 LP  0  0  0  0  0  0  0  0  0  0  0  0  # atno 17371 bound_to 10713
  140.6057  134.0130  155.7555 LP  0  0  0  0  0  0  0  0  0  0  0  0  # atno 17394 bound_to 11000
  141.0984  133.9807  157.3121 LP  0  0  0  0  0  0  0  0  0  0  0  0  # atno 17395 bound_to 11000

$$$$
