AV-unprocessed.smi:2750|AV-procd|sdf|10589|dock4
  -GOLD-   2272015 43D 1   1.00000     0.00000
 Structure written by MMmdl.
 25 26  0  0  0  0  0  0  0  0  2 V2000
  152.2688  136.0293  156.3722 O   0  0  0  0  0  0  0  0  0  0  0  0
  152.6485  136.4138  157.4997 C   0  0  0  0  0  0  0  0  0  0  0  0
  153.0779  135.6742  158.4129 O   0  5  0  0  0  0  0  0  0  0  0  0
  152.5936  137.9175  157.7784 C   0  0  0  0  0  0  0  0  0  0  0  0
  152.0379  138.6641  156.6644 N   0  0  0  0  0  0  0  0  0  0  0  0
  150.7174  138.9716  156.4097 C   0  0  0  0  0  0  0  0  0  0  0  0
  150.7731  139.6521  155.2274 C   0  0  0  0  0  0  0  0  0  0  0  0
  149.6504  140.2110  154.4061 C   0  0  0  0  0  0  0  0  0  0  0  0
  148.5042  139.2005  154.1963 C   0  0  2  0  0  0  0  0  0  0  0  0
  148.4292  138.6899  152.8375 N   0  0  0  0  0  0  0  0  0  0  0  0
  147.2508  138.9522  152.2568 C   0  0  0  0  0  0  0  0  0  0  0  0
  146.9198  138.6336  151.1173 O   0  0  0  0  0  0  0  0  0  0  0  0
  146.4986  139.6238  153.1356 N   0  0  0  0  0  0  0  0  0  0  0  0
  147.1293  139.8347  154.2897 C   0  0  0  0  0  0  0  0  0  0  0  0
  146.6970  140.4359  155.2711 O   0  0  0  0  0  0  0  0  0  0  0  0
  152.1050  139.7377  154.8220 N   0  0  0  0  0  0  0  0  0  0  0  0
  152.8549  139.1403  155.6940 N   0  0  0  0  0  0  0  0  0  0  0  0
  151.9774  138.0950  158.6602 H   0  0  0  0  0  0  0  0  0  0  0  0
  153.5908  138.2991  158.0048 H   0  0  0  0  0  0  0  0  0  0  0  0
  149.8999  138.6744  157.0497 H   0  0  0  0  0  0  0  0  0  0  0  0
  149.2556  141.1053  154.8897 H   0  0  0  0  0  0  0  0  0  0  0  0
  150.0337  140.5441  153.4401 H   0  0  0  0  0  0  0  0  0  0  0  0
  148.5824  138.3661  154.8950 H   0  0  0  0  0  0  0  0  0  0  0  0
  149.1918  138.1977  152.3942 H   0  0  0  0  0  0  0  0  0  0  0  0
  145.5618  139.9453  152.9411 H   0  0  0  0  0  0  0  0  0  0  0  0
  1  2  2  0  0  0  0
  2  3  1  0  0  0  0
  2  4  1  0  0  0  0
  4  5  1  0  0  0  0
  4 18  1  0  0  0  0
  4 19  1  0  0  0  0
  5 17  1  0  0  0  0
  5  6  1  0  0  0  0
  6  7  2  0  0  0  0
  6 20  1  0  0  0  0
  7  8  1  0  0  0  0
  7 16  1  0  0  0  0
  8  9  1  0  0  0  0
  8 21  1  0  0  0  0
  8 22  1  0  0  0  0
  9 14  1  0  0  0  0
  9 10  1  0  0  0  0
  9 23  1  0  0  0  0
 10 11  1  0  0  0  0
 10 24  1  0  0  0  0
 11 12  2  0  0  0  0
 11 13  1  0  0  0  0
 13 14  1  0  0  0  0
 13 25  1  0  0  0  0
 14 15  2  0  0  0  0
 16 17  2  0  0  0  0
M  CHG  1   3  -1
M  END
> <s_m_source_file>
AV-unprocessed.smi

> <i_m_source_file_index>
2750

> <i_lp_mmshare_version>
43012

> <i_f3d_flags>
0

> <s_epik_input>
Tz1DKFtPSF0pW0NIMl1uMVtjSF1jKG5uMSlbQ0gyXVtDQEBIXTJbTkhdQyg9TylbTkhdQzI9Tw==

> <s_epik_cmdline>
J2VwaWtfcHl0aG9uJywgJy1waCcsICc3LjAnLCAnLXRuJywgJzgnLCAnLW1hJywgJzIwMCcsICctbWV0YWxfYmluZGluZycsICctaW1hZScsICc8aW5maWxlLm1hZT4nLCAnLW9tYWUnLCAnPG91dGZpbGUubWFlPic=

> <r_lp_tautomer_probability>
1

> <r_epik_Ionization_Penalty>
0.019671

> <r_epik_Ionization_Penalty_Charging>
2.66176e-05

> <r_epik_Ionization_Penalty_Neutral>
0.0196444

> <r_epik_State_Penalty>
0.0155882

> <r_epik_Charging_Adjusted_Penalty>
0.0156148

> <i_epik_Tot_Q>
-1

> <i_epik_Tot_abs_Q>
1

> <r_epik_Metal_State_Penalty>
0.396229

> <b_epik_Metal_Only>
0

> <s_lp_Force_Field>
OPLS_2005

> <r_lp_Energy>
13.3356

> <b_lp_Chiralities_Consistent>
1

> <s_lp_Variant>
AV-unprocessed.smi:2750-1

> <Gold.Version>
5.8.1

> <Gold.Id.Protein>
6NUR|6NUR_protein|mol2

> <Gold.PLP.Fitness>
41.6149

> <Gold.PLP.PLP>
-23.2016

> <Gold.PLP.part.hbond>
-7.9057

> <Gold.PLP.part.metal>
0.0000

> <Gold.PLP.part.buried>
-2.0375

> <Gold.PLP.part.nonpolar>
-13.8325

> <Gold.PLP.part.repulsive>
0.7687

> <Gold.PLP.ligand.clash>
0.0000

> <Gold.PLP.ligand.torsion>
1.1190

> <Gold.PLP.Chemscore.Hbond>
6.8719

> <Gold.PLP.Chemscore.CHOScore>
0.0000

> <Gold.PLP.Chemscore.Metal>
0.0000

> <Gold.Chemscore.Hbonds>
donor molecule, donor type, donor heavy atom, donor atom, acceptor molecule, acceptor atom, score
      L1  H    10    24       P1  7948  0.42
      L1  H    13    25       P1 10175  1.00
      P1  H  6896  6909       L1     3  0.83
      P1  H  7954  7966       L1    12  1.00
      P1  H  7989  7998       L1    16  0.50
      P1  H  7997  8009       L1    17  1.00
      P1  H 10752 10765       L1     1  2.00

> <Gold.PLP.Chemscore.Internal.Correction>
0.0355

> <Gold.Rescore>
     Score         DG    S(hbond)    S(metal)    S(lipo)     H(rot)  DE(clash)    DE(int)     intcor
     16.00     -17.32       4.72        0.00      28.52       2.84       0.17       1.14       ----

> <Gold.Chemscore.Fitness>
16.0033

> <Gold.Chemscore.DG>
-17.3152

> <Gold.Chemscore.ZeroCoef>
-5.4800

> <Gold.Chemscore.Hbond>
4.7175

> <Gold.Chemscore.Metal>
0.0000

> <Gold.Chemscore.Lipo>
28.5233

> <Gold.Chemscore.Internal_Hbond>
0.0000

> <Gold.Chemscore.DEClash>
0.1713

> <Gold.Chemscore.DEInternal>
1.1405

> <Gold.Chemscore.Rot>
2.8354

> <Gold.Chemscore.Internal.Correction>
   9.000000E+99

> <Gold.Chemscore.Hbonds>
donor molecule, donor type, donor heavy atom, donor atom, acceptor molecule, acceptor atom, score
      L1  H    10    24       P1  7948  0.36
      L1  H    13    25       P1 10175  0.95
      P1  H  6896  6909       L1     3  0.41
      P1  H  7954  7966       L1    12  0.94
      P1  H  7989  7998       L1    16  0.04
      P1  H  7997  8009       L1    17  0.64
      P1  H 10752 10765       L1     1  1.00

> <Gold.Chemscore.Hbond.Weighted>
-15.7565

> <Gold.Chemscore.Metal.Weighted>
-0.0000

> <Gold.Chemscore.Lipo.Weighted>
-3.3372

> <Gold.Chemscore.Internal_Hbond.Weighted>
0.0000

> <Gold.Chemscore.DEClash.Weighted>
0.1713

> <Gold.Chemscore.DEInternal.Weighted>
1.1405

> <Gold.Chemscore.Rot.Weighted>
7.2586

> <Gold.Chemscore.Internal.Correction.Weighted>
   9.000000E+99

> <Gold.Protein.RotatedTorsions>
[ 6907 6896 6895 6894 ] final -175.21 input  -60.11 | X-H torsion
[ 7974 7965 7964 7962 ] final   42.34 input  175.53 | X-H torsion
[ 8008 7997 7996 7995 ] final -137.16 input   59.86 | X-H torsion
[ 10167 10162 10161 10158 ] final -171.82 input  -65.29 | X-H torsion
[ 10718 10713 10712 10709 ] final  147.14 input   66.30 | X-H torsion
[ 10763 10752 10751 10750 ] final -152.37 input  -60.55 | X-H torsion
[ 11005 11000 10999 10996 ] final  177.50 input  -57.11 | X-H torsion

> <Gold.Protein.ActiveResidues>
 VAL166  LYS551  ARG553  GLY616  TRP617  ASP618  TYR619  PRO620  LYS621  CYS622 
 ASP623  PHE694  ASN695  SER759  ASP760  ASP761  ALA762  ILE779  LEU786  VAL792 
 PHE793  MET794  SER795  GLU796  ALA797  LYS798  CYS799  TRP800  GLU811  SER814 

> <Gold.Protein.RotatedAtoms>
  151.5848  133.3373  159.3015 H   0  0  0  0  0  0  0  0  0  0  0  0  # atno 6907 bound_to 6896
  150.8293  134.7542  159.6851 H   0  0  0  0  0  0  0  0  0  0  0  0  # atno 6908 bound_to 6896
  152.4378  134.5657  159.9958 H   0  0  0  0  0  0  0  0  0  0  0  0  # atno 6909 bound_to 6896
  146.0748  139.5312  142.9574 H   0  0  0  0  0  0  0  0  0  0  0  0  # atno 7974 bound_to 7965
  155.4072  140.0510  157.3033 H   0  0  0  0  0  0  0  0  0  0  0  0  # atno 8008 bound_to 7997
  154.4963  140.2139  155.9400 H   0  0  0  0  0  0  0  0  0  0  0  0  # atno 8009 bound_to 7997
  156.1409  140.3154  155.8500 H   0  0  0  0  0  0  0  0  0  0  0  0  # atno 8010 bound_to 7997
  139.5780  144.1487  152.1477 H   0  0  0  0  0  0  0  0  0  0  0  0  # atno 10167 bound_to 10162
  157.3246  131.0910  151.1212 H   0  0  0  0  0  0  0  0  0  0  0  0  # atno 10718 bound_to 10713
  154.7998  135.3238  154.7577 H   0  0  0  0  0  0  0  0  0  0  0  0  # atno 10763 bound_to 10752
  153.8248  135.6884  153.4826 H   0  0  0  0  0  0  0  0  0  0  0  0  # atno 10764 bound_to 10752
  153.1709  135.4623  154.9844 H   0  0  0  0  0  0  0  0  0  0  0  0  # atno 10765 bound_to 10752
  140.3848  134.6914  157.4473 H   0  0  0  0  0  0  0  0  0  0  0  0  # atno 11005 bound_to 11000
  145.6325  141.0301  143.1855 LP  0  0  0  0  0  0  0  0  0  0  0  0  # atno 17320 bound_to 7965
  144.7255  139.7891  143.7366 LP  0  0  0  0  0  0  0  0  0  0  0  0  # atno 17321 bound_to 7965
  140.1034  144.5519  150.6973 LP  0  0  0  0  0  0  0  0  0  0  0  0  # atno 17342 bound_to 10162
  140.7061  143.2469  151.4721 LP  0  0  0  0  0  0  0  0  0  0  0  0  # atno 17343 bound_to 10162
  157.2484  130.6602  149.5920 LP  0  0  0  0  0  0  0  0  0  0  0  0  # atno 17370 bound_to 10713
  155.9689  130.4546  150.5856 LP  0  0  0  0  0  0  0  0  0  0  0  0  # atno 17371 bound_to 10713
  140.0451  134.6211  155.8932 LP  0  0  0  0  0  0  0  0  0  0  0  0  # atno 17394 bound_to 11000
  141.1911  133.6570  156.5441 LP  0  0  0  0  0  0  0  0  0  0  0  0  # atno 17395 bound_to 11000

$$$$
