AV-unprocessed.smi:276|AV-procd|sdf|2075|dock10
  -GOLD-   2262021343D 1   1.00000     0.00000
 Structure written by MMmdl.
 57 61  0  0  0  0  0  0  0  0  1 V2000
  142.6648  135.1901  162.4655 C   0  0  0  0  0  0  0  0  0  0  0  0
  143.9495  135.3812  161.8998 O   0  0  0  0  0  0  0  0  0  0  0  0
  144.9933  134.8526  162.7062 C   0  0  1  0  0  0  0  0  0  0  0  0
  145.2437  133.3578  162.4518 C   0  0  0  0  0  0  0  0  0  0  0  0
  146.2733  133.7413  161.3702 C   0  0  1  0  0  0  0  0  0  0  0  0
  145.6661  133.7572  160.0318 N   0  0  0  0  0  0  0  0  0  0  0  0
  144.7885  132.6353  159.7139 C   0  0  0  0  0  0  0  0  0  0  0  0
  146.5193  133.9744  159.0077 C   0  0  0  0  0  0  0  0  0  0  0  0
  147.7801  134.3595  159.3253 N   0  0  0  0  0  0  0  0  0  0  0  0
  148.6742  134.5807  158.3569 C   0  0  0  0  0  0  0  0  0  0  0  0
  148.5141  134.4872  157.0349 N   0  0  0  0  0  0  0  0  0  0  0  0
  147.2408  134.1184  156.7143 C   0  0  0  0  0  0  0  0  0  0  0  0
  146.1862  133.8447  157.6296 C   0  0  0  0  0  0  0  0  0  0  0  0
  145.0319  133.5037  156.9349 N   0  0  0  0  0  0  0  0  0  0  0  0
  145.3838  133.5729  155.6802 C   0  0  0  0  0  0  0  0  0  0  0  0
  146.6907  133.9433  155.4573 N   0  0  0  0  0  0  0  0  0  0  0  0
  147.3400  134.1090  154.1696 C   0  0  0  0  0  0  0  0  0  0  0  0
  146.3478  134.3155  153.0042 C   0  0  1  0  0  0  0  0  0  0  0  0
  146.4243  135.6774  152.6322 O   0  0  0  0  0  0  0  0  0  0  0  0
  146.6137  133.4355  151.7606 C   0  0  2  0  0  0  0  0  0  0  0  0
  145.6347  133.6716  150.6056 C   0  0  0  0  0  0  0  0  0  0  0  0
  145.6644  132.3448  149.8841 C   0  0  0  0  0  0  0  0  0  0  0  0
  145.7336  131.3719  151.0531 C   0  0  0  0  0  0  0  0  0  0  0  0
  146.4686  132.0479  152.0677 O   0  0  0  0  0  0  0  0  0  0  0  0
  146.3755  135.1161  162.0842 C   0  0  0  0  0  0  0  0  0  0  0  0
  147.5553  135.3870  163.0345 C   0  0  0  0  0  0  0  0  0  0  0  0
  147.3941  136.8781  162.7293 C   0  0  0  0  0  0  0  0  0  0  0  0
  146.7222  136.4643  161.4194 C   0  0  0  0  0  0  0  0  0  0  0  0
  141.9086  135.6103  161.8027 H   0  0  0  0  0  0  0  0  0  0  0  0
  142.5831  135.6924  163.4301 H   0  0  0  0  0  0  0  0  0  0  0  0
  142.4409  134.1319  162.6016 H   0  0  0  0  0  0  0  0  0  0  0  0
  144.9211  135.1341  163.7580 H   0  0  0  0  0  0  0  0  0  0  0  0
  145.7107  132.8680  163.3076 H   0  0  0  0  0  0  0  0  0  0  0  0
  144.3728  132.7962  162.1156 H   0  0  0  0  0  0  0  0  0  0  0  0
  147.1842  133.1461  161.4380 H   0  0  0  0  0  0  0  0  0  0  0  0
  144.5905  132.5602  158.6433 H   0  0  0  0  0  0  0  0  0  0  0  0
  143.8261  132.7504  160.2112 H   0  0  0  0  0  0  0  0  0  0  0  0
  145.2319  131.6948  160.0426 H   0  0  0  0  0  0  0  0  0  0  0  0
  149.6584  134.8757  158.6891 H   0  0  0  0  0  0  0  0  0  0  0  0
  144.6911  133.3647  154.8779 H   0  0  0  0  0  0  0  0  0  0  0  0
  148.0177  134.9607  154.2423 H   0  0  0  0  0  0  0  0  0  0  0  0
  147.9614  133.2318  153.9839 H   0  0  0  0  0  0  0  0  0  0  0  0
  145.3322  134.1331  153.3570 H   0  0  0  0  0  0  0  0  0  0  0  0
  147.2195  135.8092  152.1391 H   0  0  0  0  0  0  0  0  0  0  0  0
  147.6320  133.5899  151.4001 H   0  0  0  0  0  0  0  0  0  0  0  0
  144.6299  133.8624  150.9856 H   0  0  0  0  0  0  0  0  0  0  0  0
  145.9223  134.5087  149.9688 H   0  0  0  0  0  0  0  0  0  0  0  0
  144.7968  132.1823  149.2441 H   0  0  0  0  0  0  0  0  0  0  0  0
  146.5645  132.2675  149.2726 H   0  0  0  0  0  0  0  0  0  0  0  0
  144.7332  131.1608  151.4332 H   0  0  0  0  0  0  0  0  0  0  0  0
  146.2022  130.4253  150.7837 H   0  0  0  0  0  0  0  0  0  0  0  0
  147.3849  135.1128  164.0759 H   0  0  0  0  0  0  0  0  0  0  0  0
  148.4977  134.9812  162.6624 H   0  0  0  0  0  0  0  0  0  0  0  0
  146.7099  137.3810  163.4148 H   0  0  0  0  0  0  0  0  0  0  0  0
  148.3292  137.4262  162.6114 H   0  0  0  0  0  0  0  0  0  0  0  0
  147.4495  136.3847  160.6112 H   0  0  0  0  0  0  0  0  0  0  0  0
  145.8671  137.0755  161.1304 H   0  0  0  0  0  0  0  0  0  0  0  0
  1  2  1  0  0  0  0
  1 29  1  0  0  0  0
  1 30  1  0  0  0  0
  1 31  1  0  0  0  0
  2  3  1  0  0  0  0
  3 25  1  0  0  0  0
  3  4  1  0  0  0  0
  3 32  1  0  0  0  0
  4  5  1  0  0  0  0
  4 33  1  0  0  0  0
  4 34  1  0  0  0  0
  5  6  1  0  0  0  0
  5 25  1  0  0  0  0
  5 35  1  0  0  0  0
  6  7  1  0  0  0  0
  6  8  1  0  0  0  0
  7 36  1  0  0  0  0
  7 37  1  0  0  0  0
  7 38  1  0  0  0  0
  8 13  1  0  0  0  0
  8  9  2  0  0  0  0
  9 10  1  0  0  0  0
 10 11  2  0  0  0  0
 10 39  1  0  0  0  0
 11 12  1  0  0  0  0
 12 16  1  0  0  0  0
 12 13  2  0  0  0  0
 13 14  1  0  0  0  0
 14 15  2  0  0  0  0
 15 16  1  0  0  0  0
 15 40  1  0  0  0  0
 16 17  1  0  0  0  0
 17 18  1  0  0  0  0
 17 41  1  0  0  0  0
 17 42  1  0  0  0  0
 18 19  1  0  0  0  0
 18 20  1  0  0  0  0
 18 43  1  0  0  0  0
 19 44  1  0  0  0  0
 20 24  1  0  0  0  0
 20 21  1  0  0  0  0
 20 45  1  0  0  0  0
 21 22  1  0  0  0  0
 21 46  1  0  0  0  0
 21 47  1  0  0  0  0
 22 23  1  0  0  0  0
 22 48  1  0  0  0  0
 22 49  1  0  0  0  0
 23 24  1  0  0  0  0
 23 50  1  0  0  0  0
 23 51  1  0  0  0  0
 25 28  1  0  0  0  0
 25 26  1  0  0  0  0
 26 27  1  0  0  0  0
 26 52  1  0  0  0  0
 26 53  1  0  0  0  0
 27 28  1  0  0  0  0
 27 54  1  0  0  0  0
 27 55  1  0  0  0  0
 28 56  1  0  0  0  0
 28 57  1  0  0  0  0
M  END
> <s_m_source_file>
AV-unprocessed.smi

> <i_m_source_file_index>
276

> <i_lp_mmshare_version>
43012

> <i_f3d_flags>
0

> <s_epik_input>
W0NIMl0xW0NIMl1bQ0gyXUMxMltDQEhdKE9bQ0gzXSlbQ0gyXVtDQEhdMk4oW0NIM10pYyhuW2NIXW4zKWMoYzM0KW5bY0hdbjRbQ0gyXVtDQEhdKFtPSF0pW0NAQEhdNVtDSDJdW0NIMl1bQ0gyXU81

> <s_epik_cmdline>
J2VwaWtfcHl0aG9uJywgJy1waCcsICc3LjAnLCAnLXRuJywgJzgnLCAnLW1hJywgJzIwMCcsICctbWV0YWxfYmluZGluZycsICctaW1hZScsICc8aW5maWxlLm1hZT4nLCAnLW9tYWUnLCAnPG91dGZpbGUubWFlPic=

> <r_lp_tautomer_probability>
1

> <r_epik_Ionization_Penalty>
0.00204117

> <r_epik_Ionization_Penalty_Charging>
0

> <r_epik_Ionization_Penalty_Neutral>
0.00204117

> <r_epik_State_Penalty>
0.00127401

> <r_epik_Charging_Adjusted_Penalty>
0.00127401

> <i_epik_Tot_Q>
0

> <i_epik_Tot_abs_Q>
0

> <r_epik_Metal_State_Penalty>
-0

> <b_epik_Metal_Only>
0

> <s_lp_Force_Field>
OPLS_2005

> <r_lp_Energy>
56.2402

> <b_lp_Chiralities_Consistent>
1

> <s_lp_Variant>
AV-unprocessed.smi:276-6

> <Gold.Version>
5.8.1

> <Gold.Id.Protein>
6NUR|6NUR_protein|mol2

> <Gold.PLP.Fitness>
39.9523

> <Gold.PLP.PLP>
-37.2602

> <Gold.PLP.part.hbond>
-1.0000

> <Gold.PLP.part.metal>
0.0000

> <Gold.PLP.part.buried>
-4.6952

> <Gold.PLP.part.nonpolar>
-31.8556

> <Gold.PLP.part.repulsive>
0.2097

> <Gold.PLP.ligand.clash>
0.0000

> <Gold.PLP.ligand.torsion>
2.0296

> <Gold.PLP.Chemscore.Hbond>
1.0000

> <Gold.PLP.Chemscore.CHOScore>
1.0000

> <Gold.PLP.Chemscore.Metal>
0.0000

> <Gold.Chemscore.Hbonds>
donor molecule, donor type, donor heavy atom, donor atom, acceptor molecule, acceptor atom, score
      L1  H    19    44       P1  7948  1.00
      L1  C    15    40       P1 10957  0.89

> <Gold.PLP.Chemscore.Internal.Correction>
0.7513

> <Gold.Rescore>
     Score         DG    S(hbond)    S(metal)    S(lipo)     H(rot)  DE(clash)    DE(int)     intcor
     11.00     -14.21       0.99        0.00     105.80       2.72       0.02       3.20       ----

> <Gold.Chemscore.Fitness>
10.9975

> <Gold.Chemscore.DG>
-14.2145

> <Gold.Chemscore.ZeroCoef>
-5.4800

> <Gold.Chemscore.Hbond>
0.9915

> <Gold.Chemscore.Metal>
0.0000

> <Gold.Chemscore.Lipo>
105.8033

> <Gold.Chemscore.Internal_Hbond>
0.0000

> <Gold.Chemscore.DEClash>
0.0213

> <Gold.Chemscore.DEInternal>
3.1957

> <Gold.Chemscore.Rot>
2.7172

> <Gold.Chemscore.Internal.Correction>
   9.000000E+99

> <Gold.Chemscore.Hbonds>
donor molecule, donor type, donor heavy atom, donor atom, acceptor molecule, acceptor atom, score
      L1  H    19    44       P1  7948  0.99

> <Gold.Chemscore.Hbond.Weighted>
-3.3115

> <Gold.Chemscore.Metal.Weighted>
-0.0000

> <Gold.Chemscore.Lipo.Weighted>
-12.3790

> <Gold.Chemscore.Internal_Hbond.Weighted>
0.0000

> <Gold.Chemscore.DEClash.Weighted>
0.0213

> <Gold.Chemscore.DEInternal.Weighted>
3.1957

> <Gold.Chemscore.Rot.Weighted>
6.9560

> <Gold.Chemscore.Internal.Correction.Weighted>
   9.000000E+99

> <Gold.Protein.RotatedTorsions>
[ 6907 6896 6895 6894 ] final  123.04 input  -60.11 | X-H torsion
[ 7974 7965 7964 7962 ] final  115.11 input  175.53 | X-H torsion
[ 8008 7997 7996 7995 ] final   26.11 input   59.86 | X-H torsion
[ 10167 10162 10161 10158 ] final   97.81 input  -65.29 | X-H torsion
[ 10718 10713 10712 10709 ] final -113.85 input   66.30 | X-H torsion
[ 10763 10752 10751 10750 ] final   77.82 input  -60.55 | X-H torsion
[ 11005 11000 10999 10996 ] final -159.93 input  -57.11 | X-H torsion

> <Gold.Protein.ActiveResidues>
 VAL166  LYS551  ARG553  GLY616  TRP617  ASP618  TYR619  PRO620  LYS621  CYS622 
 ASP623  PHE694  ASN695  SER759  ASP760  ASP761  ALA762  ILE779  LEU786  VAL792 
 PHE793  MET794  SER795  GLU796  ALA797  LYS798  CYS799  TRP800  GLU811  SER814 

> <Gold.Protein.RotatedAtoms>
  152.4194  133.7091  159.6468 H   0  0  0  0  0  0  0  0  0  0  0  0  # atno 6907 bound_to 6896
  150.8070  133.8481  159.3206 H   0  0  0  0  0  0  0  0  0  0  0  0  # atno 6908 bound_to 6896
  151.6202  135.1035  160.0151 H   0  0  0  0  0  0  0  0  0  0  0  0  # atno 6909 bound_to 6896
  145.1961  139.2976  143.4343 H   0  0  0  0  0  0  0  0  0  0  0  0  # atno 7974 bound_to 7965
  155.0221  140.3149  155.4789 H   0  0  0  0  0  0  0  0  0  0  0  0  # atno 8008 bound_to 7997
  156.2890  140.2195  156.5282 H   0  0  0  0  0  0  0  0  0  0  0  0  # atno 8009 bound_to 7997
  154.7443  140.0471  157.0826 H   0  0  0  0  0  0  0  0  0  0  0  0  # atno 8010 bound_to 7997
  139.7766  144.6903  151.0081 H   0  0  0  0  0  0  0  0  0  0  0  0  # atno 10167 bound_to 10162
  156.0792  130.5995  150.8697 H   0  0  0  0  0  0  0  0  0  0  0  0  # atno 10718 bound_to 10713
  153.0827  135.4900  154.8535 H   0  0  0  0  0  0  0  0  0  0  0  0  # atno 10763 bound_to 10752
  154.7171  135.3032  154.9108 H   0  0  0  0  0  0  0  0  0  0  0  0  # atno 10764 bound_to 10752
  153.9784  135.6793  153.4802 H   0  0  0  0  0  0  0  0  0  0  0  0  # atno 10765 bound_to 10752
  140.6371  134.4590  157.5232 H   0  0  0  0  0  0  0  0  0  0  0  0  # atno 11005 bound_to 11000
  146.3427  140.2190  142.8591 LP  0  0  0  0  0  0  0  0  0  0  0  0  # atno 17320 bound_to 7965
  144.9994  140.8618  143.5291 LP  0  0  0  0  0  0  0  0  0  0  0  0  # atno 17321 bound_to 7965
  140.7816  143.4529  151.0387 LP  0  0  0  0  0  0  0  0  0  0  0  0  # atno 17342 bound_to 10162
  139.8211  143.7819  152.3177 LP  0  0  0  0  0  0  0  0  0  0  0  0  # atno 17343 bound_to 10162
  157.5902  131.0944  150.9131 LP  0  0  0  0  0  0  0  0  0  0  0  0  # atno 17370 bound_to 10713
  156.9309  130.5349  149.5279 LP  0  0  0  0  0  0  0  0  0  0  0  0  # atno 17371 bound_to 10713
  139.9094  134.8378  156.1585 LP  0  0  0  0  0  0  0  0  0  0  0  0  # atno 17394 bound_to 11000
  141.0633  133.6831  156.1995 LP  0  0  0  0  0  0  0  0  0  0  0  0  # atno 17395 bound_to 11000

$$$$
