AV-unprocessed.smi:1626|AV-procd|sdf|6512|dock2
  -GOLD-   22720 7183D 1   1.00000     0.00000
 Structure written by MMmdl.
 49 51  0  0  0  0  0  0  0  0  3 V2000
  153.6576  142.6092  163.5215 C   0  0  0  0  0  0  0  0  0  0  0  0
  153.1237  142.9381  162.1378 C   0  0  0  0  0  0  0  0  0  0  0  0
  152.3106  144.0838  161.9837 C   0  0  0  0  0  0  0  0  0  0  0  0
  151.8408  144.3608  160.7053 C   0  0  0  0  0  0  0  0  0  0  0  0
  151.0392  145.4007  160.2294 N   0  3  0  0  0  0  0  0  0  0  0  0
  150.8479  145.2509  158.8894 C   0  0  0  0  0  0  0  0  0  0  0  0
  151.5053  144.1224  158.5052 N   0  0  0  0  0  0  0  0  0  0  0  0
  151.6316  143.5062  157.1779 C   0  0  0  0  0  0  0  0  0  0  0  0
  150.4255  142.6231  156.7953 C   0  0  2  0  0  0  0  0  0  0  0  0
  149.7565  142.2882  157.9943 O   0  0  0  0  0  0  0  0  0  0  0  0
  150.8262  141.3256  156.0578 C   0  0  0  0  0  0  0  0  0  0  0  0
  149.6536  140.5340  155.6039 N   0  3  2  0  0  0  0  0  0  0  0  0
  149.9879  139.6386  154.4664 C   0  0  0  0  0  0  0  0  0  0  0  0
  148.8042  138.7210  154.1105 C   0  0  0  0  0  0  0  0  0  0  0  0
  147.5221  139.5194  153.8237 C   0  0  2  0  0  0  0  0  0  0  0  0
  147.6506  140.2217  152.6037 O   0  0  0  0  0  0  0  0  0  0  0  0
  147.2354  140.4992  154.9735 C   0  0  0  0  0  0  0  0  0  0  0  0
  148.4606  141.3711  155.3045 C   0  0  0  0  0  0  0  0  0  0  0  0
  152.1491  143.5409  159.6026 C   0  0  0  0  0  0  0  0  0  0  0  0
  152.9497  142.4094  159.7360 C   0  0  0  0  0  0  0  0  0  0  0  0
  153.4393  142.1120  161.0279 C   0  0  0  0  0  0  0  0  0  0  0  0
  154.3166  140.8844  161.2053 C   0  0  0  0  0  0  0  0  0  0  0  0
  153.3549  143.3574  164.2550 H   0  0  0  0  0  0  0  0  0  0  0  0
  154.7471  142.5738  163.5143 H   0  0  0  0  0  0  0  0  0  0  0  0
  153.2813  141.6424  163.8570 H   0  0  0  0  0  0  0  0  0  0  0  0
  152.0688  144.7187  162.8237 H   0  0  0  0  0  0  0  0  0  0  0  0
  150.2763  145.9077  158.2492 H   0  0  0  0  0  0  0  0  0  0  0  0
  151.7519  144.3154  156.4557 H   0  0  0  0  0  0  0  0  0  0  0  0
  152.5593  142.9322  157.1571 H   0  0  0  0  0  0  0  0  0  0  0  0
  149.7420  143.2138  156.1877 H   0  0  0  0  0  0  0  0  0  0  0  0
  148.8958  141.9579  157.7874 H   0  0  0  0  0  0  0  0  0  0  0  0
  151.4518  141.5428  155.1913 H   0  0  0  0  0  0  0  0  0  0  0  0
  151.4424  140.7265  156.7303 H   0  0  0  0  0  0  0  0  0  0  0  0
  150.2786  140.2385  153.6024 H   0  0  0  0  0  0  0  0  0  0  0  0
  150.8484  139.0201  154.7246 H   0  0  0  0  0  0  0  0  0  0  0  0
  149.0588  138.0935  153.2555 H   0  0  0  0  0  0  0  0  0  0  0  0
  148.6214  138.0403  154.9428 H   0  0  0  0  0  0  0  0  0  0  0  0
  146.6836  138.8312  153.7130 H   0  0  0  0  0  0  0  0  0  0  0  0
  148.3659  139.8463  152.1121 H   0  0  0  0  0  0  0  0  0  0  0  0
  146.3791  141.1297  154.7304 H   0  0  0  0  0  0  0  0  0  0  0  0
  146.9525  139.9331  155.8621 H   0  0  0  0  0  0  0  0  0  0  0  0
  148.2173  142.0075  156.1542 H   0  0  0  0  0  0  0  0  0  0  0  0
  148.6833  142.0384  154.4704 H   0  0  0  0  0  0  0  0  0  0  0  0
  153.1939  141.7831  158.8905 H   0  0  0  0  0  0  0  0  0  0  0  0
  154.4511  140.3505  160.2641 H   0  0  0  0  0  0  0  0  0  0  0  0
  153.8694  140.1928  161.9196 H   0  0  0  0  0  0  0  0  0  0  0  0
  155.3040  141.1691  161.5696 H   0  0  0  0  0  0  0  0  0  0  0  0
  149.4061  139.9265  156.3716 H   0  0  0  0  0  0  0  0  0  0  0  0
  150.6567  146.1625  160.7755 H   0  0  0  0  0  0  0  0  0  0  0  0
  1  2  1  0  0  0  0
  1 23  1  0  0  0  0
  1 24  1  0  0  0  0
  1 25  1  0  0  0  0
  2 21  1  0  0  0  0
  2  3  2  0  0  0  0
  3  4  1  0  0  0  0
  3 26  1  0  0  0  0
  4 19  2  0  0  0  0
  4  5  1  0  0  0  0
  5  6  2  0  0  0  0
  5 49  1  0  0  0  0
  6  7  1  0  0  0  0
  6 27  1  0  0  0  0
  7  8  1  0  0  0  0
  7 19  1  0  0  0  0
  8  9  1  0  0  0  0
  8 28  1  0  0  0  0
  8 29  1  0  0  0  0
  9 10  1  0  0  0  0
  9 11  1  0  0  0  0
  9 30  1  0  0  0  0
 10 31  1  0  0  0  0
 11 12  1  0  0  0  0
 11 32  1  0  0  0  0
 11 33  1  0  0  0  0
 12 18  1  0  0  0  0
 12 13  1  0  0  0  0
 12 48  1  0  0  0  0
 13 14  1  0  0  0  0
 13 34  1  0  0  0  0
 13 35  1  0  0  0  0
 14 15  1  0  0  0  0
 14 36  1  0  0  0  0
 14 37  1  0  0  0  0
 15 16  1  0  0  0  0
 15 17  1  0  0  0  0
 15 38  1  0  0  0  0
 16 39  1  0  0  0  0
 17 18  1  0  0  0  0
 17 40  1  0  0  0  0
 17 41  1  0  0  0  0
 18 42  1  0  0  0  0
 18 43  1  0  0  0  0
 19 20  1  0  0  0  0
 20 21  2  0  0  0  0
 20 44  1  0  0  0  0
 21 22  1  0  0  0  0
 22 45  1  0  0  0  0
 22 46  1  0  0  0  0
 22 47  1  0  0  0  0
M  CHG  1   5   1
M  CHG  1  12   1
M  END
> <s_m_source_file>
AV-unprocessed.smi

> <i_m_source_file_index>
1626

> <i_lp_mmshare_version>
43012

> <i_f3d_flags>
0

> <s_epik_input>
W0NIM11jKFtjSF0xKWMoW0NIM10pW2NIXWMoYzEyKW4oW2NIXW4yKVtDSDJdW0NASF0oW09IXSlbQ0gyXU4zW0NIMl1bQ0gyXVtDSF0oW09IXSlbQ0gyXVtDSDJdMw==

> <s_epik_cmdline>
J2VwaWtfcHl0aG9uJywgJy1waCcsICc3LjAnLCAnLXRuJywgJzgnLCAnLW1hJywgJzIwMCcsICctbWV0YWxfYmluZGluZycsICctaW1hZScsICc8aW5maWxlLm1hZT4nLCAnLW9tYWUnLCAnPG91dGZpbGUubWFlPic=

> <r_epik_Ionization_Penalty>
1.19369

> <r_epik_Ionization_Penalty_Charging>
1.19369

> <r_epik_Ionization_Penalty_Neutral>
1.68219e-06

> <r_epik_State_Penalty>
1.27429

> <r_epik_Charging_Adjusted_Penalty>
2.46798

> <i_epik_Tot_Q>
2

> <i_epik_Tot_abs_Q>
2

> <r_epik_Metal_State_Penalty>
5.29157

> <b_epik_Metal_Only>
0

> <s_lp_Force_Field>
OPLS_2005

> <r_lp_Energy>
35.0493

> <b_lp_Chiralities_Consistent>
1

> <s_lp_Variant>
AV-unprocessed.smi:1626-7

> <Gold.Version>
5.8.1

> <Gold.Id.Protein>
6NUR|6NUR_protein|mol2

> <Gold.PLP.Fitness>
55.6571

> <Gold.PLP.PLP>
-52.0410

> <Gold.PLP.part.hbond>
-0.6812

> <Gold.PLP.part.metal>
0.0000

> <Gold.PLP.part.buried>
-4.6046

> <Gold.PLP.part.nonpolar>
-47.7369

> <Gold.PLP.part.repulsive>
0.2886

> <Gold.PLP.ligand.clash>
0.0000

> <Gold.PLP.ligand.torsion>
1.2046

> <Gold.PLP.Chemscore.Hbond>
0.9920

> <Gold.PLP.Chemscore.CHOScore>
0.9934

> <Gold.PLP.Chemscore.Metal>
0.0000

> <Gold.Chemscore.Hbonds>
donor molecule, donor type, donor heavy atom, donor atom, acceptor molecule, acceptor atom, score
      L1  H    16    39       P1  7957  0.99
      L1  C     6    27       P1  8029  0.97

> <Gold.PLP.Chemscore.Internal.Correction>
0.0691

> <Gold.Rescore>
     Score         DG    S(hbond)    S(metal)    S(lipo)     H(rot)  DE(clash)    DE(int)     intcor
     15.61     -19.07       0.95        0.00     148.83       2.74       2.31       1.15       ----

> <Gold.Chemscore.Fitness>
15.6136

> <Gold.Chemscore.DG>
-19.0710

> <Gold.Chemscore.ZeroCoef>
-5.4800

> <Gold.Chemscore.Hbond>
0.9546

> <Gold.Chemscore.Metal>
0.0000

> <Gold.Chemscore.Lipo>
148.8296

> <Gold.Chemscore.Internal_Hbond>
0.0000

> <Gold.Chemscore.DEClash>
2.3097

> <Gold.Chemscore.DEInternal>
1.1477

> <Gold.Chemscore.Rot>
2.7384

> <Gold.Chemscore.Internal.Correction>
   9.000000E+99

> <Gold.Chemscore.Hbonds>
donor molecule, donor type, donor heavy atom, donor atom, acceptor molecule, acceptor atom, score
      L1  H    16    39       P1  7957  0.90

> <Gold.Chemscore.Hbond.Weighted>
-3.1883

> <Gold.Chemscore.Metal.Weighted>
-0.0000

> <Gold.Chemscore.Lipo.Weighted>
-17.4131

> <Gold.Chemscore.Internal_Hbond.Weighted>
0.0000

> <Gold.Chemscore.DEClash.Weighted>
2.3097

> <Gold.Chemscore.DEInternal.Weighted>
1.1477

> <Gold.Chemscore.Rot.Weighted>
7.0103

> <Gold.Chemscore.Internal.Correction.Weighted>
   9.000000E+99

> <Gold.Protein.RotatedTorsions>
[ 6907 6896 6895 6894 ] final  -57.88 input  -60.11 | X-H torsion
[ 7974 7965 7964 7962 ] final  104.53 input  175.53 | X-H torsion
[ 8008 7997 7996 7995 ] final  -78.65 input   59.86 | X-H torsion
[ 10167 10162 10161 10158 ] final   26.17 input  -65.29 | X-H torsion
[ 10718 10713 10712 10709 ] final   15.86 input   66.30 | X-H torsion
[ 10763 10752 10751 10750 ] final  143.54 input  -60.55 | X-H torsion
[ 11005 11000 10999 10996 ] final -149.26 input  -57.11 | X-H torsion

> <Gold.Protein.ActiveResidues>
 VAL166  LYS551  ARG553  GLY616  TRP617  ASP618  TYR619  PRO620  LYS621  CYS622 
 ASP623  PHE694  ASN695  SER759  ASP760  ASP761  ALA762  ILE779  LEU786  VAL792 
 PHE793  MET794  SER795  GLU796  ALA797  LYS798  CYS799  TRP800  GLU811  SER814 

> <Gold.Protein.RotatedAtoms>
  150.8051  134.7170  159.6635 H   0  0  0  0  0  0  0  0  0  0  0  0  # atno 6907 bound_to 6896
  152.4170  134.6021  160.0012 H   0  0  0  0  0  0  0  0  0  0  0  0  # atno 6908 bound_to 6896
  151.6247  133.3299  159.3132 H   0  0  0  0  0  0  0  0  0  0  0  0  # atno 6909 bound_to 6896
  145.3316  139.2485  143.3658 H   0  0  0  0  0  0  0  0  0  0  0  0  # atno 7974 bound_to 7965
  154.5710  140.0691  156.8964 H   0  0  0  0  0  0  0  0  0  0  0  0  # atno 8008 bound_to 7997
  155.2635  140.3360  155.4253 H   0  0  0  0  0  0  0  0  0  0  0  0  # atno 8009 bound_to 7997
  156.2118  140.1762  156.7664 H   0  0  0  0  0  0  0  0  0  0  0  0  # atno 8010 bound_to 7997
  140.5045  144.0260  150.6346 H   0  0  0  0  0  0  0  0  0  0  0  0  # atno 10167 bound_to 10162
  157.0595  130.6303  149.5783 H   0  0  0  0  0  0  0  0  0  0  0  0  # atno 10718 bound_to 10713
  153.9741  135.2948  155.3425 H   0  0  0  0  0  0  0  0  0  0  0  0  # atno 10763 bound_to 10752
  154.7306  135.5069  153.8960 H   0  0  0  0  0  0  0  0  0  0  0  0  # atno 10764 bound_to 10752
  153.0886  135.6701  154.0012 H   0  0  0  0  0  0  0  0  0  0  0  0  # atno 10765 bound_to 10752
  140.7526  134.3389  157.5122 H   0  0  0  0  0  0  0  0  0  0  0  0  # atno 11005 bound_to 11000
  146.3043  140.3895  142.8693 LP  0  0  0  0  0  0  0  0  0  0  0  0  # atno 17320 bound_to 7965
  144.8860  140.7462  143.5957 LP  0  0  0  0  0  0  0  0  0  0  0  0  # atno 17321 bound_to 7965
  140.3566  143.2932  152.0429 LP  0  0  0  0  0  0  0  0  0  0  0  0  # atno 17342 bound_to 10162
  139.4880  144.6334  151.7024 LP  0  0  0  0  0  0  0  0  0  0  0  0  # atno 17343 bound_to 10162
  155.9983  130.5056  150.7564 LP  0  0  0  0  0  0  0  0  0  0  0  0  # atno 17370 bound_to 10713
  157.4966  131.0915  151.0364 LP  0  0  0  0  0  0  0  0  0  0  0  0  # atno 17371 bound_to 10713
  139.8785  134.9152  156.3125 LP  0  0  0  0  0  0  0  0  0  0  0  0  # atno 17394 bound_to 11000
  140.9736  133.7311  156.0570 LP  0  0  0  0  0  0  0  0  0  0  0  0  # atno 17395 bound_to 11000

$$$$
