AV-unprocessed.smi:2452|AV-procd|sdf|9686|dock1
  -GOLD-   2272013323D 1   1.00000     0.00000
 Structure written by MMmdl.
 34 35  0  0  0  0  0  0  0  0  1 V2000
  149.2602  139.0275  154.1773 C   0  0  0  0  0  0  0  0  0  0  0  0
  150.4144  139.2162  155.1191 C   0  0  0  0  0  0  0  0  0  0  0  0
  151.5049  139.8447  154.7117 N   0  0  0  0  0  0  0  0  0  0  0  0
  152.3887  139.8459  155.8019 O   0  0  0  0  0  0  0  0  0  0  0  0
  151.8038  139.2129  156.8550 C   0  0  0  0  0  0  0  0  0  0  0  0
  152.6388  139.0762  158.0854 C   0  0  0  0  0  0  0  0  0  0  0  0
  150.5466  138.8226  156.4766 C   0  0  0  0  0  0  0  0  0  0  0  0
  149.5626  138.1066  157.2056 N   0  0  0  0  0  0  0  0  0  0  0  0
  149.7661  137.1819  158.1566 C   0  0  0  0  0  0  0  0  0  0  0  0
  150.8682  136.8307  158.5765 O   0  0  0  0  0  0  0  0  0  0  0  0
  148.6066  136.6946  158.6186 N   0  0  0  0  0  0  0  0  0  0  0  0
  148.4813  135.6751  159.6541 C   0  0  0  0  0  0  0  0  0  0  0  0
  147.2647  135.9334  160.5584 C   0  0  1  0  0  0  0  0  0  0  0  0
  146.9914  134.8149  161.5620 C   0  0  0  0  0  0  0  0  0  0  0  0
  146.2706  135.5226  162.7001 C   0  0  0  0  0  0  0  0  0  0  0  0
  146.5015  137.0111  162.4233 C   0  0  0  0  0  0  0  0  0  0  0  0
  147.4916  137.0486  161.4057 O   0  0  0  0  0  0  0  0  0  0  0  0
  148.6364  138.1860  154.4790 H   0  0  0  0  0  0  0  0  0  0  0  0
  149.6047  138.8332  153.1611 H   0  0  0  0  0  0  0  0  0  0  0  0
  148.6290  139.9160  154.1517 H   0  0  0  0  0  0  0  0  0  0  0  0
  152.4573  138.1200  158.5761 H   0  0  0  0  0  0  0  0  0  0  0  0
  152.4168  139.8737  158.7944 H   0  0  0  0  0  0  0  0  0  0  0  0
  153.7004  139.1289  157.8438 H   0  0  0  0  0  0  0  0  0  0  0  0
  148.6056  138.3823  157.0415 H   0  0  0  0  0  0  0  0  0  0  0  0
  147.7481  137.0424  158.2176 H   0  0  0  0  0  0  0  0  0  0  0  0
  148.4062  134.6888  159.1932 H   0  0  0  0  0  0  0  0  0  0  0  0
  149.3967  135.6714  160.2464 H   0  0  0  0  0  0  0  0  0  0  0  0
  146.3687  136.1150  159.9613 H   0  0  0  0  0  0  0  0  0  0  0  0
  146.4092  133.9997  161.1313 H   0  0  0  0  0  0  0  0  0  0  0  0
  147.9305  134.3990  161.9301 H   0  0  0  0  0  0  0  0  0  0  0  0
  145.2044  135.2926  162.7062 H   0  0  0  0  0  0  0  0  0  0  0  0
  146.6839  135.2243  163.6642 H   0  0  0  0  0  0  0  0  0  0  0  0
  145.5882  137.4779  162.0512 H   0  0  0  0  0  0  0  0  0  0  0  0
  146.8258  137.5579  163.3092 H   0  0  0  0  0  0  0  0  0  0  0  0
  1  2  1  0  0  0  0
  1 18  1  0  0  0  0
  1 19  1  0  0  0  0
  1 20  1  0  0  0  0
  2  7  1  0  0  0  0
  2  3  2  0  0  0  0
  3  4  1  0  0  0  0
  4  5  1  0  0  0  0
  5  6  1  0  0  0  0
  5  7  2  0  0  0  0
  6 21  1  0  0  0  0
  6 22  1  0  0  0  0
  6 23  1  0  0  0  0
  7  8  1  0  0  0  0
  8  9  1  0  0  0  0
  8 24  1  0  0  0  0
  9 10  2  0  0  0  0
  9 11  1  0  0  0  0
 11 12  1  0  0  0  0
 11 25  1  0  0  0  0
 12 13  1  0  0  0  0
 12 26  1  0  0  0  0
 12 27  1  0  0  0  0
 13 17  1  0  0  0  0
 13 14  1  0  0  0  0
 13 28  1  0  0  0  0
 14 15  1  0  0  0  0
 14 29  1  0  0  0  0
 14 30  1  0  0  0  0
 15 16  1  0  0  0  0
 15 31  1  0  0  0  0
 15 32  1  0  0  0  0
 16 17  1  0  0  0  0
 16 33  1  0  0  0  0
 16 34  1  0  0  0  0
M  END
> <s_m_source_file>
AV-unprocessed.smi

> <i_m_source_file_index>
2452

> <i_lp_mmshare_version>
43012

> <i_f3d_flags>
0

> <s_epik_input>
W0NIM11jMW5vYyhbQ0gzXSljMVtOSF1DKD1PKVtOSF1bQ0gyXVtDQEBIXTJbQ0gyXVtDSDJdW0NIMl1PMg==

> <s_epik_cmdline>
J2VwaWtfcHl0aG9uJywgJy1waCcsICc3LjAnLCAnLXRuJywgJzgnLCAnLW1hJywgJzIwMCcsICctbWV0YWxfYmluZGluZycsICctaW1hZScsICc8aW5maWxlLm1hZT4nLCAnLW9tYWUnLCAnPG91dGZpbGUubWFlPic=

> <r_lp_tautomer_probability>
1

> <r_epik_Ionization_Penalty>
3.28451e-05

> <r_epik_Ionization_Penalty_Charging>
0

> <r_epik_Ionization_Penalty_Neutral>
3.28451e-05

> <r_epik_State_Penalty>
-0

> <r_epik_Charging_Adjusted_Penalty>
0

> <i_epik_Tot_Q>
0

> <i_epik_Tot_abs_Q>
0

> <r_epik_Metal_State_Penalty>
-0

> <b_epik_Metal_Only>
0

> <s_lp_Force_Field>
OPLS_2005

> <r_lp_Energy>
18.1661

> <b_lp_Chiralities_Consistent>
1

> <s_lp_Variant>
AV-unprocessed.smi:2452-2

> <Gold.Version>
5.8.1

> <Gold.Id.Protein>
6NUR|6NUR_protein|mol2

> <Gold.PLP.Fitness>
40.0653

> <Gold.PLP.PLP>
-26.6649

> <Gold.PLP.part.hbond>
-5.0000

> <Gold.PLP.part.metal>
0.0000

> <Gold.PLP.part.buried>
-4.8393

> <Gold.PLP.part.nonpolar>
-17.8077

> <Gold.PLP.part.repulsive>
0.2215

> <Gold.PLP.ligand.clash>
0.0000

> <Gold.PLP.ligand.torsion>
0.4327

> <Gold.PLP.Chemscore.Hbond>
4.6943

> <Gold.PLP.Chemscore.CHOScore>
0.0000

> <Gold.PLP.Chemscore.Metal>
0.0000

> <Gold.Chemscore.Hbonds>
donor molecule, donor type, donor heavy atom, donor atom, acceptor molecule, acceptor atom, score
      P1  H  6896  6909       L1    10  0.60
      P1  H  6931  6943       L1    17  0.99
      P1  H  6934  6947       L1    17  0.66
      P1  H  7989  7998       L1     3  1.00
      P1  H  7997  8010       L1     4  0.94

> <Gold.PLP.Chemscore.Internal.Correction>
0.1831

> <Gold.Rescore>
     Score         DG    S(hbond)    S(metal)    S(lipo)     H(rot)  DE(clash)    DE(int)     intcor
     21.52     -22.19       3.77        0.00      62.09       1.23       0.01       0.65       ----

> <Gold.Chemscore.Fitness>
21.5179

> <Gold.Chemscore.DG>
-22.1873

> <Gold.Chemscore.ZeroCoef>
-5.4800

> <Gold.Chemscore.Hbond>
3.7729

> <Gold.Chemscore.Metal>
0.0000

> <Gold.Chemscore.Lipo>
62.0852

> <Gold.Chemscore.Internal_Hbond>
0.0000

> <Gold.Chemscore.DEClash>
0.0145

> <Gold.Chemscore.DEInternal>
0.6548

> <Gold.Chemscore.Rot>
1.2337

> <Gold.Chemscore.Internal.Correction>
   9.000000E+99

> <Gold.Chemscore.Hbonds>
donor molecule, donor type, donor heavy atom, donor atom, acceptor molecule, acceptor atom, score
      P1  H  6896  6909       L1    10  0.59
      P1  H  6931  6943       L1    17  0.70
      P1  H  6934  6947       L1    17  0.08
      P1  H  7989  7998       L1     3  0.96
      P1  H  7997  8010       L1     4  0.40

> <Gold.Chemscore.Hbond.Weighted>
-12.6015

> <Gold.Chemscore.Metal.Weighted>
-0.0000

> <Gold.Chemscore.Lipo.Weighted>
-7.2640

> <Gold.Chemscore.Internal_Hbond.Weighted>
0.0000

> <Gold.Chemscore.DEClash.Weighted>
0.0145

> <Gold.Chemscore.DEInternal.Weighted>
0.6548

> <Gold.Chemscore.Rot.Weighted>
3.1582

> <Gold.Chemscore.Internal.Correction.Weighted>
   9.000000E+99

> <Gold.Protein.RotatedTorsions>
[ 6907 6896 6895 6894 ] final   96.74 input  -60.11 | X-H torsion
[ 7974 7965 7964 7962 ] final  163.71 input  175.53 | X-H torsion
[ 8008 7997 7996 7995 ] final   72.84 input   59.86 | X-H torsion
[ 10167 10162 10161 10158 ] final -113.36 input  -65.29 | X-H torsion
[ 10718 10713 10712 10709 ] final -177.13 input   66.30 | X-H torsion
[ 10763 10752 10751 10750 ] final   99.64 input  -60.55 | X-H torsion
[ 11005 11000 10999 10996 ] final  -73.97 input  -57.11 | X-H torsion

> <Gold.Protein.ActiveResidues>
 VAL166  LYS551  ARG553  GLY616  TRP617  ASP618  TYR619  PRO620  LYS621  CYS622 
 ASP623  PHE694  ASN695  SER759  ASP760  ASP761  ALA762  ILE779  LEU786  VAL792 
 PHE793  MET794  SER795  GLU796  ALA797  LYS798  CYS799  TRP800  GLU811  SER814 

> <Gold.Protein.RotatedAtoms>
  152.5432  134.0841  159.8247 H   0  0  0  0  0  0  0  0  0  0  0  0  # atno 6907 bound_to 6896
  151.0938  133.5288  159.2621 H   0  0  0  0  0  0  0  0  0  0  0  0  # atno 6908 bound_to 6896
  151.2068  135.0474  159.8949 H   0  0  0  0  0  0  0  0  0  0  0  0  # atno 6909 bound_to 6896
  144.7577  139.8221  143.6344 H   0  0  0  0  0  0  0  0  0  0  0  0  # atno 7974 bound_to 7965
  155.7748  140.3483  155.5266 H   0  0  0  0  0  0  0  0  0  0  0  0  # atno 8008 bound_to 7997
  155.8787  140.0998  157.1521 H   0  0  0  0  0  0  0  0  0  0  0  0  # atno 8009 bound_to 7997
  154.4023  140.1326  156.4156 H   0  0  0  0  0  0  0  0  0  0  0  0  # atno 8010 bound_to 7997
  140.1127  143.4513  152.1742 H   0  0  0  0  0  0  0  0  0  0  0  0  # atno 10167 bound_to 10162
  156.8250  130.9633  151.3110 H   0  0  0  0  0  0  0  0  0  0  0  0  # atno 10718 bound_to 10713
  153.3039  135.4106  155.1277 H   0  0  0  0  0  0  0  0  0  0  0  0  # atno 10763 bound_to 10752
  154.8557  135.3548  154.5814 H   0  0  0  0  0  0  0  0  0  0  0  0  # atno 10764 bound_to 10752
  153.6240  135.7063  153.5358 H   0  0  0  0  0  0  0  0  0  0  0  0  # atno 10765 bound_to 10752
  141.1629  133.6896  156.7294 H   0  0  0  0  0  0  0  0  0  0  0  0  # atno 11005 bound_to 11000
  146.1607  139.4720  142.9990 LP  0  0  0  0  0  0  0  0  0  0  0  0  # atno 17320 bound_to 7965
  145.6722  141.0213  143.1651 LP  0  0  0  0  0  0  0  0  0  0  0  0  # atno 17321 bound_to 7965
  139.5611  144.7406  151.4153 LP  0  0  0  0  0  0  0  0  0  0  0  0  # atno 17342 bound_to 10162
  140.6917  143.7846  150.7265 LP  0  0  0  0  0  0  0  0  0  0  0  0  # atno 17343 bound_to 10162
  157.6437  130.8826  149.9497 LP  0  0  0  0  0  0  0  0  0  0  0  0  # atno 17370 bound_to 10713
  156.0967  130.3659  150.0293 LP  0  0  0  0  0  0  0  0  0  0  0  0  # atno 17371 bound_to 10713
  140.2756  134.8357  157.3887 LP  0  0  0  0  0  0  0  0  0  0  0  0  # atno 17394 bound_to 11000
  140.1480  134.4886  155.7982 LP  0  0  0  0  0  0  0  0  0  0  0  0  # atno 17395 bound_to 11000

$$$$
