AV-unprocessed.smi:229|AV-procd|sdf|1751|dock3
  -GOLD-   2262020273D 1   1.00000     0.00000
 Structure written by MMmdl.
 58 62  0  0  0  0  0  0  0  0  1 V2000
  150.6908  130.8062  156.2529 C   0  0  0  0  0  0  0  0  0  0  0  0
  151.2076  132.2150  156.5739 C   0  0  0  0  0  0  0  0  0  0  0  0
  150.3118  133.3421  156.0332 C   0  0  2  0  0  0  0  0  0  0  0  0
  150.9150  134.7434  156.2459 C   0  0  0  0  0  0  0  0  0  0  0  0
  149.9634  135.7648  155.8275 N   0  0  0  0  0  0  0  0  0  0  0  0
  150.4872  137.0050  155.6561 C   0  0  0  0  0  0  0  0  0  0  0  0
  151.5593  137.1831  154.8380 N   0  0  0  0  0  0  0  0  0  0  0  0
  152.0765  138.4016  154.6569 C   0  0  0  0  0  0  0  0  0  0  0  0
  151.6868  139.5611  155.1894 N   0  0  0  0  0  0  0  0  0  0  0  0
  150.6183  139.3886  156.0189 C   0  0  0  0  0  0  0  0  0  0  0  0
  149.9628  138.1579  156.3065 C   0  0  0  0  0  0  0  0  0  0  0  0
  148.9243  138.3753  157.2054 N   0  0  0  0  0  0  0  0  0  0  0  0
  148.9565  139.6614  157.4260 C   0  0  0  0  0  0  0  0  0  0  0  0
  149.9417  140.3465  156.7528 N   0  0  0  0  0  0  0  0  0  0  0  0
  150.2007  141.7743  156.8115 C   0  0  0  0  0  0  0  0  0  0  0  0
  149.7520  142.3957  158.1515 C   0  0  2  0  0  0  0  0  0  0  0  0
  148.8315  143.4468  157.9334 O   0  0  0  0  0  0  0  0  0  0  0  0
  150.9060  142.9252  159.0276 C   0  0  1  0  0  0  0  0  0  0  0  0
  151.7603  144.0032  158.3598 C   0  0  0  0  0  0  0  0  0  0  0  0
  152.3917  144.6721  159.5593 C   0  0  0  0  0  0  0  0  0  0  0  0
  151.2483  144.6534  160.5704 C   0  0  0  0  0  0  0  0  0  0  0  0
  150.4262  143.5422  160.2203 O   0  0  0  0  0  0  0  0  0  0  0  0
  148.6749  135.6490  156.5028 C   0  0  0  0  0  0  0  0  0  0  0  0
  148.0889  134.2300  156.3243 C   0  0  1  0  0  0  0  0  0  0  0  0
  146.8538  134.0355  157.1970 C   0  0  0  0  0  0  0  0  0  0  0  0
  145.7084  134.3788  156.2569 C   0  0  0  0  0  0  0  0  0  0  0  0
  146.1247  133.7833  155.0423 O   0  0  0  0  0  0  0  0  0  0  0  0
  147.5282  133.9782  154.9048 C   0  0  0  0  0  0  0  0  0  0  0  0
  149.0622  133.2594  156.7215 O   0  0  0  0  0  0  0  0  0  0  0  0
  151.3254  130.0491  156.7139 H   0  0  0  0  0  0  0  0  0  0  0  0
  150.6826  130.6162  155.1798 H   0  0  0  0  0  0  0  0  0  0  0  0
  149.6772  130.6628  156.6283 H   0  0  0  0  0  0  0  0  0  0  0  0
  151.2822  132.3149  157.6573 H   0  0  0  0  0  0  0  0  0  0  0  0
  152.2214  132.3304  156.1889 H   0  0  0  0  0  0  0  0  0  0  0  0
  150.1534  133.1755  154.9672 H   0  0  0  0  0  0  0  0  0  0  0  0
  151.1535  134.8941  157.2997 H   0  0  0  0  0  0  0  0  0  0  0  0
  151.8505  134.8309  155.6958 H   0  0  0  0  0  0  0  0  0  0  0  0
  152.9237  138.4551  153.9892 H   0  0  0  0  0  0  0  0  0  0  0  0
  148.2577  140.1497  158.0899 H   0  0  0  0  0  0  0  0  0  0  0  0
  151.2679  141.9299  156.6540 H   0  0  0  0  0  0  0  0  0  0  0  0
  149.6910  142.2531  155.9747 H   0  0  0  0  0  0  0  0  0  0  0  0
  149.2106  141.6415  158.7245 H   0  0  0  0  0  0  0  0  0  0  0  0
  149.0054  143.8241  157.0841 H   0  0  0  0  0  0  0  0  0  0  0  0
  151.5677  142.1055  159.3141 H   0  0  0  0  0  0  0  0  0  0  0  0
  152.4938  143.5939  157.6647 H   0  0  0  0  0  0  0  0  0  0  0  0
  151.1413  144.7201  157.8198 H   0  0  0  0  0  0  0  0  0  0  0  0
  153.2258  144.0715  159.9248 H   0  0  0  0  0  0  0  0  0  0  0  0
  152.7596  145.6767  159.3489 H   0  0  0  0  0  0  0  0  0  0  0  0
  151.6080  144.5733  161.5963 H   0  0  0  0  0  0  0  0  0  0  0  0
  150.6513  145.5625  160.4907 H   0  0  0  0  0  0  0  0  0  0  0  0
  148.8192  135.8600  157.5637 H   0  0  0  0  0  0  0  0  0  0  0  0
  147.9762  136.3939  156.1191 H   0  0  0  0  0  0  0  0  0  0  0  0
  146.7653  132.9899  157.4960 H   0  0  0  0  0  0  0  0  0  0  0  0
  146.8570  134.6395  158.1049 H   0  0  0  0  0  0  0  0  0  0  0  0
  144.7502  133.9823  156.5932 H   0  0  0  0  0  0  0  0  0  0  0  0
  145.6131  135.4583  156.1280 H   0  0  0  0  0  0  0  0  0  0  0  0
  147.7141  134.8260  154.2441 H   0  0  0  0  0  0  0  0  0  0  0  0
  147.9541  133.0927  154.4335 H   0  0  0  0  0  0  0  0  0  0  0  0
  1  2  1  0  0  0  0
  1 30  1  0  0  0  0
  1 31  1  0  0  0  0
  1 32  1  0  0  0  0
  2  3  1  0  0  0  0
  2 33  1  0  0  0  0
  2 34  1  0  0  0  0
  3 29  1  0  0  0  0
  3  4  1  0  0  0  0
  3 35  1  0  0  0  0
  4  5  1  0  0  0  0
  4 36  1  0  0  0  0
  4 37  1  0  0  0  0
  5  6  1  0  0  0  0
  5 23  1  0  0  0  0
  6 11  1  0  0  0  0
  6  7  2  0  0  0  0
  7  8  1  0  0  0  0
  8  9  2  0  0  0  0
  8 38  1  0  0  0  0
  9 10  1  0  0  0  0
 10 14  1  0  0  0  0
 10 11  2  0  0  0  0
 11 12  1  0  0  0  0
 12 13  2  0  0  0  0
 13 14  1  0  0  0  0
 13 39  1  0  0  0  0
 14 15  1  0  0  0  0
 15 16  1  0  0  0  0
 15 40  1  0  0  0  0
 15 41  1  0  0  0  0
 16 17  1  0  0  0  0
 16 18  1  0  0  0  0
 16 42  1  0  0  0  0
 17 43  1  0  0  0  0
 18 22  1  0  0  0  0
 18 19  1  0  0  0  0
 18 44  1  0  0  0  0
 19 20  1  0  0  0  0
 19 45  1  0  0  0  0
 19 46  1  0  0  0  0
 20 21  1  0  0  0  0
 20 47  1  0  0  0  0
 20 48  1  0  0  0  0
 21 22  1  0  0  0  0
 21 49  1  0  0  0  0
 21 50  1  0  0  0  0
 23 24  1  0  0  0  0
 23 51  1  0  0  0  0
 23 52  1  0  0  0  0
 24 28  1  0  0  0  0
 24 25  1  0  0  0  0
 24 29  1  0  0  0  0
 25 26  1  0  0  0  0
 25 53  1  0  0  0  0
 25 54  1  0  0  0  0
 26 27  1  0  0  0  0
 26 55  1  0  0  0  0
 26 56  1  0  0  0  0
 27 28  1  0  0  0  0
 28 57  1  0  0  0  0
 28 58  1  0  0  0  0
M  END
> <s_m_source_file>
AV-unprocessed.smi

> <i_m_source_file_index>
229

> <i_lp_mmshare_version>
43012

> <i_f3d_flags>
0

> <s_epik_input>
W0NIMl0xT1tDSDJdW0NIMl1bQ0BdMTJbQ0gyXU4oW0NIMl1bQ0BIXShPMilbQ0gyXVtDSDNdKWMobltjSF1uMyljKGMzNCluW2NIXW40W0NIMl1bQ0BIXShbT0hdKVtDQEBIXTVbQ0gyXVtDSDJdW0NIMl1PNQ==

> <s_epik_cmdline>
J2VwaWtfcHl0aG9uJywgJy1waCcsICc3LjAnLCAnLXRuJywgJzgnLCAnLW1hJywgJzIwMCcsICctbWV0YWxfYmluZGluZycsICctaW1hZScsICc8aW5maWxlLm1hZT4nLCAnLW9tYWUnLCAnPG91dGZpbGUubWFlPic=

> <r_lp_tautomer_probability>
1

> <r_epik_Ionization_Penalty>
0.00318402

> <r_epik_Ionization_Penalty_Charging>
0

> <r_epik_Ionization_Penalty_Neutral>
0.00318402

> <r_epik_State_Penalty>
0.00215642

> <r_epik_Charging_Adjusted_Penalty>
0.00215642

> <i_epik_Tot_Q>
0

> <i_epik_Tot_abs_Q>
0

> <r_epik_Metal_State_Penalty>
-0

> <b_epik_Metal_Only>
0

> <s_lp_Force_Field>
OPLS_2005

> <r_lp_Energy>
54.9877

> <b_lp_Chiralities_Consistent>
1

> <s_lp_Variant>
AV-unprocessed.smi:229-5

> <Gold.Version>
5.8.1

> <Gold.Id.Protein>
6NUR|6NUR_protein|mol2

> <Gold.PLP.Fitness>
49.0236

> <Gold.PLP.PLP>
-39.2636

> <Gold.PLP.part.hbond>
-5.0000

> <Gold.PLP.part.metal>
0.0000

> <Gold.PLP.part.buried>
-5.5229

> <Gold.PLP.part.nonpolar>
-28.0883

> <Gold.PLP.part.repulsive>
0.2929

> <Gold.PLP.ligand.clash>
0.0000

> <Gold.PLP.ligand.torsion>
1.2983

> <Gold.PLP.Chemscore.Hbond>
4.0000

> <Gold.PLP.Chemscore.CHOScore>
0.0000

> <Gold.PLP.Chemscore.Metal>
0.0000

> <Gold.Chemscore.Hbonds>
donor molecule, donor type, donor heavy atom, donor atom, acceptor molecule, acceptor atom, score
      L1  H    17    43       P1  8028  1.00
      P1  H  7989  7998       L1     9  0.75
      P1  H 10752 10765       L1     7  0.81

> <Gold.PLP.Chemscore.Internal.Correction>
0.3566

> <Gold.Rescore>
     Score         DG    S(hbond)    S(metal)    S(lipo)     H(rot)  DE(clash)    DE(int)     intcor
     16.05     -19.49       2.77        0.00      94.43       2.46       0.84       2.59       ----

> <Gold.Chemscore.Fitness>
16.0548

> <Gold.Chemscore.DG>
-19.4923

> <Gold.Chemscore.ZeroCoef>
-5.4800

> <Gold.Chemscore.Hbond>
2.7724

> <Gold.Chemscore.Metal>
0.0000

> <Gold.Chemscore.Lipo>
94.4270

> <Gold.Chemscore.Internal_Hbond>
0.0000

> <Gold.Chemscore.DEClash>
0.8445

> <Gold.Chemscore.DEInternal>
2.5930

> <Gold.Chemscore.Rot>
2.4591

> <Gold.Chemscore.Internal.Correction>
   9.000000E+99

> <Gold.Chemscore.Hbonds>
donor molecule, donor type, donor heavy atom, donor atom, acceptor molecule, acceptor atom, score
      L1  H    17    43       P1  8028  0.30
      P1  H  7989  7998       L1     9  0.29
      P1  H 10752 10765       L1     7  0.68

> <Gold.Chemscore.Hbond.Weighted>
-9.2597

> <Gold.Chemscore.Metal.Weighted>
-0.0000

> <Gold.Chemscore.Lipo.Weighted>
-11.0480

> <Gold.Chemscore.Internal_Hbond.Weighted>
0.0000

> <Gold.Chemscore.DEClash.Weighted>
0.8445

> <Gold.Chemscore.DEInternal.Weighted>
2.5930

> <Gold.Chemscore.Rot.Weighted>
6.2953

> <Gold.Chemscore.Internal.Correction.Weighted>
   9.000000E+99

> <Gold.Protein.RotatedTorsions>
[ 6907 6896 6895 6894 ] final -138.96 input  -60.11 | X-H torsion
[ 7974 7965 7964 7962 ] final  -71.95 input  175.53 | X-H torsion
[ 8008 7997 7996 7995 ] final  163.42 input   59.86 | X-H torsion
[ 10167 10162 10161 10158 ] final   36.31 input  -65.29 | X-H torsion
[ 10718 10713 10712 10709 ] final -162.61 input   66.30 | X-H torsion
[ 10763 10752 10751 10750 ] final  177.49 input  -60.55 | X-H torsion
[ 11005 11000 10999 10996 ] final -120.10 input  -57.11 | X-H torsion

> <Gold.Protein.ActiveResidues>
 VAL166  LYS551  ARG553  GLY616  TRP617  ASP618  TYR619  PRO620  LYS621  CYS622 
 ASP623  PHE694  ASN695  SER759  ASP760  ASP761  ALA762  ILE779  LEU786  VAL792 
 PHE793  MET794  SER795  GLU796  ALA797  LYS798  CYS799  TRP800  GLU811  SER814 

> <Gold.Protein.RotatedAtoms>
  151.0417  133.5700  159.2650 H   0  0  0  0  0  0  0  0  0  0  0  0  # atno 6907 bound_to 6896
  151.2744  135.0694  159.9156 H   0  0  0  0  0  0  0  0  0  0  0  0  # atno 6908 bound_to 6896
  152.5365  134.0142  159.8006 H   0  0  0  0  0  0  0  0  0  0  0  0  # atno 6909 bound_to 6896
  145.6715  140.9219  143.0880 H   0  0  0  0  0  0  0  0  0  0  0  0  # atno 7974 bound_to 7965
  156.1958  140.1724  156.8000 H   0  0  0  0  0  0  0  0  0  0  0  0  # atno 8008 bound_to 7997
  154.5528  140.0714  156.8727 H   0  0  0  0  0  0  0  0  0  0  0  0  # atno 8009 bound_to 7997
  155.2995  140.3360  155.4251 H   0  0  0  0  0  0  0  0  0  0  0  0  # atno 8010 bound_to 7997
  140.4140  144.1553  150.6141 H   0  0  0  0  0  0  0  0  0  0  0  0  # atno 10167 bound_to 10162
  156.6129  130.8858  151.2940 H   0  0  0  0  0  0  0  0  0  0  0  0  # atno 10718 bound_to 10713
  154.4952  135.2781  155.1465 H   0  0  0  0  0  0  0  0  0  0  0  0  # atno 10763 bound_to 10752
  154.3121  135.6227  153.5474 H   0  0  0  0  0  0  0  0  0  0  0  0  # atno 10764 bound_to 10752
  152.9894  135.5722  154.5382 H   0  0  0  0  0  0  0  0  0  0  0  0  # atno 10765 bound_to 10752
  141.0168  134.0184  157.3339 H   0  0  0  0  0  0  0  0  0  0  0  0  # atno 11005 bound_to 11000
  144.7055  139.8578  143.7431 LP  0  0  0  0  0  0  0  0  0  0  0  0  # atno 17320 bound_to 7965
  146.1041  139.4039  143.0328 LP  0  0  0  0  0  0  0  0  0  0  0  0  # atno 17321 bound_to 7965
  140.4607  143.2450  151.9224 LP  0  0  0  0  0  0  0  0  0  0  0  0  # atno 17342 bound_to 10162
  139.4782  144.5470  151.8443 LP  0  0  0  0  0  0  0  0  0  0  0  0  # atno 17343 bound_to 10162
  157.7249  130.9609  150.1592 LP  0  0  0  0  0  0  0  0  0  0  0  0  # atno 17370 bound_to 10713
  156.2374  130.3688  149.8375 LP  0  0  0  0  0  0  0  0  0  0  0  0  # atno 17371 bound_to 10713
  139.9121  135.0192  156.7736 LP  0  0  0  0  0  0  0  0  0  0  0  0  # atno 17394 bound_to 11000
  140.6642  133.9618  155.7821 LP  0  0  0  0  0  0  0  0  0  0  0  0  # atno 17395 bound_to 11000

$$$$
