AV-unprocessed.smi:1325|AV-procd|sdf|5473|dock9
  -GOLD-   22720 5 43D 1   1.00000     0.00000
 Structure written by MMmdl.
 35 36  0  0  0  0  0  0  0  0  1 V2000
  150.0381  144.0919  159.1320 C   0  0  0  0  0  0  0  0  0  0  0  0
  150.9455  142.8987  158.9976 C   0  0  0  0  0  0  0  0  0  0  0  0
  150.6096  142.0092  158.1222 N   0  0  0  0  0  0  0  0  0  0  0  0
  151.3695  140.8741  157.9216 N   0  0  0  0  0  0  0  0  0  0  0  0
  150.8362  139.9754  156.8900 C   0  0  0  0  0  0  0  0  0  0  0  0
  150.8875  140.6013  155.4787 C   0  0  1  0  0  0  0  0  0  0  0  0
  151.9265  139.9830  154.7445 O   0  0  0  0  0  0  0  0  0  0  0  0
  149.5495  140.4562  154.7695 C   0  0  0  0  0  0  0  0  0  0  0  0
  148.7785  141.5954  154.4479 C   0  0  0  0  0  0  0  0  0  0  0  0
  147.5445  141.4537  153.7840 C   0  0  0  0  0  0  0  0  0  0  0  0
  147.0743  140.1728  153.4367 C   0  0  0  0  0  0  0  0  0  0  0  0
  147.8399  139.0337  153.7519 C   0  0  0  0  0  0  0  0  0  0  0  0
  149.0744  139.1751  154.4151 C   0  0  0  0  0  0  0  0  0  0  0  0
  152.5156  140.5773  158.5985 C   0  0  0  0  0  0  0  0  0  0  0  0
  153.1609  139.5485  158.3902 O   0  0  0  0  0  0  0  0  0  0  0  0
  152.8930  141.5909  159.5863 C   0  0  0  0  0  0  0  0  0  0  0  0
  154.0887  141.3200  160.3171 C   0  0  0  0  0  0  0  0  0  0  0  0
  155.0526  141.0812  160.9123 N   0  0  0  0  0  0  0  0  0  0  0  0
  152.1551  142.7103  159.7922 C   0  0  0  0  0  0  0  0  0  0  0  0
  152.5024  143.7925  160.8054 C   0  0  0  0  0  0  0  0  0  0  0  0
  149.6637  144.1812  160.1517 H   0  0  0  0  0  0  0  0  0  0  0  0
  149.1733  144.0223  158.4703 H   0  0  0  0  0  0  0  0  0  0  0  0
  150.5689  145.0111  158.8848 H   0  0  0  0  0  0  0  0  0  0  0  0
  151.3537  139.0138  156.9002 H   0  0  0  0  0  0  0  0  0  0  0  0
  149.8013  139.7394  157.1455 H   0  0  0  0  0  0  0  0  0  0  0  0
  151.1234  141.6639  155.5470 H   0  0  0  0  0  0  0  0  0  0  0  0
  152.1186  139.1487  155.1445 H   0  0  0  0  0  0  0  0  0  0  0  0
  149.1330  142.5823  154.7076 H   0  0  0  0  0  0  0  0  0  0  0  0
  146.9591  142.3282  153.5407 H   0  0  0  0  0  0  0  0  0  0  0  0
  146.1280  140.0643  152.9276 H   0  0  0  0  0  0  0  0  0  0  0  0
  147.4807  138.0510  153.4840 H   0  0  0  0  0  0  0  0  0  0  0  0
  149.6554  138.2950  154.6495 H   0  0  0  0  0  0  0  0  0  0  0  0
  153.4355  143.5849  161.3280 H   0  0  0  0  0  0  0  0  0  0  0  0
  151.7173  143.8778  161.5573 H   0  0  0  0  0  0  0  0  0  0  0  0
  152.6134  144.7583  160.3118 H   0  0  0  0  0  0  0  0  0  0  0  0
  1  2  1  0  0  0  0
  1 21  1  0  0  0  0
  1 22  1  0  0  0  0
  1 23  1  0  0  0  0
  2 19  1  0  0  0  0
  2  3  2  0  0  0  0
  3  4  1  0  0  0  0
  4  5  1  0  0  0  0
  4 14  1  0  0  0  0
  5  6  1  0  0  0  0
  5 24  1  0  0  0  0
  5 25  1  0  0  0  0
  6  7  1  0  0  0  0
  6  8  1  0  0  0  0
  6 26  1  0  0  0  0
  7 27  1  0  0  0  0
  8 13  1  0  0  0  0
  8  9  2  0  0  0  0
  9 10  1  0  0  0  0
  9 28  1  0  0  0  0
 10 11  2  0  0  0  0
 10 29  1  0  0  0  0
 11 12  1  0  0  0  0
 11 30  1  0  0  0  0
 12 13  2  0  0  0  0
 12 31  1  0  0  0  0
 13 32  1  0  0  0  0
 14 15  2  0  0  0  0
 14 16  1  0  0  0  0
 16 17  1  0  0  0  0
 16 19  2  0  0  0  0
 17 18  3  0  0  0  0
 19 20  1  0  0  0  0
 20 33  1  0  0  0  0
 20 34  1  0  0  0  0
 20 35  1  0  0  0  0
M  END
> <s_m_source_file>
AV-unprocessed.smi

> <i_m_source_file_index>
1325

> <i_lp_mmshare_version>
43012

> <i_f3d_flags>
0

> <s_epik_input>
TiNDYyhjMVtDSDNdKWMoPU8pbihuYzFbQ0gzXSlbQ0gyXVtDQEhdKFtPSF0pYzJbY0hdW2NIXVtjSF1bY0hdW2NIXTI=

> <s_epik_cmdline>
J2VwaWtfcHl0aG9uJywgJy1waCcsICc3LjAnLCAnLXRuJywgJzgnLCAnLW1hJywgJzIwMCcsICctbWV0YWxfYmluZGluZycsICctaW1hZScsICc8aW5maWxlLm1hZT4nLCAnLW9tYWUnLCAnPG91dGZpbGUubWFlPic=

> <r_lp_tautomer_probability>
1

> <r_epik_Ionization_Penalty>
7.1854e-08

> <r_epik_Ionization_Penalty_Charging>
1.40848e-10

> <r_epik_Ionization_Penalty_Neutral>
7.17131e-08

> <r_epik_State_Penalty>
-0

> <r_epik_Charging_Adjusted_Penalty>
1.40848e-10

> <i_epik_Tot_Q>
0

> <i_epik_Tot_abs_Q>
0

> <r_epik_Metal_State_Penalty>
-0

> <b_epik_Metal_Only>
0

> <s_lp_Force_Field>
OPLS_2005

> <r_lp_Energy>
28.0712

> <b_lp_Chiralities_Consistent>
1

> <s_lp_Variant>
AV-unprocessed.smi:1325-2

> <Gold.Version>
5.8.1

> <Gold.Id.Protein>
6NUR|6NUR_protein|mol2

> <Gold.PLP.Fitness>
45.3846

> <Gold.PLP.PLP>
-42.3249

> <Gold.PLP.part.hbond>
-2.7343

> <Gold.PLP.part.metal>
0.0000

> <Gold.PLP.part.buried>
-3.1446

> <Gold.PLP.part.nonpolar>
-36.0243

> <Gold.PLP.part.repulsive>
0.0530

> <Gold.PLP.ligand.clash>
0.0000

> <Gold.PLP.ligand.torsion>
0.7641

> <Gold.PLP.Chemscore.Hbond>
1.5280

> <Gold.PLP.Chemscore.CHOScore>
0.0000

> <Gold.PLP.Chemscore.Metal>
0.0000

> <Gold.Chemscore.Hbonds>
donor molecule, donor type, donor heavy atom, donor atom, acceptor molecule, acceptor atom, score
      P1  H  7989  7998       L1     7  0.58
      P1  H  7997  8009       L1    15  0.99

> <Gold.PLP.Chemscore.Internal.Correction>
0.0039

> <Gold.Rescore>
     Score         DG    S(hbond)    S(metal)    S(lipo)     H(rot)  DE(clash)    DE(int)     intcor
     14.77     -15.65       1.60        0.00      82.91       1.90       0.17       0.72       ----

> <Gold.Chemscore.Fitness>
14.7712

> <Gold.Chemscore.DG>
-15.6542

> <Gold.Chemscore.ZeroCoef>
-5.4800

> <Gold.Chemscore.Hbond>
1.6017

> <Gold.Chemscore.Metal>
0.0000

> <Gold.Chemscore.Lipo>
82.9112

> <Gold.Chemscore.Internal_Hbond>
0.0000

> <Gold.Chemscore.DEClash>
0.1670

> <Gold.Chemscore.DEInternal>
0.7160

> <Gold.Chemscore.Rot>
1.9047

> <Gold.Chemscore.Internal.Correction>
   9.000000E+99

> <Gold.Chemscore.Hbonds>
donor molecule, donor type, donor heavy atom, donor atom, acceptor molecule, acceptor atom, score
      P1  H  7989  7998       L1     7  0.05
      P1  H  7997  8009       L1    15  0.51

> <Gold.Chemscore.Hbond.Weighted>
-5.3496

> <Gold.Chemscore.Metal.Weighted>
-0.0000

> <Gold.Chemscore.Lipo.Weighted>
-9.7006

> <Gold.Chemscore.Internal_Hbond.Weighted>
0.0000

> <Gold.Chemscore.DEClash.Weighted>
0.1670

> <Gold.Chemscore.DEInternal.Weighted>
0.7160

> <Gold.Chemscore.Rot.Weighted>
4.8760

> <Gold.Chemscore.Internal.Correction.Weighted>
   9.000000E+99

> <Gold.Protein.RotatedTorsions>
[ 6907 6896 6895 6894 ] final   87.15 input  -60.11 | X-H torsion
[ 7974 7965 7964 7962 ] final  146.59 input  175.53 | X-H torsion
[ 8008 7997 7996 7995 ] final  152.72 input   59.86 | X-H torsion
[ 10167 10162 10161 10158 ] final  -47.30 input  -65.29 | X-H torsion
[ 10718 10713 10712 10709 ] final  176.12 input   66.30 | X-H torsion
[ 10763 10752 10751 10750 ] final  -74.58 input  -60.55 | X-H torsion
[ 11005 11000 10999 10996 ] final -110.52 input  -57.11 | X-H torsion

> <Gold.Protein.ActiveResidues>
 VAL166  LYS551  ARG553  GLY616  TRP617  ASP618  TYR619  PRO620  LYS621  CYS622 
 ASP623  PHE694  ASN695  SER759  ASP760  ASP761  ALA762  ILE779  LEU786  VAL792 
 PHE793  MET794  SER795  GLU796  ALA797  LYS798  CYS799  TRP800  GLU811  SER814 

> <Gold.Protein.RotatedAtoms>
  152.5406  134.2321  159.8828 H   0  0  0  0  0  0  0  0  0  0  0  0  # atno 6907 bound_to 6896
  151.2292  133.4453  159.2611 H   0  0  0  0  0  0  0  0  0  0  0  0  # atno 6908 bound_to 6896
  151.0731  134.9824  159.8375 H   0  0  0  0  0  0  0  0  0  0  0  0  # atno 6909 bound_to 6896
  144.8658  139.5924  143.5909 H   0  0  0  0  0  0  0  0  0  0  0  0  # atno 7974 bound_to 7965
  156.2616  140.2013  156.6377 H   0  0  0  0  0  0  0  0  0  0  0  0  # atno 8008 bound_to 7997
  154.6633  140.0558  157.0111 H   0  0  0  0  0  0  0  0  0  0  0  0  # atno 8009 bound_to 7997
  155.1243  140.3227  155.4492 H   0  0  0  0  0  0  0  0  0  0  0  0  # atno 8010 bound_to 7997
  140.6781  143.2791  151.3907 H   0  0  0  0  0  0  0  0  0  0  0  0  # atno 10167 bound_to 10162
  156.9248  130.9952  151.2998 H   0  0  0  0  0  0  0  0  0  0  0  0  # atno 10718 bound_to 10713
  154.4751  135.5859  153.6349 H   0  0  0  0  0  0  0  0  0  0  0  0  # atno 10763 bound_to 10752
  152.9839  135.6076  154.3318 H   0  0  0  0  0  0  0  0  0  0  0  0  # atno 10764 bound_to 10752
  154.3203  135.2843  155.2502 H   0  0  0  0  0  0  0  0  0  0  0  0  # atno 10765 bound_to 10752
  141.0787  133.9257  157.2335 H   0  0  0  0  0  0  0  0  0  0  0  0  # atno 11005 bound_to 11000
  146.2895  139.7098  142.9171 LP  0  0  0  0  0  0  0  0  0  0  0  0  # atno 17320 bound_to 7965
  145.4224  141.0407  143.2956 LP  0  0  0  0  0  0  0  0  0  0  0  0  # atno 17321 bound_to 7965
  139.6085  144.1147  152.2274 LP  0  0  0  0  0  0  0  0  0  0  0  0  # atno 17342 bound_to 10162
  140.0553  144.5900  150.7304 LP  0  0  0  0  0  0  0  0  0  0  0  0  # atno 17343 bound_to 10162
  157.5885  130.8426  149.8624 LP  0  0  0  0  0  0  0  0  0  0  0  0  # atno 17370 bound_to 10713
  156.0474  130.3725  150.1283 LP  0  0  0  0  0  0  0  0  0  0  0  0  # atno 17371 bound_to 10713
  139.9600  135.0156  156.9234 LP  0  0  0  0  0  0  0  0  0  0  0  0  # atno 17394 bound_to 11000
  140.5517  134.0621  155.7371 LP  0  0  0  0  0  0  0  0  0  0  0  0  # atno 17395 bound_to 11000

$$$$
