AV-unprocessed.smi:2757|AV-procd|sdf|10621|dock3
  -GOLD-   2272015 63D 1   1.00000     0.00000
 Structure written by MMmdl.
 32 33  0  0  0  0  0  0  0  0  2 V2000
  144.2144  133.0624  157.3957 C   0  0  0  0  0  0  0  0  0  0  0  0
  144.7909  133.0589  156.0603 N   0  0  0  0  0  0  0  0  0  0  0  0
  146.0469  133.4358  155.7784 C   0  0  0  0  0  0  0  0  0  0  0  0
  146.8481  133.8308  156.6262 O   0  0  0  0  0  0  0  0  0  0  0  0
  146.4339  133.3285  154.3326 C   0  0  0  0  0  0  0  0  0  0  0  0
  147.7845  133.0703  153.9559 C   0  0  0  0  0  0  0  0  0  0  0  0
  147.7457  133.0380  152.5916 C   0  0  0  0  0  0  0  0  0  0  0  0
  146.4404  133.2669  152.2095 N   0  0  0  0  0  0  0  0  0  0  0  0
  145.8968  133.3304  150.8612 C   0  0  1  0  0  0  0  0  0  0  0  0
  145.9594  131.9600  150.1560 C   0  0  0  0  0  0  0  0  0  0  0  0
  145.3614  132.0590  148.7445 C   0  0  0  0  0  0  0  0  0  0  0  0
  143.9351  132.6330  148.7908 C   0  0  0  0  0  0  0  0  0  0  0  0
  143.9182  133.9418  149.4804 N   0  3  0  0  0  0  0  0  0  0  0  0
  144.4528  133.8758  150.8586 C   0  0  0  0  0  0  0  0  0  0  0  0
  145.6355  133.4515  153.2800 N   0  0  0  0  0  0  0  0  0  0  0  0
  143.1723  132.7456  157.3519 H   0  0  0  0  0  0  0  0  0  0  0  0
  144.2494  134.0611  157.8329 H   0  0  0  0  0  0  0  0  0  0  0  0
  144.7522  132.3760  158.0508 H   0  0  0  0  0  0  0  0  0  0  0  0
  144.2052  132.7438  155.3006 H   0  0  0  0  0  0  0  0  0  0  0  0
  148.6488  132.9276  154.5881 H   0  0  0  0  0  0  0  0  0  0  0  0
  148.5317  132.8716  151.8697 H   0  0  0  0  0  0  0  0  0  0  0  0
  146.5213  134.0265  150.2984 H   0  0  0  0  0  0  0  0  0  0  0  0
  146.9906  131.6098  150.1006 H   0  0  0  0  0  0  0  0  0  0  0  0
  145.4071  131.2134  150.7284 H   0  0  0  0  0  0  0  0  0  0  0  0
  145.9936  132.6940  148.1225 H   0  0  0  0  0  0  0  0  0  0  0  0
  145.3527  131.0752  148.2740 H   0  0  0  0  0  0  0  0  0  0  0  0
  143.5439  132.7570  147.7807 H   0  0  0  0  0  0  0  0  0  0  0  0
  143.2661  131.9456  149.3103 H   0  0  0  0  0  0  0  0  0  0  0  0
  144.4789  134.5926  148.9490 H   0  0  0  0  0  0  0  0  0  0  0  0
  143.7970  133.2446  151.4602 H   0  0  0  0  0  0  0  0  0  0  0  0
  144.4226  134.8740  151.2963 H   0  0  0  0  0  0  0  0  0  0  0  0
  142.9679  134.2823  149.5137 H   0  0  0  0  0  0  0  0  0  0  0  0
  1  2  1  0  0  0  0
  1 16  1  0  0  0  0
  1 17  1  0  0  0  0
  1 18  1  0  0  0  0
  2  3  1  0  0  0  0
  2 19  1  0  0  0  0
  3  4  2  0  0  0  0
  3  5  1  0  0  0  0
  5 15  2  0  0  0  0
  5  6  1  0  0  0  0
  6  7  2  0  0  0  0
  6 20  1  0  0  0  0
  7  8  1  0  0  0  0
  7 21  1  0  0  0  0
  8  9  1  0  0  0  0
  8 15  1  0  0  0  0
  9 14  1  0  0  0  0
  9 10  1  0  0  0  0
  9 22  1  0  0  0  0
 10 11  1  0  0  0  0
 10 23  1  0  0  0  0
 10 24  1  0  0  0  0
 11 12  1  0  0  0  0
 11 25  1  0  0  0  0
 11 26  1  0  0  0  0
 12 13  1  0  0  0  0
 12 27  1  0  0  0  0
 12 28  1  0  0  0  0
 13 14  1  0  0  0  0
 13 29  1  0  0  0  0
 13 32  1  0  0  0  0
 14 30  1  0  0  0  0
 14 31  1  0  0  0  0
M  CHG  1  13   1
M  END
> <s_m_source_file>
AV-unprocessed.smi

> <i_m_source_file_index>
2757

> <i_lp_mmshare_version>
43012

> <i_f3d_flags>
0

> <s_epik_input>
W0NIM11bTkhdQyg9TyljMVtjSF1bY0hdbihuMSlbQ0BASF0yW0NIMl1bQ0gyXVtDSDJdW05IXVtDSDJdMg==

> <s_epik_cmdline>
J2VwaWtfcHl0aG9uJywgJy1waCcsICc3LjAnLCAnLXRuJywgJzgnLCAnLW1hJywgJzIwMCcsICctbWV0YWxfYmluZGluZycsICctaW1hZScsICc8aW5maWxlLm1hZT4nLCAnLW9tYWUnLCAnPG91dGZpbGUubWFlPic=

> <r_lp_tautomer_probability>
1

> <r_epik_Ionization_Penalty>
0.000652722

> <r_epik_Ionization_Penalty_Charging>
0.000651447

> <r_epik_Ionization_Penalty_Neutral>
1.27533e-06

> <r_epik_State_Penalty>
0.000412577

> <r_epik_Charging_Adjusted_Penalty>
0.00106402

> <i_epik_Tot_Q>
1

> <i_epik_Tot_abs_Q>
1

> <r_epik_Metal_State_Penalty>
-0

> <b_epik_Metal_Only>
0

> <s_lp_Force_Field>
OPLS_2005

> <r_lp_Energy>
20.0976

> <b_lp_Chiralities_Consistent>
1

> <s_lp_Variant>
AV-unprocessed.smi:2757-2

> <Gold.Version>
5.8.1

> <Gold.Id.Protein>
6NUR|6NUR_protein|mol2

> <Gold.PLP.Fitness>
37.7834

> <Gold.PLP.PLP>
-24.1308

> <Gold.PLP.part.hbond>
-3.0000

> <Gold.PLP.part.metal>
0.0000

> <Gold.PLP.part.buried>
-1.3539

> <Gold.PLP.part.nonpolar>
-20.5201

> <Gold.PLP.part.repulsive>
0.1854

> <Gold.PLP.ligand.clash>
0.0000

> <Gold.PLP.ligand.torsion>
0.5151

> <Gold.PLP.Chemscore.Hbond>
3.8880

> <Gold.PLP.Chemscore.CHOScore>
1.0000

> <Gold.PLP.Chemscore.Metal>
0.0000

> <Gold.Chemscore.Hbonds>
donor molecule, donor type, donor heavy atom, donor atom, acceptor molecule, acceptor atom, score
      L1  H     2    19       P1 10957  0.91
      L1  H    13    29       P1  7921  0.71
      L1  H    13    32       P1 10186  2.00
      L1  C     7    21       P1 10747  0.85

> <Gold.PLP.Chemscore.Internal.Correction>
0.0189

> <Gold.Rescore>
     Score         DG    S(hbond)    S(metal)    S(lipo)     H(rot)  DE(clash)    DE(int)     intcor
     19.23     -19.85       2.71        0.00      67.24       1.00       0.10       0.53       ----

> <Gold.Chemscore.Fitness>
19.2293

> <Gold.Chemscore.DG>
-19.8543

> <Gold.Chemscore.ZeroCoef>
-5.4800

> <Gold.Chemscore.Hbond>
2.7147

> <Gold.Chemscore.Metal>
0.0000

> <Gold.Chemscore.Lipo>
67.2398

> <Gold.Chemscore.Internal_Hbond>
0.0000

> <Gold.Chemscore.DEClash>
0.0996

> <Gold.Chemscore.DEInternal>
0.5253

> <Gold.Chemscore.Rot>
1.0000

> <Gold.Chemscore.Internal.Correction>
   9.000000E+99

> <Gold.Chemscore.Hbonds>
donor molecule, donor type, donor heavy atom, donor atom, acceptor molecule, acceptor atom, score
      L1  H     2    19       P1 10957  0.89
      L1  H    13    29       P1  7921  0.69
      L1  H    13    32       P1 10186  0.98

> <Gold.Chemscore.Hbond.Weighted>
-9.0672

> <Gold.Chemscore.Metal.Weighted>
-0.0000

> <Gold.Chemscore.Lipo.Weighted>
-7.8671

> <Gold.Chemscore.Internal_Hbond.Weighted>
0.0000

> <Gold.Chemscore.DEClash.Weighted>
0.0996

> <Gold.Chemscore.DEInternal.Weighted>
0.5253

> <Gold.Chemscore.Rot.Weighted>
2.5600

> <Gold.Chemscore.Internal.Correction.Weighted>
   9.000000E+99

> <Gold.Protein.RotatedTorsions>
[ 6907 6896 6895 6894 ] final  -99.00 input  -60.11 | X-H torsion
[ 7974 7965 7964 7962 ] final  -41.17 input  175.53 | X-H torsion
[ 8008 7997 7996 7995 ] final  172.19 input   59.86 | X-H torsion
[ 10167 10162 10161 10158 ] final  -82.55 input  -65.29 | X-H torsion
[ 10718 10713 10712 10709 ] final -125.38 input   66.30 | X-H torsion
[ 10763 10752 10751 10750 ] final -121.73 input  -60.55 | X-H torsion
[ 11005 11000 10999 10996 ] final    8.29 input  -57.11 | X-H torsion

> <Gold.Protein.ActiveResidues>
 VAL166  LYS551  ARG553  GLY616  TRP617  ASP618  TYR619  PRO620  LYS621  CYS622 
 ASP623  PHE694  ASN695  SER759  ASP760  ASP761  ALA762  ILE779  LEU786  VAL792 
 PHE793  MET794  SER795  GLU796  ALA797  LYS798  CYS799  TRP800  GLU811  SER814 

> <Gold.Protein.RotatedAtoms>
  150.7065  134.1107  159.3998 H   0  0  0  0  0  0  0  0  0  0  0  0  # atno 6907 bound_to 6896
  151.9094  135.0343  160.0522 H   0  0  0  0  0  0  0  0  0  0  0  0  # atno 6908 bound_to 6896
  152.2348  133.5052  159.5273 H   0  0  0  0  0  0  0  0  0  0  0  0  # atno 6909 bound_to 6896
  146.0236  140.6819  142.9166 H   0  0  0  0  0  0  0  0  0  0  0  0  # atno 7974 bound_to 7965
  156.1199  140.1492  156.9219 H   0  0  0  0  0  0  0  0  0  0  0  0  # atno 8008 bound_to 7997
  154.4828  140.0874  156.7458 H   0  0  0  0  0  0  0  0  0  0  0  0  # atno 8009 bound_to 7997
  155.4447  140.3432  155.4296 H   0  0  0  0  0  0  0  0  0  0  0  0  # atno 8010 bound_to 7997
  140.4309  143.2549  151.8760 H   0  0  0  0  0  0  0  0  0  0  0  0  # atno 10167 bound_to 10162
  156.1670  130.6641  151.0128 H   0  0  0  0  0  0  0  0  0  0  0  0  # atno 10718 bound_to 10713
  154.8674  135.4157  154.2667 H   0  0  0  0  0  0  0  0  0  0  0  0  # atno 10763 bound_to 10752
  153.3585  135.7002  153.6737 H   0  0  0  0  0  0  0  0  0  0  0  0  # atno 10764 bound_to 10752
  153.5647  135.3603  155.2786 H   0  0  0  0  0  0  0  0  0  0  0  0  # atno 10765 bound_to 10752
  140.5387  134.0396  155.7897 H   0  0  0  0  0  0  0  0  0  0  0  0  # atno 11005 bound_to 11000
  144.7000  140.3610  143.7164 LP  0  0  0  0  0  0  0  0  0  0  0  0  # atno 17320 bound_to 7965
  145.7153  139.1695  143.2515 LP  0  0  0  0  0  0  0  0  0  0  0  0  # atno 17321 bound_to 7965
  139.4785  144.5335  151.8632 LP  0  0  0  0  0  0  0  0  0  0  0  0  # atno 17342 bound_to 10162
  140.4428  144.1963  150.5892 LP  0  0  0  0  0  0  0  0  0  0  0  0  # atno 17343 bound_to 10162
  157.6775  131.0846  150.7456 LP  0  0  0  0  0  0  0  0  0  0  0  0  # atno 17370 bound_to 10713
  156.7517  130.4770  149.5455 LP  0  0  0  0  0  0  0  0  0  0  0  0  # atno 17371 bound_to 10713
  141.1240  133.9414  157.2673 LP  0  0  0  0  0  0  0  0  0  0  0  0  # atno 17394 bound_to 11000
  139.9515  135.0174  156.9008 LP  0  0  0  0  0  0  0  0  0  0  0  0  # atno 17395 bound_to 11000

$$$$
