AV-unprocessed.smi:940|AV-procd|sdf|4219|dock8
  -GOLD-   22720 2133D 1   1.00000     0.00000
 Structure written by MMmdl.
 36 36  0  0  0  0  0  0  0  0  1 V2000
  152.5909  144.5665  157.8811 C   0  0  0  0  0  0  0  0  0  0  0  0
  151.6082  143.4732  158.3201 C   0  0  0  0  0  0  0  0  0  0  0  0
  150.8967  142.9041  157.1818 N   0  0  0  0  0  0  0  0  0  0  0  0
  151.0409  141.6476  156.7312 C   0  0  0  0  0  0  0  0  0  0  0  0
  151.7977  140.8249  157.2459 O   0  0  0  0  0  0  0  0  0  0  0  0
  150.1985  141.2557  155.5159 C   0  0  0  0  0  0  0  0  0  0  0  0
  150.4651  139.8874  155.1099 N   0  0  0  0  0  0  0  0  0  0  0  0
  151.6734  139.3171  154.7623 C   0  0  0  0  0  0  0  0  0  0  0  0
  151.4386  138.0056  154.4628 C   0  0  0  0  0  0  0  0  0  0  0  0
  150.0320  137.8710  154.6649 C   0  0  0  0  0  0  0  0  0  0  0  0
  149.2698  136.6889  154.4794 N   0  0  0  0  0  0  0  0  0  0  0  0
  148.9957  135.7199  155.3714 C   0  0  0  0  0  0  0  0  0  0  0  0
  149.3662  135.7204  156.5449 O   0  0  0  0  0  0  0  0  0  0  0  0
  148.1540  134.5551  154.8521 C   0  0  0  0  0  0  0  0  0  0  0  0
  148.9184  133.3643  154.9491 O   0  0  0  0  0  0  0  0  0  0  0  0
  149.7259  133.1357  153.8072 C   0  0  0  0  0  0  0  0  0  0  0  0
  148.8175  132.8993  152.5985 C   0  0  0  0  0  0  0  0  0  0  0  0
  149.4514  138.9962  155.0445 N   0  0  0  0  0  0  0  0  0  0  0  0
  153.1341  144.9650  158.7382 H   0  0  0  0  0  0  0  0  0  0  0  0
  152.0725  145.3981  157.4031 H   0  0  0  0  0  0  0  0  0  0  0  0
  153.3244  144.1769  157.1748 H   0  0  0  0  0  0  0  0  0  0  0  0
  152.1511  142.6698  158.8183 H   0  0  0  0  0  0  0  0  0  0  0  0
  150.9007  143.8688  159.0508 H   0  0  0  0  0  0  0  0  0  0  0  0
  150.2502  143.5108  156.6989 H   0  0  0  0  0  0  0  0  0  0  0  0
  149.1368  141.3640  155.7441 H   0  0  0  0  0  0  0  0  0  0  0  0
  150.4161  141.9222  154.6803 H   0  0  0  0  0  0  0  0  0  0  0  0
  152.5910  139.8865  154.7576 H   0  0  0  0  0  0  0  0  0  0  0  0
  152.1686  137.2747  154.1494 H   0  0  0  0  0  0  0  0  0  0  0  0
  148.8753  136.5704  153.5576 H   0  0  0  0  0  0  0  0  0  0  0  0
  147.2471  134.4775  155.4538 H   0  0  0  0  0  0  0  0  0  0  0  0
  147.8554  134.7282  153.8166 H   0  0  0  0  0  0  0  0  0  0  0  0
  150.3714  133.9961  153.6251 H   0  0  0  0  0  0  0  0  0  0  0  0
  150.3676  132.2678  153.9664 H   0  0  0  0  0  0  0  0  0  0  0  0
  149.4053  132.7203  151.6982 H   0  0  0  0  0  0  0  0  0  0  0  0
  148.1783  133.7635  152.4150 H   0  0  0  0  0  0  0  0  0  0  0  0
  148.1737  132.0337  152.7560 H   0  0  0  0  0  0  0  0  0  0  0  0
  1  2  1  0  0  0  0
  1 19  1  0  0  0  0
  1 20  1  0  0  0  0
  1 21  1  0  0  0  0
  2  3  1  0  0  0  0
  2 22  1  0  0  0  0
  2 23  1  0  0  0  0
  3  4  1  0  0  0  0
  3 24  1  0  0  0  0
  4  5  2  0  0  0  0
  4  6  1  0  0  0  0
  6  7  1  0  0  0  0
  6 25  1  0  0  0  0
  6 26  1  0  0  0  0
  7 18  1  0  0  0  0
  7  8  1  0  0  0  0
  8  9  2  0  0  0  0
  8 27  1  0  0  0  0
  9 10  1  0  0  0  0
  9 28  1  0  0  0  0
 10 11  1  0  0  0  0
 10 18  2  0  0  0  0
 11 12  1  0  0  0  0
 11 29  1  0  0  0  0
 12 13  2  0  0  0  0
 12 14  1  0  0  0  0
 14 15  1  0  0  0  0
 14 30  1  0  0  0  0
 14 31  1  0  0  0  0
 15 16  1  0  0  0  0
 16 17  1  0  0  0  0
 16 32  1  0  0  0  0
 16 33  1  0  0  0  0
 17 34  1  0  0  0  0
 17 35  1  0  0  0  0
 17 36  1  0  0  0  0
M  END
> <s_m_source_file>
AV-unprocessed.smi

> <i_m_source_file_index>
940

> <i_lp_mmshare_version>
43012

> <i_f3d_flags>
0

> <s_epik_input>
W0NIM11bQ0gyXVtOSF1DKD1PKVtDSDJdbjFbY0hdW2NIXWMobjEpW05IXUMoPU8pW0NIMl1PW0NIMl1bQ0gzXQ==

> <s_epik_cmdline>
J2VwaWtfcHl0aG9uJywgJy1waCcsICc3LjAnLCAnLXRuJywgJzgnLCAnLW1hJywgJzIwMCcsICctbWV0YWxfYmluZGluZycsICctaW1hZScsICc8aW5maWxlLm1hZT4nLCAnLW9tYWUnLCAnPG91dGZpbGUubWFlPic=

> <r_lp_tautomer_probability>
1

> <r_epik_Ionization_Penalty>
3.22351e-06

> <r_epik_Ionization_Penalty_Charging>
0

> <r_epik_Ionization_Penalty_Neutral>
3.22351e-06

> <r_epik_State_Penalty>
-0

> <r_epik_Charging_Adjusted_Penalty>
0

> <i_epik_Tot_Q>
0

> <i_epik_Tot_abs_Q>
0

> <r_epik_Metal_State_Penalty>
-0

> <b_epik_Metal_Only>
0

> <s_lp_Force_Field>
OPLS_2005

> <r_lp_Energy>
6.8138

> <b_lp_Chiralities_Consistent>
1

> <s_lp_Variant>
AV-unprocessed.smi:940-1

> <Gold.Version>
5.8.1

> <Gold.Id.Protein>
6NUR|6NUR_protein|mol2

> <Gold.PLP.Fitness>
38.2714

> <Gold.PLP.PLP>
-34.1440

> <Gold.PLP.part.hbond>
-2.0000

> <Gold.PLP.part.metal>
0.0000

> <Gold.PLP.part.buried>
-3.3890

> <Gold.PLP.part.nonpolar>
-28.7648

> <Gold.PLP.part.repulsive>
0.1256

> <Gold.PLP.ligand.clash>
0.0000

> <Gold.PLP.ligand.torsion>
0.9626

> <Gold.PLP.Chemscore.Hbond>
2.0000

> <Gold.PLP.Chemscore.CHOScore>
0.0000

> <Gold.PLP.Chemscore.Metal>
0.0000

> <Gold.Chemscore.Hbonds>
donor molecule, donor type, donor heavy atom, donor atom, acceptor molecule, acceptor atom, score
      L1  H     3    24       P1  8028  0.84
      L1  H    11    29       P1  7948  1.00

> <Gold.PLP.Chemscore.Internal.Correction>
0.0526

> <Gold.Rescore>
     Score         DG    S(hbond)    S(metal)    S(lipo)     H(rot)  DE(clash)    DE(int)     intcor
     11.94     -13.13       1.99        0.00      59.67       2.34       0.01       1.18       ----

> <Gold.Chemscore.Fitness>
11.9366

> <Gold.Chemscore.DG>
-13.1287

> <Gold.Chemscore.ZeroCoef>
-5.4800

> <Gold.Chemscore.Hbond>
1.9911

> <Gold.Chemscore.Metal>
0.0000

> <Gold.Chemscore.Lipo>
59.6741

> <Gold.Chemscore.Internal_Hbond>
0.0000

> <Gold.Chemscore.DEClash>
0.0121

> <Gold.Chemscore.DEInternal>
1.1800

> <Gold.Chemscore.Rot>
2.3372

> <Gold.Chemscore.Internal.Correction>
   9.000000E+99

> <Gold.Chemscore.Hbonds>
donor molecule, donor type, donor heavy atom, donor atom, acceptor molecule, acceptor atom, score
      L1  H     3    24       P1  8028  0.84
      L1  H    11    29       P1  7948  0.97

> <Gold.Chemscore.Hbond.Weighted>
-6.6501

> <Gold.Chemscore.Metal.Weighted>
-0.0000

> <Gold.Chemscore.Lipo.Weighted>
-6.9819

> <Gold.Chemscore.Internal_Hbond.Weighted>
0.0000

> <Gold.Chemscore.DEClash.Weighted>
0.0121

> <Gold.Chemscore.DEInternal.Weighted>
1.1800

> <Gold.Chemscore.Rot.Weighted>
5.9833

> <Gold.Chemscore.Internal.Correction.Weighted>
   9.000000E+99

> <Gold.Protein.RotatedTorsions>
[ 6907 6896 6895 6894 ] final -100.37 input  -60.11 | X-H torsion
[ 7974 7965 7964 7962 ] final  -65.28 input  175.53 | X-H torsion
[ 8008 7997 7996 7995 ] final  172.64 input   59.86 | X-H torsion
[ 10167 10162 10161 10158 ] final -125.01 input  -65.29 | X-H torsion
[ 10718 10713 10712 10709 ] final   65.12 input   66.30 | X-H torsion
[ 10763 10752 10751 10750 ] final   12.24 input  -60.55 | X-H torsion
[ 11005 11000 10999 10996 ] final  128.94 input  -57.11 | X-H torsion

> <Gold.Protein.ActiveResidues>
 VAL166  LYS551  ARG553  GLY616  TRP617  ASP618  TYR619  PRO620  LYS621  CYS622 
 ASP623  PHE694  ASN695  SER759  ASP760  ASP761  ALA762  ILE779  LEU786  VAL792 
 PHE793  MET794  SER795  GLU796  ALA797  LYS798  CYS799  TRP800  GLU811  SER814 

> <Gold.Protein.RotatedAtoms>
  150.7113  134.0898  159.3927 H   0  0  0  0  0  0  0  0  0  0  0  0  # atno 6907 bound_to 6896
  151.8883  135.0424  160.0505 H   0  0  0  0  0  0  0  0  0  0  0  0  # atno 6908 bound_to 6896
  152.2512  133.5181  159.5363 H   0  0  0  0  0  0  0  0  0  0  0  0  # atno 6909 bound_to 6896
  145.7562  140.8884  143.0454 H   0  0  0  0  0  0  0  0  0  0  0  0  # atno 7974 bound_to 7965
  156.1154  140.1480  156.9280 H   0  0  0  0  0  0  0  0  0  0  0  0  # atno 8008 bound_to 7997
  154.4797  140.0883  156.7390 H   0  0  0  0  0  0  0  0  0  0  0  0  # atno 8009 bound_to 7997
  155.4522  140.3435  155.4304 H   0  0  0  0  0  0  0  0  0  0  0  0  # atno 8010 bound_to 7997
  139.9866  143.5685  152.2358 H   0  0  0  0  0  0  0  0  0  0  0  0  # atno 10167 bound_to 10162
  157.6085  130.9197  149.9935 H   0  0  0  0  0  0  0  0  0  0  0  0  # atno 10718 bound_to 10713
  153.1843  135.6832  153.8436 H   0  0  0  0  0  0  0  0  0  0  0  0  # atno 10763 bound_to 10752
  153.7758  135.3189  155.3359 H   0  0  0  0  0  0  0  0  0  0  0  0  # atno 10764 bound_to 10752
  154.8079  135.4737  154.0535 H   0  0  0  0  0  0  0  0  0  0  0  0  # atno 10765 bound_to 10752
  139.9588  134.9607  156.9075 H   0  0  0  0  0  0  0  0  0  0  0  0  # atno 11005 bound_to 11000
  144.6839  139.9660  143.7481 LP  0  0  0  0  0  0  0  0  0  0  0  0  # atno 17320 bound_to 7965
  146.0308  139.3334  143.0756 LP  0  0  0  0  0  0  0  0  0  0  0  0  # atno 17321 bound_to 7965
  139.6370  144.7651  151.2417 LP  0  0  0  0  0  0  0  0  0  0  0  0  # atno 17342 bound_to 10162
  140.7470  143.6381  150.8360 LP  0  0  0  0  0  0  0  0  0  0  0  0  # atno 17343 bound_to 10162
  156.1179  130.3647  149.9937 LP  0  0  0  0  0  0  0  0  0  0  0  0  # atno 17370 bound_to 10713
  156.8023  130.9295  151.3645 LP  0  0  0  0  0  0  0  0  0  0  0  0  # atno 17371 bound_to 10713
  140.5548  134.0592  155.7380 LP  0  0  0  0  0  0  0  0  0  0  0  0  # atno 17394 bound_to 11000
  141.1263  133.9378  157.2629 LP  0  0  0  0  0  0  0  0  0  0  0  0  # atno 17395 bound_to 11000

$$$$
