AV-unprocessed.smi:1379|AV-procd|sdf|5599|dock9
  -GOLD-   22720 5203D 1   1.00000     0.00000
 Structure written by MMmdl.
 35 36  0  0  0  0  0  0  0  0  2 V2000
  145.5693  136.7893  151.9820 C   0  0  0  0  0  0  0  0  0  0  0  0
  146.1286  137.7611  152.8480 O   0  0  0  0  0  0  0  0  0  0  0  0
  146.6928  138.8554  152.1405 C   0  0  0  0  0  0  0  0  0  0  0  0
  147.2769  139.8633  153.1321 C   0  0  0  0  0  0  0  0  0  0  0  0
  146.6483  140.8911  153.3797 O   0  0  0  0  0  0  0  0  0  0  0  0
  148.4838  139.5597  153.6467 N   0  0  0  0  0  0  0  0  0  0  0  0
  149.2682  140.2870  154.5833 C   0  0  0  0  0  0  0  0  0  0  0  0
  150.2613  139.5784  155.2934 C   0  0  0  0  0  0  0  0  0  0  0  0
  151.0596  140.2497  156.2421 C   0  0  0  0  0  0  0  0  0  0  0  0
  150.8461  141.6278  156.4762 C   0  0  0  0  0  0  0  0  0  0  0  0
  151.5841  142.3890  157.3935 N   0  0  0  0  0  0  0  0  0  0  0  0
  150.7988  143.2736  158.2380 C   0  0  0  0  0  0  0  0  0  0  0  0
  151.7215  143.6598  159.3969 C   0  0  0  0  0  0  0  0  0  0  0  0
  152.7882  142.5589  159.4357 C   0  0  0  0  0  0  0  0  0  0  0  0
  152.4161  141.6092  158.2941 C   0  0  0  0  0  0  0  0  0  0  0  0
  149.8798  142.2692  155.7844 N   0  3  0  0  0  0  0  0  0  0  0  0
  149.0945  141.6642  154.8668 C   0  0  0  0  0  0  0  0  0  0  0  0
  145.1618  135.9662  152.5686 H   0  0  0  0  0  0  0  0  0  0  0  0
  146.3230  136.3816  151.3071 H   0  0  0  0  0  0  0  0  0  0  0  0
  144.7587  137.2125  151.3872 H   0  0  0  0  0  0  0  0  0  0  0  0
  147.4864  138.5114  151.4753 H   0  0  0  0  0  0  0  0  0  0  0  0
  145.9313  139.3435  151.5299 H   0  0  0  0  0  0  0  0  0  0  0  0
  148.9025  138.7096  153.2973 H   0  0  0  0  0  0  0  0  0  0  0  0
  150.4170  138.5249  155.1110 H   0  0  0  0  0  0  0  0  0  0  0  0
  151.8248  139.7077  156.7784 H   0  0  0  0  0  0  0  0  0  0  0  0
  150.4657  144.1510  157.6829 H   0  0  0  0  0  0  0  0  0  0  0  0
  149.9144  142.7614  158.6190 H   0  0  0  0  0  0  0  0  0  0  0  0
  152.1916  144.6248  159.2028 H   0  0  0  0  0  0  0  0  0  0  0  0
  151.1738  143.7405  160.3363 H   0  0  0  0  0  0  0  0  0  0  0  0
  153.7745  142.9917  159.2637 H   0  0  0  0  0  0  0  0  0  0  0  0
  152.8160  142.0411  160.3950 H   0  0  0  0  0  0  0  0  0  0  0  0
  151.8625  140.7532  158.6827 H   0  0  0  0  0  0  0  0  0  0  0  0
  153.3022  141.2325  157.7822 H   0  0  0  0  0  0  0  0  0  0  0  0
  148.3580  142.3083  154.4112 H   0  0  0  0  0  0  0  0  0  0  0  0
  149.7327  143.2623  155.9665 H   0  0  0  0  0  0  0  0  0  0  0  0
  1  2  1  0  0  0  0
  1 18  1  0  0  0  0
  1 19  1  0  0  0  0
  1 20  1  0  0  0  0
  2  3  1  0  0  0  0
  3  4  1  0  0  0  0
  3 21  1  0  0  0  0
  3 22  1  0  0  0  0
  4  5  2  0  0  0  0
  4  6  1  0  0  0  0
  6  7  1  0  0  0  0
  6 23  1  0  0  0  0
  7 17  1  0  0  0  0
  7  8  2  0  0  0  0
  8  9  1  0  0  0  0
  8 24  1  0  0  0  0
  9 10  2  0  0  0  0
  9 25  1  0  0  0  0
 10 11  1  0  0  0  0
 10 16  1  0  0  0  0
 11 15  1  0  0  0  0
 11 12  1  0  0  0  0
 12 13  1  0  0  0  0
 12 26  1  0  0  0  0
 12 27  1  0  0  0  0
 13 14  1  0  0  0  0
 13 28  1  0  0  0  0
 13 29  1  0  0  0  0
 14 15  1  0  0  0  0
 14 30  1  0  0  0  0
 14 31  1  0  0  0  0
 15 32  1  0  0  0  0
 15 33  1  0  0  0  0
 16 17  2  0  0  0  0
 16 35  1  0  0  0  0
 17 34  1  0  0  0  0
M  CHG  1  16   1
M  END
> <s_m_source_file>
AV-unprocessed.smi

> <i_m_source_file_index>
1379

> <i_lp_mmshare_version>
43012

> <i_f3d_flags>
0

> <s_epik_input>
W0NIM11PW0NIMl1DKD1PKVtOSF1jMVtjSF1bY0hdYyhuW2NIXTEpTjJbQ0gyXVtDSDJdW0NIMl1bQ0gyXTI=

> <s_epik_cmdline>
J2VwaWtfcHl0aG9uJywgJy1waCcsICc3LjAnLCAnLXRuJywgJzgnLCAnLW1hJywgJzIwMCcsICctbWV0YWxfYmluZGluZycsICctaW1hZScsICc8aW5maWxlLm1hZT4nLCAnLW9tYWUnLCAnPG91dGZpbGUubWFlPic=

> <r_lp_tautomer_probability>
0.999994

> <r_epik_Ionization_Penalty>
1.86748

> <r_epik_Ionization_Penalty_Charging>
1.86748

> <r_epik_Ionization_Penalty_Neutral>
2.87909e-06

> <r_epik_State_Penalty>
1.98622

> <r_epik_Charging_Adjusted_Penalty>
3.8537

> <i_epik_Tot_Q>
1

> <i_epik_Tot_abs_Q>
1

> <r_epik_Metal_State_Penalty>
2.01386

> <b_epik_Metal_Only>
0

> <s_lp_Force_Field>
OPLS_2005

> <r_lp_Energy>
42.4744

> <b_lp_Chiralities_Consistent>
1

> <s_lp_Variant>
AV-unprocessed.smi:1379-2

> <Gold.Version>
5.8.1

> <Gold.Id.Protein>
6NUR|6NUR_protein|mol2

> <Gold.PLP.Fitness>
36.7391

> <Gold.PLP.PLP>
-32.0380

> <Gold.PLP.part.hbond>
-2.0000

> <Gold.PLP.part.metal>
0.0000

> <Gold.PLP.part.buried>
0.7008

> <Gold.PLP.part.nonpolar>
-30.7304

> <Gold.PLP.part.repulsive>
0.7550

> <Gold.PLP.ligand.clash>
0.0000

> <Gold.PLP.ligand.torsion>
0.6584

> <Gold.PLP.Chemscore.Hbond>
2.0000

> <Gold.PLP.Chemscore.CHOScore>
0.0000

> <Gold.PLP.Chemscore.Metal>
0.0000

> <Gold.Chemscore.Hbonds>
donor molecule, donor type, donor heavy atom, donor atom, acceptor molecule, acceptor atom, score
      L1  H    16    35       P1  8028  2.00

> <Gold.PLP.Chemscore.Internal.Correction>
0.0179

> <Gold.Rescore>
     Score         DG    S(hbond)    S(metal)    S(lipo)     H(rot)  DE(clash)    DE(int)     intcor
     12.90     -14.49       0.96        0.00      81.26       1.44       0.15       1.44       ----

> <Gold.Chemscore.Fitness>
12.9019

> <Gold.Chemscore.DG>
-14.4920

> <Gold.Chemscore.ZeroCoef>
-5.4800

> <Gold.Chemscore.Hbond>
0.9576

> <Gold.Chemscore.Metal>
0.0000

> <Gold.Chemscore.Lipo>
81.2597

> <Gold.Chemscore.Internal_Hbond>
0.0000

> <Gold.Chemscore.DEClash>
0.1548

> <Gold.Chemscore.DEInternal>
1.4353

> <Gold.Chemscore.Rot>
1.4428

> <Gold.Chemscore.Internal.Correction>
   9.000000E+99

> <Gold.Chemscore.Hbonds>
donor molecule, donor type, donor heavy atom, donor atom, acceptor molecule, acceptor atom, score
      L1  H    16    35       P1  8028  0.94

> <Gold.Chemscore.Hbond.Weighted>
-3.1983

> <Gold.Chemscore.Metal.Weighted>
-0.0000

> <Gold.Chemscore.Lipo.Weighted>
-9.5074

> <Gold.Chemscore.Internal_Hbond.Weighted>
0.0000

> <Gold.Chemscore.DEClash.Weighted>
0.1548

> <Gold.Chemscore.DEInternal.Weighted>
1.4353

> <Gold.Chemscore.Rot.Weighted>
3.6937

> <Gold.Chemscore.Internal.Correction.Weighted>
   9.000000E+99

> <Gold.Protein.RotatedTorsions>
[ 6907 6896 6895 6894 ] final -121.01 input  -60.11 | X-H torsion
[ 7974 7965 7964 7962 ] final   58.74 input  175.53 | X-H torsion
[ 8008 7997 7996 7995 ] final   31.78 input   59.86 | X-H torsion
[ 10167 10162 10161 10158 ] final -153.41 input  -65.29 | X-H torsion
[ 10718 10713 10712 10709 ] final   -7.91 input   66.30 | X-H torsion
[ 10763 10752 10751 10750 ] final -179.96 input  -60.55 | X-H torsion
[ 11005 11000 10999 10996 ] final  -37.75 input  -57.11 | X-H torsion

> <Gold.Protein.ActiveResidues>
 VAL166  LYS551  ARG553  GLY616  TRP617  ASP618  TYR619  PRO620  LYS621  CYS622 
 ASP623  PHE694  ASN695  SER759  ASP760  ASP761  ALA762  ILE779  LEU786  VAL792 
 PHE793  MET794  SER795  GLU796  ALA797  LYS798  CYS799  TRP800  GLU811  SER814 

> <Gold.Protein.RotatedAtoms>
  150.8444  133.7884  159.3048 H   0  0  0  0  0  0  0  0  0  0  0  0  # atno 6907 bound_to 6896
  151.5576  135.1064  159.9974 H   0  0  0  0  0  0  0  0  0  0  0  0  # atno 6908 bound_to 6896
  152.4501  133.7570  159.6782 H   0  0  0  0  0  0  0  0  0  0  0  0  # atno 6909 bound_to 6896
  145.9149  139.3683  143.0513 H   0  0  0  0  0  0  0  0  0  0  0  0  # atno 7974 bound_to 7965
  155.1118  140.3240  155.4519 H   0  0  0  0  0  0  0  0  0  0  0  0  # atno 8008 bound_to 7997
  156.2688  140.2042  156.6190 H   0  0  0  0  0  0  0  0  0  0  0  0  # atno 8009 bound_to 7997
  154.6750  140.0532  157.0193 H   0  0  0  0  0  0  0  0  0  0  0  0  # atno 8010 bound_to 7997
  139.7099  143.9125  152.2464 H   0  0  0  0  0  0  0  0  0  0  0  0  # atno 10167 bound_to 10162
  156.7103  130.5120  149.5894 H   0  0  0  0  0  0  0  0  0  0  0  0  # atno 10718 bound_to 10713
  154.5284  135.2798  155.1202 H   0  0  0  0  0  0  0  0  0  0  0  0  # atno 10763 bound_to 10752
  154.2732  135.6299  153.5322 H   0  0  0  0  0  0  0  0  0  0  0  0  # atno 10764 bound_to 10752
  152.9951  135.5633  154.5791 H   0  0  0  0  0  0  0  0  0  0  0  0  # atno 10765 bound_to 10752
  140.9976  133.6972  156.1962 H   0  0  0  0  0  0  0  0  0  0  0  0  # atno 11005 bound_to 11000
  145.8625  140.9467  143.0693 LP  0  0  0  0  0  0  0  0  0  0  0  0  # atno 17320 bound_to 7965
  144.6747  140.0548  143.7478 LP  0  0  0  0  0  0  0  0  0  0  0  0  # atno 17321 bound_to 7965
  139.8992  144.6922  150.8684 LP  0  0  0  0  0  0  0  0  0  0  0  0  # atno 17342 bound_to 10162
  140.7731  143.3527  151.1982 LP  0  0  0  0  0  0  0  0  0  0  0  0  # atno 17343 bound_to 10162
  156.1666  130.6409  151.0785 LP  0  0  0  0  0  0  0  0  0  0  0  0  # atno 17370 bound_to 10713
  157.6938  131.0801  150.7028 LP  0  0  0  0  0  0  0  0  0  0  0  0  # atno 17371 bound_to 10713
  140.6941  134.4634  157.5588 LP  0  0  0  0  0  0  0  0  0  0  0  0  # atno 17394 bound_to 11000
  139.9022  134.8529  156.1848 LP  0  0  0  0  0  0  0  0  0  0  0  0  # atno 17395 bound_to 11000

$$$$
