AV-unprocessed.smi:635|AV-procd|sdf|3139|dock2
  -GOLD-   22720 0 63D 1   1.00000     0.00000
 Structure written by MMmdl.
 37 38  0  0  0  0  0  0  0  0  1 V2000
  146.7674  135.3468  162.1293 C   0  0  0  0  0  0  0  0  0  0  0  0
  146.9572  136.5187  161.1601 C   0  0  0  0  0  0  0  0  0  0  0  0
  148.1916  136.3476  160.2614 C   0  0  0  0  0  0  0  0  0  0  0  0
  147.9379  135.4244  159.0630 C   0  0  0  0  0  0  0  0  0  0  0  0
  149.1866  134.9947  158.5327 O   0  0  0  0  0  0  0  0  0  0  0  0
  149.7486  135.8565  157.5471 C   0  0  0  0  0  0  0  0  0  0  0  0
  150.4915  137.0336  158.1889 C   0  0  0  0  0  0  0  0  0  0  0  0
  151.2990  136.8159  159.0916 O   0  0  0  0  0  0  0  0  0  0  0  0
  150.1870  138.2541  157.7090 N   0  0  0  0  0  0  0  0  0  0  0  0
  150.7012  139.5117  158.1186 C   0  0  0  0  0  0  0  0  0  0  0  0
  150.1898  140.6287  157.4254 C   0  0  0  0  0  0  0  0  0  0  0  0
  150.6526  141.9057  157.7853 C   0  0  0  0  0  0  0  0  0  0  0  0
  151.6031  141.9827  158.8202 C   0  0  0  0  0  0  0  0  0  0  0  0
  152.1601  143.2859  159.3023 C   0  0  0  0  0  0  0  0  0  0  0  0
  151.5771  144.6061  158.8492 C   0  0  0  0  0  0  0  0  0  0  0  0
  152.9443  144.1831  158.3722 C   0  0  0  0  0  0  0  0  0  0  0  0
  152.0582  140.8822  159.4594 N   0  0  0  0  0  0  0  0  0  0  0  0
  151.6158  139.6698  159.1102 N   0  0  0  0  0  0  0  0  0  0  0  0
  145.8836  135.4958  162.7501 H   0  0  0  0  0  0  0  0  0  0  0  0
  147.6263  135.2411  162.7926 H   0  0  0  0  0  0  0  0  0  0  0  0
  146.6409  134.4070  161.5908 H   0  0  0  0  0  0  0  0  0  0  0  0
  146.0636  136.6195  160.5433 H   0  0  0  0  0  0  0  0  0  0  0  0
  147.0444  137.4446  161.7295 H   0  0  0  0  0  0  0  0  0  0  0  0
  148.5031  137.3260  159.8937 H   0  0  0  0  0  0  0  0  0  0  0  0
  149.0262  135.9605  160.8472 H   0  0  0  0  0  0  0  0  0  0  0  0
  147.3396  134.5652  159.3695 H   0  0  0  0  0  0  0  0  0  0  0  0
  147.3663  135.9650  158.3079 H   0  0  0  0  0  0  0  0  0  0  0  0
  150.4627  135.2836  156.9551 H   0  0  0  0  0  0  0  0  0  0  0  0
  148.9789  136.2120  156.8600 H   0  0  0  0  0  0  0  0  0  0  0  0
  149.5154  138.2805  156.9556 H   0  0  0  0  0  0  0  0  0  0  0  0
  149.4597  140.5133  156.6375 H   0  0  0  0  0  0  0  0  0  0  0  0
  150.2892  142.7918  157.2863 H   0  0  0  0  0  0  0  0  0  0  0  0
  152.4942  143.2102  160.3354 H   0  0  0  0  0  0  0  0  0  0  0  0
  150.7710  144.5905  158.1184 H   0  0  0  0  0  0  0  0  0  0  0  0
  151.5399  145.4202  159.5703 H   0  0  0  0  0  0  0  0  0  0  0  0
  153.7975  144.7185  158.7837 H   0  0  0  0  0  0  0  0  0  0  0  0
  153.0381  143.8795  157.3313 H   0  0  0  0  0  0  0  0  0  0  0  0
  1  2  1  0  0  0  0
  1 19  1  0  0  0  0
  1 20  1  0  0  0  0
  1 21  1  0  0  0  0
  2  3  1  0  0  0  0
  2 22  1  0  0  0  0
  2 23  1  0  0  0  0
  3  4  1  0  0  0  0
  3 24  1  0  0  0  0
  3 25  1  0  0  0  0
  4  5  1  0  0  0  0
  4 26  1  0  0  0  0
  4 27  1  0  0  0  0
  5  6  1  0  0  0  0
  6  7  1  0  0  0  0
  6 28  1  0  0  0  0
  6 29  1  0  0  0  0
  7  8  2  0  0  0  0
  7  9  1  0  0  0  0
  9 10  1  0  0  0  0
  9 30  1  0  0  0  0
 10 18  1  0  0  0  0
 10 11  2  0  0  0  0
 11 12  1  0  0  0  0
 11 31  1  0  0  0  0
 12 13  2  0  0  0  0
 12 32  1  0  0  0  0
 13 14  1  0  0  0  0
 13 17  1  0  0  0  0
 14 16  1  0  0  0  0
 14 15  1  0  0  0  0
 14 33  1  0  0  0  0
 15 16  1  0  0  0  0
 15 34  1  0  0  0  0
 15 35  1  0  0  0  0
 16 36  1  0  0  0  0
 16 37  1  0  0  0  0
 17 18  2  0  0  0  0
M  END
> <s_m_source_file>
AV-unprocessed.smi

> <i_m_source_file_index>
635

> <i_lp_mmshare_version>
43012

> <i_f3d_flags>
0

> <s_epik_input>
W0NIM11bQ0gyXVtDSDJdW0NIMl1PW0NIMl1DKD1PKVtOSF1jMVtjSF1bY0hdYyhubjEpW0NIXTJbQ0gyXVtDSDJdMg==

> <s_epik_cmdline>
J2VwaWtfcHl0aG9uJywgJy1waCcsICc3LjAnLCAnLXRuJywgJzgnLCAnLW1hJywgJzIwMCcsICctbWV0YWxfYmluZGluZycsICctaW1hZScsICc8aW5maWxlLm1hZT4nLCAnLW9tYWUnLCAnPG91dGZpbGUubWFlPic=

> <r_lp_tautomer_probability>
1

> <r_epik_Ionization_Penalty>
0.00559584

> <r_epik_Ionization_Penalty_Charging>
0

> <r_epik_Ionization_Penalty_Neutral>
0.00559584

> <r_epik_State_Penalty>
-0

> <r_epik_Charging_Adjusted_Penalty>
0

> <i_epik_Tot_Q>
0

> <i_epik_Tot_abs_Q>
0

> <r_epik_Metal_State_Penalty>
-0

> <b_epik_Metal_Only>
0

> <s_lp_Force_Field>
OPLS_2005

> <r_lp_Energy>
16.6483

> <b_lp_Chiralities_Consistent>
1

> <s_lp_Variant>
AV-unprocessed.smi:635-1

> <Gold.Version>
5.8.1

> <Gold.Id.Protein>
6NUR|6NUR_protein|mol2

> <Gold.PLP.Fitness>
37.8918

> <Gold.PLP.PLP>
-35.5455

> <Gold.PLP.part.hbond>
-2.0000

> <Gold.PLP.part.metal>
0.0000

> <Gold.PLP.part.buried>
-4.1713

> <Gold.PLP.part.nonpolar>
-29.4699

> <Gold.PLP.part.repulsive>
0.0835

> <Gold.PLP.ligand.clash>
0.0000

> <Gold.PLP.ligand.torsion>
0.6619

> <Gold.PLP.Chemscore.Hbond>
1.1149

> <Gold.PLP.Chemscore.CHOScore>
0.0000

> <Gold.PLP.Chemscore.Metal>
0.0000

> <Gold.Chemscore.Hbonds>
donor molecule, donor type, donor heavy atom, donor atom, acceptor molecule, acceptor atom, score
      P1  H  6896  6907       L1     8  0.22
      P1  H  6896  6909       L1     5  1.00

> <Gold.PLP.Chemscore.Internal.Correction>
0.3254

> <Gold.Rescore>
     Score         DG    S(hbond)    S(metal)    S(lipo)     H(rot)  DE(clash)    DE(int)     intcor
     12.43     -14.63       0.97        0.00      90.34       1.82       0.07       2.13       ----

> <Gold.Chemscore.Fitness>
12.4340

> <Gold.Chemscore.DG>
-14.6308

> <Gold.Chemscore.ZeroCoef>
-5.4800

> <Gold.Chemscore.Hbond>
0.9667

> <Gold.Chemscore.Metal>
0.0000

> <Gold.Chemscore.Lipo>
90.3360

> <Gold.Chemscore.Internal_Hbond>
0.0000

> <Gold.Chemscore.DEClash>
0.0689

> <Gold.Chemscore.DEInternal>
2.1279

> <Gold.Chemscore.Rot>
1.8153

> <Gold.Chemscore.Internal.Correction>
   9.000000E+99

> <Gold.Chemscore.Hbonds>
donor molecule, donor type, donor heavy atom, donor atom, acceptor molecule, acceptor atom, score
      P1  H  6896  6907       L1     8  0.23
      P1  H  6896  6909       L1     5  0.50

> <Gold.Chemscore.Hbond.Weighted>
-3.2287

> <Gold.Chemscore.Metal.Weighted>
-0.0000

> <Gold.Chemscore.Lipo.Weighted>
-10.5693

> <Gold.Chemscore.Internal_Hbond.Weighted>
0.0000

> <Gold.Chemscore.DEClash.Weighted>
0.0689

> <Gold.Chemscore.DEInternal.Weighted>
2.1279

> <Gold.Chemscore.Rot.Weighted>
4.6472

> <Gold.Chemscore.Internal.Correction.Weighted>
   9.000000E+99

> <Gold.Protein.RotatedTorsions>
[ 6907 6896 6895 6894 ] final   33.47 input  -60.11 | X-H torsion
[ 7974 7965 7964 7962 ] final -158.94 input  175.53 | X-H torsion
[ 8008 7997 7996 7995 ] final   13.86 input   59.86 | X-H torsion
[ 10167 10162 10161 10158 ] final  171.18 input  -65.29 | X-H torsion
[ 10718 10713 10712 10709 ] final  115.15 input   66.30 | X-H torsion
[ 10763 10752 10751 10750 ] final   -7.41 input  -60.55 | X-H torsion
[ 11005 11000 10999 10996 ] final   53.03 input  -57.11 | X-H torsion

> <Gold.Protein.ActiveResidues>
 VAL166  LYS551  ARG553  GLY616  TRP617  ASP618  TYR619  PRO620  LYS621  CYS622 
 ASP623  PHE694  ASN695  SER759  ASP760  ASP761  ALA762  ILE779  LEU786  VAL792 
 PHE793  MET794  SER795  GLU796  ALA797  LYS798  CYS799  TRP800  GLU811  SER814 

> <Gold.Protein.RotatedAtoms>
  152.0890  134.9420  160.0571 H   0  0  0  0  0  0  0  0  0  0  0  0  # atno 6907 bound_to 6896
  152.0679  133.4088  159.4454 H   0  0  0  0  0  0  0  0  0  0  0  0  # atno 6908 bound_to 6896
  150.6836  134.3045  159.4764 H   0  0  0  0  0  0  0  0  0  0  0  0  # atno 6909 bound_to 6896
  144.7485  140.3756  143.6066 H   0  0  0  0  0  0  0  0  0  0  0  0  # atno 7974 bound_to 7965
  154.8404  140.2913  155.5663 H   0  0  0  0  0  0  0  0  0  0  0  0  # atno 8008 bound_to 7997
  156.3011  140.2515  156.3276 H   0  0  0  0  0  0  0  0  0  0  0  0  # atno 8009 bound_to 7997
  154.9132  140.0388  157.1947 H   0  0  0  0  0  0  0  0  0  0  0  0  # atno 8010 bound_to 7997
  139.5039  144.3514  151.9918 H   0  0  0  0  0  0  0  0  0  0  0  0  # atno 10167 bound_to 10162
  157.6239  131.1008  150.7288 H   0  0  0  0  0  0  0  0  0  0  0  0  # atno 10718 bound_to 10713
  153.4259  135.7011  153.6263 H   0  0  0  0  0  0  0  0  0  0  0  0  # atno 10763 bound_to 10752
  153.4698  135.3717  155.2385 H   0  0  0  0  0  0  0  0  0  0  0  0  # atno 10764 bound_to 10752
  154.8724  135.4040  154.3635 H   0  0  0  0  0  0  0  0  0  0  0  0  # atno 10765 bound_to 10752
  140.0801  134.5351  155.8956 H   0  0  0  0  0  0  0  0  0  0  0  0  # atno 11005 bound_to 11000
  145.7031  139.1666  143.2581 LP  0  0  0  0  0  0  0  0  0  0  0  0  # atno 17320 bound_to 7965
  146.1401  140.7069  142.9371 LP  0  0  0  0  0  0  0  0  0  0  0  0  # atno 17321 bound_to 7965
  140.2951  144.3710  150.6077 LP  0  0  0  0  0  0  0  0  0  0  0  0  # atno 17342 bound_to 10162
  140.5917  143.2168  151.7241 LP  0  0  0  0  0  0  0  0  0  0  0  0  # atno 17343 bound_to 10162
  156.7640  130.4807  149.5431 LP  0  0  0  0  0  0  0  0  0  0  0  0  # atno 17370 bound_to 10713
  156.1400  130.6238  151.0454 LP  0  0  0  0  0  0  0  0  0  0  0  0  # atno 17371 bound_to 10713
  141.2043  133.6638  156.6115 LP  0  0  0  0  0  0  0  0  0  0  0  0  # atno 17394 bound_to 11000
  140.3501  134.7776  157.4460 LP  0  0  0  0  0  0  0  0  0  0  0  0  # atno 17395 bound_to 11000

$$$$
