AV-unprocessed.smi:232|AV-procd|sdf|1768|dock6
  -GOLD-   2262020303D 1   1.00000     0.00000
 Structure written by MMmdl.
 52 55  0  0  0  0  0  0  0  0  1 V2000
  152.2116  144.5288  158.4277 C   0  0  0  0  0  0  0  0  0  0  0  0
  151.6585  143.1041  158.5553 C   0  0  0  0  0  0  0  0  0  0  0  0
  152.7550  142.0493  158.8164 C   0  0  1  0  0  0  0  0  0  0  0  0
  153.3863  142.1420  160.2138 C   0  0  0  0  0  0  0  0  0  0  0  0
  153.7422  140.6968  160.5834 C   0  0  0  0  0  0  0  0  0  0  0  0
  153.3029  139.8691  159.3706 C   0  0  1  0  0  0  0  0  0  0  0  0
  152.8217  138.4551  159.7341 C   0  0  0  0  0  0  0  0  0  0  0  0
  152.2722  140.6758  158.7263 N   0  0  0  0  0  0  0  0  0  0  0  0
  151.8921  140.2891  157.4854 C   0  0  0  0  0  0  0  0  0  0  0  0
  152.7043  139.5078  156.7243 N   0  0  0  0  0  0  0  0  0  0  0  0
  152.3255  139.1515  155.4929 C   0  0  0  0  0  0  0  0  0  0  0  0
  151.2029  139.4637  154.8406 N   0  0  0  0  0  0  0  0  0  0  0  0
  150.3905  140.2499  155.6039 C   0  0  0  0  0  0  0  0  0  0  0  0
  150.6554  140.7026  156.9257 C   0  0  0  0  0  0  0  0  0  0  0  0
  149.6029  141.4846  157.3842 N   0  0  0  0  0  0  0  0  0  0  0  0
  148.7621  141.4976  156.3855 C   0  0  0  0  0  0  0  0  0  0  0  0
  149.1580  140.7843  155.2763 N   0  0  0  0  0  0  0  0  0  0  0  0
  148.4296  140.6360  154.0295 C   0  0  0  0  0  0  0  0  0  0  0  0
  147.9134  139.1987  153.8235 C   0  0  2  0  0  0  0  0  0  0  0  0
  147.6130  138.9688  152.4595 O   0  0  0  0  0  0  0  0  0  0  0  0
  146.6995  138.8651  154.7141 C   0  0  2  0  0  0  0  0  0  0  0  0
  146.8522  139.1516  156.2106 C   0  0  0  0  0  0  0  0  0  0  0  0
  145.8222  138.2126  156.7968 C   0  0  0  0  0  0  0  0  0  0  0  0
  145.9662  136.9908  155.8931 C   0  0  0  0  0  0  0  0  0  0  0  0
  146.3167  137.4958  154.6075 O   0  0  0  0  0  0  0  0  0  0  0  0
  151.4118  145.2347  158.2028 H   0  0  0  0  0  0  0  0  0  0  0  0
  152.9472  144.5937  157.6255 H   0  0  0  0  0  0  0  0  0  0  0  0
  152.6905  144.8559  159.3506 H   0  0  0  0  0  0  0  0  0  0  0  0
  150.9134  143.0700  159.3512 H   0  0  0  0  0  0  0  0  0  0  0  0
  151.1277  142.8670  157.6329 H   0  0  0  0  0  0  0  0  0  0  0  0
  153.5453  142.1751  158.0743 H   0  0  0  0  0  0  0  0  0  0  0  0
  154.2582  142.7968  160.2161 H   0  0  0  0  0  0  0  0  0  0  0  0
  152.6740  142.5370  160.9396 H   0  0  0  0  0  0  0  0  0  0  0  0
  154.8050  140.5703  160.7916 H   0  0  0  0  0  0  0  0  0  0  0  0
  153.1919  140.4026  161.4781 H   0  0  0  0  0  0  0  0  0  0  0  0
  154.1582  139.7855  158.6982 H   0  0  0  0  0  0  0  0  0  0  0  0
  153.6042  137.8999  160.2518 H   0  0  0  0  0  0  0  0  0  0  0  0
  152.5503  137.8865  158.8443 H   0  0  0  0  0  0  0  0  0  0  0  0
  151.9487  138.4892  160.3865 H   0  0  0  0  0  0  0  0  0  0  0  0
  153.0229  138.5292  154.9519 H   0  0  0  0  0  0  0  0  0  0  0  0
  147.8268  142.0367  156.4276 H   0  0  0  0  0  0  0  0  0  0  0  0
  147.5968  141.3401  154.0357 H   0  0  0  0  0  0  0  0  0  0  0  0
  149.0829  140.9314  153.2073 H   0  0  0  0  0  0  0  0  0  0  0  0
  148.7135  138.5042  154.0834 H   0  0  0  0  0  0  0  0  0  0  0  0
  147.9422  138.1162  152.2194 H   0  0  0  0  0  0  0  0  0  0  0  0
  145.8443  139.4397  154.3538 H   0  0  0  0  0  0  0  0  0  0  0  0
  147.8424  138.8785  156.5759 H   0  0  0  0  0  0  0  0  0  0  0  0
  146.6718  140.1969  156.4632 H   0  0  0  0  0  0  0  0  0  0  0  0
  145.9945  137.9872  157.8495 H   0  0  0  0  0  0  0  0  0  0  0  0
  144.8237  138.6403  156.6961 H   0  0  0  0  0  0  0  0  0  0  0  0
  146.7771  136.3527  156.2464 H   0  0  0  0  0  0  0  0  0  0  0  0
  145.0564  136.3917  155.8525 H   0  0  0  0  0  0  0  0  0  0  0  0
  1  2  1  0  0  0  0
  1 26  1  0  0  0  0
  1 27  1  0  0  0  0
  1 28  1  0  0  0  0
  2  3  1  0  0  0  0
  2 29  1  0  0  0  0
  2 30  1  0  0  0  0
  3  8  1  0  0  0  0
  3  4  1  0  0  0  0
  3 31  1  0  0  0  0
  4  5  1  0  0  0  0
  4 32  1  0  0  0  0
  4 33  1  0  0  0  0
  5  6  1  0  0  0  0
  5 34  1  0  0  0  0
  5 35  1  0  0  0  0
  6  7  1  0  0  0  0
  6  8  1  0  0  0  0
  6 36  1  0  0  0  0
  7 37  1  0  0  0  0
  7 38  1  0  0  0  0
  7 39  1  0  0  0  0
  8  9  1  0  0  0  0
  9 14  1  0  0  0  0
  9 10  2  0  0  0  0
 10 11  1  0  0  0  0
 11 12  2  0  0  0  0
 11 40  1  0  0  0  0
 12 13  1  0  0  0  0
 13 17  1  0  0  0  0
 13 14  2  0  0  0  0
 14 15  1  0  0  0  0
 15 16  2  0  0  0  0
 16 17  1  0  0  0  0
 16 41  1  0  0  0  0
 17 18  1  0  0  0  0
 18 19  1  0  0  0  0
 18 42  1  0  0  0  0
 18 43  1  0  0  0  0
 19 20  1  0  0  0  0
 19 21  1  0  0  0  0
 19 44  1  0  0  0  0
 20 45  1  0  0  0  0
 21 25  1  0  0  0  0
 21 22  1  0  0  0  0
 21 46  1  0  0  0  0
 22 23  1  0  0  0  0
 22 47  1  0  0  0  0
 22 48  1  0  0  0  0
 23 24  1  0  0  0  0
 23 49  1  0  0  0  0
 23 50  1  0  0  0  0
 24 25  1  0  0  0  0
 24 51  1  0  0  0  0
 24 52  1  0  0  0  0
M  END
> <s_m_source_file>
AV-unprocessed.smi

> <i_m_source_file_index>
232

> <i_lp_mmshare_version>
43012

> <i_f3d_flags>
0

> <s_epik_input>
W0NIM11bQ0gyXVtDQEBIXTFbQ0gyXVtDSDJdW0NAQEhdKFtDSDNdKU4xYyhuW2NIXW4yKWMoYzIzKW5bY0hdbjNbQ0gyXVtDQEhdKFtPSF0pW0NAQEhdNFtDSDJdW0NIMl1bQ0gyXU80

> <s_epik_cmdline>
J2VwaWtfcHl0aG9uJywgJy1waCcsICc3LjAnLCAnLXRuJywgJzgnLCAnLW1hJywgJzIwMCcsICctbWV0YWxfYmluZGluZycsICctaW1hZScsICc8aW5maWxlLm1hZT4nLCAnLW9tYWUnLCAnPG91dGZpbGUubWFlPic=

> <r_lp_tautomer_probability>
1

> <r_epik_Ionization_Penalty>
0.00258048

> <r_epik_Ionization_Penalty_Charging>
0

> <r_epik_Ionization_Penalty_Neutral>
0.00258048

> <r_epik_State_Penalty>
0.00168551

> <r_epik_Charging_Adjusted_Penalty>
0.00168551

> <i_epik_Tot_Q>
0

> <i_epik_Tot_abs_Q>
0

> <r_epik_Metal_State_Penalty>
-0

> <b_epik_Metal_Only>
0

> <s_lp_Force_Field>
OPLS_2005

> <r_lp_Energy>
54.3711

> <b_lp_Chiralities_Consistent>
1

> <s_lp_Variant>
AV-unprocessed.smi:232-2

> <Gold.Version>
5.8.1

> <Gold.Id.Protein>
6NUR|6NUR_protein|mol2

> <Gold.PLP.Fitness>
48.9684

> <Gold.PLP.PLP>
-41.4995

> <Gold.PLP.part.hbond>
-3.9494

> <Gold.PLP.part.metal>
0.0000

> <Gold.PLP.part.buried>
-5.7704

> <Gold.PLP.part.nonpolar>
-33.5665

> <Gold.PLP.part.repulsive>
0.2008

> <Gold.PLP.ligand.clash>
0.0000

> <Gold.PLP.ligand.torsion>
0.8078

> <Gold.PLP.Chemscore.Hbond>
3.0000

> <Gold.PLP.Chemscore.CHOScore>
0.0000

> <Gold.PLP.Chemscore.Metal>
0.0000

> <Gold.Chemscore.Hbonds>
donor molecule, donor type, donor heavy atom, donor atom, acceptor molecule, acceptor atom, score
      L1  H    20    45       P1  7948  0.71
      P1  H  7989  7998       L1    12  0.80
      P1  H  7997  8009       L1    10  1.00

> <Gold.PLP.Chemscore.Internal.Correction>
0.0844

> <Gold.Rescore>
     Score         DG    S(hbond)    S(metal)    S(lipo)     H(rot)  DE(clash)    DE(int)     intcor
     14.39     -15.98       1.92        0.00      87.90       2.43       0.06       1.52       ----

> <Gold.Chemscore.Fitness>
14.3906

> <Gold.Chemscore.DG>
-15.9751

> <Gold.Chemscore.ZeroCoef>
-5.4800

> <Gold.Chemscore.Hbond>
1.9225

> <Gold.Chemscore.Metal>
0.0000

> <Gold.Chemscore.Lipo>
87.9017

> <Gold.Chemscore.Internal_Hbond>
0.0000

> <Gold.Chemscore.DEClash>
0.0631

> <Gold.Chemscore.DEInternal>
1.5214

> <Gold.Chemscore.Rot>
2.4260

> <Gold.Chemscore.Internal.Correction>
   9.000000E+99

> <Gold.Chemscore.Hbonds>
donor molecule, donor type, donor heavy atom, donor atom, acceptor molecule, acceptor atom, score
      L1  H    20    45       P1  7948  0.71
      P1  H  7989  7998       L1    12  0.08
      P1  H  7997  8009       L1    10  0.45

> <Gold.Chemscore.Hbond.Weighted>
-6.4213

> <Gold.Chemscore.Metal.Weighted>
-0.0000

> <Gold.Chemscore.Lipo.Weighted>
-10.2845

> <Gold.Chemscore.Internal_Hbond.Weighted>
0.0000

> <Gold.Chemscore.DEClash.Weighted>
0.0631

> <Gold.Chemscore.DEInternal.Weighted>
1.5214

> <Gold.Chemscore.Rot.Weighted>
6.2107

> <Gold.Chemscore.Internal.Correction.Weighted>
   9.000000E+99

> <Gold.Protein.RotatedTorsions>
[ 6907 6896 6895 6894 ] final  -80.63 input  -60.11 | X-H torsion
[ 7974 7965 7964 7962 ] final  -96.58 input  175.53 | X-H torsion
[ 8008 7997 7996 7995 ] final -174.73 input   59.86 | X-H torsion
[ 10167 10162 10161 10158 ] final  141.31 input  -65.29 | X-H torsion
[ 10718 10713 10712 10709 ] final  101.08 input   66.30 | X-H torsion
[ 10763 10752 10751 10750 ] final  168.35 input  -60.55 | X-H torsion
[ 11005 11000 10999 10996 ] final -132.65 input  -57.11 | X-H torsion

> <Gold.Protein.ActiveResidues>
 VAL166  LYS551  ARG553  GLY616  TRP617  ASP618  TYR619  PRO620  LYS621  CYS622 
 ASP623  PHE694  ASN695  SER759  ASP760  ASP761  ALA762  ILE779  LEU786  VAL792 
 PHE793  MET794  SER795  GLU796  ALA797  LYS798  CYS799  TRP800  GLU811  SER814 

> <Gold.Protein.RotatedAtoms>
  150.6926  134.3940  159.5088 H   0  0  0  0  0  0  0  0  0  0  0  0  # atno 6907 bound_to 6896
  152.1724  134.8820  160.0542 H   0  0  0  0  0  0  0  0  0  0  0  0  # atno 6908 bound_to 6896
  151.9841  133.3733  159.4156 H   0  0  0  0  0  0  0  0  0  0  0  0  # atno 6909 bound_to 6896
  145.3450  140.9466  143.2586 H   0  0  0  0  0  0  0  0  0  0  0  0  # atno 7974 bound_to 7965
  155.9737  140.1168  157.0789 H   0  0  0  0  0  0  0  0  0  0  0  0  # atno 8008 bound_to 7997
  154.4163  140.1158  156.5409 H   0  0  0  0  0  0  0  0  0  0  0  0  # atno 8009 bound_to 7997
  155.6563  140.3473  155.4768 H   0  0  0  0  0  0  0  0  0  0  0  0  # atno 8010 bound_to 7997
  139.5024  144.6179  151.6119 H   0  0  0  0  0  0  0  0  0  0  0  0  # atno 10167 bound_to 10162
  157.6838  131.0716  150.5199 H   0  0  0  0  0  0  0  0  0  0  0  0  # atno 10718 bound_to 10713
  154.3672  135.2753  155.2287 H   0  0  0  0  0  0  0  0  0  0  0  0  # atno 10763 bound_to 10752
  154.4449  135.5945  153.6157 H   0  0  0  0  0  0  0  0  0  0  0  0  # atno 10764 bound_to 10752
  152.9840  135.6028  154.3899 H   0  0  0  0  0  0  0  0  0  0  0  0  # atno 10765 bound_to 10752
  140.9152  134.1517  157.4358 H   0  0  0  0  0  0  0  0  0  0  0  0  # atno 11005 bound_to 11000
  144.8761  139.4969  143.6745 LP  0  0  0  0  0  0  0  0  0  0  0  0  # atno 17320 bound_to 7965
  146.2992  139.7372  142.9104 LP  0  0  0  0  0  0  0  0  0  0  0  0  # atno 17321 bound_to 7965
  140.5873  143.9842  150.6303 LP  0  0  0  0  0  0  0  0  0  0  0  0  # atno 17342 bound_to 10162
  140.3010  143.3260  152.0971 LP  0  0  0  0  0  0  0  0  0  0  0  0  # atno 17343 bound_to 10162
  156.5512  130.4232  149.6107 LP  0  0  0  0  0  0  0  0  0  0  0  0  # atno 17370 bound_to 10713
  156.2901  130.7119  151.1966 LP  0  0  0  0  0  0  0  0  0  0  0  0  # atno 17371 bound_to 10713
  139.8764  134.9951  156.5725 LP  0  0  0  0  0  0  0  0  0  0  0  0  # atno 17394 bound_to 11000
  140.8059  133.8467  155.8767 LP  0  0  0  0  0  0  0  0  0  0  0  0  # atno 17395 bound_to 11000

$$$$
