AV-unprocessed.smi:155|AV-procd|sdf|1281|dock1
  -GOLD-   2262018553D 1   1.00000     0.00000
 Structure written by MMmdl.
 64 67  0  0  0  0  0  0  0  0  3 V2000
  146.0577  131.7196  149.7733 C   0  0  0  0  0  0  0  0  0  0  0  0
  146.6800  131.3436  151.0644 N   0  3  0  0  0  0  0  0  0  0  0  0
  146.1053  130.0849  151.5904 C   0  0  0  0  0  0  0  0  0  0  0  0
  146.6535  132.4358  152.0717 C   0  0  0  0  0  0  0  0  0  0  0  0
  146.6783  133.8403  151.4292 C   0  0  0  0  0  0  0  0  0  0  0  0
  145.4865  134.6611  151.7779 N   0  3  2  0  0  0  0  0  0  0  0  0
  144.2197  133.8799  151.7481 C   0  0  0  0  0  0  0  0  0  0  0  0
  143.3352  134.2301  152.9579 C   0  0  0  0  0  0  0  0  0  0  0  0
  142.6709  135.6142  152.8649 C   0  0  0  0  0  0  0  0  0  0  0  0
  143.6371  136.6899  152.6544 N   0  0  0  0  0  0  0  0  0  0  0  0
  144.3357  137.2483  153.6900 C   0  0  0  0  0  0  0  0  0  0  0  0
  143.8793  137.0259  154.9529 N   0  0  0  0  0  0  0  0  0  0  0  0
  144.5014  137.5409  156.0156 C   0  0  0  0  0  0  0  0  0  0  0  0
  145.5888  138.3084  156.0501 N   0  0  0  0  0  0  0  0  0  0  0  0
  146.0646  138.5411  154.7952 C   0  0  0  0  0  0  0  0  0  0  0  0
  145.5105  138.0585  153.5714 C   0  0  0  0  0  0  0  0  0  0  0  0
  146.2840  138.5248  152.5118 N   0  0  0  0  0  0  0  0  0  0  0  0
  147.2309  139.2261  153.0701 C   0  0  0  0  0  0  0  0  0  0  0  0
  147.1743  139.2864  154.4413 N   0  0  0  0  0  0  0  0  0  0  0  0
  148.0923  139.9893  155.3201 C   0  0  0  0  0  0  0  0  0  0  0  0
  149.3357  140.5120  154.5701 C   0  0  1  0  0  0  0  0  0  0  0  0
  148.9853  141.5765  153.7076 O   0  0  0  0  0  0  0  0  0  0  0  0
  150.4868  140.9723  155.4884 C   0  0  2  0  0  0  0  0  0  0  0  0
  150.9274  139.9276  156.5141 C   0  0  0  0  0  0  0  0  0  0  0  0
  151.6146  140.7913  157.5470 C   0  0  0  0  0  0  0  0  0  0  0  0
  150.7284  142.0341  157.5614 C   0  0  0  0  0  0  0  0  0  0  0  0
  150.1200  142.1045  156.2738 O   0  0  0  0  0  0  0  0  0  0  0  0
  144.1591  136.8018  151.2890 C   0  0  0  0  0  0  0  0  0  0  0  0
  145.4172  135.9442  151.0200 C   0  0  0  0  0  0  0  0  0  0  0  0
  145.0030  131.9652  149.9044 H   0  0  0  0  0  0  0  0  0  0  0  0
  146.1255  130.8959  149.0619 H   0  0  0  0  0  0  0  0  0  0  0  0
  146.5532  132.5768  149.3194 H   0  0  0  0  0  0  0  0  0  0  0  0
  145.0502  130.2102  151.8383 H   0  0  0  0  0  0  0  0  0  0  0  0
  146.6324  129.7606  152.4885 H   0  0  0  0  0  0  0  0  0  0  0  0
  146.1902  129.2839  150.8549 H   0  0  0  0  0  0  0  0  0  0  0  0
  145.7797  132.3181  152.7151 H   0  0  0  0  0  0  0  0  0  0  0  0
  147.5275  132.3299  152.7148 H   0  0  0  0  0  0  0  0  0  0  0  0
  147.5898  134.3736  151.7036 H   0  0  0  0  0  0  0  0  0  0  0  0
  146.7023  133.7234  150.3465 H   0  0  0  0  0  0  0  0  0  0  0  0
  143.6891  134.0239  150.8056 H   0  0  0  0  0  0  0  0  0  0  0  0
  144.4307  132.8116  151.8038 H   0  0  0  0  0  0  0  0  0  0  0  0
  142.5470  133.4817  153.0463 H   0  0  0  0  0  0  0  0  0  0  0  0
  143.9226  134.1514  153.8732 H   0  0  0  0  0  0  0  0  0  0  0  0
  141.9757  135.6113  152.0249 H   0  0  0  0  0  0  0  0  0  0  0  0
  142.0420  135.8129  153.7305 H   0  0  0  0  0  0  0  0  0  0  0  0
  144.0643  137.3056  156.9750 H   0  0  0  0  0  0  0  0  0  0  0  0
  148.0018  139.7186  152.4947 H   0  0  0  0  0  0  0  0  0  0  0  0
  147.5542  140.8124  155.7919 H   0  0  0  0  0  0  0  0  0  0  0  0
  148.3831  139.3084  156.1202 H   0  0  0  0  0  0  0  0  0  0  0  0
  149.7172  139.7205  153.9238 H   0  0  0  0  0  0  0  0  0  0  0  0
  148.5608  142.2485  154.2185 H   0  0  0  0  0  0  0  0  0  0  0  0
  151.3599  141.2422  154.8913 H   0  0  0  0  0  0  0  0  0  0  0  0
  150.0687  139.4264  156.9615 H   0  0  0  0  0  0  0  0  0  0  0  0
  151.5834  139.1670  156.0896 H   0  0  0  0  0  0  0  0  0  0  0  0
  151.6969  140.3134  158.5235 H   0  0  0  0  0  0  0  0  0  0  0  0
  152.6184  141.0504  157.2074 H   0  0  0  0  0  0  0  0  0  0  0  0
  149.9413  141.9359  158.3096 H   0  0  0  0  0  0  0  0  0  0  0  0
  151.2938  142.9397  157.7821 H   0  0  0  0  0  0  0  0  0  0  0  0
  143.3743  136.4846  150.6014 H   0  0  0  0  0  0  0  0  0  0  0  0
  144.3449  137.8447  151.0296 H   0  0  0  0  0  0  0  0  0  0  0  0
  146.2829  136.5471  151.2907 H   0  0  0  0  0  0  0  0  0  0  0  0
  145.5000  135.7518  149.9494 H   0  0  0  0  0  0  0  0  0  0  0  0
  147.6523  131.1442  150.8759 H   0  0  0  0  0  0  0  0  0  0  0  0
  145.6083  134.9143  152.7482 H   0  0  0  0  0  0  0  0  0  0  0  0
  1  2  1  0  0  0  0
  1 30  1  0  0  0  0
  1 31  1  0  0  0  0
  1 32  1  0  0  0  0
  2  3  1  0  0  0  0
  2  4  1  0  0  0  0
  2 63  1  0  0  0  0
  3 33  1  0  0  0  0
  3 34  1  0  0  0  0
  3 35  1  0  0  0  0
  4  5  1  0  0  0  0
  4 36  1  0  0  0  0
  4 37  1  0  0  0  0
  5  6  1  0  0  0  0
  5 38  1  0  0  0  0
  5 39  1  0  0  0  0
  6 29  1  0  0  0  0
  6  7  1  0  0  0  0
  6 64  1  0  0  0  0
  7  8  1  0  0  0  0
  7 40  1  0  0  0  0
  7 41  1  0  0  0  0
  8  9  1  0  0  0  0
  8 42  1  0  0  0  0
  8 43  1  0  0  0  0
  9 10  1  0  0  0  0
  9 44  1  0  0  0  0
  9 45  1  0  0  0  0
 10 11  1  0  0  0  0
 10 28  1  0  0  0  0
 11 16  1  0  0  0  0
 11 12  2  0  0  0  0
 12 13  1  0  0  0  0
 13 14  2  0  0  0  0
 13 46  1  0  0  0  0
 14 15  1  0  0  0  0
 15 19  1  0  0  0  0
 15 16  2  0  0  0  0
 16 17  1  0  0  0  0
 17 18  2  0  0  0  0
 18 19  1  0  0  0  0
 18 47  1  0  0  0  0
 19 20  1  0  0  0  0
 20 21  1  0  0  0  0
 20 48  1  0  0  0  0
 20 49  1  0  0  0  0
 21 22  1  0  0  0  0
 21 23  1  0  0  0  0
 21 50  1  0  0  0  0
 22 51  1  0  0  0  0
 23 27  1  0  0  0  0
 23 24  1  0  0  0  0
 23 52  1  0  0  0  0
 24 25  1  0  0  0  0
 24 53  1  0  0  0  0
 24 54  1  0  0  0  0
 25 26  1  0  0  0  0
 25 55  1  0  0  0  0
 25 56  1  0  0  0  0
 26 27  1  0  0  0  0
 26 57  1  0  0  0  0
 26 58  1  0  0  0  0
 28 29  1  0  0  0  0
 28 59  1  0  0  0  0
 28 60  1  0  0  0  0
 29 61  1  0  0  0  0
 29 62  1  0  0  0  0
M  CHG  1   2   1
M  CHG  1   6   1
M  END
> <s_m_source_file>
AV-unprocessed.smi

> <i_m_source_file_index>
155

> <i_lp_mmshare_version>
43012

> <i_f3d_flags>
0

> <s_epik_input>
W0NIM11OKFtDSDNdKVtDSDJdW0NIMl1OMVtDSDJdW0NIMl1bQ0gyXU4oW0NIMl1bQ0gyXTEpYyhuW2NIXW4yKWMoYzIzKW5bY0hdbjNbQ0gyXVtDQEhdKFtPSF0pW0NAQEhdNFtDSDJdW0NIMl1bQ0gyXU80

> <s_epik_cmdline>
J2VwaWtfcHl0aG9uJywgJy1waCcsICc3LjAnLCAnLXRuJywgJzgnLCAnLW1hJywgJzIwMCcsICctbWV0YWxfYmluZGluZycsICctaW1hZScsICc8aW5maWxlLm1hZT4nLCAnLW9tYWUnLCAnPG91dGZpbGUubWFlPic=

> <r_lp_tautomer_probability>
1

> <r_epik_Ionization_Penalty>
3.0333

> <r_epik_Ionization_Penalty_Charging>
3.03317

> <r_epik_Ionization_Penalty_Neutral>
0.000131872

> <r_epik_State_Penalty>
1.99939

> <r_epik_Charging_Adjusted_Penalty>
5.03256

> <i_epik_Tot_Q>
2

> <i_epik_Tot_abs_Q>
2

> <r_epik_Metal_State_Penalty>
2.00021

> <b_epik_Metal_Only>
0

> <s_lp_Force_Field>
OPLS_2005

> <r_lp_Energy>
62.4537

> <b_lp_Chiralities_Consistent>
1

> <s_lp_Variant>
AV-unprocessed.smi:155-15

> <Gold.Version>
5.8.1

> <Gold.Id.Protein>
6NUR|6NUR_protein|mol2

> <Gold.PLP.Fitness>
45.0664

> <Gold.PLP.PLP>
-38.0803

> <Gold.PLP.part.hbond>
-4.0000

> <Gold.PLP.part.metal>
0.0000

> <Gold.PLP.part.buried>
-0.3728

> <Gold.PLP.part.nonpolar>
-35.3225

> <Gold.PLP.part.repulsive>
0.5012

> <Gold.PLP.ligand.clash>
0.0000

> <Gold.PLP.ligand.torsion>
1.0335

> <Gold.PLP.Chemscore.Hbond>
1.8000

> <Gold.PLP.Chemscore.CHOScore>
1.0000

> <Gold.PLP.Chemscore.Metal>
0.0000

> <Gold.Chemscore.Hbonds>
donor molecule, donor type, donor heavy atom, donor atom, acceptor molecule, acceptor atom, score
      L1  H     2    63       P1 10747  0.88
      P1  H  8011  8017       L1    22  0.72
      L1  C    18    47       P1  7957  1.00

> <Gold.PLP.Chemscore.Internal.Correction>
0.6531

> <Gold.Rescore>
     Score         DG    S(hbond)    S(metal)    S(lipo)     H(rot)  DE(clash)    DE(int)     intcor
     11.51     -15.39       1.60        0.00      99.27       2.75       1.93       1.95       ----

> <Gold.Chemscore.Fitness>
11.5107

> <Gold.Chemscore.DG>
-15.3877

> <Gold.Chemscore.ZeroCoef>
-5.4800

> <Gold.Chemscore.Hbond>
1.5962

> <Gold.Chemscore.Metal>
0.0000

> <Gold.Chemscore.Lipo>
99.2705

> <Gold.Chemscore.Internal_Hbond>
0.0000

> <Gold.Chemscore.DEClash>
1.9286

> <Gold.Chemscore.DEInternal>
1.9483

> <Gold.Chemscore.Rot>
2.7493

> <Gold.Chemscore.Internal.Correction>
   9.000000E+99

> <Gold.Chemscore.Hbonds>
donor molecule, donor type, donor heavy atom, donor atom, acceptor molecule, acceptor atom, score
      L1  H     2    63       P1 10747  0.86
      P1  H  8011  8017       L1    22  0.40

> <Gold.Chemscore.Hbond.Weighted>
-5.3313

> <Gold.Chemscore.Metal.Weighted>
-0.0000

> <Gold.Chemscore.Lipo.Weighted>
-11.6146

> <Gold.Chemscore.Internal_Hbond.Weighted>
0.0000

> <Gold.Chemscore.DEClash.Weighted>
1.9286

> <Gold.Chemscore.DEInternal.Weighted>
1.9483

> <Gold.Chemscore.Rot.Weighted>
7.0383

> <Gold.Chemscore.Internal.Correction.Weighted>
   9.000000E+99

> <Gold.Protein.RotatedTorsions>
[ 6907 6896 6895 6894 ] final -133.81 input  -60.11 | X-H torsion
[ 7974 7965 7964 7962 ] final  -35.60 input  175.53 | X-H torsion
[ 8008 7997 7996 7995 ] final  -61.94 input   59.86 | X-H torsion
[ 10167 10162 10161 10158 ] final  -69.11 input  -65.29 | X-H torsion
[ 10718 10713 10712 10709 ] final  127.18 input   66.30 | X-H torsion
[ 10763 10752 10751 10750 ] final -129.10 input  -60.55 | X-H torsion
[ 11005 11000 10999 10996 ] final  -83.63 input  -57.11 | X-H torsion

> <Gold.Protein.ActiveResidues>
 VAL166  LYS551  ARG553  GLY616  TRP617  ASP618  TYR619  PRO620  LYS621  CYS622 
 ASP623  PHE694  ASN695  SER759  ASP760  ASP761  ALA762  ILE779  LEU786  VAL792 
 PHE793  MET794  SER795  GLU796  ALA797  LYS798  CYS799  TRP800  GLU811  SER814 

> <Gold.Protein.RotatedAtoms>
  150.9785  133.6270  159.2726 H   0  0  0  0  0  0  0  0  0  0  0  0  # atno 6907 bound_to 6896
  151.3534  135.0888  159.9420 H   0  0  0  0  0  0  0  0  0  0  0  0  # atno 6908 bound_to 6896
  152.5207  133.9373  159.7664 H   0  0  0  0  0  0  0  0  0  0  0  0  # atno 6909 bound_to 6896
  146.0732  140.6179  142.8942 H   0  0  0  0  0  0  0  0  0  0  0  0  # atno 7974 bound_to 7965
  154.4473  140.1007  156.6509 H   0  0  0  0  0  0  0  0  0  0  0  0  # atno 8008 bound_to 7997
  155.5399  140.3483  155.4426 H   0  0  0  0  0  0  0  0  0  0  0  0  # atno 8009 bound_to 7997
  156.0604  140.1325  156.9936 H   0  0  0  0  0  0  0  0  0  0  0  0  # atno 8010 bound_to 7997
  140.5455  143.2313  151.7009 H   0  0  0  0  0  0  0  0  0  0  0  0  # atno 10167 bound_to 10162
  157.5355  131.1097  150.8942 H   0  0  0  0  0  0  0  0  0  0  0  0  # atno 10718 bound_to 10713
  154.8757  135.3906  154.3864 H   0  0  0  0  0  0  0  0  0  0  0  0  # atno 10763 bound_to 10752
  153.4605  135.7029  153.6058 H   0  0  0  0  0  0  0  0  0  0  0  0  # atno 10764 bound_to 10752
  153.4559  135.3823  155.2279 H   0  0  0  0  0  0  0  0  0  0  0  0  # atno 10765 bound_to 10752
  141.1656  133.7304  156.8748 H   0  0  0  0  0  0  0  0  0  0  0  0  # atno 11005 bound_to 11000
  144.7245  140.4480  143.6983 LP  0  0  0  0  0  0  0  0  0  0  0  0  # atno 17320 bound_to 7965
  145.6353  139.1542  143.2946 LP  0  0  0  0  0  0  0  0  0  0  0  0  # atno 17321 bound_to 7965
  139.5006  144.3901  152.0289 LP  0  0  0  0  0  0  0  0  0  0  0  0  # atno 17342 bound_to 10162
  140.3013  144.3643  150.6059 LP  0  0  0  0  0  0  0  0  0  0  0  0  # atno 17343 bound_to 10162
  156.9510  130.5420  149.5282 LP  0  0  0  0  0  0  0  0  0  0  0  0  # atno 17370 bound_to 10713
  156.0455  130.5532  150.8871 LP  0  0  0  0  0  0  0  0  0  0  0  0  # atno 17371 bound_to 10713
  140.1756  134.9069  157.2886 LP  0  0  0  0  0  0  0  0  0  0  0  0  # atno 17394 bound_to 11000
  140.2453  134.3747  155.7464 LP  0  0  0  0  0  0  0  0  0  0  0  0  # atno 17395 bound_to 11000

$$$$
