AV-unprocessed.smi:1049|AV-procd|sdf|4608|dock10
  -GOLD-   22720 3103D 1   1.00000     0.00000
 Structure written by MMmdl.
 40 41  0  0  0  0  0  0  0  0  1 V2000
  146.3669  138.3917  153.6197 C   0  0  0  0  0  0  0  0  0  0  0  0
  146.9695  139.6427  154.2735 C   0  0  2  0  0  0  0  0  0  0  0  0
  145.9112  140.7538  154.4536 C   0  0  0  0  0  0  0  0  0  0  0  0
  146.5280  142.0646  154.9781 C   0  0  0  0  0  0  0  0  0  0  0  0
  147.7463  142.4714  154.1311 C   0  0  0  0  0  0  0  0  0  0  0  0
  148.7176  141.3638  154.1454 N   0  0  0  0  0  0  0  0  0  0  0  0
  149.8494  141.3094  154.8923 C   0  0  0  0  0  0  0  0  0  0  0  0
  150.6749  140.3991  154.8067 O   0  0  0  0  0  0  0  0  0  0  0  0
  150.0141  142.3451  155.7303 N   0  0  0  0  0  0  0  0  0  0  0  0
  151.0834  142.4793  156.7132 C   0  0  0  0  0  0  0  0  0  0  0  0
  150.9510  141.4650  157.8666 C   0  0  0  0  0  0  0  0  0  0  0  0
  151.9330  141.6883  158.9813 C   0  0  0  0  0  0  0  0  0  0  0  0
  152.6323  140.7060  159.5423 N   0  0  0  0  0  0  0  0  0  0  0  0
  153.4236  141.3312  160.4983 C   0  0  0  0  0  0  0  0  0  0  0  0
  153.1623  142.6791  160.4931 C   0  0  0  0  0  0  0  0  0  0  0  0
  152.1841  142.8956  159.5288 N   0  0  0  0  0  0  0  0  0  0  0  0
  151.5859  144.1767  159.1885 C   0  0  0  0  0  0  0  0  0  0  0  0
  151.4186  144.9215  160.2815 F   0  0  0  0  0  0  0  0  0  0  0  0
  152.3582  144.8275  158.3213 F   0  0  0  0  0  0  0  0  0  0  0  0
  148.1765  140.1765  153.4717 C   0  0  0  0  0  0  0  0  0  0  0  0
  146.0067  138.6051  152.6130 H   0  0  0  0  0  0  0  0  0  0  0  0
  145.5270  138.0108  154.2012 H   0  0  0  0  0  0  0  0  0  0  0  0
  147.1058  137.5933  153.5468 H   0  0  0  0  0  0  0  0  0  0  0  0
  147.3251  139.3543  155.2634 H   0  0  0  0  0  0  0  0  0  0  0  0
  145.4309  140.9519  153.4944 H   0  0  0  0  0  0  0  0  0  0  0  0
  145.1227  140.4190  155.1284 H   0  0  0  0  0  0  0  0  0  0  0  0
  145.7806  142.8583  154.9681 H   0  0  0  0  0  0  0  0  0  0  0  0
  146.8312  141.9391  156.0184 H   0  0  0  0  0  0  0  0  0  0  0  0
  147.4364  142.6628  153.1027 H   0  0  0  0  0  0  0  0  0  0  0  0
  148.1462  143.4192  154.4907 H   0  0  0  0  0  0  0  0  0  0  0  0
  149.3072  143.0659  155.7299 H   0  0  0  0  0  0  0  0  0  0  0  0
  152.0626  142.3990  156.2386 H   0  0  0  0  0  0  0  0  0  0  0  0
  151.0205  143.4908  157.1155 H   0  0  0  0  0  0  0  0  0  0  0  0
  149.9344  141.5063  158.2553 H   0  0  0  0  0  0  0  0  0  0  0  0
  151.0851  140.4531  157.4837 H   0  0  0  0  0  0  0  0  0  0  0  0
  154.1146  140.7685  161.1086 H   0  0  0  0  0  0  0  0  0  0  0  0
  153.5761  143.4794  161.0888 H   0  0  0  0  0  0  0  0  0  0  0  0
  150.6032  144.0303  158.7401 H   0  0  0  0  0  0  0  0  0  0  0  0
  148.9266  139.3933  153.3506 H   0  0  0  0  0  0  0  0  0  0  0  0
  147.8689  140.4455  152.4600 H   0  0  0  0  0  0  0  0  0  0  0  0
  1  2  1  0  0  0  0
  1 21  1  0  0  0  0
  1 22  1  0  0  0  0
  1 23  1  0  0  0  0
  2 20  1  0  0  0  0
  2  3  1  0  0  0  0
  2 24  1  0  0  0  0
  3  4  1  0  0  0  0
  3 25  1  0  0  0  0
  3 26  1  0  0  0  0
  4  5  1  0  0  0  0
  4 27  1  0  0  0  0
  4 28  1  0  0  0  0
  5  6  1  0  0  0  0
  5 29  1  0  0  0  0
  5 30  1  0  0  0  0
  6  7  1  0  0  0  0
  6 20  1  0  0  0  0
  7  8  2  0  0  0  0
  7  9  1  0  0  0  0
  9 10  1  0  0  0  0
  9 31  1  0  0  0  0
 10 11  1  0  0  0  0
 10 32  1  0  0  0  0
 10 33  1  0  0  0  0
 11 12  1  0  0  0  0
 11 34  1  0  0  0  0
 11 35  1  0  0  0  0
 12 16  1  0  0  0  0
 12 13  2  0  0  0  0
 13 14  1  0  0  0  0
 14 15  2  0  0  0  0
 14 36  1  0  0  0  0
 15 16  1  0  0  0  0
 15 37  1  0  0  0  0
 16 17  1  0  0  0  0
 17 18  1  0  0  0  0
 17 19  1  0  0  0  0
 17 38  1  0  0  0  0
 20 39  1  0  0  0  0
 20 40  1  0  0  0  0
M  END
> <s_m_source_file>
AV-unprocessed.smi

> <i_m_source_file_index>
1049

> <i_lp_mmshare_version>
43012

> <i_f3d_flags>
0

> <s_epik_input>
W0NIM11bQ0BASF0xW0NIMl1bQ0gyXVtDSDJdTihbQ0gyXTEpQyg9TylbTkhdW0NIMl1bQ0gyXWMybltjSF1bY0hdbjJbQ0hdKEYpRg==

> <s_epik_cmdline>
J2VwaWtfcHl0aG9uJywgJy1waCcsICc3LjAnLCAnLXRuJywgJzgnLCAnLW1hJywgJzIwMCcsICctbWV0YWxfYmluZGluZycsICctaW1hZScsICc8aW5maWxlLm1hZT4nLCAnLW9tYWUnLCAnPG91dGZpbGUubWFlPic=

> <r_lp_tautomer_probability>
1

> <r_epik_Ionization_Penalty>
0.101141

> <r_epik_Ionization_Penalty_Charging>
0.101077

> <r_epik_Ionization_Penalty_Neutral>
6.38597e-05

> <r_epik_State_Penalty>
0.091079

> <r_epik_Charging_Adjusted_Penalty>
0.192156

> <i_epik_Tot_Q>
0

> <i_epik_Tot_abs_Q>
0

> <r_epik_Metal_State_Penalty>
0.0777008

> <b_epik_Metal_Only>
0

> <s_lp_Force_Field>
OPLS_2005

> <r_lp_Energy>
32.1831

> <b_lp_Chiralities_Consistent>
1

> <s_lp_Variant>
AV-unprocessed.smi:1049-1

> <Gold.Version>
5.8.1

> <Gold.Id.Protein>
6NUR|6NUR_protein|mol2

> <Gold.PLP.Fitness>
50.3031

> <Gold.PLP.PLP>
-46.1580

> <Gold.PLP.part.hbond>
-2.0000

> <Gold.PLP.part.metal>
0.0000

> <Gold.PLP.part.buried>
-3.0108

> <Gold.PLP.part.nonpolar>
-42.2069

> <Gold.PLP.part.repulsive>
0.2114

> <Gold.PLP.ligand.clash>
0.0000

> <Gold.PLP.ligand.torsion>
0.9635

> <Gold.PLP.Chemscore.Hbond>
2.0000

> <Gold.PLP.Chemscore.CHOScore>
0.0000

> <Gold.PLP.Chemscore.Metal>
0.0000

> <Gold.Chemscore.Hbonds>
donor molecule, donor type, donor heavy atom, donor atom, acceptor molecule, acceptor atom, score
      L1  H     9    31       P1  8028  0.99
      P1  H  7989  7998       L1     8  1.00

> <Gold.PLP.Chemscore.Internal.Correction>
0.0721

> <Gold.Rescore>
     Score         DG    S(hbond)    S(metal)    S(lipo)     H(rot)  DE(clash)    DE(int)     intcor
     14.71     -15.36       1.63        0.00      72.03       1.56       0.29       0.36       ----

> <Gold.Chemscore.Fitness>
14.7068

> <Gold.Chemscore.DG>
-15.3583

> <Gold.Chemscore.ZeroCoef>
-5.4800

> <Gold.Chemscore.Hbond>
1.6322

> <Gold.Chemscore.Metal>
0.0000

> <Gold.Chemscore.Lipo>
72.0260

> <Gold.Chemscore.Internal_Hbond>
0.0000

> <Gold.Chemscore.DEClash>
0.2894

> <Gold.Chemscore.DEInternal>
0.3621

> <Gold.Chemscore.Rot>
1.5626

> <Gold.Chemscore.Internal.Correction>
   9.000000E+99

> <Gold.Chemscore.Hbonds>
donor molecule, donor type, donor heavy atom, donor atom, acceptor molecule, acceptor atom, score
      L1  H     9    31       P1  8028  0.94
      P1  H  7989  7998       L1     8  0.39

> <Gold.Chemscore.Hbond.Weighted>
-5.4516

> <Gold.Chemscore.Metal.Weighted>
-0.0000

> <Gold.Chemscore.Lipo.Weighted>
-8.4270

> <Gold.Chemscore.Internal_Hbond.Weighted>
0.0000

> <Gold.Chemscore.DEClash.Weighted>
0.2894

> <Gold.Chemscore.DEInternal.Weighted>
0.3621

> <Gold.Chemscore.Rot.Weighted>
4.0004

> <Gold.Chemscore.Internal.Correction.Weighted>
   9.000000E+99

> <Gold.Protein.RotatedTorsions>
[ 6907 6896 6895 6894 ] final  103.10 input  -60.11 | X-H torsion
[ 7974 7965 7964 7962 ] final   28.33 input  175.53 | X-H torsion
[ 8008 7997 7996 7995 ] final -141.46 input   59.86 | X-H torsion
[ 10167 10162 10161 10158 ] final  -54.22 input  -65.29 | X-H torsion
[ 10718 10713 10712 10709 ] final   12.18 input   66.30 | X-H torsion
[ 10763 10752 10751 10750 ] final -129.74 input  -60.55 | X-H torsion
[ 11005 11000 10999 10996 ] final -130.61 input  -57.11 | X-H torsion

> <Gold.Protein.ActiveResidues>
 VAL166  LYS551  ARG553  GLY616  TRP617  ASP618  TYR619  PRO620  LYS621  CYS622 
 ASP623  PHE694  ASN695  SER759  ASP760  ASP761  ALA762  ILE779  LEU786  VAL792 
 PHE793  MET794  SER795  GLU796  ALA797  LYS798  CYS799  TRP800  GLU811  SER814 

> <Gold.Protein.RotatedAtoms>
  152.5305  133.9877  159.7835 H   0  0  0  0  0  0  0  0  0  0  0  0  # atno 6907 bound_to 6896
  151.0118  133.5950  159.2689 H   0  0  0  0  0  0  0  0  0  0  0  0  # atno 6908 bound_to 6896
  151.3021  135.0778  159.9295 H   0  0  0  0  0  0  0  0  0  0  0  0  # atno 6909 bound_to 6896
  146.1735  139.7070  142.8951 H   0  0  0  0  0  0  0  0  0  0  0  0  # atno 7974 bound_to 7965
  155.4781  140.0558  157.2971 H   0  0  0  0  0  0  0  0  0  0  0  0  # atno 8008 bound_to 7997
  154.4671  140.2023  156.0042 H   0  0  0  0  0  0  0  0  0  0  0  0  # atno 8009 bound_to 7997
  156.0993  140.3221  155.7925 H   0  0  0  0  0  0  0  0  0  0  0  0  # atno 8010 bound_to 7997
  140.6442  143.2525  151.4904 H   0  0  0  0  0  0  0  0  0  0  0  0  # atno 10167 bound_to 10162
  157.0064  130.6100  149.5702 H   0  0  0  0  0  0  0  0  0  0  0  0  # atno 10718 bound_to 10713
  154.8757  135.3885  154.3970 H   0  0  0  0  0  0  0  0  0  0  0  0  # atno 10763 bound_to 10752
  153.4699  135.7030  153.6005 H   0  0  0  0  0  0  0  0  0  0  0  0  # atno 10764 bound_to 10752
  153.4467  135.3843  155.2228 H   0  0  0  0  0  0  0  0  0  0  0  0  # atno 10765 bound_to 10752
  140.9330  134.1294  157.4218 H   0  0  0  0  0  0  0  0  0  0  0  0  # atno 11005 bound_to 11000
  145.4277  141.0412  143.2928 LP  0  0  0  0  0  0  0  0  0  0  0  0  # atno 17320 bound_to 7965
  144.8199  139.5810  143.6991 LP  0  0  0  0  0  0  0  0  0  0  0  0  # atno 17321 bound_to 7965
  139.5652  144.2059  152.1754 LP  0  0  0  0  0  0  0  0  0  0  0  0  # atno 17342 bound_to 10162
  140.1338  144.5264  150.6786 LP  0  0  0  0  0  0  0  0  0  0  0  0  # atno 17343 bound_to 10162
  156.0152  130.5246  150.8112 LP  0  0  0  0  0  0  0  0  0  0  0  0  # atno 17370 bound_to 10713
  157.5352  131.0938  150.9901 LP  0  0  0  0  0  0  0  0  0  0  0  0  # atno 17371 bound_to 10713
  139.8801  135.0011  156.6051 LP  0  0  0  0  0  0  0  0  0  0  0  0  # atno 17394 bound_to 11000
  140.7837  133.8639  155.8588 LP  0  0  0  0  0  0  0  0  0  0  0  0  # atno 17395 bound_to 11000

$$$$
