AV-unprocessed.smi:2147|AV-procd|sdf|8745|dock4
  -GOLD-   2272011523D 1   1.00000     0.00000
 Structure written by MMmdl.
 42 44  0  0  0  0  0  0  0  0  2 V2000
  152.9707  144.1957  162.4139 C   0  0  0  0  0  0  0  0  0  0  0  0
  152.3100  144.0891  161.0405 C   0  0  0  0  0  0  0  0  0  0  0  0
  151.6356  145.0350  160.6346 O   0  0  0  0  0  0  0  0  0  0  0  0
  152.5237  142.8363  160.2612 C   0  0  0  0  0  0  0  0  0  0  0  0
  151.7416  142.5207  159.1260 C   0  0  0  0  0  0  0  0  0  0  0  0
  151.9668  141.3272  158.4135 C   0  0  0  0  0  0  0  0  0  0  0  0
  152.9706  140.4229  158.8125 C   0  0  0  0  0  0  0  0  0  0  0  0
  153.1163  139.2759  158.0618 O   0  0  0  0  0  0  0  0  0  0  0  0
  151.9702  138.7548  157.4019 C   0  0  0  0  0  0  0  0  0  0  0  0
  152.2993  138.5538  155.9155 C   0  0  1  0  0  0  0  0  0  0  0  0
  153.0314  137.3519  155.7761 O   0  0  0  0  0  0  0  0  0  0  0  0
  151.0332  138.4950  155.0371 C   0  0  0  0  0  0  0  0  0  0  0  0
  150.2142  139.7103  155.1324 N   0  0  0  0  0  0  0  0  0  0  0  0
  150.5130  140.9255  155.6668 C   0  0  0  0  0  0  0  0  0  0  0  0
  149.4188  141.7220  155.5135 N   0  3  0  0  0  0  0  0  0  0  0  0
  148.4058  141.0043  154.8737 C   0  0  0  0  0  0  0  0  0  0  0  0
  147.1179  141.3784  154.5030 C   0  0  0  0  0  0  0  0  0  0  0  0
  146.3333  140.3963  153.8628 C   0  0  0  0  0  0  0  0  0  0  0  0
  146.8352  139.1019  153.6139 C   0  0  0  0  0  0  0  0  0  0  0  0
  148.1429  138.7335  153.9940 C   0  0  0  0  0  0  0  0  0  0  0  0
  148.9110  139.7104  154.6258 C   0  0  0  0  0  0  0  0  0  0  0  0
  153.7586  140.7406  159.9459 C   0  0  0  0  0  0  0  0  0  0  0  0
  153.5349  141.9337  160.6595 C   0  0  0  0  0  0  0  0  0  0  0  0
  154.0528  144.0967  162.3265 H   0  0  0  0  0  0  0  0  0  0  0  0
  152.5976  143.4163  163.0784 H   0  0  0  0  0  0  0  0  0  0  0  0
  152.7528  145.1630  162.8675 H   0  0  0  0  0  0  0  0  0  0  0  0
  150.9593  143.1803  158.7816 H   0  0  0  0  0  0  0  0  0  0  0  0
  151.3578  141.1023  157.5502 H   0  0  0  0  0  0  0  0  0  0  0  0
  151.6993  137.7984  157.8526 H   0  0  0  0  0  0  0  0  0  0  0  0
  151.1196  139.4309  157.5060 H   0  0  0  0  0  0  0  0  0  0  0  0
  152.9426  139.3683  155.5811 H   0  0  0  0  0  0  0  0  0  0  0  0
  153.6196  137.2720  156.5116 H   0  0  0  0  0  0  0  0  0  0  0  0
  151.3071  138.3688  153.9887 H   0  0  0  0  0  0  0  0  0  0  0  0
  150.4114  137.6380  155.2992 H   0  0  0  0  0  0  0  0  0  0  0  0
  151.4473  141.2044  156.1322 H   0  0  0  0  0  0  0  0  0  0  0  0
  146.7307  142.3686  154.6933 H   0  0  0  0  0  0  0  0  0  0  0  0
  145.3265  140.6408  153.5569 H   0  0  0  0  0  0  0  0  0  0  0  0
  146.2038  138.3766  153.1215 H   0  0  0  0  0  0  0  0  0  0  0  0
  148.5189  137.7396  153.8012 H   0  0  0  0  0  0  0  0  0  0  0  0
  154.5433  140.0848  160.2909 H   0  0  0  0  0  0  0  0  0  0  0  0
  154.1521  142.1462  161.5208 H   0  0  0  0  0  0  0  0  0  0  0  0
  149.3695  142.6832  155.8262 H   0  0  0  0  0  0  0  0  0  0  0  0
  1  2  1  0  0  0  0
  1 24  1  0  0  0  0
  1 25  1  0  0  0  0
  1 26  1  0  0  0  0
  2  3  2  0  0  0  0
  2  4  1  0  0  0  0
  4 23  1  0  0  0  0
  4  5  2  0  0  0  0
  5  6  1  0  0  0  0
  5 27  1  0  0  0  0
  6  7  2  0  0  0  0
  6 28  1  0  0  0  0
  7  8  1  0  0  0  0
  7 22  1  0  0  0  0
  8  9  1  0  0  0  0
  9 10  1  0  0  0  0
  9 29  1  0  0  0  0
  9 30  1  0  0  0  0
 10 11  1  0  0  0  0
 10 12  1  0  0  0  0
 10 31  1  0  0  0  0
 11 32  1  0  0  0  0
 12 13  1  0  0  0  0
 12 33  1  0  0  0  0
 12 34  1  0  0  0  0
 13 21  1  0  0  0  0
 13 14  1  0  0  0  0
 14 15  2  0  0  0  0
 14 35  1  0  0  0  0
 15 16  1  0  0  0  0
 15 42  1  0  0  0  0
 16 21  2  0  0  0  0
 16 17  1  0  0  0  0
 17 18  2  0  0  0  0
 17 36  1  0  0  0  0
 18 19  1  0  0  0  0
 18 37  1  0  0  0  0
 19 20  2  0  0  0  0
 19 38  1  0  0  0  0
 20 21  1  0  0  0  0
 20 39  1  0  0  0  0
 22 23  2  0  0  0  0
 22 40  1  0  0  0  0
 23 41  1  0  0  0  0
M  CHG  1  15   1
M  END
> <s_m_source_file>
AV-unprocessed.smi

> <i_m_source_file_index>
2147

> <i_lp_mmshare_version>
43012

> <i_f3d_flags>
0

> <s_epik_input>
W0NIM11DKD1PKWMxW2NIXVtjSF1jKFtjSF1bY0hdMSlPW0NIMl1bQ0BIXShbT0hdKVtDSDJdbihbY0hdbjIpYyhjMjMpW2NIXVtjSF1bY0hdW2NIXTM=

> <s_epik_cmdline>
J2VwaWtfcHl0aG9uJywgJy1waCcsICc3LjAnLCAnLXRuJywgJzgnLCAnLW1hJywgJzIwMCcsICctbWV0YWxfYmluZGluZycsICctaW1hZScsICc8aW5maWxlLm1hZT4nLCAnLW9tYWUnLCAnPG91dGZpbGUubWFlPic=

> <r_lp_tautomer_probability>
0.99995

> <r_epik_Ionization_Penalty>
1.40272

> <r_epik_Ionization_Penalty_Charging>
1.40272

> <r_epik_Ionization_Penalty_Neutral>
2.3993e-06

> <r_epik_State_Penalty>
1.48501

> <r_epik_Charging_Adjusted_Penalty>
2.88772

> <i_epik_Tot_Q>
1

> <i_epik_Tot_abs_Q>
1

> <r_epik_Metal_State_Penalty>
5.5274

> <b_epik_Metal_Only>
0

> <s_lp_Force_Field>
OPLS_2005

> <r_lp_Energy>
26.1974

> <b_lp_Chiralities_Consistent>
1

> <s_lp_Variant>
AV-unprocessed.smi:2147-4

> <Gold.Version>
5.8.1

> <Gold.Id.Protein>
6NUR|6NUR_protein|mol2

> <Gold.PLP.Fitness>
54.5273

> <Gold.PLP.PLP>
-49.2251

> <Gold.PLP.part.hbond>
-2.1051

> <Gold.PLP.part.metal>
0.0000

> <Gold.PLP.part.buried>
-2.2375

> <Gold.PLP.part.nonpolar>
-44.2246

> <Gold.PLP.part.repulsive>
0.3843

> <Gold.PLP.ligand.clash>
0.0000

> <Gold.PLP.ligand.torsion>
1.1611

> <Gold.PLP.Chemscore.Hbond>
2.4612

> <Gold.PLP.Chemscore.CHOScore>
0.0000

> <Gold.PLP.Chemscore.Metal>
0.0000

> <Gold.Chemscore.Hbonds>
donor molecule, donor type, donor heavy atom, donor atom, acceptor molecule, acceptor atom, score
      L1  H    15    42       P1  8028  1.66
      P1  H  7997  8008       L1     8  0.48
      P1  H 10752 10764       L1    11  0.40

> <Gold.PLP.Chemscore.Internal.Correction>
0.2406

> <Gold.Rescore>
     Score         DG    S(hbond)    S(metal)    S(lipo)     H(rot)  DE(clash)    DE(int)     intcor
     15.22     -17.62       1.28        0.00     121.61       2.48       1.47       0.93       ----

> <Gold.Chemscore.Fitness>
15.2180

> <Gold.Chemscore.DG>
-17.6234

> <Gold.Chemscore.ZeroCoef>
-5.4800

> <Gold.Chemscore.Hbond>
1.2800

> <Gold.Chemscore.Metal>
0.0000

> <Gold.Chemscore.Lipo>
121.6050

> <Gold.Chemscore.Internal_Hbond>
0.0000

> <Gold.Chemscore.DEClash>
1.4713

> <Gold.Chemscore.DEInternal>
0.9341

> <Gold.Chemscore.Rot>
2.4842

> <Gold.Chemscore.Internal.Correction>
   9.000000E+99

> <Gold.Chemscore.Hbonds>
donor molecule, donor type, donor heavy atom, donor atom, acceptor molecule, acceptor atom, score
      L1  H    15    42       P1  8028  0.79
      P1  H  7997  8008       L1     8  0.03
      P1  H 10752 10764       L1    11  0.24

> <Gold.Chemscore.Hbond.Weighted>
-4.2751

> <Gold.Chemscore.Metal.Weighted>
-0.0000

> <Gold.Chemscore.Lipo.Weighted>
-14.2278

> <Gold.Chemscore.Internal_Hbond.Weighted>
0.0000

> <Gold.Chemscore.DEClash.Weighted>
1.4713

> <Gold.Chemscore.DEInternal.Weighted>
0.9341

> <Gold.Chemscore.Rot.Weighted>
6.3594

> <Gold.Chemscore.Internal.Correction.Weighted>
   9.000000E+99

> <Gold.Protein.RotatedTorsions>
[ 6907 6896 6895 6894 ] final   10.45 input  -60.11 | X-H torsion
[ 7974 7965 7964 7962 ] final -102.73 input  175.53 | X-H torsion
[ 8008 7997 7996 7995 ] final -105.59 input   59.86 | X-H torsion
[ 10167 10162 10161 10158 ] final   43.49 input  -65.29 | X-H torsion
[ 10718 10713 10712 10709 ] final  107.11 input   66.30 | X-H torsion
[ 10763 10752 10751 10750 ] final  -48.81 input  -60.55 | X-H torsion
[ 11005 11000 10999 10996 ] final  146.12 input  -57.11 | X-H torsion

> <Gold.Protein.ActiveResidues>
 VAL166  LYS551  ARG553  GLY616  TRP617  ASP618  TYR619  PRO620  LYS621  CYS622 
 ASP623  PHE694  ASN695  SER759  ASP760  ASP761  ALA762  ILE779  LEU786  VAL792 
 PHE793  MET794  SER795  GLU796  ALA797  LYS798  CYS799  TRP800  GLU811  SER814 

> <Gold.Protein.RotatedAtoms>
  151.7384  135.0859  160.0311 H   0  0  0  0  0  0  0  0  0  0  0  0  # atno 6907 bound_to 6896
  152.3495  133.6158  159.5943 H   0  0  0  0  0  0  0  0  0  0  0  0  # atno 6908 bound_to 6896
  150.7531  133.9512  159.3528 H   0  0  0  0  0  0  0  0  0  0  0  0  # atno 6909 bound_to 6896
  145.2650  140.9281  143.3019 H   0  0  0  0  0  0  0  0  0  0  0  0  # atno 7974 bound_to 7965
  154.9021  140.0412  157.1899 H   0  0  0  0  0  0  0  0  0  0  0  0  # atno 8008 bound_to 7997
  154.8433  140.2918  155.5624 H   0  0  0  0  0  0  0  0  0  0  0  0  # atno 8009 bound_to 7997
  156.2993  140.2478  156.3380 H   0  0  0  0  0  0  0  0  0  0  0  0  # atno 8010 bound_to 7997
  140.3439  144.2436  150.6152 H   0  0  0  0  0  0  0  0  0  0  0  0  # atno 10167 bound_to 10162
  157.6641  131.0865  150.6108 H   0  0  0  0  0  0  0  0  0  0  0  0  # atno 10718 bound_to 10713
  154.0838  135.6587  153.4842 H   0  0  0  0  0  0  0  0  0  0  0  0  # atno 10763 bound_to 10752
  153.0346  135.5186  154.7448 H   0  0  0  0  0  0  0  0  0  0  0  0  # atno 10764 bound_to 10752
  154.6551  135.3007  154.9906 H   0  0  0  0  0  0  0  0  0  0  0  0  # atno 10765 bound_to 10752
  140.0768  134.9120  157.1435 H   0  0  0  0  0  0  0  0  0  0  0  0  # atno 11005 bound_to 11000
  144.9385  139.4216  143.6460 LP  0  0  0  0  0  0  0  0  0  0  0  0  # atno 17320 bound_to 7965
  146.3264  139.8333  142.8904 LP  0  0  0  0  0  0  0  0  0  0  0  0  # atno 17321 bound_to 7965
  140.5283  143.2249  151.8279 LP  0  0  0  0  0  0  0  0  0  0  0  0  # atno 17342 bound_to 10162
  139.4836  144.4752  151.9376 LP  0  0  0  0  0  0  0  0  0  0  0  0  # atno 17343 bound_to 10162
  156.6409  130.4458  149.5753 LP  0  0  0  0  0  0  0  0  0  0  0  0  # atno 17370 bound_to 10713
  156.2210  130.6737  151.1368 LP  0  0  0  0  0  0  0  0  0  0  0  0  # atno 17371 bound_to 10713
  140.3546  134.2560  155.7194 LP  0  0  0  0  0  0  0  0  0  0  0  0  # atno 17394 bound_to 11000
  141.2032  133.7918  157.0351 LP  0  0  0  0  0  0  0  0  0  0  0  0  # atno 17395 bound_to 11000

$$$$
