AV-unprocessed.smi:2568|AV-procd|sdf|10088|dock6
  -GOLD-   2272014113D 1   1.00000     0.00000
 Structure written by MMmdl.
 25 26  0  0  0  0  0  0  0  0  2 V2000
  145.8056  142.4627  154.5519 C   0  0  0  0  0  0  0  0  0  0  0  0
  147.1327  141.7824  154.5547 C   0  0  0  0  0  0  0  0  0  0  0  0
  148.2571  142.4226  154.8803 N   0  0  0  0  0  0  0  0  0  0  0  0
  149.2986  141.5684  154.7922 N   0  0  0  0  0  0  0  0  0  0  0  0
  148.7001  140.4360  154.4250 C   0  0  0  0  0  0  0  0  0  0  0  0
  149.5013  139.1994  154.1600 C   0  0  2  0  0  0  0  0  0  0  0  0
  148.9720  137.9838  154.9439 C   0  0  0  0  0  0  0  0  0  0  0  0
  149.8526  136.8212  154.7197 N   0  3  0  0  0  0  0  0  0  0  0  0
  151.2565  137.1343  155.0538 C   0  0  0  0  0  0  0  0  0  0  0  0
  151.7197  138.3860  154.2868 C   0  0  0  0  0  0  0  0  0  0  0  0
  150.8422  139.4735  154.5613 O   0  0  0  0  0  0  0  0  0  0  0  0
  147.3456  140.5091  154.2410 N   0  0  0  0  0  0  0  0  0  0  0  0
  148.3578  143.3917  155.1477 H   0  0  0  0  0  0  0  0  0  0  0  0
  145.0172  141.7610  154.2776 H   0  0  0  0  0  0  0  0  0  0  0  0
  145.8073  143.2835  153.8345 H   0  0  0  0  0  0  0  0  0  0  0  0
  145.5872  142.8620  155.5427 H   0  0  0  0  0  0  0  0  0  0  0  0
  149.4829  138.9940  153.0875 H   0  0  0  0  0  0  0  0  0  0  0  0
  148.9369  138.2035  156.0120 H   0  0  0  0  0  0  0  0  0  0  0  0
  147.9571  137.7346  154.6322 H   0  0  0  0  0  0  0  0  0  0  0  0
  149.5368  136.0458  155.2849 H   0  0  0  0  0  0  0  0  0  0  0  0
  151.3404  137.2987  156.1288 H   0  0  0  0  0  0  0  0  0  0  0  0
  151.8862  136.2788  154.8089 H   0  0  0  0  0  0  0  0  0  0  0  0
  152.7296  138.6607  154.5915 H   0  0  0  0  0  0  0  0  0  0  0  0
  151.7529  138.1950  153.2131 H   0  0  0  0  0  0  0  0  0  0  0  0
  149.8018  136.5604  153.7449 H   0  0  0  0  0  0  0  0  0  0  0  0
  1 14  1  0  0  0  0
  1 15  1  0  0  0  0
  1 16  1  0  0  0  0
  1  2  1  0  0  0  0
  2 12  2  0  0  0  0
  2  3  1  0  0  0  0
  3  4  1  0  0  0  0
  3 13  1  0  0  0  0
  4  5  2  0  0  0  0
  5 12  1  0  0  0  0
  5  6  1  0  0  0  0
  6 11  1  0  0  0  0
  6  7  1  0  0  0  0
  6 17  1  0  0  0  0
  7  8  1  0  0  0  0
  7 18  1  0  0  0  0
  7 19  1  0  0  0  0
  8  9  1  0  0  0  0
  8 20  1  0  0  0  0
  8 25  1  0  0  0  0
  9 10  1  0  0  0  0
  9 21  1  0  0  0  0
  9 22  1  0  0  0  0
 10 11  1  0  0  0  0
 10 23  1  0  0  0  0
 10 24  1  0  0  0  0
M  CHG  1   8   1
M  END
> <s_m_source_file>
AV-unprocessed.smi

> <i_m_source_file_index>
2568

> <i_lp_mmshare_version>
43012

> <i_f3d_flags>
0

> <s_epik_input>
W0NIM11jMW5bbkhdYyhuMSlbQ0BASF0yW0NIMl1bTkhdW0NIMl1bQ0gyXU8y

> <s_epik_cmdline>
J2VwaWtfcHl0aG9uJywgJy1waCcsICc3LjAnLCAnLXRuJywgJzgnLCAnLW1hJywgJzIwMCcsICctbWV0YWxfYmluZGluZycsICctaW1hZScsICc8aW5maWxlLm1hZT4nLCAnLW9tYWUnLCAnPG91dGZpbGUubWFlPic=

> <r_lp_tautomer_probability>
0.948284

> <r_epik_Ionization_Penalty>
0.107151

> <r_epik_Ionization_Penalty_Charging>
0.100865

> <r_epik_Ionization_Penalty_Neutral>
0.00628602

> <r_epik_State_Penalty>
0.200426

> <r_epik_Charging_Adjusted_Penalty>
0.30129

> <i_epik_Tot_Q>
1

> <i_epik_Tot_abs_Q>
1

> <r_epik_Metal_State_Penalty>
0.501686

> <b_epik_Metal_Only>
0

> <s_lp_Force_Field>
OPLS_2005

> <r_lp_Energy>
11.0041

> <b_lp_Chiralities_Consistent>
1

> <s_lp_Variant>
AV-unprocessed.smi:2568-1

> <Gold.Version>
5.8.1

> <Gold.Id.Protein>
6NUR|6NUR_protein|mol2

> <Gold.PLP.Fitness>
34.3950

> <Gold.PLP.PLP>
-22.5015

> <Gold.PLP.part.hbond>
-4.4474

> <Gold.PLP.part.metal>
0.0000

> <Gold.PLP.part.buried>
-2.5293

> <Gold.PLP.part.nonpolar>
-16.9920

> <Gold.PLP.part.repulsive>
1.7765

> <Gold.PLP.ligand.clash>
0.0000

> <Gold.PLP.ligand.torsion>
0.0843

> <Gold.PLP.Chemscore.Hbond>
4.0159

> <Gold.PLP.Chemscore.CHOScore>
0.0000

> <Gold.PLP.Chemscore.Metal>
0.0000

> <Gold.Chemscore.Hbonds>
donor molecule, donor type, donor heavy atom, donor atom, acceptor molecule, acceptor atom, score
      L1  H     3    13       P1  8028  0.91
      L1  H     8    25       P1  7948  1.89
      P1  H  7989  7998       L1    11  1.00

> <Gold.PLP.Chemscore.Internal.Correction>
0.0143

> <Gold.Rescore>
     Score         DG    S(hbond)    S(metal)    S(lipo)     H(rot)  DE(clash)    DE(int)     intcor
     14.98     -15.60       2.68        0.00      32.03       1.00       0.62       0.01       ----

> <Gold.Chemscore.Fitness>
14.9803

> <Gold.Chemscore.DG>
-15.6042

> <Gold.Chemscore.ZeroCoef>
-5.4800

> <Gold.Chemscore.Hbond>
2.6755

> <Gold.Chemscore.Metal>
0.0000

> <Gold.Chemscore.Lipo>
32.0349

> <Gold.Chemscore.Internal_Hbond>
0.0000

> <Gold.Chemscore.DEClash>
0.6154

> <Gold.Chemscore.DEInternal>
0.0085

> <Gold.Chemscore.Rot>
1.0000

> <Gold.Chemscore.Internal.Correction>
   9.000000E+99

> <Gold.Chemscore.Hbonds>
donor molecule, donor type, donor heavy atom, donor atom, acceptor molecule, acceptor atom, score
      L1  H     3    13       P1  8028  0.86
      L1  H     8    25       P1  7948  0.40
      P1  H  7989  7998       L1    11  0.25

> <Gold.Chemscore.Hbond.Weighted>
-8.9361

> <Gold.Chemscore.Metal.Weighted>
-0.0000

> <Gold.Chemscore.Lipo.Weighted>
-3.7481

> <Gold.Chemscore.Internal_Hbond.Weighted>
0.0000

> <Gold.Chemscore.DEClash.Weighted>
0.6154

> <Gold.Chemscore.DEInternal.Weighted>
0.0085

> <Gold.Chemscore.Rot.Weighted>
2.5600

> <Gold.Chemscore.Internal.Correction.Weighted>
   9.000000E+99

> <Gold.Protein.RotatedTorsions>
[ 6907 6896 6895 6894 ] final -163.43 input  -60.11 | X-H torsion
[ 7974 7965 7964 7962 ] final    5.01 input  175.53 | X-H torsion
[ 8008 7997 7996 7995 ] final -163.20 input   59.86 | X-H torsion
[ 10167 10162 10161 10158 ] final   26.02 input  -65.29 | X-H torsion
[ 10718 10713 10712 10709 ] final  -31.10 input   66.30 | X-H torsion
[ 10763 10752 10751 10750 ] final   80.20 input  -60.55 | X-H torsion
[ 11005 11000 10999 10996 ] final   46.80 input  -57.11 | X-H torsion

> <Gold.Protein.ActiveResidues>
 VAL166  LYS551  ARG553  GLY616  TRP617  ASP618  TYR619  PRO620  LYS621  CYS622 
 ASP623  PHE694  ASN695  SER759  ASP760  ASP761  ALA762  ILE779  LEU786  VAL792 
 PHE793  MET794  SER795  GLU796  ALA797  LYS798  CYS799  TRP800  GLU811  SER814 

> <Gold.Protein.RotatedAtoms>
  151.3960  133.3773  159.2726 H   0  0  0  0  0  0  0  0  0  0  0  0  # atno 6907 bound_to 6896
  150.9469  134.8874  159.7658 H   0  0  0  0  0  0  0  0  0  0  0  0  # atno 6908 bound_to 6896
  152.5095  134.3913  159.9437 H   0  0  0  0  0  0  0  0  0  0  0  0  # atno 6909 bound_to 6896
  146.2442  140.0448  142.8379 H   0  0  0  0  0  0  0  0  0  0  0  0  # atno 7974 bound_to 7965
  155.8178  140.0915  157.1867 H   0  0  0  0  0  0  0  0  0  0  0  0  # atno 8008 bound_to 7997
  154.3979  140.1442  156.3523 H   0  0  0  0  0  0  0  0  0  0  0  0  # atno 8009 bound_to 7997
  155.8298  140.3443  155.5568 H   0  0  0  0  0  0  0  0  0  0  0  0  # atno 8010 bound_to 7997
  140.5057  144.0242  150.6351 H   0  0  0  0  0  0  0  0  0  0  0  0  # atno 10167 bound_to 10162
  156.3915  130.4374  149.7391 H   0  0  0  0  0  0  0  0  0  0  0  0  # atno 10718 bound_to 10713
  153.1014  135.4811  154.8873 H   0  0  0  0  0  0  0  0  0  0  0  0  # atno 10763 bound_to 10752
  154.7382  135.3076  154.8776 H   0  0  0  0  0  0  0  0  0  0  0  0  # atno 10764 bound_to 10752
  153.9392  135.6836  153.4798 H   0  0  0  0  0  0  0  0  0  0  0  0  # atno 10765 bound_to 10752
  140.1336  134.4674  155.8503 H   0  0  0  0  0  0  0  0  0  0  0  0  # atno 11005 bound_to 11000
  145.1037  140.9362  143.4697 LP  0  0  0  0  0  0  0  0  0  0  0  0  # atno 17320 bound_to 7965
  145.0646  139.3078  143.5863 LP  0  0  0  0  0  0  0  0  0  0  0  0  # atno 17321 bound_to 7965
  140.3550  143.2941  152.0445 LP  0  0  0  0  0  0  0  0  0  0  0  0  # atno 17342 bound_to 10162
  139.4883  144.6345  151.7003 LP  0  0  0  0  0  0  0  0  0  0  0  0  # atno 17343 bound_to 10162
  156.4443  130.7876  151.2897 LP  0  0  0  0  0  0  0  0  0  0  0  0  # atno 17370 bound_to 10713
  157.7499  131.0115  150.3348 LP  0  0  0  0  0  0  0  0  0  0  0  0  # atno 17371 bound_to 10713
  141.2174  133.6805  156.7115 LP  0  0  0  0  0  0  0  0  0  0  0  0  # atno 17394 bound_to 11000
  140.2811  134.8316  157.3934 LP  0  0  0  0  0  0  0  0  0  0  0  0  # atno 17395 bound_to 11000

$$$$
