AV-unprocessed.smi:2248|AV-procd|sdf|9097|dock10
  -GOLD-   2272012293D 1   1.00000     0.00000
 Structure written by MMmdl.
 35 36  0  0  0  0  0  0  0  0  1 V2000
  153.4480  141.7236  161.0850 C   0  0  0  0  0  0  0  0  0  0  0  0
  152.6047  142.8104  160.4523 C   0  0  0  0  0  0  0  0  0  0  0  0
  152.5029  144.0847  161.0441 C   0  0  0  0  0  0  0  0  0  0  0  0
  151.7069  145.0509  160.4035 C   0  0  0  0  0  0  0  0  0  0  0  0
  151.0514  144.7063  159.2058 C   0  0  0  0  0  0  0  0  0  0  0  0
  151.2058  143.4043  158.6786 C   0  0  0  0  0  0  0  0  0  0  0  0
  150.5065  143.1582  157.4673 N   0  0  0  0  0  0  0  0  0  0  0  0
  150.4661  142.0240  156.7463 C   0  0  0  0  0  0  0  0  0  0  0  0
  151.0290  140.9692  157.0422 O   0  0  0  0  0  0  0  0  0  0  0  0
  149.7243  142.1792  155.6406 N   0  0  0  0  0  0  0  0  0  0  0  0
  149.4988  141.1470  154.6352 C   0  0  1  0  0  0  0  0  0  0  0  0
  149.2408  139.8199  155.2969 C   0  0  0  0  0  0  0  0  0  0  0  0
  148.0634  139.2966  154.9621 C   0  0  0  0  0  0  0  0  0  0  0  0
  147.2874  140.1745  154.0146 C   0  0  1  0  0  0  0  0  0  0  0  0
  145.8797  140.5275  154.5315 C   0  0  0  0  0  0  0  0  0  0  0  0
  144.9913  139.4325  154.4240 O   0  0  0  0  0  0  0  0  0  0  0  0
  148.2152  141.3978  153.7990 C   0  0  0  0  0  0  0  0  0  0  0  0
  151.9762  142.4794  159.3040 N   0  0  0  0  0  0  0  0  0  0  0  0
  150.3733  141.0497  153.9896 H   0  0  0  0  0  0  0  0  0  0  0  0
  147.1882  139.6311  153.0743 H   0  0  0  0  0  0  0  0  0  0  0  0
  153.7171  141.9804  162.1102 H   0  0  0  0  0  0  0  0  0  0  0  0
  154.3666  141.5809  160.5156 H   0  0  0  0  0  0  0  0  0  0  0  0
  152.9047  140.7783  161.1044 H   0  0  0  0  0  0  0  0  0  0  0  0
  153.0198  144.3178  161.9635 H   0  0  0  0  0  0  0  0  0  0  0  0
  151.6012  146.0406  160.8225 H   0  0  0  0  0  0  0  0  0  0  0  0
  150.4369  145.4374  158.7007 H   0  0  0  0  0  0  0  0  0  0  0  0
  149.9830  143.9399  157.1022 H   0  0  0  0  0  0  0  0  0  0  0  0
  149.2994  143.0790  155.4712 H   0  0  0  0  0  0  0  0  0  0  0  0
  149.9579  139.3596  155.9606 H   0  0  0  0  0  0  0  0  0  0  0  0
  147.6804  138.3504  155.3147 H   0  0  0  0  0  0  0  0  0  0  0  0
  145.9285  140.8410  155.5748 H   0  0  0  0  0  0  0  0  0  0  0  0
  145.4698  141.3651  153.9666 H   0  0  0  0  0  0  0  0  0  0  0  0
  144.5661  139.4726  153.5811 H   0  0  0  0  0  0  0  0  0  0  0  0
  147.7209  142.3265  154.0880 H   0  0  0  0  0  0  0  0  0  0  0  0
  148.4676  141.5011  152.7432 H   0  0  0  0  0  0  0  0  0  0  0  0
  1  2  1  0  0  0  0
  1 21  1  0  0  0  0
  1 22  1  0  0  0  0
  1 23  1  0  0  0  0
  2 18  1  0  0  0  0
  2  3  2  0  0  0  0
  3  4  1  0  0  0  0
  3 24  1  0  0  0  0
  4  5  2  0  0  0  0
  4 25  1  0  0  0  0
  5  6  1  0  0  0  0
  5 26  1  0  0  0  0
  6  7  1  0  0  0  0
  6 18  2  0  0  0  0
  7  8  1  0  0  0  0
  7 27  1  0  0  0  0
  8  9  2  0  0  0  0
  8 10  1  0  0  0  0
 10 11  1  0  0  0  0
 10 28  1  0  0  0  0
 11 19  1  0  0  0  0
 11 17  1  0  0  0  0
 11 12  1  0  0  0  0
 12 13  2  0  0  0  0
 12 29  1  0  0  0  0
 13 14  1  0  0  0  0
 13 30  1  0  0  0  0
 14 20  1  0  0  0  0
 14 15  1  0  0  0  0
 14 17  1  0  0  0  0
 15 16  1  0  0  0  0
 15 31  1  0  0  0  0
 15 32  1  0  0  0  0
 16 33  1  0  0  0  0
 17 34  1  0  0  0  0
 17 35  1  0  0  0  0
M  END
> <s_m_source_file>
AV-unprocessed.smi

> <i_m_source_file_index>
2248

> <i_lp_mmshare_version>
43012

> <i_f3d_flags>
0

> <s_epik_input>
W0NIM11jMVtjSF1bY0hdW2NIXWMobjEpW05IXUMoPU8pW05IXVtDQEBIXTJbQ0hdPVtDSF1bQ0BASF0oW0NIMl0yKVtDSDJdW09IXQ==

> <s_epik_cmdline>
J2VwaWtfcHl0aG9uJywgJy1waCcsICc3LjAnLCAnLXRuJywgJzgnLCAnLW1hJywgJzIwMCcsICctbWV0YWxfYmluZGluZycsICctaW1hZScsICc8aW5maWxlLm1hZT4nLCAnLW9tYWUnLCAnPG91dGZpbGUubWFlPic=

> <r_lp_tautomer_probability>
1

> <r_epik_Ionization_Penalty>
8.36606e-05

> <r_epik_Ionization_Penalty_Charging>
0

> <r_epik_Ionization_Penalty_Neutral>
8.36606e-05

> <r_epik_State_Penalty>
-0

> <r_epik_Charging_Adjusted_Penalty>
0

> <i_epik_Tot_Q>
0

> <i_epik_Tot_abs_Q>
0

> <r_epik_Metal_State_Penalty>
-0

> <b_epik_Metal_Only>
0

> <s_lp_Force_Field>
OPLS_2005

> <r_lp_Energy>
18.8307

> <b_lp_Chiralities_Consistent>
1

> <s_lp_Variant>
AV-unprocessed.smi:2248-4

> <Gold.Version>
5.8.1

> <Gold.Id.Protein>
6NUR|6NUR_protein|mol2

> <Gold.PLP.Fitness>
43.6368

> <Gold.PLP.PLP>
-35.6413

> <Gold.PLP.part.hbond>
-3.0000

> <Gold.PLP.part.metal>
0.0000

> <Gold.PLP.part.buried>
-3.0129

> <Gold.PLP.part.nonpolar>
-28.9050

> <Gold.PLP.part.repulsive>
0.1938

> <Gold.PLP.ligand.clash>
0.0000

> <Gold.PLP.ligand.torsion>
0.3760

> <Gold.PLP.Chemscore.Hbond>
2.9120

> <Gold.PLP.Chemscore.CHOScore>
0.0000

> <Gold.PLP.Chemscore.Metal>
0.0000

> <Gold.Chemscore.Hbonds>
donor molecule, donor type, donor heavy atom, donor atom, acceptor molecule, acceptor atom, score
      L1  H     7    27       P1  8028  1.00
      L1  H    10    28       P1  8028  1.00
      L1  H    16    33       P1 10175  0.91

> <Gold.PLP.Chemscore.Internal.Correction>
0.0114

> <Gold.Rescore>
     Score         DG    S(hbond)    S(metal)    S(lipo)     H(rot)  DE(clash)    DE(int)     intcor
     17.35     -20.57       2.80        0.00      88.85       1.82       0.13       3.09       ----

> <Gold.Chemscore.Fitness>
17.3497

> <Gold.Chemscore.DG>
-20.5652

> <Gold.Chemscore.ZeroCoef>
-5.4800

> <Gold.Chemscore.Hbond>
2.7978

> <Gold.Chemscore.Metal>
0.0000

> <Gold.Chemscore.Lipo>
88.8506

> <Gold.Chemscore.Internal_Hbond>
0.0000

> <Gold.Chemscore.DEClash>
0.1251

> <Gold.Chemscore.DEInternal>
3.0904

> <Gold.Chemscore.Rot>
1.8184

> <Gold.Chemscore.Internal.Correction>
   9.000000E+99

> <Gold.Chemscore.Hbonds>
donor molecule, donor type, donor heavy atom, donor atom, acceptor molecule, acceptor atom, score
      L1  H     7    27       P1  8028  0.86
      L1  H    10    28       P1  8028  1.00
      L1  H    16    33       P1 10175  0.88

> <Gold.Chemscore.Hbond.Weighted>
-9.3448

> <Gold.Chemscore.Metal.Weighted>
-0.0000

> <Gold.Chemscore.Lipo.Weighted>
-10.3955

> <Gold.Chemscore.Internal_Hbond.Weighted>
0.0000

> <Gold.Chemscore.DEClash.Weighted>
0.1251

> <Gold.Chemscore.DEInternal.Weighted>
3.0904

> <Gold.Chemscore.Rot.Weighted>
4.6551

> <Gold.Chemscore.Internal.Correction.Weighted>
   9.000000E+99

> <Gold.Protein.RotatedTorsions>
[ 6907 6896 6895 6894 ] final  -50.79 input  -60.11 | X-H torsion
[ 7974 7965 7964 7962 ] final -163.66 input  175.53 | X-H torsion
[ 8008 7997 7996 7995 ] final  161.00 input   59.86 | X-H torsion
[ 10167 10162 10161 10158 ] final   49.86 input  -65.29 | X-H torsion
[ 10718 10713 10712 10709 ] final -171.97 input   66.30 | X-H torsion
[ 10763 10752 10751 10750 ] final   72.87 input  -60.55 | X-H torsion
[ 11005 11000 10999 10996 ] final   14.25 input  -57.11 | X-H torsion

> <Gold.Protein.ActiveResidues>
 VAL166  LYS551  ARG553  GLY616  TRP617  ASP618  TYR619  PRO620  LYS621  CYS622 
 ASP623  PHE694  ASN695  SER759  ASP760  ASP761  ALA762  ILE779  LEU786  VAL792 
 PHE793  MET794  SER795  GLU796  ALA797  LYS798  CYS799  TRP800  GLU811  SER814 

> <Gold.Protein.RotatedAtoms>
  150.8673  134.8040  159.7128 H   0  0  0  0  0  0  0  0  0  0  0  0  # atno 6907 bound_to 6896
  152.4690  134.5002  159.9732 H   0  0  0  0  0  0  0  0  0  0  0  0  # atno 6908 bound_to 6896
  151.5096  133.3449  159.2918 H   0  0  0  0  0  0  0  0  0  0  0  0  # atno 6909 bound_to 6896
  144.7319  140.3075  143.6194 H   0  0  0  0  0  0  0  0  0  0  0  0  # atno 7974 bound_to 7965
  156.2133  140.1789  156.7645 H   0  0  0  0  0  0  0  0  0  0  0  0  # atno 8008 bound_to 7997
  154.5754  140.0675  156.9056 H   0  0  0  0  0  0  0  0  0  0  0  0  # atno 8009 bound_to 7997
  155.2597  140.3335  155.4277 H   0  0  0  0  0  0  0  0  0  0  0  0  # atno 8010 bound_to 7997
  140.2784  144.3185  150.6271 H   0  0  0  0  0  0  0  0  0  0  0  0  # atno 10167 bound_to 10162
  156.7486  130.9369  151.3113 H   0  0  0  0  0  0  0  0  0  0  0  0  # atno 10718 bound_to 10713
  153.0486  135.5084  154.7809 H   0  0  0  0  0  0  0  0  0  0  0  0  # atno 10763 bound_to 10752
  154.6689  135.2950  154.9770 H   0  0  0  0  0  0  0  0  0  0  0  0  # atno 10764 bound_to 10752
  154.0596  135.6693  153.4863 H   0  0  0  0  0  0  0  0  0  0  0  0  # atno 10765 bound_to 10752
  140.4716  134.1025  155.7734 H   0  0  0  0  0  0  0  0  0  0  0  0  # atno 11005 bound_to 11000
  145.7698  139.1853  143.2219 LP  0  0  0  0  0  0  0  0  0  0  0  0  # atno 17320 bound_to 7965
  146.0920  140.7645  142.9591 LP  0  0  0  0  0  0  0  0  0  0  0  0  # atno 17321 bound_to 7965
  140.5832  143.2171  151.7390 LP  0  0  0  0  0  0  0  0  0  0  0  0  # atno 17342 bound_to 10162
  139.4969  144.4050  152.0142 LP  0  0  0  0  0  0  0  0  0  0  0  0  # atno 17343 bound_to 10162
  157.6787  130.9119  150.0213 LP  0  0  0  0  0  0  0  0  0  0  0  0  # atno 17370 bound_to 10713
  156.1416  130.3642  149.9573 LP  0  0  0  0  0  0  0  0  0  0  0  0  # atno 17371 bound_to 10713
  141.1574  133.8857  157.1940 LP  0  0  0  0  0  0  0  0  0  0  0  0  # atno 17394 bound_to 11000
  139.9882  135.0074  156.9912 LP  0  0  0  0  0  0  0  0  0  0  0  0  # atno 17395 bound_to 11000

$$$$
