AV-unprocessed.smi:1142|AV-procd|sdf|4873|dock2
  -GOLD-   22720 3443D 1   1.00000     0.00000
 Structure written by MMmdl.
 33 34  0  0  0  0  0  0  0  0  1 V2000
  153.1272  136.6831  162.7719 C   0  0  0  0  0  0  0  0  0  0  0  0
  153.7322  137.4982  162.0932 C   0  0  0  0  0  0  0  0  0  0  0  0
  154.4558  138.4752  161.2625 C   0  0  0  0  0  0  0  0  0  0  0  0
  153.8131  139.7840  161.2495 N   0  0  0  0  0  0  0  0  0  0  0  0
  153.4018  140.4377  160.1500 C   0  0  0  0  0  0  0  0  0  0  0  0
  153.5143  139.9888  159.0088 O   0  0  0  0  0  0  0  0  0  0  0  0
  152.7443  141.7684  160.4081 C   0  0  0  0  0  0  0  0  0  0  0  0
  153.0691  142.4833  161.5844 C   0  0  0  0  0  0  0  0  0  0  0  0
  152.4969  143.7473  161.8108 C   0  0  0  0  0  0  0  0  0  0  0  0
  151.6194  144.2619  160.8418 C   0  0  0  0  0  0  0  0  0  0  0  0
  151.2985  143.5992  159.7129 N   0  0  0  0  0  0  0  0  0  0  0  0
  151.8409  142.3767  159.4855 C   0  0  0  0  0  0  0  0  0  0  0  0
  151.4311  141.7168  158.3087 N   0  0  0  0  0  0  0  0  0  0  0  0
  150.7172  142.5035  157.3076 C   0  0  0  0  0  0  0  0  0  0  0  0
  150.5774  141.6914  156.0086 C   0  0  0  0  0  0  0  0  0  0  0  0
  149.9353  140.4501  156.2874 O   0  0  0  0  0  0  0  0  0  0  0  0
  150.6780  139.6575  157.2098 C   0  0  0  0  0  0  0  0  0  0  0  0
  150.8229  140.4123  158.5421 C   0  0  0  0  0  0  0  0  0  0  0  0
  152.5961  135.9722  163.3643 H   0  0  0  0  0  0  0  0  0  0  0  0
  155.4863  138.5391  161.6157 H   0  0  0  0  0  0  0  0  0  0  0  0
  154.4901  138.0895  160.2436 H   0  0  0  0  0  0  0  0  0  0  0  0
  153.6667  140.2268  162.1449 H   0  0  0  0  0  0  0  0  0  0  0  0
  153.7602  142.0769  162.3089 H   0  0  0  0  0  0  0  0  0  0  0  0
  152.7315  144.3114  162.7014 H   0  0  0  0  0  0  0  0  0  0  0  0
  151.1621  145.2311  160.9760 H   0  0  0  0  0  0  0  0  0  0  0  0
  149.7281  142.7691  157.6834 H   0  0  0  0  0  0  0  0  0  0  0  0
  151.2539  143.4327  157.1131 H   0  0  0  0  0  0  0  0  0  0  0  0
  149.9828  142.2444  155.2814 H   0  0  0  0  0  0  0  0  0  0  0  0
  151.5535  141.5137  155.5542 H   0  0  0  0  0  0  0  0  0  0  0  0
  150.1572  138.7132  157.3676 H   0  0  0  0  0  0  0  0  0  0  0  0
  151.6574  139.4162  156.7925 H   0  0  0  0  0  0  0  0  0  0  0  0
  151.4194  139.8230  159.2386 H   0  0  0  0  0  0  0  0  0  0  0  0
  149.8434  140.5522  159.0015 H   0  0  0  0  0  0  0  0  0  0  0  0
  1  2  3  0  0  0  0
  1 19  1  0  0  0  0
  2  3  1  0  0  0  0
  3  4  1  0  0  0  0
  3 20  1  0  0  0  0
  3 21  1  0  0  0  0
  4  5  1  0  0  0  0
  4 22  1  0  0  0  0
  5  6  2  0  0  0  0
  5  7  1  0  0  0  0
  7 12  1  0  0  0  0
  7  8  2  0  0  0  0
  8  9  1  0  0  0  0
  8 23  1  0  0  0  0
  9 10  2  0  0  0  0
  9 24  1  0  0  0  0
 10 11  1  0  0  0  0
 10 25  1  0  0  0  0
 11 12  2  0  0  0  0
 12 13  1  0  0  0  0
 13 18  1  0  0  0  0
 13 14  1  0  0  0  0
 14 15  1  0  0  0  0
 14 26  1  0  0  0  0
 14 27  1  0  0  0  0
 15 16  1  0  0  0  0
 15 28  1  0  0  0  0
 15 29  1  0  0  0  0
 16 17  1  0  0  0  0
 17 18  1  0  0  0  0
 17 30  1  0  0  0  0
 17 31  1  0  0  0  0
 18 32  1  0  0  0  0
 18 33  1  0  0  0  0
M  END
> <s_m_source_file>
AV-unprocessed.smi

> <i_m_source_file_index>
1142

> <i_lp_mmshare_version>
43012

> <i_f3d_flags>
0

> <s_epik_input>
W0NIXSNDW0NIMl1bTkhdQyg9TyljMVtjSF1bY0hdW2NIXW5jMU4yW0NIMl1bQ0gyXU9bQ0gyXVtDSDJdMg==

> <s_epik_cmdline>
J2VwaWtfcHl0aG9uJywgJy1waCcsICc3LjAnLCAnLXRuJywgJzgnLCAnLW1hJywgJzIwMCcsICctbWV0YWxfYmluZGluZycsICctaW1hZScsICc8aW5maWxlLm1hZT4nLCAnLW9tYWUnLCAnPG91dGZpbGUubWFlPic=

> <r_lp_tautomer_probability>
1

> <r_epik_Ionization_Penalty>
1.59202e-05

> <r_epik_Ionization_Penalty_Charging>
0

> <r_epik_Ionization_Penalty_Neutral>
1.59202e-05

> <r_epik_State_Penalty>
-0

> <r_epik_Charging_Adjusted_Penalty>
0

> <i_epik_Tot_Q>
0

> <i_epik_Tot_abs_Q>
0

> <r_epik_Metal_State_Penalty>
0.00596736

> <b_epik_Metal_Only>
0

> <s_lp_Force_Field>
OPLS_2005

> <r_lp_Energy>
22.9222

> <b_lp_Chiralities_Consistent>
1

> <s_lp_Variant>
AV-unprocessed.smi:1142-1

> <Gold.Version>
5.8.1

> <Gold.Id.Protein>
6NUR|6NUR_protein|mol2

> <Gold.PLP.Fitness>
40.4056

> <Gold.PLP.PLP>
-38.0941

> <Gold.PLP.part.hbond>
-1.0000

> <Gold.PLP.part.metal>
0.0000

> <Gold.PLP.part.buried>
-5.4321

> <Gold.PLP.part.nonpolar>
-30.2346

> <Gold.PLP.part.repulsive>
0.0211

> <Gold.PLP.ligand.clash>
0.0000

> <Gold.PLP.ligand.torsion>
0.3931

> <Gold.PLP.Chemscore.Hbond>
0.9516

> <Gold.PLP.Chemscore.CHOScore>
0.0000

> <Gold.PLP.Chemscore.Metal>
0.0000

> <Gold.Chemscore.Hbonds>
donor molecule, donor type, donor heavy atom, donor atom, acceptor molecule, acceptor atom, score
      P1  H  7997  8009       L1     6  0.50

> <Gold.PLP.Chemscore.Internal.Correction>
0.2429

> <Gold.Rescore>
     Score         DG    S(hbond)    S(metal)    S(lipo)     H(rot)  DE(clash)    DE(int)     intcor
     12.68     -15.85       0.88        0.00      89.46       1.19       0.02       3.16       ----

> <Gold.Chemscore.Fitness>
12.6789

> <Gold.Chemscore.DG>
-15.8534

> <Gold.Chemscore.ZeroCoef>
-5.4800

> <Gold.Chemscore.Hbond>
0.8832

> <Gold.Chemscore.Metal>
0.0000

> <Gold.Chemscore.Lipo>
89.4579

> <Gold.Chemscore.Internal_Hbond>
0.0000

> <Gold.Chemscore.DEClash>
0.0174

> <Gold.Chemscore.DEInternal>
3.1571

> <Gold.Chemscore.Rot>
1.1887

> <Gold.Chemscore.Internal.Correction>
   9.000000E+99

> <Gold.Chemscore.Hbonds>
donor molecule, donor type, donor heavy atom, donor atom, acceptor molecule, acceptor atom, score
      P1  H  7997  8009       L1     6  0.47

> <Gold.Chemscore.Hbond.Weighted>
-2.9500

> <Gold.Chemscore.Metal.Weighted>
-0.0000

> <Gold.Chemscore.Lipo.Weighted>
-10.4666

> <Gold.Chemscore.Internal_Hbond.Weighted>
0.0000

> <Gold.Chemscore.DEClash.Weighted>
0.0174

> <Gold.Chemscore.DEInternal.Weighted>
3.1571

> <Gold.Chemscore.Rot.Weighted>
3.0432

> <Gold.Chemscore.Internal.Correction.Weighted>
   9.000000E+99

> <Gold.Protein.RotatedTorsions>
[ 6907 6896 6895 6894 ] final  137.23 input  -60.11 | X-H torsion
[ 7974 7965 7964 7962 ] final -117.74 input  175.53 | X-H torsion
[ 8008 7997 7996 7995 ] final  131.74 input   59.86 | X-H torsion
[ 10167 10162 10161 10158 ] final   93.69 input  -65.29 | X-H torsion
[ 10718 10713 10712 10709 ] final  176.99 input   66.30 | X-H torsion
[ 10763 10752 10751 10750 ] final  -52.91 input  -60.55 | X-H torsion
[ 11005 11000 10999 10996 ] final  122.77 input  -57.11 | X-H torsion

> <Gold.Protein.ActiveResidues>
 VAL166  LYS551  ARG553  GLY616  TRP617  ASP618  TYR619  PRO620  LYS621  CYS622 
 ASP623  PHE694  ASN695  SER759  ASP760  ASP761  ALA762  ILE779  LEU786  VAL792 
 PHE793  MET794  SER795  GLU796  ALA797  LYS798  CYS799  TRP800  GLU811  SER814 

> <Gold.Protein.RotatedAtoms>
  152.2804  133.5465  159.5494 H   0  0  0  0  0  0  0  0  0  0  0  0  # atno 6907 bound_to 6896
  150.7194  134.0571  159.3827 H   0  0  0  0  0  0  0  0  0  0  0  0  # atno 6908 bound_to 6896
  151.8482  135.0567  160.0507 H   0  0  0  0  0  0  0  0  0  0  0  0  # atno 6909 bound_to 6896
  145.0818  140.8431  143.4034 H   0  0  0  0  0  0  0  0  0  0  0  0  # atno 7974 bound_to 7965
  156.2974  140.2563  156.2976 H   0  0  0  0  0  0  0  0  0  0  0  0  # atno 8008 bound_to 7997
  154.9449  140.0395  157.2134 H   0  0  0  0  0  0  0  0  0  0  0  0  # atno 8009 bound_to 7997
  154.8091  140.2841  155.5870 H   0  0  0  0  0  0  0  0  0  0  0  0  # atno 8010 bound_to 7997
  139.8156  144.6754  150.9585 H   0  0  0  0  0  0  0  0  0  0  0  0  # atno 10167 bound_to 10162
  156.9119  130.9912  151.3019 H   0  0  0  0  0  0  0  0  0  0  0  0  # atno 10718 bound_to 10713
  154.1503  135.6491  153.4962 H   0  0  0  0  0  0  0  0  0  0  0  0  # atno 10763 bound_to 10752
  153.0139  135.5336  154.6814 H   0  0  0  0  0  0  0  0  0  0  0  0  # atno 10764 bound_to 10752
  154.6100  135.2953  155.0413 H   0  0  0  0  0  0  0  0  0  0  0  0  # atno 10765 bound_to 10752
  139.9283  134.9641  156.8159 H   0  0  0  0  0  0  0  0  0  0  0  0  # atno 11005 bound_to 11000
  145.1169  139.2719  143.5608 LP  0  0  0  0  0  0  0  0  0  0  0  0  # atno 17320 bound_to 7965
  146.3531  140.0782  142.8619 LP  0  0  0  0  0  0  0  0  0  0  0  0  # atno 17321 bound_to 7965
  140.7816  143.4142  151.0944 LP  0  0  0  0  0  0  0  0  0  0  0  0  # atno 17342 bound_to 10162
  139.7806  143.8361  152.3137 LP  0  0  0  0  0  0  0  0  0  0  0  0  # atno 17343 bound_to 10162
  157.5962  130.8479  149.8732 LP  0  0  0  0  0  0  0  0  0  0  0  0  # atno 17370 bound_to 10713
  156.0532  130.3713  150.1153 LP  0  0  0  0  0  0  0  0  0  0  0  0  # atno 17371 bound_to 10713
  140.6274  133.9938  155.7646 LP  0  0  0  0  0  0  0  0  0  0  0  0  # atno 17394 bound_to 11000
  141.0855  133.9997  157.3320 LP  0  0  0  0  0  0  0  0  0  0  0  0  # atno 17395 bound_to 11000

$$$$
