AV-unprocessed.smi:2999|AV-procd|sdf|11418|dock7
  -GOLD-   2272016343D 1   1.00000     0.00000
 Structure written by MMmdl.
 37 39  0  0  0  0  0  0  0  0  1 V2000
  148.8797  132.8432  154.7425 O   0  0  0  0  0  0  0  0  0  0  0  0
  148.7010  133.7560  153.9355 C   0  0  0  0  0  0  0  0  0  0  0  0
  149.3661  134.9195  153.9739 N   0  0  0  0  0  0  0  0  0  0  0  0
  150.4009  135.2726  154.9414 C   0  0  0  0  0  0  0  0  0  0  0  0
  150.9240  136.7051  154.7363 C   0  0  1  0  0  0  0  0  0  0  0  0
  149.8719  137.7960  155.0343 C   0  0  0  0  0  0  0  0  0  0  0  0
  150.4276  139.1382  154.9109 N   0  0  0  0  0  0  0  0  0  0  0  0
  149.4255  140.1479  155.2175 C   0  0  0  0  0  0  0  0  0  0  0  0
  148.8884  141.0172  154.1101 C   0  0  0  0  0  0  0  0  0  0  0  0
  149.8041  141.6055  155.1677 C   0  0  0  0  0  0  0  0  0  0  0  0
  151.5770  139.2544  155.7988 C   0  0  0  0  0  0  0  0  0  0  0  0
  152.6317  138.1757  155.5039 C   0  0  0  0  0  0  0  0  0  0  0  0
  152.0344  136.8875  155.6123 O   0  0  0  0  0  0  0  0  0  0  0  0
  147.8270  133.7313  152.9142 N   0  0  0  0  0  0  0  0  0  0  0  0
  146.9704  132.6717  152.5163 C   0  0  0  0  0  0  0  0  0  0  0  0
  146.6351  131.6375  153.2966 N   0  0  0  0  0  0  0  0  0  0  0  0
  145.7856  130.7414  152.6429 C   0  0  0  0  0  0  0  0  0  0  0  0
  145.4818  131.1116  151.3562 C   0  0  0  0  0  0  0  0  0  0  0  0
  146.2533  132.6108  150.9129 S   0  0  0  0  0  0  0  0  0  0  0  0
  149.1490  135.6126  153.2726 H   0  0  0  0  0  0  0  0  0  0  0  0
  150.0499  135.1370  155.9657 H   0  0  0  0  0  0  0  0  0  0  0  0
  151.2215  134.5672  154.8077 H   0  0  0  0  0  0  0  0  0  0  0  0
  151.2755  136.8088  153.7080 H   0  0  0  0  0  0  0  0  0  0  0  0
  149.0303  137.6916  154.3492 H   0  0  0  0  0  0  0  0  0  0  0  0
  149.4733  137.6504  156.0398 H   0  0  0  0  0  0  0  0  0  0  0  0
  148.7349  139.8249  155.9951 H   0  0  0  0  0  0  0  0  0  0  0  0
  149.2983  140.8803  153.1110 H   0  0  0  0  0  0  0  0  0  0  0  0
  147.8352  141.2872  154.1500 H   0  0  0  0  0  0  0  0  0  0  0  0
  149.3587  142.2646  155.9100 H   0  0  0  0  0  0  0  0  0  0  0  0
  150.8196  141.8576  154.8679 H   0  0  0  0  0  0  0  0  0  0  0  0
  152.0276  140.2420  155.6922 H   0  0  0  0  0  0  0  0  0  0  0  0
  151.2549  139.1689  156.8378 H   0  0  0  0  0  0  0  0  0  0  0  0
  153.0525  138.3074  154.5059 H   0  0  0  0  0  0  0  0  0  0  0  0
  153.4566  138.2473  156.2125 H   0  0  0  0  0  0  0  0  0  0  0  0
  147.7824  134.5617  152.3422 H   0  0  0  0  0  0  0  0  0  0  0  0
  145.4447  129.8621  153.1692 H   0  0  0  0  0  0  0  0  0  0  0  0
  144.8532  130.5956  150.6456 H   0  0  0  0  0  0  0  0  0  0  0  0
  1  2  2  0  0  0  0
  2  3  1  0  0  0  0
  2 14  1  0  0  0  0
  3  4  1  0  0  0  0
  3 20  1  0  0  0  0
  4  5  1  0  0  0  0
  4 21  1  0  0  0  0
  4 22  1  0  0  0  0
  5 13  1  0  0  0  0
  5  6  1  0  0  0  0
  5 23  1  0  0  0  0
  6  7  1  0  0  0  0
  6 24  1  0  0  0  0
  6 25  1  0  0  0  0
  7  8  1  0  0  0  0
  7 11  1  0  0  0  0
  8 10  1  0  0  0  0
  8  9  1  0  0  0  0
  8 26  1  0  0  0  0
  9 10  1  0  0  0  0
  9 27  1  0  0  0  0
  9 28  1  0  0  0  0
 10 29  1  0  0  0  0
 10 30  1  0  0  0  0
 11 12  1  0  0  0  0
 11 31  1  0  0  0  0
 11 32  1  0  0  0  0
 12 13  1  0  0  0  0
 12 33  1  0  0  0  0
 12 34  1  0  0  0  0
 14 15  1  0  0  0  0
 14 35  1  0  0  0  0
 15 19  1  0  0  0  0
 15 16  2  0  0  0  0
 16 17  1  0  0  0  0
 17 18  2  0  0  0  0
 17 36  1  0  0  0  0
 18 19  1  0  0  0  0
 18 37  1  0  0  0  0
M  END
> <s_m_source_file>
AV-unprocessed.smi

> <i_m_source_file_index>
2999

> <i_lp_mmshare_version>
43012

> <i_f3d_flags>
0

> <s_epik_input>
czFbY0hdW2NIXW5jMVtOSF1DKD1PKVtOSF1bQ0gyXVtDQEBIXTJbQ0gyXU4oW0NIMl1bQ0gyXU8yKVtDSF0zW0NIMl1bQ0gyXTM=

> <s_epik_cmdline>
J2VwaWtfcHl0aG9uJywgJy1waCcsICc3LjAnLCAnLXRuJywgJzgnLCAnLW1hJywgJzIwMCcsICctbWV0YWxfYmluZGluZycsICctaW1hZScsICc8aW5maWxlLm1hZT4nLCAnLW9tYWUnLCAnPG91dGZpbGUubWFlPic=

> <r_lp_tautomer_probability>
0.999

> <r_epik_Ionization_Penalty>
0.0449352

> <r_epik_Ionization_Penalty_Charging>
0

> <r_epik_Ionization_Penalty_Neutral>
0.0449352

> <r_epik_State_Penalty>
0.0379856

> <r_epik_Charging_Adjusted_Penalty>
0.0379856

> <i_epik_Tot_Q>
0

> <i_epik_Tot_abs_Q>
0

> <r_epik_Metal_State_Penalty>
0.0775629

> <b_epik_Metal_Only>
0

> <s_lp_Force_Field>
OPLS_2005

> <r_lp_Energy>
30.84

> <b_lp_Chiralities_Consistent>
1

> <s_lp_Variant>
AV-unprocessed.smi:2999-2

> <Gold.Version>
5.8.1

> <Gold.Id.Protein>
6NUR|6NUR_protein|mol2

> <Gold.PLP.Fitness>
39.4147

> <Gold.PLP.PLP>
-30.3177

> <Gold.PLP.part.hbond>
-3.1989

> <Gold.PLP.part.metal>
0.0000

> <Gold.PLP.part.buried>
-1.5608

> <Gold.PLP.part.nonpolar>
-26.9657

> <Gold.PLP.part.repulsive>
0.3275

> <Gold.PLP.ligand.clash>
0.0000

> <Gold.PLP.ligand.torsion>
0.8106

> <Gold.PLP.Chemscore.Hbond>
2.6997

> <Gold.PLP.Chemscore.CHOScore>
0.5101

> <Gold.PLP.Chemscore.Metal>
0.0000

> <Gold.Chemscore.Hbonds>
donor molecule, donor type, donor heavy atom, donor atom, acceptor molecule, acceptor atom, score
      L1  H     3    20       P1  7948  0.98
      L1  H    14    35       P1  7948  0.74
      P1  H 10752 10764       L1    13  0.94
      L1  C    17    36       P1 10956  0.50

> <Gold.PLP.Chemscore.Internal.Correction>
1.0890

> <Gold.Rescore>
     Score         DG    S(hbond)    S(metal)    S(lipo)     H(rot)  DE(clash)    DE(int)     intcor
     12.03     -14.94       1.45        0.00      73.38       1.55       0.92       1.99       ----

> <Gold.Chemscore.Fitness>
12.0288

> <Gold.Chemscore.DG>
-14.9372

> <Gold.Chemscore.ZeroCoef>
-5.4800

> <Gold.Chemscore.Hbond>
1.4463

> <Gold.Chemscore.Metal>
0.0000

> <Gold.Chemscore.Lipo>
73.3758

> <Gold.Chemscore.Internal_Hbond>
0.0000

> <Gold.Chemscore.DEClash>
0.9182

> <Gold.Chemscore.DEInternal>
1.9903

> <Gold.Chemscore.Rot>
1.5463

> <Gold.Chemscore.Internal.Correction>
   9.000000E+99

> <Gold.Chemscore.Hbonds>
donor molecule, donor type, donor heavy atom, donor atom, acceptor molecule, acceptor atom, score
      L1  H     3    20       P1  7948  0.45
      L1  H    14    35       P1  7948  0.42
      P1  H 10752 10764       L1    13  0.21

> <Gold.Chemscore.Hbond.Weighted>
-4.8307

> <Gold.Chemscore.Metal.Weighted>
-0.0000

> <Gold.Chemscore.Lipo.Weighted>
-8.5850

> <Gold.Chemscore.Internal_Hbond.Weighted>
0.0000

> <Gold.Chemscore.DEClash.Weighted>
0.9182

> <Gold.Chemscore.DEInternal.Weighted>
1.9903

> <Gold.Chemscore.Rot.Weighted>
3.9584

> <Gold.Chemscore.Internal.Correction.Weighted>
   9.000000E+99

> <Gold.Protein.RotatedTorsions>
[ 6907 6896 6895 6894 ] final  115.11 input  -60.11 | X-H torsion
[ 7974 7965 7964 7962 ] final -172.83 input  175.53 | X-H torsion
[ 8008 7997 7996 7995 ] final  122.04 input   59.86 | X-H torsion
[ 10167 10162 10161 10158 ] final   70.97 input  -65.29 | X-H torsion
[ 10718 10713 10712 10709 ] final  -64.04 input   66.30 | X-H torsion
[ 10763 10752 10751 10750 ] final  -31.45 input  -60.55 | X-H torsion
[ 11005 11000 10999 10996 ] final -130.22 input  -57.11 | X-H torsion

> <Gold.Protein.ActiveResidues>
 VAL166  LYS551  ARG553  GLY616  TRP617  ASP618  TYR619  PRO620  LYS621  CYS622 
 ASP623  PHE694  ASN695  SER759  ASP760  ASP761  ALA762  ILE779  LEU786  VAL792 
 PHE793  MET794  SER795  GLU796  ALA797  LYS798  CYS799  TRP800  GLU811  SER814 

> <Gold.Protein.RotatedAtoms>
  152.4762  133.8143  159.7019 H   0  0  0  0  0  0  0  0  0  0  0  0  # atno 6907 bound_to 6896
  150.8780  133.7402  159.2947 H   0  0  0  0  0  0  0  0  0  0  0  0  # atno 6908 bound_to 6896
  151.4916  135.1061  159.9857 H   0  0  0  0  0  0  0  0  0  0  0  0  # atno 6909 bound_to 6896
  144.7143  140.1713  143.6367 H   0  0  0  0  0  0  0  0  0  0  0  0  # atno 7974 bound_to 7965
  156.2711  140.2795  156.1403 H   0  0  0  0  0  0  0  0  0  0  0  0  # atno 8008 bound_to 7997
  155.0960  140.0389  157.2700 H   0  0  0  0  0  0  0  0  0  0  0  0  # atno 8009 bound_to 7997
  154.6852  140.2617  155.6874 H   0  0  0  0  0  0  0  0  0  0  0  0  # atno 8010 bound_to 7997
  140.0512  144.5310  150.7362 H   0  0  0  0  0  0  0  0  0  0  0  0  # atno 10167 bound_to 10162
  156.0753  130.4228  150.1364 H   0  0  0  0  0  0  0  0  0  0  0  0  # atno 10718 bound_to 10713
  153.7975  135.6893  153.4861 H   0  0  0  0  0  0  0  0  0  0  0  0  # atno 10763 bound_to 10752
  153.1710  135.4543  154.9900 H   0  0  0  0  0  0  0  0  0  0  0  0  # atno 10764 bound_to 10752
  154.8020  135.3341  154.7466 H   0  0  0  0  0  0  0  0  0  0  0  0  # atno 10765 bound_to 10752
  140.9364  134.1251  157.4189 H   0  0  0  0  0  0  0  0  0  0  0  0  # atno 11005 bound_to 11000
  145.8941  139.2392  143.1532 LP  0  0  0  0  0  0  0  0  0  0  0  0  # atno 17320 bound_to 7965
  145.9875  140.8631  143.0083 LP  0  0  0  0  0  0  0  0  0  0  0  0  # atno 17321 bound_to 7965
  140.7216  143.2594  151.4261 LP  0  0  0  0  0  0  0  0  0  0  0  0  # atno 17342 bound_to 10162
  139.5952  144.1413  152.2135 LP  0  0  0  0  0  0  0  0  0  0  0  0  # atno 17343 bound_to 10162
  156.9406  130.9743  151.3517 LP  0  0  0  0  0  0  0  0  0  0  0  0  # atno 17370 bound_to 10713
  157.5845  130.8400  149.8570 LP  0  0  0  0  0  0  0  0  0  0  0  0  # atno 17371 bound_to 10713
  139.8809  135.0022  156.6114 LP  0  0  0  0  0  0  0  0  0  0  0  0  # atno 17394 bound_to 11000
  140.7793  133.8673  155.8554 LP  0  0  0  0  0  0  0  0  0  0  0  0  # atno 17395 bound_to 11000

$$$$
