AV-unprocessed.smi:53|AV-procd|sdf|523|dock1
  -GOLD-   2262016393D 1   1.00000     0.00000
 Structure written by MMmdl.
 30 31  0  0  0  0  0  0  0  0  1 V2000
  152.8469  141.2359  159.0844 N   0  0  0  0  0  0  0  0  0  0  0  0
  152.1457  141.1242  157.9476 C   0  0  0  0  0  0  0  0  0  0  0  0
  151.0903  142.0633  157.6449 C   0  0  0  0  0  0  0  0  0  0  0  0
  150.4250  141.8819  156.4827 C   0  0  0  0  0  0  0  0  0  0  0  0
  150.7178  140.8349  155.6150 N   0  0  0  0  0  0  0  0  0  0  0  0
  149.9875  140.6337  154.2971 C   0  0  2  0  0  0  0  0  0  0  0  0
  149.1222  141.7081  154.0723 O   0  0  0  0  0  0  0  0  0  0  0  0
  147.8083  141.3629  154.4995 C   0  0  1  0  0  0  0  0  0  0  0  0
  146.7604  142.3285  153.9201 C   0  0  0  0  0  0  0  0  0  0  0  0
  145.4693  141.9494  154.3477 O   0  0  0  0  0  0  0  0  0  0  0  0
  147.7030  139.9066  154.0378 C   0  0  1  0  0  0  0  0  0  0  0  0
  147.3798  139.8437  152.6577 O   0  0  0  0  0  0  0  0  0  0  0  0
  149.1006  139.3673  154.3427 C   0  0  1  0  0  0  0  0  0  0  0  0
  149.5058  138.3596  153.4342 O   0  0  0  0  0  0  0  0  0  0  0  0
  151.7785  139.9503  155.9293 C   0  0  0  0  0  0  0  0  0  0  0  0
  152.1023  139.0349  155.1732 O   0  0  0  0  0  0  0  0  0  0  0  0
  152.4390  140.1476  157.1117 N   0  0  0  0  0  0  0  0  0  0  0  0
  150.7666  140.6231  153.5320 H   0  0  0  0  0  0  0  0  0  0  0  0
  147.7629  141.3760  155.5903 H   0  0  0  0  0  0  0  0  0  0  0  0
  146.9358  139.3625  154.5897 H   0  0  0  0  0  0  0  0  0  0  0  0
  149.1071  138.9565  155.3534 H   0  0  0  0  0  0  0  0  0  0  0  0
  153.5862  140.5801  159.2916 H   0  0  0  0  0  0  0  0  0  0  0  0
  152.6349  141.9810  159.7322 H   0  0  0  0  0  0  0  0  0  0  0  0
  150.8199  142.8831  158.2949 H   0  0  0  0  0  0  0  0  0  0  0  0
  149.6444  142.5918  156.2550 H   0  0  0  0  0  0  0  0  0  0  0  0
  146.9663  143.3605  154.2068 H   0  0  0  0  0  0  0  0  0  0  0  0
  146.7703  142.2841  152.8306 H   0  0  0  0  0  0  0  0  0  0  0  0
  145.0920  141.3805  153.6939 H   0  0  0  0  0  0  0  0  0  0  0  0
  148.1730  139.6604  152.1774 H   0  0  0  0  0  0  0  0  0  0  0  0
  149.4067  138.6962  152.5560 H   0  0  0  0  0  0  0  0  0  0  0  0
  1  2  1  0  0  0  0
  1 22  1  0  0  0  0
  1 23  1  0  0  0  0
  2 17  2  0  0  0  0
  2  3  1  0  0  0  0
  3  4  2  0  0  0  0
  3 24  1  0  0  0  0
  4  5  1  0  0  0  0
  4 25  1  0  0  0  0
  5  6  1  0  0  0  0
  5 15  1  0  0  0  0
  6 18  1  0  0  0  0
  6 13  1  0  0  0  0
  6  7  1  0  0  0  0
  7  8  1  0  0  0  0
  8 19  1  0  0  0  0
  8  9  1  0  0  0  0
  8 11  1  0  0  0  0
  9 10  1  0  0  0  0
  9 26  1  0  0  0  0
  9 27  1  0  0  0  0
 10 28  1  0  0  0  0
 11 20  1  0  0  0  0
 11 12  1  0  0  0  0
 11 13  1  0  0  0  0
 12 29  1  0  0  0  0
 13 21  1  0  0  0  0
 13 14  1  0  0  0  0
 14 30  1  0  0  0  0
 15 16  2  0  0  0  0
 15 17  1  0  0  0  0
M  END
> <s_m_source_file>
AV-unprocessed.smi

> <i_m_source_file_index>
53

> <i_lp_mmshare_version>
43012

> <i_f3d_flags>
0

> <s_epik_input>
W05IMl1jMVtjSF1bY0hdbihjKD1PKW4xKVtDQEBIXTJPW0NASF0oW0NIMl1bT0hdKVtDQEBIXShbT0hdKVtDQEBIXTJbT0hd

> <s_epik_cmdline>
J2VwaWtfcHl0aG9uJywgJy1waCcsICc3LjAnLCAnLXRuJywgJzgnLCAnLW1hJywgJzIwMCcsICctbWV0YWxfYmluZGluZycsICctaW1hZScsICc8aW5maWxlLm1hZT4nLCAnLW9tYWUnLCAnPG91dGZpbGUubWFlPic=

> <r_lp_tautomer_probability>
0.99996

> <r_epik_Ionization_Penalty>
0.00069087

> <r_epik_Ionization_Penalty_Charging>
2.61959e-08

> <r_epik_Ionization_Penalty_Neutral>
0.000690844

> <r_epik_State_Penalty>
1.15523e-05

> <r_epik_Charging_Adjusted_Penalty>
1.15785e-05

> <i_epik_Tot_Q>
0

> <i_epik_Tot_abs_Q>
0

> <r_epik_Metal_State_Penalty>
-0

> <b_epik_Metal_Only>
0

> <s_epik_Chemistry_Notes>
This compound contains an acetal/aminal-like group ( X-CH(R)-Y where X, Y are N, S, or O) that may be acid/base labile, releasing an aldehyde.

> <s_lp_Force_Field>
OPLS_2005

> <r_lp_Energy>
34.1794

> <b_lp_Chiralities_Consistent>
1

> <s_lp_Variant>
AV-unprocessed.smi:53-11

> <Gold.Version>
5.8.1

> <Gold.Id.Protein>
6NUR|6NUR_protein|mol2

> <Gold.PLP.Fitness>
47.4265

> <Gold.PLP.PLP>
-31.0681

> <Gold.PLP.part.hbond>
-6.4847

> <Gold.PLP.part.metal>
0.0000

> <Gold.PLP.part.buried>
-1.6925

> <Gold.PLP.part.nonpolar>
-22.3148

> <Gold.PLP.part.repulsive>
0.3022

> <Gold.PLP.ligand.clash>
0.0000

> <Gold.PLP.ligand.torsion>
0.1595

> <Gold.PLP.Chemscore.Hbond>
4.5513

> <Gold.PLP.Chemscore.CHOScore>
1.0000

> <Gold.PLP.Chemscore.Metal>
0.0000

> <Gold.Chemscore.Hbonds>
donor molecule, donor type, donor heavy atom, donor atom, acceptor molecule, acceptor atom, score
      L1  H    10    28       P1 10175  0.96
      L1  H    12    29       P1  7957  1.00
      L1  H    14    30       P1  7957  1.00
      P1  H  7997  8008       L1    17  1.00
      P1  H  8011  8017       L1     7  0.56
      L1  C     4    25       P1  8028  1.00

> <Gold.PLP.Chemscore.Internal.Correction>
0.0236

> <Gold.Rescore>
     Score         DG    S(hbond)    S(metal)    S(lipo)     H(rot)  DE(clash)    DE(int)     intcor
      9.45     -10.96       3.16        0.00      37.74       3.71       1.32       0.19       ----

> <Gold.Chemscore.Fitness>
9.4460

> <Gold.Chemscore.DG>
-10.9599

> <Gold.Chemscore.ZeroCoef>
-5.4800

> <Gold.Chemscore.Hbond>
3.1618

> <Gold.Chemscore.Metal>
0.0000

> <Gold.Chemscore.Lipo>
37.7409

> <Gold.Chemscore.Internal_Hbond>
0.0000

> <Gold.Chemscore.DEClash>
1.3247

> <Gold.Chemscore.DEInternal>
0.1892

> <Gold.Chemscore.Rot>
3.7095

> <Gold.Chemscore.Internal.Correction>
   9.000000E+99

> <Gold.Chemscore.Hbonds>
donor molecule, donor type, donor heavy atom, donor atom, acceptor molecule, acceptor atom, score
      L1  H    10    28       P1 10175  0.27
      L1  H    12    29       P1  7957  0.99
      L1  H    14    30       P1  7957  0.76
      P1  H  7997  8008       L1    17  0.25
      P1  H  8011  8017       L1     7  0.19

> <Gold.Chemscore.Hbond.Weighted>
-10.5606

> <Gold.Chemscore.Metal.Weighted>
-0.0000

> <Gold.Chemscore.Lipo.Weighted>
-4.4157

> <Gold.Chemscore.Internal_Hbond.Weighted>
0.0000

> <Gold.Chemscore.DEClash.Weighted>
1.3247

> <Gold.Chemscore.DEInternal.Weighted>
0.1892

> <Gold.Chemscore.Rot.Weighted>
9.4964

> <Gold.Chemscore.Internal.Correction.Weighted>
   9.000000E+99

> <Gold.Protein.RotatedTorsions>
[ 6907 6896 6895 6894 ] final    9.95 input  -60.11 | X-H torsion
[ 7974 7965 7964 7962 ] final   54.94 input  175.53 | X-H torsion
[ 8008 7997 7996 7995 ] final  -49.90 input   59.86 | X-H torsion
[ 10167 10162 10161 10158 ] final -148.93 input  -65.29 | X-H torsion
[ 10718 10713 10712 10709 ] final   58.25 input   66.30 | X-H torsion
[ 10763 10752 10751 10750 ] final  169.41 input  -60.55 | X-H torsion
[ 11005 11000 10999 10996 ] final -132.34 input  -57.11 | X-H torsion

> <Gold.Protein.ActiveResidues>
 VAL166  LYS551  ARG553  GLY616  TRP617  ASP618  TYR619  PRO620  LYS621  CYS622 
 ASP623  PHE694  ASN695  SER759  ASP760  ASP761  ALA762  ILE779  LEU786  VAL792 
 PHE793  MET794  SER795  GLU796  ALA797  LYS798  CYS799  TRP800  GLU811  SER814 

> <Gold.Protein.RotatedAtoms>
  151.7304  135.0876  160.0298 H   0  0  0  0  0  0  0  0  0  0  0  0  # atno 6907 bound_to 6896
  152.3545  133.6215  159.5977 H   0  0  0  0  0  0  0  0  0  0  0  0  # atno 6908 bound_to 6896
  150.7562  133.9438  159.3506 H   0  0  0  0  0  0  0  0  0  0  0  0  # atno 6909 bound_to 6896
  145.9556  139.4012  143.0279 H   0  0  0  0  0  0  0  0  0  0  0  0  # atno 7974 bound_to 7965
  154.4052  140.1285  156.4579 H   0  0  0  0  0  0  0  0  0  0  0  0  # atno 8008 bound_to 7997
  155.7302  140.3491  155.5036 H   0  0  0  0  0  0  0  0  0  0  0  0  # atno 8009 bound_to 7997
  155.9134  140.1040  157.1252 H   0  0  0  0  0  0  0  0  0  0  0  0  # atno 8010 bound_to 7997
  139.7487  143.8551  152.2581 H   0  0  0  0  0  0  0  0  0  0  0  0  # atno 10167 bound_to 10162
  157.5581  130.8815  149.9068 H   0  0  0  0  0  0  0  0  0  0  0  0  # atno 10718 bound_to 10713
  154.3827  135.2753  155.2202 H   0  0  0  0  0  0  0  0  0  0  0  0  # atno 10763 bound_to 10752
  154.4301  135.5979  153.6067 H   0  0  0  0  0  0  0  0  0  0  0  0  # atno 10764 bound_to 10752
  152.9834  135.5993  154.4072 H   0  0  0  0  0  0  0  0  0  0  0  0  # atno 10765 bound_to 10752
  140.9179  134.1483  157.4338 H   0  0  0  0  0  0  0  0  0  0  0  0  # atno 11005 bound_to 11000
  145.8111  140.9725  143.0948 LP  0  0  0  0  0  0  0  0  0  0  0  0  # atno 17320 bound_to 7965
  144.6804  139.9922  143.7484 LP  0  0  0  0  0  0  0  0  0  0  0  0  # atno 17321 bound_to 7965
  139.8523  144.7158  150.9199 LP  0  0  0  0  0  0  0  0  0  0  0  0  # atno 17342 bound_to 10162
  140.7795  143.3889  151.1345 LP  0  0  0  0  0  0  0  0  0  0  0  0  # atno 17343 bound_to 10162
  156.0637  130.3695  150.0925 LP  0  0  0  0  0  0  0  0  0  0  0  0  # atno 17370 bound_to 10713
  156.9091  130.9646  151.3565 LP  0  0  0  0  0  0  0  0  0  0  0  0  # atno 17371 bound_to 10713
  139.8769  134.9960  156.5774 LP  0  0  0  0  0  0  0  0  0  0  0  0  # atno 17394 bound_to 11000
  140.8026  133.8493  155.8740 LP  0  0  0  0  0  0  0  0  0  0  0  0  # atno 17395 bound_to 11000

$$$$
