AV-unprocessed.smi:1235|AV-procd|sdf|5176|dock5
  -GOLD-   22720 4253D 1   1.00000     0.00000
 Structure written by MMmdl.
 50 51  0  0  0  0  0  0  0  0  2 V2000
  149.5308  142.6932  160.0578 C   0  0  0  0  0  0  0  0  0  0  0  0
  150.4998  142.0501  159.2484 O   0  0  0  0  0  0  0  0  0  0  0  0
  149.9313  141.0709  158.3956 C   0  0  0  0  0  0  0  0  0  0  0  0
  150.9506  139.9403  158.1894 C   0  0  0  0  0  0  0  0  0  0  0  0
  150.9255  139.4366  156.8127 N   0  0  0  0  0  0  0  0  0  0  0  0
  149.7412  139.6900  156.1414 N   0  0  0  0  0  0  0  0  0  0  0  0
  149.5893  139.2959  154.9183 C   0  0  0  0  0  0  0  0  0  0  0  0
  148.3311  139.5522  154.1630 C   0  0  0  0  0  0  0  0  0  0  0  0
  147.6067  140.5178  154.4088 O   0  0  0  0  0  0  0  0  0  0  0  0
  148.0465  138.6580  153.2007 N   0  0  0  0  0  0  0  0  0  0  0  0
  146.8691  138.7064  152.3458 C   0  0  0  0  0  0  0  0  0  0  0  0
  146.0914  137.3826  152.4382 C   0  0  0  0  0  0  0  0  0  0  0  0
  146.7016  136.2776  151.6500 N   0  3  1  0  0  0  0  0  0  0  0  0
  146.9117  135.0585  152.4774 C   0  0  0  0  0  0  0  0  0  0  0  0
  147.7351  134.0017  151.7244 C   0  0  0  0  0  0  0  0  0  0  0  0
  147.0795  133.6446  150.3864 C   0  0  0  0  0  0  0  0  0  0  0  0
  146.8583  134.9185  149.5597 C   0  0  0  0  0  0  0  0  0  0  0  0
  146.0524  135.9847  150.3325 C   0  0  1  0  0  0  0  0  0  0  0  0
  144.5572  135.6164  150.4458 C   0  0  0  0  0  0  0  0  0  0  0  0
  150.6507  138.5817  154.2294 C   0  0  0  0  0  0  0  0  0  0  0  0
  151.7980  138.3363  154.8994 C   0  0  0  0  0  0  0  0  0  0  0  0
  151.9948  138.7687  156.2842 C   0  0  0  0  0  0  0  0  0  0  0  0
  153.0266  138.5494  156.9179 O   0  0  0  0  0  0  0  0  0  0  0  0
  150.0163  143.4381  160.6886 H   0  0  0  0  0  0  0  0  0  0  0  0
  149.0240  141.9795  160.7086 H   0  0  0  0  0  0  0  0  0  0  0  0
  148.7838  143.2039  159.4488 H   0  0  0  0  0  0  0  0  0  0  0  0
  149.0137  140.6797  158.8380 H   0  0  0  0  0  0  0  0  0  0  0  0
  149.6701  141.5206  157.4361 H   0  0  0  0  0  0  0  0  0  0  0  0
  151.9501  140.3064  158.4317 H   0  0  0  0  0  0  0  0  0  0  0  0
  150.7600  139.1306  158.8960 H   0  0  0  0  0  0  0  0  0  0  0  0
  148.6906  137.8925  153.0606 H   0  0  0  0  0  0  0  0  0  0  0  0
  146.2570  139.5484  152.6689 H   0  0  0  0  0  0  0  0  0  0  0  0
  147.1676  138.8941  151.3129 H   0  0  0  0  0  0  0  0  0  0  0  0
  146.0710  137.0817  153.4867 H   0  0  0  0  0  0  0  0  0  0  0  0
  145.0499  137.5249  152.1490 H   0  0  0  0  0  0  0  0  0  0  0  0
  147.4395  135.3246  153.3939 H   0  0  0  0  0  0  0  0  0  0  0  0
  145.9508  134.6438  152.7838 H   0  0  0  0  0  0  0  0  0  0  0  0
  148.7434  134.3792  151.5493 H   0  0  0  0  0  0  0  0  0  0  0  0
  147.8424  133.1063  152.3374 H   0  0  0  0  0  0  0  0  0  0  0  0
  147.7075  132.9441  149.8352 H   0  0  0  0  0  0  0  0  0  0  0  0
  146.1296  133.1380  150.5603 H   0  0  0  0  0  0  0  0  0  0  0  0
  147.8288  135.3346  149.2855 H   0  0  0  0  0  0  0  0  0  0  0  0
  146.3606  134.6732  148.6209 H   0  0  0  0  0  0  0  0  0  0  0  0
  146.1093  136.8879  149.7264 H   0  0  0  0  0  0  0  0  0  0  0  0
  144.1421  135.3916  149.4630 H   0  0  0  0  0  0  0  0  0  0  0  0
  143.9670  136.4375  150.8516 H   0  0  0  0  0  0  0  0  0  0  0  0
  144.3904  134.7422  151.0743 H   0  0  0  0  0  0  0  0  0  0  0  0
  150.5328  138.2505  153.2077 H   0  0  0  0  0  0  0  0  0  0  0  0
  152.5955  137.8054  154.4003 H   0  0  0  0  0  0  0  0  0  0  0  0
  147.6313  136.5990  151.4203 H   0  0  0  0  0  0  0  0  0  0  0  0
  1  2  1  0  0  0  0
  1 24  1  0  0  0  0
  1 25  1  0  0  0  0
  1 26  1  0  0  0  0
  2  3  1  0  0  0  0
  3  4  1  0  0  0  0
  3 27  1  0  0  0  0
  3 28  1  0  0  0  0
  4  5  1  0  0  0  0
  4 29  1  0  0  0  0
  4 30  1  0  0  0  0
  5 22  1  0  0  0  0
  5  6  1  0  0  0  0
  6  7  2  0  0  0  0
  7  8  1  0  0  0  0
  7 20  1  0  0  0  0
  8  9  2  0  0  0  0
  8 10  1  0  0  0  0
 10 11  1  0  0  0  0
 10 31  1  0  0  0  0
 11 12  1  0  0  0  0
 11 32  1  0  0  0  0
 11 33  1  0  0  0  0
 12 13  1  0  0  0  0
 12 34  1  0  0  0  0
 12 35  1  0  0  0  0
 13 18  1  0  0  0  0
 13 14  1  0  0  0  0
 13 50  1  0  0  0  0
 14 15  1  0  0  0  0
 14 36  1  0  0  0  0
 14 37  1  0  0  0  0
 15 16  1  0  0  0  0
 15 38  1  0  0  0  0
 15 39  1  0  0  0  0
 16 17  1  0  0  0  0
 16 40  1  0  0  0  0
 16 41  1  0  0  0  0
 17 18  1  0  0  0  0
 17 42  1  0  0  0  0
 17 43  1  0  0  0  0
 18 19  1  0  0  0  0
 18 44  1  0  0  0  0
 19 45  1  0  0  0  0
 19 46  1  0  0  0  0
 19 47  1  0  0  0  0
 20 21  2  0  0  0  0
 20 48  1  0  0  0  0
 21 22  1  0  0  0  0
 21 49  1  0  0  0  0
 22 23  2  0  0  0  0
M  CHG  1  13   1
M  END
> <s_m_source_file>
AV-unprocessed.smi

> <i_m_source_file_index>
1235

> <i_lp_mmshare_version>
43012

> <i_f3d_flags>
0

> <s_epik_input>
W0NIM11PW0NIMl1bQ0gyXW4xbmMoW2NIXVtjSF1jMT1PKUMoPU8pW05IXVtDSDJdW0NIMl1OMltDSDJdW0NIMl1bQ0gyXVtDSDJdW0NASF0yW0NIM10=

> <s_epik_cmdline>
J2VwaWtfcHl0aG9uJywgJy1waCcsICc3LjAnLCAnLXRuJywgJzgnLCAnLW1hJywgJzIwMCcsICctbWV0YWxfYmluZGluZycsICctaW1hZScsICc8aW5maWxlLm1hZT4nLCAnLW9tYWUnLCAnPG91dGZpbGUubWFlPic=

> <r_lp_tautomer_probability>
1

> <r_epik_Ionization_Penalty>
0.00271975

> <r_epik_Ionization_Penalty_Charging>
0.00271407

> <r_epik_Ionization_Penalty_Neutral>
5.6803e-06

> <r_epik_State_Penalty>
0.00189271

> <r_epik_Charging_Adjusted_Penalty>
0.00460678

> <i_epik_Tot_Q>
1

> <i_epik_Tot_abs_Q>
1

> <r_epik_Metal_State_Penalty>
-0

> <b_epik_Metal_Only>
0

> <s_lp_Force_Field>
OPLS_2005

> <r_lp_Energy>
41.7034

> <b_lp_Chiralities_Consistent>
1

> <s_lp_Variant>
AV-unprocessed.smi:1235-2

> <Gold.Version>
5.8.1

> <Gold.Id.Protein>
6NUR|6NUR_protein|mol2

> <Gold.PLP.Fitness>
50.1877

> <Gold.PLP.PLP>
-42.8895

> <Gold.PLP.part.hbond>
-4.0000

> <Gold.PLP.part.metal>
0.0000

> <Gold.PLP.part.buried>
-3.3111

> <Gold.PLP.part.nonpolar>
-36.1246

> <Gold.PLP.part.repulsive>
0.4883

> <Gold.PLP.ligand.clash>
0.0000

> <Gold.PLP.ligand.torsion>
1.8548

> <Gold.PLP.Chemscore.Hbond>
3.6339

> <Gold.PLP.Chemscore.CHOScore>
0.0000

> <Gold.PLP.Chemscore.Metal>
0.0000

> <Gold.Chemscore.Hbonds>
donor molecule, donor type, donor heavy atom, donor atom, acceptor molecule, acceptor atom, score
      L1  H    10    31       P1  7948  0.78
      L1  H    13    50       P1  7948  0.94
      P1  H  7997  8008       L1    23  0.81

> <Gold.PLP.Chemscore.Internal.Correction>
0.1063

> <Gold.Rescore>
     Score         DG    S(hbond)    S(metal)    S(lipo)     H(rot)  DE(clash)    DE(int)     intcor
     14.68     -16.58       1.93        0.00      83.60       2.00       0.20       1.70       ----

> <Gold.Chemscore.Fitness>
14.6759

> <Gold.Chemscore.DG>
-16.5755

> <Gold.Chemscore.ZeroCoef>
-5.4800

> <Gold.Chemscore.Hbond>
1.9280

> <Gold.Chemscore.Metal>
0.0000

> <Gold.Chemscore.Lipo>
83.6008

> <Gold.Chemscore.Internal_Hbond>
0.0000

> <Gold.Chemscore.DEClash>
0.1951

> <Gold.Chemscore.DEInternal>
1.7045

> <Gold.Chemscore.Rot>
2.0020

> <Gold.Chemscore.Internal.Correction>
   9.000000E+99

> <Gold.Chemscore.Hbonds>
donor molecule, donor type, donor heavy atom, donor atom, acceptor molecule, acceptor atom, score
      L1  H    10    31       P1  7948  0.74
      L1  H    13    50       P1  7948  0.47
      P1  H  7997  8008       L1    23  0.42

> <Gold.Chemscore.Hbond.Weighted>
-6.4394

> <Gold.Chemscore.Metal.Weighted>
-0.0000

> <Gold.Chemscore.Lipo.Weighted>
-9.7813

> <Gold.Chemscore.Internal_Hbond.Weighted>
0.0000

> <Gold.Chemscore.DEClash.Weighted>
0.1951

> <Gold.Chemscore.DEInternal.Weighted>
1.7045

> <Gold.Chemscore.Rot.Weighted>
5.1252

> <Gold.Chemscore.Internal.Correction.Weighted>
   9.000000E+99

> <Gold.Protein.RotatedTorsions>
[ 6907 6896 6895 6894 ] final  -82.42 input  -60.11 | X-H torsion
[ 7974 7965 7964 7962 ] final   36.70 input  175.53 | X-H torsion
[ 8008 7997 7996 7995 ] final  -45.38 input   59.86 | X-H torsion
[ 10167 10162 10161 10158 ] final -103.42 input  -65.29 | X-H torsion
[ 10718 10713 10712 10709 ] final   48.91 input   66.30 | X-H torsion
[ 10763 10752 10751 10750 ] final  133.12 input  -60.55 | X-H torsion
[ 11005 11000 10999 10996 ] final  -45.93 input  -57.11 | X-H torsion

> <Gold.Protein.ActiveResidues>
 VAL166  LYS551  ARG553  GLY616  TRP617  ASP618  TYR619  PRO620  LYS621  CYS622 
 ASP623  PHE694  ASN695  SER759  ASP760  ASP761  ALA762  ILE779  LEU786  VAL792 
 PHE793  MET794  SER795  GLU796  ALA797  LYS798  CYS799  TRP800  GLU811  SER814 

> <Gold.Protein.RotatedAtoms>
  150.6898  134.3668  159.4974 H   0  0  0  0  0  0  0  0  0  0  0  0  # atno 6907 bound_to 6896
  152.1489  134.9001  160.0558 H   0  0  0  0  0  0  0  0  0  0  0  0  # atno 6908 bound_to 6896
  152.0106  133.3825  159.4255 H   0  0  0  0  0  0  0  0  0  0  0  0  # atno 6909 bound_to 6896
  146.1192  139.5985  142.9301 H   0  0  0  0  0  0  0  0  0  0  0  0  # atno 7974 bound_to 7965
  154.4001  140.1398  156.3838 H   0  0  0  0  0  0  0  0  0  0  0  0  # atno 8008 bound_to 7997
  155.7978  140.3477  155.5365 H   0  0  0  0  0  0  0  0  0  0  0  0  # atno 8009 bound_to 7997
  155.8514  140.0942  157.1663 H   0  0  0  0  0  0  0  0  0  0  0  0  # atno 8010 bound_to 7997
  140.2201  143.3682  152.0977 H   0  0  0  0  0  0  0  0  0  0  0  0  # atno 10167 bound_to 10162
  157.4734  130.8269  149.8012 H   0  0  0  0  0  0  0  0  0  0  0  0  # atno 10718 bound_to 10713
  153.8020  135.3140  155.3391 H   0  0  0  0  0  0  0  0  0  0  0  0  # atno 10763 bound_to 10752
  154.8085  135.4682  154.0458 H   0  0  0  0  0  0  0  0  0  0  0  0  # atno 10764 bound_to 10752
  153.1809  135.6893  153.8567 H   0  0  0  0  0  0  0  0  0  0  0  0  # atno 10765 bound_to 10752
  141.0547  133.6730  156.3083 H   0  0  0  0  0  0  0  0  0  0  0  0  # atno 11005 bound_to 11000
  145.5502  141.0414  143.2282 LP  0  0  0  0  0  0  0  0  0  0  0  0  # atno 17320 bound_to 7965
  144.7581  139.7024  143.7246 LP  0  0  0  0  0  0  0  0  0  0  0  0  # atno 17321 bound_to 7965
  139.5147  144.6952  151.5650 LP  0  0  0  0  0  0  0  0  0  0  0  0  # atno 17342 bound_to 10162
  140.6261  143.9166  150.6566 LP  0  0  0  0  0  0  0  0  0  0  0  0  # atno 17343 bound_to 10162
  156.0084  130.3844  150.2348 LP  0  0  0  0  0  0  0  0  0  0  0  0  # atno 17370 bound_to 10713
  157.0531  131.0068  151.3247 LP  0  0  0  0  0  0  0  0  0  0  0  0  # atno 17371 bound_to 10713
  140.5988  134.5576  157.5513 LP  0  0  0  0  0  0  0  0  0  0  0  0  # atno 17394 bound_to 11000
  139.9380  134.7840  156.0753 LP  0  0  0  0  0  0  0  0  0  0  0  0  # atno 17395 bound_to 11000

$$$$
