AV-unprocessed.smi:1049|AV-procd|sdf|4608|dock7
  -GOLD-   22720 3103D 1   1.00000     0.00000
 Structure written by MMmdl.
 40 41  0  0  0  0  0  0  0  0  1 V2000
  146.8443  138.7006  152.6946 C   0  0  0  0  0  0  0  0  0  0  0  0
  147.2622  139.8281  153.6482 C   0  0  2  0  0  0  0  0  0  0  0  0
  146.4522  141.1183  153.3901 C   0  0  0  0  0  0  0  0  0  0  0  0
  146.9544  142.3001  154.2416 C   0  0  0  0  0  0  0  0  0  0  0  0
  148.4782  142.4621  154.1049 C   0  0  0  0  0  0  0  0  0  0  0  0
  149.1208  141.1945  154.4928 N   0  0  0  0  0  0  0  0  0  0  0  0
  149.7292  140.9427  155.6795 C   0  0  0  0  0  0  0  0  0  0  0  0
  150.2110  139.8484  155.9757 O   0  0  0  0  0  0  0  0  0  0  0  0
  149.7838  141.9947  156.5117 N   0  0  0  0  0  0  0  0  0  0  0  0
  150.2863  141.9683  157.8807 C   0  0  0  0  0  0  0  0  0  0  0  0
  151.7902  141.6358  157.9474 C   0  0  0  0  0  0  0  0  0  0  0  0
  152.4069  141.9003  159.2915 C   0  0  0  0  0  0  0  0  0  0  0  0
  153.0001  140.9574  160.0179 N   0  0  0  0  0  0  0  0  0  0  0  0
  153.4459  141.6129  161.1592 C   0  0  0  0  0  0  0  0  0  0  0  0
  153.0907  142.9374  161.0902 C   0  0  0  0  0  0  0  0  0  0  0  0
  152.4016  143.1073  159.8944 N   0  0  0  0  0  0  0  0  0  0  0  0
  151.8209  144.3494  159.4098 C   0  0  0  0  0  0  0  0  0  0  0  0
  151.8848  145.2946  160.3480 F   0  0  0  0  0  0  0  0  0  0  0  0
  152.4640  144.7616  158.3195 F   0  0  0  0  0  0  0  0  0  0  0  0
  148.7761  140.1178  153.5556 C   0  0  0  0  0  0  0  0  0  0  0  0
  147.0519  138.9621  151.6566 H   0  0  0  0  0  0  0  0  0  0  0  0
  145.7779  138.4901  152.7789 H   0  0  0  0  0  0  0  0  0  0  0  0
  147.3807  137.7784  152.9194 H   0  0  0  0  0  0  0  0  0  0  0  0
  147.0459  139.4936  154.6635 H   0  0  0  0  0  0  0  0  0  0  0  0
  146.5311  141.3875  152.3360 H   0  0  0  0  0  0  0  0  0  0  0  0
  145.3933  140.9449  153.5842 H   0  0  0  0  0  0  0  0  0  0  0  0
  146.4496  143.2179  153.9395 H   0  0  0  0  0  0  0  0  0  0  0  0
  146.6964  142.1360  155.2887 H   0  0  0  0  0  0  0  0  0  0  0  0
  148.7360  142.6924  153.0701 H   0  0  0  0  0  0  0  0  0  0  0  0
  148.8111  143.3249  154.6815 H   0  0  0  0  0  0  0  0  0  0  0  0
  149.3877  142.8667  156.1920 H   0  0  0  0  0  0  0  0  0  0  0  0
  150.0754  142.9086  158.3924 H   0  0  0  0  0  0  0  0  0  0  0  0
  149.7246  141.1987  158.4108 H   0  0  0  0  0  0  0  0  0  0  0  0
  151.9311  140.5908  157.6750 H   0  0  0  0  0  0  0  0  0  0  0  0
  152.3288  142.2167  157.1983 H   0  0  0  0  0  0  0  0  0  0  0  0
  153.9845  141.0863  161.9333 H   0  0  0  0  0  0  0  0  0  0  0  0
  153.2602  143.7493  161.7820 H   0  0  0  0  0  0  0  0  0  0  0  0
  150.7692  144.2063  159.1622 H   0  0  0  0  0  0  0  0  0  0  0  0
  149.3478  139.2077  153.7446 H   0  0  0  0  0  0  0  0  0  0  0  0
  149.0410  140.4241  152.5423 H   0  0  0  0  0  0  0  0  0  0  0  0
  1  2  1  0  0  0  0
  1 21  1  0  0  0  0
  1 22  1  0  0  0  0
  1 23  1  0  0  0  0
  2 20  1  0  0  0  0
  2  3  1  0  0  0  0
  2 24  1  0  0  0  0
  3  4  1  0  0  0  0
  3 25  1  0  0  0  0
  3 26  1  0  0  0  0
  4  5  1  0  0  0  0
  4 27  1  0  0  0  0
  4 28  1  0  0  0  0
  5  6  1  0  0  0  0
  5 29  1  0  0  0  0
  5 30  1  0  0  0  0
  6  7  1  0  0  0  0
  6 20  1  0  0  0  0
  7  8  2  0  0  0  0
  7  9  1  0  0  0  0
  9 10  1  0  0  0  0
  9 31  1  0  0  0  0
 10 11  1  0  0  0  0
 10 32  1  0  0  0  0
 10 33  1  0  0  0  0
 11 12  1  0  0  0  0
 11 34  1  0  0  0  0
 11 35  1  0  0  0  0
 12 16  1  0  0  0  0
 12 13  2  0  0  0  0
 13 14  1  0  0  0  0
 14 15  2  0  0  0  0
 14 36  1  0  0  0  0
 15 16  1  0  0  0  0
 15 37  1  0  0  0  0
 16 17  1  0  0  0  0
 17 18  1  0  0  0  0
 17 19  1  0  0  0  0
 17 38  1  0  0  0  0
 20 39  1  0  0  0  0
 20 40  1  0  0  0  0
M  END
> <s_m_source_file>
AV-unprocessed.smi

> <i_m_source_file_index>
1049

> <i_lp_mmshare_version>
43012

> <i_f3d_flags>
0

> <s_epik_input>
W0NIM11bQ0BASF0xW0NIMl1bQ0gyXVtDSDJdTihbQ0gyXTEpQyg9TylbTkhdW0NIMl1bQ0gyXWMybltjSF1bY0hdbjJbQ0hdKEYpRg==

> <s_epik_cmdline>
J2VwaWtfcHl0aG9uJywgJy1waCcsICc3LjAnLCAnLXRuJywgJzgnLCAnLW1hJywgJzIwMCcsICctbWV0YWxfYmluZGluZycsICctaW1hZScsICc8aW5maWxlLm1hZT4nLCAnLW9tYWUnLCAnPG91dGZpbGUubWFlPic=

> <r_lp_tautomer_probability>
1

> <r_epik_Ionization_Penalty>
0.101141

> <r_epik_Ionization_Penalty_Charging>
0.101077

> <r_epik_Ionization_Penalty_Neutral>
6.38597e-05

> <r_epik_State_Penalty>
0.091079

> <r_epik_Charging_Adjusted_Penalty>
0.192156

> <i_epik_Tot_Q>
0

> <i_epik_Tot_abs_Q>
0

> <r_epik_Metal_State_Penalty>
0.0777008

> <b_epik_Metal_Only>
0

> <s_lp_Force_Field>
OPLS_2005

> <r_lp_Energy>
32.1831

> <b_lp_Chiralities_Consistent>
1

> <s_lp_Variant>
AV-unprocessed.smi:1049-1

> <Gold.Version>
5.8.1

> <Gold.Id.Protein>
6NUR|6NUR_protein|mol2

> <Gold.PLP.Fitness>
46.2208

> <Gold.PLP.PLP>
-43.4940

> <Gold.PLP.part.hbond>
-1.0000

> <Gold.PLP.part.metal>
0.0000

> <Gold.PLP.part.buried>
6.1565

> <Gold.PLP.part.nonpolar>
-48.4600

> <Gold.PLP.part.repulsive>
0.0567

> <Gold.PLP.ligand.clash>
0.0066

> <Gold.PLP.ligand.torsion>
0.1766

> <Gold.PLP.Chemscore.Hbond>
1.0000

> <Gold.PLP.Chemscore.CHOScore>
0.0000

> <Gold.PLP.Chemscore.Metal>
0.0000

> <Gold.Chemscore.Hbonds>
donor molecule, donor type, donor heavy atom, donor atom, acceptor molecule, acceptor atom, score
      L1  H     9    31       P1  8028  1.00

> <Gold.PLP.Chemscore.Internal.Correction>
0.0865

> <Gold.Rescore>
     Score         DG    S(hbond)    S(metal)    S(lipo)     H(rot)  DE(clash)    DE(int)     intcor
     11.22     -15.79       0.99        0.00      93.94       1.56       4.45       0.12       ----

> <Gold.Chemscore.Fitness>
11.2225

> <Gold.Chemscore.DG>
-15.7898

> <Gold.Chemscore.ZeroCoef>
-5.4800

> <Gold.Chemscore.Hbond>
0.9937

> <Gold.Chemscore.Metal>
0.0000

> <Gold.Chemscore.Lipo>
93.9405

> <Gold.Chemscore.Internal_Hbond>
0.0000

> <Gold.Chemscore.DEClash>
4.4502

> <Gold.Chemscore.DEInternal>
0.1171

> <Gold.Chemscore.Rot>
1.5626

> <Gold.Chemscore.Internal.Correction>
   9.000000E+99

> <Gold.Chemscore.Hbonds>
donor molecule, donor type, donor heavy atom, donor atom, acceptor molecule, acceptor atom, score
      L1  H     9    31       P1  8028  0.97

> <Gold.Chemscore.Hbond.Weighted>
-3.3191

> <Gold.Chemscore.Metal.Weighted>
-0.0000

> <Gold.Chemscore.Lipo.Weighted>
-10.9910

> <Gold.Chemscore.Internal_Hbond.Weighted>
0.0000

> <Gold.Chemscore.DEClash.Weighted>
4.4502

> <Gold.Chemscore.DEInternal.Weighted>
0.1171

> <Gold.Chemscore.Rot.Weighted>
4.0004

> <Gold.Chemscore.Internal.Correction.Weighted>
   9.000000E+99

> <Gold.Protein.RotatedTorsions>
[ 6907 6896 6895 6894 ] final  101.44 input  -60.11 | X-H torsion
[ 7974 7965 7964 7962 ] final  132.70 input  175.53 | X-H torsion
[ 8008 7997 7996 7995 ] final  136.56 input   59.86 | X-H torsion
[ 10167 10162 10161 10158 ] final  115.48 input  -65.29 | X-H torsion
[ 10718 10713 10712 10709 ] final  -25.75 input   66.30 | X-H torsion
[ 10763 10752 10751 10750 ] final  -68.22 input  -60.55 | X-H torsion
[ 11005 11000 10999 10996 ] final  164.44 input  -57.11 | X-H torsion

> <Gold.Protein.ActiveResidues>
 VAL166  LYS551  ARG553  GLY616  TRP617  ASP618  TYR619  PRO620  LYS621  CYS622 
 ASP623  PHE694  ASN695  SER759  ASP760  ASP761  ALA762  ILE779  LEU786  VAL792 
 PHE793  MET794  SER795  GLU796  ALA797  LYS798  CYS799  TRP800  GLU811  SER814 

> <Gold.Protein.RotatedAtoms>
  152.5349  134.0126  159.7945 H   0  0  0  0  0  0  0  0  0  0  0  0  # atno 6907 bound_to 6896
  151.0326  133.5769  159.2666 H   0  0  0  0  0  0  0  0  0  0  0  0  # atno 6908 bound_to 6896
  151.2768  135.0709  159.9208 H   0  0  0  0  0  0  0  0  0  0  0  0  # atno 6909 bound_to 6896
  144.9941  139.4377  143.5324 H   0  0  0  0  0  0  0  0  0  0  0  0  # atno 7974 bound_to 7965
  156.3004  140.2442  156.3766 H   0  0  0  0  0  0  0  0  0  0  0  0  # atno 8008 bound_to 7997
  154.8739  140.0415  157.1761 H   0  0  0  0  0  0  0  0  0  0  0  0  # atno 8009 bound_to 7997
  154.8766  140.2943  155.5453 H   0  0  0  0  0  0  0  0  0  0  0  0  # atno 8010 bound_to 7997
  139.6314  144.7115  151.2424 H   0  0  0  0  0  0  0  0  0  0  0  0  # atno 10167 bound_to 10162
  156.4603  130.4502  149.6933 H   0  0  0  0  0  0  0  0  0  0  0  0  # atno 10718 bound_to 10713
  154.3859  135.6063  153.5816 H   0  0  0  0  0  0  0  0  0  0  0  0  # atno 10763 bound_to 10752
  152.9787  135.5872  154.4355 H   0  0  0  0  0  0  0  0  0  0  0  0  # atno 10764 bound_to 10752
  154.4131  135.2844  155.2002 H   0  0  0  0  0  0  0  0  0  0  0  0  # atno 10765 bound_to 10752
  140.2459  134.8014  157.3456 H   0  0  0  0  0  0  0  0  0  0  0  0  # atno 11005 bound_to 11000
  146.3438  139.9291  142.8756 LP  0  0  0  0  0  0  0  0  0  0  0  0  # atno 17320 bound_to 7965
  145.2244  140.9948  143.4027 LP  0  0  0  0  0  0  0  0  0  0  0  0  # atno 17321 bound_to 7965
  140.7441  143.6473  150.8280 LP  0  0  0  0  0  0  0  0  0  0  0  0  # atno 17342 bound_to 10162
  140.0098  143.5654  152.2843 LP  0  0  0  0  0  0  0  0  0  0  0  0  # atno 17343 bound_to 10162
  156.3724  130.7537  151.2522 LP  0  0  0  0  0  0  0  0  0  0  0  0  # atno 17370 bound_to 10713
  157.7498  131.0319  150.4203 LP  0  0  0  0  0  0  0  0  0  0  0  0  # atno 17371 bound_to 10713
  140.1606  134.4733  155.7897 LP  0  0  0  0  0  0  0  0  0  0  0  0  # atno 17394 bound_to 11000
  141.2206  133.6900  156.7537 LP  0  0  0  0  0  0  0  0  0  0  0  0  # atno 17395 bound_to 11000

$$$$
