AV-unprocessed.smi:1313|AV-procd|sdf|5452|dock9
  -GOLD-   22720 5 23D 1   1.00000     0.00000
 Structure written by MMmdl.
 36 37  0  0  0  0  0  0  0  0  2 V2000
  150.8844  134.9133  155.1036 C   0  0  0  0  0  0  0  0  0  0  0  0
  150.7858  136.3892  155.4248 C   0  0  0  0  0  0  0  0  0  0  0  0
  149.8342  136.8058  156.1699 N   0  0  0  0  0  0  0  0  0  0  0  0
  149.7396  138.1752  156.4708 C   0  0  0  0  0  0  0  0  0  0  0  0
  148.5780  138.5767  157.3638 C   0  0  0  0  0  0  0  0  0  0  0  0
  150.6471  139.0697  155.9834 C   0  0  0  0  0  0  0  0  0  0  0  0
  150.5879  140.5678  156.2799 C   0  0  0  0  0  0  0  0  0  0  0  0
  151.6840  141.0919  157.2089 C   0  0  0  0  0  0  0  0  0  0  0  0
  152.6631  140.3912  157.4644 O   0  0  0  0  0  0  0  0  0  0  0  0
  151.5062  142.3230  157.7124 N   0  0  0  0  0  0  0  0  0  0  0  0
  152.4136  142.9900  158.6416 C   0  0  0  0  0  0  0  0  0  0  0  0
  151.8701  142.9216  160.0814 C   0  0  0  0  0  0  0  0  0  0  0  0
  152.0142  144.3328  160.6529 C   0  0  0  0  0  0  0  0  0  0  0  0
  151.8617  145.2445  159.4399 C   0  0  0  0  0  0  0  0  0  0  0  0
  152.5671  144.4889  158.3123 C   0  0  0  0  0  0  0  0  0  0  0  0
  151.7310  138.5477  155.1311 C   0  0  0  0  0  0  0  0  0  0  0  0
  152.5831  139.3079  154.6728 O   0  0  0  0  0  0  0  0  0  0  0  0
  151.7493  137.2075  154.8800 N   0  5  0  0  0  0  0  0  0  0  0  0
  150.1345  134.3401  155.6505 H   0  0  0  0  0  0  0  0  0  0  0  0
  151.8694  134.5314  155.3743 H   0  0  0  0  0  0  0  0  0  0  0  0
  150.7306  134.7491  154.0368 H   0  0  0  0  0  0  0  0  0  0  0  0
  147.9545  139.3256  156.8754 H   0  0  0  0  0  0  0  0  0  0  0  0
  148.9443  138.9863  158.3052 H   0  0  0  0  0  0  0  0  0  0  0  0
  147.9460  137.7190  157.5967 H   0  0  0  0  0  0  0  0  0  0  0  0
  150.6201  141.1476  155.3571 H   0  0  0  0  0  0  0  0  0  0  0  0
  149.6117  140.7972  156.7081 H   0  0  0  0  0  0  0  0  0  0  0  0
  150.6721  142.8264  157.4475 H   0  0  0  0  0  0  0  0  0  0  0  0
  153.3927  142.5084  158.6029 H   0  0  0  0  0  0  0  0  0  0  0  0
  150.8134  142.6483  160.0807 H   0  0  0  0  0  0  0  0  0  0  0  0
  152.3933  142.1800  160.6858 H   0  0  0  0  0  0  0  0  0  0  0  0
  151.2854  144.5464  161.4353 H   0  0  0  0  0  0  0  0  0  0  0  0
  153.0099  144.4564  161.0814 H   0  0  0  0  0  0  0  0  0  0  0  0
  150.8039  145.3612  159.1999 H   0  0  0  0  0  0  0  0  0  0  0  0
  152.2788  146.2385  159.6050 H   0  0  0  0  0  0  0  0  0  0  0  0
  153.6267  144.7478  158.3136 H   0  0  0  0  0  0  0  0  0  0  0  0
  152.1744  144.7622  157.3318 H   0  0  0  0  0  0  0  0  0  0  0  0
  1  2  1  0  0  0  0
  1 19  1  0  0  0  0
  1 20  1  0  0  0  0
  1 21  1  0  0  0  0
  2 18  1  0  0  0  0
  2  3  2  0  0  0  0
  3  4  1  0  0  0  0
  4  5  1  0  0  0  0
  4  6  2  0  0  0  0
  5 22  1  0  0  0  0
  5 23  1  0  0  0  0
  5 24  1  0  0  0  0
  6  7  1  0  0  0  0
  6 16  1  0  0  0  0
  7  8  1  0  0  0  0
  7 25  1  0  0  0  0
  7 26  1  0  0  0  0
  8  9  2  0  0  0  0
  8 10  1  0  0  0  0
 10 11  1  0  0  0  0
 10 27  1  0  0  0  0
 11 15  1  0  0  0  0
 11 12  1  0  0  0  0
 11 28  1  0  0  0  0
 12 13  1  0  0  0  0
 12 29  1  0  0  0  0
 12 30  1  0  0  0  0
 13 14  1  0  0  0  0
 13 31  1  0  0  0  0
 13 32  1  0  0  0  0
 14 15  1  0  0  0  0
 14 33  1  0  0  0  0
 14 34  1  0  0  0  0
 15 35  1  0  0  0  0
 15 36  1  0  0  0  0
 16 17  2  0  0  0  0
 16 18  1  0  0  0  0
M  CHG  1  18  -1
M  END
> <s_m_source_file>
AV-unprocessed.smi

> <i_m_source_file_index>
1313

> <i_lp_mmshare_version>
43012

> <i_f3d_flags>
0

> <s_epik_input>
W0NIM11jMW5jKFtDSDNdKWMoYyg9TylbbkhdMSlbQ0gyXUMoPU8pW05IXVtDSF0yW0NIMl1bQ0gyXVtDSDJdW0NIMl0y

> <s_epik_cmdline>
J2VwaWtfcHl0aG9uJywgJy1waCcsICc3LjAnLCAnLXRuJywgJzgnLCAnLW1hJywgJzIwMCcsICctbWV0YWxfYmluZGluZycsICctaW1hZScsICc8aW5maWxlLm1hZT4nLCAnLW9tYWUnLCAnPG91dGZpbGUubWFlPic=

> <r_lp_tautomer_probability>
0.839158

> <r_epik_Ionization_Penalty>
6.62586

> <r_epik_Ionization_Penalty_Charging>
7.38068e-08

> <r_epik_Ionization_Penalty_Neutral>
6.62586

> <r_epik_State_Penalty>
4.443

> <r_epik_Charging_Adjusted_Penalty>
4.443

> <i_epik_Tot_Q>
-1

> <i_epik_Tot_abs_Q>
1

> <r_epik_Metal_State_Penalty>
0.804085

> <b_epik_Metal_Only>
1

> <s_lp_Force_Field>
OPLS_2005

> <r_lp_Energy>
23.3314

> <b_lp_Chiralities_Consistent>
1

> <s_lp_Variant>
AV-unprocessed.smi:1313-3

> <Gold.Version>
5.8.1

> <Gold.Id.Protein>
6NUR|6NUR_protein|mol2

> <Gold.PLP.Fitness>
42.2155

> <Gold.PLP.PLP>
-33.4853

> <Gold.PLP.part.hbond>
-3.0000

> <Gold.PLP.part.metal>
0.0000

> <Gold.PLP.part.buried>
-2.7716

> <Gold.PLP.part.nonpolar>
-26.7860

> <Gold.PLP.part.repulsive>
0.2304

> <Gold.PLP.ligand.clash>
0.0000

> <Gold.PLP.ligand.torsion>
0.5299

> <Gold.PLP.Chemscore.Hbond>
3.2623

> <Gold.PLP.Chemscore.CHOScore>
0.0000

> <Gold.PLP.Chemscore.Metal>
0.0000

> <Gold.Chemscore.Hbonds>
donor molecule, donor type, donor heavy atom, donor atom, acceptor molecule, acceptor atom, score
      P1  H  7989  7998       L1    17  0.45
      P1  H  7997  8009       L1     9  0.91
      P1  H 10752 10763       L1    18  1.29

> <Gold.PLP.Chemscore.Internal.Correction>
0.0031

> <Gold.Rescore>
     Score         DG    S(hbond)    S(metal)    S(lipo)     H(rot)  DE(clash)    DE(int)     intcor
     17.23     -17.79       1.95        0.00      81.79       1.48       0.07       0.48       ----

> <Gold.Chemscore.Fitness>
17.2347

> <Gold.Chemscore.DG>
-17.7862

> <Gold.Chemscore.ZeroCoef>
-5.4800

> <Gold.Chemscore.Hbond>
1.9520

> <Gold.Chemscore.Metal>
0.0000

> <Gold.Chemscore.Lipo>
81.7895

> <Gold.Chemscore.Internal_Hbond>
0.0000

> <Gold.Chemscore.DEClash>
0.0695

> <Gold.Chemscore.DEInternal>
0.4821

> <Gold.Chemscore.Rot>
1.4776

> <Gold.Chemscore.Internal.Correction>
   9.000000E+99

> <Gold.Chemscore.Hbonds>
donor molecule, donor type, donor heavy atom, donor atom, acceptor molecule, acceptor atom, score
      P1  H  7989  7998       L1    17  0.34
      P1  H  7997  8009       L1     9  0.89
      P1  H 10752 10763       L1    18  0.05

> <Gold.Chemscore.Hbond.Weighted>
-6.5196

> <Gold.Chemscore.Metal.Weighted>
-0.0000

> <Gold.Chemscore.Lipo.Weighted>
-9.5694

> <Gold.Chemscore.Internal_Hbond.Weighted>
0.0000

> <Gold.Chemscore.DEClash.Weighted>
0.0695

> <Gold.Chemscore.DEInternal.Weighted>
0.4821

> <Gold.Chemscore.Rot.Weighted>
3.7827

> <Gold.Chemscore.Internal.Correction.Weighted>
   9.000000E+99

> <Gold.Protein.RotatedTorsions>
[ 6907 6896 6895 6894 ] final  -22.82 input  -60.11 | X-H torsion
[ 7974 7965 7964 7962 ] final   28.53 input  175.53 | X-H torsion
[ 8008 7997 7996 7995 ] final  174.07 input   59.86 | X-H torsion
[ 10167 10162 10161 10158 ] final   83.35 input  -65.29 | X-H torsion
[ 10718 10713 10712 10709 ] final -126.45 input   66.30 | X-H torsion
[ 10763 10752 10751 10750 ] final   45.67 input  -60.55 | X-H torsion
[ 11005 11000 10999 10996 ] final -129.21 input  -57.11 | X-H torsion

> <Gold.Protein.ActiveResidues>
 VAL166  LYS551  ARG553  GLY616  TRP617  ASP618  TYR619  PRO620  LYS621  CYS622 
 ASP623  PHE694  ASN695  SER759  ASP760  ASP761  ALA762  ILE779  LEU786  VAL792 
 PHE793  MET794  SER795  GLU796  ALA797  LYS798  CYS799  TRP800  GLU811  SER814 

> <Gold.Protein.RotatedAtoms>
  151.2129  135.0488  159.8918 H   0  0  0  0  0  0  0  0  0  0  0  0  # atno 6907 bound_to 6896
  152.5423  134.0725  159.8210 H   0  0  0  0  0  0  0  0  0  0  0  0  # atno 6908 bound_to 6896
  151.0880  133.5290  159.2648 H   0  0  0  0  0  0  0  0  0  0  0  0  # atno 6909 bound_to 6896
  146.1724  139.7044  142.8958 H   0  0  0  0  0  0  0  0  0  0  0  0  # atno 7974 bound_to 7965
  156.1011  140.1444  156.9465 H   0  0  0  0  0  0  0  0  0  0  0  0  # atno 8008 bound_to 7997
  154.4703  140.0912  156.7173 H   0  0  0  0  0  0  0  0  0  0  0  0  # atno 8009 bound_to 7997
  155.4757  140.3443  155.4334 H   0  0  0  0  0  0  0  0  0  0  0  0  # atno 8010 bound_to 7997
  139.9193  144.6223  150.8457 H   0  0  0  0  0  0  0  0  0  0  0  0  # atno 10167 bound_to 10162
  156.1766  130.6704  151.0250 H   0  0  0  0  0  0  0  0  0  0  0  0  # atno 10718 bound_to 10713
  152.9821  135.6032  154.3474 H   0  0  0  0  0  0  0  0  0  0  0  0  # atno 10763 bound_to 10752
  154.3166  135.2770  155.2542 H   0  0  0  0  0  0  0  0  0  0  0  0  # atno 10764 bound_to 10752
  154.4727  135.5937  153.6389 H   0  0  0  0  0  0  0  0  0  0  0  0  # atno 10765 bound_to 10752
  140.9451  134.1141  157.4115 H   0  0  0  0  0  0  0  0  0  0  0  0  # atno 11005 bound_to 11000
  145.4305  141.0414  143.2913 LP  0  0  0  0  0  0  0  0  0  0  0  0  # atno 17320 bound_to 7965
  144.8183  139.5837  143.6998 LP  0  0  0  0  0  0  0  0  0  0  0  0  # atno 17321 bound_to 7965
  140.7666  143.3309  151.2413 LP  0  0  0  0  0  0  0  0  0  0  0  0  # atno 17342 bound_to 10162
  139.6876  143.9748  152.2842 LP  0  0  0  0  0  0  0  0  0  0  0  0  # atno 17343 bound_to 10162
  157.6840  131.0830  150.7293 LP  0  0  0  0  0  0  0  0  0  0  0  0  # atno 17370 bound_to 10713
  156.7351  130.4722  149.5490 LP  0  0  0  0  0  0  0  0  0  0  0  0  # atno 17371 bound_to 10713
  139.8831  135.0049  156.6277 LP  0  0  0  0  0  0  0  0  0  0  0  0  # atno 17394 bound_to 11000
  140.7680  133.8762  155.8470 LP  0  0  0  0  0  0  0  0  0  0  0  0  # atno 17395 bound_to 11000

$$$$
