AV-unprocessed.smi:2083|AV-procd|sdf|8511|dock5
  -GOLD-   2272011223D 1   1.00000     0.00000
 Structure written by MMmdl.
 44 45  0  0  0  0  0  0  0  0  3 V2000
  147.3775  135.2861  162.6737 C   0  0  0  0  0  0  0  0  0  0  0  0
  147.8283  135.7126  161.3188 C   0  0  0  0  0  0  0  0  0  0  0  0
  147.9839  135.0437  160.1375 C   0  0  0  0  0  0  0  0  0  0  0  0
  148.4440  136.0559  159.2534 C   0  0  0  0  0  0  0  0  0  0  0  0
  148.7276  135.7547  157.8952 N   0  0  0  0  0  0  0  0  0  0  0  0
  149.0496  134.5708  157.3425 C   0  0  0  0  0  0  0  0  0  0  0  0
  149.1262  133.5538  158.0424 O   0  0  0  0  0  0  0  0  0  0  0  0
  149.2597  134.6720  156.0016 N   0  5  0  0  0  0  0  0  0  0  0  0
  148.2082  134.9032  155.0127 C   0  0  0  0  0  0  0  0  0  0  0  0
  148.1294  133.7055  154.0119 C   0  0  1  0  0  0  0  0  0  0  0  0
  147.8518  132.3472  154.6993 C   0  0  0  0  0  0  0  0  0  0  0  0
  147.1935  133.8903  152.8500 N   0  3  1  0  0  0  0  0  0  0  0  0
  147.0085  132.7319  151.9256 C   0  0  0  0  0  0  0  0  0  0  0  0
  146.3362  133.1835  150.6202 C   0  0  0  0  0  0  0  0  0  0  0  0
  145.0026  133.8906  150.9041 C   0  0  0  0  0  0  0  0  0  0  0  0
  145.1803  135.0484  151.9052 C   0  0  2  0  0  0  0  0  0  0  0  0
  145.8710  136.2740  151.2815 C   0  0  0  0  0  0  0  0  0  0  0  0
  145.9006  134.5583  153.1783 C   0  0  0  0  0  0  0  0  0  0  0  0
  148.5597  137.2364  159.8439 N   0  0  0  0  0  0  0  0  0  0  0  0
  148.1666  137.0221  161.1702 O   0  0  0  0  0  0  0  0  0  0  0  0
  146.9216  134.2965  162.6390 H   0  0  0  0  0  0  0  0  0  0  0  0
  146.6410  135.9829  163.0741 H   0  0  0  0  0  0  0  0  0  0  0  0
  148.2189  135.2467  163.3653 H   0  0  0  0  0  0  0  0  0  0  0  0
  147.7973  133.9988  159.9389 H   0  0  0  0  0  0  0  0  0  0  0  0
  148.6867  136.5366  157.2587 H   0  0  0  0  0  0  0  0  0  0  0  0
  147.2299  135.0422  155.4745 H   0  0  0  0  0  0  0  0  0  0  0  0
  148.4010  135.8185  154.4523 H   0  0  0  0  0  0  0  0  0  0  0  0
  149.1199  133.6028  153.5648 H   0  0  0  0  0  0  0  0  0  0  0  0
  148.6389  132.0758  155.4053 H   0  0  0  0  0  0  0  0  0  0  0  0
  147.8102  131.5459  153.9609 H   0  0  0  0  0  0  0  0  0  0  0  0
  146.9080  132.3337  155.2459 H   0  0  0  0  0  0  0  0  0  0  0  0
  147.9673  132.2729  151.6877 H   0  0  0  0  0  0  0  0  0  0  0  0
  146.3973  131.9620  152.3991 H   0  0  0  0  0  0  0  0  0  0  0  0
  147.0037  133.8489  150.0719 H   0  0  0  0  0  0  0  0  0  0  0  0
  146.1670  132.3215  149.9741 H   0  0  0  0  0  0  0  0  0  0  0  0
  144.5592  134.2516  149.9754 H   0  0  0  0  0  0  0  0  0  0  0  0
  144.2988  133.1663  151.3163 H   0  0  0  0  0  0  0  0  0  0  0  0
  144.1830  135.3770  152.2008 H   0  0  0  0  0  0  0  0  0  0  0  0
  146.8976  136.0573  150.9854 H   0  0  0  0  0  0  0  0  0  0  0  0
  145.9010  137.1052  151.9865 H   0  0  0  0  0  0  0  0  0  0  0  0
  145.3357  136.6169  150.3957 H   0  0  0  0  0  0  0  0  0  0  0  0
  145.2537  133.8615  153.7130 H   0  0  0  0  0  0  0  0  0  0  0  0
  146.0698  135.4026  153.8477 H   0  0  0  0  0  0  0  0  0  0  0  0
  147.6751  134.5763  152.2874 H   0  0  0  0  0  0  0  0  0  0  0  0
  1  2  1  0  0  0  0
  1 21  1  0  0  0  0
  1 22  1  0  0  0  0
  1 23  1  0  0  0  0
  2 20  1  0  0  0  0
  2  3  2  0  0  0  0
  3  4  1  0  0  0  0
  3 24  1  0  0  0  0
  4  5  1  0  0  0  0
  4 19  2  0  0  0  0
  5  6  1  0  0  0  0
  5 25  1  0  0  0  0
  6  7  2  0  0  0  0
  6  8  1  0  0  0  0
  8  9  1  0  0  0  0
  9 10  1  0  0  0  0
  9 26  1  0  0  0  0
  9 27  1  0  0  0  0
 10 11  1  0  0  0  0
 10 12  1  0  0  0  0
 10 28  1  0  0  0  0
 11 29  1  0  0  0  0
 11 30  1  0  0  0  0
 11 31  1  0  0  0  0
 12 18  1  0  0  0  0
 12 13  1  0  0  0  0
 12 44  1  0  0  0  0
 13 14  1  0  0  0  0
 13 32  1  0  0  0  0
 13 33  1  0  0  0  0
 14 15  1  0  0  0  0
 14 34  1  0  0  0  0
 14 35  1  0  0  0  0
 15 16  1  0  0  0  0
 15 36  1  0  0  0  0
 15 37  1  0  0  0  0
 16 17  1  0  0  0  0
 16 18  1  0  0  0  0
 16 38  1  0  0  0  0
 17 39  1  0  0  0  0
 17 40  1  0  0  0  0
 17 41  1  0  0  0  0
 18 42  1  0  0  0  0
 18 43  1  0  0  0  0
 19 20  1  0  0  0  0
M  CHG  1   8  -1
M  CHG  1  12   1
M  END
> <s_m_source_file>
AV-unprocessed.smi

> <i_m_source_file_index>
2083

> <i_lp_mmshare_version>
43012

> <i_f3d_flags>
0

> <s_epik_input>
W0NIM11jMVtjSF1jKG5vMSlbTkhdQyg9TylbTkhdW0NIMl1bQ0BIXShbQ0gzXSlOMltDSDJdW0NIMl1bQ0gyXVtDQEBIXShbQ0gzXSlbQ0gyXTI=

> <s_epik_cmdline>
J2VwaWtfcHl0aG9uJywgJy1waCcsICc3LjAnLCAnLXRuJywgJzgnLCAnLW1hJywgJzIwMCcsICctbWV0YWxfYmluZGluZycsICctaW1hZScsICc8aW5maWxlLm1hZT4nLCAnLW9tYWUnLCAnPG91dGZpbGUubWFlPic=

> <r_epik_Ionization_Penalty>
6.76934

> <r_epik_Ionization_Penalty_Charging>
6.76934

> <r_epik_Ionization_Penalty_Neutral>
5.77849e-06

> <r_epik_State_Penalty>
6.79457

> <r_epik_Charging_Adjusted_Penalty>
13.5639

> <i_epik_Tot_Q>
0

> <i_epik_Tot_abs_Q>
2

> <r_epik_Metal_State_Penalty>
2.72837

> <b_epik_Metal_Only>
1

> <s_lp_Force_Field>
OPLS_2005

> <r_lp_Energy>
23.3528

> <b_lp_Chiralities_Consistent>
1

> <s_lp_Variant>
AV-unprocessed.smi:2083-22

> <Gold.Version>
5.8.1

> <Gold.Id.Protein>
6NUR|6NUR_protein|mol2

> <Gold.PLP.Fitness>
41.6843

> <Gold.PLP.PLP>
-32.0497

> <Gold.PLP.part.hbond>
-6.0000

> <Gold.PLP.part.metal>
0.0000

> <Gold.PLP.part.buried>
-1.1811

> <Gold.PLP.part.nonpolar>
-24.2499

> <Gold.PLP.part.repulsive>
0.0890

> <Gold.PLP.ligand.clash>
0.0000

> <Gold.PLP.ligand.torsion>
1.1382

> <Gold.PLP.Chemscore.Hbond>
3.8928

> <Gold.PLP.Chemscore.CHOScore>
0.0000

> <Gold.PLP.Chemscore.Metal>
0.0000

> <Gold.Chemscore.Hbonds>
donor molecule, donor type, donor heavy atom, donor atom, acceptor molecule, acceptor atom, score
      L1  H    12    44       P1  7948  1.69
      P1  H  6896  6908       L1     7  0.81
      P1  H  6931  6943       L1    20  0.95
      P1  H  6934  6947       L1    20  0.05

> <Gold.PLP.Chemscore.Internal.Correction>
0.2326

> <Gold.Rescore>
     Score         DG    S(hbond)    S(metal)    S(lipo)     H(rot)  DE(clash)    DE(int)     intcor
     13.59     -16.64       2.12        0.00      68.03       1.52       0.19       2.87       ----

> <Gold.Chemscore.Fitness>
13.5861

> <Gold.Chemscore.DG>
-16.6443

> <Gold.Chemscore.ZeroCoef>
-5.4800

> <Gold.Chemscore.Hbond>
2.1239

> <Gold.Chemscore.Metal>
0.0000

> <Gold.Chemscore.Lipo>
68.0272

> <Gold.Chemscore.Internal_Hbond>
0.0000

> <Gold.Chemscore.DEClash>
0.1919

> <Gold.Chemscore.DEInternal>
2.8663

> <Gold.Chemscore.Rot>
1.5190

> <Gold.Chemscore.Internal.Correction>
   9.000000E+99

> <Gold.Chemscore.Hbonds>
donor molecule, donor type, donor heavy atom, donor atom, acceptor molecule, acceptor atom, score
      L1  H    12    44       P1  7948  0.54
      P1  H  6896  6908       L1     7  0.52
      P1  H  6931  6943       L1    20  0.21

> <Gold.Chemscore.Hbond.Weighted>
-7.0937

> <Gold.Chemscore.Metal.Weighted>
-0.0000

> <Gold.Chemscore.Lipo.Weighted>
-7.9592

> <Gold.Chemscore.Internal_Hbond.Weighted>
0.0000

> <Gold.Chemscore.DEClash.Weighted>
0.1919

> <Gold.Chemscore.DEInternal.Weighted>
2.8663

> <Gold.Chemscore.Rot.Weighted>
3.8886

> <Gold.Chemscore.Internal.Correction.Weighted>
   9.000000E+99

> <Gold.Protein.RotatedTorsions>
[ 6907 6896 6895 6894 ] final  112.84 input  -60.11 | X-H torsion
[ 7974 7965 7964 7962 ] final  178.69 input  175.53 | X-H torsion
[ 8008 7997 7996 7995 ] final -178.09 input   59.86 | X-H torsion
[ 10167 10162 10161 10158 ] final   56.24 input  -65.29 | X-H torsion
[ 10718 10713 10712 10709 ] final -139.37 input   66.30 | X-H torsion
[ 10763 10752 10751 10750 ] final  166.43 input  -60.55 | X-H torsion
[ 11005 11000 10999 10996 ] final -164.94 input  -57.11 | X-H torsion

> <Gold.Protein.ActiveResidues>
 VAL166  LYS551  ARG553  GLY616  TRP617  ASP618  TYR619  PRO620  LYS621  CYS622 
 ASP623  PHE694  ASN695  SER759  ASP760  ASP761  ALA762  ILE779  LEU786  VAL792 
 PHE793  MET794  SER795  GLU796  ALA797  LYS798  CYS799  TRP800  GLU811  SER814 

> <Gold.Protein.RotatedAtoms>
  152.4894  133.8459  159.7176 H   0  0  0  0  0  0  0  0  0  0  0  0  # atno 6907 bound_to 6896
  150.9009  133.7110  159.2886 H   0  0  0  0  0  0  0  0  0  0  0  0  # atno 6908 bound_to 6896
  151.4551  135.1037  159.9761 H   0  0  0  0  0  0  0  0  0  0  0  0  # atno 6909 bound_to 6896
  144.7153  140.0435  143.6437 H   0  0  0  0  0  0  0  0  0  0  0  0  # atno 7974 bound_to 7965
  156.0147  140.1248  157.0418 H   0  0  0  0  0  0  0  0  0  0  0  0  # atno 8008 bound_to 7997
  154.4289  140.1080  156.5949 H   0  0  0  0  0  0  0  0  0  0  0  0  # atno 8009 bound_to 7997
  155.6030  140.3470  155.4601 H   0  0  0  0  0  0  0  0  0  0  0  0  # atno 8010 bound_to 7997
  140.2109  144.3890  150.6489 H   0  0  0  0  0  0  0  0  0  0  0  0  # atno 10167 bound_to 10162
  156.3100  130.7476  151.1549 H   0  0  0  0  0  0  0  0  0  0  0  0  # atno 10718 bound_to 10713
  154.3388  135.2754  155.2433 H   0  0  0  0  0  0  0  0  0  0  0  0  # atno 10763 bound_to 10752
  154.4713  135.5882  153.6327 H   0  0  0  0  0  0  0  0  0  0  0  0  # atno 10764 bound_to 10752
  152.9859  135.6089  154.3587 H   0  0  0  0  0  0  0  0  0  0  0  0  # atno 10765 bound_to 10752
  140.5813  134.5138  157.5179 H   0  0  0  0  0  0  0  0  0  0  0  0  # atno 11005 bound_to 11000
  146.0003  139.3086  143.0931 LP  0  0  0  0  0  0  0  0  0  0  0  0  # atno 17320 bound_to 7965
  145.8800  140.9368  143.0606 LP  0  0  0  0  0  0  0  0  0  0  0  0  # atno 17321 bound_to 7965
  140.6324  143.2189  151.6466 LP  0  0  0  0  0  0  0  0  0  0  0  0  # atno 17342 bound_to 10162
  139.5180  144.3296  152.0838 LP  0  0  0  0  0  0  0  0  0  0  0  0  # atno 17343 bound_to 10162
  157.7388  131.0536  150.5268 LP  0  0  0  0  0  0  0  0  0  0  0  0  # atno 17370 bound_to 10713
  156.5407  130.4207  149.6155 LP  0  0  0  0  0  0  0  0  0  0  0  0  # atno 17371 bound_to 10713
  139.9316  134.7953  156.0916 LP  0  0  0  0  0  0  0  0  0  0  0  0  # atno 17394 bound_to 11000
  141.0994  133.6683  156.2720 LP  0  0  0  0  0  0  0  0  0  0  0  0  # atno 17395 bound_to 11000

$$$$
