AV-unprocessed.smi:1840|AV-procd|sdf|7491|dock4
  -GOLD-   22720 9193D 1   1.00000     0.00000
 Structure written by MMmdl.
 43 44  0  0  0  0  0  0  0  0  1 V2000
  152.5307  144.3574  157.4647 C   0  0  0  0  0  0  0  0  0  0  0  0
  151.5982  143.2583  157.9916 C   0  0  1  0  0  0  0  0  0  0  0  0
  151.1402  143.5518  159.4373 C   0  0  0  0  0  0  0  0  0  0  0  0
  152.0316  142.9855  160.4350 N   0  0  0  0  0  0  0  0  0  0  0  0
  153.1700  142.2315  160.2377 C   0  0  0  0  0  0  0  0  0  0  0  0
  153.6906  141.9521  161.4684 C   0  0  0  0  0  0  0  0  0  0  0  0
  152.7850  142.5804  162.3682 C   0  0  0  0  0  0  0  0  0  0  0  0
  151.7911  143.1950  161.7470 N   0  0  0  0  0  0  0  0  0  0  0  0
  150.4438  143.1438  157.1013 N   0  0  0  0  0  0  0  0  0  0  0  0
  149.5247  142.1683  157.1425 C   0  0  0  0  0  0  0  0  0  0  0  0
  149.5882  141.1852  157.8806 O   0  0  0  0  0  0  0  0  0  0  0  0
  148.5017  142.4196  156.3152 N   0  0  0  0  0  0  0  0  0  0  0  0
  147.2848  141.6147  156.2046 C   0  0  1  0  0  0  0  0  0  0  0  0
  146.0479  142.4074  156.6868 C   0  0  0  0  0  0  0  0  0  0  0  0
  145.6941  143.5624  155.7351 C   0  0  0  0  0  0  0  0  0  0  0  0
  145.4919  143.0534  154.3003 C   0  0  0  0  0  0  0  0  0  0  0  0
  146.7193  142.2724  153.8030 C   0  0  0  0  0  0  0  0  0  0  0  0
  147.0812  141.1115  154.7539 C   0  0  1  0  0  0  0  0  0  0  0  0
  148.2796  140.3023  154.2285 C   0  0  0  0  0  0  0  0  0  0  0  0
  153.4178  144.4516  158.0916 H   0  0  0  0  0  0  0  0  0  0  0  0
  152.0324  145.3273  157.4455 H   0  0  0  0  0  0  0  0  0  0  0  0
  152.8670  144.1343  156.4515 H   0  0  0  0  0  0  0  0  0  0  0  0
  152.1652  142.3255  157.9873 H   0  0  0  0  0  0  0  0  0  0  0  0
  151.0859  144.6288  159.6035 H   0  0  0  0  0  0  0  0  0  0  0  0
  150.1359  143.1612  159.6068 H   0  0  0  0  0  0  0  0  0  0  0  0
  153.5172  141.9702  159.2491 H   0  0  0  0  0  0  0  0  0  0  0  0
  154.5840  141.3882  161.6918 H   0  0  0  0  0  0  0  0  0  0  0  0
  152.8207  142.6089  163.4473 H   0  0  0  0  0  0  0  0  0  0  0  0
  150.2976  143.9026  156.4519 H   0  0  0  0  0  0  0  0  0  0  0  0
  148.5427  143.2550  155.7501 H   0  0  0  0  0  0  0  0  0  0  0  0
  147.4037  140.7417  156.8493 H   0  0  0  0  0  0  0  0  0  0  0  0
  145.1957  141.7300  156.7556 H   0  0  0  0  0  0  0  0  0  0  0  0
  146.2034  142.7925  157.6953 H   0  0  0  0  0  0  0  0  0  0  0  0
  144.7905  144.0644  156.0819 H   0  0  0  0  0  0  0  0  0  0  0  0
  146.4866  144.3118  155.7521 H   0  0  0  0  0  0  0  0  0  0  0  0
  144.6115  142.4104  154.2628 H   0  0  0  0  0  0  0  0  0  0  0  0
  145.2899  143.8923  153.6336 H   0  0  0  0  0  0  0  0  0  0  0  0
  146.5203  141.8851  152.8033 H   0  0  0  0  0  0  0  0  0  0  0  0
  147.5669  142.9518  153.7037 H   0  0  0  0  0  0  0  0  0  0  0  0
  146.2284  140.4308  154.7692 H   0  0  0  0  0  0  0  0  0  0  0  0
  149.1729  140.9194  154.1280 H   0  0  0  0  0  0  0  0  0  0  0  0
  148.0631  139.8769  153.2483 H   0  0  0  0  0  0  0  0  0  0  0  0
  148.5184  139.4765  154.8992 H   0  0  0  0  0  0  0  0  0  0  0  0
  1  2  1  0  0  0  0
  1 20  1  0  0  0  0
  1 21  1  0  0  0  0
  1 22  1  0  0  0  0
  2  3  1  0  0  0  0
  2  9  1  0  0  0  0
  2 23  1  0  0  0  0
  3  4  1  0  0  0  0
  3 24  1  0  0  0  0
  3 25  1  0  0  0  0
  4  8  1  0  0  0  0
  4  5  1  0  0  0  0
  5  6  2  0  0  0  0
  5 26  1  0  0  0  0
  6  7  1  0  0  0  0
  6 27  1  0  0  0  0
  7  8  2  0  0  0  0
  7 28  1  0  0  0  0
  9 10  1  0  0  0  0
  9 29  1  0  0  0  0
 10 11  2  0  0  0  0
 10 12  1  0  0  0  0
 12 13  1  0  0  0  0
 12 30  1  0  0  0  0
 13 18  1  0  0  0  0
 13 14  1  0  0  0  0
 13 31  1  0  0  0  0
 14 15  1  0  0  0  0
 14 32  1  0  0  0  0
 14 33  1  0  0  0  0
 15 16  1  0  0  0  0
 15 34  1  0  0  0  0
 15 35  1  0  0  0  0
 16 17  1  0  0  0  0
 16 36  1  0  0  0  0
 16 37  1  0  0  0  0
 17 18  1  0  0  0  0
 17 38  1  0  0  0  0
 17 39  1  0  0  0  0
 18 19  1  0  0  0  0
 18 40  1  0  0  0  0
 19 41  1  0  0  0  0
 19 42  1  0  0  0  0
 19 43  1  0  0  0  0
M  END
> <s_m_source_file>
AV-unprocessed.smi

> <i_m_source_file_index>
1840

> <i_lp_mmshare_version>
43012

> <i_f3d_flags>
0

> <s_epik_input>
bjFbY0hdW2NIXVtjSF1uMVtDSDJdW0NAQEhdKFtDSDNdKVtOSF1DKD1PKVtOSF1bQ0BASF0yW0NIMl1bQ0gyXVtDSDJdW0NIMl1bQ0BIXTJbQ0gzXQ==

> <s_epik_cmdline>
J2VwaWtfcHl0aG9uJywgJy1waCcsICc3LjAnLCAnLXRuJywgJzgnLCAnLW1hJywgJzIwMCcsICctbWV0YWxfYmluZGluZycsICctaW1hZScsICc8aW5maWxlLm1hZT4nLCAnLW9tYWUnLCAnPG91dGZpbGUubWFlPic=

> <r_lp_tautomer_probability>
1

> <r_epik_Ionization_Penalty>
7.38659e-05

> <r_epik_Ionization_Penalty_Charging>
0

> <r_epik_Ionization_Penalty_Neutral>
7.38659e-05

> <r_epik_State_Penalty>
-0

> <r_epik_Charging_Adjusted_Penalty>
0

> <i_epik_Tot_Q>
0

> <i_epik_Tot_abs_Q>
0

> <r_epik_Metal_State_Penalty>
-0

> <b_epik_Metal_Only>
0

> <s_lp_Force_Field>
OPLS_2005

> <r_lp_Energy>
6.83703

> <b_lp_Chiralities_Consistent>
1

> <s_lp_Variant>
AV-unprocessed.smi:1840-4

> <Gold.Version>
5.8.1

> <Gold.Id.Protein>
6NUR|6NUR_protein|mol2

> <Gold.PLP.Fitness>
46.3365

> <Gold.PLP.PLP>
-40.1026

> <Gold.PLP.part.hbond>
-2.9949

> <Gold.PLP.part.metal>
0.0000

> <Gold.PLP.part.buried>
-5.4115

> <Gold.PLP.part.nonpolar>
-33.5875

> <Gold.PLP.part.repulsive>
0.2130

> <Gold.PLP.ligand.clash>
0.0000

> <Gold.PLP.ligand.torsion>
0.4882

> <Gold.PLP.Chemscore.Hbond>
2.3904

> <Gold.PLP.Chemscore.CHOScore>
0.0000

> <Gold.PLP.Chemscore.Metal>
0.0000

> <Gold.Chemscore.Hbonds>
donor molecule, donor type, donor heavy atom, donor atom, acceptor molecule, acceptor atom, score
      L1  H     9    29       P1  8028  0.77
      L1  H    12    30       P1  8028  0.89
      P1  H  6933  6945       L1     8  0.21

> <Gold.PLP.Chemscore.Internal.Correction>
0.0391

> <Gold.Rescore>
     Score         DG    S(hbond)    S(metal)    S(lipo)     H(rot)  DE(clash)    DE(int)     intcor
     21.26     -21.69       2.59        0.00      98.57       1.56       0.06       0.37       ----

> <Gold.Chemscore.Fitness>
21.2624

> <Gold.Chemscore.DG>
-21.6917

> <Gold.Chemscore.ZeroCoef>
-5.4800

> <Gold.Chemscore.Hbond>
2.5949

> <Gold.Chemscore.Metal>
0.0000

> <Gold.Chemscore.Lipo>
98.5654

> <Gold.Chemscore.Internal_Hbond>
0.0000

> <Gold.Chemscore.DEClash>
0.0581

> <Gold.Chemscore.DEInternal>
0.3713

> <Gold.Chemscore.Rot>
1.5576

> <Gold.Chemscore.Internal.Correction>
   9.000000E+99

> <Gold.Chemscore.Hbonds>
donor molecule, donor type, donor heavy atom, donor atom, acceptor molecule, acceptor atom, score
      L1  H     9    29       P1  8028  0.76
      L1  H    12    30       P1  8028  0.82
      P1  H  6933  6945       L1     8  0.03

> <Gold.Chemscore.Hbond.Weighted>
-8.6671

> <Gold.Chemscore.Metal.Weighted>
-0.0000

> <Gold.Chemscore.Lipo.Weighted>
-11.5322

> <Gold.Chemscore.Internal_Hbond.Weighted>
0.0000

> <Gold.Chemscore.DEClash.Weighted>
0.0581

> <Gold.Chemscore.DEInternal.Weighted>
0.3713

> <Gold.Chemscore.Rot.Weighted>
3.9875

> <Gold.Chemscore.Internal.Correction.Weighted>
   9.000000E+99

> <Gold.Protein.RotatedTorsions>
[ 6907 6896 6895 6894 ] final   88.68 input  -60.11 | X-H torsion
[ 7974 7965 7964 7962 ] final -155.93 input  175.53 | X-H torsion
[ 8008 7997 7996 7995 ] final -154.98 input   59.86 | X-H torsion
[ 10167 10162 10161 10158 ] final  128.65 input  -65.29 | X-H torsion
[ 10718 10713 10712 10709 ] final  155.56 input   66.30 | X-H torsion
[ 10763 10752 10751 10750 ] final   89.98 input  -60.55 | X-H torsion
[ 11005 11000 10999 10996 ] final  172.56 input  -57.11 | X-H torsion

> <Gold.Protein.ActiveResidues>
 VAL166  LYS551  ARG553  GLY616  TRP617  ASP618  TYR619  PRO620  LYS621  CYS622 
 ASP623  PHE694  ASN695  SER759  ASP760  ASP761  ALA762  ILE779  LEU786  VAL792 
 PHE793  MET794  SER795  GLU796  ALA797  LYS798  CYS799  TRP800  GLU811  SER814 

> <Gold.Protein.RotatedAtoms>
  152.5428  134.2084  159.8739 H   0  0  0  0  0  0  0  0  0  0  0  0  # atno 6907 bound_to 6896
  151.2068  133.4572  159.2605 H   0  0  0  0  0  0  0  0  0  0  0  0  # atno 6908 bound_to 6896
  151.0935  134.9943  159.8470 H   0  0  0  0  0  0  0  0  0  0  0  0  # atno 6909 bound_to 6896
  144.7617  140.4181  143.5972 H   0  0  0  0  0  0  0  0  0  0  0  0  # atno 7974 bound_to 7965
  155.6948  140.0759  157.2434 H   0  0  0  0  0  0  0  0  0  0  0  0  # atno 8008 bound_to 7997
  154.4082  140.1658  156.2178 H   0  0  0  0  0  0  0  0  0  0  0  0  # atno 8009 bound_to 7997
  155.9420  140.3384  155.6338 H   0  0  0  0  0  0  0  0  0  0  0  0  # atno 8010 bound_to 7997
  139.5516  144.6817  151.4306 H   0  0  0  0  0  0  0  0  0  0  0  0  # atno 10167 bound_to 10162
  157.2167  131.0709  151.1937 H   0  0  0  0  0  0  0  0  0  0  0  0  # atno 10718 bound_to 10713
  153.1928  135.4450  155.0170 H   0  0  0  0  0  0  0  0  0  0  0  0  # atno 10763 bound_to 10752
  154.8100  135.3290  154.7332 H   0  0  0  0  0  0  0  0  0  0  0  0  # atno 10764 bound_to 10752
  153.7784  135.6979  153.4948 H   0  0  0  0  0  0  0  0  0  0  0  0  # atno 10765 bound_to 10752
  140.3310  134.7357  157.4134 H   0  0  0  0  0  0  0  0  0  0  0  0  # atno 11005 bound_to 11000
  145.6599  139.1579  143.2814 LP  0  0  0  0  0  0  0  0  0  0  0  0  # atno 17320 bound_to 7965
  146.1686  140.6681  142.9244 LP  0  0  0  0  0  0  0  0  0  0  0  0  # atno 17321 bound_to 7965
  140.6780  143.8146  150.7084 LP  0  0  0  0  0  0  0  0  0  0  0  0  # atno 17342 bound_to 10162
  140.1591  143.4291  152.2079 LP  0  0  0  0  0  0  0  0  0  0  0  0  # atno 17343 bound_to 10162
  157.3618  130.7135  149.6506 LP  0  0  0  0  0  0  0  0  0  0  0  0  # atno 17370 bound_to 10713
  155.9686  130.4223  150.4511 LP  0  0  0  0  0  0  0  0  0  0  0  0  # atno 17371 bound_to 10713
  140.0861  134.5665  155.8491 LP  0  0  0  0  0  0  0  0  0  0  0  0  # atno 17394 bound_to 11000
  141.2063  133.6654  156.6235 LP  0  0  0  0  0  0  0  0  0  0  0  0  # atno 17395 bound_to 11000

$$$$
