AV-unprocessed.smi:3338|AV-procd|sdf|12871|dock3
  -GOLD-   2272019273D 1   1.00000     0.00000
 Structure written by MMmdl.
 44 45  0  0  0  0  0  0  0  0  2 V2000
  146.7548  133.4174  150.8033 C   0  0  0  0  0  0  0  0  0  0  0  0
  145.7889  133.4338  152.0011 C   0  0  2  0  0  0  0  0  0  0  0  0
  144.7845  134.5995  151.9428 C   0  0  0  0  0  0  0  0  0  0  0  0
  145.4609  135.9347  152.2840 C   0  0  0  0  0  0  0  0  0  0  0  0
  146.2027  135.8508  153.6272 C   0  0  0  0  0  0  0  0  0  0  0  0
  147.1878  134.7386  153.6261 N   0  3  1  0  0  0  0  0  0  0  0  0
  148.0279  134.7279  154.8498 C   0  0  0  0  0  0  0  0  0  0  0  0
  147.2105  134.4043  156.1153 C   0  0  0  0  0  0  0  0  0  0  0  0
  147.3309  135.4570  157.1166 N   0  0  0  0  0  0  0  0  0  0  0  0
  148.2824  135.5136  158.0622 C   0  0  0  0  0  0  0  0  0  0  0  0
  149.1802  134.6756  158.1565 O   0  0  0  0  0  0  0  0  0  0  0  0
  148.2028  136.6986  159.0393 C   0  0  2  0  0  0  0  0  0  0  0  0
  149.5257  137.4842  159.1407 C   0  0  0  0  0  0  0  0  0  0  0  0
  147.7358  136.2532  160.3472 N   0  0  0  0  0  0  0  0  0  0  0  0
  147.4918  134.9614  160.7673 C   0  0  0  0  0  0  0  0  0  0  0  0
  147.0977  135.0217  162.0732 C   0  0  0  0  0  0  0  0  0  0  0  0
  147.1365  136.4115  162.3740 C   0  0  0  0  0  0  0  0  0  0  0  0
  147.5236  137.1446  161.3434 N   0  0  0  0  0  0  0  0  0  0  0  0
  146.5347  133.4298  153.3516 C   0  0  0  0  0  0  0  0  0  0  0  0
  147.3989  134.2965  150.7852 H   0  0  0  0  0  0  0  0  0  0  0  0
  146.2082  133.3876  149.8603 H   0  0  0  0  0  0  0  0  0  0  0  0
  147.4000  132.5389  150.8346 H   0  0  0  0  0  0  0  0  0  0  0  0
  145.2142  132.5083  151.9428 H   0  0  0  0  0  0  0  0  0  0  0  0
  144.3136  134.6528  150.9605 H   0  0  0  0  0  0  0  0  0  0  0  0
  143.9802  134.4160  152.6566 H   0  0  0  0  0  0  0  0  0  0  0  0
  146.1597  136.2117  151.4940 H   0  0  0  0  0  0  0  0  0  0  0  0
  144.7145  136.7287  152.3219 H   0  0  0  0  0  0  0  0  0  0  0  0
  146.7127  136.7978  153.8089 H   0  0  0  0  0  0  0  0  0  0  0  0
  145.4928  135.7107  154.4439 H   0  0  0  0  0  0  0  0  0  0  0  0
  148.8034  133.9687  154.7398 H   0  0  0  0  0  0  0  0  0  0  0  0
  148.5466  135.6822  154.9542 H   0  0  0  0  0  0  0  0  0  0  0  0
  146.1518  134.3019  155.8803 H   0  0  0  0  0  0  0  0  0  0  0  0
  147.5269  133.4506  156.5415 H   0  0  0  0  0  0  0  0  0  0  0  0
  146.6277  136.1818  157.1079 H   0  0  0  0  0  0  0  0  0  0  0  0
  147.4510  137.3850  158.6459 H   0  0  0  0  0  0  0  0  0  0  0  0
  149.8292  137.8715  158.1674 H   0  0  0  0  0  0  0  0  0  0  0  0
  150.3406  136.8665  159.5204 H   0  0  0  0  0  0  0  0  0  0  0  0
  149.4200  138.3370  159.8117 H   0  0  0  0  0  0  0  0  0  0  0  0
  147.6176  134.1146  160.1089 H   0  0  0  0  0  0  0  0  0  0  0  0
  146.8250  134.1985  162.7166 H   0  0  0  0  0  0  0  0  0  0  0  0
  146.9000  136.9059  163.3047 H   0  0  0  0  0  0  0  0  0  0  0  0
  145.8332  133.2087  154.1578 H   0  0  0  0  0  0  0  0  0  0  0  0
  147.2690  132.6248  153.3540 H   0  0  0  0  0  0  0  0  0  0  0  0
  147.8134  134.9233  152.8549 H   0  0  0  0  0  0  0  0  0  0  0  0
  1  2  1  0  0  0  0
  1 20  1  0  0  0  0
  1 21  1  0  0  0  0
  1 22  1  0  0  0  0
  2 19  1  0  0  0  0
  2  3  1  0  0  0  0
  2 23  1  0  0  0  0
  3  4  1  0  0  0  0
  3 24  1  0  0  0  0
  3 25  1  0  0  0  0
  4  5  1  0  0  0  0
  4 26  1  0  0  0  0
  4 27  1  0  0  0  0
  5  6  1  0  0  0  0
  5 28  1  0  0  0  0
  5 29  1  0  0  0  0
  6  7  1  0  0  0  0
  6 19  1  0  0  0  0
  6 44  1  0  0  0  0
  7  8  1  0  0  0  0
  7 30  1  0  0  0  0
  7 31  1  0  0  0  0
  8  9  1  0  0  0  0
  8 32  1  0  0  0  0
  8 33  1  0  0  0  0
  9 10  1  0  0  0  0
  9 34  1  0  0  0  0
 10 11  2  0  0  0  0
 10 12  1  0  0  0  0
 12 13  1  0  0  0  0
 12 14  1  0  0  0  0
 12 35  1  0  0  0  0
 13 36  1  0  0  0  0
 13 37  1  0  0  0  0
 13 38  1  0  0  0  0
 14 18  1  0  0  0  0
 14 15  1  0  0  0  0
 15 16  2  0  0  0  0
 15 39  1  0  0  0  0
 16 17  1  0  0  0  0
 16 40  1  0  0  0  0
 17 18  2  0  0  0  0
 17 41  1  0  0  0  0
 19 42  1  0  0  0  0
 19 43  1  0  0  0  0
M  CHG  1   6   1
M  END
> <s_m_source_file>
AV-unprocessed.smi

> <i_m_source_file_index>
3338

> <i_lp_mmshare_version>
43012

> <i_f3d_flags>
0

> <s_epik_input>
W0NIM11bQ0BASF0xW0NIMl1bQ0gyXVtDSDJdTihbQ0gyXTEpW0NIMl1bQ0gyXVtOSF1DKD1PKVtDQEhdKFtDSDNdKW4yW2NIXVtjSF1bY0hdbjI=

> <s_epik_cmdline>
J2VwaWtfcHl0aG9uJywgJy1waCcsICc3LjAnLCAnLXRuJywgJzgnLCAnLW1hJywgJzIwMCcsICctbWV0YWxfYmluZGluZycsICctaW1hZScsICc8aW5maWxlLm1hZT4nLCAnLW9tYWUnLCAnPG91dGZpbGUubWFlPic=

> <r_lp_tautomer_probability>
1

> <r_epik_Ionization_Penalty>
0.00225707

> <r_epik_Ionization_Penalty_Charging>
0.00223709

> <r_epik_Ionization_Penalty_Neutral>
1.99775e-05

> <r_epik_State_Penalty>
0.00153978

> <r_epik_Charging_Adjusted_Penalty>
0.00377687

> <i_epik_Tot_Q>
1

> <i_epik_Tot_abs_Q>
1

> <r_epik_Metal_State_Penalty>
-0

> <b_epik_Metal_Only>
0

> <s_lp_Force_Field>
OPLS_2005

> <r_lp_Energy>
22.4515

> <b_lp_Chiralities_Consistent>
1

> <s_lp_Variant>
AV-unprocessed.smi:3338-3

> <Gold.Version>
5.8.1

> <Gold.Id.Protein>
6NUR|6NUR_protein|mol2

> <Gold.PLP.Fitness>
41.7648

> <Gold.PLP.PLP>
-28.7979

> <Gold.PLP.part.hbond>
-4.0000

> <Gold.PLP.part.metal>
0.0000

> <Gold.PLP.part.buried>
-4.3748

> <Gold.PLP.part.nonpolar>
-20.3920

> <Gold.PLP.part.repulsive>
0.0000

> <Gold.PLP.ligand.clash>
0.0000

> <Gold.PLP.ligand.torsion>
0.8198

> <Gold.PLP.Chemscore.Hbond>
4.8160

> <Gold.PLP.Chemscore.CHOScore>
0.0000

> <Gold.PLP.Chemscore.Metal>
0.0000

> <Gold.Chemscore.Hbonds>
donor molecule, donor type, donor heavy atom, donor atom, acceptor molecule, acceptor atom, score
      L1  H     6    44       P1  7948  2.00
      P1  H  6896  6909       L1    11  1.00
      P1  H  6931  6943       L1    18  0.94
      P1  H  6934  6947       L1    18  0.91

> <Gold.PLP.Chemscore.Internal.Correction>
0.1585

> <Gold.Rescore>
     Score         DG    S(hbond)    S(metal)    S(lipo)     H(rot)  DE(clash)    DE(int)     intcor
     19.00     -19.94       3.52        0.00      61.49       1.76       0.01       0.93       ----

> <Gold.Chemscore.Fitness>
18.9984

> <Gold.Chemscore.DG>
-19.9362

> <Gold.Chemscore.ZeroCoef>
-5.4800

> <Gold.Chemscore.Hbond>
3.5208

> <Gold.Chemscore.Metal>
0.0000

> <Gold.Chemscore.Lipo>
61.4922

> <Gold.Chemscore.Internal_Hbond>
0.0000

> <Gold.Chemscore.DEClash>
0.0052

> <Gold.Chemscore.DEInternal>
0.9326

> <Gold.Chemscore.Rot>
1.7570

> <Gold.Chemscore.Internal.Correction>
   9.000000E+99

> <Gold.Chemscore.Hbonds>
donor molecule, donor type, donor heavy atom, donor atom, acceptor molecule, acceptor atom, score
      L1  H     6    44       P1  7948  0.90
      P1  H  6896  6909       L1    11  0.98
      P1  H  6931  6943       L1    18  0.56
      P1  H  6934  6947       L1    18  0.86

> <Gold.Chemscore.Hbond.Weighted>
-11.7594

> <Gold.Chemscore.Metal.Weighted>
-0.0000

> <Gold.Chemscore.Lipo.Weighted>
-7.1946

> <Gold.Chemscore.Internal_Hbond.Weighted>
0.0000

> <Gold.Chemscore.DEClash.Weighted>
0.0052

> <Gold.Chemscore.DEInternal.Weighted>
0.9326

> <Gold.Chemscore.Rot.Weighted>
4.4979

> <Gold.Chemscore.Internal.Correction.Weighted>
   9.000000E+99

> <Gold.Protein.RotatedTorsions>
[ 6907 6896 6895 6894 ] final   24.23 input  -60.11 | X-H torsion
[ 7974 7965 7964 7962 ] final  -18.59 input  175.53 | X-H torsion
[ 8008 7997 7996 7995 ] final  100.15 input   59.86 | X-H torsion
[ 10167 10162 10161 10158 ] final  -21.01 input  -65.29 | X-H torsion
[ 10718 10713 10712 10709 ] final  -21.77 input   66.30 | X-H torsion
[ 10763 10752 10751 10750 ] final  -39.15 input  -60.55 | X-H torsion
[ 11005 11000 10999 10996 ] final    3.51 input  -57.11 | X-H torsion

> <Gold.Protein.ActiveResidues>
 VAL166  LYS551  ARG553  GLY616  TRP617  ASP618  TYR619  PRO620  LYS621  CYS622 
 ASP623  PHE694  ASN695  SER759  ASP760  ASP761  ALA762  ILE779  LEU786  VAL792 
 PHE793  MET794  SER795  GLU796  ALA797  LYS798  CYS799  TRP800  GLU811  SER814 

> <Gold.Protein.RotatedAtoms>
  151.9543  135.0154  160.0543 H   0  0  0  0  0  0  0  0  0  0  0  0  # atno 6907 bound_to 6896
  152.1925  133.4779  159.5024 H   0  0  0  0  0  0  0  0  0  0  0  0  # atno 6908 bound_to 6896
  150.6938  134.1611  159.4219 H   0  0  0  0  0  0  0  0  0  0  0  0  # atno 6909 bound_to 6896
  146.1884  140.3943  142.8467 H   0  0  0  0  0  0  0  0  0  0  0  0  # atno 7974 bound_to 7965
  156.1175  140.3217  155.8161 H   0  0  0  0  0  0  0  0  0  0  0  0  # atno 8008 bound_to 7997
  155.4563  140.0536  157.3013 H   0  0  0  0  0  0  0  0  0  0  0  0  # atno 8009 bound_to 7997
  154.4803  140.2050  155.9792 H   0  0  0  0  0  0  0  0  0  0  0  0  # atno 8010 bound_to 7997
  140.7279  143.4668  151.0302 H   0  0  0  0  0  0  0  0  0  0  0  0  # atno 10167 bound_to 10162
  156.5137  130.4616  149.6634 H   0  0  0  0  0  0  0  0  0  0  0  0  # atno 10718 bound_to 10713
  153.9246  135.6778  153.4747 H   0  0  0  0  0  0  0  0  0  0  0  0  # atno 10763 bound_to 10752
  153.1010  135.4828  154.8865 H   0  0  0  0  0  0  0  0  0  0  0  0  # atno 10764 bound_to 10752
  154.7460  135.3172  154.8601 H   0  0  0  0  0  0  0  0  0  0  0  0  # atno 10765 bound_to 10752
  140.5923  133.9913  155.8094 H   0  0  0  0  0  0  0  0  0  0  0  0  # atno 11005 bound_to 11000
  144.8441  140.6901  143.6211 LP  0  0  0  0  0  0  0  0  0  0  0  0  # atno 17320 bound_to 7965
  145.3867  139.1625  143.4251 LP  0  0  0  0  0  0  0  0  0  0  0  0  # atno 17321 bound_to 7965
  139.8357  143.7631  152.3180 LP  0  0  0  0  0  0  0  0  0  0  0  0  # atno 17342 bound_to 10162
  139.7762  144.7460  151.0153 LP  0  0  0  0  0  0  0  0  0  0  0  0  # atno 17343 bound_to 10162
  156.3216  130.7283  151.2196 LP  0  0  0  0  0  0  0  0  0  0  0  0  # atno 17370 bound_to 10713
  157.7447  131.0454  150.4841 LP  0  0  0  0  0  0  0  0  0  0  0  0  # atno 17371 bound_to 10713
  141.0927  133.9892  157.3211 LP  0  0  0  0  0  0  0  0  0  0  0  0  # atno 17394 bound_to 11000
  139.9269  135.0201  156.8264 LP  0  0  0  0  0  0  0  0  0  0  0  0  # atno 17395 bound_to 11000

$$$$
