AV-unprocessed.smi:2881|AV-procd|sdf|11064|dock2
  -GOLD-   2272015533D 1   1.00000     0.00000
 Structure written by MMmdl.
 40 42  0  0  0  0  0  0  0  0  1 V2000
  143.7438  132.6290  148.6948 C   0  0  0  0  0  0  0  0  0  0  0  0
  144.8726  132.6927  149.6807 C   0  0  0  0  0  0  0  0  0  0  0  0
  145.0372  133.5942  150.7729 C   0  0  0  0  0  0  0  0  0  0  0  0
  146.2206  133.2194  151.3455 C   0  0  0  0  0  0  0  0  0  0  0  0
  146.9632  133.7637  152.5263 C   0  0  0  0  0  0  0  0  0  0  0  0
  146.1908  134.8626  153.2656 C   0  0  0  0  0  0  0  0  0  0  0  0
  145.0583  134.6595  153.7061 O   0  0  0  0  0  0  0  0  0  0  0  0
  146.8260  136.0387  153.3806 N   0  0  0  0  0  0  0  0  0  0  0  0
  146.2958  137.2404  154.0281 C   0  0  1  0  0  0  0  0  0  0  0  0
  147.1142  137.6376  155.2827 C   0  0  1  0  0  0  0  0  0  0  0  0
  148.6265  137.6873  154.9765 C   0  0  0  0  0  0  0  0  0  0  0  0
  148.7412  138.9180  154.0592 C   0  0  0  0  0  0  0  0  0  0  0  0
  147.2913  139.4450  154.0046 C   0  0  2  0  0  0  0  0  0  0  0  0
  146.8022  139.1250  155.4122 C   0  0  0  0  0  0  0  0  0  0  0  0
  146.3765  138.5300  153.1574 C   0  0  1  0  0  0  0  0  0  0  0  0
  146.7923  138.3957  151.6746 C   0  0  0  0  0  0  0  0  0  0  0  0
  146.1433  137.2939  151.0754 O   0  0  0  0  0  0  0  0  0  0  0  0
  146.6892  132.1620  150.5979 N   0  0  0  0  0  0  0  0  0  0  0  0
  145.8734  131.8307  149.5801 N   0  0  0  0  0  0  0  0  0  0  0  0
  147.5481  131.6602  150.7730 H   0  0  0  0  0  0  0  0  0  0  0  0
  143.0595  133.4676  148.8252 H   0  0  0  0  0  0  0  0  0  0  0  0
  143.1694  131.7102  148.8160 H   0  0  0  0  0  0  0  0  0  0  0  0
  144.1136  132.6597  147.6697 H   0  0  0  0  0  0  0  0  0  0  0  0
  144.3834  134.3936  151.0889 H   0  0  0  0  0  0  0  0  0  0  0  0
  147.9203  134.1741  152.2025 H   0  0  0  0  0  0  0  0  0  0  0  0
  147.1906  132.9547  153.2217 H   0  0  0  0  0  0  0  0  0  0  0  0
  147.7530  136.1124  152.9872 H   0  0  0  0  0  0  0  0  0  0  0  0
  145.2581  137.0801  154.3275 H   0  0  0  0  0  0  0  0  0  0  0  0
  146.8719  137.0436  156.1643 H   0  0  0  0  0  0  0  0  0  0  0  0
  149.1929  137.8481  155.8947 H   0  0  0  0  0  0  0  0  0  0  0  0
  149.0159  136.7795  154.5166 H   0  0  0  0  0  0  0  0  0  0  0  0
  149.4027  139.6608  154.5066 H   0  0  0  0  0  0  0  0  0  0  0  0
  149.1459  138.6732  153.0780 H   0  0  0  0  0  0  0  0  0  0  0  0
  147.2219  140.4981  153.7305 H   0  0  0  0  0  0  0  0  0  0  0  0
  145.7416  139.3340  155.5638 H   0  0  0  0  0  0  0  0  0  0  0  0
  147.3769  139.6229  156.1955 H   0  0  0  0  0  0  0  0  0  0  0  0
  145.3871  138.9924  153.1640 H   0  0  0  0  0  0  0  0  0  0  0  0
  146.5013  139.2917  151.1256 H   0  0  0  0  0  0  0  0  0  0  0  0
  147.8700  138.2868  151.5554 H   0  0  0  0  0  0  0  0  0  0  0  0
  145.2778  137.5622  150.8072 H   0  0  0  0  0  0  0  0  0  0  0  0
  1 21  1  0  0  0  0
  1 22  1  0  0  0  0
  1 23  1  0  0  0  0
  1  2  1  0  0  0  0
  2 19  2  0  0  0  0
  2  3  1  0  0  0  0
  3  4  2  0  0  0  0
  3 24  1  0  0  0  0
  4 18  1  0  0  0  0
  4  5  1  0  0  0  0
  5  6  1  0  0  0  0
  5 25  1  0  0  0  0
  5 26  1  0  0  0  0
  6  7  2  0  0  0  0
  6  8  1  0  0  0  0
  8  9  1  0  0  0  0
  8 27  1  0  0  0  0
  9 15  1  0  0  0  0
  9 10  1  0  0  0  0
  9 28  1  0  0  0  0
 10 14  1  0  0  0  0
 10 11  1  0  0  0  0
 10 29  1  0  0  0  0
 11 12  1  0  0  0  0
 11 30  1  0  0  0  0
 11 31  1  0  0  0  0
 12 13  1  0  0  0  0
 12 32  1  0  0  0  0
 12 33  1  0  0  0  0
 13 14  1  0  0  0  0
 13 15  1  0  0  0  0
 13 34  1  0  0  0  0
 14 35  1  0  0  0  0
 14 36  1  0  0  0  0
 15 16  1  0  0  0  0
 15 37  1  0  0  0  0
 16 17  1  0  0  0  0
 16 38  1  0  0  0  0
 16 39  1  0  0  0  0
 17 40  1  0  0  0  0
 18 19  1  0  0  0  0
 18 20  1  0  0  0  0
M  END
> <s_m_source_file>
AV-unprocessed.smi

> <i_m_source_file_index>
2881

> <i_lp_mmshare_version>
43012

> <i_f3d_flags>
0

> <s_epik_input>
W0NIM11jMVtjSF1jKG5bbkhdMSlbQ0gyXUMoPU8pW05IXVtDQEhdKFtDQEBIXTIzKVtDQEhdKFtDSDJdW09IXSlbQ0BASF0oW0NIMl0zKVtDSDJdW0NIMl0y

> <s_epik_cmdline>
J2VwaWtfcHl0aG9uJywgJy1waCcsICc3LjAnLCAnLXRuJywgJzgnLCAnLW1hJywgJzIwMCcsICctbWV0YWxfYmluZGluZycsICctaW1hZScsICc8aW5maWxlLm1hZT4nLCAnLW9tYWUnLCAnPG91dGZpbGUubWFlPic=

> <r_lp_tautomer_probability>
0.5

> <r_epik_Ionization_Penalty>
0.00013396

> <r_epik_Ionization_Penalty_Charging>
0

> <r_epik_Ionization_Penalty_Neutral>
0.00013396

> <r_epik_State_Penalty>
0.41068

> <r_epik_Charging_Adjusted_Penalty>
0.41068

> <i_epik_Tot_Q>
0

> <i_epik_Tot_abs_Q>
0

> <r_epik_Metal_State_Penalty>
0.41066

> <b_epik_Metal_Only>
0

> <s_lp_Force_Field>
OPLS_2005

> <r_lp_Energy>
49.8973

> <b_lp_Chiralities_Consistent>
1

> <s_lp_Variant>
AV-unprocessed.smi:2881-10

> <Gold.Version>
5.8.1

> <Gold.Id.Protein>
6NUR|6NUR_protein|mol2

> <Gold.PLP.Fitness>
37.2729

> <Gold.PLP.PLP>
-28.6770

> <Gold.PLP.part.hbond>
-3.8812

> <Gold.PLP.part.metal>
0.0000

> <Gold.PLP.part.buried>
-2.4561

> <Gold.PLP.part.nonpolar>
-21.8444

> <Gold.PLP.part.repulsive>
0.3495

> <Gold.PLP.ligand.clash>
0.0000

> <Gold.PLP.ligand.torsion>
0.2095

> <Gold.PLP.Chemscore.Hbond>
3.0000

> <Gold.PLP.Chemscore.CHOScore>
0.0000

> <Gold.PLP.Chemscore.Metal>
0.0000

> <Gold.Chemscore.Hbonds>
donor molecule, donor type, donor heavy atom, donor atom, acceptor molecule, acceptor atom, score
      L1  H     8    27       P1  7948  1.00
      L1  H    17    40       P1 10171  1.00
      L1  H    18    20       P1 10747  1.00

> <Gold.PLP.Chemscore.Internal.Correction>
0.0149

> <Gold.Rescore>
     Score         DG    S(hbond)    S(metal)    S(lipo)     H(rot)  DE(clash)    DE(int)     intcor
     16.89     -18.51       2.96        0.00      76.76       2.28       0.19       1.44       ----

> <Gold.Chemscore.Fitness>
16.8860

> <Gold.Chemscore.DG>
-18.5077

> <Gold.Chemscore.ZeroCoef>
-5.4800

> <Gold.Chemscore.Hbond>
2.9558

> <Gold.Chemscore.Metal>
0.0000

> <Gold.Chemscore.Lipo>
76.7569

> <Gold.Chemscore.Internal_Hbond>
0.0000

> <Gold.Chemscore.DEClash>
0.1853

> <Gold.Chemscore.DEInternal>
1.4365

> <Gold.Chemscore.Rot>
2.2755

> <Gold.Chemscore.Internal.Correction>
   9.000000E+99

> <Gold.Chemscore.Hbonds>
donor molecule, donor type, donor heavy atom, donor atom, acceptor molecule, acceptor atom, score
      L1  H     8    27       P1  7948  0.99
      L1  H    17    40       P1 10171  0.95
      L1  H    18    20       P1 10747  0.97

> <Gold.Chemscore.Hbond.Weighted>
-9.8724

> <Gold.Chemscore.Metal.Weighted>
-0.0000

> <Gold.Chemscore.Lipo.Weighted>
-8.9806

> <Gold.Chemscore.Internal_Hbond.Weighted>
0.0000

> <Gold.Chemscore.DEClash.Weighted>
0.1853

> <Gold.Chemscore.DEInternal.Weighted>
1.4365

> <Gold.Chemscore.Rot.Weighted>
5.8252

> <Gold.Chemscore.Internal.Correction.Weighted>
   9.000000E+99

> <Gold.Protein.RotatedTorsions>
[ 6907 6896 6895 6894 ] final  147.05 input  -60.11 | X-H torsion
[ 7974 7965 7964 7962 ] final  142.43 input  175.53 | X-H torsion
[ 8008 7997 7996 7995 ] final -114.84 input   59.86 | X-H torsion
[ 10167 10162 10161 10158 ] final  -97.40 input  -65.29 | X-H torsion
[ 10718 10713 10712 10709 ] final -177.86 input   66.30 | X-H torsion
[ 10763 10752 10751 10750 ] final -179.78 input  -60.55 | X-H torsion
[ 11005 11000 10999 10996 ] final   31.88 input  -57.11 | X-H torsion

> <Gold.Protein.ActiveResidues>
 VAL166  LYS551  ARG553  GLY616  TRP617  ASP618  TYR619  PRO620  LYS621  CYS622 
 ASP623  PHE694  ASN695  SER759  ASP760  ASP761  ALA762  ILE779  LEU786  VAL792 
 PHE793  MET794  SER795  GLU796  ALA797  LYS798  CYS799  TRP800  GLU811  SER814 

> <Gold.Protein.RotatedAtoms>
  152.1599  133.4575  159.4855 H   0  0  0  0  0  0  0  0  0  0  0  0  # atno 6907 bound_to 6896
  150.6905  134.2084  159.4358 H   0  0  0  0  0  0  0  0  0  0  0  0  # atno 6908 bound_to 6896
  151.9986  134.9940  160.0615 H   0  0  0  0  0  0  0  0  0  0  0  0  # atno 6909 bound_to 6896
  144.9008  139.5425  143.5754 H   0  0  0  0  0  0  0  0  0  0  0  0  # atno 7974 bound_to 7965
  155.0427  140.0392  157.2515 H   0  0  0  0  0  0  0  0  0  0  0  0  # atno 8008 bound_to 7997
  154.7203  140.2710  155.6523 H   0  0  0  0  0  0  0  0  0  0  0  0  # atno 8009 bound_to 7997
  156.2815  140.2704  156.1873 H   0  0  0  0  0  0  0  0  0  0  0  0  # atno 8010 bound_to 7997
  140.2837  143.3265  152.0415 H   0  0  0  0  0  0  0  0  0  0  0  0  # atno 10167 bound_to 10162
  156.8357  130.9669  151.3103 H   0  0  0  0  0  0  0  0  0  0  0  0  # atno 10718 bound_to 10713
  154.5307  135.2799  155.1183 H   0  0  0  0  0  0  0  0  0  0  0  0  # atno 10763 bound_to 10752
  154.2704  135.6305  153.5311 H   0  0  0  0  0  0  0  0  0  0  0  0  # atno 10764 bound_to 10752
  152.9956  135.5627  154.5820 H   0  0  0  0  0  0  0  0  0  0  0  0  # atno 10765 bound_to 10752
  140.2793  134.2991  155.7805 H   0  0  0  0  0  0  0  0  0  0  0  0  # atno 11005 bound_to 11000
  146.3107  139.7737  142.9022 LP  0  0  0  0  0  0  0  0  0  0  0  0  # atno 17320 bound_to 7965
  145.3619  141.0327  143.3280 LP  0  0  0  0  0  0  0  0  0  0  0  0  # atno 17321 bound_to 7965
  139.4956  144.6573  151.6543 LP  0  0  0  0  0  0  0  0  0  0  0  0  # atno 17342 bound_to 10162
  140.5790  143.9979  150.6257 LP  0  0  0  0  0  0  0  0  0  0  0  0  # atno 17343 bound_to 10162
  157.6383  130.8784  149.9400 LP  0  0  0  0  0  0  0  0  0  0  0  0  # atno 17370 bound_to 10713
  156.0909  130.3663  150.0397 LP  0  0  0  0  0  0  0  0  0  0  0  0  # atno 17371 bound_to 10713
  141.2165  133.7515  156.9456 LP  0  0  0  0  0  0  0  0  0  0  0  0  # atno 17394 bound_to 11000
  140.1298  134.9363  157.2322 LP  0  0  0  0  0  0  0  0  0  0  0  0  # atno 17395 bound_to 11000

$$$$
