AV-unprocessed.smi:2665|AV-procd|sdf|10331|dock3
  -GOLD-   2272014353D 1   1.00000     0.00000
 Structure written by MMmdl.
 29 30  0  0  0  0  0  0  0  0  2 V2000
  152.2499  145.2917  158.7678 C   0  0  0  0  0  0  0  0  0  0  0  0
  151.9337  143.8718  159.2495 C   0  0  1  0  0  0  0  0  0  0  0  0
  151.5914  142.9265  158.0816 C   0  0  0  0  0  0  0  0  0  0  0  0
  151.3863  141.5717  158.5781 N   0  0  0  0  0  0  0  0  0  0  0  0
  150.9509  140.6742  157.5929 C   0  0  0  0  0  0  0  0  0  0  0  0
  151.9103  140.0264  156.7876 C   0  0  0  0  0  0  0  0  0  0  0  0
  151.4757  139.1198  155.7937 C   0  0  0  0  0  0  0  0  0  0  0  0
  152.4618  138.4053  154.9111 C   0  0  0  0  0  0  0  0  0  0  0  0
  153.6324  138.8418  154.8377 O   0  0  0  0  0  0  0  0  0  0  0  0
  152.0831  137.3958  154.2760 O   0  5  0  0  0  0  0  0  0  0  0  0
  150.0859  138.9055  155.6553 C   0  0  0  0  0  0  0  0  0  0  0  0
  149.2062  139.6002  156.5071 C   0  0  0  0  0  0  0  0  0  0  0  0
  149.6199  140.4657  157.4559 N   0  0  0  0  0  0  0  0  0  0  0  0
  152.5216  141.0827  159.3494 C   0  0  0  0  0  0  0  0  0  0  0  0
  152.8488  142.0686  160.4835 C   0  0  0  0  0  0  0  0  0  0  0  0
  153.0754  143.3661  159.9389 O   0  0  0  0  0  0  0  0  0  0  0  0
  151.3990  145.7259  158.2423 H   0  0  0  0  0  0  0  0  0  0  0  0
  153.1019  145.2969  158.0874 H   0  0  0  0  0  0  0  0  0  0  0  0
  152.4900  145.9438  159.6079 H   0  0  0  0  0  0  0  0  0  0  0  0
  151.0912  143.9194  159.9420 H   0  0  0  0  0  0  0  0  0  0  0  0
  150.6901  143.2693  157.5719 H   0  0  0  0  0  0  0  0  0  0  0  0
  152.3993  142.9316  157.3483 H   0  0  0  0  0  0  0  0  0  0  0  0
  152.9621  140.2254  156.9354 H   0  0  0  0  0  0  0  0  0  0  0  0
  149.6930  138.2252  154.9137 H   0  0  0  0  0  0  0  0  0  0  0  0
  148.1392  139.4572  156.4235 H   0  0  0  0  0  0  0  0  0  0  0  0
  152.2922  140.0992  159.7616 H   0  0  0  0  0  0  0  0  0  0  0  0
  153.3891  140.9667  158.6980 H   0  0  0  0  0  0  0  0  0  0  0  0
  152.0382  142.1057  161.2131 H   0  0  0  0  0  0  0  0  0  0  0  0
  153.7430  141.7455  161.0165 H   0  0  0  0  0  0  0  0  0  0  0  0
  1  2  1  0  0  0  0
  1 17  1  0  0  0  0
  1 18  1  0  0  0  0
  1 19  1  0  0  0  0
  2 16  1  0  0  0  0
  2  3  1  0  0  0  0
  2 20  1  0  0  0  0
  3  4  1  0  0  0  0
  3 21  1  0  0  0  0
  3 22  1  0  0  0  0
  4  5  1  0  0  0  0
  4 14  1  0  0  0  0
  5 13  1  0  0  0  0
  5  6  2  0  0  0  0
  6  7  1  0  0  0  0
  6 23  1  0  0  0  0
  7  8  1  0  0  0  0
  7 11  2  0  0  0  0
  8  9  2  0  0  0  0
  8 10  1  0  0  0  0
 11 12  1  0  0  0  0
 11 24  1  0  0  0  0
 12 13  2  0  0  0  0
 12 25  1  0  0  0  0
 14 15  1  0  0  0  0
 14 26  1  0  0  0  0
 14 27  1  0  0  0  0
 15 16  1  0  0  0  0
 15 28  1  0  0  0  0
 15 29  1  0  0  0  0
M  CHG  1  10  -1
M  END
> <s_m_source_file>
AV-unprocessed.smi

> <i_m_source_file_index>
2665

> <i_lp_mmshare_version>
43012

> <i_f3d_flags>
0

> <s_epik_input>
W0NIM11bQ0BASF0xW0NIMl1OKFtDSDJdW0NIMl1PMSljMltjSF1jKEMoPU8pW09IXSlbY0hdW2NIXW4y

> <s_epik_cmdline>
J2VwaWtfcHl0aG9uJywgJy1waCcsICc3LjAnLCAnLXRuJywgJzgnLCAnLW1hJywgJzIwMCcsICctbWV0YWxfYmluZGluZycsICctaW1hZScsICc8aW5maWxlLm1hZT4nLCAnLW9tYWUnLCAnPG91dGZpbGUubWFlPic=

> <r_epik_Ionization_Penalty>
0.00511367

> <r_epik_Ionization_Penalty_Charging>
0.00135522

> <r_epik_Ionization_Penalty_Neutral>
0.00375844

> <r_epik_State_Penalty>
0.00357724

> <r_epik_Charging_Adjusted_Penalty>
0.00493246

> <i_epik_Tot_Q>
-1

> <i_epik_Tot_abs_Q>
1

> <r_epik_Metal_State_Penalty>
-0

> <b_epik_Metal_Only>
0

> <s_lp_Force_Field>
OPLS_2005

> <r_lp_Energy>
17.7567

> <b_lp_Chiralities_Consistent>
1

> <s_lp_Variant>
AV-unprocessed.smi:2665-2

> <Gold.Version>
5.8.1

> <Gold.Id.Protein>
6NUR|6NUR_protein|mol2

> <Gold.PLP.Fitness>
42.4908

> <Gold.PLP.PLP>
-32.4777

> <Gold.PLP.part.hbond>
-2.0000

> <Gold.PLP.part.metal>
0.0000

> <Gold.PLP.part.buried>
-6.6105

> <Gold.PLP.part.nonpolar>
-24.9573

> <Gold.PLP.part.repulsive>
0.1870

> <Gold.PLP.ligand.clash>
0.0000

> <Gold.PLP.ligand.torsion>
0.6852

> <Gold.PLP.Chemscore.Hbond>
3.7600

> <Gold.PLP.Chemscore.CHOScore>
0.0000

> <Gold.PLP.Chemscore.Metal>
0.0000

> <Gold.Chemscore.Hbonds>
donor molecule, donor type, donor heavy atom, donor atom, acceptor molecule, acceptor atom, score
      P1  H  7997  8008       L1     9  1.98
      P1  H 10752 10765       L1    10  1.73

> <Gold.PLP.Chemscore.Internal.Correction>
0.1036

> <Gold.Rescore>
     Score         DG    S(hbond)    S(metal)    S(lipo)     H(rot)  DE(clash)    DE(int)     intcor
     16.91     -17.69       1.81        0.00      74.52       1.00       0.00       0.78       ----

> <Gold.Chemscore.Fitness>
16.9077

> <Gold.Chemscore.DG>
-17.6904

> <Gold.Chemscore.ZeroCoef>
-5.4800

> <Gold.Chemscore.Hbond>
1.8119

> <Gold.Chemscore.Metal>
0.0000

> <Gold.Chemscore.Lipo>
74.5190

> <Gold.Chemscore.Internal_Hbond>
0.0000

> <Gold.Chemscore.DEClash>
0.0015

> <Gold.Chemscore.DEInternal>
0.7813

> <Gold.Chemscore.Rot>
1.0000

> <Gold.Chemscore.Internal.Correction>
   9.000000E+99

> <Gold.Chemscore.Hbonds>
donor molecule, donor type, donor heavy atom, donor atom, acceptor molecule, acceptor atom, score
      P1  H  7997  8008       L1     9  0.93
      P1  H 10752 10765       L1    10  0.84

> <Gold.Chemscore.Hbond.Weighted>
-6.0517

> <Gold.Chemscore.Metal.Weighted>
-0.0000

> <Gold.Chemscore.Lipo.Weighted>
-8.7187

> <Gold.Chemscore.Internal_Hbond.Weighted>
0.0000

> <Gold.Chemscore.DEClash.Weighted>
0.0015

> <Gold.Chemscore.DEInternal.Weighted>
0.7813

> <Gold.Chemscore.Rot.Weighted>
2.5600

> <Gold.Chemscore.Internal.Correction.Weighted>
   9.000000E+99

> <Gold.Protein.RotatedTorsions>
[ 6907 6896 6895 6894 ] final   46.60 input  -60.11 | X-H torsion
[ 7974 7965 7964 7962 ] final   24.81 input  175.53 | X-H torsion
[ 8008 7997 7996 7995 ] final  -13.42 input   59.86 | X-H torsion
[ 10167 10162 10161 10158 ] final  -57.95 input  -65.29 | X-H torsion
[ 10718 10713 10712 10709 ] final  148.84 input   66.30 | X-H torsion
[ 10763 10752 10751 10750 ] final  148.76 input  -60.55 | X-H torsion
[ 11005 11000 10999 10996 ] final   27.11 input  -57.11 | X-H torsion

> <Gold.Protein.ActiveResidues>
 VAL166  LYS551  ARG553  GLY616  TRP617  ASP618  TYR619  PRO620  LYS621  CYS622 
 ASP623  PHE694  ASN695  SER759  ASP760  ASP761  ALA762  ILE779  LEU786  VAL792 
 PHE793  MET794  SER795  GLU796  ALA797  LYS798  CYS799  TRP800  GLU811  SER814 

> <Gold.Protein.RotatedAtoms>
  152.2582  134.8061  160.0434 H   0  0  0  0  0  0  0  0  0  0  0  0  # atno 6907 bound_to 6896
  151.8717  133.3472  159.3745 H   0  0  0  0  0  0  0  0  0  0  0  0  # atno 6908 bound_to 6896
  150.7107  134.5033  159.5616 H   0  0  0  0  0  0  0  0  0  0  0  0  # atno 6909 bound_to 6896
  146.1919  139.7553  142.8825 H   0  0  0  0  0  0  0  0  0  0  0  0  # atno 7974 bound_to 7965
  154.5294  140.2250  155.8831 H   0  0  0  0  0  0  0  0  0  0  0  0  # atno 8008 bound_to 7997
  156.1748  140.3114  155.9003 H   0  0  0  0  0  0  0  0  0  0  0  0  # atno 8009 bound_to 7997
  155.3483  140.0454  157.3036 H   0  0  0  0  0  0  0  0  0  0  0  0  # atno 8010 bound_to 7997
  140.6227  143.2426  151.5441 H   0  0  0  0  0  0  0  0  0  0  0  0  # atno 10167 bound_to 10162
  157.3036  131.0875  151.1371 H   0  0  0  0  0  0  0  0  0  0  0  0  # atno 10718 bound_to 10713
  154.0601  135.2875  155.3326 H   0  0  0  0  0  0  0  0  0  0  0  0  # atno 10763 bound_to 10752
  154.6814  135.5262  153.8271 H   0  0  0  0  0  0  0  0  0  0  0  0  # atno 10764 bound_to 10752
  153.0526  135.6582  154.0790 H   0  0  0  0  0  0  0  0  0  0  0  0  # atno 10765 bound_to 10752
  140.3298  134.2450  155.7704 H   0  0  0  0  0  0  0  0  0  0  0  0  # atno 11005 bound_to 11000
  145.3765  141.0351  143.3202 LP  0  0  0  0  0  0  0  0  0  0  0  0  # atno 17320 bound_to 7965
  144.8504  139.5331  143.6859 LP  0  0  0  0  0  0  0  0  0  0  0  0  # atno 17321 bound_to 7965
  139.5452  144.2539  152.1429 LP  0  0  0  0  0  0  0  0  0  0  0  0  # atno 17342 bound_to 10162
  140.1763  144.4887  150.6552 LP  0  0  0  0  0  0  0  0  0  0  0  0  # atno 17343 bound_to 10162
  157.2720  130.6709  149.6024 LP  0  0  0  0  0  0  0  0  0  0  0  0  # atno 17370 bound_to 10713
  155.9673  130.4476  150.5586 LP  0  0  0  0  0  0  0  0  0  0  0  0  # atno 17371 bound_to 10713
  141.2066  133.7828  157.0167 LP  0  0  0  0  0  0  0  0  0  0  0  0  # atno 17394 bound_to 11000
  140.0870  134.9615  157.1716 LP  0  0  0  0  0  0  0  0  0  0  0  0  # atno 17395 bound_to 11000

$$$$
