AV-unprocessed.smi:3099|AV-procd|sdf|11803|dock3
  -GOLD-   2272017183D 1   1.00000     0.00000
 Structure written by MMmdl.
 32 33  0  0  0  0  0  0  0  0  1 V2000
  152.7654  142.4836  160.6753 C   0  0  0  0  0  0  0  0  0  0  0  0
  152.0263  143.6143  160.1498 N   0  0  0  0  0  0  0  0  0  0  0  0
  152.0458  144.8675  160.6235 C   0  0  0  0  0  0  0  0  0  0  0  0
  151.2795  145.7208  159.9579 N   0  0  0  0  0  0  0  0  0  0  0  0
  150.7128  144.9410  158.9541 C   0  0  0  0  0  0  0  0  0  0  0  0
  151.1651  143.6436  159.0549 C   0  0  0  0  0  0  0  0  0  0  0  0
  150.8534  142.4562  158.1952 C   0  0  0  0  0  0  0  0  0  0  0  0
  151.0675  142.6776  156.6858 C   0  0  0  0  0  0  0  0  0  0  0  0
  149.8955  142.2983  155.9003 N   0  0  0  0  0  0  0  0  0  0  0  0
  149.7871  141.1981  155.1386 C   0  0  0  0  0  0  0  0  0  0  0  0
  150.6835  140.3610  155.0277 O   0  0  0  0  0  0  0  0  0  0  0  0
  148.4682  141.0339  154.3787 C   0  0  0  0  0  0  0  0  0  0  0  0
  147.3728  141.9670  154.8672 C   0  0  0  0  0  0  0  0  0  0  0  0
  145.9116  141.6372  154.6562 C   0  0  0  0  0  0  0  0  0  0  0  0
  146.5471  142.7690  153.8873 C   0  0  0  0  0  0  0  0  0  0  0  0
  153.0404  142.6666  161.7144 H   0  0  0  0  0  0  0  0  0  0  0  0
  153.6728  142.3357  160.0899 H   0  0  0  0  0  0  0  0  0  0  0  0
  152.1565  141.5810  160.6293 H   0  0  0  0  0  0  0  0  0  0  0  0
  152.6369  145.1627  161.4782 H   0  0  0  0  0  0  0  0  0  0  0  0
  150.0324  145.3715  158.2342 H   0  0  0  0  0  0  0  0  0  0  0  0
  151.4484  141.6031  158.5221 H   0  0  0  0  0  0  0  0  0  0  0  0
  149.8154  142.1669  158.3621 H   0  0  0  0  0  0  0  0  0  0  0  0
  151.3408  143.7157  156.4925 H   0  0  0  0  0  0  0  0  0  0  0  0
  151.9128  142.0788  156.3467 H   0  0  0  0  0  0  0  0  0  0  0  0
  149.1087  142.9303  155.9275 H   0  0  0  0  0  0  0  0  0  0  0  0
  148.6245  141.2085  153.3134 H   0  0  0  0  0  0  0  0  0  0  0  0
  148.1391  139.9995  154.4868 H   0  0  0  0  0  0  0  0  0  0  0  0
  147.6122  142.4658  155.8047 H   0  0  0  0  0  0  0  0  0  0  0  0
  145.6716  140.7285  154.1070 H   0  0  0  0  0  0  0  0  0  0  0  0
  145.2200  141.8955  155.4554 H   0  0  0  0  0  0  0  0  0  0  0  0
  146.2773  143.7841  154.1715 H   0  0  0  0  0  0  0  0  0  0  0  0
  146.7245  142.6145  152.8247 H   0  0  0  0  0  0  0  0  0  0  0  0
  1  2  1  0  0  0  0
  1 16  1  0  0  0  0
  1 17  1  0  0  0  0
  1 18  1  0  0  0  0
  2  6  1  0  0  0  0
  2  3  1  0  0  0  0
  3  4  2  0  0  0  0
  3 19  1  0  0  0  0
  4  5  1  0  0  0  0
  5  6  2  0  0  0  0
  5 20  1  0  0  0  0
  6  7  1  0  0  0  0
  7  8  1  0  0  0  0
  7 21  1  0  0  0  0
  7 22  1  0  0  0  0
  8  9  1  0  0  0  0
  8 23  1  0  0  0  0
  8 24  1  0  0  0  0
  9 10  1  0  0  0  0
  9 25  1  0  0  0  0
 10 11  2  0  0  0  0
 10 12  1  0  0  0  0
 12 13  1  0  0  0  0
 12 26  1  0  0  0  0
 12 27  1  0  0  0  0
 13 15  1  0  0  0  0
 13 14  1  0  0  0  0
 13 28  1  0  0  0  0
 14 15  1  0  0  0  0
 14 29  1  0  0  0  0
 14 30  1  0  0  0  0
 15 31  1  0  0  0  0
 15 32  1  0  0  0  0
M  END
> <s_m_source_file>
AV-unprocessed.smi

> <i_m_source_file_index>
3099

> <i_lp_mmshare_version>
43012

> <i_f3d_flags>
0

> <s_epik_input>
W0NIM11uMVtjSF1uW2NIXWMxW0NIMl1bQ0gyXVtOSF1DKD1PKVtDSDJdW0NIXTJbQ0gyXVtDSDJdMg==

> <s_epik_cmdline>
J2VwaWtfcHl0aG9uJywgJy1waCcsICc3LjAnLCAnLXRuJywgJzgnLCAnLW1hJywgJzIwMCcsICctbWV0YWxfYmluZGluZycsICctaW1hZScsICc8aW5maWxlLm1hZT4nLCAnLW9tYWUnLCAnPG91dGZpbGUubWFlPic=

> <r_lp_tautomer_probability>
1

> <r_epik_Ionization_Penalty>
0.86664

> <r_epik_Ionization_Penalty_Charging>
0.86664

> <r_epik_Ionization_Penalty_Neutral>
2.48486e-08

> <r_epik_State_Penalty>
0.903601

> <r_epik_Charging_Adjusted_Penalty>
1.77024

> <i_epik_Tot_Q>
0

> <i_epik_Tot_abs_Q>
0

> <r_epik_Metal_State_Penalty>
0.359833

> <b_epik_Metal_Only>
0

> <s_lp_Force_Field>
OPLS_2005

> <r_lp_Energy>
10.131

> <b_lp_Chiralities_Consistent>
1

> <s_lp_Variant>
AV-unprocessed.smi:3099-2

> <Gold.Version>
5.8.1

> <Gold.Id.Protein>
6NUR|6NUR_protein|mol2

> <Gold.PLP.Fitness>
44.3379

> <Gold.PLP.PLP>
-37.8245

> <Gold.PLP.part.hbond>
-2.5714

> <Gold.PLP.part.metal>
0.0000

> <Gold.PLP.part.buried>
-5.3771

> <Gold.PLP.part.nonpolar>
-29.8837

> <Gold.PLP.part.repulsive>
0.3917

> <Gold.PLP.ligand.clash>
0.1433

> <Gold.PLP.ligand.torsion>
1.1153

> <Gold.PLP.Chemscore.Hbond>
1.7520

> <Gold.PLP.Chemscore.CHOScore>
1.0187

> <Gold.PLP.Chemscore.Metal>
0.0000

> <Gold.Chemscore.Hbonds>
donor molecule, donor type, donor heavy atom, donor atom, acceptor molecule, acceptor atom, score
      L1  H     9    25       P1  8028  0.70
      P1  H  7989  7998       L1    11  1.00
      L1  C     5    20       P1  8028  0.01
      L1  C     5    20       P1  8029  1.00

> <Gold.PLP.Chemscore.Internal.Correction>
0.5753

> <Gold.Rescore>
     Score         DG    S(hbond)    S(metal)    S(lipo)     H(rot)  DE(clash)    DE(int)     intcor
     12.89     -14.31       1.55        0.00      73.11       1.91       0.36       1.06       ----

> <Gold.Chemscore.Fitness>
12.8924

> <Gold.Chemscore.DG>
-14.3124

> <Gold.Chemscore.ZeroCoef>
-5.4800

> <Gold.Chemscore.Hbond>
1.5484

> <Gold.Chemscore.Metal>
0.0000

> <Gold.Chemscore.Lipo>
73.1085

> <Gold.Chemscore.Internal_Hbond>
0.0000

> <Gold.Chemscore.DEClash>
0.3638

> <Gold.Chemscore.DEInternal>
1.0562

> <Gold.Chemscore.Rot>
1.9113

> <Gold.Chemscore.Internal.Correction>
   9.000000E+99

> <Gold.Chemscore.Hbonds>
donor molecule, donor type, donor heavy atom, donor atom, acceptor molecule, acceptor atom, score
      L1  H     9    25       P1  8028  0.70
      P1  H  7989  7998       L1    11  0.49

> <Gold.Chemscore.Hbond.Weighted>
-5.1717

> <Gold.Chemscore.Metal.Weighted>
-0.0000

> <Gold.Chemscore.Lipo.Weighted>
-8.5537

> <Gold.Chemscore.Internal_Hbond.Weighted>
0.0000

> <Gold.Chemscore.DEClash.Weighted>
0.3638

> <Gold.Chemscore.DEInternal.Weighted>
1.0562

> <Gold.Chemscore.Rot.Weighted>
4.8930

> <Gold.Chemscore.Internal.Correction.Weighted>
   9.000000E+99

> <Gold.Protein.RotatedTorsions>
[ 6907 6896 6895 6894 ] final  -94.52 input  -60.11 | X-H torsion
[ 7974 7965 7964 7962 ] final   15.14 input  175.53 | X-H torsion
[ 8008 7997 7996 7995 ] final  -93.62 input   59.86 | X-H torsion
[ 10167 10162 10161 10158 ] final  -50.89 input  -65.29 | X-H torsion
[ 10718 10713 10712 10709 ] final  142.35 input   66.30 | X-H torsion
[ 10763 10752 10751 10750 ] final    1.28 input  -60.55 | X-H torsion
[ 11005 11000 10999 10996 ] final   73.85 input  -57.11 | X-H torsion

> <Gold.Protein.ActiveResidues>
 VAL166  LYS551  ARG553  GLY616  TRP617  ASP618  TYR619  PRO620  LYS621  CYS622 
 ASP623  PHE694  ASN695  SER759  ASP760  ASP761  ALA762  ILE779  LEU786  VAL792 
 PHE793  MET794  SER795  GLU796  ALA797  LYS798  CYS799  TRP800  GLU811  SER814 

> <Gold.Protein.RotatedAtoms>
  150.6943  134.1800  159.4244 H   0  0  0  0  0  0  0  0  0  0  0  0  # atno 6907 bound_to 6896
  151.9775  135.0043  160.0565 H   0  0  0  0  0  0  0  0  0  0  0  0  # atno 6908 bound_to 6896
  152.1786  133.4657  159.4983 H   0  0  0  0  0  0  0  0  0  0  0  0  # atno 6909 bound_to 6896
  146.2286  139.8938  142.8550 H   0  0  0  0  0  0  0  0  0  0  0  0  # atno 7974 bound_to 7965
  154.7379  140.0497  157.0785 H   0  0  0  0  0  0  0  0  0  0  0  0  # atno 8008 bound_to 7997
  155.0216  140.3147  155.4772 H   0  0  0  0  0  0  0  0  0  0  0  0  # atno 8009 bound_to 7997
  156.2857  140.2166  156.5334 H   0  0  0  0  0  0  0  0  0  0  0  0  # atno 8010 bound_to 7997
  140.6615  143.2640  151.4425 H   0  0  0  0  0  0  0  0  0  0  0  0  # atno 10167 bound_to 10162
  157.3816  131.0993  151.0733 H   0  0  0  0  0  0  0  0  0  0  0  0  # atno 10718 bound_to 10713
  153.3101  135.6962  153.7124 H   0  0  0  0  0  0  0  0  0  0  0  0  # atno 10763 bound_to 10752
  153.6004  135.3463  155.2944 H   0  0  0  0  0  0  0  0  0  0  0  0  # atno 10764 bound_to 10752
  154.8573  135.4339  154.2236 H   0  0  0  0  0  0  0  0  0  0  0  0  # atno 10765 bound_to 10752
  139.9420  134.7382  156.1076 H   0  0  0  0  0  0  0  0  0  0  0  0  # atno 11005 bound_to 11000
  145.2391  141.0002  143.3946 LP  0  0  0  0  0  0  0  0  0  0  0  0  # atno 17320 bound_to 7965
  144.9467  139.4128  143.6422 LP  0  0  0  0  0  0  0  0  0  0  0  0  # atno 17321 bound_to 7965
  139.5851  144.1623  152.2018 LP  0  0  0  0  0  0  0  0  0  0  0  0  # atno 17342 bound_to 10162
  140.0960  144.5580  150.7021 LP  0  0  0  0  0  0  0  0  0  0  0  0  # atno 17343 bound_to 10162
  157.1800  130.6305  149.5668 LP  0  0  0  0  0  0  0  0  0  0  0  0  # atno 17370 bound_to 10713
  155.9777  130.4757  150.6610 LP  0  0  0  0  0  0  0  0  0  0  0  0  # atno 17371 bound_to 10713
  141.1057  133.6661  156.2858 LP  0  0  0  0  0  0  0  0  0  0  0  0  # atno 17394 bound_to 11000
  140.5929  134.5632  157.5503 LP  0  0  0  0  0  0  0  0  0  0  0  0  # atno 17395 bound_to 11000

$$$$
