AV-unprocessed.smi:3253|AV-procd|sdf|12448|dock10
  -GOLD-   2272018343D 1   1.00000     0.00000
 Structure written by MMmdl.
 37 38  0  0  0  0  0  0  0  0  2 V2000
  149.9581  139.4358  156.5531 C   0  0  0  0  0  0  0  0  0  0  0  0
  149.8334  140.7406  155.7552 C   0  0  1  0  0  0  0  0  0  0  0  0
  148.4167  140.8994  155.1600 C   0  0  0  0  0  0  0  0  0  0  0  0
  148.1387  139.9575  154.0700 N   0  0  0  0  0  0  0  0  0  0  0  0
  146.9287  139.7088  153.4738 C   0  0  0  0  0  0  0  0  0  0  0  0
  147.1591  138.7740  152.4975 C   0  0  0  0  0  0  0  0  0  0  0  0
  148.4966  138.4849  152.5453 N   0  3  0  0  0  0  0  0  0  0  0  0
  149.0896  139.2016  153.5056 C   0  0  0  0  0  0  0  0  0  0  0  0
  150.1660  141.8649  156.6299 N   0  0  0  0  0  0  0  0  0  0  0  0
  151.3756  142.1148  157.1563 C   0  0  0  0  0  0  0  0  0  0  0  0
  152.3562  141.3933  156.9687 O   0  0  0  0  0  0  0  0  0  0  0  0
  151.5073  143.3919  157.9998 C   0  0  1  0  0  0  0  0  0  0  0  0
  150.4599  143.4409  159.1314 C   0  0  0  0  0  0  0  0  0  0  0  0
  151.2812  143.2610  160.3978 C   0  0  0  0  0  0  0  0  0  0  0  0
  150.7745  143.1295  161.5106 O   0  0  0  0  0  0  0  0  0  0  0  0
  152.5885  143.2538  160.1221 N   0  0  0  0  0  0  0  0  0  0  0  0
  153.6628  143.0791  161.0898 C   0  0  0  0  0  0  0  0  0  0  0  0
  152.8738  143.4704  158.7146 C   0  0  0  0  0  0  0  0  0  0  0  0
  149.7425  138.5702  155.9262 H   0  0  0  0  0  0  0  0  0  0  0  0
  149.2658  139.4163  157.3958 H   0  0  0  0  0  0  0  0  0  0  0  0
  150.9671  139.3113  156.9474 H   0  0  0  0  0  0  0  0  0  0  0  0
  150.5553  140.6860  154.9383 H   0  0  0  0  0  0  0  0  0  0  0  0
  147.6606  140.7372  155.9296 H   0  0  0  0  0  0  0  0  0  0  0  0
  148.2676  141.9112  154.7799 H   0  0  0  0  0  0  0  0  0  0  0  0
  146.0194  140.2095  153.7735 H   0  0  0  0  0  0  0  0  0  0  0  0
  146.4896  138.3059  151.7905 H   0  0  0  0  0  0  0  0  0  0  0  0
  150.1334  139.1837  153.7641 H   0  0  0  0  0  0  0  0  0  0  0  0
  149.4188  142.5109  156.8409 H   0  0  0  0  0  0  0  0  0  0  0  0
  151.3859  144.2606  157.3502 H   0  0  0  0  0  0  0  0  0  0  0  0
  149.9580  144.4083  159.1599 H   0  0  0  0  0  0  0  0  0  0  0  0
  149.6938  142.6673  159.0575 H   0  0  0  0  0  0  0  0  0  0  0  0
  153.5942  143.8277  161.8799 H   0  0  0  0  0  0  0  0  0  0  0  0
  154.6396  143.1777  160.6155 H   0  0  0  0  0  0  0  0  0  0  0  0
  153.6058  142.0904  161.5466 H   0  0  0  0  0  0  0  0  0  0  0  0
  153.5907  142.7318  158.3505 H   0  0  0  0  0  0  0  0  0  0  0  0
  153.3223  144.4564  158.5852 H   0  0  0  0  0  0  0  0  0  0  0  0
  148.9716  137.8267  151.9404 H   0  0  0  0  0  0  0  0  0  0  0  0
  1  2  1  0  0  0  0
  1 19  1  0  0  0  0
  1 20  1  0  0  0  0
  1 21  1  0  0  0  0
  2  3  1  0  0  0  0
  2  9  1  0  0  0  0
  2 22  1  0  0  0  0
  3  4  1  0  0  0  0
  3 23  1  0  0  0  0
  3 24  1  0  0  0  0
  4  8  1  0  0  0  0
  4  5  1  0  0  0  0
  5  6  2  0  0  0  0
  5 25  1  0  0  0  0
  6  7  1  0  0  0  0
  6 26  1  0  0  0  0
  7  8  2  0  0  0  0
  7 37  1  0  0  0  0
  8 27  1  0  0  0  0
  9 10  1  0  0  0  0
  9 28  1  0  0  0  0
 10 11  2  0  0  0  0
 10 12  1  0  0  0  0
 12 18  1  0  0  0  0
 12 13  1  0  0  0  0
 12 29  1  0  0  0  0
 13 14  1  0  0  0  0
 13 30  1  0  0  0  0
 13 31  1  0  0  0  0
 14 15  2  0  0  0  0
 14 16  1  0  0  0  0
 16 17  1  0  0  0  0
 16 18  1  0  0  0  0
 17 32  1  0  0  0  0
 17 33  1  0  0  0  0
 17 34  1  0  0  0  0
 18 35  1  0  0  0  0
 18 36  1  0  0  0  0
M  CHG  1   7   1
M  END
> <s_m_source_file>
AV-unprocessed.smi

> <i_m_source_file_index>
3253

> <i_lp_mmshare_version>
43012

> <i_f3d_flags>
0

> <s_epik_input>
W2NIXTFuW2NIXVtjSF1uMVtDSDJdW0NAQEhdKFtDSDNdKVtOSF1DKD1PKVtDQEBIXTJbQ0gyXUMoPU8pTihbQ0gzXSlbQ0gyXTI=

> <s_epik_cmdline>
J2VwaWtfcHl0aG9uJywgJy1waCcsICc3LjAnLCAnLXRuJywgJzgnLCAnLW1hJywgJzIwMCcsICctbWV0YWxfYmluZGluZycsICctaW1hZScsICc8aW5maWxlLm1hZT4nLCAnLW9tYWUnLCAnPG91dGZpbGUubWFlPic=

> <r_lp_tautomer_probability>
1

> <r_epik_Ionization_Penalty>
0.251561

> <r_epik_Ionization_Penalty_Charging>
0

> <r_epik_Ionization_Penalty_Neutral>
0.251561

> <r_epik_State_Penalty>
0.242926

> <r_epik_Charging_Adjusted_Penalty>
0.242926

> <i_epik_Tot_Q>
1

> <i_epik_Tot_abs_Q>
1

> <r_epik_Metal_State_Penalty>
0.533885

> <b_epik_Metal_Only>
0

> <s_lp_Force_Field>
OPLS_2005

> <r_lp_Energy>
13.8895

> <b_lp_Chiralities_Consistent>
1

> <s_lp_Variant>
AV-unprocessed.smi:3253-4

> <Gold.Version>
5.8.1

> <Gold.Id.Protein>
6NUR|6NUR_protein|mol2

> <Gold.PLP.Fitness>
46.8434

> <Gold.PLP.PLP>
-36.6543

> <Gold.PLP.part.hbond>
-3.8528

> <Gold.PLP.part.metal>
0.0000

> <Gold.PLP.part.buried>
-3.0156

> <Gold.PLP.part.nonpolar>
-31.7259

> <Gold.PLP.part.repulsive>
0.3330

> <Gold.PLP.ligand.clash>
0.0000

> <Gold.PLP.ligand.torsion>
0.3458

> <Gold.PLP.Chemscore.Hbond>
3.0000

> <Gold.PLP.Chemscore.CHOScore>
0.6199

> <Gold.PLP.Chemscore.Metal>
0.0000

> <Gold.Chemscore.Hbonds>
donor molecule, donor type, donor heavy atom, donor atom, acceptor molecule, acceptor atom, score
      L1  H     7    37       P1  7948  1.38
      P1  H  6933  6945       L1    15  0.21
      L1  C     5    25       P1 10175  0.61

> <Gold.PLP.Chemscore.Internal.Correction>
0.0210

> <Gold.Rescore>
     Score         DG    S(hbond)    S(metal)    S(lipo)     H(rot)  DE(clash)    DE(int)     intcor
     14.39     -15.18       1.95        0.00      71.60       2.03       0.24       0.55       ----

> <Gold.Chemscore.Fitness>
14.3908

> <Gold.Chemscore.DG>
-15.1776

> <Gold.Chemscore.ZeroCoef>
-5.4800

> <Gold.Chemscore.Hbond>
1.9545

> <Gold.Chemscore.Metal>
0.0000

> <Gold.Chemscore.Lipo>
71.5979

> <Gold.Chemscore.Internal_Hbond>
0.0000

> <Gold.Chemscore.DEClash>
0.2388

> <Gold.Chemscore.DEInternal>
0.5480

> <Gold.Chemscore.Rot>
2.0341

> <Gold.Chemscore.Internal.Correction>
   9.000000E+99

> <Gold.Chemscore.Hbonds>
donor molecule, donor type, donor heavy atom, donor atom, acceptor molecule, acceptor atom, score
      L1  H     7    37       P1  7948  0.60
      P1  H  6933  6945       L1    15  0.22

> <Gold.Chemscore.Hbond.Weighted>
-6.5279

> <Gold.Chemscore.Metal.Weighted>
-0.0000

> <Gold.Chemscore.Lipo.Weighted>
-8.3769

> <Gold.Chemscore.Internal_Hbond.Weighted>
0.0000

> <Gold.Chemscore.DEClash.Weighted>
0.2388

> <Gold.Chemscore.DEInternal.Weighted>
0.5480

> <Gold.Chemscore.Rot.Weighted>
5.2072

> <Gold.Chemscore.Internal.Correction.Weighted>
   9.000000E+99

> <Gold.Protein.RotatedTorsions>
[ 6907 6896 6895 6894 ] final   15.07 input  -60.11 | X-H torsion
[ 7974 7965 7964 7962 ] final   40.54 input  175.53 | X-H torsion
[ 8008 7997 7996 7995 ] final  -18.91 input   59.86 | X-H torsion
[ 10167 10162 10161 10158 ] final  122.60 input  -65.29 | X-H torsion
[ 10718 10713 10712 10709 ] final -123.10 input   66.30 | X-H torsion
[ 10763 10752 10751 10750 ] final  136.26 input  -60.55 | X-H torsion
[ 11005 11000 10999 10996 ] final  177.38 input  -57.11 | X-H torsion

> <Gold.Protein.ActiveResidues>
 VAL166  LYS551  ARG553  GLY616  TRP617  ASP618  TYR619  PRO620  LYS621  CYS622 
 ASP623  PHE694  ASN695  SER759  ASP760  ASP761  ALA762  ILE779  LEU786  VAL792 
 PHE793  MET794  SER795  GLU796  ALA797  LYS798  CYS799  TRP800  GLU811  SER814 

> <Gold.Protein.RotatedAtoms>
  151.8122  135.0677  160.0414 H   0  0  0  0  0  0  0  0  0  0  0  0  # atno 6907 bound_to 6896
  152.3012  133.5653  159.5628 H   0  0  0  0  0  0  0  0  0  0  0  0  # atno 6908 bound_to 6896
  150.7274  134.0205  159.3742 H   0  0  0  0  0  0  0  0  0  0  0  0  # atno 6909 bound_to 6896
  146.0897  139.5521  142.9484 H   0  0  0  0  0  0  0  0  0  0  0  0  # atno 7974 bound_to 7965
  154.4873  140.2103  155.9627 H   0  0  0  0  0  0  0  0  0  0  0  0  # atno 8008 bound_to 7997
  156.1254  140.3206  155.8239 H   0  0  0  0  0  0  0  0  0  0  0  0  # atno 8009 bound_to 7997
  155.4392  140.0509  157.3002 H   0  0  0  0  0  0  0  0  0  0  0  0  # atno 8010 bound_to 7997
  139.5849  144.7002  151.3434 H   0  0  0  0  0  0  0  0  0  0  0  0  # atno 10167 bound_to 10162
  156.1474  130.6510  150.9863 H   0  0  0  0  0  0  0  0  0  0  0  0  # atno 10718 bound_to 10713
  153.8535  135.3076  155.3434 H   0  0  0  0  0  0  0  0  0  0  0  0  # atno 10763 bound_to 10752
  154.7880  135.4798  153.9993 H   0  0  0  0  0  0  0  0  0  0  0  0  # atno 10764 bound_to 10752
  153.1504  135.6842  153.8984 H   0  0  0  0  0  0  0  0  0  0  0  0  # atno 10765 bound_to 10752
  140.3834  134.6926  157.4465 H   0  0  0  0  0  0  0  0  0  0  0  0  # atno 11005 bound_to 11000
  145.6063  141.0347  143.1991 LP  0  0  0  0  0  0  0  0  0  0  0  0  # atno 17320 bound_to 7965
  144.7351  139.7610  143.7332 LP  0  0  0  0  0  0  0  0  0  0  0  0  # atno 17321 bound_to 7965
  140.7122  143.7360  150.7588 LP  0  0  0  0  0  0  0  0  0  0  0  0  # atno 17342 bound_to 10162
  140.0902  143.4885  152.2483 LP  0  0  0  0  0  0  0  0  0  0  0  0  # atno 17343 bound_to 10162
  157.6628  131.0877  150.7798 LP  0  0  0  0  0  0  0  0  0  0  0  0  # atno 17370 bound_to 10713
  156.7869  130.4877  149.5391 LP  0  0  0  0  0  0  0  0  0  0  0  0  # atno 17371 bound_to 10713
  140.0461  134.6198  155.8920 LP  0  0  0  0  0  0  0  0  0  0  0  0  # atno 17394 bound_to 11000
  141.1915  133.6572  156.5461 LP  0  0  0  0  0  0  0  0  0  0  0  0  # atno 17395 bound_to 11000

$$$$
