AV-unprocessed.smi:3249|AV-procd|sdf|12422|dock5
  -GOLD-   2272018303D 1   1.00000     0.00000
 Structure written by MMmdl.
 44 45  0  0  0  0  0  0  0  0  2 V2000
  146.1356  143.0808  153.8940 C   0  0  0  0  0  0  0  0  0  0  0  0
  146.9789  141.8425  153.9940 C   0  0  0  0  0  0  0  0  0  0  0  0
  146.8817  140.6533  153.2177 C   0  0  0  0  0  0  0  0  0  0  0  0
  147.7755  139.7415  153.5624 N   0  0  0  0  0  0  0  0  0  0  0  0
  148.4803  140.3149  154.5634 N   0  0  0  0  0  0  0  0  0  0  0  0
  149.5590  139.5845  155.2211 C   0  0  1  0  0  0  0  0  0  0  0  0
  149.6157  138.1499  154.6640 C   0  0  0  0  0  0  0  0  0  0  0  0
  150.9158  140.3355  155.1199 C   0  0  2  0  0  0  0  0  0  0  0  0
  152.1145  139.4269  155.4553 C   0  0  0  0  0  0  0  0  0  0  0  0
  150.9090  141.5141  156.0190 N   0  3  0  0  0  0  0  0  0  0  0  0
  150.9551  141.2092  157.4648 C   0  0  0  0  0  0  0  0  0  0  0  0
  151.7163  142.2938  158.2418 C   0  0  1  0  0  0  0  0  0  0  0  0
  151.3993  143.7185  157.7404 C   0  0  0  0  0  0  0  0  0  0  0  0
  152.1010  144.7665  158.6117 C   0  0  0  0  0  0  0  0  0  0  0  0
  151.7565  144.5281  160.0854 C   0  0  0  0  0  0  0  0  0  0  0  0
  152.0481  143.0696  160.4722 C   0  0  0  0  0  0  0  0  0  0  0  0
  151.3337  142.1877  159.6110 O   0  0  0  0  0  0  0  0  0  0  0  0
  148.0101  141.5796  154.8504 C   0  0  0  0  0  0  0  0  0  0  0  0
  145.6067  143.1354  152.9422 H   0  0  0  0  0  0  0  0  0  0  0  0
  146.7365  143.9865  153.9788 H   0  0  0  0  0  0  0  0  0  0  0  0
  145.3834  143.1181  154.6820 H   0  0  0  0  0  0  0  0  0  0  0  0
  146.1901  140.4264  152.4196 H   0  0  0  0  0  0  0  0  0  0  0  0
  149.2911  139.5157  156.2768 H   0  0  0  0  0  0  0  0  0  0  0  0
  150.2845  137.5151  155.2442 H   0  0  0  0  0  0  0  0  0  0  0  0
  149.9565  138.1377  153.6281 H   0  0  0  0  0  0  0  0  0  0  0  0
  148.6315  137.6808  154.6928 H   0  0  0  0  0  0  0  0  0  0  0  0
  151.0316  140.6912  154.0947 H   0  0  0  0  0  0  0  0  0  0  0  0
  152.1949  138.5930  154.7590 H   0  0  0  0  0  0  0  0  0  0  0  0
  152.0302  139.0146  156.4613 H   0  0  0  0  0  0  0  0  0  0  0  0
  153.0593  139.9666  155.3980 H   0  0  0  0  0  0  0  0  0  0  0  0
  151.7356  142.0551  155.8070 H   0  0  0  0  0  0  0  0  0  0  0  0
  149.9486  141.0955  157.8671 H   0  0  0  0  0  0  0  0  0  0  0  0
  151.4610  140.2518  157.5972 H   0  0  0  0  0  0  0  0  0  0  0  0
  152.7879  142.1001  158.1635 H   0  0  0  0  0  0  0  0  0  0  0  0
  151.7088  143.8374  156.7017 H   0  0  0  0  0  0  0  0  0  0  0  0
  150.3219  143.8874  157.7667 H   0  0  0  0  0  0  0  0  0  0  0  0
  153.1805  144.6991  158.4707 H   0  0  0  0  0  0  0  0  0  0  0  0
  151.8071  145.7723  158.3101 H   0  0  0  0  0  0  0  0  0  0  0  0
  152.3231  145.2092  160.7211 H   0  0  0  0  0  0  0  0  0  0  0  0
  150.7012  144.7456  160.2559 H   0  0  0  0  0  0  0  0  0  0  0  0
  153.1177  142.8590  160.4209 H   0  0  0  0  0  0  0  0  0  0  0  0
  151.7372  142.8855  161.5009 H   0  0  0  0  0  0  0  0  0  0  0  0
  148.4439  142.1844  155.6333 H   0  0  0  0  0  0  0  0  0  0  0  0
  150.0962  142.0786  155.8175 H   0  0  0  0  0  0  0  0  0  0  0  0
  1  2  1  0  0  0  0
  1 19  1  0  0  0  0
  1 20  1  0  0  0  0
  1 21  1  0  0  0  0
  2 18  2  0  0  0  0
  2  3  1  0  0  0  0
  3  4  2  0  0  0  0
  3 22  1  0  0  0  0
  4  5  1  0  0  0  0
  5  6  1  0  0  0  0
  5 18  1  0  0  0  0
  6  7  1  0  0  0  0
  6  8  1  0  0  0  0
  6 23  1  0  0  0  0
  7 24  1  0  0  0  0
  7 25  1  0  0  0  0
  7 26  1  0  0  0  0
  8  9  1  0  0  0  0
  8 10  1  0  0  0  0
  8 27  1  0  0  0  0
  9 28  1  0  0  0  0
  9 29  1  0  0  0  0
  9 30  1  0  0  0  0
 10 11  1  0  0  0  0
 10 31  1  0  0  0  0
 10 44  1  0  0  0  0
 11 12  1  0  0  0  0
 11 32  1  0  0  0  0
 11 33  1  0  0  0  0
 12 17  1  0  0  0  0
 12 13  1  0  0  0  0
 12 34  1  0  0  0  0
 13 14  1  0  0  0  0
 13 35  1  0  0  0  0
 13 36  1  0  0  0  0
 14 15  1  0  0  0  0
 14 37  1  0  0  0  0
 14 38  1  0  0  0  0
 15 16  1  0  0  0  0
 15 39  1  0  0  0  0
 15 40  1  0  0  0  0
 16 17  1  0  0  0  0
 16 41  1  0  0  0  0
 16 42  1  0  0  0  0
 18 43  1  0  0  0  0
M  CHG  1  10   1
M  END
> <s_m_source_file>
AV-unprocessed.smi

> <i_m_source_file_index>
3249

> <i_lp_mmshare_version>
43012

> <i_f3d_flags>
0

> <s_epik_input>
W0NIM11jMVtjSF1ubihbY0hdMSlbQ0BIXShbQ0gzXSlbQ0BIXShbQ0gzXSlbTkhdW0NIMl1bQ0BASF0yW0NIMl1bQ0gyXVtDSDJdW0NIMl1PMg==

> <s_epik_cmdline>
J2VwaWtfcHl0aG9uJywgJy1waCcsICc3LjAnLCAnLXRuJywgJzgnLCAnLW1hJywgJzIwMCcsICctbWV0YWxfYmluZGluZycsICctaW1hZScsICc8aW5maWxlLm1hZT4nLCAnLW9tYWUnLCAnPG91dGZpbGUubWFlPic=

> <r_lp_tautomer_probability>
1

> <r_epik_Ionization_Penalty>
0.00659207

> <r_epik_Ionization_Penalty_Charging>
0.00656881

> <r_epik_Ionization_Penalty_Neutral>
2.32662e-05

> <r_epik_State_Penalty>
0.0048654

> <r_epik_Charging_Adjusted_Penalty>
0.0114342

> <i_epik_Tot_Q>
1

> <i_epik_Tot_abs_Q>
1

> <r_epik_Metal_State_Penalty>
-0

> <b_epik_Metal_Only>
0

> <s_lp_Force_Field>
OPLS_2005

> <r_lp_Energy>
17.782

> <b_lp_Chiralities_Consistent>
1

> <s_lp_Variant>
AV-unprocessed.smi:3249-6

> <Gold.Version>
5.8.1

> <Gold.Id.Protein>
6NUR|6NUR_protein|mol2

> <Gold.PLP.Fitness>
47.0314

> <Gold.PLP.PLP>
-42.4257

> <Gold.PLP.part.hbond>
-0.2100

> <Gold.PLP.part.metal>
0.0000

> <Gold.PLP.part.buried>
-2.9524

> <Gold.PLP.part.nonpolar>
-39.4055

> <Gold.PLP.part.repulsive>
0.9519

> <Gold.PLP.ligand.clash>
0.0000

> <Gold.PLP.ligand.torsion>
0.7306

> <Gold.PLP.Chemscore.Hbond>
0.0000

> <Gold.PLP.Chemscore.CHOScore>
1.9776

> <Gold.PLP.Chemscore.Metal>
0.0000

> <Gold.Chemscore.Hbonds>
donor molecule, donor type, donor heavy atom, donor atom, acceptor molecule, acceptor atom, score
      L1  C     3    22       P1 10175  0.98
      L1  C    18    43       P1  8028  0.89

> <Gold.PLP.Chemscore.Internal.Correction>
0.1341

> <Gold.Rescore>
     Score         DG    S(hbond)    S(metal)    S(lipo)     H(rot)  DE(clash)    DE(int)     intcor
     13.60     -15.29       0.00        0.00     117.39       1.53       1.19       0.50       ----

> <Gold.Chemscore.Fitness>
13.5984

> <Gold.Chemscore.DG>
-15.2899

> <Gold.Chemscore.ZeroCoef>
-5.4800

> <Gold.Chemscore.Hbond>
0.0000

> <Gold.Chemscore.Metal>
0.0000

> <Gold.Chemscore.Lipo>
117.3942

> <Gold.Chemscore.Internal_Hbond>
0.0000

> <Gold.Chemscore.DEClash>
1.1879

> <Gold.Chemscore.DEInternal>
0.5036

> <Gold.Chemscore.Rot>
1.5333

> <Gold.Chemscore.Internal.Correction>
   9.000000E+99

> <Gold.Chemscore.Hbond.Weighted>
-0.0000

> <Gold.Chemscore.Metal.Weighted>
-0.0000

> <Gold.Chemscore.Lipo.Weighted>
-13.7351

> <Gold.Chemscore.Internal_Hbond.Weighted>
0.0000

> <Gold.Chemscore.DEClash.Weighted>
1.1879

> <Gold.Chemscore.DEInternal.Weighted>
0.5036

> <Gold.Chemscore.Rot.Weighted>
3.9252

> <Gold.Chemscore.Internal.Correction.Weighted>
   9.000000E+99

> <Gold.Protein.RotatedTorsions>
[ 6907 6896 6895 6894 ] final   93.32 input  -60.11 | X-H torsion
[ 7974 7965 7964 7962 ] final  -83.99 input  175.53 | X-H torsion
[ 8008 7997 7996 7995 ] final -169.41 input   59.86 | X-H torsion
[ 10167 10162 10161 10158 ] final -126.48 input  -65.29 | X-H torsion
[ 10718 10713 10712 10709 ] final  -58.41 input   66.30 | X-H torsion
[ 10763 10752 10751 10750 ] final  163.04 input  -60.55 | X-H torsion
[ 11005 11000 10999 10996 ] final   21.36 input  -57.11 | X-H torsion

> <Gold.Protein.ActiveResidues>
 VAL166  LYS551  ARG553  GLY616  TRP617  ASP618  TYR619  PRO620  LYS621  CYS622 
 ASP623  PHE694  ASN695  SER759  ASP760  ASP761  ALA762  ILE779  LEU786  VAL792 
 PHE793  MET794  SER795  GLU796  ALA797  LYS798  CYS799  TRP800  GLU811  SER814 

> <Gold.Protein.RotatedAtoms>
  152.5452  134.1366  159.8461 H   0  0  0  0  0  0  0  0  0  0  0  0  # atno 6907 bound_to 6896
  151.1406  133.4967  159.2604 H   0  0  0  0  0  0  0  0  0  0  0  0  # atno 6908 bound_to 6896
  151.1577  135.0268  159.8751 H   0  0  0  0  0  0  0  0  0  0  0  0  # atno 6909 bound_to 6896
  145.5126  140.9538  143.1699 H   0  0  0  0  0  0  0  0  0  0  0  0  # atno 7974 bound_to 7965
  155.9046  140.1047  157.1324 H   0  0  0  0  0  0  0  0  0  0  0  0  # atno 8008 bound_to 7997
  154.4031  140.1286  156.4544 H   0  0  0  0  0  0  0  0  0  0  0  0  # atno 8009 bound_to 7997
  155.7382  140.3467  155.5094 H   0  0  0  0  0  0  0  0  0  0  0  0  # atno 8010 bound_to 7997
  139.9710  143.5846  152.2413 H   0  0  0  0  0  0  0  0  0  0  0  0  # atno 10167 bound_to 10162
  156.1137  130.4172  150.0573 H   0  0  0  0  0  0  0  0  0  0  0  0  # atno 10718 bound_to 10713
  154.2876  135.2762  155.2669 H   0  0  0  0  0  0  0  0  0  0  0  0  # atno 10763 bound_to 10752
  154.5162  135.5769  153.6648 H   0  0  0  0  0  0  0  0  0  0  0  0  # atno 10764 bound_to 10752
  152.9919  135.6193  154.3039 H   0  0  0  0  0  0  0  0  0  0  0  0  # atno 10765 bound_to 10752
  140.3924  134.1804  155.7663 H   0  0  0  0  0  0  0  0  0  0  0  0  # atno 11005 bound_to 11000
  144.7719  139.6715  143.7191 LP  0  0  0  0  0  0  0  0  0  0  0  0  # atno 17320 bound_to 7965
  146.2157  139.5545  142.9652 LP  0  0  0  0  0  0  0  0  0  0  0  0  # atno 17321 bound_to 7965
  139.6481  144.7659  151.2202 LP  0  0  0  0  0  0  0  0  0  0  0  0  # atno 17342 bound_to 10162
  140.7522  143.6205  150.8517 LP  0  0  0  0  0  0  0  0  0  0  0  0  # atno 17343 bound_to 10162
  156.8529  130.9465  151.3624 LP  0  0  0  0  0  0  0  0  0  0  0  0  # atno 17370 bound_to 10713
  157.6320  130.8737  149.9291 LP  0  0  0  0  0  0  0  0  0  0  0  0  # atno 17371 bound_to 10713
  141.1886  133.8257  157.0989 LP  0  0  0  0  0  0  0  0  0  0  0  0  # atno 17394 bound_to 11000
  140.0396  134.9861  157.0937 LP  0  0  0  0  0  0  0  0  0  0  0  0  # atno 17395 bound_to 11000

$$$$
