AV-unprocessed.smi:282|AV-procd|sdf|2122|dock3
  -GOLD-   2262021423D 1   1.00000     0.00000
 Structure written by MMmdl.
 65 69  0  0  0  0  0  0  0  0  2 V2000
  146.0359  128.2581  153.1131 C   0  0  0  0  0  0  0  0  0  0  0  0
  146.4011  129.6312  153.6946 C   0  0  0  0  0  0  0  0  0  0  0  0
  146.9635  130.6338  152.6510 C   0  0  1  0  0  0  0  0  0  0  0  0
  145.8986  130.9383  151.5707 C   0  0  0  0  0  0  0  0  0  0  0  0
  146.3455  131.9773  150.6078 N   0  3  1  0  0  0  0  0  0  0  0  0
  145.3652  132.2405  149.5213 C   0  0  0  0  0  0  0  0  0  0  0  0
  144.1663  133.0781  150.0091 C   0  0  0  0  0  0  0  0  0  0  0  0
  144.6342  134.3781  150.6781 C   0  0  0  0  0  0  0  0  0  0  0  0
  145.6437  134.0742  151.7944 C   0  0  0  0  0  0  0  0  0  0  0  0
  146.8198  133.2294  151.2582 C   0  0  1  0  0  0  0  0  0  0  0  0
  147.8706  132.9188  152.3357 C   0  0  0  0  0  0  0  0  0  0  0  0
  147.4178  131.8896  153.2675 N   0  0  0  0  0  0  0  0  0  0  0  0
  148.2892  131.8036  154.3004 C   0  0  0  0  0  0  0  0  0  0  0  0
  148.3226  132.7743  155.2514 N   0  0  0  0  0  0  0  0  0  0  0  0
  149.1721  132.6715  156.2782 C   0  0  0  0  0  0  0  0  0  0  0  0
  150.0492  131.7004  156.5415 N   0  0  0  0  0  0  0  0  0  0  0  0
  150.0098  130.7211  155.5931 C   0  0  0  0  0  0  0  0  0  0  0  0
  149.1583  130.6920  154.4542 C   0  0  0  0  0  0  0  0  0  0  0  0
  149.3781  129.5342  153.7206 N   0  0  0  0  0  0  0  0  0  0  0  0
  150.3096  128.9115  154.3899 C   0  0  0  0  0  0  0  0  0  0  0  0
  150.7644  129.5624  155.5165 N   0  0  0  0  0  0  0  0  0  0  0  0
  151.7906  129.0936  156.4387 C   0  0  0  0  0  0  0  0  0  0  0  0
  153.0944  129.9535  156.4805 C   0  0  0  0  0  0  0  0  0  0  0  0
  152.7462  131.3634  157.0361 C   0  0  0  0  0  0  0  0  0  0  0  0
  153.8575  132.2354  157.0994 O   0  0  0  0  0  0  0  0  0  0  0  0
  154.1887  129.2986  157.3629 C   0  0  0  0  0  0  0  0  0  0  0  0
  154.7704  128.0200  156.7316 C   0  0  0  0  0  0  0  0  0  0  0  0
  155.2819  128.3070  155.4363 O   0  0  0  0  0  0  0  0  0  0  0  0
  154.2789  128.7555  154.5334 C   0  0  0  0  0  0  0  0  0  0  0  0
  153.6642  130.0729  155.0426 C   0  0  0  0  0  0  0  0  0  0  0  0
  145.7564  127.5671  153.9087 H   0  0  0  0  0  0  0  0  0  0  0  0
  146.8786  127.8204  152.5773 H   0  0  0  0  0  0  0  0  0  0  0  0
  145.1910  128.3173  152.4274 H   0  0  0  0  0  0  0  0  0  0  0  0
  145.5287  130.0608  154.1885 H   0  0  0  0  0  0  0  0  0  0  0  0
  147.1287  129.4514  154.4851 H   0  0  0  0  0  0  0  0  0  0  0  0
  147.8248  130.1790  152.1589 H   0  0  0  0  0  0  0  0  0  0  0  0
  145.6675  130.0342  151.0077 H   0  0  0  0  0  0  0  0  0  0  0  0
  144.9721  131.2526  152.0516 H   0  0  0  0  0  0  0  0  0  0  0  0
  145.8777  132.7752  148.7205 H   0  0  0  0  0  0  0  0  0  0  0  0
  145.0232  131.2990  149.0895 H   0  0  0  0  0  0  0  0  0  0  0  0
  143.5129  133.3109  149.1680 H   0  0  0  0  0  0  0  0  0  0  0  0
  143.5624  132.5005  150.7096 H   0  0  0  0  0  0  0  0  0  0  0  0
  145.0964  135.0273  149.9333 H   0  0  0  0  0  0  0  0  0  0  0  0
  143.7803  134.9243  151.0803 H   0  0  0  0  0  0  0  0  0  0  0  0
  146.0183  135.0099  152.2109 H   0  0  0  0  0  0  0  0  0  0  0  0
  145.1435  133.5568  152.6138 H   0  0  0  0  0  0  0  0  0  0  0  0
  147.3174  133.8210  150.4882 H   0  0  0  0  0  0  0  0  0  0  0  0
  148.7868  132.5707  151.8558 H   0  0  0  0  0  0  0  0  0  0  0  0
  148.1291  133.8344  152.8706 H   0  0  0  0  0  0  0  0  0  0  0  0
  149.1449  133.4821  156.9916 H   0  0  0  0  0  0  0  0  0  0  0  0
  150.7017  127.9559  154.0722 H   0  0  0  0  0  0  0  0  0  0  0  0
  151.3331  129.0142  157.4236 H   0  0  0  0  0  0  0  0  0  0  0  0
  152.0394  128.0699  156.1552 H   0  0  0  0  0  0  0  0  0  0  0  0
  151.9824  131.8367  156.4182 H   0  0  0  0  0  0  0  0  0  0  0  0
  152.3406  131.2944  158.0452 H   0  0  0  0  0  0  0  0  0  0  0  0
  153.6222  133.0520  156.6857 H   0  0  0  0  0  0  0  0  0  0  0  0
  155.0160  129.9946  157.5035 H   0  0  0  0  0  0  0  0  0  0  0  0
  153.8119  129.0890  158.3635 H   0  0  0  0  0  0  0  0  0  0  0  0
  155.5840  127.6408  157.3500 H   0  0  0  0  0  0  0  0  0  0  0  0
  154.0295  127.2232  156.6716 H   0  0  0  0  0  0  0  0  0  0  0  0
  154.7394  128.9172  153.5588 H   0  0  0  0  0  0  0  0  0  0  0  0
  153.5233  127.9824  154.3925 H   0  0  0  0  0  0  0  0  0  0  0  0
  152.8915  130.4148  154.3532 H   0  0  0  0  0  0  0  0  0  0  0  0
  154.4496  130.8279  155.0077 H   0  0  0  0  0  0  0  0  0  0  0  0
  147.1571  131.5801  150.1567 H   0  0  0  0  0  0  0  0  0  0  0  0
  1  2  1  0  0  0  0
  1 31  1  0  0  0  0
  1 32  1  0  0  0  0
  1 33  1  0  0  0  0
  2  3  1  0  0  0  0
  2 34  1  0  0  0  0
  2 35  1  0  0  0  0
  3 12  1  0  0  0  0
  3  4  1  0  0  0  0
  3 36  1  0  0  0  0
  4  5  1  0  0  0  0
  4 37  1  0  0  0  0
  4 38  1  0  0  0  0
  5 10  1  0  0  0  0
  5  6  1  0  0  0  0
  5 65  1  0  0  0  0
  6  7  1  0  0  0  0
  6 39  1  0  0  0  0
  6 40  1  0  0  0  0
  7  8  1  0  0  0  0
  7 41  1  0  0  0  0
  7 42  1  0  0  0  0
  8  9  1  0  0  0  0
  8 43  1  0  0  0  0
  8 44  1  0  0  0  0
  9 10  1  0  0  0  0
  9 45  1  0  0  0  0
  9 46  1  0  0  0  0
 10 11  1  0  0  0  0
 10 47  1  0  0  0  0
 11 12  1  0  0  0  0
 11 48  1  0  0  0  0
 11 49  1  0  0  0  0
 12 13  1  0  0  0  0
 13 18  1  0  0  0  0
 13 14  2  0  0  0  0
 14 15  1  0  0  0  0
 15 16  2  0  0  0  0
 15 50  1  0  0  0  0
 16 17  1  0  0  0  0
 17 21  1  0  0  0  0
 17 18  2  0  0  0  0
 18 19  1  0  0  0  0
 19 20  2  0  0  0  0
 20 21  1  0  0  0  0
 20 51  1  0  0  0  0
 21 22  1  0  0  0  0
 22 23  1  0  0  0  0
 22 52  1  0  0  0  0
 22 53  1  0  0  0  0
 23 30  1  0  0  0  0
 23 24  1  0  0  0  0
 23 26  1  0  0  0  0
 24 25  1  0  0  0  0
 24 54  1  0  0  0  0
 24 55  1  0  0  0  0
 25 56  1  0  0  0  0
 26 27  1  0  0  0  0
 26 57  1  0  0  0  0
 26 58  1  0  0  0  0
 27 28  1  0  0  0  0
 27 59  1  0  0  0  0
 27 60  1  0  0  0  0
 28 29  1  0  0  0  0
 29 30  1  0  0  0  0
 29 61  1  0  0  0  0
 29 62  1  0  0  0  0
 30 63  1  0  0  0  0
 30 64  1  0  0  0  0
M  CHG  1   5   1
M  END
> <s_m_source_file>
AV-unprocessed.smi

> <i_m_source_file_index>
282

> <i_lp_mmshare_version>
43012

> <i_f3d_flags>
0

> <s_epik_input>
W0NIMl0xW0NIMl1bQ0gyXVtDSDJdW0NAQEhdKE4xMilbQ0gyXU4oW0NAQEhdKFtDSDJdMilbQ0gyXVtDSDNdKWMobltjSF1uMyljKGMzNCluW2NIXW40W0NIMl1DNShbQ0gyXVtPSF0pW0NIMl1bQ0gyXU9bQ0gyXVtDSDJdNQ==

> <s_epik_cmdline>
J2VwaWtfcHl0aG9uJywgJy1waCcsICc3LjAnLCAnLXRuJywgJzgnLCAnLW1hJywgJzIwMCcsICctbWV0YWxfYmluZGluZycsICctaW1hZScsICc8aW5maWxlLm1hZT4nLCAnLW9tYWUnLCAnPG91dGZpbGUubWFlPic=

> <r_lp_tautomer_probability>
1

> <r_epik_Ionization_Penalty>
0.00308583

> <r_epik_Ionization_Penalty_Charging>
0.00300384

> <r_epik_Ionization_Penalty_Neutral>
8.19894e-05

> <r_epik_State_Penalty>
-0

> <r_epik_Charging_Adjusted_Penalty>
0.00300384

> <i_epik_Tot_Q>
1

> <i_epik_Tot_abs_Q>
1

> <r_epik_Metal_State_Penalty>
-0

> <b_epik_Metal_Only>
0

> <s_lp_Force_Field>
OPLS_2005

> <r_lp_Energy>
60.0912

> <b_lp_Chiralities_Consistent>
1

> <s_lp_Variant>
AV-unprocessed.smi:282-6

> <Gold.Version>
5.8.1

> <Gold.Id.Protein>
6NUR|6NUR_protein|mol2

> <Gold.PLP.Fitness>
45.1791

> <Gold.PLP.PLP>
-40.2654

> <Gold.PLP.part.hbond>
-1.0000

> <Gold.PLP.part.metal>
0.0000

> <Gold.PLP.part.buried>
-2.5054

> <Gold.PLP.part.nonpolar>
-36.9195

> <Gold.PLP.part.repulsive>
0.3046

> <Gold.PLP.ligand.clash>
0.0000

> <Gold.PLP.ligand.torsion>
0.5787

> <Gold.PLP.Chemscore.Hbond>
1.0000

> <Gold.PLP.Chemscore.CHOScore>
0.9203

> <Gold.PLP.Chemscore.Metal>
0.0000

> <Gold.Chemscore.Hbonds>
donor molecule, donor type, donor heavy atom, donor atom, acceptor molecule, acceptor atom, score
      L1  H     5    65       P1 10747  1.00
      L1  C    20    51       P1 10737  0.44

> <Gold.PLP.Chemscore.Internal.Correction>
0.3101

> <Gold.Rescore>
     Score         DG    S(hbond)    S(metal)    S(lipo)     H(rot)  DE(clash)    DE(int)     intcor
     11.49     -15.13       0.95        0.00     109.09       2.46       0.23       3.40       ----

> <Gold.Chemscore.Fitness>
11.4911

> <Gold.Chemscore.DG>
-15.1269

> <Gold.Chemscore.ZeroCoef>
-5.4800

> <Gold.Chemscore.Hbond>
0.9505

> <Gold.Chemscore.Metal>
0.0000

> <Gold.Chemscore.Lipo>
109.0932

> <Gold.Chemscore.Internal_Hbond>
0.0000

> <Gold.Chemscore.DEClash>
0.2347

> <Gold.Chemscore.DEInternal>
3.4011

> <Gold.Chemscore.Rot>
2.4576

> <Gold.Chemscore.Internal.Correction>
   9.000000E+99

> <Gold.Chemscore.Hbonds>
donor molecule, donor type, donor heavy atom, donor atom, acceptor molecule, acceptor atom, score
      L1  H     5    65       P1 10747  0.94

> <Gold.Chemscore.Hbond.Weighted>
-3.1745

> <Gold.Chemscore.Metal.Weighted>
-0.0000

> <Gold.Chemscore.Lipo.Weighted>
-12.7639

> <Gold.Chemscore.Internal_Hbond.Weighted>
0.0000

> <Gold.Chemscore.DEClash.Weighted>
0.2347

> <Gold.Chemscore.DEInternal.Weighted>
3.4011

> <Gold.Chemscore.Rot.Weighted>
6.2915

> <Gold.Chemscore.Internal.Correction.Weighted>
   9.000000E+99

> <Gold.Protein.RotatedTorsions>
[ 6907 6896 6895 6894 ] final   16.14 input  -60.11 | X-H torsion
[ 7974 7965 7964 7962 ] final  -36.41 input  175.53 | X-H torsion
[ 8008 7997 7996 7995 ] final  -82.60 input   59.86 | X-H torsion
[ 10167 10162 10161 10158 ] final  -69.63 input  -65.29 | X-H torsion
[ 10718 10713 10712 10709 ] final   -4.53 input   66.30 | X-H torsion
[ 10763 10752 10751 10750 ] final -110.71 input  -60.55 | X-H torsion
[ 11005 11000 10999 10996 ] final   15.78 input  -57.11 | X-H torsion

> <Gold.Protein.ActiveResidues>
 VAL166  LYS551  ARG553  GLY616  TRP617  ASP618  TYR619  PRO620  LYS621  CYS622 
 ASP623  PHE694  ASN695  SER759  ASP760  ASP761  ALA762  ILE779  LEU786  VAL792 
 PHE793  MET794  SER795  GLU796  ALA797  LYS798  CYS799  TRP800  GLU811  SER814 

> <Gold.Protein.RotatedAtoms>
  151.8292  135.0627  160.0434 H   0  0  0  0  0  0  0  0  0  0  0  0  # atno 6907 bound_to 6896
  152.2893  133.5541  159.5555 H   0  0  0  0  0  0  0  0  0  0  0  0  # atno 6908 bound_to 6896
  150.7223  134.0368  159.3794 H   0  0  0  0  0  0  0  0  0  0  0  0  # atno 6909 bound_to 6896
  146.0664  140.6275  142.8973 H   0  0  0  0  0  0  0  0  0  0  0  0  # atno 7974 bound_to 7965
  154.6103  140.0631  156.9485 H   0  0  0  0  0  0  0  0  0  0  0  0  # atno 8008 bound_to 7997
  155.1984  140.3313  155.4329 H   0  0  0  0  0  0  0  0  0  0  0  0  # atno 8009 bound_to 7997
  156.2372  140.1869  156.7069 H   0  0  0  0  0  0  0  0  0  0  0  0  # atno 8010 bound_to 7997
  140.5416  143.2315  151.7079 H   0  0  0  0  0  0  0  0  0  0  0  0  # atno 10167 bound_to 10162
  156.7599  130.5266  149.5787 H   0  0  0  0  0  0  0  0  0  0  0  0  # atno 10718 bound_to 10713
  154.8262  135.4554  154.0927 H   0  0  0  0  0  0  0  0  0  0  0  0  # atno 10763 bound_to 10752
  153.2239  135.6897  153.7974 H   0  0  0  0  0  0  0  0  0  0  0  0  # atno 10764 bound_to 10752
  153.7381  135.3316  155.3275 H   0  0  0  0  0  0  0  0  0  0  0  0  # atno 10765 bound_to 10752
  140.4545  134.1190  155.7707 H   0  0  0  0  0  0  0  0  0  0  0  0  # atno 11005 bound_to 11000
  144.7205  140.4356  143.7012 LP  0  0  0  0  0  0  0  0  0  0  0  0  # atno 17320 bound_to 7965
  145.6470  139.1559  143.2883 LP  0  0  0  0  0  0  0  0  0  0  0  0  # atno 17321 bound_to 7965
  139.4991  144.3960  152.0231 LP  0  0  0  0  0  0  0  0  0  0  0  0  # atno 17342 bound_to 10162
  140.3069  144.3582  150.6044 LP  0  0  0  0  0  0  0  0  0  0  0  0  # atno 17343 bound_to 10162
  156.1346  130.6202  151.0382 LP  0  0  0  0  0  0  0  0  0  0  0  0  # atno 17370 bound_to 10713
  157.6739  131.0855  150.7543 LP  0  0  0  0  0  0  0  0  0  0  0  0  # atno 17371 bound_to 10713
  141.1649  133.8722  157.1743 LP  0  0  0  0  0  0  0  0  0  0  0  0  # atno 17394 bound_to 11000
  139.9985  135.0037  157.0137 LP  0  0  0  0  0  0  0  0  0  0  0  0  # atno 17395 bound_to 11000

$$$$
