AV-unprocessed.smi:17|AV-procd|sdf|103|dock1
  -GOLD-   2262015253D 1   1.00000     0.00000
 Structure written by MMmdl.
 57 59  0  0  0  0  0  0  0  0  1 V2000
  147.3797  140.2129  153.4458 C   0  0  0  0  0  0  0  0  0  0  0  0
  147.3810  139.7488  154.9110 C   0  0  0  0  0  0  0  0  0  0  0  0
  148.2263  138.5740  155.1445 N   0  0  0  0  0  0  0  0  0  0  0  0
  147.7174  137.3501  154.8331 C   0  0  0  0  0  0  0  0  0  0  0  0
  148.3606  136.2355  155.2729 N   0  0  0  0  0  0  0  0  0  0  0  0
  147.8936  135.0192  154.9796 C   0  0  0  0  0  0  0  0  0  0  0  0
  146.8135  134.6905  154.2708 N   0  0  0  0  0  0  0  0  0  0  0  0
  146.1585  135.8003  153.8269 C   0  0  0  0  0  0  0  0  0  0  0  0
  146.5382  137.1546  154.0551 C   0  0  0  0  0  0  0  0  0  0  0  0
  145.6164  138.0038  153.4522 N   0  0  0  0  0  0  0  0  0  0  0  0
  144.7467  137.2018  152.9023 C   0  0  0  0  0  0  0  0  0  0  0  0
  144.9922  135.8612  153.0843 N   0  0  0  0  0  0  0  0  0  0  0  0
  144.1837  134.7602  152.5896 C   0  0  0  0  0  0  0  0  0  0  0  0
  144.6918  134.1859  151.2400 C   0  0  2  0  0  0  0  0  0  0  0  0
  144.4535  135.1808  150.0746 C   0  0  0  0  0  0  0  0  0  0  0  0
  145.3927  136.2359  150.0963 O   0  0  0  0  0  0  0  0  0  0  0  0
  144.1099  132.7644  150.9700 C   0  0  2  0  0  0  0  0  0  0  0  0
  144.5688  131.7107  151.9743 C   0  0  0  0  0  0  0  0  0  0  0  0
  145.8925  131.2039  151.3962 C   0  0  0  0  0  0  0  0  0  0  0  0
  145.8910  131.5788  150.0231 O   0  0  0  0  0  0  0  0  0  0  0  0
  144.6094  132.0880  149.6867 C   0  0  0  0  0  0  0  0  0  0  0  0
  149.6769  138.7179  155.3364 C   0  0  1  0  0  0  0  0  0  0  0  0
  150.4613  138.2949  154.0826 C   0  0  0  0  0  0  0  0  0  0  0  0
  150.0772  140.1337  155.8049 C   0  0  0  0  0  0  0  0  0  0  0  0
  151.7100  140.1790  156.6777 S   0  0  0  0  0  0  0  0  0  0  0  0
  151.4990  138.9195  158.0027 C   0  0  0  0  0  0  0  0  0  0  0  0
  152.7640  139.7107  155.7645 O   0  0  0  0  0  0  0  0  0  0  0  0
  151.8377  141.4905  157.3305 O   0  0  0  0  0  0  0  0  0  0  0  0
  146.7738  141.1113  153.3293 H   0  0  0  0  0  0  0  0  0  0  0  0
  146.9661  139.4520  152.7837 H   0  0  0  0  0  0  0  0  0  0  0  0
  148.3860  140.4467  153.0988 H   0  0  0  0  0  0  0  0  0  0  0  0
  147.7342  140.5732  155.5287 H   0  0  0  0  0  0  0  0  0  0  0  0
  146.3631  139.5567  155.2449 H   0  0  0  0  0  0  0  0  0  0  0  0
  148.4665  134.1910  155.3697 H   0  0  0  0  0  0  0  0  0  0  0  0
  143.8924  137.5675  152.3513 H   0  0  0  0  0  0  0  0  0  0  0  0
  144.1747  133.9996  153.3680 H   0  0  0  0  0  0  0  0  0  0  0  0
  143.1525  135.1009  152.4896 H   0  0  0  0  0  0  0  0  0  0  0  0
  145.7743  134.0821  151.3275 H   0  0  0  0  0  0  0  0  0  0  0  0
  144.5163  134.6808  149.1086 H   0  0  0  0  0  0  0  0  0  0  0  0
  143.4490  135.5990  150.1072 H   0  0  0  0  0  0  0  0  0  0  0  0
  144.9462  137.0402  149.8796 H   0  0  0  0  0  0  0  0  0  0  0  0
  143.0209  132.8287  150.9548 H   0  0  0  0  0  0  0  0  0  0  0  0
  144.6706  132.0583  153.0006 H   0  0  0  0  0  0  0  0  0  0  0  0
  143.8478  130.8917  151.9877 H   0  0  0  0  0  0  0  0  0  0  0  0
  146.7440  131.6743  151.8885 H   0  0  0  0  0  0  0  0  0  0  0  0
  145.9910  130.1237  151.5057 H   0  0  0  0  0  0  0  0  0  0  0  0
  143.9617  131.2460  149.4368 H   0  0  0  0  0  0  0  0  0  0  0  0
  144.6417  132.7267  148.8065 H   0  0  0  0  0  0  0  0  0  0  0  0
  149.9975  138.0476  156.1339 H   0  0  0  0  0  0  0  0  0  0  0  0
  151.5351  138.3115  154.2703 H   0  0  0  0  0  0  0  0  0  0  0  0
  150.2645  138.9599  153.2415 H   0  0  0  0  0  0  0  0  0  0  0  0
  150.1996  137.2816  153.7768 H   0  0  0  0  0  0  0  0  0  0  0  0
  150.1849  140.7747  154.9296 H   0  0  0  0  0  0  0  0  0  0  0  0
  149.3242  140.6013  156.4378 H   0  0  0  0  0  0  0  0  0  0  0  0
  152.3658  138.9441  158.6623 H   0  0  0  0  0  0  0  0  0  0  0  0
  151.4195  137.9275  157.5648 H   0  0  0  0  0  0  0  0  0  0  0  0
  150.6011  139.1389  158.5799 H   0  0  0  0  0  0  0  0  0  0  0  0
  1  2  1  0  0  0  0
  1 29  1  0  0  0  0
  1 30  1  0  0  0  0
  1 31  1  0  0  0  0
  2  3  1  0  0  0  0
  2 32  1  0  0  0  0
  2 33  1  0  0  0  0
  3  4  1  0  0  0  0
  3 22  1  0  0  0  0
  4  9  1  0  0  0  0
  4  5  2  0  0  0  0
  5  6  1  0  0  0  0
  6  7  2  0  0  0  0
  6 34  1  0  0  0  0
  7  8  1  0  0  0  0
  8 12  1  0  0  0  0
  8  9  2  0  0  0  0
  9 10  1  0  0  0  0
 10 11  2  0  0  0  0
 11 12  1  0  0  0  0
 11 35  1  0  0  0  0
 12 13  1  0  0  0  0
 13 14  1  0  0  0  0
 13 36  1  0  0  0  0
 13 37  1  0  0  0  0
 14 15  1  0  0  0  0
 14 17  1  0  0  0  0
 14 38  1  0  0  0  0
 15 16  1  0  0  0  0
 15 39  1  0  0  0  0
 15 40  1  0  0  0  0
 16 41  1  0  0  0  0
 17 21  1  0  0  0  0
 17 18  1  0  0  0  0
 17 42  1  0  0  0  0
 18 19  1  0  0  0  0
 18 43  1  0  0  0  0
 18 44  1  0  0  0  0
 19 20  1  0  0  0  0
 19 45  1  0  0  0  0
 19 46  1  0  0  0  0
 20 21  1  0  0  0  0
 21 47  1  0  0  0  0
 21 48  1  0  0  0  0
 22 23  1  0  0  0  0
 22 24  1  0  0  0  0
 22 49  1  0  0  0  0
 23 50  1  0  0  0  0
 23 51  1  0  0  0  0
 23 52  1  0  0  0  0
 24 25  1  0  0  0  0
 24 53  1  0  0  0  0
 24 54  1  0  0  0  0
 25 26  1  0  0  0  0
 25 27  2  0  0  0  0
 25 28  2  0  0  0  0
 26 55  1  0  0  0  0
 26 56  1  0  0  0  0
 26 57  1  0  0  0  0
M  END
> <s_m_source_file>
AV-unprocessed.smi

> <i_m_source_file_index>
17

> <i_lp_mmshare_version>
43012

> <i_f3d_flags>
0

> <s_epik_input>
W0NIM11TKD1PKSg9TylbQ0gyXVtDQEBIXShbQ0gzXSlOKFtDSDJdW0NIM10pYyhuW2NIXW4xKWMoYzEyKW5bY0hdbjJbQ0gyXVtDQEhdKFtDSDJdW09IXSlbQ0BASF0zW0NIMl1bQ0gyXU9bQ0gyXTM=

> <s_epik_cmdline>
J2VwaWtfcHl0aG9uJywgJy1waCcsICc3LjAnLCAnLXRuJywgJzgnLCAnLW1hJywgJzIwMCcsICctbWV0YWxfYmluZGluZycsICctaW1hZScsICc8aW5maWxlLm1hZT4nLCAnLW9tYWUnLCAnPG91dGZpbGUubWFlPic=

> <r_lp_tautomer_probability>
1

> <r_epik_Ionization_Penalty>
0.00119955

> <r_epik_Ionization_Penalty_Charging>
0

> <r_epik_Ionization_Penalty_Neutral>
0.00119955

> <r_epik_State_Penalty>
0.000665399

> <r_epik_Charging_Adjusted_Penalty>
0.000665399

> <i_epik_Tot_Q>
0

> <i_epik_Tot_abs_Q>
0

> <r_epik_Metal_State_Penalty>
-0

> <b_epik_Metal_Only>
0

> <s_lp_Force_Field>
OPLS_2005

> <r_lp_Energy>
34.7732

> <b_lp_Chiralities_Consistent>
1

> <s_lp_Variant>
AV-unprocessed.smi:17-5

> <Gold.Version>
5.8.1

> <Gold.Id.Protein>
6NUR|6NUR_protein|mol2

> <Gold.PLP.Fitness>
43.6288

> <Gold.PLP.PLP>
-34.9197

> <Gold.PLP.part.hbond>
-3.0000

> <Gold.PLP.part.metal>
0.0000

> <Gold.PLP.part.buried>
-3.3965

> <Gold.PLP.part.nonpolar>
-29.1268

> <Gold.PLP.part.repulsive>
0.5621

> <Gold.PLP.ligand.clash>
0.0000

> <Gold.PLP.ligand.torsion>
1.7464

> <Gold.PLP.Chemscore.Hbond>
2.0000

> <Gold.PLP.Chemscore.CHOScore>
1.3838

> <Gold.PLP.Chemscore.Metal>
0.0000

> <Gold.Chemscore.Hbonds>
donor molecule, donor type, donor heavy atom, donor atom, acceptor molecule, acceptor atom, score
      L1  H    16    41       P1 10171  1.00
      P1  H  7997  8009       L1    27  1.00
      L1  C    11    35       P1 10171  0.49
      L1  C    11    35       P1 10175  0.09

> <Gold.PLP.Chemscore.Internal.Correction>
2.0504

> <Gold.Rescore>
     Score         DG    S(hbond)    S(metal)    S(lipo)     H(rot)  DE(clash)    DE(int)     intcor
      8.66     -12.53       1.99        0.00      80.07       3.51       0.89       2.98       ----

> <Gold.Chemscore.Fitness>
8.6568

> <Gold.Chemscore.DG>
-12.5281

> <Gold.Chemscore.ZeroCoef>
-5.4800

> <Gold.Chemscore.Hbond>
1.9924

> <Gold.Chemscore.Metal>
0.0000

> <Gold.Chemscore.Lipo>
80.0716

> <Gold.Chemscore.Internal_Hbond>
0.0000

> <Gold.Chemscore.DEClash>
0.8917

> <Gold.Chemscore.DEInternal>
2.9797

> <Gold.Chemscore.Rot>
3.5059

> <Gold.Chemscore.Internal.Correction>
   9.000000E+99

> <Gold.Chemscore.Hbonds>
donor molecule, donor type, donor heavy atom, donor atom, acceptor molecule, acceptor atom, score
      L1  H    16    41       P1 10171  1.00
      P1  H  7997  8009       L1    27  0.91

> <Gold.Chemscore.Hbond.Weighted>
-6.6547

> <Gold.Chemscore.Metal.Weighted>
-0.0000

> <Gold.Chemscore.Lipo.Weighted>
-9.3684

> <Gold.Chemscore.Internal_Hbond.Weighted>
0.0000

> <Gold.Chemscore.DEClash.Weighted>
0.8917

> <Gold.Chemscore.DEInternal.Weighted>
2.9797

> <Gold.Chemscore.Rot.Weighted>
8.9750

> <Gold.Chemscore.Internal.Correction.Weighted>
   9.000000E+99

> <Gold.Protein.RotatedTorsions>
[ 6907 6896 6895 6894 ] final   36.78 input  -60.11 | X-H torsion
[ 7974 7965 7964 7962 ] final -169.34 input  175.53 | X-H torsion
[ 8008 7997 7996 7995 ] final -155.12 input   59.86 | X-H torsion
[ 10167 10162 10161 10158 ] final -148.12 input  -65.29 | X-H torsion
[ 10718 10713 10712 10709 ] final  174.52 input   66.30 | X-H torsion
[ 10763 10752 10751 10750 ] final   18.74 input  -60.55 | X-H torsion
[ 11005 11000 10999 10996 ] final   20.40 input  -57.11 | X-H torsion

> <Gold.Protein.ActiveResidues>
 VAL166  LYS551  ARG553  GLY616  TRP617  ASP618  TYR619  PRO620  LYS621  CYS622 
 ASP623  PHE694  ASN695  SER759  ASP760  ASP761  ALA762  ILE779  LEU786  VAL792 
 PHE793  MET794  SER795  GLU796  ALA797  LYS798  CYS799  TRP800  GLU811  SER814 

> <Gold.Protein.RotatedAtoms>
  152.1344  134.9110  160.0556 H   0  0  0  0  0  0  0  0  0  0  0  0  # atno 6907 bound_to 6896
  152.0202  133.3891  159.4263 H   0  0  0  0  0  0  0  0  0  0  0  0  # atno 6908 bound_to 6896
  150.6859  134.3555  159.4971 H   0  0  0  0  0  0  0  0  0  0  0  0  # atno 6909 bound_to 6896
  144.7187  140.2236  143.6313 H   0  0  0  0  0  0  0  0  0  0  0  0  # atno 7974 bound_to 7965
  155.6969  140.0762  157.2426 H   0  0  0  0  0  0  0  0  0  0  0  0  # atno 8008 bound_to 7997
  154.4079  140.1654  156.2201 H   0  0  0  0  0  0  0  0  0  0  0  0  # atno 8009 bound_to 7997
  155.9402  140.3385  155.6324 H   0  0  0  0  0  0  0  0  0  0  0  0  # atno 8010 bound_to 7997
  139.7560  143.8447  152.2597 H   0  0  0  0  0  0  0  0  0  0  0  0  # atno 10167 bound_to 10162
  156.9484  131.0023  151.2954 H   0  0  0  0  0  0  0  0  0  0  0  0  # atno 10718 bound_to 10713
  153.1223  135.6722  153.9315 H   0  0  0  0  0  0  0  0  0  0  0  0  # atno 10763 bound_to 10752
  153.8827  135.3056  155.3447 H   0  0  0  0  0  0  0  0  0  0  0  0  # atno 10764 bound_to 10752
  154.7633  135.4977  153.9585 H   0  0  0  0  0  0  0  0  0  0  0  0  # atno 10765 bound_to 10752
  140.4030  134.1698  155.7664 H   0  0  0  0  0  0  0  0  0  0  0  0  # atno 11005 bound_to 11000
  145.8477  139.2160  143.1790 LP  0  0  0  0  0  0  0  0  0  0  0  0  # atno 17320 bound_to 7965
  146.0289  140.8277  142.9886 LP  0  0  0  0  0  0  0  0  0  0  0  0  # atno 17321 bound_to 7965
  139.8439  144.7196  150.9296 LP  0  0  0  0  0  0  0  0  0  0  0  0  # atno 17342 bound_to 10162
  140.7803  143.3958  151.1232 LP  0  0  0  0  0  0  0  0  0  0  0  0  # atno 17343 bound_to 10162
  157.5738  130.8329  149.8428 LP  0  0  0  0  0  0  0  0  0  0  0  0  # atno 17370 bound_to 10713
  156.0373  130.3748  150.1526 LP  0  0  0  0  0  0  0  0  0  0  0  0  # atno 17371 bound_to 10713
  141.1850  133.8333  157.1121 LP  0  0  0  0  0  0  0  0  0  0  0  0  # atno 17394 bound_to 11000
  140.0322  134.9895  157.0803 LP  0  0  0  0  0  0  0  0  0  0  0  0  # atno 17395 bound_to 11000

$$$$
