AV-unprocessed.smi:3336|AV-procd|sdf|12856|dock4
  -GOLD-   2272019253D 1   1.00000     0.00000
 Structure written by MMmdl.
 42 43  0  0  0  0  0  0  0  0  2 V2000
  146.2181  134.9631  153.5882 C   0  0  0  0  0  0  0  0  0  0  0  0
  147.3305  133.9259  153.3373 C   0  0  1  0  0  0  0  0  0  0  0  0
  147.4000  133.4787  151.8627 C   0  0  0  0  0  0  0  0  0  0  0  0
  146.1180  133.0403  151.3405 N   0  0  0  0  0  0  0  0  0  0  0  0
  145.7838  131.8103  150.8138 C   0  0  0  0  0  0  0  0  0  0  0  0
  144.4681  131.8668  150.4535 C   0  0  0  0  0  0  0  0  0  0  0  0
  144.0788  133.1907  150.8003 C   0  0  0  0  0  0  0  0  0  0  0  0
  145.0691  133.8911  151.3296 N   0  0  0  0  0  0  0  0  0  0  0  0
  148.6524  134.4619  153.7381 N   0  3  0  0  0  0  0  0  0  0  0  0
  148.7722  134.9964  155.1182 C   0  0  1  0  0  0  0  0  0  0  0  0
  148.4197  133.9083  156.1525 C   0  0  0  0  0  0  0  0  0  0  0  0
  150.2022  135.5210  155.3666 C   0  0  0  0  0  0  0  0  0  0  0  0
  151.1187  134.6987  155.4234 O   0  0  0  0  0  0  0  0  0  0  0  0
  150.4274  136.8505  155.5236 N   0  0  0  0  0  0  0  0  0  0  0  0
  149.3530  137.8487  155.4683 C   0  0  0  0  0  0  0  0  0  0  0  0
  149.6091  138.7810  154.2718 C   0  0  0  0  0  0  0  0  0  0  0  0
  150.8819  139.4029  154.4215 O   0  0  0  0  0  0  0  0  0  0  0  0
  151.9518  138.4657  154.5010 C   0  0  0  0  0  0  0  0  0  0  0  0
  151.7270  137.5130  155.6903 C   0  0  0  0  0  0  0  0  0  0  0  0
  145.2355  134.5625  153.3387 H   0  0  0  0  0  0  0  0  0  0  0  0
  146.3719  135.8592  152.9864 H   0  0  0  0  0  0  0  0  0  0  0  0
  146.1730  135.2698  154.6324 H   0  0  0  0  0  0  0  0  0  0  0  0
  147.1138  133.0406  153.9349 H   0  0  0  0  0  0  0  0  0  0  0  0
  147.7774  134.2898  151.2370 H   0  0  0  0  0  0  0  0  0  0  0  0
  148.1043  132.6527  151.7542 H   0  0  0  0  0  0  0  0  0  0  0  0
  146.5012  131.0060  150.7405 H   0  0  0  0  0  0  0  0  0  0  0  0
  143.8738  131.0825  150.0082 H   0  0  0  0  0  0  0  0  0  0  0  0
  143.1132  133.6604  150.6838 H   0  0  0  0  0  0  0  0  0  0  0  0
  149.3397  133.7281  153.6417 H   0  0  0  0  0  0  0  0  0  0  0  0
  148.0791  135.8311  155.1985 H   0  0  0  0  0  0  0  0  0  0  0  0
  148.5457  134.2640  157.1749 H   0  0  0  0  0  0  0  0  0  0  0  0
  149.0538  133.0286  156.0339 H   0  0  0  0  0  0  0  0  0  0  0  0
  147.3843  133.5820  156.0612 H   0  0  0  0  0  0  0  0  0  0  0  0
  148.3593  137.4077  155.3813 H   0  0  0  0  0  0  0  0  0  0  0  0
  149.3452  138.4230  156.3958 H   0  0  0  0  0  0  0  0  0  0  0  0
  149.5694  138.2288  153.3315 H   0  0  0  0  0  0  0  0  0  0  0  0
  148.8418  139.5537  154.2225 H   0  0  0  0  0  0  0  0  0  0  0  0
  152.0280  137.9101  153.5652 H   0  0  0  0  0  0  0  0  0  0  0  0
  152.8877  139.0106  154.6254 H   0  0  0  0  0  0  0  0  0  0  0  0
  151.7226  138.0770  156.6243 H   0  0  0  0  0  0  0  0  0  0  0  0
  152.5720  136.8321  155.7581 H   0  0  0  0  0  0  0  0  0  0  0  0
  148.8930  135.1991  153.0905 H   0  0  0  0  0  0  0  0  0  0  0  0
  1  2  1  0  0  0  0
  1 20  1  0  0  0  0
  1 21  1  0  0  0  0
  1 22  1  0  0  0  0
  2  3  1  0  0  0  0
  2  9  1  0  0  0  0
  2 23  1  0  0  0  0
  3  4  1  0  0  0  0
  3 24  1  0  0  0  0
  3 25  1  0  0  0  0
  4  8  1  0  0  0  0
  4  5  1  0  0  0  0
  5  6  2  0  0  0  0
  5 26  1  0  0  0  0
  6  7  1  0  0  0  0
  6 27  1  0  0  0  0
  7  8  2  0  0  0  0
  7 28  1  0  0  0  0
  9 10  1  0  0  0  0
  9 29  1  0  0  0  0
  9 42  1  0  0  0  0
 10 11  1  0  0  0  0
 10 12  1  0  0  0  0
 10 30  1  0  0  0  0
 11 31  1  0  0  0  0
 11 32  1  0  0  0  0
 11 33  1  0  0  0  0
 12 13  2  0  0  0  0
 12 14  1  0  0  0  0
 14 19  1  0  0  0  0
 14 15  1  0  0  0  0
 15 16  1  0  0  0  0
 15 34  1  0  0  0  0
 15 35  1  0  0  0  0
 16 17  1  0  0  0  0
 16 36  1  0  0  0  0
 16 37  1  0  0  0  0
 17 18  1  0  0  0  0
 18 19  1  0  0  0  0
 18 38  1  0  0  0  0
 18 39  1  0  0  0  0
 19 40  1  0  0  0  0
 19 41  1  0  0  0  0
M  CHG  1   9   1
M  END
> <s_m_source_file>
AV-unprocessed.smi

> <i_m_source_file_index>
3336

> <i_lp_mmshare_version>
43012

> <i_f3d_flags>
0

> <s_epik_input>
bjFbY0hdW2NIXVtjSF1uMVtDSDJdW0NAQEhdKFtDSDNdKVtOSF1bQ0BIXShbQ0gzXSlDKD1PKU4yW0NIMl1bQ0gyXU9bQ0gyXVtDSDJdMg==

> <s_epik_cmdline>
J2VwaWtfcHl0aG9uJywgJy1waCcsICc3LjAnLCAnLXRuJywgJzgnLCAnLW1hJywgJzIwMCcsICctbWV0YWxfYmluZGluZycsICctaW1hZScsICc8aW5maWxlLm1hZT4nLCAnLW9tYWUnLCAnPG91dGZpbGUubWFlPic=

> <r_lp_tautomer_probability>
1

> <r_epik_Ionization_Penalty>
0.200288

> <r_epik_Ionization_Penalty_Charging>
0.200285

> <r_epik_Ionization_Penalty_Neutral>
3.37705e-06

> <r_epik_State_Penalty>
0.190126

> <r_epik_Charging_Adjusted_Penalty>
0.39041

> <i_epik_Tot_Q>
1

> <i_epik_Tot_abs_Q>
1

> <r_epik_Metal_State_Penalty>
0.190133

> <b_epik_Metal_Only>
0

> <s_lp_Force_Field>
OPLS_2005

> <r_lp_Energy>
28.672

> <b_lp_Chiralities_Consistent>
1

> <s_lp_Variant>
AV-unprocessed.smi:3336-4

> <Gold.Version>
5.8.1

> <Gold.Id.Protein>
6NUR|6NUR_protein|mol2

> <Gold.PLP.Fitness>
45.3231

> <Gold.PLP.PLP>
-29.3310

> <Gold.PLP.part.hbond>
-2.8543

> <Gold.PLP.part.metal>
0.0000

> <Gold.PLP.part.buried>
-2.9225

> <Gold.PLP.part.nonpolar>
-22.4621

> <Gold.PLP.part.repulsive>
0.3183

> <Gold.PLP.ligand.clash>
0.0000

> <Gold.PLP.ligand.torsion>
0.1515

> <Gold.PLP.Chemscore.Hbond>
3.4030

> <Gold.PLP.Chemscore.CHOScore>
1.9995

> <Gold.PLP.Chemscore.Metal>
0.0000

> <Gold.Chemscore.Hbonds>
donor molecule, donor type, donor heavy atom, donor atom, acceptor molecule, acceptor atom, score
      L1  H     9    42       P1  7948  2.00
      P1  H  7989  7998       L1    17  1.00
      P1  H 10752 10764       L1    13  0.59
      L1  C     5    26       P1 10747  1.00
      L1  C     7    28       P1 10186  1.00

> <Gold.PLP.Chemscore.Internal.Correction>
0.0876

> <Gold.Rescore>
     Score         DG    S(hbond)    S(metal)    S(lipo)     H(rot)  DE(clash)    DE(int)     intcor
     13.86     -15.72       2.09        0.00      68.42       1.85       0.16       1.70       ----

> <Gold.Chemscore.Fitness>
13.8649

> <Gold.Chemscore.DG>
-15.7248

> <Gold.Chemscore.ZeroCoef>
-5.4800

> <Gold.Chemscore.Hbond>
2.0918

> <Gold.Chemscore.Metal>
0.0000

> <Gold.Chemscore.Lipo>
68.4182

> <Gold.Chemscore.Internal_Hbond>
0.0000

> <Gold.Chemscore.DEClash>
0.1576

> <Gold.Chemscore.DEInternal>
1.7023

> <Gold.Chemscore.Rot>
1.8541

> <Gold.Chemscore.Internal.Correction>
   9.000000E+99

> <Gold.Chemscore.Hbonds>
donor molecule, donor type, donor heavy atom, donor atom, acceptor molecule, acceptor atom, score
      L1  H     9    42       P1  7948  0.38
      P1  H  7989  7998       L1    17  0.40
      P1  H 10752 10764       L1    13  0.50

> <Gold.Chemscore.Hbond.Weighted>
-6.9864

> <Gold.Chemscore.Metal.Weighted>
-0.0000

> <Gold.Chemscore.Lipo.Weighted>
-8.0049

> <Gold.Chemscore.Internal_Hbond.Weighted>
0.0000

> <Gold.Chemscore.DEClash.Weighted>
0.1576

> <Gold.Chemscore.DEInternal.Weighted>
1.7023

> <Gold.Chemscore.Rot.Weighted>
4.7465

> <Gold.Chemscore.Internal.Correction.Weighted>
   9.000000E+99

> <Gold.Protein.RotatedTorsions>
[ 6907 6896 6895 6894 ] final -173.42 input  -60.11 | X-H torsion
[ 7974 7965 7964 7962 ] final  -13.44 input  175.53 | X-H torsion
[ 8008 7997 7996 7995 ] final  -77.55 input   59.86 | X-H torsion
[ 10167 10162 10161 10158 ] final -120.02 input  -65.29 | X-H torsion
[ 10718 10713 10712 10709 ] final -119.29 input   66.30 | X-H torsion
[ 10763 10752 10751 10750 ] final  -44.22 input  -60.55 | X-H torsion
[ 11005 11000 10999 10996 ] final  139.24 input  -57.11 | X-H torsion

> <Gold.Protein.ActiveResidues>
 VAL166  LYS551  ARG553  GLY616  TRP617  ASP618  TYR619  PRO620  LYS621  CYS622 
 ASP623  PHE694  ASN695  SER759  ASP760  ASP761  ALA762  ILE779  LEU786  VAL792 
 PHE793  MET794  SER795  GLU796  ALA797  LYS798  CYS799  TRP800  GLU811  SER814 

> <Gold.Protein.RotatedAtoms>
  151.5559  133.3410  159.2961 H   0  0  0  0  0  0  0  0  0  0  0  0  # atno 6907 bound_to 6896
  150.8451  134.7760  159.6975 H   0  0  0  0  0  0  0  0  0  0  0  0  # atno 6908 bound_to 6896
  152.4510  134.5400  159.9888 H   0  0  0  0  0  0  0  0  0  0  0  0  # atno 6909 bound_to 6896
  146.2114  140.3204  142.8390 H   0  0  0  0  0  0  0  0  0  0  0  0  # atno 7974 bound_to 7965
  154.5606  140.0708  156.8813 H   0  0  0  0  0  0  0  0  0  0  0  0  # atno 8008 bound_to 7997
  155.2818  140.3372  155.4239 H   0  0  0  0  0  0  0  0  0  0  0  0  # atno 8009 bound_to 7997
  156.2039  140.1732  156.7826 H   0  0  0  0  0  0  0  0  0  0  0  0  # atno 8010 bound_to 7997
  140.0404  143.5159  152.2133 H   0  0  0  0  0  0  0  0  0  0  0  0  # atno 10167 bound_to 10162
  156.1170  130.6293  150.9398 H   0  0  0  0  0  0  0  0  0  0  0  0  # atno 10718 bound_to 10713
  154.0084  135.6684  153.4763 H   0  0  0  0  0  0  0  0  0  0  0  0  # atno 10763 bound_to 10752
  153.0631  135.5016  154.8136 H   0  0  0  0  0  0  0  0  0  0  0  0  # atno 10764 bound_to 10752
  154.7010  135.3079  154.9304 H   0  0  0  0  0  0  0  0  0  0  0  0  # atno 10765 bound_to 10752
  140.0241  134.9383  157.0532 H   0  0  0  0  0  0  0  0  0  0  0  0  # atno 11005 bound_to 11000
  144.8924  140.7541  143.5918 LP  0  0  0  0  0  0  0  0  0  0  0  0  # atno 17320 bound_to 7965
  145.3127  139.1813  143.4630 LP  0  0  0  0  0  0  0  0  0  0  0  0  # atno 17321 bound_to 7965
  139.6018  144.7584  151.3155 LP  0  0  0  0  0  0  0  0  0  0  0  0  # atno 17342 bound_to 10162
  140.7263  143.6995  150.7857 LP  0  0  0  0  0  0  0  0  0  0  0  0  # atno 17343 bound_to 10162
  157.6353  131.0916  150.8360 LP  0  0  0  0  0  0  0  0  0  0  0  0  # atno 17370 bound_to 10713
  156.8462  130.5065  149.5316 LP  0  0  0  0  0  0  0  0  0  0  0  0  # atno 17371 bound_to 10713
  140.4337  134.1753  155.7169 LP  0  0  0  0  0  0  0  0  0  0  0  0  # atno 17394 bound_to 11000
  141.1792  133.8450  157.1318 LP  0  0  0  0  0  0  0  0  0  0  0  0  # atno 17395 bound_to 11000

$$$$
