AV-unprocessed.smi:2587|AV-procd|sdf|10147|dock7
  -GOLD-   2272014163D 1   1.00000     0.00000
 Structure written by MMmdl.
 40 41  0  0  0  0  0  0  0  0  2 V2000
  148.4331  135.8062  155.4188 C   0  0  0  0  0  0  0  0  0  0  0  0
  149.7389  136.0959  155.3203 C   0  0  0  0  0  0  0  0  0  0  0  0
  150.2945  137.3218  154.6241 C   0  0  0  0  0  0  0  0  0  0  0  0
  151.0834  138.1702  155.5143 N   0  0  0  0  0  0  0  0  0  0  0  0
  152.3720  137.6655  155.9894 C   0  0  0  0  0  0  0  0  0  0  0  0
  152.4121  137.5070  157.5169 C   0  0  0  0  0  0  0  0  0  0  0  0
  153.7462  137.6061  157.9628 O   0  0  0  0  0  0  0  0  0  0  0  0
  150.7322  139.5295  155.7053 C   0  0  0  0  0  0  0  0  0  0  0  0
  151.2220  140.2880  156.7918 C   0  0  0  0  0  0  0  0  0  0  0  0
  150.8170  141.6396  156.9050 C   0  0  0  0  0  0  0  0  0  0  0  0
  151.2517  142.5015  157.9370 N   0  0  0  0  0  0  0  0  0  0  0  0
  151.6960  143.8454  157.5761 C   0  0  0  0  0  0  0  0  0  0  0  0
  151.8207  144.7294  158.8283 C   0  0  0  0  0  0  0  0  0  0  0  0
  152.6671  144.0961  159.7804 O   0  0  0  0  0  0  0  0  0  0  0  0
  152.1307  142.8522  160.2153 C   0  0  0  0  0  0  0  0  0  0  0  0
  152.0185  141.8894  159.0215 C   0  0  0  0  0  0  0  0  0  0  0  0
  149.9747  142.1482  155.9681 N   0  3  0  0  0  0  0  0  0  0  0  0
  149.5427  141.3846  154.9567 C   0  0  0  0  0  0  0  0  0  0  0  0
  149.9010  140.1073  154.8099 N   0  0  0  0  0  0  0  0  0  0  0  0
  147.6804  136.4549  154.9956 H   0  0  0  0  0  0  0  0  0  0  0  0
  148.1005  134.9120  155.9256 H   0  0  0  0  0  0  0  0  0  0  0  0
  150.4632  135.4203  155.7518 H   0  0  0  0  0  0  0  0  0  0  0  0
  150.9294  136.9763  153.8074 H   0  0  0  0  0  0  0  0  0  0  0  0
  149.4932  137.8932  154.1544 H   0  0  0  0  0  0  0  0  0  0  0  0
  152.6218  136.7239  155.4989 H   0  0  0  0  0  0  0  0  0  0  0  0
  153.1475  138.3675  155.6799 H   0  0  0  0  0  0  0  0  0  0  0  0
  151.8175  138.2797  158.0052 H   0  0  0  0  0  0  0  0  0  0  0  0
  152.0085  136.5412  157.8217 H   0  0  0  0  0  0  0  0  0  0  0  0
  153.7527  137.5598  158.9066 H   0  0  0  0  0  0  0  0  0  0  0  0
  151.8873  139.8468  157.5154 H   0  0  0  0  0  0  0  0  0  0  0  0
  152.6566  143.7814  157.0635 H   0  0  0  0  0  0  0  0  0  0  0  0
  150.9858  144.3099  156.8915 H   0  0  0  0  0  0  0  0  0  0  0  0
  152.2458  145.6976  158.5634 H   0  0  0  0  0  0  0  0  0  0  0  0
  150.8410  144.9222  159.2688 H   0  0  0  0  0  0  0  0  0  0  0  0
  152.7861  142.4299  160.9771 H   0  0  0  0  0  0  0  0  0  0  0  0
  151.1574  143.0064  160.6842 H   0  0  0  0  0  0  0  0  0  0  0  0
  151.5608  140.9614  159.3636 H   0  0  0  0  0  0  0  0  0  0  0  0
  153.0125  141.6377  158.6496 H   0  0  0  0  0  0  0  0  0  0  0  0
  148.8789  141.8504  154.2433 H   0  0  0  0  0  0  0  0  0  0  0  0
  149.6794  143.1223  156.0369 H   0  0  0  0  0  0  0  0  0  0  0  0
  1  2  2  0  0  0  0
  1 20  1  0  0  0  0
  1 21  1  0  0  0  0
  2  3  1  0  0  0  0
  2 22  1  0  0  0  0
  3  4  1  0  0  0  0
  3 23  1  0  0  0  0
  3 24  1  0  0  0  0
  4  5  1  0  0  0  0
  4  8  1  0  0  0  0
  5  6  1  0  0  0  0
  5 25  1  0  0  0  0
  5 26  1  0  0  0  0
  6  7  1  0  0  0  0
  6 27  1  0  0  0  0
  6 28  1  0  0  0  0
  7 29  1  0  0  0  0
  8 19  1  0  0  0  0
  8  9  2  0  0  0  0
  9 10  1  0  0  0  0
  9 30  1  0  0  0  0
 10 11  1  0  0  0  0
 10 17  2  0  0  0  0
 11 16  1  0  0  0  0
 11 12  1  0  0  0  0
 12 13  1  0  0  0  0
 12 31  1  0  0  0  0
 12 32  1  0  0  0  0
 13 14  1  0  0  0  0
 13 33  1  0  0  0  0
 13 34  1  0  0  0  0
 14 15  1  0  0  0  0
 15 16  1  0  0  0  0
 15 35  1  0  0  0  0
 15 36  1  0  0  0  0
 16 37  1  0  0  0  0
 16 38  1  0  0  0  0
 17 18  1  0  0  0  0
 17 40  1  0  0  0  0
 18 19  2  0  0  0  0
 18 39  1  0  0  0  0
M  CHG  1  17   1
M  END
> <s_m_source_file>
AV-unprocessed.smi

> <i_m_source_file_index>
2587

> <i_lp_mmshare_version>
43012

> <i_f3d_flags>
0

> <s_epik_input>
W0NIMl09W0NIXVtDSDJdTihbQ0gyXVtDSDJdW09IXSljMVtjSF1jKG5bY0hdbjEpTjJbQ0gyXVtDSDJdT1tDSDJdW0NIMl0y

> <s_epik_cmdline>
J2VwaWtfcHl0aG9uJywgJy1waCcsICc3LjAnLCAnLXRuJywgJzgnLCAnLW1hJywgJzIwMCcsICctbWV0YWxfYmluZGluZycsICctaW1hZScsICc8aW5maWxlLm1hZT4nLCAnLW9tYWUnLCAnPG91dGZpbGUubWFlPic=

> <r_lp_tautomer_probability>
0.999336

> <r_epik_Ionization_Penalty>
3.67622

> <r_epik_Ionization_Penalty_Charging>
3.67622

> <r_epik_Ionization_Penalty_Neutral>
1.25637e-07

> <r_epik_State_Penalty>
2.4309

> <r_epik_Charging_Adjusted_Penalty>
6.10712

> <i_epik_Tot_Q>
1

> <i_epik_Tot_abs_Q>
1

> <r_epik_Metal_State_Penalty>
2.43203

> <b_epik_Metal_Only>
0

> <s_lp_Force_Field>
OPLS_2005

> <r_lp_Energy>
13.6673

> <b_lp_Chiralities_Consistent>
1

> <s_lp_Variant>
AV-unprocessed.smi:2587-2

> <Gold.Version>
5.8.1

> <Gold.Id.Protein>
6NUR|6NUR_protein|mol2

> <Gold.PLP.Fitness>
48.8237

> <Gold.PLP.PLP>
-39.3528

> <Gold.PLP.part.hbond>
-3.0000

> <Gold.PLP.part.metal>
0.0000

> <Gold.PLP.part.buried>
-2.5446

> <Gold.PLP.part.nonpolar>
-33.9741

> <Gold.PLP.part.repulsive>
0.3165

> <Gold.PLP.ligand.clash>
0.0000

> <Gold.PLP.ligand.torsion>
0.7459

> <Gold.PLP.Chemscore.Hbond>
3.4340

> <Gold.PLP.Chemscore.CHOScore>
0.0000

> <Gold.PLP.Chemscore.Metal>
0.0000

> <Gold.Chemscore.Hbonds>
donor molecule, donor type, donor heavy atom, donor atom, acceptor molecule, acceptor atom, score
      L1  H    17    40       P1  8028  2.00
      P1  H  7989  7998       L1    19  0.08

> <Gold.PLP.Chemscore.Internal.Correction>
0.6607

> <Gold.Rescore>
     Score         DG    S(hbond)    S(metal)    S(lipo)     H(rot)  DE(clash)    DE(int)     intcor
     13.75     -14.91       1.91        0.00      82.18       2.57       0.35       0.81       ----

> <Gold.Chemscore.Fitness>
13.7516

> <Gold.Chemscore.DG>
-14.9139

> <Gold.Chemscore.ZeroCoef>
-5.4800

> <Gold.Chemscore.Hbond>
1.9120

> <Gold.Chemscore.Metal>
0.0000

> <Gold.Chemscore.Lipo>
82.1795

> <Gold.Chemscore.Internal_Hbond>
0.0000

> <Gold.Chemscore.DEClash>
0.3540

> <Gold.Chemscore.DEInternal>
0.8082

> <Gold.Chemscore.Rot>
2.5653

> <Gold.Chemscore.Internal.Correction>
   9.000000E+99

> <Gold.Chemscore.Hbonds>
donor molecule, donor type, donor heavy atom, donor atom, acceptor molecule, acceptor atom, score
      L1  H    17    40       P1  8028  1.00

> <Gold.Chemscore.Hbond.Weighted>
-6.3860

> <Gold.Chemscore.Metal.Weighted>
-0.0000

> <Gold.Chemscore.Lipo.Weighted>
-9.6150

> <Gold.Chemscore.Internal_Hbond.Weighted>
0.0000

> <Gold.Chemscore.DEClash.Weighted>
0.3540

> <Gold.Chemscore.DEInternal.Weighted>
0.8082

> <Gold.Chemscore.Rot.Weighted>
6.5671

> <Gold.Chemscore.Internal.Correction.Weighted>
   9.000000E+99

> <Gold.Protein.RotatedTorsions>
[ 6907 6896 6895 6894 ] final  -52.04 input  -60.11 | X-H torsion
[ 7974 7965 7964 7962 ] final -138.72 input  175.53 | X-H torsion
[ 8008 7997 7996 7995 ] final  129.41 input   59.86 | X-H torsion
[ 10167 10162 10161 10158 ] final -150.37 input  -65.29 | X-H torsion
[ 10718 10713 10712 10709 ] final -166.20 input   66.30 | X-H torsion
[ 10763 10752 10751 10750 ] final -170.06 input  -60.55 | X-H torsion
[ 11005 11000 10999 10996 ] final   57.38 input  -57.11 | X-H torsion

> <Gold.Protein.ActiveResidues>
 VAL166  LYS551  ARG553  GLY616  TRP617  ASP618  TYR619  PRO620  LYS621  CYS622 
 ASP623  PHE694  ASN695  SER759  ASP760  ASP761  ALA762  ILE779  LEU786  VAL792 
 PHE793  MET794  SER795  GLU796  ALA797  LYS798  CYS799  TRP800  GLU811  SER814 

> <Gold.Protein.RotatedAtoms>
  150.8555  134.7892  159.7041 H   0  0  0  0  0  0  0  0  0  0  0  0  # atno 6907 bound_to 6896
  152.4608  134.5186  159.9785 H   0  0  0  0  0  0  0  0  0  0  0  0  # atno 6908 bound_to 6896
  151.5299  133.3413  159.2952 H   0  0  0  0  0  0  0  0  0  0  0  0  # atno 6909 bound_to 6896
  144.8735  140.6403  143.5251 H   0  0  0  0  0  0  0  0  0  0  0  0  # atno 7974 bound_to 7965
  156.2935  140.2621  156.2594 H   0  0  0  0  0  0  0  0  0  0  0  0  # atno 8008 bound_to 7997
  154.9803  140.0390  157.2293 H   0  0  0  0  0  0  0  0  0  0  0  0  # atno 8009 bound_to 7997
  154.7777  140.2789  155.6092 H   0  0  0  0  0  0  0  0  0  0  0  0  # atno 8010 bound_to 7997
  139.7360  143.8734  152.2549 H   0  0  0  0  0  0  0  0  0  0  0  0  # atno 10167 bound_to 10162
  156.6644  130.9059  151.3034 H   0  0  0  0  0  0  0  0  0  0  0  0  # atno 10718 bound_to 10713
  154.6456  135.2904  155.0050 H   0  0  0  0  0  0  0  0  0  0  0  0  # atno 10763 bound_to 10752
  154.1161  135.6555  153.4898 H   0  0  0  0  0  0  0  0  0  0  0  0  # atno 10764 bound_to 10752
  153.0349  135.5276  154.7342 H   0  0  0  0  0  0  0  0  0  0  0  0  # atno 10765 bound_to 10752
  140.0457  134.5809  155.9325 H   0  0  0  0  0  0  0  0  0  0  0  0  # atno 11005 bound_to 11000
  145.4086  139.1584  143.4138 LP  0  0  0  0  0  0  0  0  0  0  0  0  # atno 17320 bound_to 7965
  146.2947  140.4188  142.8726 LP  0  0  0  0  0  0  0  0  0  0  0  0  # atno 17321 bound_to 7965
  139.8671  144.7087  150.9031 LP  0  0  0  0  0  0  0  0  0  0  0  0  # atno 17342 bound_to 10162
  140.7779  143.3769  151.1547 LP  0  0  0  0  0  0  0  0  0  0  0  0  # atno 17343 bound_to 10162
  157.7099  130.9428  150.1053 LP  0  0  0  0  0  0  0  0  0  0  0  0  # atno 17370 bound_to 10713
  156.1986  130.3659  149.8817 LP  0  0  0  0  0  0  0  0  0  0  0  0  # atno 17371 bound_to 10713
  141.1906  133.6569  156.5417 LP  0  0  0  0  0  0  0  0  0  0  0  0  # atno 17394 bound_to 11000
  140.3997  134.7367  157.4772 LP  0  0  0  0  0  0  0  0  0  0  0  0  # atno 17395 bound_to 11000

$$$$
