AV-unprocessed.smi:2563|AV-procd|sdf|10057|dock5
  -GOLD-   2272014 93D 1   1.00000     0.00000
 Structure written by MMmdl.
 35 36  0  0  0  0  0  0  0  0  2 V2000
  152.8475  139.4891  159.0368 C   0  0  0  0  0  0  0  0  0  0  0  0
  151.4311  139.6530  158.4705 C   0  0  0  0  0  0  0  0  0  0  0  0
  151.2476  140.9436  157.8053 N   0  0  0  0  0  0  0  0  0  0  0  0
  150.9010  140.9531  156.3853 C   0  0  0  0  0  0  0  0  0  0  0  0
  149.5988  141.7238  156.1055 C   0  0  1  0  0  0  0  0  0  0  0  0
  149.1806  141.6138  154.6261 C   0  0  0  0  0  0  0  0  0  0  0  0
  147.8871  142.2913  154.4089 N   0  3  0  0  0  0  0  0  0  0  0  0
  146.8449  141.7772  155.3183 C   0  0  0  0  0  0  0  0  0  0  0  0
  147.3278  141.8651  156.7755 C   0  0  0  0  0  0  0  0  0  0  0  0
  148.5604  141.1655  156.9076 O   0  0  0  0  0  0  0  0  0  0  0  0
  151.5232  142.1514  158.4923 C   0  0  0  0  0  0  0  0  0  0  0  0
  151.6399  143.3894  157.8130 C   0  0  0  0  0  0  0  0  0  0  0  0
  151.9161  144.5398  158.5716 C   0  0  0  0  0  0  0  0  0  0  0  0
  152.0570  144.3804  159.9602 C   0  0  0  0  0  0  0  0  0  0  0  0
  151.9343  143.1808  160.5671 N   0  0  0  0  0  0  0  0  0  0  0  0
  151.6717  142.0890  159.8414 N   0  0  0  0  0  0  0  0  0  0  0  0
  152.9628  138.5138  159.5096 H   0  0  0  0  0  0  0  0  0  0  0  0
  153.0648  140.2483  159.7883 H   0  0  0  0  0  0  0  0  0  0  0  0
  153.6006  139.5687  158.2524 H   0  0  0  0  0  0  0  0  0  0  0  0
  151.2456  138.8592  157.7465 H   0  0  0  0  0  0  0  0  0  0  0  0
  150.6880  139.5079  159.2551 H   0  0  0  0  0  0  0  0  0  0  0  0
  151.7264  141.3663  155.8056 H   0  0  0  0  0  0  0  0  0  0  0  0
  150.7948  139.9254  156.0351 H   0  0  0  0  0  0  0  0  0  0  0  0
  149.7339  142.7756  156.3641 H   0  0  0  0  0  0  0  0  0  0  0  0
  149.9327  142.0664  153.9792 H   0  0  0  0  0  0  0  0  0  0  0  0
  149.0903  140.5674  154.3315 H   0  0  0  0  0  0  0  0  0  0  0  0
  148.0069  143.2792  154.5819 H   0  0  0  0  0  0  0  0  0  0  0  0
  145.9283  142.3510  155.1812 H   0  0  0  0  0  0  0  0  0  0  0  0
  146.6200  140.7421  155.0576 H   0  0  0  0  0  0  0  0  0  0  0  0
  147.4500  142.9040  157.0863 H   0  0  0  0  0  0  0  0  0  0  0  0
  146.5925  141.4172  157.4439 H   0  0  0  0  0  0  0  0  0  0  0  0
  151.5188  143.4820  156.7450 H   0  0  0  0  0  0  0  0  0  0  0  0
  152.0150  145.5095  158.1069 H   0  0  0  0  0  0  0  0  0  0  0  0
  152.2693  145.2273  160.5957 H   0  0  0  0  0  0  0  0  0  0  0  0
  147.5934  142.1575  153.4516 H   0  0  0  0  0  0  0  0  0  0  0  0
  1  2  1  0  0  0  0
  1 17  1  0  0  0  0
  1 18  1  0  0  0  0
  1 19  1  0  0  0  0
  2  3  1  0  0  0  0
  2 20  1  0  0  0  0
  2 21  1  0  0  0  0
  3  4  1  0  0  0  0
  3 11  1  0  0  0  0
  4  5  1  0  0  0  0
  4 22  1  0  0  0  0
  4 23  1  0  0  0  0
  5 10  1  0  0  0  0
  5  6  1  0  0  0  0
  5 24  1  0  0  0  0
  6  7  1  0  0  0  0
  6 25  1  0  0  0  0
  6 26  1  0  0  0  0
  7  8  1  0  0  0  0
  7 27  1  0  0  0  0
  7 35  1  0  0  0  0
  8  9  1  0  0  0  0
  8 28  1  0  0  0  0
  8 29  1  0  0  0  0
  9 10  1  0  0  0  0
  9 30  1  0  0  0  0
  9 31  1  0  0  0  0
 11 16  1  0  0  0  0
 11 12  2  0  0  0  0
 12 13  1  0  0  0  0
 12 32  1  0  0  0  0
 13 14  2  0  0  0  0
 13 33  1  0  0  0  0
 14 15  1  0  0  0  0
 14 34  1  0  0  0  0
 15 16  2  0  0  0  0
M  CHG  1   7   1
M  END
> <s_m_source_file>
AV-unprocessed.smi

> <i_m_source_file_index>
2563

> <i_lp_mmshare_version>
43012

> <i_f3d_flags>
0

> <s_epik_input>
bjFuW2NIXVtjSF1bY0hdYzFOKFtDSDJdW0NIM10pW0NIMl1bQ0BASF0yW0NIMl1bTkhdW0NIMl1bQ0gyXU8y

> <s_epik_cmdline>
J2VwaWtfcHl0aG9uJywgJy1waCcsICc3LjAnLCAnLXRuJywgJzgnLCAnLW1hJywgJzIwMCcsICctbWV0YWxfYmluZGluZycsICctaW1hZScsICc8aW5maWxlLm1hZT4nLCAnLW9tYWUnLCAnPG91dGZpbGUubWFlPic=

> <r_lp_tautomer_probability>
1

> <r_epik_Ionization_Penalty>
0.0472862

> <r_epik_Ionization_Penalty_Charging>
0.0127794

> <r_epik_Ionization_Penalty_Neutral>
0.0345068

> <r_epik_State_Penalty>
0.0614045

> <r_epik_Charging_Adjusted_Penalty>
0.0741839

> <i_epik_Tot_Q>
1

> <i_epik_Tot_abs_Q>
1

> <r_epik_Metal_State_Penalty>
0.0547208

> <b_epik_Metal_Only>
0

> <s_lp_Force_Field>
OPLS_2005

> <r_lp_Energy>
26.038

> <b_lp_Chiralities_Consistent>
1

> <s_lp_Variant>
AV-unprocessed.smi:2563-2

> <Gold.Version>
5.8.1

> <Gold.Id.Protein>
6NUR|6NUR_protein|mol2

> <Gold.PLP.Fitness>
37.5357

> <Gold.PLP.PLP>
-31.7118

> <Gold.PLP.part.hbond>
-1.6703

> <Gold.PLP.part.metal>
0.0000

> <Gold.PLP.part.buried>
-3.9277

> <Gold.PLP.part.nonpolar>
-26.4136

> <Gold.PLP.part.repulsive>
0.3382

> <Gold.PLP.ligand.clash>
0.0000

> <Gold.PLP.ligand.torsion>
0.0938

> <Gold.PLP.Chemscore.Hbond>
1.9840

> <Gold.PLP.Chemscore.CHOScore>
0.0000

> <Gold.PLP.Chemscore.Metal>
0.0000

> <Gold.Chemscore.Hbonds>
donor molecule, donor type, donor heavy atom, donor atom, acceptor molecule, acceptor atom, score
      L1  H     7    27       P1  8028  1.98

> <Gold.PLP.Chemscore.Internal.Correction>
0.0595

> <Gold.Rescore>
     Score         DG    S(hbond)    S(metal)    S(lipo)     H(rot)  DE(clash)    DE(int)     intcor
     13.39     -13.55       0.94        0.00      72.74       1.40       0.03       0.13       ----

> <Gold.Chemscore.Fitness>
13.3923

> <Gold.Chemscore.DG>
-13.5523

> <Gold.Chemscore.ZeroCoef>
-5.4800

> <Gold.Chemscore.Hbond>
0.9445

> <Gold.Chemscore.Metal>
0.0000

> <Gold.Chemscore.Lipo>
72.7373

> <Gold.Chemscore.Internal_Hbond>
0.0000

> <Gold.Chemscore.DEClash>
0.0251

> <Gold.Chemscore.DEInternal>
0.1349

> <Gold.Chemscore.Rot>
1.4033

> <Gold.Chemscore.Internal.Correction>
   9.000000E+99

> <Gold.Chemscore.Hbonds>
donor molecule, donor type, donor heavy atom, donor atom, acceptor molecule, acceptor atom, score
      L1  H     7    27       P1  8028  0.82

> <Gold.Chemscore.Hbond.Weighted>
-3.1545

> <Gold.Chemscore.Metal.Weighted>
-0.0000

> <Gold.Chemscore.Lipo.Weighted>
-8.5103

> <Gold.Chemscore.Internal_Hbond.Weighted>
0.0000

> <Gold.Chemscore.DEClash.Weighted>
0.0251

> <Gold.Chemscore.DEInternal.Weighted>
0.1349

> <Gold.Chemscore.Rot.Weighted>
3.5924

> <Gold.Chemscore.Internal.Correction.Weighted>
   9.000000E+99

> <Gold.Protein.RotatedTorsions>
[ 6907 6896 6895 6894 ] final   51.70 input  -60.11 | X-H torsion
[ 7974 7965 7964 7962 ] final  -10.00 input  175.53 | X-H torsion
[ 8008 7997 7996 7995 ] final -103.40 input   59.86 | X-H torsion
[ 10167 10162 10161 10158 ] final -139.28 input  -65.29 | X-H torsion
[ 10718 10713 10712 10709 ] final  -35.50 input   66.30 | X-H torsion
[ 10763 10752 10751 10750 ] final    6.90 input  -60.55 | X-H torsion
[ 11005 11000 10999 10996 ] final  -66.12 input  -57.11 | X-H torsion

> <Gold.Protein.ActiveResidues>
 VAL166  LYS551  ARG553  GLY616  TRP617  ASP618  TYR619  PRO620  LYS621  CYS622 
 ASP623  PHE694  ASN695  SER759  ASP760  ASP761  ALA762  ILE779  LEU786  VAL792 
 PHE793  MET794  SER795  GLU796  ALA797  LYS798  CYS799  TRP800  GLU811  SER814 

> <Gold.Protein.RotatedAtoms>
  152.3155  134.7445  160.0326 H   0  0  0  0  0  0  0  0  0  0  0  0  # atno 6907 bound_to 6896
  151.7912  133.3354  159.3507 H   0  0  0  0  0  0  0  0  0  0  0  0  # atno 6908 bound_to 6896
  150.7342  134.5772  159.5964 H   0  0  0  0  0  0  0  0  0  0  0  0  # atno 6909 bound_to 6896
  146.2234  140.2699  142.8356 H   0  0  0  0  0  0  0  0  0  0  0  0  # atno 7974 bound_to 7965
  154.8704  140.0423  157.1721 H   0  0  0  0  0  0  0  0  0  0  0  0  # atno 8008 bound_to 7997
  154.8745  140.2963  155.5441 H   0  0  0  0  0  0  0  0  0  0  0  0  # atno 8009 bound_to 7997
  156.2999  140.2423  156.3739 H   0  0  0  0  0  0  0  0  0  0  0  0  # atno 8010 bound_to 7997
  139.8395  143.7341  152.2663 H   0  0  0  0  0  0  0  0  0  0  0  0  # atno 10167 bound_to 10162
  156.3378  130.4289  149.7814 H   0  0  0  0  0  0  0  0  0  0  0  0  # atno 10718 bound_to 10713
  153.2424  135.6905  153.7768 H   0  0  0  0  0  0  0  0  0  0  0  0  # atno 10763 bound_to 10752
  153.6893  135.3315  155.3199 H   0  0  0  0  0  0  0  0  0  0  0  0  # atno 10764 bound_to 10752
  154.8361  135.4541  154.1351 H   0  0  0  0  0  0  0  0  0  0  0  0  # atno 10765 bound_to 10752
  141.1473  133.6693  156.6091 H   0  0  0  0  0  0  0  0  0  0  0  0  # atno 11005 bound_to 11000
  144.9275  140.7938  143.5710 LP  0  0  0  0  0  0  0  0  0  0  0  0  # atno 17320 bound_to 7965
  145.2641  139.1980  143.4876 LP  0  0  0  0  0  0  0  0  0  0  0  0  # atno 17321 bound_to 7965
  139.7574  144.7517  151.0415 LP  0  0  0  0  0  0  0  0  0  0  0  0  # atno 17342 bound_to 10162
  140.7799  143.4790  151.0043 LP  0  0  0  0  0  0  0  0  0  0  0  0  # atno 17343 bound_to 10162
  156.5062  130.8151  151.3151 LP  0  0  0  0  0  0  0  0  0  0  0  0  # atno 17370 bound_to 10713
  157.7442  130.9929  150.2652 LP  0  0  0  0  0  0  0  0  0  0  0  0  # atno 17371 bound_to 10713
  140.3629  134.7672  157.4546 LP  0  0  0  0  0  0  0  0  0  0  0  0  # atno 17394 bound_to 11000
  140.0771  134.5782  155.8580 LP  0  0  0  0  0  0  0  0  0  0  0  0  # atno 17395 bound_to 11000

$$$$
