AV-unprocessed.smi:3047|AV-procd|sdf|11623|dock4
  -GOLD-   2272017 13D 1   1.00000     0.00000
 Structure written by MMmdl.
 37 38  0  0  0  0  0  0  0  0  1 V2000
  152.0737  138.9886  159.4383 C   0  0  0  0  0  0  0  0  0  0  0  0
  152.8741  137.8656  158.2224 S   0  0  0  0  0  0  0  0  0  0  0  0
  154.1670  138.4521  157.8372 O   0  0  0  0  0  0  0  0  0  0  0  0
  152.8158  136.4851  158.7265 O   0  0  0  0  0  0  0  0  0  0  0  0
  151.8235  137.9739  156.8519 N   0  0  0  0  0  0  0  0  0  0  0  0
  151.2763  136.7370  156.2771 C   0  0  0  0  0  0  0  0  0  0  0  0
  150.9477  137.0675  154.8232 C   0  0  0  0  0  0  0  0  0  0  0  0
  151.9728  138.1377  154.4728 C   0  0  0  0  0  0  0  0  0  0  0  0
  152.1537  138.9272  155.7807 C   0  0  1  0  0  0  0  0  0  0  0  0
  151.2989  140.2008  155.8454 C   0  0  0  0  0  0  0  0  0  0  0  0
  150.5688  140.5162  154.9048 O   0  0  0  0  0  0  0  0  0  0  0  0
  151.3877  140.9178  156.9761 N   0  0  0  0  0  0  0  0  0  0  0  0
  150.6379  142.1360  157.2558 C   0  0  0  0  0  0  0  0  0  0  0  0
  151.5420  143.3797  157.2347 C   0  0  0  0  0  0  0  0  0  0  0  0
  151.8272  143.8491  158.5751 N   0  0  0  0  0  0  0  0  0  0  0  0
  152.4537  143.1414  159.5924 C   0  0  0  0  0  0  0  0  0  0  0  0
  152.5105  143.9840  160.6795 C   0  0  0  0  0  0  0  0  0  0  0  0
  151.9281  145.2075  160.3554 N   0  0  0  0  0  0  0  0  0  0  0  0
  151.5469  145.0525  159.0940 C   0  0  0  0  0  0  0  0  0  0  0  0
  152.6743  139.0243  160.3468 H   0  0  0  0  0  0  0  0  0  0  0  0
  151.0769  138.6206  159.6798 H   0  0  0  0  0  0  0  0  0  0  0  0
  151.9994  139.9898  159.0142 H   0  0  0  0  0  0  0  0  0  0  0  0
  152.0309  135.9507  156.3200 H   0  0  0  0  0  0  0  0  0  0  0  0
  150.4016  136.4028  156.8353 H   0  0  0  0  0  0  0  0  0  0  0  0
  151.0036  136.1975  154.1686 H   0  0  0  0  0  0  0  0  0  0  0  0
  149.9395  137.4778  154.7530 H   0  0  0  0  0  0  0  0  0  0  0  0
  152.9175  137.6671  154.1972 H   0  0  0  0  0  0  0  0  0  0  0  0
  151.6581  138.7509  153.6270 H   0  0  0  0  0  0  0  0  0  0  0  0
  153.2035  139.2149  155.8632 H   0  0  0  0  0  0  0  0  0  0  0  0
  152.0009  140.5805  157.7045 H   0  0  0  0  0  0  0  0  0  0  0  0
  149.8218  142.2414  156.5386 H   0  0  0  0  0  0  0  0  0  0  0  0
  150.1751  142.0292  158.2373 H   0  0  0  0  0  0  0  0  0  0  0  0
  152.4848  143.1592  156.7321 H   0  0  0  0  0  0  0  0  0  0  0  0
  151.0698  144.1933  156.6824 H   0  0  0  0  0  0  0  0  0  0  0  0
  152.7984  142.1260  159.4616 H   0  0  0  0  0  0  0  0  0  0  0  0
  152.9226  143.8059  161.6619 H   0  0  0  0  0  0  0  0  0  0  0  0
  151.0529  145.8336  158.5346 H   0  0  0  0  0  0  0  0  0  0  0  0
  1  2  1  0  0  0  0
  1 20  1  0  0  0  0
  1 21  1  0  0  0  0
  1 22  1  0  0  0  0
  2  3  2  0  0  0  0
  2  4  2  0  0  0  0
  2  5  1  0  0  0  0
  5  9  1  0  0  0  0
  5  6  1  0  0  0  0
  6  7  1  0  0  0  0
  6 23  1  0  0  0  0
  6 24  1  0  0  0  0
  7  8  1  0  0  0  0
  7 25  1  0  0  0  0
  7 26  1  0  0  0  0
  8  9  1  0  0  0  0
  8 27  1  0  0  0  0
  8 28  1  0  0  0  0
  9 10  1  0  0  0  0
  9 29  1  0  0  0  0
 10 11  2  0  0  0  0
 10 12  1  0  0  0  0
 12 13  1  0  0  0  0
 12 30  1  0  0  0  0
 13 14  1  0  0  0  0
 13 31  1  0  0  0  0
 13 32  1  0  0  0  0
 14 15  1  0  0  0  0
 14 33  1  0  0  0  0
 14 34  1  0  0  0  0
 15 19  1  0  0  0  0
 15 16  1  0  0  0  0
 16 17  2  0  0  0  0
 16 35  1  0  0  0  0
 17 18  1  0  0  0  0
 17 36  1  0  0  0  0
 18 19  2  0  0  0  0
 19 37  1  0  0  0  0
M  END
> <s_m_source_file>
AV-unprocessed.smi

> <i_m_source_file_index>
3047

> <i_lp_mmshare_version>
43012

> <i_f3d_flags>
0

> <s_epik_input>
W0NIM11TKD1PKSg9TylOMVtDSDJdW0NIMl1bQ0gyXVtDQEhdMUMoPU8pW05IXVtDSDJdW0NIMl1uMltjSF1bY0hdbltjSF0y

> <s_epik_cmdline>
J2VwaWtfcHl0aG9uJywgJy1waCcsICc3LjAnLCAnLXRuJywgJzgnLCAnLW1hJywgJzIwMCcsICctbWV0YWxfYmluZGluZycsICctaW1hZScsICc8aW5maWxlLm1hZT4nLCAnLW9tYWUnLCAnPG91dGZpbGUubWFlPic=

> <r_lp_tautomer_probability>
1

> <r_epik_Ionization_Penalty>
0.575721

> <r_epik_Ionization_Penalty_Charging>
0.575721

> <r_epik_Ionization_Penalty_Neutral>
1.33078e-07

> <r_epik_State_Penalty>
0.588056

> <r_epik_Charging_Adjusted_Penalty>
1.16378

> <i_epik_Tot_Q>
0

> <i_epik_Tot_abs_Q>
0

> <r_epik_Metal_State_Penalty>
0.294357

> <b_epik_Metal_Only>
0

> <s_lp_Force_Field>
OPLS_2005

> <r_lp_Energy>
8.50144

> <b_lp_Chiralities_Consistent>
1

> <s_lp_Variant>
AV-unprocessed.smi:3047-3

> <Gold.Version>
5.8.1

> <Gold.Id.Protein>
6NUR|6NUR_protein|mol2

> <Gold.PLP.Fitness>
44.6615

> <Gold.PLP.PLP>
-37.9638

> <Gold.PLP.part.hbond>
-3.0000

> <Gold.PLP.part.metal>
0.0000

> <Gold.PLP.part.buried>
-6.3392

> <Gold.PLP.part.nonpolar>
-29.9797

> <Gold.PLP.part.repulsive>
0.3408

> <Gold.PLP.ligand.clash>
0.0000

> <Gold.PLP.ligand.torsion>
0.9354

> <Gold.PLP.Chemscore.Hbond>
2.6628

> <Gold.PLP.Chemscore.CHOScore>
0.0000

> <Gold.PLP.Chemscore.Metal>
0.0000

> <Gold.Chemscore.Hbonds>
donor molecule, donor type, donor heavy atom, donor atom, acceptor molecule, acceptor atom, score
      P1  H  6896  6907       L1     4  0.62
      P1  H  7989  7998       L1    11  1.00
      P1  H  7997  8008       L1     3  0.98

> <Gold.PLP.Chemscore.Internal.Correction>
0.5800

> <Gold.Rescore>
     Score         DG    S(hbond)    S(metal)    S(lipo)     H(rot)  DE(clash)    DE(int)     intcor
     16.52     -17.51       2.86        0.00      73.22       2.39       0.18       0.81       ----

> <Gold.Chemscore.Fitness>
16.5151

> <Gold.Chemscore.DG>
-17.5050

> <Gold.Chemscore.ZeroCoef>
-5.4800

> <Gold.Chemscore.Hbond>
2.8638

> <Gold.Chemscore.Metal>
0.0000

> <Gold.Chemscore.Lipo>
73.2244

> <Gold.Chemscore.Internal_Hbond>
0.0000

> <Gold.Chemscore.DEClash>
0.1777

> <Gold.Chemscore.DEInternal>
0.8122

> <Gold.Chemscore.Rot>
2.3857

> <Gold.Chemscore.Internal.Correction>
   9.000000E+99

> <Gold.Chemscore.Hbonds>
donor molecule, donor type, donor heavy atom, donor atom, acceptor molecule, acceptor atom, score
      P1  H  6896  6907       L1     4  0.62
      P1  H  7989  7998       L1    11  0.62
      P1  H  7997  8008       L1     3  0.93

> <Gold.Chemscore.Hbond.Weighted>
-9.5652

> <Gold.Chemscore.Metal.Weighted>
-0.0000

> <Gold.Chemscore.Lipo.Weighted>
-8.5673

> <Gold.Chemscore.Internal_Hbond.Weighted>
0.0000

> <Gold.Chemscore.DEClash.Weighted>
0.1777

> <Gold.Chemscore.DEInternal.Weighted>
0.8122

> <Gold.Chemscore.Rot.Weighted>
6.1074

> <Gold.Chemscore.Internal.Correction.Weighted>
   9.000000E+99

> <Gold.Protein.RotatedTorsions>
[ 6907 6896 6895 6894 ] final   23.85 input  -60.11 | X-H torsion
[ 7974 7965 7964 7962 ] final -177.05 input  175.53 | X-H torsion
[ 8008 7997 7996 7995 ] final  -97.04 input   59.86 | X-H torsion
[ 10167 10162 10161 10158 ] final   50.64 input  -65.29 | X-H torsion
[ 10718 10713 10712 10709 ] final  176.03 input   66.30 | X-H torsion
[ 10763 10752 10751 10750 ] final  -43.71 input  -60.55 | X-H torsion
[ 11005 11000 10999 10996 ] final -177.90 input  -57.11 | X-H torsion

> <Gold.Protein.ActiveResidues>
 VAL166  LYS551  ARG553  GLY616  TRP617  ASP618  TYR619  PRO620  LYS621  CYS622 
 ASP623  PHE694  ASN695  SER759  ASP760  ASP761  ALA762  ILE779  LEU786  VAL792 
 PHE793  MET794  SER795  GLU796  ALA797  LYS798  CYS799  TRP800  GLU811  SER814 

> <Gold.Protein.RotatedAtoms>
  151.9486  135.0179  160.0540 H   0  0  0  0  0  0  0  0  0  0  0  0  # atno 6907 bound_to 6896
  152.1973  133.4811  159.5048 H   0  0  0  0  0  0  0  0  0  0  0  0  # atno 6908 bound_to 6896
  150.6947  134.1553  159.4198 H   0  0  0  0  0  0  0  0  0  0  0  0  # atno 6909 bound_to 6896
  144.7127  140.1078  143.6413 H   0  0  0  0  0  0  0  0  0  0  0  0  # atno 7974 bound_to 7965
  154.7825  140.0466  157.1138 H   0  0  0  0  0  0  0  0  0  0  0  0  # atno 8008 bound_to 7997
  154.9688  140.3087  155.4978 H   0  0  0  0  0  0  0  0  0  0  0  0  # atno 8009 bound_to 7997
  156.2938  140.2257  156.4779 H   0  0  0  0  0  0  0  0  0  0  0  0  # atno 8010 bound_to 7997
  140.2703  144.3273  150.6292 H   0  0  0  0  0  0  0  0  0  0  0  0  # atno 10167 bound_to 10162
  156.9261  130.9956  151.2996 H   0  0  0  0  0  0  0  0  0  0  0  0  # atno 10718 bound_to 10713
  154.0001  135.6694  153.4759 H   0  0  0  0  0  0  0  0  0  0  0  0  # atno 10763 bound_to 10752
  153.0666  135.4997  154.8210 H   0  0  0  0  0  0  0  0  0  0  0  0  # atno 10764 bound_to 10752
  154.7058  135.3087  154.9236 H   0  0  0  0  0  0  0  0  0  0  0  0  # atno 10765 bound_to 10752
  140.4357  134.6477  157.4733 H   0  0  0  0  0  0  0  0  0  0  0  0  # atno 11005 bound_to 11000
  145.9481  139.2714  143.1229 LP  0  0  0  0  0  0  0  0  0  0  0  0  # atno 17320 bound_to 7965
  145.9352  140.9019  143.0336 LP  0  0  0  0  0  0  0  0  0  0  0  0  # atno 17321 bound_to 7965
  140.5895  143.2168  151.7280 LP  0  0  0  0  0  0  0  0  0  0  0  0  # atno 17342 bound_to 10162
  139.4991  144.3961  152.0230 LP  0  0  0  0  0  0  0  0  0  0  0  0  # atno 17343 bound_to 10162
  157.5877  130.8421  149.8613 LP  0  0  0  0  0  0  0  0  0  0  0  0  # atno 17370 bound_to 10713
  156.0468  130.3726  150.1297 LP  0  0  0  0  0  0  0  0  0  0  0  0  # atno 17371 bound_to 10713
  140.0104  134.6700  155.9390 LP  0  0  0  0  0  0  0  0  0  0  0  0  # atno 17394 bound_to 11000
  141.1727  133.6538  156.4710 LP  0  0  0  0  0  0  0  0  0  0  0  0  # atno 17395 bound_to 11000

$$$$
