AV-unprocessed.smi:1768|AV-procd|sdf|7147|dock6
  -GOLD-   22720 8383D 1   1.00000     0.00000
 Structure written by MMmdl.
 32 33  0  0  0  0  0  0  0  0  2 V2000
  148.6698  140.8078  154.6146 C   0  0  0  0  0  0  0  0  0  0  0  0
  149.9728  140.3544  155.1777 C   0  0  0  0  0  0  0  0  0  0  0  0
  150.8342  139.6032  154.4877 N   0  0  0  0  0  0  0  0  0  0  0  0
  151.9762  139.3113  155.2198 N   0  0  0  0  0  0  0  0  0  0  0  0
  151.9667  139.8514  156.4467 C   0  0  0  0  0  0  0  0  0  0  0  0
  152.9786  139.6843  157.3144 N   0  5  0  0  0  0  0  0  0  0  0  0
  152.8349  140.0675  158.6036 C   0  0  0  0  0  0  0  0  0  0  0  0
  151.7988  140.0099  159.2693 O   0  0  0  0  0  0  0  0  0  0  0  0
  153.9648  140.5395  159.1507 N   0  0  0  0  0  0  0  0  0  0  0  0
  154.1466  141.0111  160.5234 C   0  0  2  0  0  0  0  0  0  0  0  0
  154.2509  139.7995  161.4610 C   0  0  0  0  0  0  0  0  0  0  0  0
  152.9848  141.9448  160.9138 C   0  0  2  0  0  0  0  0  0  0  0  0
  152.7434  143.1042  159.9478 C   0  0  0  0  0  0  0  0  0  0  0  0
  151.9819  144.0994  160.8034 C   0  0  0  0  0  0  0  0  0  0  0  0
  152.3958  143.7439  162.2352 C   0  0  0  0  0  0  0  0  0  0  0  0
  153.2714  142.6273  162.1255 O   0  0  0  0  0  0  0  0  0  0  0  0
  150.4996  140.7639  156.8016 S   0  0  0  0  0  0  0  0  0  0  0  0
  148.8401  141.4532  153.7528 H   0  0  0  0  0  0  0  0  0  0  0  0
  148.1062  141.3653  155.3628 H   0  0  0  0  0  0  0  0  0  0  0  0
  148.0773  139.9485  154.2997 H   0  0  0  0  0  0  0  0  0  0  0  0
  154.7812  140.5617  158.5574 H   0  0  0  0  0  0  0  0  0  0  0  0
  155.0749  141.5777  160.6106 H   0  0  0  0  0  0  0  0  0  0  0  0
  154.4064  140.1130  162.4936 H   0  0  0  0  0  0  0  0  0  0  0  0
  155.0898  139.1611  161.1824 H   0  0  0  0  0  0  0  0  0  0  0  0
  153.3452  139.1932  161.4296 H   0  0  0  0  0  0  0  0  0  0  0  0
  152.0624  141.3744  161.0405 H   0  0  0  0  0  0  0  0  0  0  0  0
  153.6945  143.5368  159.6344 H   0  0  0  0  0  0  0  0  0  0  0  0
  152.1960  142.8066  159.0528 H   0  0  0  0  0  0  0  0  0  0  0  0
  152.2240  145.1297  160.5417 H   0  0  0  0  0  0  0  0  0  0  0  0
  150.9066  143.9643  160.6804 H   0  0  0  0  0  0  0  0  0  0  0  0
  152.9032  144.5698  162.7346 H   0  0  0  0  0  0  0  0  0  0  0  0
  151.5250  143.4701  162.8320 H   0  0  0  0  0  0  0  0  0  0  0  0
  1  2  1  0  0  0  0
  1 18  1  0  0  0  0
  1 19  1  0  0  0  0
  1 20  1  0  0  0  0
  2 17  1  0  0  0  0
  2  3  2  0  0  0  0
  3  4  1  0  0  0  0
  4  5  2  0  0  0  0
  5  6  1  0  0  0  0
  5 17  1  0  0  0  0
  6  7  1  0  0  0  0
  7  8  2  0  0  0  0
  7  9  1  0  0  0  0
  9 10  1  0  0  0  0
  9 21  1  0  0  0  0
 10 11  1  0  0  0  0
 10 12  1  0  0  0  0
 10 22  1  0  0  0  0
 11 23  1  0  0  0  0
 11 24  1  0  0  0  0
 11 25  1  0  0  0  0
 12 16  1  0  0  0  0
 12 13  1  0  0  0  0
 12 26  1  0  0  0  0
 13 14  1  0  0  0  0
 13 27  1  0  0  0  0
 13 28  1  0  0  0  0
 14 15  1  0  0  0  0
 14 29  1  0  0  0  0
 14 30  1  0  0  0  0
 15 16  1  0  0  0  0
 15 31  1  0  0  0  0
 15 32  1  0  0  0  0
M  CHG  1   6  -1
M  END
> <s_m_source_file>
AV-unprocessed.smi

> <i_m_source_file_index>
1768

> <i_lp_mmshare_version>
43012

> <i_f3d_flags>
0

> <s_epik_input>
W0NIM11jMW5uYyhzMSlbTkhdQyg9TylbTkhdW0NASF0oW0NIM10pW0NAQEhdMltDSDJdW0NIMl1bQ0gyXU8y

> <s_epik_cmdline>
J2VwaWtfcHl0aG9uJywgJy1waCcsICc3LjAnLCAnLXRuJywgJzgnLCAnLW1hJywgJzIwMCcsICctbWV0YWxfYmluZGluZycsICctaW1hZScsICc8aW5maWxlLm1hZT4nLCAnLW9tYWUnLCAnPG91dGZpbGUubWFlPic=

> <r_lp_tautomer_probability>
1

> <r_epik_Ionization_Penalty>
4.3376

> <r_epik_Ionization_Penalty_Charging>
4.19392

> <r_epik_Ionization_Penalty_Neutral>
0.143681

> <r_epik_State_Penalty>
4.19342

> <r_epik_Charging_Adjusted_Penalty>
8.38735

> <i_epik_Tot_Q>
-1

> <i_epik_Tot_abs_Q>
1

> <r_epik_Metal_State_Penalty>
0.686065

> <b_epik_Metal_Only>
1

> <s_lp_Force_Field>
OPLS_2005

> <r_lp_Energy>
15.5769

> <b_lp_Chiralities_Consistent>
1

> <s_lp_Variant>
AV-unprocessed.smi:1768-5

> <Gold.Version>
5.8.1

> <Gold.Id.Protein>
6NUR|6NUR_protein|mol2

> <Gold.PLP.Fitness>
42.8969

> <Gold.PLP.PLP>
-35.1242

> <Gold.PLP.part.hbond>
-2.8071

> <Gold.PLP.part.metal>
0.0000

> <Gold.PLP.part.buried>
-1.8223

> <Gold.PLP.part.nonpolar>
-29.6828

> <Gold.PLP.part.repulsive>
0.8185

> <Gold.PLP.ligand.clash>
0.0000

> <Gold.PLP.ligand.torsion>
0.5465

> <Gold.PLP.Chemscore.Hbond>
2.9417

> <Gold.PLP.Chemscore.CHOScore>
0.0000

> <Gold.PLP.Chemscore.Metal>
0.0000

> <Gold.Chemscore.Hbonds>
donor molecule, donor type, donor heavy atom, donor atom, acceptor molecule, acceptor atom, score
      P1  H  7989  7998       L1     3  0.70
      P1  H  7997  8010       L1     6  2.00

> <Gold.PLP.Chemscore.Internal.Correction>
0.0406

> <Gold.Rescore>
     Score         DG    S(hbond)    S(metal)    S(lipo)     H(rot)  DE(clash)    DE(int)     intcor
     10.84     -14.34       0.83        0.00      80.01       1.28       0.59       2.91       ----

> <Gold.Chemscore.Fitness>
10.8419

> <Gold.Chemscore.DG>
-14.3401

> <Gold.Chemscore.ZeroCoef>
-5.4800

> <Gold.Chemscore.Hbond>
0.8291

> <Gold.Chemscore.Metal>
0.0000

> <Gold.Chemscore.Lipo>
80.0136

> <Gold.Chemscore.Internal_Hbond>
0.0000

> <Gold.Chemscore.DEClash>
0.5898

> <Gold.Chemscore.DEInternal>
2.9084

> <Gold.Chemscore.Rot>
1.2776

> <Gold.Chemscore.Internal.Correction>
   9.000000E+99

> <Gold.Chemscore.Hbonds>
donor molecule, donor type, donor heavy atom, donor atom, acceptor molecule, acceptor atom, score
      P1  H  7989  7998       L1     3  0.02
      P1  H  7997  8010       L1     6  0.61

> <Gold.Chemscore.Hbond.Weighted>
-2.7692

> <Gold.Chemscore.Metal.Weighted>
-0.0000

> <Gold.Chemscore.Lipo.Weighted>
-9.3616

> <Gold.Chemscore.Internal_Hbond.Weighted>
0.0000

> <Gold.Chemscore.DEClash.Weighted>
0.5898

> <Gold.Chemscore.DEInternal.Weighted>
2.9084

> <Gold.Chemscore.Rot.Weighted>
3.2706

> <Gold.Chemscore.Internal.Correction.Weighted>
   9.000000E+99

> <Gold.Protein.RotatedTorsions>
[ 6907 6896 6895 6894 ] final -134.46 input  -60.11 | X-H torsion
[ 7974 7965 7964 7962 ] final   79.56 input  175.53 | X-H torsion
[ 8008 7997 7996 7995 ] final   66.59 input   59.86 | X-H torsion
[ 10167 10162 10161 10158 ] final  -92.89 input  -65.29 | X-H torsion
[ 10718 10713 10712 10709 ] final  105.04 input   66.30 | X-H torsion
[ 10763 10752 10751 10750 ] final -169.99 input  -60.55 | X-H torsion
[ 11005 11000 10999 10996 ] final   33.08 input  -57.11 | X-H torsion

> <Gold.Protein.ActiveResidues>
 VAL166  LYS551  ARG553  GLY616  TRP617  ASP618  TYR619  PRO620  LYS621  CYS622 
 ASP623  PHE694  ASN695  SER759  ASP760  ASP761  ALA762  ILE779  LEU786  VAL792 
 PHE793  MET794  SER795  GLU796  ALA797  LYS798  CYS799  TRP800  GLU811  SER814 

> <Gold.Protein.RotatedAtoms>
  150.9861  133.6196  159.2715 H   0  0  0  0  0  0  0  0  0  0  0  0  # atno 6907 bound_to 6896
  151.3434  135.0867  159.9388 H   0  0  0  0  0  0  0  0  0  0  0  0  # atno 6908 bound_to 6896
  152.5231  133.9468  159.7707 H   0  0  0  0  0  0  0  0  0  0  0  0  # atno 6909 bound_to 6896
  145.6626  139.2475  143.1914 H   0  0  0  0  0  0  0  0  0  0  0  0  # atno 7974 bound_to 7965
  155.6798  140.3496  155.4851 H   0  0  0  0  0  0  0  0  0  0  0  0  # atno 8008 bound_to 7997
  155.9616  140.1138  157.0913 H   0  0  0  0  0  0  0  0  0  0  0  0  # atno 8009 bound_to 7997
  154.4144  140.1174  156.5173 H   0  0  0  0  0  0  0  0  0  0  0  0  # atno 8010 bound_to 7997
  140.3302  143.2999  151.9950 H   0  0  0  0  0  0  0  0  0  0  0  0  # atno 10167 bound_to 10162
  157.6719  131.0818  150.5796 H   0  0  0  0  0  0  0  0  0  0  0  0  # atno 10718 bound_to 10713
  154.6464  135.2905  155.0041 H   0  0  0  0  0  0  0  0  0  0  0  0  # atno 10763 bound_to 10752
  154.1150  135.6557  153.4896 H   0  0  0  0  0  0  0  0  0  0  0  0  # atno 10764 bound_to 10752
  153.0353  135.5274  154.7352 H   0  0  0  0  0  0  0  0  0  0  0  0  # atno 10765 bound_to 10752
  140.2668  134.3128  155.7840 H   0  0  0  0  0  0  0  0  0  0  0  0  # atno 11005 bound_to 11000
  146.1112  140.7426  142.9502 LP  0  0  0  0  0  0  0  0  0  0  0  0  # atno 17320 bound_to 7965
  144.7084  140.3942  143.7100 LP  0  0  0  0  0  0  0  0  0  0  0  0  # atno 17321 bound_to 7965
  139.4858  144.6241  151.7198 LP  0  0  0  0  0  0  0  0  0  0  0  0  # atno 17342 bound_to 10162
  140.5404  144.0588  150.6086 LP  0  0  0  0  0  0  0  0  0  0  0  0  # atno 17343 bound_to 10162
  156.6097  130.4376  149.5864 LP  0  0  0  0  0  0  0  0  0  0  0  0  # atno 17370 bound_to 10713
  156.2440  130.6868  151.1583 LP  0  0  0  0  0  0  0  0  0  0  0  0  # atno 17371 bound_to 10713
  141.2183  133.7443  156.9273 LP  0  0  0  0  0  0  0  0  0  0  0  0  # atno 17394 bound_to 11000
  140.1411  134.9293  157.2468 LP  0  0  0  0  0  0  0  0  0  0  0  0  # atno 17395 bound_to 11000

$$$$
