AV-unprocessed.smi:228|AV-procd|sdf|1744|dock7
  -GOLD-   2262020253D 1   1.00000     0.00000
 Structure written by MMmdl.
 60 63  0  0  0  0  0  0  0  0  2 V2000
  147.5702  137.4908  155.5464 C   0  0  0  0  0  0  0  0  0  0  0  0
  147.8901  138.4753  154.5203 N   0  0  0  0  0  0  0  0  0  0  0  0
  146.7520  139.1065  153.8469 C   0  0  0  0  0  0  0  0  0  0  0  0
  146.1537  138.2425  152.7121 C   0  0  1  0  0  0  0  0  0  0  0  0
  147.1441  138.0757  151.7178 O   0  0  0  0  0  0  0  0  0  0  0  0
  145.7506  136.8426  153.2159 C   0  0  0  0  0  0  0  0  0  0  0  0
  146.0051  135.7856  152.2049 N   0  3  0  0  0  0  0  0  0  0  0  0
  146.3030  134.4694  152.8173 C   0  0  0  0  0  0  0  0  0  0  0  0
  146.6174  133.4297  151.7280 C   0  0  0  0  0  0  0  0  0  0  0  0
  145.5245  133.3413  150.8224 O   0  0  0  0  0  0  0  0  0  0  0  0
  145.2783  134.5769  150.1623 C   0  0  0  0  0  0  0  0  0  0  0  0
  144.9198  135.6534  151.2003 C   0  0  0  0  0  0  0  0  0  0  0  0
  148.9483  139.2565  154.8630 C   0  0  0  0  0  0  0  0  0  0  0  0
  150.1777  139.0078  154.3356 N   0  0  0  0  0  0  0  0  0  0  0  0
  151.2236  139.7658  154.6753 C   0  0  0  0  0  0  0  0  0  0  0  0
  151.2626  140.8029  155.5123 N   0  0  0  0  0  0  0  0  0  0  0  0
  150.0338  141.0617  156.0450 C   0  0  0  0  0  0  0  0  0  0  0  0
  148.8342  140.3443  155.7734 C   0  0  0  0  0  0  0  0  0  0  0  0
  147.7843  140.8839  156.5059 N   0  0  0  0  0  0  0  0  0  0  0  0
  148.3290  141.8685  157.1666 C   0  0  0  0  0  0  0  0  0  0  0  0
  149.6780  142.0466  156.9533 N   0  0  0  0  0  0  0  0  0  0  0  0
  150.5138  143.0436  157.5626 C   0  0  0  0  0  0  0  0  0  0  0  0
  151.8490  142.6758  158.2159 C   0  0  0  0  0  0  0  0  0  0  0  0
  151.6287  143.7868  159.2695 C   0  0  0  0  0  0  0  0  0  0  0  0
  152.0141  143.4393  160.7212 C   0  0  0  0  0  0  0  0  0  0  0  0
  151.1897  144.0848  161.6714 O   0  0  0  0  0  0  0  0  0  0  0  0
  152.3124  145.1221  158.9219 C   0  0  0  0  0  0  0  0  0  0  0  0
  151.9911  146.1317  159.8573 O   0  0  0  0  0  0  0  0  0  0  0  0
  150.1306  143.6936  158.8943 C   0  0  0  0  0  0  0  0  0  0  0  0
  148.3780  136.7697  155.6716 H   0  0  0  0  0  0  0  0  0  0  0  0
  146.6724  136.9314  155.2820 H   0  0  0  0  0  0  0  0  0  0  0  0
  147.3931  137.9781  156.5062 H   0  0  0  0  0  0  0  0  0  0  0  0
  145.9790  139.3585  154.5743 H   0  0  0  0  0  0  0  0  0  0  0  0
  147.0919  140.0640  153.4499 H   0  0  0  0  0  0  0  0  0  0  0  0
  145.2957  138.7356  152.2586 H   0  0  0  0  0  0  0  0  0  0  0  0
  147.8726  137.6057  152.0955 H   0  0  0  0  0  0  0  0  0  0  0  0
  146.3006  136.6271  154.1337 H   0  0  0  0  0  0  0  0  0  0  0  0
  144.6936  136.8216  153.4858 H   0  0  0  0  0  0  0  0  0  0  0  0
  147.1544  134.5593  153.4931 H   0  0  0  0  0  0  0  0  0  0  0  0
  145.4508  134.1414  153.4146 H   0  0  0  0  0  0  0  0  0  0  0  0
  147.5304  133.6920  151.1907 H   0  0  0  0  0  0  0  0  0  0  0  0
  146.7833  132.4511  152.1789 H   0  0  0  0  0  0  0  0  0  0  0  0
  146.1512  134.8730  149.5782 H   0  0  0  0  0  0  0  0  0  0  0  0
  144.4551  134.4442  149.4601 H   0  0  0  0  0  0  0  0  0  0  0  0
  143.9873  135.3877  151.7008 H   0  0  0  0  0  0  0  0  0  0  0  0
  144.7466  136.6009  150.6912 H   0  0  0  0  0  0  0  0  0  0  0  0
  152.1633  139.5040  154.2122 H   0  0  0  0  0  0  0  0  0  0  0  0
  147.7554  142.4929  157.8364 H   0  0  0  0  0  0  0  0  0  0  0  0
  150.6729  143.8173  156.8089 H   0  0  0  0  0  0  0  0  0  0  0  0
  151.8535  141.6686  158.6331 H   0  0  0  0  0  0  0  0  0  0  0  0
  152.7158  142.8250  157.5712 H   0  0  0  0  0  0  0  0  0  0  0  0
  151.9440  142.3650  160.8935 H   0  0  0  0  0  0  0  0  0  0  0  0
  153.0444  143.7252  160.9342 H   0  0  0  0  0  0  0  0  0  0  0  0
  151.3719  143.7206  162.5242 H   0  0  0  0  0  0  0  0  0  0  0  0
  153.3964  145.0096  158.8864 H   0  0  0  0  0  0  0  0  0  0  0  0
  152.0102  145.4748  157.9354 H   0  0  0  0  0  0  0  0  0  0  0  0
  152.7750  146.6230  160.0510 H   0  0  0  0  0  0  0  0  0  0  0  0
  149.6222  144.6527  158.7906 H   0  0  0  0  0  0  0  0  0  0  0  0
  149.5599  143.0273  159.5418 H   0  0  0  0  0  0  0  0  0  0  0  0
  146.8414  136.0619  151.7098 H   0  0  0  0  0  0  0  0  0  0  0  0
  1  2  1  0  0  0  0
  1 30  1  0  0  0  0
  1 31  1  0  0  0  0
  1 32  1  0  0  0  0
  2  3  1  0  0  0  0
  2 13  1  0  0  0  0
  3  4  1  0  0  0  0
  3 33  1  0  0  0  0
  3 34  1  0  0  0  0
  4  5  1  0  0  0  0
  4  6  1  0  0  0  0
  4 35  1  0  0  0  0
  5 36  1  0  0  0  0
  6  7  1  0  0  0  0
  6 37  1  0  0  0  0
  6 38  1  0  0  0  0
  7 12  1  0  0  0  0
  7  8  1  0  0  0  0
  7 60  1  0  0  0  0
  8  9  1  0  0  0  0
  8 39  1  0  0  0  0
  8 40  1  0  0  0  0
  9 10  1  0  0  0  0
  9 41  1  0  0  0  0
  9 42  1  0  0  0  0
 10 11  1  0  0  0  0
 11 12  1  0  0  0  0
 11 43  1  0  0  0  0
 11 44  1  0  0  0  0
 12 45  1  0  0  0  0
 12 46  1  0  0  0  0
 13 18  1  0  0  0  0
 13 14  2  0  0  0  0
 14 15  1  0  0  0  0
 15 16  2  0  0  0  0
 15 47  1  0  0  0  0
 16 17  1  0  0  0  0
 17 21  1  0  0  0  0
 17 18  2  0  0  0  0
 18 19  1  0  0  0  0
 19 20  2  0  0  0  0
 20 21  1  0  0  0  0
 20 48  1  0  0  0  0
 21 22  1  0  0  0  0
 22 29  1  0  0  0  0
 22 23  1  0  0  0  0
 22 49  1  0  0  0  0
 23 24  1  0  0  0  0
 23 50  1  0  0  0  0
 23 51  1  0  0  0  0
 24 25  1  0  0  0  0
 24 27  1  0  0  0  0
 24 29  1  0  0  0  0
 25 26  1  0  0  0  0
 25 52  1  0  0  0  0
 25 53  1  0  0  0  0
 26 54  1  0  0  0  0
 27 28  1  0  0  0  0
 27 55  1  0  0  0  0
 27 56  1  0  0  0  0
 28 57  1  0  0  0  0
 29 58  1  0  0  0  0
 29 59  1  0  0  0  0
M  CHG  1   7   1
M  END
> <s_m_source_file>
AV-unprocessed.smi

> <i_m_source_file_index>
228

> <i_lp_mmshare_version>
43012

> <i_f3d_flags>
0

> <s_epik_input>
W0NIMl0xW0NIMl1PW0NIMl1bQ0gyXU4xW0NIMl1bQ0BASF0oW09IXSlbQ0gyXU4oW0NIM10pYyhuW2NIXW4yKWMoYzIzKW5bY0hdbjNbQ0hdKFtDSDJdNClbQ0gyXUM0KFtDSDJdW09IXSlbQ0gyXVtPSF0=

> <s_epik_cmdline>
J2VwaWtfcHl0aG9uJywgJy1waCcsICc3LjAnLCAnLXRuJywgJzgnLCAnLW1hJywgJzIwMCcsICctbWV0YWxfYmluZGluZycsICctaW1hZScsICc8aW5maWxlLm1hZT4nLCAnLW9tYWUnLCAnPG91dGZpbGUubWFlPic=

> <r_lp_tautomer_probability>
1

> <r_epik_Ionization_Penalty>
0.403032

> <r_epik_Ionization_Penalty_Charging>
0.40072

> <r_epik_Ionization_Penalty_Neutral>
0.00231206

> <r_epik_State_Penalty>
0.387266

> <r_epik_Charging_Adjusted_Penalty>
0.787986

> <i_epik_Tot_Q>
1

> <i_epik_Tot_abs_Q>
1

> <r_epik_Metal_State_Penalty>
0.385845

> <b_epik_Metal_Only>
0

> <s_lp_Force_Field>
OPLS_2005

> <r_lp_Energy>
50.3724

> <b_lp_Chiralities_Consistent>
1

> <s_lp_Variant>
AV-unprocessed.smi:228-2

> <Gold.Version>
5.8.1

> <Gold.Id.Protein>
6NUR|6NUR_protein|mol2

> <Gold.PLP.Fitness>
50.3051

> <Gold.PLP.PLP>
-43.4781

> <Gold.PLP.part.hbond>
-7.6712

> <Gold.PLP.part.metal>
0.0000

> <Gold.PLP.part.buried>
0.2079

> <Gold.PLP.part.nonpolar>
-35.9970

> <Gold.PLP.part.repulsive>
0.5223

> <Gold.PLP.ligand.clash>
0.0000

> <Gold.PLP.ligand.torsion>
2.3459

> <Gold.PLP.Chemscore.Hbond>
3.4360

> <Gold.PLP.Chemscore.CHOScore>
0.0000

> <Gold.PLP.Chemscore.Metal>
0.0000

> <Gold.Chemscore.Hbonds>
donor molecule, donor type, donor heavy atom, donor atom, acceptor molecule, acceptor atom, score
      L1  H     5    36       P1  7948  0.86
      L1  H     7    60       P1  7948  1.54
      P1  H  7954  7966       L1     5  0.21

> <Gold.PLP.Chemscore.Internal.Correction>
1.2109

> <Gold.Rescore>
     Score         DG    S(hbond)    S(metal)    S(lipo)     H(rot)  DE(clash)    DE(int)     intcor
      4.68      -9.88       1.69        0.00     101.36       5.11       2.88       2.32       ----

> <Gold.Chemscore.Fitness>
4.6787

> <Gold.Chemscore.DG>
-9.8782

> <Gold.Chemscore.ZeroCoef>
-5.4800

> <Gold.Chemscore.Hbond>
1.6867

> <Gold.Chemscore.Metal>
0.0000

> <Gold.Chemscore.Lipo>
101.3567

> <Gold.Chemscore.Internal_Hbond>
0.0000

> <Gold.Chemscore.DEClash>
2.8832

> <Gold.Chemscore.DEInternal>
2.3163

> <Gold.Chemscore.Rot>
5.1149

> <Gold.Chemscore.Internal.Correction>
   9.000000E+99

> <Gold.Chemscore.Hbonds>
donor molecule, donor type, donor heavy atom, donor atom, acceptor molecule, acceptor atom, score
      L1  H     5    36       P1  7948  0.85
      L1  H     7    60       P1  7948  0.72

> <Gold.Chemscore.Hbond.Weighted>
-5.6336

> <Gold.Chemscore.Metal.Weighted>
-0.0000

> <Gold.Chemscore.Lipo.Weighted>
-11.8587

> <Gold.Chemscore.Internal_Hbond.Weighted>
0.0000

> <Gold.Chemscore.DEClash.Weighted>
2.8832

> <Gold.Chemscore.DEInternal.Weighted>
2.3163

> <Gold.Chemscore.Rot.Weighted>
13.0942

> <Gold.Chemscore.Internal.Correction.Weighted>
   9.000000E+99

> <Gold.Protein.RotatedTorsions>
[ 6907 6896 6895 6894 ] final  -62.58 input  -60.11 | X-H torsion
[ 7974 7965 7964 7962 ] final    0.01 input  175.53 | X-H torsion
[ 8008 7997 7996 7995 ] final -148.61 input   59.86 | X-H torsion
[ 10167 10162 10161 10158 ] final -106.64 input  -65.29 | X-H torsion
[ 10718 10713 10712 10709 ] final -101.16 input   66.30 | X-H torsion
[ 10763 10752 10751 10750 ] final   99.44 input  -60.55 | X-H torsion
[ 11005 11000 10999 10996 ] final  -80.55 input  -57.11 | X-H torsion

> <Gold.Protein.ActiveResidues>
 VAL166  LYS551  ARG553  GLY616  TRP617  ASP618  TYR619  PRO620  LYS621  CYS622 
 ASP623  PHE694  ASN695  SER759  ASP760  ASP761  ALA762  ILE779  LEU786  VAL792 
 PHE793  MET794  SER795  GLU796  ALA797  LYS798  CYS799  TRP800  GLU811  SER814 

> <Gold.Protein.RotatedAtoms>
  150.7706  134.6551  159.6308 H   0  0  0  0  0  0  0  0  0  0  0  0  # atno 6907 bound_to 6896
  152.3756  134.6665  160.0170 H   0  0  0  0  0  0  0  0  0  0  0  0  # atno 6908 bound_to 6896
  151.7011  133.3275  159.3303 H   0  0  0  0  0  0  0  0  0  0  0  0  # atno 6909 bound_to 6896
  146.2431  140.1202  142.8341 H   0  0  0  0  0  0  0  0  0  0  0  0  # atno 7974 bound_to 7965
  155.5943  140.0655  157.2750 H   0  0  0  0  0  0  0  0  0  0  0  0  # atno 8008 bound_to 7997
  154.4296  140.1829  156.1154 H   0  0  0  0  0  0  0  0  0  0  0  0  # atno 8009 bound_to 7997
  156.0208  140.3317  155.7040 H   0  0  0  0  0  0  0  0  0  0  0  0  # atno 8010 bound_to 7997
  140.1856  143.3932  152.1247 H   0  0  0  0  0  0  0  0  0  0  0  0  # atno 10167 bound_to 10162
  156.0186  130.5361  150.6923 H   0  0  0  0  0  0  0  0  0  0  0  0  # atno 10718 bound_to 10713
  153.3014  135.4113  155.1256 H   0  0  0  0  0  0  0  0  0  0  0  0  # atno 10763 bound_to 10752
  154.8550  135.3542  154.5846 H   0  0  0  0  0  0  0  0  0  0  0  0  # atno 10764 bound_to 10752
  153.6272  135.7062  153.5347 H   0  0  0  0  0  0  0  0  0  0  0  0  # atno 10765 bound_to 10752
  141.1668  133.7155  156.8289 H   0  0  0  0  0  0  0  0  0  0  0  0  # atno 11005 bound_to 11000
  145.0412  140.8947  143.5051 LP  0  0  0  0  0  0  0  0  0  0  0  0  # atno 17320 bound_to 7965
  145.1283  139.2648  143.5552 LP  0  0  0  0  0  0  0  0  0  0  0  0  # atno 17321 bound_to 7965
  139.5277  144.7123  151.5168 LP  0  0  0  0  0  0  0  0  0  0  0  0  # atno 17342 bound_to 10162
  140.6490  143.8735  150.6766 LP  0  0  0  0  0  0  0  0  0  0  0  0  # atno 17343 bound_to 10162
  157.4601  131.0882  151.0754 LP  0  0  0  0  0  0  0  0  0  0  0  0  # atno 17370 bound_to 10713
  157.1244  130.6075  149.5513 LP  0  0  0  0  0  0  0  0  0  0  0  0  # atno 17371 bound_to 10713
  140.2065  134.8859  157.3228 LP  0  0  0  0  0  0  0  0  0  0  0  0  # atno 17394 bound_to 11000
  140.2131  134.4114  155.7602 LP  0  0  0  0  0  0  0  0  0  0  0  0  # atno 17395 bound_to 11000

$$$$
