AV-unprocessed.smi:1816|AV-procd|sdf|7367|dock9
  -GOLD-   22720 9 33D 1   1.00000     0.00000
 Structure written by MMmdl.
 35 36  0  0  0  0  0  0  0  0  3 V2000
  146.8333  136.7458  154.7114 C   0  0  0  0  0  0  0  0  0  0  0  0
  147.9946  135.8165  155.1324 C   0  0  1  0  0  0  0  0  0  0  0  0
  147.6375  135.0427  156.4232 C   0  0  0  0  0  0  0  0  0  0  0  0
  147.7907  135.8719  157.6119 N   0  0  0  0  0  0  0  0  0  0  0  0
  148.7642  135.7422  158.5220 C   0  0  0  0  0  0  0  0  0  0  0  0
  149.6222  134.8676  158.3818 O   0  0  0  0  0  0  0  0  0  0  0  0
  148.6801  136.6323  159.5357 N   0  5  0  0  0  0  0  0  0  0  0  0
  147.9202  136.3587  160.6088 C   0  0  0  0  0  0  0  0  0  0  0  0
  147.2419  137.2965  161.2803 N   0  0  0  0  0  0  0  0  0  0  0  0
  146.5131  136.7897  162.3578 C   0  0  0  0  0  0  0  0  0  0  0  0
  146.6313  135.4329  162.5038 C   0  0  0  0  0  0  0  0  0  0  0  0
  147.6689  134.7474  161.2862 S   0  0  0  0  0  0  0  0  0  0  0  0
  148.3535  134.8707  154.0363 N   0  3  0  0  0  0  0  0  0  0  0  0
  149.4990  133.9748  154.3080 C   0  0  0  0  0  0  0  0  0  0  0  0
  149.3513  132.8309  153.3119 C   0  0  0  0  0  0  0  0  0  0  0  0
  147.8425  132.6261  153.2473 C   0  0  0  0  0  0  0  0  0  0  0  0
  147.2449  134.0058  153.5570 C   0  0  0  0  0  0  0  0  0  0  0  0
  146.5572  137.4346  155.5098 H   0  0  0  0  0  0  0  0  0  0  0  0
  145.9433  136.1720  154.4515 H   0  0  0  0  0  0  0  0  0  0  0  0
  147.0941  137.3660  153.8541 H   0  0  0  0  0  0  0  0  0  0  0  0
  148.8677  136.4397  155.3337 H   0  0  0  0  0  0  0  0  0  0  0  0
  146.6094  134.6803  156.3672 H   0  0  0  0  0  0  0  0  0  0  0  0
  148.2757  134.1674  156.5479 H   0  0  0  0  0  0  0  0  0  0  0  0
  147.1076  136.6000  157.7613 H   0  0  0  0  0  0  0  0  0  0  0  0
  145.9355  137.4678  162.9680 H   0  0  0  0  0  0  0  0  0  0  0  0
  146.1740  134.7980  163.2475 H   0  0  0  0  0  0  0  0  0  0  0  0
  150.4552  134.4875  154.1998 H   0  0  0  0  0  0  0  0  0  0  0  0
  149.4306  133.5870  155.3260 H   0  0  0  0  0  0  0  0  0  0  0  0
  149.7269  133.1386  152.3347 H   0  0  0  0  0  0  0  0  0  0  0  0
  149.8900  131.9320  153.6132 H   0  0  0  0  0  0  0  0  0  0  0  0
  147.5168  132.2339  152.2834 H   0  0  0  0  0  0  0  0  0  0  0  0
  147.5363  131.9139  154.0148 H   0  0  0  0  0  0  0  0  0  0  0  0
  146.4593  133.9027  154.3070 H   0  0  0  0  0  0  0  0  0  0  0  0
  146.7992  134.4542  152.6684 H   0  0  0  0  0  0  0  0  0  0  0  0
  148.6280  135.4333  153.2436 H   0  0  0  0  0  0  0  0  0  0  0  0
  1  2  1  0  0  0  0
  1 18  1  0  0  0  0
  1 19  1  0  0  0  0
  1 20  1  0  0  0  0
  2  3  1  0  0  0  0
  2 13  1  0  0  0  0
  2 21  1  0  0  0  0
  3  4  1  0  0  0  0
  3 22  1  0  0  0  0
  3 23  1  0  0  0  0
  4  5  1  0  0  0  0
  4 24  1  0  0  0  0
  5  6  2  0  0  0  0
  5  7  1  0  0  0  0
  7  8  1  0  0  0  0
  8 12  1  0  0  0  0
  8  9  2  0  0  0  0
  9 10  1  0  0  0  0
 10 11  2  0  0  0  0
 10 25  1  0  0  0  0
 11 12  1  0  0  0  0
 11 26  1  0  0  0  0
 13 17  1  0  0  0  0
 13 14  1  0  0  0  0
 13 35  1  0  0  0  0
 14 15  1  0  0  0  0
 14 27  1  0  0  0  0
 14 28  1  0  0  0  0
 15 16  1  0  0  0  0
 15 29  1  0  0  0  0
 15 30  1  0  0  0  0
 16 17  1  0  0  0  0
 16 31  1  0  0  0  0
 16 32  1  0  0  0  0
 17 33  1  0  0  0  0
 17 34  1  0  0  0  0
M  CHG  1   7  -1
M  CHG  1  13   1
M  END
> <s_m_source_file>
AV-unprocessed.smi

> <i_m_source_file_index>
1816

> <i_lp_mmshare_version>
43012

> <i_f3d_flags>
0

> <s_epik_input>
W0NIMl0xW0NIMl1bQ0gyXVtDSDJdTjFbQ0BIXShbQ0gzXSlbQ0gyXVtOSF1DKD1PKVtOSF1jMm5bY0hdW2NIXXMy

> <s_epik_cmdline>
J2VwaWtfcHl0aG9uJywgJy1waCcsICc3LjAnLCAnLXRuJywgJzgnLCAnLW1hJywgJzIwMCcsICctbWV0YWxfYmluZGluZycsICctaW1hZScsICc8aW5maWxlLm1hZT4nLCAnLW9tYWUnLCAnPG91dGZpbGUubWFlPic=

> <r_lp_tautomer_probability>
0.999

> <r_epik_Ionization_Penalty>
6.21769

> <r_epik_Ionization_Penalty_Charging>
5.38662

> <r_epik_Ionization_Penalty_Neutral>
0.831074

> <r_epik_State_Penalty>
5.38626

> <r_epik_Charging_Adjusted_Penalty>
10.7729

> <i_epik_Tot_Q>
0

> <i_epik_Tot_abs_Q>
2

> <r_epik_Metal_State_Penalty>
1.41347

> <b_epik_Metal_Only>
1

> <s_lp_Force_Field>
OPLS_2005

> <r_lp_Energy>
20.95

> <b_lp_Chiralities_Consistent>
1

> <s_lp_Variant>
AV-unprocessed.smi:1816-4

> <Gold.Version>
5.8.1

> <Gold.Id.Protein>
6NUR|6NUR_protein|mol2

> <Gold.PLP.Fitness>
39.3586

> <Gold.PLP.PLP>
-27.3038

> <Gold.PLP.part.hbond>
-4.0000

> <Gold.PLP.part.metal>
0.0000

> <Gold.PLP.part.buried>
-3.3088

> <Gold.PLP.part.nonpolar>
-20.0105

> <Gold.PLP.part.repulsive>
0.0138

> <Gold.PLP.ligand.clash>
0.0000

> <Gold.PLP.ligand.torsion>
1.2551

> <Gold.PLP.Chemscore.Hbond>
4.8400

> <Gold.PLP.Chemscore.CHOScore>
0.0000

> <Gold.PLP.Chemscore.Metal>
0.0000

> <Gold.Chemscore.Hbonds>
donor molecule, donor type, donor heavy atom, donor atom, acceptor molecule, acceptor atom, score
      L1  H    13    35       P1  7948  2.00
      P1  H  6896  6907       L1     6  0.99
      P1  H  6931  6943       L1     9  0.41
      P1  H  6934  6947       L1     9  1.00

> <Gold.PLP.Chemscore.Internal.Correction>
0.0450

> <Gold.Rescore>
     Score         DG    S(hbond)    S(metal)    S(lipo)     H(rot)  DE(clash)    DE(int)     intcor
     15.80     -17.09       2.96        0.00      49.03       1.57       0.00       1.29       ----

> <Gold.Chemscore.Fitness>
15.8018

> <Gold.Chemscore.DG>
-17.0933

> <Gold.Chemscore.ZeroCoef>
-5.4800

> <Gold.Chemscore.Hbond>
2.9638

> <Gold.Chemscore.Metal>
0.0000

> <Gold.Chemscore.Lipo>
49.0275

> <Gold.Chemscore.Internal_Hbond>
0.0000

> <Gold.Chemscore.DEClash>
0.0000

> <Gold.Chemscore.DEInternal>
1.2915

> <Gold.Chemscore.Rot>
1.5710

> <Gold.Chemscore.Internal.Correction>
   9.000000E+99

> <Gold.Chemscore.Hbonds>
donor molecule, donor type, donor heavy atom, donor atom, acceptor molecule, acceptor atom, score
      L1  H    13    35       P1  7948  0.91
      P1  H  6896  6907       L1     6  0.93
      P1  H  6931  6943       L1     9  0.03
      P1  H  6934  6947       L1     9  0.93

> <Gold.Chemscore.Hbond.Weighted>
-9.8990

> <Gold.Chemscore.Metal.Weighted>
-0.0000

> <Gold.Chemscore.Lipo.Weighted>
-5.7362

> <Gold.Chemscore.Internal_Hbond.Weighted>
0.0000

> <Gold.Chemscore.DEClash.Weighted>
0.0000

> <Gold.Chemscore.DEInternal.Weighted>
1.2915

> <Gold.Chemscore.Rot.Weighted>
4.0219

> <Gold.Chemscore.Internal.Correction.Weighted>
   9.000000E+99

> <Gold.Protein.RotatedTorsions>
[ 6907 6896 6895 6894 ] final -101.38 input  -60.11 | X-H torsion
[ 7974 7965 7964 7962 ] final -137.79 input  175.53 | X-H torsion
[ 8008 7997 7996 7995 ] final   98.13 input   59.86 | X-H torsion
[ 10167 10162 10161 10158 ] final   -5.45 input  -65.29 | X-H torsion
[ 10718 10713 10712 10709 ] final -150.95 input   66.30 | X-H torsion
[ 10763 10752 10751 10750 ] final -170.09 input  -60.55 | X-H torsion
[ 11005 11000 10999 10996 ] final   -6.99 input  -57.11 | X-H torsion

> <Gold.Protein.ActiveResidues>
 VAL166  LYS551  ARG553  GLY616  TRP617  ASP618  TYR619  PRO620  LYS621  CYS622 
 ASP623  PHE694  ASN695  SER759  ASP760  ASP761  ALA762  ILE779  LEU786  VAL792 
 PHE793  MET794  SER795  GLU796  ALA797  LYS798  CYS799  TRP800  GLU811  SER814 

> <Gold.Protein.RotatedAtoms>
  150.7152  134.0743  159.3875 H   0  0  0  0  0  0  0  0  0  0  0  0  # atno 6907 bound_to 6896
  151.8726  135.0481  160.0490 H   0  0  0  0  0  0  0  0  0  0  0  0  # atno 6908 bound_to 6896
  152.2631  133.5279  159.5430 H   0  0  0  0  0  0  0  0  0  0  0  0  # atno 6909 bound_to 6896
  144.8812  140.6511  143.5204 H   0  0  0  0  0  0  0  0  0  0  0  0  # atno 7974 bound_to 7965
  156.0973  140.3248  155.7895 H   0  0  0  0  0  0  0  0  0  0  0  0  # atno 8008 bound_to 7997
  155.4896  140.0560  157.2973 H   0  0  0  0  0  0  0  0  0  0  0  0  # atno 8009 bound_to 7997
  154.4674  140.1996  156.0097 H   0  0  0  0  0  0  0  0  0  0  0  0  # atno 8010 bound_to 7997
  140.6963  143.6307  150.8526 H   0  0  0  0  0  0  0  0  0  0  0  0  # atno 10167 bound_to 10162
  156.4528  130.8176  151.2407 H   0  0  0  0  0  0  0  0  0  0  0  0  # atno 10718 bound_to 10713
  154.6452  135.2904  155.0054 H   0  0  0  0  0  0  0  0  0  0  0  0  # atno 10763 bound_to 10752
  154.1167  135.6554  153.4899 H   0  0  0  0  0  0  0  0  0  0  0  0  # atno 10764 bound_to 10752
  153.0347  135.5278  154.7337 H   0  0  0  0  0  0  0  0  0  0  0  0  # atno 10765 bound_to 10752
  140.7079  133.8933  155.8730 H   0  0  0  0  0  0  0  0  0  0  0  0  # atno 11005 bound_to 11000
  145.3950  139.1609  143.4208 LP  0  0  0  0  0  0  0  0  0  0  0  0  # atno 17320 bound_to 7965
  146.2996  140.4042  142.8709 LP  0  0  0  0  0  0  0  0  0  0  0  0  # atno 17321 bound_to 7965
  140.0025  143.5729  152.2870 LP  0  0  0  0  0  0  0  0  0  0  0  0  # atno 17342 bound_to 10162
  139.6423  144.7655  151.2313 LP  0  0  0  0  0  0  0  0  0  0  0  0  # atno 17343 bound_to 10162
  157.7502  131.0132  150.3416 LP  0  0  0  0  0  0  0  0  0  0  0  0  # atno 17370 bound_to 10713
  156.3798  130.3878  149.7110 LP  0  0  0  0  0  0  0  0  0  0  0  0  # atno 17371 bound_to 10713
  141.0109  134.1022  157.4222 LP  0  0  0  0  0  0  0  0  0  0  0  0  # atno 17394 bound_to 11000
  139.8879  135.0093  156.6589 LP  0  0  0  0  0  0  0  0  0  0  0  0  # atno 17395 bound_to 11000

$$$$
