AV-unprocessed.smi:1285|AV-procd|sdf|5370|dock6
  -GOLD-   22720 4513D 1   1.00000     0.00000
 Structure written by MMmdl.
 46 47  0  0  0  0  0  0  0  0  1 V2000
  147.0437  131.3820  154.4479 C   0  0  0  0  0  0  0  0  0  0  0  0
  147.0185  132.7738  155.1064 C   0  0  0  0  0  0  0  0  0  0  0  0
  147.4772  133.9591  154.1983 C   0  0  2  0  0  0  0  0  0  0  0  0
  148.9106  133.6093  153.7151 C   0  0  0  0  0  0  0  0  0  0  0  0
  147.5447  135.2509  155.0767 C   0  0  0  0  0  0  0  0  0  0  0  0
  148.2429  136.3685  154.4413 N   0  0  0  0  0  0  0  0  0  0  0  0
  148.6885  137.4721  155.0633 C   0  0  0  0  0  0  0  0  0  0  0  0
  148.5408  137.6736  156.2692 O   0  0  0  0  0  0  0  0  0  0  0  0
  149.4113  138.5028  154.1834 C   0  0  1  0  0  0  0  0  0  0  0  0
  148.7453  139.8929  154.2407 C   0  0  0  0  0  0  0  0  0  0  0  0
  150.8274  138.5480  154.5274 N   0  0  0  0  0  0  0  0  0  0  0  0
  151.7620  137.5993  154.4323 C   0  0  0  0  0  0  0  0  0  0  0  0
  152.9516  137.9658  154.8880 N   0  0  0  0  0  0  0  0  0  0  0  0
  152.6587  139.2377  155.2911 C   0  0  0  0  0  0  0  0  0  0  0  0
  151.3988  139.6325  155.1087 N   0  0  0  0  0  0  0  0  0  0  0  0
  146.5642  134.1255  153.0317 N   0  0  0  0  0  0  0  0  0  0  0  0
  145.1465  134.3074  153.3671 C   0  0  0  0  0  0  0  0  0  0  0  0
  144.2951  134.6169  152.1241 C   0  0  0  0  0  0  0  0  0  0  0  0
  144.4534  133.5800  151.1633 O   0  0  0  0  0  0  0  0  0  0  0  0
  145.8089  133.4077  150.7677 C   0  0  0  0  0  0  0  0  0  0  0  0
  146.6703  133.0859  152.0006 C   0  0  0  0  0  0  0  0  0  0  0  0
  146.6992  130.6223  155.1497 H   0  0  0  0  0  0  0  0  0  0  0  0
  148.0487  131.1001  154.1354 H   0  0  0  0  0  0  0  0  0  0  0  0
  146.3941  131.3337  153.5740 H   0  0  0  0  0  0  0  0  0  0  0  0
  146.0170  132.9602  155.4940 H   0  0  0  0  0  0  0  0  0  0  0  0
  147.6469  132.7219  155.9962 H   0  0  0  0  0  0  0  0  0  0  0  0
  149.5393  133.2427  154.5271 H   0  0  0  0  0  0  0  0  0  0  0  0
  149.4230  134.4761  153.2974 H   0  0  0  0  0  0  0  0  0  0  0  0
  148.8999  132.8368  152.9458 H   0  0  0  0  0  0  0  0  0  0  0  0
  146.5484  135.5711  155.3817 H   0  0  0  0  0  0  0  0  0  0  0  0
  148.0835  135.0516  156.0024 H   0  0  0  0  0  0  0  0  0  0  0  0
  148.4040  136.2914  153.4476 H   0  0  0  0  0  0  0  0  0  0  0  0
  149.3456  138.1593  153.1494 H   0  0  0  0  0  0  0  0  0  0  0  0
  147.6993  139.8392  153.9367 H   0  0  0  0  0  0  0  0  0  0  0  0
  149.2445  140.5901  153.5673 H   0  0  0  0  0  0  0  0  0  0  0  0
  148.7744  140.3238  155.2423 H   0  0  0  0  0  0  0  0  0  0  0  0
  151.5668  136.6179  154.0255 H   0  0  0  0  0  0  0  0  0  0  0  0
  153.3942  139.8895  155.7388 H   0  0  0  0  0  0  0  0  0  0  0  0
  144.7510  133.4110  153.8444 H   0  0  0  0  0  0  0  0  0  0  0  0
  145.0133  135.1261  154.0719 H   0  0  0  0  0  0  0  0  0  0  0  0
  143.2421  134.6926  152.3958 H   0  0  0  0  0  0  0  0  0  0  0  0
  144.5829  135.5748  151.6880 H   0  0  0  0  0  0  0  0  0  0  0  0
  145.8670  132.5958  150.0427 H   0  0  0  0  0  0  0  0  0  0  0  0
  146.1690  134.3092  150.2693 H   0  0  0  0  0  0  0  0  0  0  0  0
  147.6994  132.9687  151.6666 H   0  0  0  0  0  0  0  0  0  0  0  0
  146.3555  132.1224  152.4015 H   0  0  0  0  0  0  0  0  0  0  0  0
  1  2  1  0  0  0  0
  1 22  1  0  0  0  0
  1 23  1  0  0  0  0
  1 24  1  0  0  0  0
  2  3  1  0  0  0  0
  2 25  1  0  0  0  0
  2 26  1  0  0  0  0
  3  4  1  0  0  0  0
  3  5  1  0  0  0  0
  3 16  1  0  0  0  0
  4 27  1  0  0  0  0
  4 28  1  0  0  0  0
  4 29  1  0  0  0  0
  5  6  1  0  0  0  0
  5 30  1  0  0  0  0
  5 31  1  0  0  0  0
  6  7  1  0  0  0  0
  6 32  1  0  0  0  0
  7  8  2  0  0  0  0
  7  9  1  0  0  0  0
  9 10  1  0  0  0  0
  9 11  1  0  0  0  0
  9 33  1  0  0  0  0
 10 34  1  0  0  0  0
 10 35  1  0  0  0  0
 10 36  1  0  0  0  0
 11 15  1  0  0  0  0
 11 12  1  0  0  0  0
 12 13  2  0  0  0  0
 12 37  1  0  0  0  0
 13 14  1  0  0  0  0
 14 15  2  0  0  0  0
 14 38  1  0  0  0  0
 16 21  1  0  0  0  0
 16 17  1  0  0  0  0
 17 18  1  0  0  0  0
 17 39  1  0  0  0  0
 17 40  1  0  0  0  0
 18 19  1  0  0  0  0
 18 41  1  0  0  0  0
 18 42  1  0  0  0  0
 19 20  1  0  0  0  0
 20 21  1  0  0  0  0
 20 43  1  0  0  0  0
 20 44  1  0  0  0  0
 21 45  1  0  0  0  0
 21 46  1  0  0  0  0
M  END
> <s_m_source_file>
AV-unprocessed.smi

> <i_m_source_file_index>
1285

> <i_lp_mmshare_version>
43012

> <i_f3d_flags>
0

> <s_epik_input>
W0NIMl0xW0NIMl1PW0NIMl1bQ0gyXU4xW0NAQF0oW0NIM10pKFtDSDJdW0NIM10pW0NIMl1bTkhdQyg9TylbQ0BIXShbQ0gzXSluMltjSF1uW2NIXW4y

> <s_epik_cmdline>
J2VwaWtfcHl0aG9uJywgJy1waCcsICc3LjAnLCAnLXRuJywgJzgnLCAnLW1hJywgJzIwMCcsICctbWV0YWxfYmluZGluZycsICctaW1hZScsICc8aW5maWxlLm1hZT4nLCAnLW9tYWUnLCAnPG91dGZpbGUubWFlPic=

> <r_lp_tautomer_probability>
1

> <r_epik_Ionization_Penalty>
0.285697

> <r_epik_Ionization_Penalty_Charging>
0

> <r_epik_Ionization_Penalty_Neutral>
0.285697

> <r_epik_State_Penalty>
0.278478

> <r_epik_Charging_Adjusted_Penalty>
0.278478

> <i_epik_Tot_Q>
0

> <i_epik_Tot_abs_Q>
0

> <r_epik_Metal_State_Penalty>
0.278477

> <b_epik_Metal_Only>
0

> <s_lp_Force_Field>
OPLS_2005

> <r_lp_Energy>
49.308

> <b_lp_Chiralities_Consistent>
1

> <s_lp_Variant>
AV-unprocessed.smi:1285-4

> <Gold.Version>
5.8.1

> <Gold.Id.Protein>
6NUR|6NUR_protein|mol2

> <Gold.PLP.Fitness>
35.4987

> <Gold.PLP.PLP>
-28.0941

> <Gold.PLP.part.hbond>
-3.0000

> <Gold.PLP.part.metal>
0.0000

> <Gold.PLP.part.buried>
-2.2179

> <Gold.PLP.part.nonpolar>
-23.3764

> <Gold.PLP.part.repulsive>
0.3210

> <Gold.PLP.ligand.clash>
0.0000

> <Gold.PLP.ligand.torsion>
0.5757

> <Gold.PLP.Chemscore.Hbond>
1.8000

> <Gold.PLP.Chemscore.CHOScore>
0.9871

> <Gold.PLP.Chemscore.Metal>
0.0000

> <Gold.Chemscore.Hbonds>
donor molecule, donor type, donor heavy atom, donor atom, acceptor molecule, acceptor atom, score
      L1  H     6    32       P1  7948  1.00
      P1  H  7989  7998       L1    15  0.98
      L1  C    12    37       P1  7949  0.69

> <Gold.PLP.Chemscore.Internal.Correction>
0.1948

> <Gold.Rescore>
     Score         DG    S(hbond)    S(metal)    S(lipo)     H(rot)  DE(clash)    DE(int)     intcor
      7.20      -8.11       1.00        0.00      52.58       2.68       0.03       0.88       ----

> <Gold.Chemscore.Fitness>
7.1977

> <Gold.Chemscore.DG>
-8.1052

> <Gold.Chemscore.ZeroCoef>
-5.4800

> <Gold.Chemscore.Hbond>
1.0000

> <Gold.Chemscore.Metal>
0.0000

> <Gold.Chemscore.Lipo>
52.5765

> <Gold.Chemscore.Internal_Hbond>
0.0000

> <Gold.Chemscore.DEClash>
0.0280

> <Gold.Chemscore.DEInternal>
0.8795

> <Gold.Chemscore.Rot>
2.6821

> <Gold.Chemscore.Internal.Correction>
   9.000000E+99

> <Gold.Chemscore.Hbonds>
donor molecule, donor type, donor heavy atom, donor atom, acceptor molecule, acceptor atom, score
      L1  H     6    32       P1  7948  1.00
      P1  H  7989  7998       L1    15  0.07

> <Gold.Chemscore.Hbond.Weighted>
-3.3399

> <Gold.Chemscore.Metal.Weighted>
-0.0000

> <Gold.Chemscore.Lipo.Weighted>
-6.1514

> <Gold.Chemscore.Internal_Hbond.Weighted>
0.0000

> <Gold.Chemscore.DEClash.Weighted>
0.0280

> <Gold.Chemscore.DEInternal.Weighted>
0.8795

> <Gold.Chemscore.Rot.Weighted>
6.8661

> <Gold.Chemscore.Internal.Correction.Weighted>
   9.000000E+99

> <Gold.Protein.RotatedTorsions>
[ 6907 6896 6895 6894 ] final -145.29 input  -60.11 | X-H torsion
[ 7974 7965 7964 7962 ] final  -82.64 input  175.53 | X-H torsion
[ 8008 7997 7996 7995 ] final -115.85 input   59.86 | X-H torsion
[ 10167 10162 10161 10158 ] final  -63.10 input  -65.29 | X-H torsion
[ 10718 10713 10712 10709 ] final  127.61 input   66.30 | X-H torsion
[ 10763 10752 10751 10750 ] final   25.84 input  -60.55 | X-H torsion
[ 11005 11000 10999 10996 ] final  164.86 input  -57.11 | X-H torsion

> <Gold.Protein.ActiveResidues>
 VAL166  LYS551  ARG553  GLY616  TRP617  ASP618  TYR619  PRO620  LYS621  CYS622 
 ASP623  PHE694  ASN695  SER759  ASP760  ASP761  ALA762  ILE779  LEU786  VAL792 
 PHE793  MET794  SER795  GLU796  ALA797  LYS798  CYS799  TRP800  GLU811  SER814 

> <Gold.Protein.RotatedAtoms>
  151.1257  133.5072  159.2600 H   0  0  0  0  0  0  0  0  0  0  0  0  # atno 6907 bound_to 6896
  151.1813  135.0361  159.8803 H   0  0  0  0  0  0  0  0  0  0  0  0  # atno 6908 bound_to 6896
  152.5458  134.1108  159.8411 H   0  0  0  0  0  0  0  0  0  0  0  0  # atno 6909 bound_to 6896
  145.5306  140.9521  143.1605 H   0  0  0  0  0  0  0  0  0  0  0  0  # atno 7974 bound_to 7965
  155.0585  140.0393  157.2568 H   0  0  0  0  0  0  0  0  0  0  0  0  # atno 8008 bound_to 7997
  154.7079  140.2687  155.6633 H   0  0  0  0  0  0  0  0  0  0  0  0  # atno 8009 bound_to 7997
  156.2780  140.2727  156.1711 H   0  0  0  0  0  0  0  0  0  0  0  0  # atno 8010 bound_to 7997
  140.5894  143.2339  151.6172 H   0  0  0  0  0  0  0  0  0  0  0  0  # atno 10167 bound_to 10162
  157.5317  131.1098  150.8998 H   0  0  0  0  0  0  0  0  0  0  0  0  # atno 10718 bound_to 10713
  153.0664  135.6574  154.0345 H   0  0  0  0  0  0  0  0  0  0  0  0  # atno 10763 bound_to 10752
  154.0001  135.2938  155.3405 H   0  0  0  0  0  0  0  0  0  0  0  0  # atno 10764 bound_to 10752
  154.7023  135.5239  153.8613 H   0  0  0  0  0  0  0  0  0  0  0  0  # atno 10765 bound_to 10752
  140.2503  134.7982  157.3495 H   0  0  0  0  0  0  0  0  0  0  0  0  # atno 11005 bound_to 11000
  144.7628  139.6916  143.7227 LP  0  0  0  0  0  0  0  0  0  0  0  0  # atno 17320 bound_to 7965
  146.2047  139.5363  142.9720 LP  0  0  0  0  0  0  0  0  0  0  0  0  # atno 17321 bound_to 7965
  139.5218  144.3182  152.0933 LP  0  0  0  0  0  0  0  0  0  0  0  0  # atno 17342 bound_to 10162
  140.2344  144.4335  150.6286 LP  0  0  0  0  0  0  0  0  0  0  0  0  # atno 17343 bound_to 10162
  156.9577  130.5443  149.5284 LP  0  0  0  0  0  0  0  0  0  0  0  0  # atno 17370 bound_to 10713
  156.0428  130.5508  150.8810 LP  0  0  0  0  0  0  0  0  0  0  0  0  # atno 17371 bound_to 10713
  140.1565  134.4783  155.7924 LP  0  0  0  0  0  0  0  0  0  0  0  0  # atno 17394 bound_to 11000
  141.2202  133.6883  156.7470 LP  0  0  0  0  0  0  0  0  0  0  0  0  # atno 17395 bound_to 11000

$$$$
