AV-unprocessed.smi:2492|AV-procd|sdf|9815|dock9
  -GOLD-   2272013443D 1   1.00000     0.00000
 Structure written by MMmdl.
 32 33  0  0  0  0  0  0  0  0  2 V2000
  150.5920  144.0062  158.8746 C   0  0  0  0  0  0  0  0  0  0  0  0
  151.1125  144.5254  160.5311 S   0  0  0  0  0  0  0  0  0  0  0  0
  152.1057  143.0848  161.0172 C   0  0  2  0  0  0  0  0  0  0  0  0
  153.2287  143.4454  161.9858 C   0  0  0  0  0  0  0  0  0  0  0  0
  154.2046  142.2714  161.8851 C   0  0  0  0  0  0  0  0  0  0  0  0
  154.0602  141.7172  160.4543 C   0  0  1  0  0  0  0  0  0  0  0  0
  153.8820  140.2667  160.4759 N   0  0  0  0  0  0  0  0  0  0  0  0
  153.4961  139.5052  159.4416 C   0  0  0  0  0  0  0  0  0  0  0  0
  153.2515  140.0273  158.3515 O   0  0  0  0  0  0  0  0  0  0  0  0
  153.4156  138.1876  159.7358 N   0  5  0  0  0  0  0  0  0  0  0  0
  153.1447  137.2989  158.7659 C   0  0  0  0  0  0  0  0  0  0  0  0
  152.8906  136.0013  158.9405 N   0  0  0  0  0  0  0  0  0  0  0  0
  152.6768  135.5842  157.6640 C   0  0  0  0  0  0  0  0  0  0  0  0
  152.3483  134.1728  157.3162 C   0  0  0  0  0  0  0  0  0  0  0  0
  152.7689  136.5174  156.7285 N   0  0  0  0  0  0  0  0  0  0  0  0
  153.0787  137.6720  157.4612 O   0  0  0  0  0  0  0  0  0  0  0  0
  152.8377  142.4305  159.8428 C   0  0  0  0  0  0  0  0  0  0  0  0
  149.9433  144.7618  158.4317 H   0  0  0  0  0  0  0  0  0  0  0  0
  150.0432  143.0658  158.9251 H   0  0  0  0  0  0  0  0  0  0  0  0
  151.4564  143.8714  158.2243 H   0  0  0  0  0  0  0  0  0  0  0  0
  151.4546  142.3493  161.4924 H   0  0  0  0  0  0  0  0  0  0  0  0
  153.7255  144.3600  161.6585 H   0  0  0  0  0  0  0  0  0  0  0  0
  152.8711  143.6060  163.0032 H   0  0  0  0  0  0  0  0  0  0  0  0
  155.2282  142.5739  162.1078 H   0  0  0  0  0  0  0  0  0  0  0  0
  153.9264  141.5152  162.6212 H   0  0  0  0  0  0  0  0  0  0  0  0
  154.9533  141.9638  159.8772 H   0  0  0  0  0  0  0  0  0  0  0  0
  154.0723  139.7972  161.3490 H   0  0  0  0  0  0  0  0  0  0  0  0
  151.2861  134.0796  157.0899 H   0  0  0  0  0  0  0  0  0  0  0  0
  152.5850  133.5073  158.1470 H   0  0  0  0  0  0  0  0  0  0  0  0
  152.9201  133.8517  156.4453 H   0  0  0  0  0  0  0  0  0  0  0  0
  152.1873  141.7640  159.2749 H   0  0  0  0  0  0  0  0  0  0  0  0
  153.1866  143.1995  159.1523 H   0  0  0  0  0  0  0  0  0  0  0  0
  1  2  1  0  0  0  0
  1 18  1  0  0  0  0
  1 19  1  0  0  0  0
  1 20  1  0  0  0  0
  2  3  1  0  0  0  0
  3 17  1  0  0  0  0
  3  4  1  0  0  0  0
  3 21  1  0  0  0  0
  4  5  1  0  0  0  0
  4 22  1  0  0  0  0
  4 23  1  0  0  0  0
  5  6  1  0  0  0  0
  5 24  1  0  0  0  0
  5 25  1  0  0  0  0
  6  7  1  0  0  0  0
  6 17  1  0  0  0  0
  6 26  1  0  0  0  0
  7  8  1  0  0  0  0
  7 27  1  0  0  0  0
  8  9  2  0  0  0  0
  8 10  1  0  0  0  0
 10 11  1  0  0  0  0
 11 16  1  0  0  0  0
 11 12  2  0  0  0  0
 12 13  1  0  0  0  0
 13 14  1  0  0  0  0
 13 15  2  0  0  0  0
 14 28  1  0  0  0  0
 14 29  1  0  0  0  0
 14 30  1  0  0  0  0
 15 16  1  0  0  0  0
 17 31  1  0  0  0  0
 17 32  1  0  0  0  0
M  CHG  1  10  -1
M  END
> <s_m_source_file>
AV-unprocessed.smi

> <i_m_source_file_index>
2492

> <i_lp_mmshare_version>
43012

> <i_f3d_flags>
0

> <s_epik_input>
W0NIM11TW0NAQEhdMVtDSDJdW0NIMl1bQ0BIXShbQ0gyXTEpW05IXUMoPU8pW05IXWMybmMoW0NIM10pbm8y

> <s_epik_cmdline>
J2VwaWtfcHl0aG9uJywgJy1waCcsICc3LjAnLCAnLXRuJywgJzgnLCAnLW1hJywgJzIwMCcsICctbWV0YWxfYmluZGluZycsICctaW1hZScsICc8aW5maWxlLm1hZT4nLCAnLW9tYWUnLCAnPG91dGZpbGUubWFlPic=

> <r_lp_tautomer_probability>
1

> <r_epik_Ionization_Penalty>
6.26454

> <r_epik_Ionization_Penalty_Charging>
6.26445

> <r_epik_Ionization_Penalty_Neutral>
9.05726e-05

> <r_epik_State_Penalty>
6.26444

> <r_epik_Charging_Adjusted_Penalty>
12.5289

> <i_epik_Tot_Q>
-1

> <i_epik_Tot_abs_Q>
1

> <r_epik_Metal_State_Penalty>
2.20125

> <b_epik_Metal_Only>
1

> <s_lp_Force_Field>
OPLS_2005

> <r_lp_Energy>
10.5247

> <b_lp_Chiralities_Consistent>
1

> <s_lp_Variant>
AV-unprocessed.smi:2492-5

> <Gold.Version>
5.8.1

> <Gold.Id.Protein>
6NUR|6NUR_protein|mol2

> <Gold.PLP.Fitness>
41.3763

> <Gold.PLP.PLP>
-34.9088

> <Gold.PLP.part.hbond>
-3.0000

> <Gold.PLP.part.metal>
0.0000

> <Gold.PLP.part.buried>
-4.1074

> <Gold.PLP.part.nonpolar>
-28.4989

> <Gold.PLP.part.repulsive>
0.1224

> <Gold.PLP.ligand.clash>
0.0000

> <Gold.PLP.ligand.torsion>
0.4720

> <Gold.PLP.Chemscore.Hbond>
2.4680

> <Gold.PLP.Chemscore.CHOScore>
0.0000

> <Gold.PLP.Chemscore.Metal>
0.0000

> <Gold.Chemscore.Hbonds>
donor molecule, donor type, donor heavy atom, donor atom, acceptor molecule, acceptor atom, score
      P1  H  6896  6908       L1    12  0.21
      P1  H  7997  8009       L1     9  1.00
      P1  H 10752 10763       L1    15  1.00

> <Gold.PLP.Chemscore.Internal.Correction>
0.0075

> <Gold.Rescore>
     Score         DG    S(hbond)    S(metal)    S(lipo)     H(rot)  DE(clash)    DE(int)     intcor
     17.11     -20.30       2.52        0.00      82.52       1.27       0.36       2.84       ----

> <Gold.Chemscore.Fitness>
17.1081

> <Gold.Chemscore.DG>
-20.3045

> <Gold.Chemscore.ZeroCoef>
-5.4800

> <Gold.Chemscore.Hbond>
2.5222

> <Gold.Chemscore.Metal>
0.0000

> <Gold.Chemscore.Lipo>
82.5170

> <Gold.Chemscore.Internal_Hbond>
0.0000

> <Gold.Chemscore.DEClash>
0.3574

> <Gold.Chemscore.DEInternal>
2.8390

> <Gold.Chemscore.Rot>
1.2712

> <Gold.Chemscore.Internal.Correction>
   9.000000E+99

> <Gold.Chemscore.Hbonds>
donor molecule, donor type, donor heavy atom, donor atom, acceptor molecule, acceptor atom, score
      P1  H  6896  6908       L1    12  0.05
      P1  H  7997  8009       L1     9  0.94
      P1  H 10752 10763       L1    15  0.33

> <Gold.Chemscore.Hbond.Weighted>
-8.4242

> <Gold.Chemscore.Metal.Weighted>
-0.0000

> <Gold.Chemscore.Lipo.Weighted>
-9.6545

> <Gold.Chemscore.Internal_Hbond.Weighted>
0.0000

> <Gold.Chemscore.DEClash.Weighted>
0.3574

> <Gold.Chemscore.DEInternal.Weighted>
2.8390

> <Gold.Chemscore.Rot.Weighted>
3.2542

> <Gold.Chemscore.Internal.Correction.Weighted>
   9.000000E+99

> <Gold.Protein.RotatedTorsions>
[ 6907 6896 6895 6894 ] final  -36.20 input  -60.11 | X-H torsion
[ 7974 7965 7964 7962 ] final -103.80 input  175.53 | X-H torsion
[ 8008 7997 7996 7995 ] final  157.54 input   59.86 | X-H torsion
[ 10167 10162 10161 10158 ] final  161.97 input  -65.29 | X-H torsion
[ 10718 10713 10712 10709 ] final   75.68 input   66.30 | X-H torsion
[ 10763 10752 10751 10750 ] final   97.01 input  -60.55 | X-H torsion
[ 11005 11000 10999 10996 ] final  -14.54 input  -57.11 | X-H torsion

> <Gold.Protein.ActiveResidues>
 VAL166  LYS551  ARG553  GLY616  TRP617  ASP618  TYR619  PRO620  LYS621  CYS622 
 ASP623  PHE694  ASN695  SER759  ASP760  ASP761  ALA762  ILE779  LEU786  VAL792 
 PHE793  MET794  SER795  GLU796  ALA797  LYS798  CYS799  TRP800  GLU811  SER814 

> <Gold.Protein.RotatedAtoms>
  151.0302  134.9533  159.8106 H   0  0  0  0  0  0  0  0  0  0  0  0  # atno 6907 bound_to 6896
  152.5344  134.2790  159.9010 H   0  0  0  0  0  0  0  0  0  0  0  0  # atno 6908 bound_to 6896
  151.2799  133.4172  159.2660 H   0  0  0  0  0  0  0  0  0  0  0  0  # atno 6909 bound_to 6896
  145.2512  140.9238  143.3094 H   0  0  0  0  0  0  0  0  0  0  0  0  # atno 7974 bound_to 7965
  156.2358  140.1882  156.7123 H   0  0  0  0  0  0  0  0  0  0  0  0  # atno 8008 bound_to 7997
  154.6104  140.0623  156.9513 H   0  0  0  0  0  0  0  0  0  0  0  0  # atno 8009 bound_to 7997
  155.2026  140.3293  155.4343 H   0  0  0  0  0  0  0  0  0  0  0  0  # atno 8010 bound_to 7997
  139.4855  144.4483  151.8862 H   0  0  0  0  0  0  0  0  0  0  0  0  # atno 10167 bound_to 10162
  157.6644  130.9738  150.1388 H   0  0  0  0  0  0  0  0  0  0  0  0  # atno 10718 bound_to 10713
  153.2718  135.4198  155.0995 H   0  0  0  0  0  0  0  0  0  0  0  0  # atno 10763 bound_to 10752
  154.8459  135.3474  154.6233 H   0  0  0  0  0  0  0  0  0  0  0  0  # atno 10764 bound_to 10752
  153.6653  135.7046  153.5221 H   0  0  0  0  0  0  0  0  0  0  0  0  # atno 10765 bound_to 10752
  140.7874  133.8315  155.9348 H   0  0  0  0  0  0  0  0  0  0  0  0  # atno 11005 bound_to 11000
  144.9501  139.4092  143.6406 LP  0  0  0  0  0  0  0  0  0  0  0  0  # atno 17320 bound_to 7965
  146.3302  139.8504  142.8874 LP  0  0  0  0  0  0  0  0  0  0  0  0  # atno 17321 bound_to 7965
  140.3939  144.2580  150.5897 LP  0  0  0  0  0  0  0  0  0  0  0  0  # atno 17342 bound_to 10162
  140.5120  143.2288  151.8520 LP  0  0  0  0  0  0  0  0  0  0  0  0  # atno 17343 bound_to 10162
  156.2216  130.3674  149.8549 LP  0  0  0  0  0  0  0  0  0  0  0  0  # atno 17370 bound_to 10713
  156.6401  130.8701  151.3512 LP  0  0  0  0  0  0  0  0  0  0  0  0  # atno 17371 bound_to 10713
  140.9423  134.1885  157.4789 LP  0  0  0  0  0  0  0  0  0  0  0  0  # atno 17394 bound_to 11000
  139.8735  134.9877  156.5378 LP  0  0  0  0  0  0  0  0  0  0  0  0  # atno 17395 bound_to 11000

$$$$
