AV-unprocessed.smi:17|AV-procd|sdf|99|dock2
  -GOLD-   2262015243D 1   1.00000     0.00000
 Structure written by MMmdl.
 57 59  0  0  0  0  0  0  0  0  1 V2000
  146.9809  140.2546  153.7383 C   0  0  0  0  0  0  0  0  0  0  0  0
  147.8135  138.9967  153.4528 C   0  0  0  0  0  0  0  0  0  0  0  0
  147.9295  138.1266  154.6265 N   0  0  0  0  0  0  0  0  0  0  0  0
  148.8172  138.4604  155.6026 C   0  0  0  0  0  0  0  0  0  0  0  0
  149.1209  137.5237  156.5398 N   0  0  0  0  0  0  0  0  0  0  0  0
  149.9988  137.7910  157.5098 C   0  0  0  0  0  0  0  0  0  0  0  0
  150.6758  138.9172  157.7333 N   0  0  0  0  0  0  0  0  0  0  0  0
  150.3642  139.8715  156.8111 C   0  0  0  0  0  0  0  0  0  0  0  0
  149.4516  139.7328  155.7255 C   0  0  0  0  0  0  0  0  0  0  0  0
  149.3815  140.9314  155.0222 N   0  0  0  0  0  0  0  0  0  0  0  0
  150.2175  141.7200  155.6390 C   0  0  0  0  0  0  0  0  0  0  0  0
  150.8571  141.1612  156.7203 N   0  0  0  0  0  0  0  0  0  0  0  0
  151.8329  141.8099  157.5784 C   0  0  0  0  0  0  0  0  0  0  0  0
  151.2449  142.2587  158.9394 C   0  0  2  0  0  0  0  0  0  0  0  0
  150.2170  143.4085  158.7993 C   0  0  0  0  0  0  0  0  0  0  0  0
  150.7480  144.4902  158.0618 O   0  0  0  0  0  0  0  0  0  0  0  0
  152.3614  142.5931  159.9605 C   0  0  2  0  0  0  0  0  0  0  0  0
  153.1194  141.3907  160.4949 C   0  0  0  0  0  0  0  0  0  0  0  0
  153.7718  141.9596  161.7487 C   0  0  0  0  0  0  0  0  0  0  0  0
  152.8398  142.9031  162.2635 O   0  0  0  0  0  0  0  0  0  0  0  0
  151.8686  143.2199  161.2699 C   0  0  0  0  0  0  0  0  0  0  0  0
  147.1511  136.8875  154.7342 C   0  0  2  0  0  0  0  0  0  0  0  0
  148.0712  135.6577  154.8089 C   0  0  0  0  0  0  0  0  0  0  0  0
  146.0991  136.7431  153.6134 C   0  0  0  0  0  0  0  0  0  0  0  0
  144.9854  135.2806  153.8387 S   0  0  0  0  0  0  0  0  0  0  0  0
  143.8728  135.3908  152.3766 C   0  0  0  0  0  0  0  0  0  0  0  0
  145.7987  134.0654  153.6830 O   0  0  0  0  0  0  0  0  0  0  0  0
  144.1729  135.4663  155.0511 O   0  0  0  0  0  0  0  0  0  0  0  0
  146.9382  140.8960  152.8582 H   0  0  0  0  0  0  0  0  0  0  0  0
  147.4105  140.8375  154.5532 H   0  0  0  0  0  0  0  0  0  0  0  0
  145.9560  140.0015  154.0114 H   0  0  0  0  0  0  0  0  0  0  0  0
  147.3863  138.4478  152.6136 H   0  0  0  0  0  0  0  0  0  0  0  0
  148.8070  139.3034  153.1276 H   0  0  0  0  0  0  0  0  0  0  0  0
  150.1869  136.9869  158.2059 H   0  0  0  0  0  0  0  0  0  0  0  0
  150.3948  142.7366  155.3190 H   0  0  0  0  0  0  0  0  0  0  0  0
  152.6545  141.1090  157.7268 H   0  0  0  0  0  0  0  0  0  0  0  0
  152.2525  142.6654  157.0480 H   0  0  0  0  0  0  0  0  0  0  0  0
  150.6933  141.4058  159.3376 H   0  0  0  0  0  0  0  0  0  0  0  0
  149.3064  143.0642  158.3087 H   0  0  0  0  0  0  0  0  0  0  0  0
  149.9081  143.7737  159.7784 H   0  0  0  0  0  0  0  0  0  0  0  0
  150.2186  144.6160  157.2890 H   0  0  0  0  0  0  0  0  0  0  0  0
  153.0834  143.2714  159.5024 H   0  0  0  0  0  0  0  0  0  0  0  0
  152.4293  140.5889  160.7620 H   0  0  0  0  0  0  0  0  0  0  0  0
  153.8510  140.9934  159.7908 H   0  0  0  0  0  0  0  0  0  0  0  0
  154.0117  141.1899  162.4825 H   0  0  0  0  0  0  0  0  0  0  0  0
  154.6933  142.4841  161.4926 H   0  0  0  0  0  0  0  0  0  0  0  0
  151.7324  144.2985  161.1870 H   0  0  0  0  0  0  0  0  0  0  0  0
  150.9169  142.7837  161.5762 H   0  0  0  0  0  0  0  0  0  0  0  0
  146.5810  136.8990  155.6606 H   0  0  0  0  0  0  0  0  0  0  0  0
  147.4956  134.7496  154.9880 H   0  0  0  0  0  0  0  0  0  0  0  0
  148.7911  135.7542  155.6222 H   0  0  0  0  0  0  0  0  0  0  0  0
  148.6301  135.5162  153.8836 H   0  0  0  0  0  0  0  0  0  0  0  0
  145.4905  137.6373  153.4850 H   0  0  0  0  0  0  0  0  0  0  0  0
  146.6164  136.5841  152.6669 H   0  0  0  0  0  0  0  0  0  0  0  0
  143.2299  134.5115  152.3487 H   0  0  0  0  0  0  0  0  0  0  0  0
  144.4673  135.4296  151.4642 H   0  0  0  0  0  0  0  0  0  0  0  0
  143.2508  136.2803  152.4442 H   0  0  0  0  0  0  0  0  0  0  0  0
  1  2  1  0  0  0  0
  1 29  1  0  0  0  0
  1 30  1  0  0  0  0
  1 31  1  0  0  0  0
  2  3  1  0  0  0  0
  2 32  1  0  0  0  0
  2 33  1  0  0  0  0
  3  4  1  0  0  0  0
  3 22  1  0  0  0  0
  4  9  1  0  0  0  0
  4  5  2  0  0  0  0
  5  6  1  0  0  0  0
  6  7  2  0  0  0  0
  6 34  1  0  0  0  0
  7  8  1  0  0  0  0
  8 12  1  0  0  0  0
  8  9  2  0  0  0  0
  9 10  1  0  0  0  0
 10 11  2  0  0  0  0
 11 12  1  0  0  0  0
 11 35  1  0  0  0  0
 12 13  1  0  0  0  0
 13 14  1  0  0  0  0
 13 36  1  0  0  0  0
 13 37  1  0  0  0  0
 14 15  1  0  0  0  0
 14 17  1  0  0  0  0
 14 38  1  0  0  0  0
 15 16  1  0  0  0  0
 15 39  1  0  0  0  0
 15 40  1  0  0  0  0
 16 41  1  0  0  0  0
 17 21  1  0  0  0  0
 17 18  1  0  0  0  0
 17 42  1  0  0  0  0
 18 19  1  0  0  0  0
 18 43  1  0  0  0  0
 18 44  1  0  0  0  0
 19 20  1  0  0  0  0
 19 45  1  0  0  0  0
 19 46  1  0  0  0  0
 20 21  1  0  0  0  0
 21 47  1  0  0  0  0
 21 48  1  0  0  0  0
 22 23  1  0  0  0  0
 22 24  1  0  0  0  0
 22 49  1  0  0  0  0
 23 50  1  0  0  0  0
 23 51  1  0  0  0  0
 23 52  1  0  0  0  0
 24 25  1  0  0  0  0
 24 53  1  0  0  0  0
 24 54  1  0  0  0  0
 25 26  1  0  0  0  0
 25 27  2  0  0  0  0
 25 28  2  0  0  0  0
 26 55  1  0  0  0  0
 26 56  1  0  0  0  0
 26 57  1  0  0  0  0
M  END
> <s_m_source_file>
AV-unprocessed.smi

> <i_m_source_file_index>
17

> <i_lp_mmshare_version>
43012

> <i_f3d_flags>
0

> <s_epik_input>
W0NIM11TKD1PKSg9TylbQ0gyXVtDQEBIXShbQ0gzXSlOKFtDSDJdW0NIM10pYyhuW2NIXW4xKWMoYzEyKW5bY0hdbjJbQ0gyXVtDQEhdKFtDSDJdW09IXSlbQ0BASF0zW0NIMl1bQ0gyXU9bQ0gyXTM=

> <s_epik_cmdline>
J2VwaWtfcHl0aG9uJywgJy1waCcsICc3LjAnLCAnLXRuJywgJzgnLCAnLW1hJywgJzIwMCcsICctbWV0YWxfYmluZGluZycsICctaW1hZScsICc8aW5maWxlLm1hZT4nLCAnLW9tYWUnLCAnPG91dGZpbGUubWFlPic=

> <r_lp_tautomer_probability>
1

> <r_epik_Ionization_Penalty>
0.00119955

> <r_epik_Ionization_Penalty_Charging>
0

> <r_epik_Ionization_Penalty_Neutral>
0.00119955

> <r_epik_State_Penalty>
0.000665399

> <r_epik_Charging_Adjusted_Penalty>
0.000665399

> <i_epik_Tot_Q>
0

> <i_epik_Tot_abs_Q>
0

> <r_epik_Metal_State_Penalty>
-0

> <b_epik_Metal_Only>
0

> <s_lp_Force_Field>
OPLS_2005

> <r_lp_Energy>
33.2615

> <b_lp_Chiralities_Consistent>
1

> <s_lp_Variant>
AV-unprocessed.smi:17-1

> <Gold.Version>
5.8.1

> <Gold.Id.Protein>
6NUR|6NUR_protein|mol2

> <Gold.PLP.Fitness>
39.3513

> <Gold.PLP.PLP>
-34.8995

> <Gold.PLP.part.hbond>
-1.1963

> <Gold.PLP.part.metal>
0.0000

> <Gold.PLP.part.buried>
-6.1466

> <Gold.PLP.part.nonpolar>
-27.0665

> <Gold.PLP.part.repulsive>
0.3626

> <Gold.PLP.ligand.clash>
0.0000

> <Gold.PLP.ligand.torsion>
0.9573

> <Gold.PLP.Chemscore.Hbond>
1.0000

> <Gold.PLP.Chemscore.CHOScore>
0.8531

> <Gold.PLP.Chemscore.Metal>
0.0000

> <Gold.Chemscore.Hbonds>
donor molecule, donor type, donor heavy atom, donor atom, acceptor molecule, acceptor atom, score
      L1  H    16    41       P1  8028  0.91
      L1  C    11    35       P1  8028  0.96

> <Gold.PLP.Chemscore.Internal.Correction>
0.8070

> <Gold.Rescore>
     Score         DG    S(hbond)    S(metal)    S(lipo)     H(rot)  DE(clash)    DE(int)     intcor
      4.58      -9.55       0.87        0.00      86.66       3.51       0.07       4.90       ----

> <Gold.Chemscore.Fitness>
4.5762

> <Gold.Chemscore.DG>
-9.5491

> <Gold.Chemscore.ZeroCoef>
-5.4800

> <Gold.Chemscore.Hbond>
0.8698

> <Gold.Chemscore.Metal>
0.0000

> <Gold.Chemscore.Lipo>
86.6584

> <Gold.Chemscore.Internal_Hbond>
0.0000

> <Gold.Chemscore.DEClash>
0.0727

> <Gold.Chemscore.DEInternal>
4.9001

> <Gold.Chemscore.Rot>
3.5059

> <Gold.Chemscore.Internal.Correction>
   9.000000E+99

> <Gold.Chemscore.Hbonds>
donor molecule, donor type, donor heavy atom, donor atom, acceptor molecule, acceptor atom, score
      L1  H    16    41       P1  8028  0.35

> <Gold.Chemscore.Hbond.Weighted>
-2.9050

> <Gold.Chemscore.Metal.Weighted>
-0.0000

> <Gold.Chemscore.Lipo.Weighted>
-10.1390

> <Gold.Chemscore.Internal_Hbond.Weighted>
0.0000

> <Gold.Chemscore.DEClash.Weighted>
0.0727

> <Gold.Chemscore.DEInternal.Weighted>
4.9001

> <Gold.Chemscore.Rot.Weighted>
8.9750

> <Gold.Chemscore.Internal.Correction.Weighted>
   9.000000E+99

> <Gold.Protein.RotatedTorsions>
[ 6907 6896 6895 6894 ] final  -73.53 input  -60.11 | X-H torsion
[ 7974 7965 7964 7962 ] final -165.06 input  175.53 | X-H torsion
[ 8008 7997 7996 7995 ] final  -25.37 input   59.86 | X-H torsion
[ 10167 10162 10161 10158 ] final -160.87 input  -65.29 | X-H torsion
[ 10718 10713 10712 10709 ] final  -50.51 input   66.30 | X-H torsion
[ 10763 10752 10751 10750 ] final -151.34 input  -60.55 | X-H torsion
[ 11005 11000 10999 10996 ] final   52.84 input  -57.11 | X-H torsion

> <Gold.Protein.ActiveResidues>
 VAL166  LYS551  ARG553  GLY616  TRP617  ASP618  TYR619  PRO620  LYS621  CYS622 
 ASP623  PHE694  ASN695  SER759  ASP760  ASP761  ALA762  ILE779  LEU786  VAL792 
 PHE793  MET794  SER795  GLU796  ALA797  LYS798  CYS799  TRP800  GLU811  SER814 

> <Gold.Protein.RotatedAtoms>
  150.7126  134.5002  159.5557 H   0  0  0  0  0  0  0  0  0  0  0  0  # atno 6907 bound_to 6896
  152.2601  134.8040  160.0441 H   0  0  0  0  0  0  0  0  0  0  0  0  # atno 6908 bound_to 6896
  151.8757  133.3449  159.3786 H   0  0  0  0  0  0  0  0  0  0  0  0  # atno 6909 bound_to 6896
  144.7280  140.2869  143.6227 H   0  0  0  0  0  0  0  0  0  0  0  0  # atno 7974 bound_to 7965
  154.4479  140.1928  156.0609 H   0  0  0  0  0  0  0  0  0  0  0  0  # atno 8008 bound_to 7997
  156.0583  140.3300  155.7405 H   0  0  0  0  0  0  0  0  0  0  0  0  # atno 8009 bound_to 7997
  155.5451  140.0590  157.2853 H   0  0  0  0  0  0  0  0  0  0  0  0  # atno 8010 bound_to 7997
  139.6507  144.0089  152.2160 H   0  0  0  0  0  0  0  0  0  0  0  0  # atno 10167 bound_to 10162
  156.1794  130.4150  149.9529 H   0  0  0  0  0  0  0  0  0  0  0  0  # atno 10718 bound_to 10713
  154.8063  135.3262  154.7421 H   0  0  0  0  0  0  0  0  0  0  0  0  # atno 10763 bound_to 10752
  153.8079  135.6898  153.4850 H   0  0  0  0  0  0  0  0  0  0  0  0  # atno 10764 bound_to 10752
  153.1811  135.4586  154.9974 H   0  0  0  0  0  0  0  0  0  0  0  0  # atno 10765 bound_to 10752
  140.0816  134.5331  155.8941 H   0  0  0  0  0  0  0  0  0  0  0  0  # atno 11005 bound_to 11000
  145.7894  139.1921  143.2112 LP  0  0  0  0  0  0  0  0  0  0  0  0  # atno 17320 bound_to 7965
  146.0768  140.7808  142.9661 LP  0  0  0  0  0  0  0  0  0  0  0  0  # atno 17321 bound_to 7965
  139.9802  144.6433  150.7908 LP  0  0  0  0  0  0  0  0  0  0  0  0  # atno 17342 bound_to 10162
  140.7536  143.3012  151.3076 LP  0  0  0  0  0  0  0  0  0  0  0  0  # atno 17343 bound_to 10162
  156.7304  130.9041  151.3625 LP  0  0  0  0  0  0  0  0  0  0  0  0  # atno 17370 bound_to 10713
  157.6858  130.9184  150.0383 LP  0  0  0  0  0  0  0  0  0  0  0  0  # atno 17371 bound_to 10713
  141.2048  133.6642  156.6146 LP  0  0  0  0  0  0  0  0  0  0  0  0  # atno 17394 bound_to 11000
  140.3479  134.7793  157.4446 LP  0  0  0  0  0  0  0  0  0  0  0  0  # atno 17395 bound_to 11000

$$$$
