AV-unprocessed.smi:1510|AV-procd|sdf|6097|dock5
  -GOLD-   22720 6223D 1   1.00000     0.00000
 Structure written by MMmdl.
 33 34  0  0  0  0  0  0  0  0  1 V2000
  149.5770  140.5861  158.6546 O   0  0  0  0  0  0  0  0  0  0  0  0
  149.1824  141.5941  158.0664 C   0  0  0  0  0  0  0  0  0  0  0  0
  147.6830  141.8510  157.8527 C   0  0  0  0  0  0  0  0  0  0  0  0
  147.2949  141.9117  156.4361 N   0  0  0  0  0  0  0  0  0  0  0  0
  148.2874  141.5005  155.5593 N   0  0  0  0  0  0  0  0  0  0  0  0
  148.0619  141.4915  154.2891 C   0  0  0  0  0  0  0  0  0  0  0  0
  149.0710  141.0724  153.4574 O   0  0  0  0  0  0  0  0  0  0  0  0
  146.7859  141.9097  153.7519 C   0  0  0  0  0  0  0  0  0  0  0  0
  145.8268  142.3127  154.6136 C   0  0  0  0  0  0  0  0  0  0  0  0
  146.0479  142.3327  156.0609 C   0  0  0  0  0  0  0  0  0  0  0  0
  145.1920  142.6930  156.8687 O   0  0  0  0  0  0  0  0  0  0  0  0
  150.0124  142.5166  157.5606 N   0  0  0  0  0  0  0  0  0  0  0  0
  151.4648  142.4477  157.6377 C   0  0  0  0  0  0  0  0  0  0  0  0
  151.9824  143.2676  158.8271 C   0  0  1  0  0  0  0  0  0  0  0  0
  151.9635  144.7757  158.5900 C   0  0  0  0  0  0  0  0  0  0  0  0
  151.9459  145.3033  160.0065 C   0  0  0  0  0  0  0  0  0  0  0  0
  151.0474  144.2903  160.7126 C   0  0  0  0  0  0  0  0  0  0  0  0
  151.1552  143.0763  159.9719 O   0  0  0  0  0  0  0  0  0  0  0  0
  148.6836  140.4068  152.9099 H   0  0  0  0  0  0  0  0  0  0  0  0
  147.1065  141.0795  158.3666 H   0  0  0  0  0  0  0  0  0  0  0  0
  147.4261  142.7869  158.3519 H   0  0  0  0  0  0  0  0  0  0  0  0
  146.6145  141.8965  152.6856 H   0  0  0  0  0  0  0  0  0  0  0  0
  144.8690  142.6282  154.2267 H   0  0  0  0  0  0  0  0  0  0  0  0
  149.6150  143.3121  157.0821 H   0  0  0  0  0  0  0  0  0  0  0  0
  151.7683  141.4053  157.7476 H   0  0  0  0  0  0  0  0  0  0  0  0
  151.8989  142.8148  156.7064 H   0  0  0  0  0  0  0  0  0  0  0  0
  152.9970  142.9601  159.0870 H   0  0  0  0  0  0  0  0  0  0  0  0
  152.8186  145.1269  158.0118 H   0  0  0  0  0  0  0  0  0  0  0  0
  151.0515  145.0729  158.0699 H   0  0  0  0  0  0  0  0  0  0  0  0
  152.9518  145.2719  160.4276 H   0  0  0  0  0  0  0  0  0  0  0  0
  151.5763  146.3264  160.0806 H   0  0  0  0  0  0  0  0  0  0  0  0
  151.3329  144.1449  161.7548 H   0  0  0  0  0  0  0  0  0  0  0  0
  150.0074  144.6176  160.6897 H   0  0  0  0  0  0  0  0  0  0  0  0
  1  2  2  0  0  0  0
  2  3  1  0  0  0  0
  2 12  1  0  0  0  0
  3 20  1  0  0  0  0
  3 21  1  0  0  0  0
  3  4  1  0  0  0  0
  4  5  1  0  0  0  0
  4 10  1  0  0  0  0
  5  6  2  0  0  0  0
  6  7  1  0  0  0  0
  6  8  1  0  0  0  0
  7 19  1  0  0  0  0
  8 22  1  0  0  0  0
  8  9  2  0  0  0  0
  9 23  1  0  0  0  0
  9 10  1  0  0  0  0
 10 11  2  0  0  0  0
 12 13  1  0  0  0  0
 12 24  1  0  0  0  0
 13 14  1  0  0  0  0
 13 25  1  0  0  0  0
 13 26  1  0  0  0  0
 14 18  1  0  0  0  0
 14 15  1  0  0  0  0
 14 27  1  0  0  0  0
 15 16  1  0  0  0  0
 15 28  1  0  0  0  0
 15 29  1  0  0  0  0
 16 17  1  0  0  0  0
 16 30  1  0  0  0  0
 16 31  1  0  0  0  0
 17 18  1  0  0  0  0
 17 32  1  0  0  0  0
 17 33  1  0  0  0  0
M  END
> <s_m_source_file>
AV-unprocessed.smi

> <i_m_source_file_index>
1510

> <i_lp_mmshare_version>
43012

> <i_f3d_flags>
0

> <s_epik_input>
TzFbQ0gyXVtDSDJdW0NIMl1bQ0BIXTFbQ0gyXVtOSF1DKD1PKVtDSDJdbjJbbkhdYyg9TylbY0hdW2NIXWMyPU8=

> <s_epik_cmdline>
J2VwaWtfcHl0aG9uJywgJy1waCcsICc3LjAnLCAnLXRuJywgJzgnLCAnLW1hJywgJzIwMCcsICctbWV0YWxfYmluZGluZycsICctaW1hZScsICc8aW5maWxlLm1hZT4nLCAnLW9tYWUnLCAnPG91dGZpbGUubWFlPic=

> <r_lp_tautomer_probability>
0.9996

> <r_epik_Ionization_Penalty>
2.13037

> <r_epik_Ionization_Penalty_Charging>
3.76e-08

> <r_epik_Ionization_Penalty_Neutral>
2.13037

> <r_epik_State_Penalty>
1.70753

> <r_epik_Charging_Adjusted_Penalty>
1.70753

> <i_epik_Tot_Q>
0

> <i_epik_Tot_abs_Q>
0

> <r_epik_Metal_State_Penalty>
1.70753

> <b_epik_Metal_Only>
0

> <s_lp_Force_Field>
OPLS_2005

> <r_lp_Energy>
28.362

> <b_lp_Chiralities_Consistent>
1

> <s_lp_Variant>
AV-unprocessed.smi:1510-4

> <Gold.Version>
5.8.1

> <Gold.Id.Protein>
6NUR|6NUR_protein|mol2

> <Gold.PLP.Fitness>
43.5335

> <Gold.PLP.PLP>
-36.7440

> <Gold.PLP.part.hbond>
-4.1391

> <Gold.PLP.part.metal>
0.0000

> <Gold.PLP.part.buried>
-5.0448

> <Gold.PLP.part.nonpolar>
-25.7041

> <Gold.PLP.part.repulsive>
0.4785

> <Gold.PLP.ligand.clash>
0.0000

> <Gold.PLP.ligand.torsion>
0.4105

> <Gold.PLP.Chemscore.Hbond>
2.5360

> <Gold.PLP.Chemscore.CHOScore>
0.0000

> <Gold.PLP.Chemscore.Metal>
0.0000

> <Gold.Chemscore.Hbonds>
donor molecule, donor type, donor heavy atom, donor atom, acceptor molecule, acceptor atom, score
      L1  H     7    19       P1  7957  0.34
      L1  H    12    24       P1  8028  0.76
      P1  H  8011  8017       L1     7  1.00

> <Gold.PLP.Chemscore.Internal.Correction>
0.0025

> <Gold.Rescore>
     Score         DG    S(hbond)    S(metal)    S(lipo)     H(rot)  DE(clash)    DE(int)     intcor
     14.08     -14.57       2.25        0.00      72.32       2.69       0.19       0.30       ----

> <Gold.Chemscore.Fitness>
14.0840

> <Gold.Chemscore.DG>
-14.5698

> <Gold.Chemscore.ZeroCoef>
-5.4800

> <Gold.Chemscore.Hbond>
2.2526

> <Gold.Chemscore.Metal>
0.0000

> <Gold.Chemscore.Lipo>
72.3248

> <Gold.Chemscore.Internal_Hbond>
0.0000

> <Gold.Chemscore.DEClash>
0.1886

> <Gold.Chemscore.DEInternal>
0.2972

> <Gold.Chemscore.Rot>
2.6937

> <Gold.Chemscore.Internal.Correction>
   9.000000E+99

> <Gold.Chemscore.Hbonds>
donor molecule, donor type, donor heavy atom, donor atom, acceptor molecule, acceptor atom, score
      L1  H     7    19       P1  7957  0.31
      L1  H    12    24       P1  8028  0.74
      P1  H  8011  8017       L1     7  0.57

> <Gold.Chemscore.Hbond.Weighted>
-7.5237

> <Gold.Chemscore.Metal.Weighted>
-0.0000

> <Gold.Chemscore.Lipo.Weighted>
-8.4620

> <Gold.Chemscore.Internal_Hbond.Weighted>
0.0000

> <Gold.Chemscore.DEClash.Weighted>
0.1886

> <Gold.Chemscore.DEInternal.Weighted>
0.2972

> <Gold.Chemscore.Rot.Weighted>
6.8959

> <Gold.Chemscore.Internal.Correction.Weighted>
   9.000000E+99

> <Gold.Protein.RotatedTorsions>
[ 6907 6896 6895 6894 ] final -114.05 input  -60.11 | X-H torsion
[ 7974 7965 7964 7962 ] final  -59.11 input  175.53 | X-H torsion
[ 8008 7997 7996 7995 ] final -128.81 input   59.86 | X-H torsion
[ 10167 10162 10161 10158 ] final   22.71 input  -65.29 | X-H torsion
[ 10718 10713 10712 10709 ] final   51.39 input   66.30 | X-H torsion
[ 10763 10752 10751 10750 ] final   -7.34 input  -60.55 | X-H torsion
[ 11005 11000 10999 10996 ] final    3.61 input  -57.11 | X-H torsion

> <Gold.Protein.ActiveResidues>
 VAL166  LYS551  ARG553  GLY616  TRP617  ASP618  TYR619  PRO620  LYS621  CYS622 
 ASP623  PHE694  ASN695  SER759  ASP760  ASP761  ALA762  ILE779  LEU786  VAL792 
 PHE793  MET794  SER795  GLU796  ALA797  LYS798  CYS799  TRP800  GLU811  SER814 

> <Gold.Protein.RotatedAtoms>
  150.7873  133.8857  159.3298 H   0  0  0  0  0  0  0  0  0  0  0  0  # atno 6907 bound_to 6896
  151.6704  135.0975  160.0206 H   0  0  0  0  0  0  0  0  0  0  0  0  # atno 6908 bound_to 6896
  152.3940  133.6681  159.6296 H   0  0  0  0  0  0  0  0  0  0  0  0  # atno 6909 bound_to 6896
  145.8313  140.8478  143.0082 H   0  0  0  0  0  0  0  0  0  0  0  0  # atno 7974 bound_to 7965
  155.2689  140.0439  157.3005 H   0  0  0  0  0  0  0  0  0  0  0  0  # atno 8008 bound_to 7997
  154.5665  140.2361  155.8224 H   0  0  0  0  0  0  0  0  0  0  0  0  # atno 8009 bound_to 7997
  156.2089  140.3004  155.9696 H   0  0  0  0  0  0  0  0  0  0  0  0  # atno 8010 bound_to 7997
  140.5327  143.9814  150.6474 H   0  0  0  0  0  0  0  0  0  0  0  0  # atno 10167 bound_to 10162
  157.4976  130.8417  149.8277 H   0  0  0  0  0  0  0  0  0  0  0  0  # atno 10718 bound_to 10713
  153.4250  135.7011  153.6268 H   0  0  0  0  0  0  0  0  0  0  0  0  # atno 10763 bound_to 10752
  153.4707  135.3715  155.2389 H   0  0  0  0  0  0  0  0  0  0  0  0  # atno 10764 bound_to 10752
  154.8723  135.4042  154.3625 H   0  0  0  0  0  0  0  0  0  0  0  0  # atno 10765 bound_to 10752
  140.5912  133.9923  155.8089 H   0  0  0  0  0  0  0  0  0  0  0  0  # atno 11005 bound_to 11000
  144.6739  140.0676  143.7474 LP  0  0  0  0  0  0  0  0  0  0  0  0  # atno 17320 bound_to 7965
  145.9568  139.2772  143.1179 LP  0  0  0  0  0  0  0  0  0  0  0  0  # atno 17321 bound_to 7965
  140.3193  143.3147  152.0800 LP  0  0  0  0  0  0  0  0  0  0  0  0  # atno 17342 bound_to 10162
  139.4960  144.6584  151.6520 LP  0  0  0  0  0  0  0  0  0  0  0  0  # atno 17343 bound_to 10162
  156.0210  130.3796  150.1963 LP  0  0  0  0  0  0  0  0  0  0  0  0  # atno 17370 bound_to 10713
  157.0153  130.9963  151.3355 LP  0  0  0  0  0  0  0  0  0  0  0  0  # atno 17371 bound_to 10713
  141.0934  133.9882  157.3200 LP  0  0  0  0  0  0  0  0  0  0  0  0  # atno 17394 bound_to 11000
  139.9273  135.0201  156.8280 LP  0  0  0  0  0  0  0  0  0  0  0  0  # atno 17395 bound_to 11000

$$$$
