AV-unprocessed.smi:2454|AV-procd|sdf|9698|dock10
  -GOLD-   2272013333D 1   1.00000     0.00000
 Structure written by MMmdl.
 42 43  0  0  0  0  0  0  0  0  1 V2000
  151.9117  140.3711  157.3507 C   0  0  0  0  0  0  0  0  0  0  0  0
  152.5327  139.4256  156.4978 O   0  0  0  0  0  0  0  0  0  0  0  0
  152.2884  139.6875  155.1262 C   0  0  0  0  0  0  0  0  0  0  0  0
  150.8054  139.8133  154.8458 C   0  0  0  0  0  0  0  0  0  0  0  0
  150.0608  138.7276  154.3381 C   0  0  0  0  0  0  0  0  0  0  0  0
  148.6847  138.9401  154.0958 C   0  0  0  0  0  0  0  0  0  0  0  0
  147.9792  137.8150  153.5760 N   0  0  0  0  0  0  0  0  0  0  0  0
  146.7108  137.3924  153.7662 C   0  0  0  0  0  0  0  0  0  0  0  0
  145.9383  138.0099  154.4973 O   0  0  0  0  0  0  0  0  0  0  0  0
  146.3566  136.2727  153.1152 N   0  0  0  0  0  0  0  0  0  0  0  0
  145.0576  135.6080  153.1860 C   0  0  1  0  0  0  0  0  0  0  0  0
  144.0592  136.2987  152.2383 C   0  0  0  0  0  0  0  0  0  0  0  0
  144.3972  136.0467  150.7594 C   0  0  0  0  0  0  0  0  0  0  0  0
  144.4982  134.5433  150.4582 C   0  0  0  0  0  0  0  0  0  0  0  0
  145.5269  133.8448  151.3723 C   0  0  2  0  0  0  0  0  0  0  0  0
  145.6447  132.3382  151.0629 C   0  0  0  0  0  0  0  0  0  0  0  0
  146.5041  131.7480  151.8945 F   0  0  0  0  0  0  0  0  0  0  0  0
  144.4541  131.7519  151.1867 F   0  0  0  0  0  0  0  0  0  0  0  0
  146.0661  132.1612  149.8108 F   0  0  0  0  0  0  0  0  0  0  0  0
  145.1810  134.1044  152.8567 C   0  0  0  0  0  0  0  0  0  0  0  0
  148.1384  140.1568  154.3517 N   0  0  0  0  0  0  0  0  0  0  0  0
  148.9334  141.1167  154.8300 C   0  0  0  0  0  0  0  0  0  0  0  0
  150.2364  141.0125  155.0917 N   0  0  0  0  0  0  0  0  0  0  0  0
  152.1259  140.1232  158.3903 H   0  0  0  0  0  0  0  0  0  0  0  0
  150.8288  140.3692  157.2205 H   0  0  0  0  0  0  0  0  0  0  0  0
  152.2855  141.3781  157.1616 H   0  0  0  0  0  0  0  0  0  0  0  0
  152.7867  140.6121  154.8296 H   0  0  0  0  0  0  0  0  0  0  0  0
  152.7054  138.8879  154.5110 H   0  0  0  0  0  0  0  0  0  0  0  0
  150.5298  137.7745  154.1399 H   0  0  0  0  0  0  0  0  0  0  0  0
  148.5107  137.2557  152.9250 H   0  0  0  0  0  0  0  0  0  0  0  0
  147.0573  135.8331  152.5343 H   0  0  0  0  0  0  0  0  0  0  0  0
  144.6774  135.7120  154.2037 H   0  0  0  0  0  0  0  0  0  0  0  0
  143.0553  135.9238  152.4418 H   0  0  0  0  0  0  0  0  0  0  0  0
  144.0282  137.3709  152.4372 H   0  0  0  0  0  0  0  0  0  0  0  0
  143.6361  136.5011  150.1249 H   0  0  0  0  0  0  0  0  0  0  0  0
  145.3389  136.5351  150.5051 H   0  0  0  0  0  0  0  0  0  0  0  0
  143.5180  134.0822  150.5855 H   0  0  0  0  0  0  0  0  0  0  0  0
  144.7703  134.4034  149.4117 H   0  0  0  0  0  0  0  0  0  0  0  0
  146.5028  134.2905  151.1726 H   0  0  0  0  0  0  0  0  0  0  0  0
  145.9279  133.6434  153.5039 H   0  0  0  0  0  0  0  0  0  0  0  0
  144.2367  133.6142  153.0958 H   0  0  0  0  0  0  0  0  0  0  0  0
  148.4737  142.0742  155.0249 H   0  0  0  0  0  0  0  0  0  0  0  0
  1  2  1  0  0  0  0
  1 24  1  0  0  0  0
  1 25  1  0  0  0  0
  1 26  1  0  0  0  0
  2  3  1  0  0  0  0
  3  4  1  0  0  0  0
  3 27  1  0  0  0  0
  3 28  1  0  0  0  0
  4 23  1  0  0  0  0
  4  5  2  0  0  0  0
  5  6  1  0  0  0  0
  5 29  1  0  0  0  0
  6  7  1  0  0  0  0
  6 21  2  0  0  0  0
  7  8  1  0  0  0  0
  7 30  1  0  0  0  0
  8  9  2  0  0  0  0
  8 10  1  0  0  0  0
 10 11  1  0  0  0  0
 10 31  1  0  0  0  0
 11 20  1  0  0  0  0
 11 12  1  0  0  0  0
 11 32  1  0  0  0  0
 12 13  1  0  0  0  0
 12 33  1  0  0  0  0
 12 34  1  0  0  0  0
 13 14  1  0  0  0  0
 13 35  1  0  0  0  0
 13 36  1  0  0  0  0
 14 15  1  0  0  0  0
 14 37  1  0  0  0  0
 14 38  1  0  0  0  0
 15 16  1  0  0  0  0
 15 20  1  0  0  0  0
 15 39  1  0  0  0  0
 16 17  1  0  0  0  0
 16 18  1  0  0  0  0
 16 19  1  0  0  0  0
 20 40  1  0  0  0  0
 20 41  1  0  0  0  0
 21 22  1  0  0  0  0
 22 23  2  0  0  0  0
 22 42  1  0  0  0  0
M  END
> <s_m_source_file>
AV-unprocessed.smi

> <i_m_source_file_index>
2454

> <i_lp_mmshare_version>
43012

> <i_f3d_flags>
0

> <s_epik_input>
W0NIM11PW0NIMl1jMVtjSF1jKG5bY0hdbjEpW05IXUMoPU8pW05IXVtDQEBIXTJbQ0gyXVtDSDJdW0NIMl1bQ0BASF0oQyhGKShGKUYpW0NIMl0y

> <s_epik_cmdline>
J2VwaWtfcHl0aG9uJywgJy1waCcsICc3LjAnLCAnLXRuJywgJzgnLCAnLW1hJywgJzIwMCcsICctbWV0YWxfYmluZGluZycsICctaW1hZScsICc8aW5maWxlLm1hZT4nLCAnLW9tYWUnLCAnPG91dGZpbGUubWFlPic=

> <r_lp_tautomer_probability>
1

> <r_epik_Ionization_Penalty>
3.01554e-05

> <r_epik_Ionization_Penalty_Charging>
0

> <r_epik_Ionization_Penalty_Neutral>
3.01554e-05

> <r_epik_State_Penalty>
-0

> <r_epik_Charging_Adjusted_Penalty>
0

> <i_epik_Tot_Q>
0

> <i_epik_Tot_abs_Q>
0

> <r_epik_Metal_State_Penalty>
-0

> <b_epik_Metal_Only>
0

> <s_lp_Force_Field>
OPLS_2005

> <r_lp_Energy>
13.7545

> <b_lp_Chiralities_Consistent>
1

> <s_lp_Variant>
AV-unprocessed.smi:2454-4

> <Gold.Version>
5.8.1

> <Gold.Id.Protein>
6NUR|6NUR_protein|mol2

> <Gold.PLP.Fitness>
43.1814

> <Gold.PLP.PLP>
-34.2701

> <Gold.PLP.part.hbond>
-4.0000

> <Gold.PLP.part.metal>
0.0000

> <Gold.PLP.part.buried>
5.1992

> <Gold.PLP.part.nonpolar>
-33.8435

> <Gold.PLP.part.repulsive>
0.3260

> <Gold.PLP.ligand.clash>
0.0000

> <Gold.PLP.ligand.torsion>
0.9352

> <Gold.PLP.Chemscore.Hbond>
2.7855

> <Gold.PLP.Chemscore.CHOScore>
0.7929

> <Gold.PLP.Chemscore.Metal>
0.0000

> <Gold.Chemscore.Hbonds>
donor molecule, donor type, donor heavy atom, donor atom, acceptor molecule, acceptor atom, score
      L1  H     7    30       P1  7948  1.00
      L1  H    10    31       P1  7948  0.78
      P1  H  7997  8009       L1     2  0.80
      L1  C    22    42       P1  8028  0.48

> <Gold.PLP.Chemscore.Internal.Correction>
0.0467

> <Gold.Rescore>
     Score         DG    S(hbond)    S(metal)    S(lipo)     H(rot)  DE(clash)    DE(int)     intcor
     12.81     -14.62       1.88        0.00      59.71       1.60       0.80       1.01       ----

> <Gold.Chemscore.Fitness>
12.8130

> <Gold.Chemscore.DG>
-14.6246

> <Gold.Chemscore.ZeroCoef>
-5.4800

> <Gold.Chemscore.Hbond>
1.8755

> <Gold.Chemscore.Metal>
0.0000

> <Gold.Chemscore.Lipo>
59.7053

> <Gold.Chemscore.Internal_Hbond>
0.0000

> <Gold.Chemscore.DEClash>
0.8049

> <Gold.Chemscore.DEInternal>
1.0067

> <Gold.Chemscore.Rot>
1.6035

> <Gold.Chemscore.Internal.Correction>
   9.000000E+99

> <Gold.Chemscore.Hbonds>
donor molecule, donor type, donor heavy atom, donor atom, acceptor molecule, acceptor atom, score
      L1  H     7    30       P1  7948  0.93
      L1  H    10    31       P1  7948  0.72
      P1  H  7997  8009       L1     2  0.03

> <Gold.Chemscore.Hbond.Weighted>
-6.2642

> <Gold.Chemscore.Metal.Weighted>
-0.0000

> <Gold.Chemscore.Lipo.Weighted>
-6.9855

> <Gold.Chemscore.Internal_Hbond.Weighted>
0.0000

> <Gold.Chemscore.DEClash.Weighted>
0.8049

> <Gold.Chemscore.DEInternal.Weighted>
1.0067

> <Gold.Chemscore.Rot.Weighted>
4.1050

> <Gold.Chemscore.Internal.Correction.Weighted>
   9.000000E+99

> <Gold.Protein.RotatedTorsions>
[ 6907 6896 6895 6894 ] final  -51.59 input  -60.11 | X-H torsion
[ 7974 7965 7964 7962 ] final    5.04 input  175.53 | X-H torsion
[ 8008 7997 7996 7995 ] final -172.96 input   59.86 | X-H torsion
[ 10167 10162 10161 10158 ] final -119.84 input  -65.29 | X-H torsion
[ 10718 10713 10712 10709 ] final -162.69 input   66.30 | X-H torsion
[ 10763 10752 10751 10750 ] final   58.12 input  -60.55 | X-H torsion
[ 11005 11000 10999 10996 ] final -114.66 input  -57.11 | X-H torsion

> <Gold.Protein.ActiveResidues>
 VAL166  LYS551  ARG553  GLY616  TRP617  ASP618  TYR619  PRO620  LYS621  CYS622 
 ASP623  PHE694  ASN695  SER759  ASP760  ASP761  ALA762  ILE779  LEU786  VAL792 
 PHE793  MET794  SER795  GLU796  ALA797  LYS798  CYS799  TRP800  GLU811  SER814 

> <Gold.Protein.RotatedAtoms>
  150.8597  134.7946  159.7073 H   0  0  0  0  0  0  0  0  0  0  0  0  # atno 6907 bound_to 6896
  152.4638  134.5120  159.9766 H   0  0  0  0  0  0  0  0  0  0  0  0  # atno 6908 bound_to 6896
  151.5226  133.3425  159.2939 H   0  0  0  0  0  0  0  0  0  0  0  0  # atno 6909 bound_to 6896
  146.2442  140.0443  142.8380 H   0  0  0  0  0  0  0  0  0  0  0  0  # atno 7974 bound_to 7965
  155.9513  140.1127  157.0975 H   0  0  0  0  0  0  0  0  0  0  0  0  # atno 8008 bound_to 7997
  154.4110  140.1200  156.5122 H   0  0  0  0  0  0  0  0  0  0  0  0  # atno 8009 bound_to 7997
  155.6839  140.3473  155.4868 H   0  0  0  0  0  0  0  0  0  0  0  0  # atno 8010 bound_to 7997
  140.0423  143.5141  152.2124 H   0  0  0  0  0  0  0  0  0  0  0  0  # atno 10167 bound_to 10162
  156.6140  130.8862  151.2943 H   0  0  0  0  0  0  0  0  0  0  0  0  # atno 10718 bound_to 10713
  152.9864  135.5618  154.5501 H   0  0  0  0  0  0  0  0  0  0  0  0  # atno 10763 bound_to 10752
  154.4939  135.2794  155.1476 H   0  0  0  0  0  0  0  0  0  0  0  0  # atno 10764 bound_to 10752
  154.2934  135.6321  153.5448 H   0  0  0  0  0  0  0  0  0  0  0  0  # atno 10765 bound_to 10752
  141.0538  133.9646  157.2791 H   0  0  0  0  0  0  0  0  0  0  0  0  # atno 11005 bound_to 11000
  145.1041  140.9364  143.4695 LP  0  0  0  0  0  0  0  0  0  0  0  0  # atno 17320 bound_to 7965
  145.0643  139.3081  143.5864 LP  0  0  0  0  0  0  0  0  0  0  0  0  # atno 17321 bound_to 7965
  139.6006  144.7581  151.3182 LP  0  0  0  0  0  0  0  0  0  0  0  0  # atno 17342 bound_to 10162
  140.7254  143.7017  150.7839 LP  0  0  0  0  0  0  0  0  0  0  0  0  # atno 17343 bound_to 10162
  157.7246  130.9605  150.1581 LP  0  0  0  0  0  0  0  0  0  0  0  0  # atno 17370 bound_to 10713
  156.2366  130.3687  149.8384 LP  0  0  0  0  0  0  0  0  0  0  0  0  # atno 17371 bound_to 10713
  139.9372  135.0195  156.8594 LP  0  0  0  0  0  0  0  0  0  0  0  0  # atno 17394 bound_to 11000
  140.6004  134.0177  155.7535 LP  0  0  0  0  0  0  0  0  0  0  0  0  # atno 17395 bound_to 11000

$$$$
