AV-unprocessed.smi:2357|AV-procd|sdf|9401|dock6
  -GOLD-   2272013 33D 1   1.00000     0.00000
 Structure written by MMmdl.
 37 38  0  0  0  0  0  0  0  0  1 V2000
  151.2640  144.2652  159.6360 C   0  0  0  0  0  0  0  0  0  0  0  0
  152.0926  143.0123  159.8512 C   0  0  0  0  0  0  0  0  0  0  0  0
  152.8430  142.8401  161.0780 C   0  0  0  0  0  0  0  0  0  0  0  0
  153.5635  141.7226  161.2560 C   0  0  0  0  0  0  0  0  0  0  0  0
  153.6165  140.7094  160.2827 N   0  0  0  0  0  0  0  0  0  0  0  0
  154.4219  139.5169  160.5924 C   0  0  0  0  0  0  0  0  0  0  0  0
  155.7779  139.5418  159.8768 C   0  0  0  0  0  0  0  0  0  0  0  0
  155.8306  139.4961  158.6476 O   0  0  0  0  0  0  0  0  0  0  0  0
  156.8628  139.6129  160.6618 N   0  0  0  0  0  0  0  0  0  0  0  0
  158.2366  139.7534  160.1898 C   0  0  0  0  0  0  0  0  0  0  0  0
  158.5121  141.1311  159.5504 C   0  0  2  0  0  0  0  0  0  0  0  0
  158.0600  141.3000  158.0946 C   0  0  0  0  0  0  0  0  0  0  0  0
  159.0061  142.3714  157.6024 C   0  0  0  0  0  0  0  0  0  0  0  0
  160.3008  141.9839  158.3082 C   0  0  0  0  0  0  0  0  0  0  0  0
  159.9035  141.4462  159.5656 O   0  0  0  0  0  0  0  0  0  0  0  0
  152.9398  140.8071  159.0983 C   0  0  0  0  0  0  0  0  0  0  0  0
  152.9950  139.9183  158.2457 O   0  0  0  0  0  0  0  0  0  0  0  0
  152.1474  142.0334  158.9165 C   0  0  0  0  0  0  0  0  0  0  0  0
  151.4304  142.1276  157.6856 C   0  0  0  0  0  0  0  0  0  0  0  0
  150.8314  142.2035  156.6979 N   0  0  0  0  0  0  0  0  0  0  0  0
  151.3230  144.9302  160.4980 H   0  0  0  0  0  0  0  0  0  0  0  0
  150.2162  144.0074  159.4796 H   0  0  0  0  0  0  0  0  0  0  0  0
  151.6196  144.8116  158.7621 H   0  0  0  0  0  0  0  0  0  0  0  0
  152.8213  143.5979  161.8476 H   0  0  0  0  0  0  0  0  0  0  0  0
  154.1354  141.5320  162.1525 H   0  0  0  0  0  0  0  0  0  0  0  0
  154.5632  139.4301  161.6715 H   0  0  0  0  0  0  0  0  0  0  0  0
  153.8991  138.6062  160.2975 H   0  0  0  0  0  0  0  0  0  0  0  0
  156.7228  139.6324  161.6617 H   0  0  0  0  0  0  0  0  0  0  0  0
  158.8927  139.6192  161.0501 H   0  0  0  0  0  0  0  0  0  0  0  0
  158.4837  138.9532  159.4902 H   0  0  0  0  0  0  0  0  0  0  0  0
  158.0226  141.8983  160.1520 H   0  0  0  0  0  0  0  0  0  0  0  0
  158.2150  140.3913  157.5124 H   0  0  0  0  0  0  0  0  0  0  0  0
  157.0108  141.5834  158.0068 H   0  0  0  0  0  0  0  0  0  0  0  0
  159.1027  142.3941  156.5164 H   0  0  0  0  0  0  0  0  0  0  0  0
  158.6714  143.3535  157.9395 H   0  0  0  0  0  0  0  0  0  0  0  0
  160.8221  141.2070  157.7480 H   0  0  0  0  0  0  0  0  0  0  0  0
  160.9808  142.8271  158.4302 H   0  0  0  0  0  0  0  0  0  0  0  0
  1  2  1  0  0  0  0
  1 21  1  0  0  0  0
  1 22  1  0  0  0  0
  1 23  1  0  0  0  0
  2 18  2  0  0  0  0
  2  3  1  0  0  0  0
  3  4  2  0  0  0  0
  3 24  1  0  0  0  0
  4  5  1  0  0  0  0
  4 25  1  0  0  0  0
  5  6  1  0  0  0  0
  5 16  1  0  0  0  0
  6  7  1  0  0  0  0
  6 26  1  0  0  0  0
  6 27  1  0  0  0  0
  7  8  2  0  0  0  0
  7  9  1  0  0  0  0
  9 10  1  0  0  0  0
  9 28  1  0  0  0  0
 10 11  1  0  0  0  0
 10 29  1  0  0  0  0
 10 30  1  0  0  0  0
 11 15  1  0  0  0  0
 11 12  1  0  0  0  0
 11 31  1  0  0  0  0
 12 13  1  0  0  0  0
 12 32  1  0  0  0  0
 12 33  1  0  0  0  0
 13 14  1  0  0  0  0
 13 34  1  0  0  0  0
 13 35  1  0  0  0  0
 14 15  1  0  0  0  0
 14 36  1  0  0  0  0
 14 37  1  0  0  0  0
 16 17  2  0  0  0  0
 16 18  1  0  0  0  0
 18 19  1  0  0  0  0
 19 20  3  0  0  0  0
M  END
> <s_m_source_file>
AV-unprocessed.smi

> <i_m_source_file_index>
2357

> <i_lp_mmshare_version>
43012

> <i_f3d_flags>
0

> <s_epik_input>
W0NIM11jMVtjSF1bY0hdbihjKD1PKWMxQyNOKVtDSDJdQyg9TylbTkhdW0NIMl1bQ0BASF0yW0NIMl1bQ0gyXVtDSDJdTzI=

> <s_epik_cmdline>
J2VwaWtfcHl0aG9uJywgJy1waCcsICc3LjAnLCAnLXRuJywgJzgnLCAnLW1hJywgJzIwMCcsICctbWV0YWxfYmluZGluZycsICctaW1hZScsICc8aW5maWxlLm1hZT4nLCAnLW9tYWUnLCAnPG91dGZpbGUubWFlPic=

> <r_lp_tautomer_probability>
1

> <r_epik_Ionization_Penalty>
2.71597e-08

> <r_epik_Ionization_Penalty_Charging>
3.00645e-10

> <r_epik_Ionization_Penalty_Neutral>
2.6859e-08

> <r_epik_State_Penalty>
-0

> <r_epik_Charging_Adjusted_Penalty>
3.00645e-10

> <i_epik_Tot_Q>
0

> <i_epik_Tot_abs_Q>
0

> <r_epik_Metal_State_Penalty>
-0

> <b_epik_Metal_Only>
0

> <s_lp_Force_Field>
OPLS_2005

> <r_lp_Energy>
27.3681

> <b_lp_Chiralities_Consistent>
1

> <s_lp_Variant>
AV-unprocessed.smi:2357-1

> <Gold.Version>
5.8.1

> <Gold.Id.Protein>
6NUR|6NUR_protein|mol2

> <Gold.PLP.Fitness>
45.3157

> <Gold.PLP.PLP>
-42.7533

> <Gold.PLP.part.hbond>
-2.0000

> <Gold.PLP.part.metal>
0.0000

> <Gold.PLP.part.buried>
-2.4207

> <Gold.PLP.part.nonpolar>
-37.4818

> <Gold.PLP.part.repulsive>
0.2669

> <Gold.PLP.ligand.clash>
0.0000

> <Gold.PLP.ligand.torsion>
0.5208

> <Gold.PLP.Chemscore.Hbond>
1.2000

> <Gold.PLP.Chemscore.CHOScore>
0.0000

> <Gold.PLP.Chemscore.Metal>
0.0000

> <Gold.Chemscore.Hbonds>
donor molecule, donor type, donor heavy atom, donor atom, acceptor molecule, acceptor atom, score
      P1  H  7997  8008       L1     8  0.24
      P1  H  7997  8009       L1    17  1.00

> <Gold.PLP.Chemscore.Internal.Correction>
0.0041

> <Gold.Rescore>
     Score         DG    S(hbond)    S(metal)    S(lipo)     H(rot)  DE(clash)    DE(int)     intcor
     15.22     -18.69       1.35        0.00     112.80       1.76       1.60       1.87       ----

> <Gold.Chemscore.Fitness>
15.2222

> <Gold.Chemscore.DG>
-18.6852

> <Gold.Chemscore.ZeroCoef>
-5.4800

> <Gold.Chemscore.Hbond>
1.3497

> <Gold.Chemscore.Metal>
0.0000

> <Gold.Chemscore.Lipo>
112.7952

> <Gold.Chemscore.Internal_Hbond>
0.0000

> <Gold.Chemscore.DEClash>
1.5951

> <Gold.Chemscore.DEInternal>
1.8678

> <Gold.Chemscore.Rot>
1.7577

> <Gold.Chemscore.Internal.Correction>
   9.000000E+99

> <Gold.Chemscore.Hbonds>
donor molecule, donor type, donor heavy atom, donor atom, acceptor molecule, acceptor atom, score
      P1  H  7997  8008       L1     8  0.24
      P1  H  7997  8009       L1    17  0.85

> <Gold.Chemscore.Hbond.Weighted>
-4.5080

> <Gold.Chemscore.Metal.Weighted>
-0.0000

> <Gold.Chemscore.Lipo.Weighted>
-13.1970

> <Gold.Chemscore.Internal_Hbond.Weighted>
0.0000

> <Gold.Chemscore.DEClash.Weighted>
1.5951

> <Gold.Chemscore.DEInternal.Weighted>
1.8678

> <Gold.Chemscore.Rot.Weighted>
4.4998

> <Gold.Chemscore.Internal.Correction.Weighted>
   9.000000E+99

> <Gold.Protein.RotatedTorsions>
[ 6907 6896 6895 6894 ] final   57.67 input  -60.11 | X-H torsion
[ 7974 7965 7964 7962 ] final  161.38 input  175.53 | X-H torsion
[ 8008 7997 7996 7995 ] final  167.08 input   59.86 | X-H torsion
[ 10167 10162 10161 10158 ] final  134.86 input  -65.29 | X-H torsion
[ 10718 10713 10712 10709 ] final   11.43 input   66.30 | X-H torsion
[ 10763 10752 10751 10750 ] final -114.82 input  -60.55 | X-H torsion
[ 11005 11000 10999 10996 ] final  146.80 input  -57.11 | X-H torsion

> <Gold.Protein.ActiveResidues>
 VAL166  LYS551  ARG553  GLY616  TRP617  ASP618  TYR619  PRO620  LYS621  CYS622 
 ASP623  PHE694  ASN695  SER759  ASP760  ASP761  ALA762  ILE779  LEU786  VAL792 
 PHE793  MET794  SER795  GLU796  ALA797  LYS798  CYS799  TRP800  GLU811  SER814 

> <Gold.Protein.RotatedAtoms>
  152.3753  134.6672  160.0161 H   0  0  0  0  0  0  0  0  0  0  0  0  # atno 6907 bound_to 6896
  151.6952  133.3305  159.3261 H   0  0  0  0  0  0  0  0  0  0  0  0  # atno 6908 bound_to 6896
  150.7705  134.6599  159.6378 H   0  0  0  0  0  0  0  0  0  0  0  0  # atno 6909 bound_to 6896
  144.7688  139.7890  143.6305 H   0  0  0  0  0  0  0  0  0  0  0  0  # atno 7974 bound_to 7965
  156.1664  140.1626  156.8524 H   0  0  0  0  0  0  0  0  0  0  0  0  # atno 8008 bound_to 7997
  154.5212  140.0778  156.8209 H   0  0  0  0  0  0  0  0  0  0  0  0  # atno 8009 bound_to 7997
  155.3603  140.3395  155.4243 H   0  0  0  0  0  0  0  0  0  0  0  0  # atno 8010 bound_to 7997
  139.5239  144.6546  151.5200 H   0  0  0  0  0  0  0  0  0  0  0  0  # atno 10167 bound_to 10162
  156.9955  130.6059  149.5690 H   0  0  0  0  0  0  0  0  0  0  0  0  # atno 10718 bound_to 10713
  154.8456  135.4404  154.1565 H   0  0  0  0  0  0  0  0  0  0  0  0  # atno 10763 bound_to 10752
  153.2713  135.6945  153.7484 H   0  0  0  0  0  0  0  0  0  0  0  0  # atno 10764 bound_to 10752
  153.6724  135.3416  155.3132 H   0  0  0  0  0  0  0  0  0  0  0  0  # atno 10765 bound_to 10752
  140.0823  134.9090  157.1520 H   0  0  0  0  0  0  0  0  0  0  0  0  # atno 11005 bound_to 11000
  146.1819  139.5015  142.9861 LP  0  0  0  0  0  0  0  0  0  0  0  0  # atno 17320 bound_to 7965
  145.6386  141.0289  143.1824 LP  0  0  0  0  0  0  0  0  0  0  0  0  # atno 17321 bound_to 7965
  140.6366  143.8972  150.6653 LP  0  0  0  0  0  0  0  0  0  0  0  0  # atno 17342 bound_to 10162
  140.2293  143.3748  152.1579 LP  0  0  0  0  0  0  0  0  0  0  0  0  # atno 17343 bound_to 10162
  156.0191  130.5285  150.8222 LP  0  0  0  0  0  0  0  0  0  0  0  0  # atno 17370 bound_to 10713
  157.5428  131.0941  150.9804 LP  0  0  0  0  0  0  0  0  0  0  0  0  # atno 17371 bound_to 10713
  140.3470  134.2641  155.7204 LP  0  0  0  0  0  0  0  0  0  0  0  0  # atno 17394 bound_to 11000
  141.2051  133.7869  157.0252 LP  0  0  0  0  0  0  0  0  0  0  0  0  # atno 17395 bound_to 11000

$$$$
