AV-unprocessed.smi:169|AV-procd|sdf|1404|dock3
  -GOLD-   2262019153D 1   1.00000     0.00000
 Structure written by MMmdl.
 56 60  0  0  0  0  0  0  0  0  2 V2000
  151.1835  143.0187  158.8759 C   0  0  0  0  0  0  0  0  0  0  0  0
  151.8092  142.3401  157.6440 C   0  0  0  0  0  0  0  0  0  0  0  0
  150.9718  141.2632  157.0532 N   0  3  2  0  0  0  0  0  0  0  0  0
  151.6630  140.4774  156.0000 C   0  0  0  0  0  0  0  0  0  0  0  0
  151.3190  138.9791  156.0997 C   0  0  0  0  0  0  0  0  0  0  0  0
  149.8398  138.6068  155.8642 C   0  0  2  0  0  0  0  0  0  0  0  0
  149.3233  139.0090  154.4785 C   0  0  0  0  0  0  0  0  0  0  0  0
  148.6492  140.3692  154.6927 C   0  0  0  0  0  0  0  0  0  0  0  0
  148.6420  140.5963  156.2185 C   0  0  2  0  0  0  0  0  0  0  0  0
  149.6035  141.7190  156.6824 C   0  0  0  0  0  0  0  0  0  0  0  0
  148.9603  139.2964  156.8052 N   0  0  0  0  0  0  0  0  0  0  0  0
  147.9178  138.6507  157.3886 C   0  0  0  0  0  0  0  0  0  0  0  0
  146.6381  139.0432  157.1534 N   0  0  0  0  0  0  0  0  0  0  0  0
  145.6190  138.4077  157.7400 C   0  0  0  0  0  0  0  0  0  0  0  0
  145.6550  137.3736  158.5827 N   0  0  0  0  0  0  0  0  0  0  0  0
  146.9369  136.9752  158.8230 C   0  0  0  0  0  0  0  0  0  0  0  0
  148.1142  137.5501  158.2683 C   0  0  0  0  0  0  0  0  0  0  0  0
  149.2361  136.8695  158.7249 N   0  0  0  0  0  0  0  0  0  0  0  0
  148.7493  135.9484  159.5112 C   0  0  0  0  0  0  0  0  0  0  0  0
  147.3779  135.9497  159.6421 N   0  0  0  0  0  0  0  0  0  0  0  0
  146.5719  135.0419  160.4467 C   0  0  0  0  0  0  0  0  0  0  0  0
  146.5371  135.3697  161.9594 C   0  0  0  0  0  0  0  0  0  0  0  0
  145.6936  134.2958  162.6602 C   0  0  0  0  0  0  0  0  0  0  0  0
  144.3611  134.2996  162.1889 O   0  0  0  0  0  0  0  0  0  0  0  0
  147.8990  135.6609  162.6127 C   0  0  0  0  0  0  0  0  0  0  0  0
  147.6667  137.0848  162.5838 O   0  0  0  0  0  0  0  0  0  0  0  0
  146.2626  136.8268  162.3719 C   0  0  0  0  0  0  0  0  0  0  0  0
  151.8270  143.8236  159.2319 H   0  0  0  0  0  0  0  0  0  0  0  0
  151.0541  142.3227  159.7041 H   0  0  0  0  0  0  0  0  0  0  0  0
  150.2118  143.4577  158.6490 H   0  0  0  0  0  0  0  0  0  0  0  0
  152.0017  143.0907  156.8761 H   0  0  0  0  0  0  0  0  0  0  0  0
  152.7843  141.9290  157.9081 H   0  0  0  0  0  0  0  0  0  0  0  0
  151.4498  140.8815  155.0100 H   0  0  0  0  0  0  0  0  0  0  0  0
  152.7423  140.5662  156.1307 H   0  0  0  0  0  0  0  0  0  0  0  0
  151.9328  138.4329  155.3828 H   0  0  0  0  0  0  0  0  0  0  0  0
  151.6213  138.6120  157.0815 H   0  0  0  0  0  0  0  0  0  0  0  0
  149.7721  137.5237  155.9702 H   0  0  0  0  0  0  0  0  0  0  0  0
  150.1104  139.0402  153.7244 H   0  0  0  0  0  0  0  0  0  0  0  0
  148.5788  138.2864  154.1414 H   0  0  0  0  0  0  0  0  0  0  0  0
  149.1698  141.1623  154.1556 H   0  0  0  0  0  0  0  0  0  0  0  0
  147.6296  140.3402  154.3066 H   0  0  0  0  0  0  0  0  0  0  0  0
  147.6303  140.9068  156.4853 H   0  0  0  0  0  0  0  0  0  0  0  0
  149.1715  142.1722  157.5756 H   0  0  0  0  0  0  0  0  0  0  0  0
  149.6427  142.5134  155.9374 H   0  0  0  0  0  0  0  0  0  0  0  0
  144.6344  138.7826  157.5018 H   0  0  0  0  0  0  0  0  0  0  0  0
  149.3842  135.2384  160.0204 H   0  0  0  0  0  0  0  0  0  0  0  0
  145.5661  135.0419  160.0255 H   0  0  0  0  0  0  0  0  0  0  0  0
  146.9561  134.0331  160.2899 H   0  0  0  0  0  0  0  0  0  0  0  0
  146.1196  133.3027  162.5134 H   0  0  0  0  0  0  0  0  0  0  0  0
  145.6643  134.4636  163.7373 H   0  0  0  0  0  0  0  0  0  0  0  0
  144.3629  134.5586  161.2800 H   0  0  0  0  0  0  0  0  0  0  0  0
  147.9893  135.2912  163.6356 H   0  0  0  0  0  0  0  0  0  0  0  0
  148.7620  135.3563  162.0228 H   0  0  0  0  0  0  0  0  0  0  0  0
  145.8264  137.4517  161.5944 H   0  0  0  0  0  0  0  0  0  0  0  0
  145.6935  136.9209  163.2986 H   0  0  0  0  0  0  0  0  0  0  0  0
  150.8337  140.6097  157.8111 H   0  0  0  0  0  0  0  0  0  0  0  0
  1  2  1  0  0  0  0
  1 28  1  0  0  0  0
  1 29  1  0  0  0  0
  1 30  1  0  0  0  0
  2  3  1  0  0  0  0
  2 31  1  0  0  0  0
  2 32  1  0  0  0  0
  3 10  1  0  0  0  0
  3  4  1  0  0  0  0
  3 56  1  0  0  0  0
  4  5  1  0  0  0  0
  4 33  1  0  0  0  0
  4 34  1  0  0  0  0
  5  6  1  0  0  0  0
  5 35  1  0  0  0  0
  5 36  1  0  0  0  0
  6 11  1  0  0  0  0
  6  7  1  0  0  0  0
  6 37  1  0  0  0  0
  7  8  1  0  0  0  0
  7 38  1  0  0  0  0
  7 39  1  0  0  0  0
  8  9  1  0  0  0  0
  8 40  1  0  0  0  0
  8 41  1  0  0  0  0
  9 10  1  0  0  0  0
  9 11  1  0  0  0  0
  9 42  1  0  0  0  0
 10 43  1  0  0  0  0
 10 44  1  0  0  0  0
 11 12  1  0  0  0  0
 12 17  1  0  0  0  0
 12 13  2  0  0  0  0
 13 14  1  0  0  0  0
 14 15  2  0  0  0  0
 14 45  1  0  0  0  0
 15 16  1  0  0  0  0
 16 20  1  0  0  0  0
 16 17  2  0  0  0  0
 17 18  1  0  0  0  0
 18 19  2  0  0  0  0
 19 20  1  0  0  0  0
 19 46  1  0  0  0  0
 20 21  1  0  0  0  0
 21 22  1  0  0  0  0
 21 47  1  0  0  0  0
 21 48  1  0  0  0  0
 22 27  1  0  0  0  0
 22 23  1  0  0  0  0
 22 25  1  0  0  0  0
 23 24  1  0  0  0  0
 23 49  1  0  0  0  0
 23 50  1  0  0  0  0
 24 51  1  0  0  0  0
 25 26  1  0  0  0  0
 25 52  1  0  0  0  0
 25 53  1  0  0  0  0
 26 27  1  0  0  0  0
 27 54  1  0  0  0  0
 27 55  1  0  0  0  0
M  CHG  1   3   1
M  END
> <s_m_source_file>
AV-unprocessed.smi

> <i_m_source_file_index>
169

> <i_lp_mmshare_version>
43012

> <i_f3d_flags>
0

> <s_epik_input>
W0NASF0xMltDSDJdW0NIMl1OKFtDSDJdW0NIM10pW0NIMl1bQ0BIXShbQ0gyXVtDSDJdMSlOMmMobltjSF1uMyljKGMzNCluW2NIXW40W0NIMl1DNShbQ0gyXVtPSF0pW0NIMl1PW0NIMl01

> <s_epik_cmdline>
J2VwaWtfcHl0aG9uJywgJy1waCcsICc3LjAnLCAnLXRuJywgJzgnLCAnLW1hJywgJzIwMCcsICctbWV0YWxfYmluZGluZycsICctaW1hZScsICc8aW5maWxlLm1hZT4nLCAnLW9tYWUnLCAnPG91dGZpbGUubWFlPic=

> <r_lp_tautomer_probability>
1

> <r_epik_Ionization_Penalty>
0.00274162

> <r_epik_Ionization_Penalty_Charging>
0.00243722

> <r_epik_Ionization_Penalty_Neutral>
0.000304399

> <r_epik_State_Penalty>
-0

> <r_epik_Charging_Adjusted_Penalty>
0.00243722

> <i_epik_Tot_Q>
1

> <i_epik_Tot_abs_Q>
1

> <r_epik_Metal_State_Penalty>
-0

> <b_epik_Metal_Only>
0

> <s_lp_Force_Field>
OPLS_2005

> <r_lp_Energy>
74.1365

> <b_lp_Chiralities_Consistent>
1

> <s_lp_Variant>
AV-unprocessed.smi:169-7

> <Gold.Version>
5.8.1

> <Gold.Id.Protein>
6NUR|6NUR_protein|mol2

> <Gold.PLP.Fitness>
37.8882

> <Gold.PLP.PLP>
-36.0580

> <Gold.PLP.part.hbond>
-2.0000

> <Gold.PLP.part.metal>
0.0000

> <Gold.PLP.part.buried>
-5.1247

> <Gold.PLP.part.nonpolar>
-28.2554

> <Gold.PLP.part.repulsive>
0.0515

> <Gold.PLP.ligand.clash>
0.0000

> <Gold.PLP.ligand.torsion>
0.6426

> <Gold.PLP.Chemscore.Hbond>
0.8366

> <Gold.PLP.Chemscore.CHOScore>
0.0000

> <Gold.PLP.Chemscore.Metal>
0.0000

> <Gold.Chemscore.Hbonds>
donor molecule, donor type, donor heavy atom, donor atom, acceptor molecule, acceptor atom, score
      P1  H  6931  6943       L1    26  0.86

> <Gold.PLP.Chemscore.Internal.Correction>
0.6057

> <Gold.Rescore>
     Score         DG    S(hbond)    S(metal)    S(lipo)     H(rot)  DE(clash)    DE(int)     intcor
     12.30     -13.16       0.93        0.00      96.38       2.62       0.17       0.69       ----

> <Gold.Chemscore.Fitness>
12.2985

> <Gold.Chemscore.DG>
-13.1619

> <Gold.Chemscore.ZeroCoef>
-5.4800

> <Gold.Chemscore.Hbond>
0.9330

> <Gold.Chemscore.Metal>
0.0000

> <Gold.Chemscore.Lipo>
96.3752

> <Gold.Chemscore.Internal_Hbond>
0.0000

> <Gold.Chemscore.DEClash>
0.1723

> <Gold.Chemscore.DEInternal>
0.6911

> <Gold.Chemscore.Rot>
2.6212

> <Gold.Chemscore.Internal.Correction>
   9.000000E+99

> <Gold.Chemscore.Hbonds>
donor molecule, donor type, donor heavy atom, donor atom, acceptor molecule, acceptor atom, score
      P1  H  6931  6943       L1    26  0.84

> <Gold.Chemscore.Hbond.Weighted>
-3.1162

> <Gold.Chemscore.Metal.Weighted>
-0.0000

> <Gold.Chemscore.Lipo.Weighted>
-11.2759

> <Gold.Chemscore.Internal_Hbond.Weighted>
0.0000

> <Gold.Chemscore.DEClash.Weighted>
0.1723

> <Gold.Chemscore.DEInternal.Weighted>
0.6911

> <Gold.Chemscore.Rot.Weighted>
6.7102

> <Gold.Chemscore.Internal.Correction.Weighted>
   9.000000E+99

> <Gold.Protein.RotatedTorsions>
[ 6907 6896 6895 6894 ] final   87.93 input  -60.11 | X-H torsion
[ 7974 7965 7964 7962 ] final  -83.49 input  175.53 | X-H torsion
[ 8008 7997 7996 7995 ] final   56.79 input   59.86 | X-H torsion
[ 10167 10162 10161 10158 ] final  -50.06 input  -65.29 | X-H torsion
[ 10718 10713 10712 10709 ] final  -61.13 input   66.30 | X-H torsion
[ 10763 10752 10751 10750 ] final -154.99 input  -60.55 | X-H torsion
[ 11005 11000 10999 10996 ] final  158.42 input  -57.11 | X-H torsion

> <Gold.Protein.ActiveResidues>
 VAL166  LYS551  ARG553  GLY616  TRP617  ASP618  TYR619  PRO620  LYS621  CYS622 
 ASP623  PHE694  ASN695  SER759  ASP760  ASP761  ALA762  ILE779  LEU786  VAL792 
 PHE793  MET794  SER795  GLU796  ALA797  LYS798  CYS799  TRP800  GLU811  SER814 

> <Gold.Protein.RotatedAtoms>
  152.5418  134.2200  159.8783 H   0  0  0  0  0  0  0  0  0  0  0  0  # atno 6907 bound_to 6896
  151.2178  133.4513  159.2607 H   0  0  0  0  0  0  0  0  0  0  0  0  # atno 6908 bound_to 6896
  151.0835  134.9885  159.8423 H   0  0  0  0  0  0  0  0  0  0  0  0  # atno 6909 bound_to 6896
  145.5192  140.9533  143.1664 H   0  0  0  0  0  0  0  0  0  0  0  0  # atno 7974 bound_to 7965
  155.5232  140.3480  155.4411 H   0  0  0  0  0  0  0  0  0  0  0  0  # atno 8008 bound_to 7997
  156.0770  140.1377  156.9786 H   0  0  0  0  0  0  0  0  0  0  0  0  # atno 8009 bound_to 7997
  154.4559  140.0954  156.6730 H   0  0  0  0  0  0  0  0  0  0  0  0  # atno 8010 bound_to 7997
  140.6656  143.2673  151.4304 H   0  0  0  0  0  0  0  0  0  0  0  0  # atno 10167 bound_to 10162
  156.0943  130.4195  150.0951 H   0  0  0  0  0  0  0  0  0  0  0  0  # atno 10718 bound_to 10713
  154.7819  135.3177  154.7970 H   0  0  0  0  0  0  0  0  0  0  0  0  # atno 10763 bound_to 10752
  153.8679  135.6847  153.4781 H   0  0  0  0  0  0  0  0  0  0  0  0  # atno 10764 bound_to 10752
  153.1459  135.4720  154.9502 H   0  0  0  0  0  0  0  0  0  0  0  0  # atno 10765 bound_to 10752
  140.1863  134.8439  157.2861 H   0  0  0  0  0  0  0  0  0  0  0  0  # atno 11005 bound_to 11000
  144.7685  139.6789  143.7205 LP  0  0  0  0  0  0  0  0  0  0  0  0  # atno 17320 bound_to 7965
  146.2117  139.5477  142.9677 LP  0  0  0  0  0  0  0  0  0  0  0  0  # atno 17321 bound_to 7965
  139.5903  144.1513  152.2080 LP  0  0  0  0  0  0  0  0  0  0  0  0  # atno 17342 bound_to 10162
  140.0865  144.5656  150.7085 LP  0  0  0  0  0  0  0  0  0  0  0  0  # atno 17343 bound_to 10162
  156.8953  130.9602  151.3583 LP  0  0  0  0  0  0  0  0  0  0  0  0  # atno 17370 bound_to 10713
  157.6100  130.8576  149.8936 LP  0  0  0  0  0  0  0  0  0  0  0  0  # atno 17371 bound_to 10713
  140.2210  134.4023  155.7566 LP  0  0  0  0  0  0  0  0  0  0  0  0  # atno 17394 bound_to 11000
  141.2225  133.7166  156.8490 LP  0  0  0  0  0  0  0  0  0  0  0  0  # atno 17395 bound_to 11000

$$$$
