AV-unprocessed.smi:550|AV-procd|sdf|2896|dock4
  -GOLD-   2262023393D 1   1.00000     0.00000
 Structure written by MMmdl.
 46 48  0  0  0  0  0  0  0  0  2 V2000
  146.8722  140.1263  154.1066 O   0  0  0  0  0  0  0  0  0  0  0  0
  147.7615  139.3714  153.7147 C   0  0  0  0  0  0  0  0  0  0  0  0
  147.5546  138.3848  152.8309 N   0  0  0  0  0  0  0  0  0  0  0  0
  146.2751  138.0843  152.1952 C   0  0  0  0  0  0  0  0  0  0  0  0
  145.7503  136.6724  152.5447 C   0  0  2  0  0  0  0  0  0  0  0  0
  144.3493  136.3931  151.9543 C   0  0  0  0  0  0  0  0  0  0  0  0
  143.2854  137.0773  152.8241 C   0  0  0  0  0  0  0  0  0  0  0  0
  143.9674  137.1026  154.5253 S   0  0  0  0  0  0  0  0  0  0  0  0
  144.0734  138.4992  154.9740 O   0  0  0  0  0  0  0  0  0  0  0  0
  143.2868  136.0920  155.3490 O   0  0  0  0  0  0  0  0  0  0  0  0
  145.6303  136.4832  154.0654 C   0  0  0  0  0  0  0  0  0  0  0  0
  149.0446  139.4066  154.1152 N   0  0  0  0  0  0  0  0  0  0  0  0
  149.6748  140.3220  155.0025 C   0  0  0  0  0  0  0  0  0  0  0  0
  150.6476  139.8118  155.8894 C   0  0  0  0  0  0  0  0  0  0  0  0
  151.3137  140.6818  156.7768 C   0  0  0  0  0  0  0  0  0  0  0  0
  151.0039  142.0617  156.7581 C   0  0  0  0  0  0  0  0  0  0  0  0
  151.6066  143.0105  157.5959 N   0  0  0  0  0  0  0  0  0  0  0  0
  150.6714  143.8749  158.2945 C   0  0  0  0  0  0  0  0  0  0  0  0
  151.4835  144.5339  159.4117 C   0  0  0  0  0  0  0  0  0  0  0  0
  152.6681  143.5888  159.6464 C   0  0  0  0  0  0  0  0  0  0  0  0
  152.4942  142.4713  158.6135 C   0  0  0  0  0  0  0  0  0  0  0  0
  150.0727  142.5129  155.8905 N   0  3  0  0  0  0  0  0  0  0  0  0
  149.4102  141.7138  155.0261 C   0  0  0  0  0  0  0  0  0  0  0  0
  148.3391  137.8068  152.5664 H   0  0  0  0  0  0  0  0  0  0  0  0
  145.5422  138.8396  152.4841 H   0  0  0  0  0  0  0  0  0  0  0  0
  146.4040  138.1875  151.1176 H   0  0  0  0  0  0  0  0  0  0  0  0
  146.4596  135.9410  152.1549 H   0  0  0  0  0  0  0  0  0  0  0  0
  144.2635  136.6875  150.9083 H   0  0  0  0  0  0  0  0  0  0  0  0
  144.1751  135.3168  151.9831 H   0  0  0  0  0  0  0  0  0  0  0  0
  143.1251  138.1084  152.5088 H   0  0  0  0  0  0  0  0  0  0  0  0
  142.3277  136.5567  152.8103 H   0  0  0  0  0  0  0  0  0  0  0  0
  145.6716  135.4241  154.3214 H   0  0  0  0  0  0  0  0  0  0  0  0
  146.4000  137.0029  154.6366 H   0  0  0  0  0  0  0  0  0  0  0  0
  149.6384  138.6722  153.7585 H   0  0  0  0  0  0  0  0  0  0  0  0
  150.8829  138.7572  155.8955 H   0  0  0  0  0  0  0  0  0  0  0  0
  152.0515  140.2880  157.4604 H   0  0  0  0  0  0  0  0  0  0  0  0
  150.2418  144.6163  157.6203 H   0  0  0  0  0  0  0  0  0  0  0  0
  149.8542  143.2891  158.7176 H   0  0  0  0  0  0  0  0  0  0  0  0
  151.8477  145.5094  159.0871 H   0  0  0  0  0  0  0  0  0  0  0  0
  150.8855  144.6852  160.3111 H   0  0  0  0  0  0  0  0  0  0  0  0
  153.6071  144.1191  159.4828 H   0  0  0  0  0  0  0  0  0  0  0  0
  152.6839  143.1917  160.6618 H   0  0  0  0  0  0  0  0  0  0  0  0
  152.0562  141.5919  159.0866 H   0  0  0  0  0  0  0  0  0  0  0  0
  153.4502  142.1767  158.1793 H   0  0  0  0  0  0  0  0  0  0  0  0
  148.7096  142.2277  154.3857 H   0  0  0  0  0  0  0  0  0  0  0  0
  149.8616  143.5113  155.8840 H   0  0  0  0  0  0  0  0  0  0  0  0
  1  2  2  0  0  0  0
  2  3  1  0  0  0  0
  2 12  1  0  0  0  0
  3  4  1  0  0  0  0
  3 24  1  0  0  0  0
  4  5  1  0  0  0  0
  4 25  1  0  0  0  0
  4 26  1  0  0  0  0
  5 11  1  0  0  0  0
  5  6  1  0  0  0  0
  5 27  1  0  0  0  0
  6  7  1  0  0  0  0
  6 28  1  0  0  0  0
  6 29  1  0  0  0  0
  7  8  1  0  0  0  0
  7 30  1  0  0  0  0
  7 31  1  0  0  0  0
  8  9  2  0  0  0  0
  8 10  2  0  0  0  0
  8 11  1  0  0  0  0
 11 32  1  0  0  0  0
 11 33  1  0  0  0  0
 12 13  1  0  0  0  0
 12 34  1  0  0  0  0
 13 23  1  0  0  0  0
 13 14  2  0  0  0  0
 14 15  1  0  0  0  0
 14 35  1  0  0  0  0
 15 16  2  0  0  0  0
 15 36  1  0  0  0  0
 16 17  1  0  0  0  0
 16 22  1  0  0  0  0
 17 21  1  0  0  0  0
 17 18  1  0  0  0  0
 18 19  1  0  0  0  0
 18 37  1  0  0  0  0
 18 38  1  0  0  0  0
 19 20  1  0  0  0  0
 19 39  1  0  0  0  0
 19 40  1  0  0  0  0
 20 21  1  0  0  0  0
 20 41  1  0  0  0  0
 20 42  1  0  0  0  0
 21 43  1  0  0  0  0
 21 44  1  0  0  0  0
 22 23  2  0  0  0  0
 22 46  1  0  0  0  0
 23 45  1  0  0  0  0
M  CHG  1  22   1
M  END
> <s_m_source_file>
AV-unprocessed.smi

> <i_m_source_file_index>
550

> <i_lp_mmshare_version>
43012

> <i_f3d_flags>
0

> <s_epik_input>
Tz1TMSg9TylbQ0gyXVtDSDJdW0NASF0oW0NIMl0xKVtDSDJdW05IXUMoPU8pW05IXWMyW2NIXVtjSF1jKG5bY0hdMilOM1tDSDJdW0NIMl1bQ0gyXVtDSDJdMw==

> <s_epik_cmdline>
J2VwaWtfcHl0aG9uJywgJy1waCcsICc3LjAnLCAnLXRuJywgJzgnLCAnLW1hJywgJzIwMCcsICctbWV0YWxfYmluZGluZycsICctaW1hZScsICc8aW5maWxlLm1hZT4nLCAnLW9tYWUnLCAnPG91dGZpbGUubWFlPic=

> <r_lp_tautomer_probability>
0.999994

> <r_epik_Ionization_Penalty>
1.12573

> <r_epik_Ionization_Penalty_Charging>
1.12571

> <r_epik_Ionization_Penalty_Neutral>
1.93198e-05

> <r_epik_State_Penalty>
1.18495

> <r_epik_Charging_Adjusted_Penalty>
2.31065

> <i_epik_Tot_Q>
1

> <i_epik_Tot_abs_Q>
1

> <r_epik_Metal_State_Penalty>
1.26884

> <b_epik_Metal_Only>
0

> <s_lp_Force_Field>
OPLS_2005

> <r_lp_Energy>
42.4783

> <b_lp_Chiralities_Consistent>
1

> <s_lp_Variant>
AV-unprocessed.smi:550-3

> <Gold.Version>
5.8.1

> <Gold.Id.Protein>
6NUR|6NUR_protein|mol2

> <Gold.PLP.Fitness>
45.0764

> <Gold.PLP.PLP>
-36.9362

> <Gold.PLP.part.hbond>
-3.4154

> <Gold.PLP.part.metal>
0.0000

> <Gold.PLP.part.buried>
-3.0592

> <Gold.PLP.part.nonpolar>
-32.1077

> <Gold.PLP.part.repulsive>
0.6057

> <Gold.PLP.ligand.clash>
0.0000

> <Gold.PLP.ligand.torsion>
0.4412

> <Gold.PLP.Chemscore.Hbond>
3.0000

> <Gold.PLP.Chemscore.CHOScore>
0.0000

> <Gold.PLP.Chemscore.Metal>
0.0000

> <Gold.Chemscore.Hbonds>
donor molecule, donor type, donor heavy atom, donor atom, acceptor molecule, acceptor atom, score
      L1  H     3    24       P1  7948  0.99
      L1  H    22    46       P1  8028  2.00

> <Gold.PLP.Chemscore.Internal.Correction>
0.0225

> <Gold.Rescore>
     Score         DG    S(hbond)    S(metal)    S(lipo)     H(rot)  DE(clash)    DE(int)     intcor
     18.46     -18.96       1.93        0.00      92.75       1.50       0.12       0.39       ----

> <Gold.Chemscore.Fitness>
18.4551

> <Gold.Chemscore.DG>
-18.9618

> <Gold.Chemscore.ZeroCoef>
-5.4800

> <Gold.Chemscore.Hbond>
1.9343

> <Gold.Chemscore.Metal>
0.0000

> <Gold.Chemscore.Lipo>
92.7471

> <Gold.Chemscore.Internal_Hbond>
0.0000

> <Gold.Chemscore.DEClash>
0.1153

> <Gold.Chemscore.DEInternal>
0.3914

> <Gold.Chemscore.Rot>
1.4962

> <Gold.Chemscore.Internal.Correction>
   9.000000E+99

> <Gold.Chemscore.Hbonds>
donor molecule, donor type, donor heavy atom, donor atom, acceptor molecule, acceptor atom, score
      L1  H     3    24       P1  7948  0.93
      L1  H    22    46       P1  8028  0.94

> <Gold.Chemscore.Hbond.Weighted>
-6.4607

> <Gold.Chemscore.Metal.Weighted>
-0.0000

> <Gold.Chemscore.Lipo.Weighted>
-10.8514

> <Gold.Chemscore.Internal_Hbond.Weighted>
0.0000

> <Gold.Chemscore.DEClash.Weighted>
0.1153

> <Gold.Chemscore.DEInternal.Weighted>
0.3914

> <Gold.Chemscore.Rot.Weighted>
3.8303

> <Gold.Chemscore.Internal.Correction.Weighted>
   9.000000E+99

> <Gold.Protein.RotatedTorsions>
[ 6907 6896 6895 6894 ] final -136.84 input  -60.11 | X-H torsion
[ 7974 7965 7964 7962 ] final  -33.02 input  175.53 | X-H torsion
[ 8008 7997 7996 7995 ] final   47.60 input   59.86 | X-H torsion
[ 10167 10162 10161 10158 ] final  -74.02 input  -65.29 | X-H torsion
[ 10718 10713 10712 10709 ] final  -13.49 input   66.30 | X-H torsion
[ 10763 10752 10751 10750 ] final  -44.43 input  -60.55 | X-H torsion
[ 11005 11000 10999 10996 ] final  -15.71 input  -57.11 | X-H torsion

> <Gold.Protein.ActiveResidues>
 VAL166  LYS551  ARG553  GLY616  TRP617  ASP618  TYR619  PRO620  LYS621  CYS622 
 ASP623  PHE694  ASN695  SER759  ASP760  ASP761  ALA762  ILE779  LEU786  VAL792 
 PHE793  MET794  SER795  GLU796  ALA797  LYS798  CYS799  TRP800  GLU811  SER814 

> <Gold.Protein.RotatedAtoms>
  151.0151  133.5929  159.2677 H   0  0  0  0  0  0  0  0  0  0  0  0  # atno 6907 bound_to 6896
  151.3066  135.0782  159.9267 H   0  0  0  0  0  0  0  0  0  0  0  0  # atno 6908 bound_to 6896
  152.5309  133.9823  159.7866 H   0  0  0  0  0  0  0  0  0  0  0  0  # atno 6909 bound_to 6896
  146.0943  140.5865  142.8850 H   0  0  0  0  0  0  0  0  0  0  0  0  # atno 7974 bound_to 7965
  155.3717  140.3424  155.4243 H   0  0  0  0  0  0  0  0  0  0  0  0  # atno 8008 bound_to 7997
  156.1659  140.1616  156.8566 H   0  0  0  0  0  0  0  0  0  0  0  0  # atno 8009 bound_to 7997
  154.5184  140.0773  156.8108 H   0  0  0  0  0  0  0  0  0  0  0  0  # atno 8010 bound_to 7997
  140.5061  143.2352  151.7671 H   0  0  0  0  0  0  0  0  0  0  0  0  # atno 10167 bound_to 10162
  156.6295  130.4897  149.6134 H   0  0  0  0  0  0  0  0  0  0  0  0  # atno 10718 bound_to 10713
  154.0119  135.6680  153.4766 H   0  0  0  0  0  0  0  0  0  0  0  0  # atno 10763 bound_to 10752
  153.0617  135.5024  154.8104 H   0  0  0  0  0  0  0  0  0  0  0  0  # atno 10764 bound_to 10752
  154.6990  135.3075  154.9333 H   0  0  0  0  0  0  0  0  0  0  0  0  # atno 10765 bound_to 10752
  140.7994  133.8226  155.9455 H   0  0  0  0  0  0  0  0  0  0  0  0  # atno 11005 bound_to 11000
  144.7384  140.4873  143.6887 LP  0  0  0  0  0  0  0  0  0  0  0  0  # atno 17320 bound_to 7965
  145.5978  139.1501  143.3146 LP  0  0  0  0  0  0  0  0  0  0  0  0  # atno 17321 bound_to 7965
  139.4884  144.4455  151.9715 LP  0  0  0  0  0  0  0  0  0  0  0  0  # atno 17342 bound_to 10162
  140.3545  144.3048  150.5943 LP  0  0  0  0  0  0  0  0  0  0  0  0  # atno 17343 bound_to 10162
  156.2246  130.6758  151.1403 LP  0  0  0  0  0  0  0  0  0  0  0  0  # atno 17370 bound_to 10713
  157.7204  131.0685  150.6158 LP  0  0  0  0  0  0  0  0  0  0  0  0  # atno 17371 bound_to 10713
  140.9310  134.2022  157.4864 LP  0  0  0  0  0  0  0  0  0  0  0  0  # atno 17394 bound_to 11000
  139.8723  134.9833  156.5190 LP  0  0  0  0  0  0  0  0  0  0  0  0  # atno 17395 bound_to 11000

$$$$
