AV-unprocessed.smi:2347|AV-procd|sdf|9369|dock2
  -GOLD-   2272012593D 1   1.00000     0.00000
 Structure written by MMmdl.
 41 43  0  0  0  0  0  0  0  0  1 V2000
  149.6330  134.9281  156.2179 O   0  0  0  0  0  0  0  0  0  0  0  0
  149.5520  135.4076  155.0870 C   0  0  0  0  0  0  0  0  0  0  0  0
  150.0259  136.6109  154.7200 N   0  0  0  0  0  0  0  0  0  0  0  0
  150.7339  137.5569  155.5096 C   0  0  0  0  0  0  0  0  0  0  0  0
  151.1253  138.8379  155.0532 C   0  0  0  0  0  0  0  0  0  0  0  0
  151.8061  139.6962  155.9372 C   0  0  0  0  0  0  0  0  0  0  0  0
  152.0778  139.2480  157.2494 C   0  0  0  0  0  0  0  0  0  0  0  0
  152.7841  140.1388  158.2300 C   0  0  0  0  0  0  0  0  0  0  0  0
  153.8670  139.7673  158.6845 O   0  0  0  0  0  0  0  0  0  0  0  0
  152.1999  141.3151  158.5739 N   0  0  0  0  0  0  0  0  0  0  0  0
  150.9790  141.8055  157.9187 C   0  0  0  0  0  0  0  0  0  0  0  0
  151.2935  143.1244  157.1891 C   0  0  0  0  0  0  0  0  0  0  0  0
  151.8811  144.1657  158.1587 C   0  0  0  0  0  0  0  0  0  0  0  0
  153.0549  143.5843  158.9675 C   0  0  0  0  0  0  0  0  0  0  0  0
  152.6638  142.2439  159.6168 C   0  0  0  0  0  0  0  0  0  0  0  0
  151.6818  138.0359  157.6986 N   0  0  0  0  0  0  0  0  0  0  0  0
  151.0276  137.2187  156.8467 C   0  0  0  0  0  0  0  0  0  0  0  0
  148.9524  134.7896  154.0601 N   0  0  0  0  0  0  0  0  0  0  0  0
  148.3257  133.5082  154.1174 C   0  0  0  0  0  0  0  0  0  0  0  0
  149.0642  132.3342  153.5119 C   0  0  0  0  0  0  0  0  0  0  0  0
  147.8567  132.8969  152.8145 C   0  0  0  0  0  0  0  0  0  0  0  0
  149.8039  136.9095  153.7815 H   0  0  0  0  0  0  0  0  0  0  0  0
  150.9027  139.1840  154.0558 H   0  0  0  0  0  0  0  0  0  0  0  0
  152.1063  140.6817  155.6127 H   0  0  0  0  0  0  0  0  0  0  0  0
  150.5600  141.0915  157.2088 H   0  0  0  0  0  0  0  0  0  0  0  0
  150.2054  141.9664  158.6709 H   0  0  0  0  0  0  0  0  0  0  0  0
  152.0035  142.9338  156.3831 H   0  0  0  0  0  0  0  0  0  0  0  0
  150.3914  143.5185  156.7204 H   0  0  0  0  0  0  0  0  0  0  0  0
  152.2012  145.0530  157.6119 H   0  0  0  0  0  0  0  0  0  0  0  0
  151.1004  144.4920  158.8471 H   0  0  0  0  0  0  0  0  0  0  0  0
  153.9131  143.4389  158.3108 H   0  0  0  0  0  0  0  0  0  0  0  0
  153.3678  144.2950  159.7328 H   0  0  0  0  0  0  0  0  0  0  0  0
  151.8540  142.4039  160.3302 H   0  0  0  0  0  0  0  0  0  0  0  0
  153.4918  141.8591  160.2108 H   0  0  0  0  0  0  0  0  0  0  0  0
  150.7334  136.2592  157.2470 H   0  0  0  0  0  0  0  0  0  0  0  0
  148.9315  135.2635  153.1690 H   0  0  0  0  0  0  0  0  0  0  0  0
  147.7132  133.2898  154.9912 H   0  0  0  0  0  0  0  0  0  0  0  0
  150.0368  132.5212  153.0606 H   0  0  0  0  0  0  0  0  0  0  0  0
  148.9572  131.3690  154.0029 H   0  0  0  0  0  0  0  0  0  0  0  0
  146.9431  132.3064  152.8373 H   0  0  0  0  0  0  0  0  0  0  0  0
  148.0248  133.4579  151.8969 H   0  0  0  0  0  0  0  0  0  0  0  0
  1  2  2  0  0  0  0
  2  3  1  0  0  0  0
  2 18  1  0  0  0  0
  3  4  1  0  0  0  0
  3 22  1  0  0  0  0
  4 17  1  0  0  0  0
  4  5  2  0  0  0  0
  5  6  1  0  0  0  0
  5 23  1  0  0  0  0
  6  7  2  0  0  0  0
  6 24  1  0  0  0  0
  7  8  1  0  0  0  0
  7 16  1  0  0  0  0
  8  9  2  0  0  0  0
  8 10  1  0  0  0  0
 10 15  1  0  0  0  0
 10 11  1  0  0  0  0
 11 12  1  0  0  0  0
 11 25  1  0  0  0  0
 11 26  1  0  0  0  0
 12 13  1  0  0  0  0
 12 27  1  0  0  0  0
 12 28  1  0  0  0  0
 13 14  1  0  0  0  0
 13 29  1  0  0  0  0
 13 30  1  0  0  0  0
 14 15  1  0  0  0  0
 14 31  1  0  0  0  0
 14 32  1  0  0  0  0
 15 33  1  0  0  0  0
 15 34  1  0  0  0  0
 16 17  2  0  0  0  0
 17 35  1  0  0  0  0
 18 19  1  0  0  0  0
 18 36  1  0  0  0  0
 19 21  1  0  0  0  0
 19 20  1  0  0  0  0
 19 37  1  0  0  0  0
 20 21  1  0  0  0  0
 20 38  1  0  0  0  0
 20 39  1  0  0  0  0
 21 40  1  0  0  0  0
 21 41  1  0  0  0  0
M  END
> <s_m_source_file>
AV-unprocessed.smi

> <i_m_source_file_index>
2347

> <i_lp_mmshare_version>
43012

> <i_f3d_flags>
0

> <s_epik_input>
W0NIMl0xW0NIMl1bQ0hdMVtOSF1DKD1PKVtOSF1jMltjSF1bY0hdYyhuW2NIXTIpQyg9TylOM1tDSDJdW0NIMl1bQ0gyXVtDSDJdW0NIMl0z

> <s_epik_cmdline>
J2VwaWtfcHl0aG9uJywgJy1waCcsICc3LjAnLCAnLXRuJywgJzgnLCAnLW1hJywgJzIwMCcsICctbWV0YWxfYmluZGluZycsICctaW1hZScsICc8aW5maWxlLm1hZT4nLCAnLW9tYWUnLCAnPG91dGZpbGUubWFlPic=

> <r_lp_tautomer_probability>
1

> <r_epik_Ionization_Penalty>
4.62416e-05

> <r_epik_Ionization_Penalty_Charging>
0

> <r_epik_Ionization_Penalty_Neutral>
4.62416e-05

> <r_epik_State_Penalty>
-0

> <r_epik_Charging_Adjusted_Penalty>
0

> <i_epik_Tot_Q>
0

> <i_epik_Tot_abs_Q>
0

> <r_epik_Metal_State_Penalty>
-0

> <b_epik_Metal_Only>
0

> <s_lp_Force_Field>
OPLS_2005

> <r_lp_Energy>
48.3228

> <b_lp_Chiralities_Consistent>
1

> <s_lp_Variant>
AV-unprocessed.smi:2347-1

> <Gold.Version>
5.8.1

> <Gold.Id.Protein>
6NUR|6NUR_protein|mol2

> <Gold.PLP.Fitness>
46.0592

> <Gold.PLP.PLP>
-39.7900

> <Gold.PLP.part.hbond>
-2.9739

> <Gold.PLP.part.metal>
0.0000

> <Gold.PLP.part.buried>
-2.2002

> <Gold.PLP.part.nonpolar>
-33.9186

> <Gold.PLP.part.repulsive>
0.0739

> <Gold.PLP.ligand.clash>
0.0000

> <Gold.PLP.ligand.torsion>
1.3264

> <Gold.PLP.Chemscore.Hbond>
2.5863

> <Gold.PLP.Chemscore.CHOScore>
0.0000

> <Gold.PLP.Chemscore.Metal>
0.0000

> <Gold.Chemscore.Hbonds>
donor molecule, donor type, donor heavy atom, donor atom, acceptor molecule, acceptor atom, score
      L1  H     3    22       P1  7948  0.57
      L1  H    18    36       P1  7948  1.00
      P1  H  7997  8009       L1     9  1.00

> <Gold.PLP.Chemscore.Internal.Correction>
1.1630

> <Gold.Rescore>
     Score         DG    S(hbond)    S(metal)    S(lipo)     H(rot)  DE(clash)    DE(int)     intcor
     18.93     -22.18       2.46        0.00      94.42       1.00       0.38       2.87       ----

> <Gold.Chemscore.Fitness>
18.9338

> <Gold.Chemscore.DG>
-22.1850

> <Gold.Chemscore.ZeroCoef>
-5.4800

> <Gold.Chemscore.Hbond>
2.4606

> <Gold.Chemscore.Metal>
0.0000

> <Gold.Chemscore.Lipo>
94.4151

> <Gold.Chemscore.Internal_Hbond>
0.0000

> <Gold.Chemscore.DEClash>
0.3782

> <Gold.Chemscore.DEInternal>
2.8730

> <Gold.Chemscore.Rot>
1.0000

> <Gold.Chemscore.Internal.Correction>
   9.000000E+99

> <Gold.Chemscore.Hbonds>
donor molecule, donor type, donor heavy atom, donor atom, acceptor molecule, acceptor atom, score
      L1  H     3    22       P1  7948  0.34
      L1  H    18    36       P1  7948  0.44
      P1  H  7997  8009       L1     9  0.30

> <Gold.Chemscore.Hbond.Weighted>
-8.2184

> <Gold.Chemscore.Metal.Weighted>
-0.0000

> <Gold.Chemscore.Lipo.Weighted>
-11.0466

> <Gold.Chemscore.Internal_Hbond.Weighted>
0.0000

> <Gold.Chemscore.DEClash.Weighted>
0.3782

> <Gold.Chemscore.DEInternal.Weighted>
2.8730

> <Gold.Chemscore.Rot.Weighted>
2.5600

> <Gold.Chemscore.Internal.Correction.Weighted>
   9.000000E+99

> <Gold.Protein.RotatedTorsions>
[ 6907 6896 6895 6894 ] final -163.00 input  -60.11 | X-H torsion
[ 7974 7965 7964 7962 ] final   11.07 input  175.53 | X-H torsion
[ 8008 7997 7996 7995 ] final  130.68 input   59.86 | X-H torsion
[ 10167 10162 10161 10158 ] final  -11.13 input  -65.29 | X-H torsion
[ 10718 10713 10712 10709 ] final  144.25 input   66.30 | X-H torsion
[ 10763 10752 10751 10750 ] final  138.57 input  -60.55 | X-H torsion
[ 11005 11000 10999 10996 ] final   11.94 input  -57.11 | X-H torsion

> <Gold.Protein.ActiveResidues>
 VAL166  LYS551  ARG553  GLY616  TRP617  ASP618  TYR619  PRO620  LYS621  CYS622 
 ASP623  PHE694  ASN695  SER759  ASP760  ASP761  ALA762  ILE779  LEU786  VAL792 
 PHE793  MET794  SER795  GLU796  ALA797  LYS798  CYS799  TRP800  GLU811  SER814 

> <Gold.Protein.RotatedAtoms>
  151.3891  133.3795  159.2718 H   0  0  0  0  0  0  0  0  0  0  0  0  # atno 6907 bound_to 6896
  150.9519  134.8919  159.7687 H   0  0  0  0  0  0  0  0  0  0  0  0  # atno 6908 bound_to 6896
  152.5115  134.3847  159.9415 H   0  0  0  0  0  0  0  0  0  0  0  0  # atno 6909 bound_to 6896
  146.2377  139.9540  142.8467 H   0  0  0  0  0  0  0  0  0  0  0  0  # atno 7974 bound_to 7965
  156.2958  140.2590  156.2801 H   0  0  0  0  0  0  0  0  0  0  0  0  # atno 8008 bound_to 7997
  154.9610  140.0392  157.2209 H   0  0  0  0  0  0  0  0  0  0  0  0  # atno 8009 bound_to 7997
  154.7946  140.2818  155.5970 H   0  0  0  0  0  0  0  0  0  0  0  0  # atno 8010 bound_to 7997
  140.7131  143.5672  150.9131 H   0  0  0  0  0  0  0  0  0  0  0  0  # atno 10167 bound_to 10162
  157.3594  131.0963  151.0928 H   0  0  0  0  0  0  0  0  0  0  0  0  # atno 10718 bound_to 10713
  153.8918  135.3032  155.3447 H   0  0  0  0  0  0  0  0  0  0  0  0  # atno 10763 bound_to 10752
  154.7713  135.4884  153.9657 H   0  0  0  0  0  0  0  0  0  0  0  0  # atno 10764 bound_to 10752
  153.1293  135.6800  153.9303 H   0  0  0  0  0  0  0  0  0  0  0  0  # atno 10765 bound_to 10752
  140.4976  134.0778  155.7786 H   0  0  0  0  0  0  0  0  0  0  0  0  # atno 11005 bound_to 11000
  145.1834  140.9778  143.4253 LP  0  0  0  0  0  0  0  0  0  0  0  0  # atno 17320 bound_to 7965
  144.9921  139.3679  143.6209 LP  0  0  0  0  0  0  0  0  0  0  0  0  # atno 17321 bound_to 7965
  139.9398  143.6395  152.3056 LP  0  0  0  0  0  0  0  0  0  0  0  0  # atno 17342 bound_to 10162
  139.6876  144.7650  151.1497 LP  0  0  0  0  0  0  0  0  0  0  0  0  # atno 17343 bound_to 10162
  157.2074  130.6422  149.5761 LP  0  0  0  0  0  0  0  0  0  0  0  0  # atno 17370 bound_to 10713
  155.9735  130.4671  150.6313 LP  0  0  0  0  0  0  0  0  0  0  0  0  # atno 17371 bound_to 10713
  141.1452  133.9067  157.2232 LP  0  0  0  0  0  0  0  0  0  0  0  0  # atno 17394 bound_to 11000
  139.9732  135.0122  156.9566 LP  0  0  0  0  0  0  0  0  0  0  0  0  # atno 17395 bound_to 11000

$$$$
