AV-unprocessed.smi:1512|AV-procd|sdf|6107|dock8
  -GOLD-   22720 6243D 1   1.00000     0.00000
 Structure written by MMmdl.
 44 46  0  0  0  0  0  0  0  0  3 V2000
  152.9169  139.9396  158.8585 C   0  0  0  0  0  0  0  0  0  0  0  0
  152.2790  141.0470  158.0040 C   0  0  1  0  0  0  0  0  0  0  0  0
  151.2770  140.4400  157.1293 N   0  0  0  0  0  0  0  0  0  0  0  0
  151.4648  140.0701  155.8530 C   0  0  0  0  0  0  0  0  0  0  0  0
  152.5494  140.1442  155.2745 O   0  0  0  0  0  0  0  0  0  0  0  0
  150.2294  139.5291  155.1205 C   0  0  0  0  0  0  0  0  0  0  0  0
  149.0698  140.4324  155.2189 N   0  0  0  0  0  0  0  0  0  0  0  0
  148.7351  141.1707  154.0682 C   0  0  0  0  0  0  0  0  0  0  0  0
  147.7085  142.0327  154.0534 C   0  0  0  0  0  0  0  0  0  0  0  0
  146.9335  142.1927  155.2595 C   0  0  0  0  0  0  0  0  0  0  0  0
  147.2348  141.4927  156.3773 C   0  0  0  0  0  0  0  0  0  0  0  0
  146.4149  141.6973  157.5494 N   0  3  0  0  0  0  0  0  0  0  0  0
  145.4181  142.4074  157.4592 O   0  0  0  0  0  0  0  0  0  0  0  0
  146.7533  141.1629  158.6015 O   0  5  0  0  0  0  0  0  0  0  0  0
  148.3712  140.5485  156.3916 C   0  0  0  0  0  0  0  0  0  0  0  0
  148.6922  139.9037  157.3922 O   0  0  0  0  0  0  0  0  0  0  0  0
  151.6252  142.1551  158.8667 C   0  0  1  0  0  0  0  0  0  0  0  0
  152.6269  142.8946  159.7871 C   0  0  0  0  0  0  0  0  0  0  0  0
  152.4089  144.3763  159.4323 C   0  0  2  0  0  0  0  0  0  0  0  0
  151.0306  144.8315  159.9450 C   0  0  0  0  0  0  0  0  0  0  0  0
  150.0617  144.1253  158.9788 C   0  0  0  0  0  0  0  0  0  0  0  0
  151.0133  143.3327  158.0623 C   0  0  1  0  0  0  0  0  0  0  0  0
  152.1826  144.3018  157.9283 C   0  0  0  0  0  0  0  0  0  0  0  0
  153.7110  140.3307  159.4941 H   0  0  0  0  0  0  0  0  0  0  0  0
  153.3582  139.1658  158.2292 H   0  0  0  0  0  0  0  0  0  0  0  0
  152.1798  139.4620  159.5048 H   0  0  0  0  0  0  0  0  0  0  0  0
  153.0710  141.4986  157.4048 H   0  0  0  0  0  0  0  0  0  0  0  0
  150.3505  140.3321  157.5159 H   0  0  0  0  0  0  0  0  0  0  0  0
  150.5033  139.3562  154.0789 H   0  0  0  0  0  0  0  0  0  0  0  0
  149.9646  138.5457  155.5141 H   0  0  0  0  0  0  0  0  0  0  0  0
  149.3667  140.9991  153.2087 H   0  0  0  0  0  0  0  0  0  0  0  0
  147.4689  142.5944  153.1625 H   0  0  0  0  0  0  0  0  0  0  0  0
  146.0985  142.8783  155.2539 H   0  0  0  0  0  0  0  0  0  0  0  0
  150.8439  141.6914  159.4713 H   0  0  0  0  0  0  0  0  0  0  0  0
  152.4477  142.6905  160.8432 H   0  0  0  0  0  0  0  0  0  0  0  0
  153.6574  142.6124  159.5678 H   0  0  0  0  0  0  0  0  0  0  0  0
  153.2279  145.0254  159.7436 H   0  0  0  0  0  0  0  0  0  0  0  0
  150.8628  144.5476  160.9847 H   0  0  0  0  0  0  0  0  0  0  0  0
  150.9245  145.9144  159.8707 H   0  0  0  0  0  0  0  0  0  0  0  0
  149.3479  143.4835  159.4963 H   0  0  0  0  0  0  0  0  0  0  0  0
  149.4935  144.8578  158.4040 H   0  0  0  0  0  0  0  0  0  0  0  0
  150.5461  143.0519  157.1186 H   0  0  0  0  0  0  0  0  0  0  0  0
  151.9027  145.2589  157.4844 H   0  0  0  0  0  0  0  0  0  0  0  0
  153.0309  143.8893  157.3801 H   0  0  0  0  0  0  0  0  0  0  0  0
  1  2  1  0  0  0  0
  1 24  1  0  0  0  0
  1 25  1  0  0  0  0
  1 26  1  0  0  0  0
  2  3  1  0  0  0  0
  2 17  1  0  0  0  0
  2 27  1  0  0  0  0
  3  4  1  0  0  0  0
  3 28  1  0  0  0  0
  4  5  2  0  0  0  0
  4  6  1  0  0  0  0
  6  7  1  0  0  0  0
  6 29  1  0  0  0  0
  6 30  1  0  0  0  0
  7 15  1  0  0  0  0
  7  8  1  0  0  0  0
  8  9  2  0  0  0  0
  8 31  1  0  0  0  0
  9 10  1  0  0  0  0
  9 32  1  0  0  0  0
 10 11  2  0  0  0  0
 10 33  1  0  0  0  0
 11 12  1  0  0  0  0
 11 15  1  0  0  0  0
 12 13  2  0  0  0  0
 12 14  1  0  0  0  0
 15 16  2  0  0  0  0
 17 22  1  0  0  0  0
 17 18  1  0  0  0  0
 17 34  1  0  0  0  0
 18 19  1  0  0  0  0
 18 35  1  0  0  0  0
 18 36  1  0  0  0  0
 19 23  1  0  0  0  0
 19 20  1  0  0  0  0
 19 37  1  0  0  0  0
 20 21  1  0  0  0  0
 20 38  1  0  0  0  0
 20 39  1  0  0  0  0
 21 22  1  0  0  0  0
 21 40  1  0  0  0  0
 21 41  1  0  0  0  0
 22 23  1  0  0  0  0
 22 42  1  0  0  0  0
 23 43  1  0  0  0  0
 23 44  1  0  0  0  0
M  CHG  1  12   1
M  CHG  1  14  -1
M  END
> <s_m_source_file>
AV-unprocessed.smi

> <i_m_source_file_index>
1512

> <i_lp_mmshare_version>
43012

> <i_f3d_flags>
0

> <s_epik_input>
W0NIMl0xW0NIMl1bQ0BIXShbQ0gyXTIpW0NAQEhdKFtDSDJdW0NAQEhdMTIpW0NASF0oW0NIM10pW05IXUMoPU8pW0NIMl1uM1tjSF1bY0hdW2NIXWMoW04rXSg9TylbTy1dKWMzPU8=

> <s_epik_cmdline>
J2VwaWtfcHl0aG9uJywgJy1waCcsICc3LjAnLCAnLXRuJywgJzgnLCAnLW1hJywgJzIwMCcsICctbWV0YWxfYmluZGluZycsICctaW1hZScsICc8aW5maWxlLm1hZT4nLCAnLW9tYWUnLCAnPG91dGZpbGUubWFlPic=

> <r_lp_tautomer_probability>
1

> <r_epik_Ionization_Penalty>
2.17697e-08

> <r_epik_Ionization_Penalty_Charging>
1.42735e-10

> <r_epik_Ionization_Penalty_Neutral>
2.16269e-08

> <r_epik_State_Penalty>
-0

> <r_epik_Charging_Adjusted_Penalty>
1.42735e-10

> <i_epik_Tot_Q>
0

> <i_epik_Tot_abs_Q>
2

> <r_epik_Metal_State_Penalty>
-0

> <b_epik_Metal_Only>
0

> <s_lp_Force_Field>
OPLS_2005

> <r_lp_Energy>
63.9552

> <b_lp_Chiralities_Consistent>
1

> <s_lp_Variant>
AV-unprocessed.smi:1512-8

> <Gold.Version>
5.8.1

> <Gold.Id.Protein>
6NUR|6NUR_protein|mol2

> <Gold.PLP.Fitness>
52.2464

> <Gold.PLP.PLP>
-45.2383

> <Gold.PLP.part.hbond>
-3.0000

> <Gold.PLP.part.metal>
0.0000

> <Gold.PLP.part.buried>
-4.0069

> <Gold.PLP.part.nonpolar>
-37.7521

> <Gold.PLP.part.repulsive>
0.1438

> <Gold.PLP.ligand.clash>
0.0041

> <Gold.PLP.ligand.torsion>
0.5649

> <Gold.PLP.Chemscore.Hbond>
1.7003

> <Gold.PLP.Chemscore.CHOScore>
1.0000

> <Gold.PLP.Chemscore.Metal>
0.0000

> <Gold.Chemscore.Hbonds>
donor molecule, donor type, donor heavy atom, donor atom, acceptor molecule, acceptor atom, score
      P1  H  6934  6946       L1    14  0.31
      P1  H  7989  7998       L1     5  0.28
      P1  H  7997  8008       L1     5  1.00
      L1  C     8    31       P1  7957  1.00

> <Gold.PLP.Chemscore.Internal.Correction>
0.0412

> <Gold.Rescore>
     Score         DG    S(hbond)    S(metal)    S(lipo)     H(rot)  DE(clash)    DE(int)     intcor
     16.85     -20.47       1.70        0.00     117.92       1.75       0.01       3.62       ----

> <Gold.Chemscore.Fitness>
16.8461

> <Gold.Chemscore.DG>
-20.4740

> <Gold.Chemscore.ZeroCoef>
-5.4800

> <Gold.Chemscore.Hbond>
1.6979

> <Gold.Chemscore.Metal>
0.0000

> <Gold.Chemscore.Lipo>
117.9168

> <Gold.Chemscore.Internal_Hbond>
0.0000

> <Gold.Chemscore.DEClash>
0.0060

> <Gold.Chemscore.DEInternal>
3.6220

> <Gold.Chemscore.Rot>
1.7474

> <Gold.Chemscore.Internal.Correction>
   9.000000E+99

> <Gold.Chemscore.Hbonds>
donor molecule, donor type, donor heavy atom, donor atom, acceptor molecule, acceptor atom, score
      P1  H  6934  6946       L1    14  0.30
      P1  H  7989  7998       L1     5  0.02
      P1  H  7997  8008       L1     5  0.95

> <Gold.Chemscore.Hbond.Weighted>
-5.6711

> <Gold.Chemscore.Metal.Weighted>
-0.0000

> <Gold.Chemscore.Lipo.Weighted>
-13.7963

> <Gold.Chemscore.Internal_Hbond.Weighted>
0.0000

> <Gold.Chemscore.DEClash.Weighted>
0.0060

> <Gold.Chemscore.DEInternal.Weighted>
3.6220

> <Gold.Chemscore.Rot.Weighted>
4.4733

> <Gold.Chemscore.Internal.Correction.Weighted>
   9.000000E+99

> <Gold.Protein.RotatedTorsions>
[ 6907 6896 6895 6894 ] final   98.72 input  -60.11 | X-H torsion
[ 7974 7965 7964 7962 ] final  -96.47 input  175.53 | X-H torsion
[ 8008 7997 7996 7995 ] final  -30.74 input   59.86 | X-H torsion
[ 10167 10162 10161 10158 ] final -164.44 input  -65.29 | X-H torsion
[ 10718 10713 10712 10709 ] final   77.15 input   66.30 | X-H torsion
[ 10763 10752 10751 10750 ] final   84.93 input  -60.55 | X-H torsion
[ 11005 11000 10999 10996 ] final -120.77 input  -57.11 | X-H torsion

> <Gold.Protein.ActiveResidues>
 VAL166  LYS551  ARG553  GLY616  TRP617  ASP618  TYR619  PRO620  LYS621  CYS622 
 ASP623  PHE694  ASN695  SER759  ASP760  ASP761  ALA762  ILE779  LEU786  VAL792 
 PHE793  MET794  SER795  GLU796  ALA797  LYS798  CYS799  TRP800  GLU811  SER814 

> <Gold.Protein.RotatedAtoms>
  152.5404  134.0538  159.8121 H   0  0  0  0  0  0  0  0  0  0  0  0  # atno 6907 bound_to 6896
  151.0676  133.5485  159.2637 H   0  0  0  0  0  0  0  0  0  0  0  0  # atno 6908 bound_to 6896
  151.2360  135.0580  159.9060 H   0  0  0  0  0  0  0  0  0  0  0  0  # atno 6909 bound_to 6896
  145.3464  140.9469  143.2579 H   0  0  0  0  0  0  0  0  0  0  0  0  # atno 7974 bound_to 7965
  154.4239  140.1783  156.1455 H   0  0  0  0  0  0  0  0  0  0  0  0  # atno 8008 bound_to 7997
  155.9957  140.3364  155.6772 H   0  0  0  0  0  0  0  0  0  0  0  0  # atno 8009 bound_to 7997
  155.6311  140.0670  157.2639 H   0  0  0  0  0  0  0  0  0  0  0  0  # atno 8010 bound_to 7997
  139.6251  144.0549  152.1967 H   0  0  0  0  0  0  0  0  0  0  0  0  # atno 10167 bound_to 10162
  157.6700  130.9808  150.1599 H   0  0  0  0  0  0  0  0  0  0  0  0  # atno 10718 bound_to 10713
  153.1427  135.4636  154.9520 H   0  0  0  0  0  0  0  0  0  0  0  0  # atno 10763 bound_to 10752
  154.7761  135.3173  154.8092 H   0  0  0  0  0  0  0  0  0  0  0  0  # atno 10764 bound_to 10752
  153.8611  135.6912  153.4837 H   0  0  0  0  0  0  0  0  0  0  0  0  # atno 10765 bound_to 10752
  141.0119  134.0252  157.3402 H   0  0  0  0  0  0  0  0  0  0  0  0  # atno 11005 bound_to 11000
  144.8751  139.4983  143.6749 LP  0  0  0  0  0  0  0  0  0  0  0  0  # atno 17320 bound_to 7965
  146.2986  139.7355  142.9108 LP  0  0  0  0  0  0  0  0  0  0  0  0  # atno 17321 bound_to 7965
  140.0200  144.6160  150.7575 LP  0  0  0  0  0  0  0  0  0  0  0  0  # atno 17342 bound_to 10162
  140.7406  143.2806  151.3609 LP  0  0  0  0  0  0  0  0  0  0  0  0  # atno 17343 bound_to 10162
  156.2378  130.3688  149.8371 LP  0  0  0  0  0  0  0  0  0  0  0  0  # atno 17370 bound_to 10713
  156.6180  130.8614  151.3469 LP  0  0  0  0  0  0  0  0  0  0  0  0  # atno 17371 bound_to 10713
  139.9095  135.0187  156.7630 LP  0  0  0  0  0  0  0  0  0  0  0  0  # atno 17394 bound_to 11000
  140.6719  133.9552  155.7861 LP  0  0  0  0  0  0  0  0  0  0  0  0  # atno 17395 bound_to 11000

$$$$
