AV-unprocessed.smi:857|AV-procd|sdf|3961|dock5
  -GOLD-   22720 1433D 1   1.00000     0.00000
 Structure written by MMmdl.
 29 30  0  0  0  0  0  0  0  0  2 V2000
  150.6367  143.7957  159.5481 C   0  0  0  0  0  0  0  0  0  0  0  0
  151.0897  142.6195  158.7083 C   0  0  0  0  0  0  0  0  0  0  0  0
  152.0949  141.7531  159.1725 C   0  0  0  0  0  0  0  0  0  0  0  0
  152.5190  140.6512  158.3862 C   0  0  0  0  0  0  0  0  0  0  0  0
  153.6029  139.7695  158.9614 C   0  0  0  0  0  0  0  0  0  0  0  0
  153.8246  139.7498  160.1857 O   0  0  0  0  0  0  0  0  0  0  0  0
  154.2738  139.0576  158.1803 O   0  5  0  0  0  0  0  0  0  0  0  0
  151.8946  140.4478  157.1069 C   0  0  0  0  0  0  0  0  0  0  0  0
  151.8971  139.5675  155.9399 C   0  0  0  0  0  0  0  0  0  0  0  0
  152.6789  138.3385  155.5644 C   0  0  0  0  0  0  0  0  0  0  0  0
  151.0162  139.9609  155.0482 N   0  0  0  0  0  0  0  0  0  0  0  0
  150.4162  141.0644  155.5382 N   0  0  0  0  0  0  0  0  0  0  0  0
  149.3826  141.7078  154.7467 C   0  0  0  0  0  0  0  0  0  0  0  0
  148.3337  140.6963  154.2653 C   0  0  0  0  0  0  0  0  0  0  0  0
  148.9615  139.6696  153.5279 O   0  0  0  0  0  0  0  0  0  0  0  0
  150.8937  141.4182  156.7831 C   0  0  0  0  0  0  0  0  0  0  0  0
  150.4704  142.4811  157.5235 N   0  0  0  0  0  0  0  0  0  0  0  0
  151.1812  143.8436  160.4916 H   0  0  0  0  0  0  0  0  0  0  0  0
  149.5732  143.7127  159.7740 H   0  0  0  0  0  0  0  0  0  0  0  0
  150.8033  144.7307  159.0123 H   0  0  0  0  0  0  0  0  0  0  0  0
  152.5357  141.9452  160.1402 H   0  0  0  0  0  0  0  0  0  0  0  0
  153.4053  138.0021  156.2869 H   0  0  0  0  0  0  0  0  0  0  0  0
  153.2258  138.5031  154.6356 H   0  0  0  0  0  0  0  0  0  0  0  0
  152.0079  137.4968  155.3913 H   0  0  0  0  0  0  0  0  0  0  0  0
  148.9138  142.4842  155.3527 H   0  0  0  0  0  0  0  0  0  0  0  0
  149.8466  142.2117  153.8972 H   0  0  0  0  0  0  0  0  0  0  0  0
  147.8068  140.2552  155.1122 H   0  0  0  0  0  0  0  0  0  0  0  0
  147.5901  141.1837  153.6339 H   0  0  0  0  0  0  0  0  0  0  0  0
  149.2584  140.0280  152.7052 H   0  0  0  0  0  0  0  0  0  0  0  0
  1  2  1  0  0  0  0
  1 18  1  0  0  0  0
  1 19  1  0  0  0  0
  1 20  1  0  0  0  0
  2 17  1  0  0  0  0
  2  3  2  0  0  0  0
  3  4  1  0  0  0  0
  3 21  1  0  0  0  0
  4  5  1  0  0  0  0
  4  8  2  0  0  0  0
  5  6  2  0  0  0  0
  5  7  1  0  0  0  0
  8 16  1  0  0  0  0
  8  9  1  0  0  0  0
  9 10  1  0  0  0  0
  9 11  2  0  0  0  0
 10 22  1  0  0  0  0
 10 23  1  0  0  0  0
 10 24  1  0  0  0  0
 11 12  1  0  0  0  0
 12 13  1  0  0  0  0
 12 16  1  0  0  0  0
 13 14  1  0  0  0  0
 13 25  1  0  0  0  0
 13 26  1  0  0  0  0
 14 15  1  0  0  0  0
 14 27  1  0  0  0  0
 14 28  1  0  0  0  0
 15 29  1  0  0  0  0
 16 17  2  0  0  0  0
M  CHG  1   7  -1
M  END
> <s_m_source_file>
AV-unprocessed.smi

> <i_m_source_file_index>
857

> <i_lp_mmshare_version>
43012

> <i_f3d_flags>
0

> <s_epik_input>
Tz1DKFtPSF0pYzFbY0hdYyhbQ0gzXSluYyhjMTIpbihuYzJbQ0gzXSlbQ0gyXVtDSDJdW09IXQ==

> <s_epik_cmdline>
J2VwaWtfcHl0aG9uJywgJy1waCcsICc3LjAnLCAnLXRuJywgJzgnLCAnLW1hJywgJzIwMCcsICctbWV0YWxfYmluZGluZycsICctaW1hZScsICc8aW5maWxlLm1hZT4nLCAnLW9tYWUnLCAnPG91dGZpbGUubWFlPic=

> <r_lp_tautomer_probability>
1

> <r_epik_Ionization_Penalty>
0.000221063

> <r_epik_Ionization_Penalty_Charging>
0.000215421

> <r_epik_Ionization_Penalty_Neutral>
5.64189e-06

> <r_epik_State_Penalty>
-0

> <r_epik_Charging_Adjusted_Penalty>
0.000215421

> <i_epik_Tot_Q>
-1

> <i_epik_Tot_abs_Q>
1

> <r_epik_Metal_State_Penalty>
-0

> <b_epik_Metal_Only>
0

> <s_lp_Force_Field>
OPLS_2005

> <r_lp_Energy>
11.0008

> <b_lp_Chiralities_Consistent>
1

> <s_lp_Variant>
AV-unprocessed.smi:857-1

> <Gold.Version>
5.8.1

> <Gold.Id.Protein>
6NUR|6NUR_protein|mol2

> <Gold.PLP.Fitness>
40.2623

> <Gold.PLP.PLP>
-29.8785

> <Gold.PLP.part.hbond>
-2.7192

> <Gold.PLP.part.metal>
0.0000

> <Gold.PLP.part.buried>
-1.9751

> <Gold.PLP.part.nonpolar>
-23.9387

> <Gold.PLP.part.repulsive>
0.1722

> <Gold.PLP.ligand.clash>
0.0000

> <Gold.PLP.ligand.torsion>
0.2838

> <Gold.PLP.Chemscore.Hbond>
3.6500

> <Gold.PLP.Chemscore.CHOScore>
0.0000

> <Gold.PLP.Chemscore.Metal>
0.0000

> <Gold.Chemscore.Hbonds>
donor molecule, donor type, donor heavy atom, donor atom, acceptor molecule, acceptor atom, score
      L1  H    15    29       P1  7957  1.00
      P1  H  7989  7998       L1    11  0.65
      P1  H  7997  8009       L1     7  1.95

> <Gold.PLP.Chemscore.Internal.Correction>
0.0014

> <Gold.Rescore>
     Score         DG    S(hbond)    S(metal)    S(lipo)     H(rot)  DE(clash)    DE(int)     intcor
     13.99     -14.48       1.84        0.00      64.84       1.84       0.08       0.41       ----

> <Gold.Chemscore.Fitness>
13.9918

> <Gold.Chemscore.DG>
-14.4819

> <Gold.Chemscore.ZeroCoef>
-5.4800

> <Gold.Chemscore.Hbond>
1.8379

> <Gold.Chemscore.Metal>
0.0000

> <Gold.Chemscore.Lipo>
64.8364

> <Gold.Chemscore.Internal_Hbond>
0.0000

> <Gold.Chemscore.DEClash>
0.0811

> <Gold.Chemscore.DEInternal>
0.4090

> <Gold.Chemscore.Rot>
1.8448

> <Gold.Chemscore.Internal.Correction>
   9.000000E+99

> <Gold.Chemscore.Hbonds>
donor molecule, donor type, donor heavy atom, donor atom, acceptor molecule, acceptor atom, score
      L1  H    15    29       P1  7957  0.97
      P1  H  7989  7998       L1    11  0.05
      P1  H  7997  8009       L1     7  0.39

> <Gold.Chemscore.Hbond.Weighted>
-6.1386

> <Gold.Chemscore.Metal.Weighted>
-0.0000

> <Gold.Chemscore.Lipo.Weighted>
-7.5859

> <Gold.Chemscore.Internal_Hbond.Weighted>
0.0000

> <Gold.Chemscore.DEClash.Weighted>
0.0811

> <Gold.Chemscore.DEInternal.Weighted>
0.4090

> <Gold.Chemscore.Rot.Weighted>
4.7226

> <Gold.Chemscore.Internal.Correction.Weighted>
   9.000000E+99

> <Gold.Protein.RotatedTorsions>
[ 6907 6896 6895 6894 ] final   11.98 input  -60.11 | X-H torsion
[ 7974 7965 7964 7962 ] final  139.43 input  175.53 | X-H torsion
[ 8008 7997 7996 7995 ] final  153.13 input   59.86 | X-H torsion
[ 10167 10162 10161 10158 ] final   33.47 input  -65.29 | X-H torsion
[ 10718 10713 10712 10709 ] final  -61.07 input   66.30 | X-H torsion
[ 10763 10752 10751 10750 ] final   89.87 input  -60.55 | X-H torsion
[ 11005 11000 10999 10996 ] final -120.80 input  -57.11 | X-H torsion

> <Gold.Protein.ActiveResidues>
 VAL166  LYS551  ARG553  GLY616  TRP617  ASP618  TYR619  PRO620  LYS621  CYS622 
 ASP623  PHE694  ASN695  SER759  ASP760  ASP761  ALA762  ILE779  LEU786  VAL792 
 PHE793  MET794  SER795  GLU796  ALA797  LYS798  CYS799  TRP800  GLU811  SER814 

> <Gold.Protein.RotatedAtoms>
  151.7630  135.0805  160.0348 H   0  0  0  0  0  0  0  0  0  0  0  0  # atno 6907 bound_to 6896
  152.3340  133.5986  159.5838 H   0  0  0  0  0  0  0  0  0  0  0  0  # atno 6908 bound_to 6896
  150.7439  133.9740  159.3597 H   0  0  0  0  0  0  0  0  0  0  0  0  # atno 6909 bound_to 6896
  144.9280  139.5083  143.5631 H   0  0  0  0  0  0  0  0  0  0  0  0  # atno 7974 bound_to 7965
  156.2596  140.2002  156.6442 H   0  0  0  0  0  0  0  0  0  0  0  0  # atno 8008 bound_to 7997
  154.6586  140.0563  157.0061 H   0  0  0  0  0  0  0  0  0  0  0  0  # atno 8009 bound_to 7997
  155.1310  140.3233  155.4477 H   0  0  0  0  0  0  0  0  0  0  0  0  # atno 8010 bound_to 7997
  140.4405  144.1195  150.6173 H   0  0  0  0  0  0  0  0  0  0  0  0  # atno 10167 bound_to 10162
  156.0947  130.4195  150.0943 H   0  0  0  0  0  0  0  0  0  0  0  0  # atno 10718 bound_to 10713
  153.1916  135.4454  155.0156 H   0  0  0  0  0  0  0  0  0  0  0  0  # atno 10763 bound_to 10752
  154.8093  135.3288  154.7349 H   0  0  0  0  0  0  0  0  0  0  0  0  # atno 10764 bound_to 10752
  153.7803  135.6978  153.4945 H   0  0  0  0  0  0  0  0  0  0  0  0  # atno 10765 bound_to 10752
  141.0117  134.0255  157.3405 H   0  0  0  0  0  0  0  0  0  0  0  0  # atno 11005 bound_to 11000
  146.3234  139.8209  142.8927 LP  0  0  0  0  0  0  0  0  0  0  0  0  # atno 17320 bound_to 7965
  145.3188  141.0238  143.3512 LP  0  0  0  0  0  0  0  0  0  0  0  0  # atno 17321 bound_to 7965
  140.4324  143.2562  151.9578 LP  0  0  0  0  0  0  0  0  0  0  0  0  # atno 17342 bound_to 10162
  139.4789  144.5731  151.8056 LP  0  0  0  0  0  0  0  0  0  0  0  0  # atno 17343 bound_to 10162
  156.8944  130.9599  151.3584 LP  0  0  0  0  0  0  0  0  0  0  0  0  # atno 17370 bound_to 10713
  157.6105  130.8579  149.8943 LP  0  0  0  0  0  0  0  0  0  0  0  0  # atno 17371 bound_to 10713
  139.9093  135.0187  156.7625 LP  0  0  0  0  0  0  0  0  0  0  0  0  # atno 17394 bound_to 11000
  140.6723  133.9548  155.7863 LP  0  0  0  0  0  0  0  0  0  0  0  0  # atno 17395 bound_to 11000

$$$$
