AV-unprocessed.smi:101|AV-procd|sdf|920|dock5
  -GOLD-   2262017423D 1   1.00000     0.00000
 Structure written by MMmdl.
 44 46  0  0  0  0  0  0  0  0  1 V2000
  144.7669  139.8885  159.0136 C   0  0  0  0  0  0  0  0  0  0  0  0
  144.8614  140.9549  157.9344 C   0  0  0  0  0  0  0  0  0  0  0  0
  145.8933  141.0081  157.0535 C   0  0  0  0  0  0  0  0  0  0  0  0
  146.0097  141.9725  156.0587 N   0  0  0  0  0  0  0  0  0  0  0  0
  147.1841  142.0202  155.0957 C   0  0  1  0  0  0  0  0  0  0  0  0
  148.3699  141.7599  155.7867 O   0  0  0  0  0  0  0  0  0  0  0  0
  148.8215  140.4439  155.4879 C   0  0  2  0  0  0  0  0  0  0  0  0
  150.3069  140.2779  155.8328 C   0  0  0  0  0  0  0  0  0  0  0  0
  150.6560  141.2980  156.7533 O   0  0  0  0  0  0  0  0  0  0  0  0
  151.7989  141.2207  157.4585 C   0  0  0  0  0  0  0  0  0  0  0  0
  152.5946  140.2835  157.3709 O   0  0  0  0  0  0  0  0  0  0  0  0
  152.0002  142.3954  158.3557 C   0  0  0  0  0  0  0  0  0  0  0  0
  152.6149  142.2096  159.6161 C   0  0  0  0  0  0  0  0  0  0  0  0
  152.8185  143.3017  160.4823 C   0  0  0  0  0  0  0  0  0  0  0  0
  152.4087  144.5922  160.0994 C   0  0  0  0  0  0  0  0  0  0  0  0
  151.7958  144.7902  158.8485 C   0  0  0  0  0  0  0  0  0  0  0  0
  151.5925  143.6999  157.9805 C   0  0  0  0  0  0  0  0  0  0  0  0
  148.4428  140.2827  154.0147 C   0  0  2  0  0  0  0  0  0  0  0  0
  149.3855  140.9286  153.1787 O   0  0  0  0  0  0  0  0  0  0  0  0
  147.0878  140.9793  153.9483 C   0  0  1  0  0  0  0  0  0  0  0  0
  146.0589  140.0204  154.1267 O   0  0  0  0  0  0  0  0  0  0  0  0
  145.0168  142.9673  155.9466 C   0  0  0  0  0  0  0  0  0  0  0  0
  145.0571  143.8520  155.0922 O   0  0  0  0  0  0  0  0  0  0  0  0
  143.9562  142.9118  156.8485 N   0  0  0  0  0  0  0  0  0  0  0  0
  143.7958  141.9581  157.8562 C   0  0  0  0  0  0  0  0  0  0  0  0
  142.8116  142.0114  158.5917 O   0  0  0  0  0  0  0  0  0  0  0  0
  143.2428  143.6217  156.7678 H   0  0  0  0  0  0  0  0  0  0  0  0
  145.6220  139.2119  158.9925 H   0  0  0  0  0  0  0  0  0  0  0  0
  143.8643  139.2914  158.8803 H   0  0  0  0  0  0  0  0  0  0  0  0
  144.7308  140.3486  160.0016 H   0  0  0  0  0  0  0  0  0  0  0  0
  146.6582  140.2533  157.1507 H   0  0  0  0  0  0  0  0  0  0  0  0
  147.2308  143.0519  154.7416 H   0  0  0  0  0  0  0  0  0  0  0  0
  148.2358  139.7258  156.0646 H   0  0  0  0  0  0  0  0  0  0  0  0
  150.4808  139.3063  156.2968 H   0  0  0  0  0  0  0  0  0  0  0  0
  150.9217  140.3349  154.9334 H   0  0  0  0  0  0  0  0  0  0  0  0
  152.9384  141.2280  159.9315 H   0  0  0  0  0  0  0  0  0  0  0  0
  153.2899  143.1481  161.4417 H   0  0  0  0  0  0  0  0  0  0  0  0
  152.5641  145.4291  160.7643 H   0  0  0  0  0  0  0  0  0  0  0  0
  151.4803  145.7801  158.5534 H   0  0  0  0  0  0  0  0  0  0  0  0
  151.1192  143.8882  157.0278 H   0  0  0  0  0  0  0  0  0  0  0  0
  148.3934  139.2338  153.7186 H   0  0  0  0  0  0  0  0  0  0  0  0
  149.7761  140.2827  152.6099 H   0  0  0  0  0  0  0  0  0  0  0  0
  146.9251  141.4883  152.9972 H   0  0  0  0  0  0  0  0  0  0  0  0
  145.3602  140.2184  153.5217 H   0  0  0  0  0  0  0  0  0  0  0  0
  1  2  1  0  0  0  0
  1 28  1  0  0  0  0
  1 29  1  0  0  0  0
  1 30  1  0  0  0  0
  2 25  1  0  0  0  0
  2  3  2  0  0  0  0
  3  4  1  0  0  0  0
  3 31  1  0  0  0  0
  4  5  1  0  0  0  0
  4 22  1  0  0  0  0
  5 20  1  0  0  0  0
  5  6  1  0  0  0  0
  5 32  1  0  0  0  0
  6  7  1  0  0  0  0
  7  8  1  0  0  0  0
  7 18  1  0  0  0  0
  7 33  1  0  0  0  0
  8  9  1  0  0  0  0
  8 34  1  0  0  0  0
  8 35  1  0  0  0  0
  9 10  1  0  0  0  0
 10 11  2  0  0  0  0
 10 12  1  0  0  0  0
 12 17  1  0  0  0  0
 12 13  2  0  0  0  0
 13 14  1  0  0  0  0
 13 36  1  0  0  0  0
 14 15  2  0  0  0  0
 14 37  1  0  0  0  0
 15 16  1  0  0  0  0
 15 38  1  0  0  0  0
 16 17  2  0  0  0  0
 16 39  1  0  0  0  0
 17 40  1  0  0  0  0
 18 19  1  0  0  0  0
 18 20  1  0  0  0  0
 18 41  1  0  0  0  0
 19 42  1  0  0  0  0
 20 21  1  0  0  0  0
 20 43  1  0  0  0  0
 21 44  1  0  0  0  0
 22 23  2  0  0  0  0
 22 24  1  0  0  0  0
 24 27  1  0  0  0  0
 24 25  1  0  0  0  0
 25 26  2  0  0  0  0
M  END
> <s_m_source_file>
AV-unprocessed.smi

> <i_m_source_file_index>
101

> <i_lp_mmshare_version>
43012

> <i_f3d_flags>
0

> <s_epik_input>
Tz1jMVtuSF1jKD1PKW4oW2NIXWMxW0NIM10pW0NAQEhdMk9bQ0BIXShbQ0BASF0oW09IXSlbQ0BIXTJbT0hdKVtDSDJdT0MoPU8pYzNbY0hdW2NIXVtjSF1bY0hdW2NIXTM=

> <s_epik_cmdline>
J2VwaWtfcHl0aG9uJywgJy1waCcsICc3LjAnLCAnLXRuJywgJzgnLCAnLW1hJywgJzIwMCcsICctbWV0YWxfYmluZGluZycsICctaW1hZScsICc8aW5maWxlLm1hZT4nLCAnLW9tYWUnLCAnPG91dGZpbGUubWFlPic=

> <r_lp_tautomer_probability>
0.999537

> <r_epik_Ionization_Penalty>
0.00263537

> <r_epik_Ionization_Penalty_Charging>
0.00263428

> <r_epik_Ionization_Penalty_Neutral>
1.09111e-06

> <r_epik_State_Penalty>
0.00183335

> <r_epik_Charging_Adjusted_Penalty>
0.00446763

> <i_epik_Tot_Q>
0

> <i_epik_Tot_abs_Q>
0

> <r_epik_Metal_State_Penalty>
1.00528

> <b_epik_Metal_Only>
0

> <s_epik_Chemistry_Notes>
This compound has an ester and may undergo hydrolysis at high or low pH. This compound contains an acetal/aminal-like group ( X-CH(R)-Y where X, Y are N, S, or O) that may be acid/base labile, releasing an aldehyde.

> <s_lp_Force_Field>
OPLS_2005

> <r_lp_Energy>
36.6069

> <b_lp_Chiralities_Consistent>
1

> <s_lp_Variant>
AV-unprocessed.smi:101-8

> <Gold.Version>
5.8.1

> <Gold.Id.Protein>
6NUR|6NUR_protein|mol2

> <Gold.PLP.Fitness>
47.2336

> <Gold.PLP.PLP>
-39.7405

> <Gold.PLP.part.hbond>
-4.0095

> <Gold.PLP.part.metal>
0.0000

> <Gold.PLP.part.buried>
-5.9615

> <Gold.PLP.part.nonpolar>
-30.8482

> <Gold.PLP.part.repulsive>
1.0419

> <Gold.PLP.ligand.clash>
0.0000

> <Gold.PLP.ligand.torsion>
1.6331

> <Gold.PLP.Chemscore.Hbond>
3.5650

> <Gold.PLP.Chemscore.CHOScore>
0.0000

> <Gold.PLP.Chemscore.Metal>
0.0000

> <Gold.Chemscore.Hbonds>
donor molecule, donor type, donor heavy atom, donor atom, acceptor molecule, acceptor atom, score
      L1  H    19    42       P1  7957  0.54
      L1  H    21    44       P1 10175  1.00
      P1  H  7997  8008       L1    11  0.99
      P1  H  8011  8017       L1    19  1.00

> <Gold.PLP.Chemscore.Internal.Correction>
0.0643

> <Gold.Rescore>
     Score         DG    S(hbond)    S(metal)    S(lipo)     H(rot)  DE(clash)    DE(int)     intcor
     16.05     -17.39       2.86        0.00      92.85       3.32       0.08       1.26       ----

> <Gold.Chemscore.Fitness>
16.0474

> <Gold.Chemscore.DG>
-17.3950

> <Gold.Chemscore.ZeroCoef>
-5.4800

> <Gold.Chemscore.Hbond>
2.8574

> <Gold.Chemscore.Metal>
0.0000

> <Gold.Chemscore.Lipo>
92.8489

> <Gold.Chemscore.Internal_Hbond>
0.0000

> <Gold.Chemscore.DEClash>
0.0840

> <Gold.Chemscore.DEInternal>
1.2635

> <Gold.Chemscore.Rot>
3.3172

> <Gold.Chemscore.Internal.Correction>
   9.000000E+99

> <Gold.Chemscore.Hbonds>
donor molecule, donor type, donor heavy atom, donor atom, acceptor molecule, acceptor atom, score
      L1  H    19    42       P1  7957  0.52
      L1  H    21    44       P1 10175  0.97
      P1  H  7997  8008       L1    11  0.93
      P1  H  8011  8017       L1    19  0.26

> <Gold.Chemscore.Hbond.Weighted>
-9.5437

> <Gold.Chemscore.Metal.Weighted>
-0.0000

> <Gold.Chemscore.Lipo.Weighted>
-10.8633

> <Gold.Chemscore.Internal_Hbond.Weighted>
0.0000

> <Gold.Chemscore.DEClash.Weighted>
0.0840

> <Gold.Chemscore.DEInternal.Weighted>
1.2635

> <Gold.Chemscore.Rot.Weighted>
8.4920

> <Gold.Chemscore.Internal.Correction.Weighted>
   9.000000E+99

> <Gold.Protein.RotatedTorsions>
[ 6907 6896 6895 6894 ] final  -13.44 input  -60.11 | X-H torsion
[ 7974 7965 7964 7962 ] final  174.42 input  175.53 | X-H torsion
[ 8008 7997 7996 7995 ] final  -62.39 input   59.86 | X-H torsion
[ 10167 10162 10161 10158 ] final  -69.25 input  -65.29 | X-H torsion
[ 10718 10713 10712 10709 ] final  132.10 input   66.30 | X-H torsion
[ 10763 10752 10751 10750 ] final  -14.79 input  -60.55 | X-H torsion
[ 11005 11000 10999 10996 ] final  -70.49 input  -57.11 | X-H torsion

> <Gold.Protein.ActiveResidues>
 VAL166  LYS551  ARG553  GLY616  TRP617  ASP618  TYR619  PRO620  LYS621  CYS622 
 ASP623  PHE694  ASN695  SER759  ASP760  ASP761  ALA762  ILE779  LEU786  VAL792 
 PHE793  MET794  SER795  GLU796  ALA797  LYS798  CYS799  TRP800  GLU811  SER814 

> <Gold.Protein.RotatedAtoms>
  151.3549  135.0892  159.9414 H   0  0  0  0  0  0  0  0  0  0  0  0  # atno 6907 bound_to 6896
  152.5177  133.9316  159.7593 H   0  0  0  0  0  0  0  0  0  0  0  0  # atno 6908 bound_to 6896
  150.9699  133.6301  159.2769 H   0  0  0  0  0  0  0  0  0  0  0  0  # atno 6909 bound_to 6896
  144.7222  139.9794  143.6438 H   0  0  0  0  0  0  0  0  0  0  0  0  # atno 7974 bound_to 7965
  154.4497  140.0997  156.6580 H   0  0  0  0  0  0  0  0  0  0  0  0  # atno 8008 bound_to 7997
  155.5324  140.3481  155.4410 H   0  0  0  0  0  0  0  0  0  0  0  0  # atno 8009 bound_to 7997
  156.0655  140.1336  156.9880 H   0  0  0  0  0  0  0  0  0  0  0  0  # atno 8010 bound_to 7997
  140.5445  143.2313  151.7028 H   0  0  0  0  0  0  0  0  0  0  0  0  # atno 10167 bound_to 10162
  157.4904  131.1090  150.9564 H   0  0  0  0  0  0  0  0  0  0  0  0  # atno 10718 bound_to 10713
  153.5335  135.7014  153.5671 H   0  0  0  0  0  0  0  0  0  0  0  0  # atno 10763 bound_to 10752
  153.3668  135.3955  155.1759 H   0  0  0  0  0  0  0  0  0  0  0  0  # atno 10764 bound_to 10752
  154.8682  135.3802  154.4834 H   0  0  0  0  0  0  0  0  0  0  0  0  # atno 10765 bound_to 10752
  141.1575  133.6791  156.6761 H   0  0  0  0  0  0  0  0  0  0  0  0  # atno 11005 bound_to 11000
  146.0500  139.3502  143.0645 LP  0  0  0  0  0  0  0  0  0  0  0  0  # atno 17320 bound_to 7965
  145.8227  140.9671  143.0890 LP  0  0  0  0  0  0  0  0  0  0  0  0  # atno 17321 bound_to 7965
  139.5002  144.3917  152.0273 LP  0  0  0  0  0  0  0  0  0  0  0  0  # atno 17342 bound_to 10162
  140.3028  144.3627  150.6055 LP  0  0  0  0  0  0  0  0  0  0  0  0  # atno 17343 bound_to 10162
  157.0267  130.5695  149.5338 LP  0  0  0  0  0  0  0  0  0  0  0  0  # atno 17370 bound_to 10713
  156.0170  130.5264  150.8164 LP  0  0  0  0  0  0  0  0  0  0  0  0  # atno 17371 bound_to 10713
  140.3138  134.8064  157.4197 LP  0  0  0  0  0  0  0  0  0  0  0  0  # atno 17394 bound_to 11000
  140.1156  134.5288  155.8228 LP  0  0  0  0  0  0  0  0  0  0  0  0  # atno 17395 bound_to 11000

$$$$
