AV-unprocessed.smi:3327|AV-procd|sdf|12790|dock5
  -GOLD-   2272019143D 1   1.00000     0.00000
 Structure written by MMmdl.
 40 41  0  0  0  0  0  0  0  0  1 V2000
  151.3885  145.1479  159.0319 C   0  0  0  0  0  0  0  0  0  0  0  0
  152.0531  143.7868  158.7830 C   0  0  1  0  0  0  0  0  0  0  0  0
  152.9568  143.3720  159.9648 C   0  0  0  0  0  0  0  0  0  0  0  0
  153.5343  141.9559  159.7800 C   0  0  0  0  0  0  0  0  0  0  0  0
  152.4189  140.9500  159.4471 C   0  0  0  0  0  0  0  0  0  0  0  0
  151.7076  141.4167  158.2494 N   0  0  0  0  0  0  0  0  0  0  0  0
  151.7618  140.8373  157.0249 C   0  0  0  0  0  0  0  0  0  0  0  0
  152.4100  139.8100  156.8138 O   0  0  0  0  0  0  0  0  0  0  0  0
  150.9868  141.4829  155.8628 C   0  0  0  0  0  0  0  0  0  0  0  0
  149.6059  140.9968  155.7426 N   0  0  0  0  0  0  0  0  0  0  0  0
  148.9898  141.5019  154.5252 C   0  0  0  0  0  0  0  0  0  0  0  0
  147.5670  140.9383  154.3968 C   0  0  0  0  0  0  0  0  0  0  0  0
  146.5652  141.9718  154.5737 N   0  0  0  0  0  0  0  0  0  0  0  0
  146.3100  143.0643  153.7715 C   0  0  0  0  0  0  0  0  0  0  0  0
  145.2796  143.7553  154.3420 C   0  0  0  0  0  0  0  0  0  0  0  0
  144.9674  142.9969  155.5049 C   0  0  0  0  0  0  0  0  0  0  0  0
  145.7389  141.9304  155.6412 N   0  0  0  0  0  0  0  0  0  0  0  0
  151.0094  142.6854  158.4975 C   0  0  0  0  0  0  0  0  0  0  0  0
  150.7337  145.1168  159.9034 H   0  0  0  0  0  0  0  0  0  0  0  0
  150.7877  145.4536  158.1748 H   0  0  0  0  0  0  0  0  0  0  0  0
  152.1353  145.9233  159.2040 H   0  0  0  0  0  0  0  0  0  0  0  0
  152.6834  143.8870  157.8978 H   0  0  0  0  0  0  0  0  0  0  0  0
  153.7676  144.0899  160.0920 H   0  0  0  0  0  0  0  0  0  0  0  0
  152.3763  143.3973  160.8880 H   0  0  0  0  0  0  0  0  0  0  0  0
  154.2723  141.9620  158.9765 H   0  0  0  0  0  0  0  0  0  0  0  0
  154.0611  141.6470  160.6831 H   0  0  0  0  0  0  0  0  0  0  0  0
  152.8375  139.9497  159.3505 H   0  0  0  0  0  0  0  0  0  0  0  0
  151.7152  140.8874  160.2783 H   0  0  0  0  0  0  0  0  0  0  0  0
  150.9696  142.5638  156.0126 H   0  0  0  0  0  0  0  0  0  0  0  0
  151.5189  141.2803  154.9322 H   0  0  0  0  0  0  0  0  0  0  0  0
  149.5716  139.9873  155.7430 H   0  0  0  0  0  0  0  0  0  0  0  0
  148.9618  142.5923  154.5501 H   0  0  0  0  0  0  0  0  0  0  0  0
  149.5854  141.2076  153.6597 H   0  0  0  0  0  0  0  0  0  0  0  0
  147.4241  140.4848  153.4148 H   0  0  0  0  0  0  0  0  0  0  0  0
  147.3941  140.1546  155.1361 H   0  0  0  0  0  0  0  0  0  0  0  0
  146.8771  143.2576  152.8728 H   0  0  0  0  0  0  0  0  0  0  0  0
  144.8191  144.6638  153.9831 H   0  0  0  0  0  0  0  0  0  0  0  0
  144.2084  143.1884  156.2491 H   0  0  0  0  0  0  0  0  0  0  0  0
  150.3397  142.5673  159.3507 H   0  0  0  0  0  0  0  0  0  0  0  0
  150.3725  142.9833  157.6635 H   0  0  0  0  0  0  0  0  0  0  0  0
  1  2  1  0  0  0  0
  1 19  1  0  0  0  0
  1 20  1  0  0  0  0
  1 21  1  0  0  0  0
  2 18  1  0  0  0  0
  2  3  1  0  0  0  0
  2 22  1  0  0  0  0
  3  4  1  0  0  0  0
  3 23  1  0  0  0  0
  3 24  1  0  0  0  0
  4  5  1  0  0  0  0
  4 25  1  0  0  0  0
  4 26  1  0  0  0  0
  5  6  1  0  0  0  0
  5 27  1  0  0  0  0
  5 28  1  0  0  0  0
  6  7  1  0  0  0  0
  6 18  1  0  0  0  0
  7  8  2  0  0  0  0
  7  9  1  0  0  0  0
  9 10  1  0  0  0  0
  9 29  1  0  0  0  0
  9 30  1  0  0  0  0
 10 11  1  0  0  0  0
 10 31  1  0  0  0  0
 11 12  1  0  0  0  0
 11 32  1  0  0  0  0
 11 33  1  0  0  0  0
 12 13  1  0  0  0  0
 12 34  1  0  0  0  0
 12 35  1  0  0  0  0
 13 17  1  0  0  0  0
 13 14  1  0  0  0  0
 14 15  2  0  0  0  0
 14 36  1  0  0  0  0
 15 16  1  0  0  0  0
 15 37  1  0  0  0  0
 16 17  2  0  0  0  0
 16 38  1  0  0  0  0
 18 39  1  0  0  0  0
 18 40  1  0  0  0  0
M  END
> <s_m_source_file>
AV-unprocessed.smi

> <i_m_source_file_index>
3327

> <i_lp_mmshare_version>
43012

> <i_f3d_flags>
0

> <s_epik_input>
W0NIM11bQ0BASF0xW0NIMl1bQ0gyXVtDSDJdTihbQ0gyXTEpQyg9TylbQ0gyXVtOSF1bQ0gyXVtDSDJdbjJbY0hdW2NIXVtjSF1uMg==

> <s_epik_cmdline>
J2VwaWtfcHl0aG9uJywgJy1waCcsICc3LjAnLCAnLXRuJywgJzgnLCAnLW1hJywgJzIwMCcsICctbWV0YWxfYmluZGluZycsICctaW1hZScsICc8aW5maWxlLm1hZT4nLCAnLW9tYWUnLCAnPG91dGZpbGUubWFlPic=

> <r_lp_tautomer_probability>
1

> <r_epik_Ionization_Penalty>
0.752964

> <r_epik_Ionization_Penalty_Charging>
0

> <r_epik_Ionization_Penalty_Neutral>
0.752964

> <r_epik_State_Penalty>
0.778238

> <r_epik_Charging_Adjusted_Penalty>
0.778238

> <i_epik_Tot_Q>
0

> <i_epik_Tot_abs_Q>
0

> <r_epik_Metal_State_Penalty>
0.776974

> <b_epik_Metal_Only>
0

> <s_lp_Force_Field>
OPLS_2005

> <r_lp_Energy>
25.5335

> <b_lp_Chiralities_Consistent>
1

> <s_lp_Variant>
AV-unprocessed.smi:3327-4

> <Gold.Version>
5.8.1

> <Gold.Id.Protein>
6NUR|6NUR_protein|mol2

> <Gold.PLP.Fitness>
45.2665

> <Gold.PLP.PLP>
-43.7775

> <Gold.PLP.part.hbond>
-1.0000

> <Gold.PLP.part.metal>
0.0000

> <Gold.PLP.part.buried>
-6.4948

> <Gold.PLP.part.nonpolar>
-35.4236

> <Gold.PLP.part.repulsive>
0.1077

> <Gold.PLP.ligand.clash>
0.0000

> <Gold.PLP.ligand.torsion>
0.7827

> <Gold.PLP.Chemscore.Hbond>
1.0000

> <Gold.PLP.Chemscore.CHOScore>
0.0000

> <Gold.PLP.Chemscore.Metal>
0.0000

> <Gold.Chemscore.Hbonds>
donor molecule, donor type, donor heavy atom, donor atom, acceptor molecule, acceptor atom, score
      P1  H  7997  8009       L1     8  1.00

> <Gold.PLP.Chemscore.Internal.Correction>
0.0545

> <Gold.Rescore>
     Score         DG    S(hbond)    S(metal)    S(lipo)     H(rot)  DE(clash)    DE(int)     intcor
     15.78     -16.73       0.98        0.00     105.88       1.73       0.14       0.80       ----

> <Gold.Chemscore.Fitness>
15.7780

> <Gold.Chemscore.DG>
-16.7259

> <Gold.Chemscore.ZeroCoef>
-5.4800

> <Gold.Chemscore.Hbond>
0.9838

> <Gold.Chemscore.Metal>
0.0000

> <Gold.Chemscore.Lipo>
105.8776

> <Gold.Chemscore.Internal_Hbond>
0.0000

> <Gold.Chemscore.DEClash>
0.1433

> <Gold.Chemscore.DEInternal>
0.8046

> <Gold.Chemscore.Rot>
1.7296

> <Gold.Chemscore.Internal.Correction>
   9.000000E+99

> <Gold.Chemscore.Hbonds>
donor molecule, donor type, donor heavy atom, donor atom, acceptor molecule, acceptor atom, score
      P1  H  7997  8009       L1     8  0.86

> <Gold.Chemscore.Hbond.Weighted>
-3.2860

> <Gold.Chemscore.Metal.Weighted>
-0.0000

> <Gold.Chemscore.Lipo.Weighted>
-12.3877

> <Gold.Chemscore.Internal_Hbond.Weighted>
0.0000

> <Gold.Chemscore.DEClash.Weighted>
0.1433

> <Gold.Chemscore.DEInternal.Weighted>
0.8046

> <Gold.Chemscore.Rot.Weighted>
4.4278

> <Gold.Chemscore.Internal.Correction.Weighted>
   9.000000E+99

> <Gold.Protein.RotatedTorsions>
[ 6907 6896 6895 6894 ] final -157.16 input  -60.11 | X-H torsion
[ 7974 7965 7964 7962 ] final  108.77 input  175.53 | X-H torsion
[ 8008 7997 7996 7995 ] final -172.37 input   59.86 | X-H torsion
[ 10167 10162 10161 10158 ] final -131.34 input  -65.29 | X-H torsion
[ 10718 10713 10712 10709 ] final  -80.93 input   66.30 | X-H torsion
[ 10763 10752 10751 10750 ] final    7.04 input  -60.55 | X-H torsion
[ 11005 11000 10999 10996 ] final -110.15 input  -57.11 | X-H torsion

> <Gold.Protein.ActiveResidues>
 VAL166  LYS551  ARG553  GLY616  TRP617  ASP618  TYR619  PRO620  LYS621  CYS622 
 ASP623  PHE694  ASN695  SER759  ASP760  ASP761  ALA762  ILE779  LEU786  VAL792 
 PHE793  MET794  SER795  GLU796  ALA797  LYS798  CYS799  TRP800  GLU811  SER814 

> <Gold.Protein.RotatedAtoms>
  151.2987  133.4132  159.2637 H   0  0  0  0  0  0  0  0  0  0  0  0  # atno 6907 bound_to 6896
  151.0214  134.9472  159.8072 H   0  0  0  0  0  0  0  0  0  0  0  0  # atno 6908 bound_to 6896
  152.5325  134.2950  159.9109 H   0  0  0  0  0  0  0  0  0  0  0  0  # atno 6909 bound_to 6896
  145.2764  139.2648  143.3939 H   0  0  0  0  0  0  0  0  0  0  0  0  # atno 7974 bound_to 7965
  155.9437  140.1113  157.1034 H   0  0  0  0  0  0  0  0  0  0  0  0  # atno 8008 bound_to 7997
  154.4094  140.1214  156.5027 H   0  0  0  0  0  0  0  0  0  0  0  0  # atno 8009 bound_to 7997
  155.6930  140.3472  155.4903 H   0  0  0  0  0  0  0  0  0  0  0  0  # atno 8010 bound_to 7997
  139.9199  143.6394  152.2556 H   0  0  0  0  0  0  0  0  0  0  0  0  # atno 10167 bound_to 10162
  156.0060  130.4589  150.3875 H   0  0  0  0  0  0  0  0  0  0  0  0  # atno 10718 bound_to 10713
  153.2408  135.6903  153.7785 H   0  0  0  0  0  0  0  0  0  0  0  0  # atno 10763 bound_to 10752
  153.6915  135.3312  155.3204 H   0  0  0  0  0  0  0  0  0  0  0  0  # atno 10764 bound_to 10752
  154.8354  135.4546  154.1329 H   0  0  0  0  0  0  0  0  0  0  0  0  # atno 10765 bound_to 10752
  141.0808  133.9223  157.2293 H   0  0  0  0  0  0  0  0  0  0  0  0  # atno 11005 bound_to 11000
  146.3230  140.3220  142.8634 LP  0  0  0  0  0  0  0  0  0  0  0  0  # atno 17320 bound_to 7965
  144.9291  140.7954  143.5700 LP  0  0  0  0  0  0  0  0  0  0  0  0  # atno 17321 bound_to 7965
  139.6870  144.7650  151.1505 LP  0  0  0  0  0  0  0  0  0  0  0  0  # atno 17342 bound_to 10162
  140.7665  143.5642  150.9065 LP  0  0  0  0  0  0  0  0  0  0  0  0  # atno 17343 bound_to 10162
  157.1951  131.0425  151.2680 LP  0  0  0  0  0  0  0  0  0  0  0  0  # atno 17370 bound_to 10713
  157.4026  130.7341  149.6778 LP  0  0  0  0  0  0  0  0  0  0  0  0  # atno 17371 bound_to 10713
  139.9622  135.0151  156.9291 LP  0  0  0  0  0  0  0  0  0  0  0  0  # atno 17394 bound_to 11000
  140.5473  134.0662  155.7358 LP  0  0  0  0  0  0  0  0  0  0  0  0  # atno 17395 bound_to 11000

$$$$
