AV-unprocessed.smi:158|AV-procd|sdf|1325|dock8
  -GOLD-   2262019 23D 1   1.00000     0.00000
 Structure written by MMmdl.
 31 33  0  0  0  0  0  0  0  0  1 V2000
  149.8920  138.4308  153.5884 N   0  0  0  0  0  0  0  0  0  0  0  0
  149.9373  138.7040  154.8996 C   0  0  0  0  0  0  0  0  0  0  0  0
  149.6732  137.7063  155.7748 N   0  0  0  0  0  0  0  0  0  0  0  0
  149.7068  137.9373  157.0930 C   0  0  0  0  0  0  0  0  0  0  0  0
  149.3540  136.5959  158.1167 Cl  0  0  0  0  0  0  0  0  0  0  0  0
  149.9837  139.0924  157.7066 N   0  0  0  0  0  0  0  0  0  0  0  0
  150.2511  140.1015  156.8273 C   0  0  0  0  0  0  0  0  0  0  0  0
  150.2476  139.9875  155.4116 C   0  0  0  0  0  0  0  0  0  0  0  0
  150.5614  141.2114  154.8362 N   0  0  0  0  0  0  0  0  0  0  0  0
  150.7380  142.0028  155.8605 C   0  0  0  0  0  0  0  0  0  0  0  0
  150.5692  141.4179  157.0964 N   0  0  0  0  0  0  0  0  0  0  0  0
  150.7033  142.0666  158.4381 C   0  0  2  0  0  0  0  0  0  0  0  0
  151.1400  143.3829  158.2736 O   0  0  0  0  0  0  0  0  0  0  0  0
  152.3012  143.6230  159.0661 C   0  0  1  0  0  0  0  0  0  0  0  0
  152.3139  145.0665  159.5977 C   0  0  0  0  0  0  0  0  0  0  0  0
  151.2296  145.2760  160.4773 O   0  0  0  0  0  0  0  0  0  0  0  0
  152.3225  142.4959  160.1110 C   0  0  1  0  0  0  0  0  0  0  0  0
  151.5528  142.7994  161.2595 O   0  0  0  0  0  0  0  0  0  0  0  0
  151.7094  141.3412  159.3441 C   0  0  2  0  0  0  0  0  0  0  0  0
  152.6511  140.7284  158.6227 F   0  0  0  0  0  0  0  0  0  0  0  0
  149.6938  142.0755  158.8508 H   0  0  0  0  0  0  0  0  0  0  0  0
  153.1570  143.4861  158.4029 H   0  0  0  0  0  0  0  0  0  0  0  0
  153.3383  142.2719  160.4390 H   0  0  0  0  0  0  0  0  0  0  0  0
  151.2213  140.5896  159.9656 H   0  0  0  0  0  0  0  0  0  0  0  0
  150.0849  139.1597  152.9163 H   0  0  0  0  0  0  0  0  0  0  0  0
  149.6620  137.4992  153.2746 H   0  0  0  0  0  0  0  0  0  0  0  0
  150.9968  143.0449  155.7413 H   0  0  0  0  0  0  0  0  0  0  0  0
  153.2388  145.2504  160.1447 H   0  0  0  0  0  0  0  0  0  0  0  0
  152.2762  145.7932  158.7860 H   0  0  0  0  0  0  0  0  0  0  0  0
  150.4758  145.5336  159.9685 H   0  0  0  0  0  0  0  0  0  0  0  0
  152.0831  143.3217  161.8426 H   0  0  0  0  0  0  0  0  0  0  0  0
  1  2  1  0  0  0  0
  1 25  1  0  0  0  0
  1 26  1  0  0  0  0
  2  8  1  0  0  0  0
  2  3  2  0  0  0  0
  3  4  1  0  0  0  0
  4  5  1  0  0  0  0
  4  6  2  0  0  0  0
  6  7  1  0  0  0  0
  7 11  1  0  0  0  0
  7  8  2  0  0  0  0
  8  9  1  0  0  0  0
  9 10  2  0  0  0  0
 10 11  1  0  0  0  0
 10 27  1  0  0  0  0
 11 12  1  0  0  0  0
 12 21  1  0  0  0  0
 12 19  1  0  0  0  0
 12 13  1  0  0  0  0
 13 14  1  0  0  0  0
 14 22  1  0  0  0  0
 14 15  1  0  0  0  0
 14 17  1  0  0  0  0
 15 16  1  0  0  0  0
 15 28  1  0  0  0  0
 15 29  1  0  0  0  0
 16 30  1  0  0  0  0
 17 23  1  0  0  0  0
 17 18  1  0  0  0  0
 17 19  1  0  0  0  0
 18 31  1  0  0  0  0
 19 24  1  0  0  0  0
 19 20  1  0  0  0  0
M  END
> <s_m_source_file>
AV-unprocessed.smi

> <i_m_source_file_index>
158

> <i_lp_mmshare_version>
43012

> <i_f3d_flags>
0

> <s_epik_input>
Q2xjKG4xKW5jKFtOSDJdKWMoYzEyKW5bY0hdbjJbQ0BASF0zT1tDQEhdKFtDSDJdW09IXSlbQ0BASF0oW09IXSlbQ0BASF0zRg==

> <s_epik_cmdline>
J2VwaWtfcHl0aG9uJywgJy1waCcsICc3LjAnLCAnLXRuJywgJzgnLCAnLW1hJywgJzIwMCcsICctbWV0YWxfYmluZGluZycsICctaW1hZScsICc8aW5maWxlLm1hZT4nLCAnLW9tYWUnLCAnPG91dGZpbGUubWFlPic=

> <r_lp_tautomer_probability>
1

> <r_epik_Ionization_Penalty>
6.51543e-05

> <r_epik_Ionization_Penalty_Charging>
0

> <r_epik_Ionization_Penalty_Neutral>
6.51543e-05

> <r_epik_State_Penalty>
-0

> <r_epik_Charging_Adjusted_Penalty>
0

> <i_epik_Tot_Q>
0

> <i_epik_Tot_abs_Q>
0

> <r_epik_Metal_State_Penalty>
-0

> <b_epik_Metal_Only>
0

> <s_epik_Chemistry_Notes>
This compound contains an acetal/aminal-like group ( X-CH(R)-Y where X, Y are N, S, or O) that may be acid/base labile, releasing an aldehyde.

> <s_lp_Force_Field>
OPLS_2005

> <r_lp_Energy>
35.164

> <b_lp_Chiralities_Consistent>
1

> <s_lp_Variant>
AV-unprocessed.smi:158-3

> <Gold.Version>
5.8.1

> <Gold.Id.Protein>
6NUR|6NUR_protein|mol2

> <Gold.PLP.Fitness>
44.5747

> <Gold.PLP.PLP>
-32.7639

> <Gold.PLP.part.hbond>
-5.0000

> <Gold.PLP.part.metal>
0.0000

> <Gold.PLP.part.buried>
-4.7475

> <Gold.PLP.part.nonpolar>
-23.3924

> <Gold.PLP.part.repulsive>
0.3394

> <Gold.PLP.ligand.clash>
0.0000

> <Gold.PLP.ligand.torsion>
0.0511

> <Gold.PLP.Chemscore.Hbond>
3.1154

> <Gold.PLP.Chemscore.CHOScore>
0.8555

> <Gold.PLP.Chemscore.Metal>
0.0000

> <Gold.Chemscore.Hbonds>
donor molecule, donor type, donor heavy atom, donor atom, acceptor molecule, acceptor atom, score
      L1  H     1    25       P1  7957  0.96
      L1  H     1    26       P1  7948  1.00
      P1  H  6933  6945       L1    18  0.39
      P1  H  7989  7998       L1     9  0.58
      L1  C    10    27       P1  8028  0.43

> <Gold.PLP.Chemscore.Internal.Correction>
0.0004

> <Gold.Rescore>
     Score         DG    S(hbond)    S(metal)    S(lipo)     H(rot)  DE(clash)    DE(int)     intcor
     12.15     -12.37       2.74        0.00      49.15       3.12       0.22       0.00       ----

> <Gold.Chemscore.Fitness>
12.1488

> <Gold.Chemscore.DG>
-12.3747

> <Gold.Chemscore.ZeroCoef>
-5.4800

> <Gold.Chemscore.Hbond>
2.7364

> <Gold.Chemscore.Metal>
0.0000

> <Gold.Chemscore.Lipo>
49.1463

> <Gold.Chemscore.Internal_Hbond>
0.0000

> <Gold.Chemscore.DEClash>
0.2242

> <Gold.Chemscore.DEInternal>
0.0016

> <Gold.Chemscore.Rot>
3.1230

> <Gold.Chemscore.Internal.Correction>
   9.000000E+99

> <Gold.Chemscore.Hbonds>
donor molecule, donor type, donor heavy atom, donor atom, acceptor molecule, acceptor atom, score
      L1  H     1    25       P1  7957  0.78
      L1  H     1    26       P1  7948  0.68
      P1  H  6933  6945       L1    18  0.34
      P1  H  7989  7998       L1     9  0.38

> <Gold.Chemscore.Hbond.Weighted>
-9.1395

> <Gold.Chemscore.Metal.Weighted>
-0.0000

> <Gold.Chemscore.Lipo.Weighted>
-5.7501

> <Gold.Chemscore.Internal_Hbond.Weighted>
0.0000

> <Gold.Chemscore.DEClash.Weighted>
0.2242

> <Gold.Chemscore.DEInternal.Weighted>
0.0016

> <Gold.Chemscore.Rot.Weighted>
7.9950

> <Gold.Chemscore.Internal.Correction.Weighted>
   9.000000E+99

> <Gold.Protein.RotatedTorsions>
[ 6907 6896 6895 6894 ] final -129.33 input  -60.11 | X-H torsion
[ 7974 7965 7964 7962 ] final    9.43 input  175.53 | X-H torsion
[ 8008 7997 7996 7995 ] final  100.91 input   59.86 | X-H torsion
[ 10167 10162 10161 10158 ] final  -50.87 input  -65.29 | X-H torsion
[ 10718 10713 10712 10709 ] final  -52.58 input   66.30 | X-H torsion
[ 10763 10752 10751 10750 ] final   99.91 input  -60.55 | X-H torsion
[ 11005 11000 10999 10996 ] final   19.48 input  -57.11 | X-H torsion

> <Gold.Protein.ActiveResidues>
 VAL166  LYS551  ARG553  GLY616  TRP617  ASP618  TYR619  PRO620  LYS621  CYS622 
 ASP623  PHE694  ASN695  SER759  ASP760  ASP761  ALA762  ILE779  LEU786  VAL792 
 PHE793  MET794  SER795  GLU796  ALA797  LYS798  CYS799  TRP800  GLU811  SER814 

> <Gold.Protein.RotatedAtoms>
  150.9275  133.6806  159.2817 H   0  0  0  0  0  0  0  0  0  0  0  0  # atno 6907 bound_to 6896
  151.4239  135.1000  159.9632 H   0  0  0  0  0  0  0  0  0  0  0  0  # atno 6908 bound_to 6896
  152.5010  133.8721  159.7358 H   0  0  0  0  0  0  0  0  0  0  0  0  # atno 6909 bound_to 6896
  146.2403  139.9784  142.8439 H   0  0  0  0  0  0  0  0  0  0  0  0  # atno 7974 bound_to 7965
  156.1249  140.3206  155.8262 H   0  0  0  0  0  0  0  0  0  0  0  0  # atno 8008 bound_to 7997
  155.4438  140.0527  157.3025 H   0  0  0  0  0  0  0  0  0  0  0  0  # atno 8009 bound_to 7997
  154.4854  140.2070  155.9680 H   0  0  0  0  0  0  0  0  0  0  0  0  # atno 8010 bound_to 7997
  140.6616  143.2641  151.4422 H   0  0  0  0  0  0  0  0  0  0  0  0  # atno 10167 bound_to 10162
  156.1609  130.4149  149.9795 H   0  0  0  0  0  0  0  0  0  0  0  0  # atno 10718 bound_to 10713
  153.3074  135.4097  155.1306 H   0  0  0  0  0  0  0  0  0  0  0  0  # atno 10763 bound_to 10752
  154.8566  135.3556  154.5770 H   0  0  0  0  0  0  0  0  0  0  0  0  # atno 10764 bound_to 10752
  153.6197  135.7065  153.5373 H   0  0  0  0  0  0  0  0  0  0  0  0  # atno 10765 bound_to 10752
  140.4133  134.1595  155.7668 H   0  0  0  0  0  0  0  0  0  0  0  0  # atno 11005 bound_to 11000
  145.1615  140.9675  143.4374 LP  0  0  0  0  0  0  0  0  0  0  0  0  # atno 17320 bound_to 7965
  145.0112  139.3508  143.6119 LP  0  0  0  0  0  0  0  0  0  0  0  0  # atno 17321 bound_to 7965
  139.5852  144.1620  152.2019 LP  0  0  0  0  0  0  0  0  0  0  0  0  # atno 17342 bound_to 10162
  140.0958  144.5582  150.7023 LP  0  0  0  0  0  0  0  0  0  0  0  0  # atno 17343 bound_to 10162
  156.7624  130.9156  151.3642 LP  0  0  0  0  0  0  0  0  0  0  0  0  # atno 17370 bound_to 10713
  157.6731  130.9070  150.0087 LP  0  0  0  0  0  0  0  0  0  0  0  0  # atno 17371 bound_to 10713
  141.1813  133.8408  157.1249 LP  0  0  0  0  0  0  0  0  0  0  0  0  # atno 17394 bound_to 11000
  140.0252  134.9927  157.0671 LP  0  0  0  0  0  0  0  0  0  0  0  0  # atno 17395 bound_to 11000

$$$$
