AV-unprocessed.smi:674|AV-procd|sdf|3300|dock10
  -GOLD-   22720 0263D 1   1.00000     0.00000
 Structure written by MMmdl.
 47 48  0  0  0  0  0  0  0  0  1 V2000
  145.8445  143.0200  154.3292 C   0  0  0  0  0  0  0  0  0  0  0  0
  147.1092  142.1600  154.4350 C   0  0  0  0  0  0  0  0  0  0  0  0
  146.8294  140.7080  154.1658 C   0  0  0  0  0  0  0  0  0  0  0  0
  147.1805  139.9498  153.0112 C   0  0  0  0  0  0  0  0  0  0  0  0
  146.6818  138.7090  153.3005 C   0  0  0  0  0  0  0  0  0  0  0  0
  146.7212  137.5786  152.5461 N   0  0  0  0  0  0  0  0  0  0  0  0
  145.7021  136.7980  152.1469 C   0  0  0  0  0  0  0  0  0  0  0  0
  144.5094  137.0077  152.3697 O   0  0  0  0  0  0  0  0  0  0  0  0
  146.1469  135.7377  151.4594 N   0  0  0  0  0  0  0  0  0  0  0  0
  145.2877  134.7002  150.8992 C   0  0  1  0  0  0  0  0  0  0  0  0
  146.0649  133.4534  150.4826 C   0  0  0  0  0  0  0  0  0  0  0  0
  144.8481  132.6425  150.9655 C   0  0  1  0  0  0  0  0  0  0  0  0
  143.7846  132.2535  149.9268 C   0  0  0  0  0  0  0  0  0  0  0  0
  145.2272  131.4943  151.7263 O   0  0  0  0  0  0  0  0  0  0  0  0
  145.8390  130.4331  151.0045 C   0  0  0  0  0  0  0  0  0  0  0  0
  144.5510  133.8243  151.9453 C   0  0  0  0  0  0  0  0  0  0  0  0
  145.1932  133.7237  153.3438 C   0  0  0  0  0  0  0  0  0  0  0  0
  143.0774  134.1675  152.1857 C   0  0  0  0  0  0  0  0  0  0  0  0
  146.0784  138.7503  154.5392 N   0  0  0  0  0  0  0  0  0  0  0  0
  145.4090  137.7052  155.2896 C   0  0  0  0  0  0  0  0  0  0  0  0
  146.1745  139.9878  155.0702 N   0  0  0  0  0  0  0  0  0  0  0  0
  146.0711  144.0695  154.5175 H   0  0  0  0  0  0  0  0  0  0  0  0
  145.0925  142.7070  155.0542 H   0  0  0  0  0  0  0  0  0  0  0  0
  145.4024  142.9478  153.3352 H   0  0  0  0  0  0  0  0  0  0  0  0
  147.8549  142.5291  153.7302 H   0  0  0  0  0  0  0  0  0  0  0  0
  147.5476  142.2790  155.4266 H   0  0  0  0  0  0  0  0  0  0  0  0
  147.7070  140.2824  152.1295 H   0  0  0  0  0  0  0  0  0  0  0  0
  147.6433  137.2852  152.2596 H   0  0  0  0  0  0  0  0  0  0  0  0
  147.1414  135.6358  151.3196 H   0  0  0  0  0  0  0  0  0  0  0  0
  144.6327  135.0545  150.1001 H   0  0  0  0  0  0  0  0  0  0  0  0
  146.2659  133.3834  149.4132 H   0  0  0  0  0  0  0  0  0  0  0  0
  146.9687  133.2816  151.0705 H   0  0  0  0  0  0  0  0  0  0  0  0
  143.3716  133.1261  149.4212 H   0  0  0  0  0  0  0  0  0  0  0  0
  142.9539  131.7216  150.3909 H   0  0  0  0  0  0  0  0  0  0  0  0
  144.1937  131.6131  149.1460 H   0  0  0  0  0  0  0  0  0  0  0  0
  146.1538  129.6608  151.7060 H   0  0  0  0  0  0  0  0  0  0  0  0
  146.7242  130.7652  150.4623 H   0  0  0  0  0  0  0  0  0  0  0  0
  145.1498  129.9677  150.3005 H   0  0  0  0  0  0  0  0  0  0  0  0
  144.7167  132.9491  153.9454 H   0  0  0  0  0  0  0  0  0  0  0  0
  145.1046  134.6593  153.8967 H   0  0  0  0  0  0  0  0  0  0  0  0
  146.2550  133.4817  153.2959 H   0  0  0  0  0  0  0  0  0  0  0  0
  142.5500  133.3431  152.6663 H   0  0  0  0  0  0  0  0  0  0  0  0
  142.5532  134.3921  151.2570 H   0  0  0  0  0  0  0  0  0  0  0  0
  142.9682  135.0448  152.8242 H   0  0  0  0  0  0  0  0  0  0  0  0
  145.2538  136.8234  154.6682 H   0  0  0  0  0  0  0  0  0  0  0  0
  144.4389  138.0628  155.6366 H   0  0  0  0  0  0  0  0  0  0  0  0
  146.0167  137.4282  156.1514 H   0  0  0  0  0  0  0  0  0  0  0  0
  1  2  1  0  0  0  0
  1 22  1  0  0  0  0
  1 23  1  0  0  0  0
  1 24  1  0  0  0  0
  2  3  1  0  0  0  0
  2 25  1  0  0  0  0
  2 26  1  0  0  0  0
  3 21  2  0  0  0  0
  3  4  1  0  0  0  0
  4  5  2  0  0  0  0
  4 27  1  0  0  0  0
  5  6  1  0  0  0  0
  5 19  1  0  0  0  0
  6  7  1  0  0  0  0
  6 28  1  0  0  0  0
  7  8  2  0  0  0  0
  7  9  1  0  0  0  0
  9 10  1  0  0  0  0
  9 29  1  0  0  0  0
 10 16  1  0  0  0  0
 10 11  1  0  0  0  0
 10 30  1  0  0  0  0
 11 12  1  0  0  0  0
 11 31  1  0  0  0  0
 11 32  1  0  0  0  0
 12 13  1  0  0  0  0
 12 14  1  0  0  0  0
 12 16  1  0  0  0  0
 13 33  1  0  0  0  0
 13 34  1  0  0  0  0
 13 35  1  0  0  0  0
 14 15  1  0  0  0  0
 15 36  1  0  0  0  0
 15 37  1  0  0  0  0
 15 38  1  0  0  0  0
 16 17  1  0  0  0  0
 16 18  1  0  0  0  0
 17 39  1  0  0  0  0
 17 40  1  0  0  0  0
 17 41  1  0  0  0  0
 18 42  1  0  0  0  0
 18 43  1  0  0  0  0
 18 44  1  0  0  0  0
 19 20  1  0  0  0  0
 19 21  1  0  0  0  0
 20 45  1  0  0  0  0
 20 46  1  0  0  0  0
 20 47  1  0  0  0  0
M  END
> <s_m_source_file>
AV-unprocessed.smi

> <i_m_source_file_index>
674

> <i_lp_mmshare_version>
43012

> <i_f3d_flags>
0

> <s_epik_input>
W0NIM11bQ0gyXWMxW2NIXWMobihuMSlbQ0gzXSlbTkhdQyg9TylbTkhdW0NAQEhdKEMyKFtDSDNdKVtDSDNdKVtDSDJdW0NAQF0yKFtDSDNdKU9bQ0gzXQ==

> <s_epik_cmdline>
J2VwaWtfcHl0aG9uJywgJy1waCcsICc3LjAnLCAnLXRuJywgJzgnLCAnLW1hJywgJzIwMCcsICctbWV0YWxfYmluZGluZycsICctaW1hZScsICc8aW5maWxlLm1hZT4nLCAnLW9tYWUnLCAnPG91dGZpbGUubWFlPic=

> <r_lp_tautomer_probability>
1

> <r_epik_Ionization_Penalty>
0.000101626

> <r_epik_Ionization_Penalty_Charging>
0

> <r_epik_Ionization_Penalty_Neutral>
0.000101626

> <r_epik_State_Penalty>
-0

> <r_epik_Charging_Adjusted_Penalty>
0

> <i_epik_Tot_Q>
0

> <i_epik_Tot_abs_Q>
0

> <r_epik_Metal_State_Penalty>
-0

> <b_epik_Metal_Only>
0

> <s_lp_Force_Field>
OPLS_2005

> <r_lp_Energy>
22.8754

> <b_lp_Chiralities_Consistent>
1

> <s_lp_Variant>
AV-unprocessed.smi:674-2

> <Gold.Version>
5.8.1

> <Gold.Id.Protein>
6NUR|6NUR_protein|mol2

> <Gold.PLP.Fitness>
41.1826

> <Gold.PLP.PLP>
-36.5008

> <Gold.PLP.part.hbond>
-2.0000

> <Gold.PLP.part.metal>
0.0000

> <Gold.PLP.part.buried>
-5.7383

> <Gold.PLP.part.nonpolar>
-30.9863

> <Gold.PLP.part.repulsive>
1.3787

> <Gold.PLP.ligand.clash>
0.0000

> <Gold.PLP.ligand.torsion>
0.8374

> <Gold.PLP.Chemscore.Hbond>
1.9920

> <Gold.PLP.Chemscore.CHOScore>
0.0000

> <Gold.PLP.Chemscore.Metal>
0.0000

> <Gold.Chemscore.Hbonds>
donor molecule, donor type, donor heavy atom, donor atom, acceptor molecule, acceptor atom, score
      L1  H     6    28       P1  7948  1.00
      L1  H     9    29       P1  7948  0.96

> <Gold.PLP.Chemscore.Internal.Correction>
0.3805

> <Gold.Rescore>
     Score         DG    S(hbond)    S(metal)    S(lipo)     H(rot)  DE(clash)    DE(int)     intcor
     16.72     -17.71       1.95        0.00      78.87       1.37       0.11       0.88       ----

> <Gold.Chemscore.Fitness>
16.7209

> <Gold.Chemscore.DG>
-17.7074

> <Gold.Chemscore.ZeroCoef>
-5.4800

> <Gold.Chemscore.Hbond>
1.9450

> <Gold.Chemscore.Metal>
0.0000

> <Gold.Chemscore.Lipo>
78.8669

> <Gold.Chemscore.Internal_Hbond>
0.0000

> <Gold.Chemscore.DEClash>
0.1077

> <Gold.Chemscore.DEInternal>
0.8788

> <Gold.Chemscore.Rot>
1.3658

> <Gold.Chemscore.Internal.Correction>
   9.000000E+99

> <Gold.Chemscore.Hbonds>
donor molecule, donor type, donor heavy atom, donor atom, acceptor molecule, acceptor atom, score
      L1  H     6    28       P1  7948  1.00
      L1  H     9    29       P1  7948  0.89

> <Gold.Chemscore.Hbond.Weighted>
-6.4963

> <Gold.Chemscore.Metal.Weighted>
-0.0000

> <Gold.Chemscore.Lipo.Weighted>
-9.2274

> <Gold.Chemscore.Internal_Hbond.Weighted>
0.0000

> <Gold.Chemscore.DEClash.Weighted>
0.1077

> <Gold.Chemscore.DEInternal.Weighted>
0.8788

> <Gold.Chemscore.Rot.Weighted>
3.4963

> <Gold.Chemscore.Internal.Correction.Weighted>
   9.000000E+99

> <Gold.Protein.RotatedTorsions>
[ 6907 6896 6895 6894 ] final -108.68 input  -60.11 | X-H torsion
[ 7974 7965 7964 7962 ] final -178.98 input  175.53 | X-H torsion
[ 8008 7997 7996 7995 ] final    7.12 input   59.86 | X-H torsion
[ 10167 10162 10161 10158 ] final  -48.55 input  -65.29 | X-H torsion
[ 10718 10713 10712 10709 ] final  -68.44 input   66.30 | X-H torsion
[ 10763 10752 10751 10750 ] final   74.28 input  -60.55 | X-H torsion
[ 11005 11000 10999 10996 ] final   88.77 input  -57.11 | X-H torsion

> <Gold.Protein.ActiveResidues>
 VAL166  LYS551  ARG553  GLY616  TRP617  ASP618  TYR619  PRO620  LYS621  CYS622 
 ASP623  PHE694  ASN695  SER759  ASP760  ASP761  ALA762  ILE779  LEU786  VAL792 
 PHE793  MET794  SER795  GLU796  ALA797  LYS798  CYS799  TRP800  GLU811  SER814 

> <Gold.Protein.RotatedAtoms>
  150.7516  133.9641  159.3524 H   0  0  0  0  0  0  0  0  0  0  0  0  # atno 6907 bound_to 6896
  151.7570  135.0817  160.0349 H   0  0  0  0  0  0  0  0  0  0  0  0  # atno 6908 bound_to 6896
  152.3429  133.6050  159.5925 H   0  0  0  0  0  0  0  0  0  0  0  0  # atno 6909 bound_to 6896
  144.7134  140.0787  143.6426 H   0  0  0  0  0  0  0  0  0  0  0  0  # atno 7974 bound_to 7965
  154.7497  140.2764  155.6303 H   0  0  0  0  0  0  0  0  0  0  0  0  # atno 8008 bound_to 7997
  156.2893  140.2681  156.2174 H   0  0  0  0  0  0  0  0  0  0  0  0  # atno 8009 bound_to 7997
  155.0152  140.0372  157.2405 H   0  0  0  0  0  0  0  0  0  0  0  0  # atno 8010 bound_to 7997
  140.6726  143.2735  151.4086 H   0  0  0  0  0  0  0  0  0  0  0  0  # atno 10167 bound_to 10162
  156.0505  130.4295  150.2001 H   0  0  0  0  0  0  0  0  0  0  0  0  # atno 10718 bound_to 10713
  153.0576  135.5031  154.8019 H   0  0  0  0  0  0  0  0  0  0  0  0  # atno 10763 bound_to 10752
  154.6832  135.2972  154.9586 H   0  0  0  0  0  0  0  0  0  0  0  0  # atno 10764 bound_to 10752
  154.0365  135.6722  153.4838 H   0  0  0  0  0  0  0  0  0  0  0  0  # atno 10765 bound_to 10752
  139.8889  134.8509  156.3047 H   0  0  0  0  0  0  0  0  0  0  0  0  # atno 11005 bound_to 11000
  145.9721  139.2877  143.1092 LP  0  0  0  0  0  0  0  0  0  0  0  0  # atno 17320 bound_to 7965
  145.9105  140.9183  143.0456 LP  0  0  0  0  0  0  0  0  0  0  0  0  # atno 17321 bound_to 7965
  139.6002  144.1313  152.2189 LP  0  0  0  0  0  0  0  0  0  0  0  0  # atno 17342 bound_to 10162
  140.0694  144.5791  150.7203 LP  0  0  0  0  0  0  0  0  0  0  0  0  # atno 17343 bound_to 10162
  157.0085  130.9944  151.3372 LP  0  0  0  0  0  0  0  0  0  0  0  0  # atno 17370 bound_to 10713
  157.5426  130.8130  149.8047 LP  0  0  0  0  0  0  0  0  0  0  0  0  # atno 17371 bound_to 10713
  140.9890  133.7220  156.0785 LP  0  0  0  0  0  0  0  0  0  0  0  0  # atno 17394 bound_to 11000
  140.7650  134.3896  157.5518 LP  0  0  0  0  0  0  0  0  0  0  0  0  # atno 17395 bound_to 11000

$$$$
