AV-unprocessed.smi:3183|AV-procd|sdf|12157|dock5
  -GOLD-   2272017593D 1   1.00000     0.00000
 Structure written by MMmdl.
 43 44  0  0  0  0  0  0  0  0  2 V2000
  152.7743  143.7704  162.2716 C   0  0  0  0  0  0  0  0  0  0  0  0
  152.1436  143.3483  160.9343 C   0  0  2  0  0  0  0  0  0  0  0  0
  153.2079  142.8877  159.9195 C   0  0  0  0  0  0  0  0  0  0  0  0
  152.5620  142.3862  158.6186 C   0  0  0  0  0  0  0  0  0  0  0  0
  151.6425  143.4487  157.9898 C   0  0  1  0  0  0  0  0  0  0  0  0
  151.0184  142.9029  156.7638 N   0  3  0  0  0  0  0  0  0  0  0  0
  150.3227  141.6094  156.9293 C   0  0  0  0  0  0  0  0  0  0  0  0
  149.9845  140.9891  155.5658 C   0  0  0  0  0  0  0  0  0  0  0  0
  150.8106  139.7894  155.2139 C   0  0  0  0  0  0  0  0  0  0  0  0
  152.1587  139.5671  155.2937 C   0  0  0  0  0  0  0  0  0  0  0  0
  152.3221  138.2387  154.8135 C   0  0  0  0  0  0  0  0  0  0  0  0
  151.1759  137.6818  154.4647 N   0  0  0  0  0  0  0  0  0  0  0  0
  150.2480  138.6311  154.7081 N   0  0  0  0  0  0  0  0  0  0  0  0
  148.8530  138.3441  154.4345 C   0  0  0  0  0  0  0  0  0  0  0  0
  150.5811  143.9103  159.0143 C   0  0  0  0  0  0  0  0  0  0  0  0
  151.2077  144.4250  160.3279 C   0  0  2  0  0  0  0  0  0  0  0  0
  151.8703  145.8050  160.1391 C   0  0  0  0  0  0  0  0  0  0  0  0
  153.4906  144.5821  162.1436 H   0  0  0  0  0  0  0  0  0  0  0  0
  153.3073  142.9365  162.7295 H   0  0  0  0  0  0  0  0  0  0  0  0
  152.0137  144.1014  162.9793 H   0  0  0  0  0  0  0  0  0  0  0  0
  151.5201  142.4802  161.1545 H   0  0  0  0  0  0  0  0  0  0  0  0
  153.8976  143.7030  159.6992 H   0  0  0  0  0  0  0  0  0  0  0  0
  153.8113  142.0890  160.3528 H   0  0  0  0  0  0  0  0  0  0  0  0
  153.3425  142.1013  157.9119 H   0  0  0  0  0  0  0  0  0  0  0  0
  151.9908  141.4803  158.8275 H   0  0  0  0  0  0  0  0  0  0  0  0
  152.2610  144.2986  157.6984 H   0  0  0  0  0  0  0  0  0  0  0  0
  150.3314  143.5736  156.4499 H   0  0  0  0  0  0  0  0  0  0  0  0
  150.9519  140.9250  157.4980 H   0  0  0  0  0  0  0  0  0  0  0  0
  149.4073  141.7641  157.5022 H   0  0  0  0  0  0  0  0  0  0  0  0
  148.9305  140.7091  155.5518 H   0  0  0  0  0  0  0  0  0  0  0  0
  150.1089  141.7441  154.7886 H   0  0  0  0  0  0  0  0  0  0  0  0
  152.9195  140.2492  155.6432 H   0  0  0  0  0  0  0  0  0  0  0  0
  153.2325  137.6668  154.7096 H   0  0  0  0  0  0  0  0  0  0  0  0
  148.4200  139.1477  153.8388 H   0  0  0  0  0  0  0  0  0  0  0  0
  148.3060  138.2609  155.3738 H   0  0  0  0  0  0  0  0  0  0  0  0
  148.7530  137.4081  153.8833 H   0  0  0  0  0  0  0  0  0  0  0  0
  149.9476  144.6900  158.5915 H   0  0  0  0  0  0  0  0  0  0  0  0
  149.9162  143.0756  159.2420 H   0  0  0  0  0  0  0  0  0  0  0  0
  150.3874  144.5756  161.0311 H   0  0  0  0  0  0  0  0  0  0  0  0
  152.7503  145.7572  159.4986 H   0  0  0  0  0  0  0  0  0  0  0  0
  152.1791  146.2335  161.0924 H   0  0  0  0  0  0  0  0  0  0  0  0
  151.1742  146.5116  159.6867 H   0  0  0  0  0  0  0  0  0  0  0  0
  151.7260  142.8121  156.0487 H   0  0  0  0  0  0  0  0  0  0  0  0
  1  2  1  0  0  0  0
  1 18  1  0  0  0  0
  1 19  1  0  0  0  0
  1 20  1  0  0  0  0
  2 16  1  0  0  0  0
  2  3  1  0  0  0  0
  2 21  1  0  0  0  0
  3  4  1  0  0  0  0
  3 22  1  0  0  0  0
  3 23  1  0  0  0  0
  4  5  1  0  0  0  0
  4 24  1  0  0  0  0
  4 25  1  0  0  0  0
  5  6  1  0  0  0  0
  5 15  1  0  0  0  0
  5 26  1  0  0  0  0
  6  7  1  0  0  0  0
  6 27  1  0  0  0  0
  6 43  1  0  0  0  0
  7  8  1  0  0  0  0
  7 28  1  0  0  0  0
  7 29  1  0  0  0  0
  8  9  1  0  0  0  0
  8 30  1  0  0  0  0
  8 31  1  0  0  0  0
  9 13  1  0  0  0  0
  9 10  2  0  0  0  0
 10 11  1  0  0  0  0
 10 32  1  0  0  0  0
 11 12  2  0  0  0  0
 11 33  1  0  0  0  0
 12 13  1  0  0  0  0
 13 14  1  0  0  0  0
 14 34  1  0  0  0  0
 14 35  1  0  0  0  0
 14 36  1  0  0  0  0
 15 16  1  0  0  0  0
 15 37  1  0  0  0  0
 15 38  1  0  0  0  0
 16 17  1  0  0  0  0
 16 39  1  0  0  0  0
 17 40  1  0  0  0  0
 17 41  1  0  0  0  0
 17 42  1  0  0  0  0
M  CHG  1   6   1
M  END
> <s_m_source_file>
AV-unprocessed.smi

> <i_m_source_file_index>
3183

> <i_lp_mmshare_version>
43012

> <i_f3d_flags>
0

> <s_epik_input>
W0NIM11bQ0BASF0xW0NIMl1bQ0gyXVtDQEhdKFtDSDJdW0NASF0xW0NIM10pW05IXVtDSDJdW0NIMl1jMltjSF1bY0hdbm4yW0NIM10=

> <s_epik_cmdline>
J2VwaWtfcHl0aG9uJywgJy1waCcsICc3LjAnLCAnLXRuJywgJzgnLCAnLW1hJywgJzIwMCcsICctbWV0YWxfYmluZGluZycsICctaW1hZScsICc8aW5maWxlLm1hZT4nLCAnLW9tYWUnLCAnPG91dGZpbGUubWFlPic=

> <r_lp_tautomer_probability>
1

> <r_epik_Ionization_Penalty>
0.000327718

> <r_epik_Ionization_Penalty_Charging>
0.000294043

> <r_epik_Ionization_Penalty_Neutral>
3.36755e-05

> <r_epik_State_Penalty>
-0

> <r_epik_Charging_Adjusted_Penalty>
0.000294043

> <i_epik_Tot_Q>
1

> <i_epik_Tot_abs_Q>
1

> <r_epik_Metal_State_Penalty>
-0

> <b_epik_Metal_Only>
0

> <s_lp_Force_Field>
OPLS_2005

> <r_lp_Energy>
13.9597

> <b_lp_Chiralities_Consistent>
1

> <s_lp_Variant>
AV-unprocessed.smi:3183-5

> <Gold.Version>
5.8.1

> <Gold.Id.Protein>
6NUR|6NUR_protein|mol2

> <Gold.PLP.Fitness>
49.2281

> <Gold.PLP.PLP>
-44.3727

> <Gold.PLP.part.hbond>
-1.0000

> <Gold.PLP.part.metal>
0.0000

> <Gold.PLP.part.buried>
-4.3927

> <Gold.PLP.part.nonpolar>
-38.4936

> <Gold.PLP.part.repulsive>
0.2471

> <Gold.PLP.ligand.clash>
0.0000

> <Gold.PLP.ligand.torsion>
0.5760

> <Gold.PLP.Chemscore.Hbond>
2.0000

> <Gold.PLP.Chemscore.CHOScore>
0.0000

> <Gold.PLP.Chemscore.Metal>
0.0000

> <Gold.Chemscore.Hbonds>
donor molecule, donor type, donor heavy atom, donor atom, acceptor molecule, acceptor atom, score
      L1  H     6    27       P1  8028  2.00

> <Gold.PLP.Chemscore.Internal.Correction>
0.0074

> <Gold.Rescore>
     Score         DG    S(hbond)    S(metal)    S(lipo)     H(rot)  DE(clash)    DE(int)     intcor
     20.02     -20.86       0.99        0.00     133.36       1.38       0.31       0.54       ----

> <Gold.Chemscore.Fitness>
20.0172

> <Gold.Chemscore.DG>
-20.8627

> <Gold.Chemscore.ZeroCoef>
-5.4800

> <Gold.Chemscore.Hbond>
0.9893

> <Gold.Chemscore.Metal>
0.0000

> <Gold.Chemscore.Lipo>
133.3596

> <Gold.Chemscore.Internal_Hbond>
0.0000

> <Gold.Chemscore.DEClash>
0.3061

> <Gold.Chemscore.DEInternal>
0.5394

> <Gold.Chemscore.Rot>
1.3768

> <Gold.Chemscore.Internal.Correction>
   9.000000E+99

> <Gold.Chemscore.Hbonds>
donor molecule, donor type, donor heavy atom, donor atom, acceptor molecule, acceptor atom, score
      L1  H     6    27       P1  8028  0.96

> <Gold.Chemscore.Hbond.Weighted>
-3.3043

> <Gold.Chemscore.Metal.Weighted>
-0.0000

> <Gold.Chemscore.Lipo.Weighted>
-15.6031

> <Gold.Chemscore.Internal_Hbond.Weighted>
0.0000

> <Gold.Chemscore.DEClash.Weighted>
0.3061

> <Gold.Chemscore.DEInternal.Weighted>
0.5394

> <Gold.Chemscore.Rot.Weighted>
3.5247

> <Gold.Chemscore.Internal.Correction.Weighted>
   9.000000E+99

> <Gold.Protein.RotatedTorsions>
[ 6907 6896 6895 6894 ] final   91.98 input  -60.11 | X-H torsion
[ 7974 7965 7964 7962 ] final   64.01 input  175.53 | X-H torsion
[ 8008 7997 7996 7995 ] final -128.52 input   59.86 | X-H torsion
[ 10167 10162 10161 10158 ] final   81.64 input  -65.29 | X-H torsion
[ 10718 10713 10712 10709 ] final  124.67 input   66.30 | X-H torsion
[ 10763 10752 10751 10750 ] final  156.42 input  -60.55 | X-H torsion
[ 11005 11000 10999 10996 ] final  -36.03 input  -57.11 | X-H torsion

> <Gold.Protein.ActiveResidues>
 VAL166  LYS551  ARG553  GLY616  TRP617  ASP618  TYR619  PRO620  LYS621  CYS622 
 ASP623  PHE694  ASN695  SER759  ASP760  ASP761  ALA762  ILE779  LEU786  VAL792 
 PHE793  MET794  SER795  GLU796  ALA797  LYS798  CYS799  TRP800  GLU811  SER814 

> <Gold.Protein.RotatedAtoms>
  152.5451  134.1573  159.8542 H   0  0  0  0  0  0  0  0  0  0  0  0  # atno 6907 bound_to 6896
  151.1594  133.4848  159.2602 H   0  0  0  0  0  0  0  0  0  0  0  0  # atno 6908 bound_to 6896
  151.1388  135.0180  159.8671 H   0  0  0  0  0  0  0  0  0  0  0  0  # atno 6909 bound_to 6896
  145.8552  139.3279  143.0852 H   0  0  0  0  0  0  0  0  0  0  0  0  # atno 7974 bound_to 7965
  155.2641  140.0437  157.3000 H   0  0  0  0  0  0  0  0  0  0  0  0  # atno 8008 bound_to 7997
  154.5693  140.2369  155.8185 H   0  0  0  0  0  0  0  0  0  0  0  0  # atno 8009 bound_to 7997
  156.2110  140.2999  155.9739 H   0  0  0  0  0  0  0  0  0  0  0  0  # atno 8010 bound_to 7997
  139.9371  144.6114  150.8288 H   0  0  0  0  0  0  0  0  0  0  0  0  # atno 10167 bound_to 10162
  157.5566  131.1091  150.8611 H   0  0  0  0  0  0  0  0  0  0  0  0  # atno 10718 bound_to 10713
  154.1840  135.2798  155.3043 H   0  0  0  0  0  0  0  0  0  0  0  0  # atno 10763 bound_to 10752
  154.5980  135.5538  153.7349 H   0  0  0  0  0  0  0  0  0  0  0  0  # atno 10764 bound_to 10752
  153.0130  135.6385  154.1979 H   0  0  0  0  0  0  0  0  0  0  0  0  # atno 10765 bound_to 10752
  140.9842  133.7039  156.1737 H   0  0  0  0  0  0  0  0  0  0  0  0  # atno 11005 bound_to 11000
  145.9312  140.9047  143.0355 LP  0  0  0  0  0  0  0  0  0  0  0  0  # atno 17320 bound_to 7965
  144.6728  140.1421  143.7436 LP  0  0  0  0  0  0  0  0  0  0  0  0  # atno 17321 bound_to 7965
  140.7621  143.3191  151.2664 LP  0  0  0  0  0  0  0  0  0  0  0  0  # atno 17342 bound_to 10162
  139.6735  143.9979  152.2767 LP  0  0  0  0  0  0  0  0  0  0  0  0  # atno 17343 bound_to 10162
  156.9121  130.5284  149.5280 LP  0  0  0  0  0  0  0  0  0  0  0  0  # atno 17370 bound_to 10713
  156.0624  130.5674  150.9220 LP  0  0  0  0  0  0  0  0  0  0  0  0  # atno 17371 bound_to 10713
  140.7139  134.4431  157.5580 LP  0  0  0  0  0  0  0  0  0  0  0  0  # atno 17394 bound_to 11000
  139.8963  134.8662  156.2092 LP  0  0  0  0  0  0  0  0  0  0  0  0  # atno 17395 bound_to 11000

$$$$
