AV-unprocessed.smi:2869|AV-procd|sdf|11028|dock5
  -GOLD-   2272015493D 1   1.00000     0.00000
 Structure written by MMmdl.
 49 51  0  0  0  0  0  0  0  0  1 V2000
  153.5816  139.2925  154.9545 N   0  0  0  0  0  0  0  0  0  0  0  0
  152.5144  138.8512  154.8775 C   0  0  0  0  0  0  0  0  0  0  0  0
  151.1885  138.3350  154.7890 C   0  0  0  0  0  0  0  0  0  0  0  0
  150.1898  139.0350  154.2130 C   0  0  0  0  0  0  0  0  0  0  0  0
  148.9059  138.5458  154.1092 N   0  0  0  0  0  0  0  0  0  0  0  0
  147.8318  139.3637  153.6199 C   0  0  0  0  0  0  0  0  0  0  0  0
  147.7432  140.8283  154.0031 C   0  0  0  0  0  0  0  0  0  0  0  0
  146.7707  139.8348  154.5901 C   0  0  0  0  0  0  0  0  0  0  0  0
  148.5701  137.3032  154.6904 C   0  0  0  0  0  0  0  0  0  0  0  0
  147.4093  136.8858  154.6780 O   0  0  0  0  0  0  0  0  0  0  0  0
  149.6082  136.5510  155.2914 N   0  0  0  0  0  0  0  0  0  0  0  0
  149.2877  135.2211  155.8554 C   0  0  0  0  0  0  0  0  0  0  0  0
  148.8777  135.2631  157.3355 C   0  0  0  0  0  0  0  0  0  0  0  0
  149.6472  135.6904  158.1976 O   0  0  0  0  0  0  0  0  0  0  0  0
  147.6438  134.8115  157.6083 N   0  0  0  0  0  0  0  0  0  0  0  0
  147.0223  134.7609  158.9319 C   0  0  0  0  0  0  0  0  0  0  0  0
  147.0913  136.1868  159.5260 C   0  0  0  0  0  0  0  0  0  0  0  0
  145.9705  136.6043  160.5029 C   0  0  0  0  0  0  0  0  0  0  0  0
  145.7392  135.7426  161.7575 C   0  0  0  0  0  0  0  0  0  0  0  0
  147.0209  135.2399  162.4456 C   0  0  0  0  0  0  0  0  0  0  0  0
  147.2473  133.7231  162.3278 C   0  0  0  0  0  0  0  0  0  0  0  0
  146.9874  133.0860  160.9481 C   0  0  0  0  0  0  0  0  0  0  0  0
  147.7669  133.6824  159.7640 C   0  0  0  0  0  0  0  0  0  0  0  0
  150.9488  137.0102  155.3568 C   0  0  0  0  0  0  0  0  0  0  0  0
  151.8330  136.3186  155.8652 O   0  0  0  0  0  0  0  0  0  0  0  0
  150.4029  140.0145  153.8093 H   0  0  0  0  0  0  0  0  0  0  0  0
  147.4809  139.1155  152.6196 H   0  0  0  0  0  0  0  0  0  0  0  0
  148.5014  141.2340  154.6706 H   0  0  0  0  0  0  0  0  0  0  0  0
  147.3658  141.5200  153.2528 H   0  0  0  0  0  0  0  0  0  0  0  0
  145.7433  139.8659  154.2334 H   0  0  0  0  0  0  0  0  0  0  0  0
  146.8903  139.5864  155.6431 H   0  0  0  0  0  0  0  0  0  0  0  0
  148.4882  134.7432  155.2870 H   0  0  0  0  0  0  0  0  0  0  0  0
  150.1287  134.5338  155.7518 H   0  0  0  0  0  0  0  0  0  0  0  0
  147.0848  134.4801  156.8356 H   0  0  0  0  0  0  0  0  0  0  0  0
  145.9740  134.4817  158.8104 H   0  0  0  0  0  0  0  0  0  0  0  0
  148.0733  136.3566  159.9666 H   0  0  0  0  0  0  0  0  0  0  0  0
  147.0398  136.9067  158.7071 H   0  0  0  0  0  0  0  0  0  0  0  0
  146.1891  137.6215  160.8299 H   0  0  0  0  0  0  0  0  0  0  0  0
  145.0295  136.6748  159.9562 H   0  0  0  0  0  0  0  0  0  0  0  0
  145.1759  136.3451  162.4713 H   0  0  0  0  0  0  0  0  0  0  0  0
  145.0699  134.9163  161.5229 H   0  0  0  0  0  0  0  0  0  0  0  0
  147.8973  135.7778  162.0876 H   0  0  0  0  0  0  0  0  0  0  0  0
  146.9684  135.4861  163.5068 H   0  0  0  0  0  0  0  0  0  0  0  0
  148.2675  133.4986  162.6413 H   0  0  0  0  0  0  0  0  0  0  0  0
  146.6033  133.2214  163.0508 H   0  0  0  0  0  0  0  0  0  0  0  0
  147.2733  132.0370  161.0361 H   0  0  0  0  0  0  0  0  0  0  0  0
  145.9227  133.0551  160.7191 H   0  0  0  0  0  0  0  0  0  0  0  0
  147.9855  132.8426  159.1021 H   0  0  0  0  0  0  0  0  0  0  0  0
  148.7435  134.0438  160.0885 H   0  0  0  0  0  0  0  0  0  0  0  0
  1  2  3  0  0  0  0
  2  3  1  0  0  0  0
  3 24  1  0  0  0  0
  3  4  2  0  0  0  0
  4  5  1  0  0  0  0
  4 26  1  0  0  0  0
  5  6  1  0  0  0  0
  5  9  1  0  0  0  0
  6  8  1  0  0  0  0
  6  7  1  0  0  0  0
  6 27  1  0  0  0  0
  7  8  1  0  0  0  0
  7 28  1  0  0  0  0
  7 29  1  0  0  0  0
  8 30  1  0  0  0  0
  8 31  1  0  0  0  0
  9 10  2  0  0  0  0
  9 11  1  0  0  0  0
 11 12  1  0  0  0  0
 11 24  1  0  0  0  0
 12 13  1  0  0  0  0
 12 32  1  0  0  0  0
 12 33  1  0  0  0  0
 13 14  2  0  0  0  0
 13 15  1  0  0  0  0
 15 16  1  0  0  0  0
 15 34  1  0  0  0  0
 16 23  1  0  0  0  0
 16 17  1  0  0  0  0
 16 35  1  0  0  0  0
 17 18  1  0  0  0  0
 17 36  1  0  0  0  0
 17 37  1  0  0  0  0
 18 19  1  0  0  0  0
 18 38  1  0  0  0  0
 18 39  1  0  0  0  0
 19 20  1  0  0  0  0
 19 40  1  0  0  0  0
 19 41  1  0  0  0  0
 20 21  1  0  0  0  0
 20 42  1  0  0  0  0
 20 43  1  0  0  0  0
 21 22  1  0  0  0  0
 21 44  1  0  0  0  0
 21 45  1  0  0  0  0
 22 23  1  0  0  0  0
 22 46  1  0  0  0  0
 22 47  1  0  0  0  0
 23 48  1  0  0  0  0
 23 49  1  0  0  0  0
 24 25  2  0  0  0  0
M  END
> <s_m_source_file>
AV-unprocessed.smi

> <i_m_source_file_index>
2869

> <i_lp_mmshare_version>
43012

> <i_f3d_flags>
0

> <s_epik_input>
TiNDYzFbY0hdbihbQ0hdMltDSDJdW0NIMl0yKWMoPU8pbihjMT1PKVtDSDJdQyg9TylbTkhdW0NIXTNbQ0gyXVtDSDJdW0NIMl1bQ0gyXVtDSDJdW0NIMl1bQ0gyXTM=

> <s_epik_cmdline>
J2VwaWtfcHl0aG9uJywgJy1waCcsICc3LjAnLCAnLXRuJywgJzgnLCAnLW1hJywgJzIwMCcsICctbWV0YWxfYmluZGluZycsICctaW1hZScsICc8aW5maWxlLm1hZT4nLCAnLW9tYWUnLCAnPG91dGZpbGUubWFlPic=

> <r_lp_tautomer_probability>
1

> <r_epik_Ionization_Penalty>
2.03018e-08

> <r_epik_Ionization_Penalty_Charging>
8.701e-11

> <r_epik_Ionization_Penalty_Neutral>
2.02148e-08

> <r_epik_State_Penalty>
-0

> <r_epik_Charging_Adjusted_Penalty>
8.701e-11

> <i_epik_Tot_Q>
0

> <i_epik_Tot_abs_Q>
0

> <r_epik_Metal_State_Penalty>
-0

> <b_epik_Metal_Only>
0

> <s_lp_Force_Field>
OPLS_2005

> <r_lp_Energy>
47.5685

> <b_lp_Chiralities_Consistent>
1

> <s_lp_Variant>
AV-unprocessed.smi:2869-1

> <Gold.Version>
5.8.1

> <Gold.Id.Protein>
6NUR|6NUR_protein|mol2

> <Gold.PLP.Fitness>
48.0942

> <Gold.PLP.PLP>
-39.7801

> <Gold.PLP.part.hbond>
-3.0000

> <Gold.PLP.part.metal>
0.0000

> <Gold.PLP.part.buried>
-4.4630

> <Gold.PLP.part.nonpolar>
-33.0610

> <Gold.PLP.part.repulsive>
0.1544

> <Gold.PLP.ligand.clash>
0.0000

> <Gold.PLP.ligand.torsion>
0.6845

> <Gold.PLP.Chemscore.Hbond>
3.0000

> <Gold.PLP.Chemscore.CHOScore>
0.1547

> <Gold.PLP.Chemscore.Metal>
0.0000

> <Gold.Chemscore.Hbonds>
donor molecule, donor type, donor heavy atom, donor atom, acceptor molecule, acceptor atom, score
      P1  H  6896  6908       L1    14  0.99
      P1  H  7997  8009       L1     1  1.00
      P1  H 10752 10765       L1    25  1.00
      L1  C     4    26       P1  7957  0.24

> <Gold.PLP.Chemscore.Internal.Correction>
0.2189

> <Gold.Rescore>
     Score         DG    S(hbond)    S(metal)    S(lipo)     H(rot)  DE(clash)    DE(int)     intcor
     19.02     -20.94       2.94        0.00      84.91       1.68       0.03       1.90       ----

> <Gold.Chemscore.Fitness>
19.0176

> <Gold.Chemscore.DG>
-20.9402

> <Gold.Chemscore.ZeroCoef>
-5.4800

> <Gold.Chemscore.Hbond>
2.9440

> <Gold.Chemscore.Metal>
0.0000

> <Gold.Chemscore.Lipo>
84.9123

> <Gold.Chemscore.Internal_Hbond>
0.0000

> <Gold.Chemscore.DEClash>
0.0252

> <Gold.Chemscore.DEInternal>
1.8973

> <Gold.Chemscore.Rot>
1.6826

> <Gold.Chemscore.Internal.Correction>
   9.000000E+99

> <Gold.Chemscore.Hbonds>
donor molecule, donor type, donor heavy atom, donor atom, acceptor molecule, acceptor atom, score
      P1  H  6896  6908       L1    14  0.90
      P1  H  7997  8009       L1     1  0.95
      P1  H 10752 10765       L1    25  1.00

> <Gold.Chemscore.Hbond.Weighted>
-9.8331

> <Gold.Chemscore.Metal.Weighted>
-0.0000

> <Gold.Chemscore.Lipo.Weighted>
-9.9347

> <Gold.Chemscore.Internal_Hbond.Weighted>
0.0000

> <Gold.Chemscore.DEClash.Weighted>
0.0252

> <Gold.Chemscore.DEInternal.Weighted>
1.8973

> <Gold.Chemscore.Rot.Weighted>
4.3076

> <Gold.Chemscore.Internal.Correction.Weighted>
   9.000000E+99

> <Gold.Protein.RotatedTorsions>
[ 6907 6896 6895 6894 ] final  163.75 input  -60.11 | X-H torsion
[ 7974 7965 7964 7962 ] final  166.07 input  175.53 | X-H torsion
[ 8008 7997 7996 7995 ] final -115.31 input   59.86 | X-H torsion
[ 10167 10162 10161 10158 ] final  -90.60 input  -65.29 | X-H torsion
[ 10718 10713 10712 10709 ] final  169.32 input   66.30 | X-H torsion
[ 10763 10752 10751 10750 ] final -149.78 input  -60.55 | X-H torsion
[ 11005 11000 10999 10996 ] final  -79.18 input  -57.11 | X-H torsion

> <Gold.Protein.ActiveResidues>
 VAL166  LYS551  ARG553  GLY616  TRP617  ASP618  TYR619  PRO620  LYS621  CYS622 
 ASP623  PHE694  ASN695  SER759  ASP760  ASP761  ALA762  ILE779  LEU786  VAL792 
 PHE793  MET794  SER795  GLU796  ALA797  LYS798  CYS799  TRP800  GLU811  SER814 

> <Gold.Protein.RotatedAtoms>
  151.9204  133.3584  159.3894 H   0  0  0  0  0  0  0  0  0  0  0  0  # atno 6907 bound_to 6896
  150.7038  134.4641  159.5404 H   0  0  0  0  0  0  0  0  0  0  0  0  # atno 6908 bound_to 6896
  152.2263  134.8365  160.0530 H   0  0  0  0  0  0  0  0  0  0  0  0  # atno 6909 bound_to 6896
  144.7477  139.8562  143.6377 H   0  0  0  0  0  0  0  0  0  0  0  0  # atno 7974 bound_to 7965
  155.0501  140.0393  157.2540 H   0  0  0  0  0  0  0  0  0  0  0  0  # atno 8008 bound_to 7997
  154.7145  140.2699  155.6574 H   0  0  0  0  0  0  0  0  0  0  0  0  # atno 8009 bound_to 7997
  156.2799  140.2715  156.1797 H   0  0  0  0  0  0  0  0  0  0  0  0  # atno 8010 bound_to 7997
  140.3533  143.2880  151.9701 H   0  0  0  0  0  0  0  0  0  0  0  0  # atno 10167 bound_to 10162
  157.0243  131.0241  151.2765 H   0  0  0  0  0  0  0  0  0  0  0  0  # atno 10718 bound_to 10713
  154.8157  135.3300  154.7181 H   0  0  0  0  0  0  0  0  0  0  0  0  # atno 10763 bound_to 10752
  153.7822  135.6917  153.4891 H   0  0  0  0  0  0  0  0  0  0  0  0  # atno 10764 bound_to 10752
  153.1972  135.4529  155.0170 H   0  0  0  0  0  0  0  0  0  0  0  0  # atno 10765 bound_to 10752
  141.1667  133.7095  156.8084 H   0  0  0  0  0  0  0  0  0  0  0  0  # atno 11005 bound_to 11000
  146.1381  139.4431  143.0126 LP  0  0  0  0  0  0  0  0  0  0  0  0  # atno 17320 bound_to 7965
  145.7061  141.0121  143.1478 LP  0  0  0  0  0  0  0  0  0  0  0  0  # atno 17321 bound_to 7965
  139.4823  144.6057  151.7525 LP  0  0  0  0  0  0  0  0  0  0  0  0  # atno 17342 bound_to 10162
  140.5198  144.0896  150.6019 LP  0  0  0  0  0  0  0  0  0  0  0  0  # atno 17343 bound_to 10162
  157.5226  130.8007  149.7826 LP  0  0  0  0  0  0  0  0  0  0  0  0  # atno 17370 bound_to 10713
  156.0091  130.3841  150.2326 LP  0  0  0  0  0  0  0  0  0  0  0  0  # atno 17371 bound_to 10713
  140.2205  134.8760  157.3372 LP  0  0  0  0  0  0  0  0  0  0  0  0  # atno 17394 bound_to 11000
  140.1992  134.4275  155.7672 LP  0  0  0  0  0  0  0  0  0  0  0  0  # atno 17395 bound_to 11000

$$$$
