AV-unprocessed.smi:193|AV-procd|sdf|1506|dock3
  -GOLD-   2262019333D 1   1.00000     0.00000
 Structure written by MMmdl.
 62 66  0  0  0  0  0  0  0  0  2 V2000
  147.1715  140.7975  152.7495 C   0  0  0  0  0  0  0  0  0  0  0  0
  147.3059  139.5961  153.6976 C   0  0  2  0  0  0  0  0  0  0  0  0
  148.7831  139.1863  153.8593 C   0  0  0  0  0  0  0  0  0  0  0  0
  149.0380  138.5842  155.1672 N   0  0  0  0  0  0  0  0  0  0  0  0
  150.3200  138.7337  155.5600 C   0  0  0  0  0  0  0  0  0  0  0  0
  151.2335  139.0445  154.6088 N   0  0  0  0  0  0  0  0  0  0  0  0
  152.5186  139.1948  154.9453 C   0  0  0  0  0  0  0  0  0  0  0  0
  153.0860  139.0797  156.1486 N   0  0  0  0  0  0  0  0  0  0  0  0
  152.1653  138.7675  157.1056 C   0  0  0  0  0  0  0  0  0  0  0  0
  150.7711  138.5754  156.8997 C   0  0  0  0  0  0  0  0  0  0  0  0
  150.1487  138.2645  158.1025 N   0  0  0  0  0  0  0  0  0  0  0  0
  151.1212  138.2791  158.9734 C   0  0  0  0  0  0  0  0  0  0  0  0
  152.3644  138.5772  158.4617 N   0  0  0  0  0  0  0  0  0  0  0  0
  153.6131  138.6611  159.2035 C   0  0  0  0  0  0  0  0  0  0  0  0
  154.0181  140.1051  159.5900 C   0  0  0  0  0  0  0  0  0  0  0  0
  155.3441  140.3172  159.1357 O   0  0  0  0  0  0  0  0  0  0  0  0
  153.0957  141.1253  158.8929 C   0  0  0  0  0  0  0  0  0  0  0  0
  153.3461  142.5636  159.3800 C   0  0  0  0  0  0  0  0  0  0  0  0
  153.2106  142.6280  160.7943 O   0  0  0  0  0  0  0  0  0  0  0  0
  154.1707  141.8295  161.4751 C   0  0  0  0  0  0  0  0  0  0  0  0
  153.9787  140.3456  161.1152 C   0  0  0  0  0  0  0  0  0  0  0  0
  148.5129  137.2553  155.4713 C   0  0  0  0  0  0  0  0  0  0  0  0
  146.9992  137.1244  155.2453 C   0  0  0  0  0  0  0  0  0  0  0  0
  146.7022  137.1101  153.7930 N   0  3  1  0  0  0  0  0  0  0  0  0
  145.6854  136.1001  153.4170 C   0  0  2  0  0  0  0  0  0  0  0  0
  146.2684  134.8356  152.8262 C   0  0  0  0  0  0  0  0  0  0  0  0
  145.5665  135.8288  151.9269 C   0  0  2  0  0  0  0  0  0  0  0  0
  146.3531  136.5803  150.8679 C   0  0  0  0  0  0  0  0  0  0  0  0
  146.3924  138.4444  153.2170 C   0  0  0  0  0  0  0  0  0  0  0  0
  147.5260  140.5559  151.7469 H   0  0  0  0  0  0  0  0  0  0  0  0
  147.7490  141.6499  153.1088 H   0  0  0  0  0  0  0  0  0  0  0  0
  146.1329  141.1191  152.6680 H   0  0  0  0  0  0  0  0  0  0  0  0
  146.9475  139.9386  154.6698 H   0  0  0  0  0  0  0  0  0  0  0  0
  149.0868  138.5067  153.0616 H   0  0  0  0  0  0  0  0  0  0  0  0
  149.4108  140.0742  153.7603 H   0  0  0  0  0  0  0  0  0  0  0  0
  153.1883  139.4426  154.1349 H   0  0  0  0  0  0  0  0  0  0  0  0
  150.9587  138.0754  160.0220 H   0  0  0  0  0  0  0  0  0  0  0  0
  153.5207  138.0416  160.0969 H   0  0  0  0  0  0  0  0  0  0  0  0
  154.3967  138.2029  158.5987 H   0  0  0  0  0  0  0  0  0  0  0  0
  155.9359  140.1615  159.8559 H   0  0  0  0  0  0  0  0  0  0  0  0
  153.2128  141.0706  157.8096 H   0  0  0  0  0  0  0  0  0  0  0  0
  152.0557  140.8695  159.1000 H   0  0  0  0  0  0  0  0  0  0  0  0
  154.3343  142.9153  159.0802 H   0  0  0  0  0  0  0  0  0  0  0  0
  152.6207  143.2402  158.9282 H   0  0  0  0  0  0  0  0  0  0  0  0
  155.1793  142.1659  161.2307 H   0  0  0  0  0  0  0  0  0  0  0  0
  154.0441  141.9699  162.5487 H   0  0  0  0  0  0  0  0  0  0  0  0
  153.0136  140.0186  161.5042 H   0  0  0  0  0  0  0  0  0  0  0  0
  154.7336  139.7456  161.6248 H   0  0  0  0  0  0  0  0  0  0  0  0
  149.0388  136.5010  154.8843 H   0  0  0  0  0  0  0  0  0  0  0  0
  148.7274  137.0353  156.5185 H   0  0  0  0  0  0  0  0  0  0  0  0
  146.6853  136.1791  155.6896 H   0  0  0  0  0  0  0  0  0  0  0  0
  146.4341  137.8977  155.7675 H   0  0  0  0  0  0  0  0  0  0  0  0
  144.8139  136.0378  154.0662 H   0  0  0  0  0  0  0  0  0  0  0  0
  147.3515  134.7570  152.7468 H   0  0  0  0  0  0  0  0  0  0  0  0
  145.7511  133.9003  153.0307 H   0  0  0  0  0  0  0  0  0  0  0  0
  144.5729  135.5395  151.5896 H   0  0  0  0  0  0  0  0  0  0  0  0
  147.3713  136.7882  151.1981 H   0  0  0  0  0  0  0  0  0  0  0  0
  145.8606  137.5237  150.6320 H   0  0  0  0  0  0  0  0  0  0  0  0
  146.4070  135.9855  149.9558 H   0  0  0  0  0  0  0  0  0  0  0  0
  145.3556  138.7017  153.4394 H   0  0  0  0  0  0  0  0  0  0  0  0
  146.4576  138.3560  152.1324 H   0  0  0  0  0  0  0  0  0  0  0  0
  147.5589  136.8057  153.3529 H   0  0  0  0  0  0  0  0  0  0  0  0
  1  2  1  0  0  0  0
  1 30  1  0  0  0  0
  1 31  1  0  0  0  0
  1 32  1  0  0  0  0
  2 29  1  0  0  0  0
  2  3  1  0  0  0  0
  2 33  1  0  0  0  0
  3  4  1  0  0  0  0
  3 34  1  0  0  0  0
  3 35  1  0  0  0  0
  4  5  1  0  0  0  0
  4 22  1  0  0  0  0
  5 10  1  0  0  0  0
  5  6  2  0  0  0  0
  6  7  1  0  0  0  0
  7  8  2  0  0  0  0
  7 36  1  0  0  0  0
  8  9  1  0  0  0  0
  9 13  1  0  0  0  0
  9 10  2  0  0  0  0
 10 11  1  0  0  0  0
 11 12  2  0  0  0  0
 12 13  1  0  0  0  0
 12 37  1  0  0  0  0
 13 14  1  0  0  0  0
 14 15  1  0  0  0  0
 14 38  1  0  0  0  0
 14 39  1  0  0  0  0
 15 21  1  0  0  0  0
 15 16  1  0  0  0  0
 15 17  1  0  0  0  0
 16 40  1  0  0  0  0
 17 18  1  0  0  0  0
 17 41  1  0  0  0  0
 17 42  1  0  0  0  0
 18 19  1  0  0  0  0
 18 43  1  0  0  0  0
 18 44  1  0  0  0  0
 19 20  1  0  0  0  0
 20 21  1  0  0  0  0
 20 45  1  0  0  0  0
 20 46  1  0  0  0  0
 21 47  1  0  0  0  0
 21 48  1  0  0  0  0
 22 23  1  0  0  0  0
 22 49  1  0  0  0  0
 22 50  1  0  0  0  0
 23 24  1  0  0  0  0
 23 51  1  0  0  0  0
 23 52  1  0  0  0  0
 24 25  1  0  0  0  0
 24 29  1  0  0  0  0
 24 62  1  0  0  0  0
 25 27  1  0  0  0  0
 25 26  1  0  0  0  0
 25 53  1  0  0  0  0
 26 27  1  0  0  0  0
 26 54  1  0  0  0  0
 26 55  1  0  0  0  0
 27 28  1  0  0  0  0
 27 56  1  0  0  0  0
 28 57  1  0  0  0  0
 28 58  1  0  0  0  0
 28 59  1  0  0  0  0
 29 60  1  0  0  0  0
 29 61  1  0  0  0  0
M  CHG  1  24   1
M  END
> <s_m_source_file>
AV-unprocessed.smi

> <i_m_source_file_index>
193

> <i_lp_mmshare_version>
43012

> <i_f3d_flags>
0

> <s_epik_input>
W0NIM11bQ0BASF0xW0NIMl1bQ0BIXTFOKFtDSDJdMilbQ0gyXVtDSDJdTihbQ0gyXVtDQEhdMltDSDNdKWMobltjSF1uMyljKGMzNCluW2NIXW40W0NIMl1DNShbT0hdKVtDSDJdW0NIMl1PW0NIMl1bQ0gyXTU=

> <s_epik_cmdline>
J2VwaWtfcHl0aG9uJywgJy1waCcsICc3LjAnLCAnLXRuJywgJzgnLCAnLW1hJywgJzIwMCcsICctbWV0YWxfYmluZGluZycsICctaW1hZScsICc8aW5maWxlLm1hZT4nLCAnLW9tYWUnLCAnPG91dGZpbGUubWFlPic=

> <r_lp_tautomer_probability>
1

> <r_epik_Ionization_Penalty>
0.0540825

> <r_epik_Ionization_Penalty_Charging>
0.0538476

> <r_epik_Ionization_Penalty_Neutral>
0.000234891

> <r_epik_State_Penalty>
0.0200719

> <r_epik_Charging_Adjusted_Penalty>
0.0739194

> <i_epik_Tot_Q>
1

> <i_epik_Tot_abs_Q>
1

> <r_epik_Metal_State_Penalty>
0.0199414

> <b_epik_Metal_Only>
0

> <s_lp_Force_Field>
OPLS_2005

> <r_lp_Energy>
59.2238

> <b_lp_Chiralities_Consistent>
1

> <s_lp_Variant>
AV-unprocessed.smi:193-11

> <Gold.Version>
5.8.1

> <Gold.Id.Protein>
6NUR|6NUR_protein|mol2

> <Gold.PLP.Fitness>
43.2749

> <Gold.PLP.PLP>
-34.1026

> <Gold.PLP.part.hbond>
-3.7170

> <Gold.PLP.part.metal>
0.0000

> <Gold.PLP.part.buried>
3.3218

> <Gold.PLP.part.nonpolar>
-31.8455

> <Gold.PLP.part.repulsive>
0.2056

> <Gold.PLP.ligand.clash>
0.0304

> <Gold.PLP.ligand.torsion>
2.3197

> <Gold.PLP.Chemscore.Hbond>
4.0747

> <Gold.PLP.Chemscore.CHOScore>
0.0000

> <Gold.PLP.Chemscore.Metal>
0.0000

> <Gold.Chemscore.Hbonds>
donor molecule, donor type, donor heavy atom, donor atom, acceptor molecule, acceptor atom, score
      L1  H    24    62       P1  7948  1.56
      P1  H  7989  7998       L1     6  0.03
      P1  H  7997  8009       L1    16  0.78
      P1  H  7997  8010       L1     8  1.00

> <Gold.PLP.Chemscore.Internal.Correction>
1.6178

> <Gold.Rescore>
     Score         DG    S(hbond)    S(metal)    S(lipo)     H(rot)  DE(clash)    DE(int)     intcor
     14.89     -19.56       2.54        0.00      96.15       2.20       1.70       2.98       ----

> <Gold.Chemscore.Fitness>
14.8866

> <Gold.Chemscore.DG>
-19.5627

> <Gold.Chemscore.ZeroCoef>
-5.4800

> <Gold.Chemscore.Hbond>
2.5359

> <Gold.Chemscore.Metal>
0.0000

> <Gold.Chemscore.Lipo>
96.1490

> <Gold.Chemscore.Internal_Hbond>
0.0000

> <Gold.Chemscore.DEClash>
1.6990

> <Gold.Chemscore.DEInternal>
2.9771

> <Gold.Chemscore.Rot>
2.2018

> <Gold.Chemscore.Internal.Correction>
   9.000000E+99

> <Gold.Chemscore.Hbonds>
donor molecule, donor type, donor heavy atom, donor atom, acceptor molecule, acceptor atom, score
      L1  H    24    62       P1  7948  0.76
      P1  H  7997  8009       L1    16  0.69
      P1  H  7997  8010       L1     8  0.43

> <Gold.Chemscore.Hbond.Weighted>
-8.4698

> <Gold.Chemscore.Metal.Weighted>
-0.0000

> <Gold.Chemscore.Lipo.Weighted>
-11.2494

> <Gold.Chemscore.Internal_Hbond.Weighted>
0.0000

> <Gold.Chemscore.DEClash.Weighted>
1.6990

> <Gold.Chemscore.DEInternal.Weighted>
2.9771

> <Gold.Chemscore.Rot.Weighted>
5.6366

> <Gold.Chemscore.Internal.Correction.Weighted>
   9.000000E+99

> <Gold.Protein.RotatedTorsions>
[ 6907 6896 6895 6894 ] final -169.48 input  -60.11 | X-H torsion
[ 7974 7965 7964 7962 ] final  -13.97 input  175.53 | X-H torsion
[ 8008 7997 7996 7995 ] final   94.11 input   59.86 | X-H torsion
[ 10167 10162 10161 10158 ] final   95.67 input  -65.29 | X-H torsion
[ 10718 10713 10712 10709 ] final  -31.65 input   66.30 | X-H torsion
[ 10763 10752 10751 10750 ] final   12.59 input  -60.55 | X-H torsion
[ 11005 11000 10999 10996 ] final  165.72 input  -57.11 | X-H torsion

> <Gold.Protein.ActiveResidues>
 VAL166  LYS551  ARG553  GLY616  TRP617  ASP618  TYR619  PRO620  LYS621  CYS622 
 ASP623  PHE694  ASN695  SER759  ASP760  ASP761  ALA762  ILE779  LEU786  VAL792 
 PHE793  MET794  SER795  GLU796  ALA797  LYS798  CYS799  TRP800  GLU811  SER814 

> <Gold.Protein.RotatedAtoms>
  151.4923  133.3522  159.2855 H   0  0  0  0  0  0  0  0  0  0  0  0  # atno 6907 bound_to 6896
  150.8827  134.8222  159.7247 H   0  0  0  0  0  0  0  0  0  0  0  0  # atno 6908 bound_to 6896
  152.4773  134.4822  159.9721 H   0  0  0  0  0  0  0  0  0  0  0  0  # atno 6909 bound_to 6896
  146.2093  140.3280  142.8396 H   0  0  0  0  0  0  0  0  0  0  0  0  # atno 7974 bound_to 7965
  156.0543  140.3304  155.7387 H   0  0  0  0  0  0  0  0  0  0  0  0  # atno 8008 bound_to 7997
  155.5553  140.0614  157.2858 H   0  0  0  0  0  0  0  0  0  0  0  0  # atno 8009 bound_to 7997
  154.4450  140.1887  156.0716 H   0  0  0  0  0  0  0  0  0  0  0  0  # atno 8010 bound_to 7997
  139.7966  144.6830  150.9820 H   0  0  0  0  0  0  0  0  0  0  0  0  # atno 10167 bound_to 10162
  156.3846  130.4362  149.7442 H   0  0  0  0  0  0  0  0  0  0  0  0  # atno 10718 bound_to 10713
  153.1807  135.6827  153.8482 H   0  0  0  0  0  0  0  0  0  0  0  0  # atno 10763 bound_to 10752
  153.7815  135.3182  155.3367 H   0  0  0  0  0  0  0  0  0  0  0  0  # atno 10764 bound_to 10752
  154.8057  135.4750  154.0482 H   0  0  0  0  0  0  0  0  0  0  0  0  # atno 10765 bound_to 10752
  140.2591  134.7917  157.3573 H   0  0  0  0  0  0  0  0  0  0  0  0  # atno 11005 bound_to 11000
  144.8872  140.7478  143.5949 LP  0  0  0  0  0  0  0  0  0  0  0  0  # atno 17320 bound_to 7965
  145.3202  139.1791  143.4592 LP  0  0  0  0  0  0  0  0  0  0  0  0  # atno 17321 bound_to 7965
  140.7820  143.4324  151.0674 LP  0  0  0  0  0  0  0  0  0  0  0  0  # atno 17342 bound_to 10162
  139.7998  143.8099  152.3161 LP  0  0  0  0  0  0  0  0  0  0  0  0  # atno 17343 bound_to 10162
  156.4519  130.7910  151.2932 LP  0  0  0  0  0  0  0  0  0  0  0  0  # atno 17370 bound_to 10713
  157.7495  131.0093  150.3261 LP  0  0  0  0  0  0  0  0  0  0  0  0  # atno 17371 bound_to 10713
  140.1482  134.4883  155.7980 LP  0  0  0  0  0  0  0  0  0  0  0  0  # atno 17394 bound_to 11000
  141.2192  133.6852  156.7332 LP  0  0  0  0  0  0  0  0  0  0  0  0  # atno 17395 bound_to 11000

$$$$
