AV-unprocessed.smi:1250|AV-procd|sdf|5254|dock3
  -GOLD-   22720 4363D 1   1.00000     0.00000
 Structure written by MMmdl.
 41 42  0  0  0  0  0  0  0  0  1 V2000
  150.6096  132.9683  152.7027 C   0  0  0  0  0  0  0  0  0  0  0  0
  151.7498  133.1425  153.7217 C   0  0  0  0  0  0  0  0  0  0  0  0
  152.1932  131.7585  154.2395 C   0  0  0  0  0  0  0  0  0  0  0  0
  151.3673  134.1106  154.8732 C   0  0  2  0  0  0  0  0  0  0  0  0
  150.0578  133.7287  155.5870 C   0  0  0  0  0  0  0  0  0  0  0  0
  151.2414  135.4717  154.3576 N   0  0  0  0  0  0  0  0  0  0  0  0
  151.9614  136.5350  154.7531 C   0  0  0  0  0  0  0  0  0  0  0  0
  152.7608  136.5021  155.6883 O   0  0  0  0  0  0  0  0  0  0  0  0
  151.7544  137.8382  153.9723 C   0  0  0  0  0  0  0  0  0  0  0  0
  151.1260  138.8962  154.8377 C   0  0  0  0  0  0  0  0  0  0  0  0
  149.9377  139.5454  154.6067 C   0  0  0  0  0  0  0  0  0  0  0  0
  149.5941  140.7360  155.8314 S   0  0  0  0  0  0  0  0  0  0  0  0
  151.1045  140.2972  156.6347 C   0  0  0  0  0  0  0  0  0  0  0  0
  151.6335  140.8811  157.8241 N   0  0  0  0  0  0  0  0  0  0  0  0
  150.9397  141.9580  158.5239 C   0  0  0  0  0  0  0  0  0  0  0  0
  151.9005  142.4402  159.6161 C   0  0  0  0  0  0  0  0  0  0  0  0
  152.9714  141.3564  159.7207 C   0  0  0  0  0  0  0  0  0  0  0  0
  152.7558  140.5193  158.4706 C   0  0  0  0  0  0  0  0  0  0  0  0
  153.5468  139.6348  158.1463 O   0  0  0  0  0  0  0  0  0  0  0  0
  151.7695  139.3234  156.0048 N   0  0  0  0  0  0  0  0  0  0  0  0
  149.7032  132.5973  153.1824 H   0  0  0  0  0  0  0  0  0  0  0  0
  150.8856  132.2574  151.9233 H   0  0  0  0  0  0  0  0  0  0  0  0
  150.3657  133.9045  152.2017 H   0  0  0  0  0  0  0  0  0  0  0  0
  152.5993  133.5713  153.1882 H   0  0  0  0  0  0  0  0  0  0  0  0
  151.4129  131.2936  154.8430 H   0  0  0  0  0  0  0  0  0  0  0  0
  153.0939  131.8196  154.8504 H   0  0  0  0  0  0  0  0  0  0  0  0
  152.4194  131.0834  153.4138 H   0  0  0  0  0  0  0  0  0  0  0  0
  152.1738  134.0850  155.6087 H   0  0  0  0  0  0  0  0  0  0  0  0
  150.1394  132.7684  156.0951 H   0  0  0  0  0  0  0  0  0  0  0  0
  149.2257  133.6680  154.8849 H   0  0  0  0  0  0  0  0  0  0  0  0
  149.7967  134.4654  156.3474 H   0  0  0  0  0  0  0  0  0  0  0  0
  150.6018  135.6020  153.5870 H   0  0  0  0  0  0  0  0  0  0  0  0
  152.7204  138.1718  153.5919 H   0  0  0  0  0  0  0  0  0  0  0  0
  151.1293  137.6421  153.1002 H   0  0  0  0  0  0  0  0  0  0  0  0
  149.2510  139.4040  153.7852 H   0  0  0  0  0  0  0  0  0  0  0  0
  150.6727  142.7706  157.8472 H   0  0  0  0  0  0  0  0  0  0  0  0
  150.0208  141.5658  158.9622 H   0  0  0  0  0  0  0  0  0  0  0  0
  152.3578  143.3864  159.3231 H   0  0  0  0  0  0  0  0  0  0  0  0
  151.3868  142.6025  160.5644 H   0  0  0  0  0  0  0  0  0  0  0  0
  153.9784  141.7735  159.7534 H   0  0  0  0  0  0  0  0  0  0  0  0
  152.8213  140.7336  160.6031 H   0  0  0  0  0  0  0  0  0  0  0  0
  1  2  1  0  0  0  0
  1 21  1  0  0  0  0
  1 22  1  0  0  0  0
  1 23  1  0  0  0  0
  2  3  1  0  0  0  0
  2  4  1  0  0  0  0
  2 24  1  0  0  0  0
  3 25  1  0  0  0  0
  3 26  1  0  0  0  0
  3 27  1  0  0  0  0
  4  5  1  0  0  0  0
  4  6  1  0  0  0  0
  4 28  1  0  0  0  0
  5 29  1  0  0  0  0
  5 30  1  0  0  0  0
  5 31  1  0  0  0  0
  6  7  1  0  0  0  0
  6 32  1  0  0  0  0
  7  8  2  0  0  0  0
  7  9  1  0  0  0  0
  9 10  1  0  0  0  0
  9 33  1  0  0  0  0
  9 34  1  0  0  0  0
 10 20  1  0  0  0  0
 10 11  2  0  0  0  0
 11 12  1  0  0  0  0
 11 35  1  0  0  0  0
 12 13  1  0  0  0  0
 13 14  1  0  0  0  0
 13 20  2  0  0  0  0
 14 18  1  0  0  0  0
 14 15  1  0  0  0  0
 15 16  1  0  0  0  0
 15 36  1  0  0  0  0
 15 37  1  0  0  0  0
 16 17  1  0  0  0  0
 16 38  1  0  0  0  0
 16 39  1  0  0  0  0
 17 18  1  0  0  0  0
 17 40  1  0  0  0  0
 17 41  1  0  0  0  0
 18 19  2  0  0  0  0
M  END
> <s_m_source_file>
AV-unprocessed.smi

> <i_m_source_file_index>
1250

> <i_lp_mmshare_version>
43012

> <i_f3d_flags>
0

> <s_epik_input>
W0NIM11bQ0hdKFtDSDNdKVtDQEhdKFtDSDNdKVtOSF1DKD1PKVtDSDJdYzFbY0hdc2MobjEpTjJbQ0gyXVtDSDJdW0NIMl1DMj1P

> <s_epik_cmdline>
J2VwaWtfcHl0aG9uJywgJy1waCcsICc3LjAnLCAnLXRuJywgJzgnLCAnLW1hJywgJzIwMCcsICctbWV0YWxfYmluZGluZycsICctaW1hZScsICc8aW5maWxlLm1hZT4nLCAnLW9tYWUnLCAnPG91dGZpbGUubWFlPic=

> <r_lp_tautomer_probability>
1

> <r_epik_Ionization_Penalty>
3.03552e-05

> <r_epik_Ionization_Penalty_Charging>
0

> <r_epik_Ionization_Penalty_Neutral>
3.03552e-05

> <r_epik_State_Penalty>
-0

> <r_epik_Charging_Adjusted_Penalty>
0

> <i_epik_Tot_Q>
0

> <i_epik_Tot_abs_Q>
0

> <r_epik_Metal_State_Penalty>
-0

> <b_epik_Metal_Only>
0

> <s_lp_Force_Field>
OPLS_2005

> <r_lp_Energy>
18.568

> <b_lp_Chiralities_Consistent>
1

> <s_lp_Variant>
AV-unprocessed.smi:1250-1

> <Gold.Version>
5.8.1

> <Gold.Id.Protein>
6NUR|6NUR_protein|mol2

> <Gold.PLP.Fitness>
50.1273

> <Gold.PLP.PLP>
-39.4108

> <Gold.PLP.part.hbond>
-3.0000

> <Gold.PLP.part.metal>
0.0000

> <Gold.PLP.part.buried>
-1.7816

> <Gold.PLP.part.nonpolar>
-34.0726

> <Gold.PLP.part.repulsive>
0.0791

> <Gold.PLP.ligand.clash>
0.0000

> <Gold.PLP.ligand.torsion>
0.1423

> <Gold.PLP.Chemscore.Hbond>
2.6552

> <Gold.PLP.Chemscore.CHOScore>
1.0000

> <Gold.PLP.Chemscore.Metal>
0.0000

> <Gold.Chemscore.Hbonds>
donor molecule, donor type, donor heavy atom, donor atom, acceptor molecule, acceptor atom, score
      L1  H     6    32       P1  7949  0.11
      P1  H  7997  8008       L1    19  1.00
      P1  H 10752 10765       L1     8  0.18
      L1  C    11    35       P1  7957  0.50

> <Gold.PLP.Chemscore.Internal.Correction>
0.0355

> <Gold.Rescore>
     Score         DG    S(hbond)    S(metal)    S(lipo)     H(rot)  DE(clash)    DE(int)     intcor
     13.11     -16.77       1.85        0.00      78.34       1.58       0.07       3.59       ----

> <Gold.Chemscore.Fitness>
13.1143

> <Gold.Chemscore.DG>
-16.7717

> <Gold.Chemscore.ZeroCoef>
-5.4800

> <Gold.Chemscore.Hbond>
1.8456

> <Gold.Chemscore.Metal>
0.0000

> <Gold.Chemscore.Lipo>
78.3422

> <Gold.Chemscore.Internal_Hbond>
0.0000

> <Gold.Chemscore.DEClash>
0.0659

> <Gold.Chemscore.DEInternal>
3.5915

> <Gold.Chemscore.Rot>
1.5775

> <Gold.Chemscore.Internal.Correction>
   9.000000E+99

> <Gold.Chemscore.Hbonds>
donor molecule, donor type, donor heavy atom, donor atom, acceptor molecule, acceptor atom, score
      P1  H  7997  8008       L1    19  0.92
      P1  H 10752 10765       L1     8  0.01

> <Gold.Chemscore.Hbond.Weighted>
-6.1642

> <Gold.Chemscore.Metal.Weighted>
-0.0000

> <Gold.Chemscore.Lipo.Weighted>
-9.1660

> <Gold.Chemscore.Internal_Hbond.Weighted>
0.0000

> <Gold.Chemscore.DEClash.Weighted>
0.0659

> <Gold.Chemscore.DEInternal.Weighted>
3.5915

> <Gold.Chemscore.Rot.Weighted>
4.0385

> <Gold.Chemscore.Internal.Correction.Weighted>
   9.000000E+99

> <Gold.Protein.RotatedTorsions>
[ 6907 6896 6895 6894 ] final  -18.40 input  -60.11 | X-H torsion
[ 7974 7965 7964 7962 ] final    4.94 input  175.53 | X-H torsion
[ 8008 7997 7996 7995 ] final  -93.10 input   59.86 | X-H torsion
[ 10167 10162 10161 10158 ] final -135.66 input  -65.29 | X-H torsion
[ 10718 10713 10712 10709 ] final  -51.19 input   66.30 | X-H torsion
[ 10763 10752 10751 10750 ] final -134.02 input  -60.55 | X-H torsion
[ 11005 11000 10999 10996 ] final -135.04 input  -57.11 | X-H torsion

> <Gold.Protein.ActiveResidues>
 VAL166  LYS551  ARG553  GLY616  TRP617  ASP618  TYR619  PRO620  LYS621  CYS622 
 ASP623  PHE694  ASN695  SER759  ASP760  ASP761  ALA762  ILE779  LEU786  VAL792 
 PHE793  MET794  SER795  GLU796  ALA797  LYS798  CYS799  TRP800  GLU811  SER814 

> <Gold.Protein.RotatedAtoms>
  151.2787  135.0707  159.9160 H   0  0  0  0  0  0  0  0  0  0  0  0  # atno 6907 bound_to 6896
  152.5338  134.0054  159.7924 H   0  0  0  0  0  0  0  0  0  0  0  0  # atno 6908 bound_to 6896
  151.0304  133.5745  159.2692 H   0  0  0  0  0  0  0  0  0  0  0  0  # atno 6909 bound_to 6896
  146.2442  140.0458  142.8378 H   0  0  0  0  0  0  0  0  0  0  0  0  # atno 7974 bound_to 7965
  154.7315  140.0502  157.0730 H   0  0  0  0  0  0  0  0  0  0  0  0  # atno 8008 bound_to 7997
  155.0296  140.3156  155.4744 H   0  0  0  0  0  0  0  0  0  0  0  0  # atno 8009 bound_to 7997
  156.2842  140.2152  156.5417 H   0  0  0  0  0  0  0  0  0  0  0  0  # atno 8010 bound_to 7997
  139.8756  143.6902  152.2634 H   0  0  0  0  0  0  0  0  0  0  0  0  # atno 10167 bound_to 10162
  156.1732  130.4149  149.9616 H   0  0  0  0  0  0  0  0  0  0  0  0  # atno 10718 bound_to 10713
  154.8725  135.3748  154.4667 H   0  0  0  0  0  0  0  0  0  0  0  0  # atno 10763 bound_to 10752
  153.5331  135.7027  153.5678 H   0  0  0  0  0  0  0  0  0  0  0  0  # atno 10764 bound_to 10752
  153.3874  135.3981  155.1864 H   0  0  0  0  0  0  0  0  0  0  0  0  # atno 10765 bound_to 10752
  140.8935  134.1781  157.4511 H   0  0  0  0  0  0  0  0  0  0  0  0  # atno 11005 bound_to 11000
  145.1028  140.9356  143.4702 LP  0  0  0  0  0  0  0  0  0  0  0  0  # atno 17320 bound_to 7965
  145.0655  139.3072  143.5858 LP  0  0  0  0  0  0  0  0  0  0  0  0  # atno 17321 bound_to 7965
  139.7243  144.7596  151.0905 LP  0  0  0  0  0  0  0  0  0  0  0  0  # atno 17342 bound_to 10162
  140.7753  143.5168  150.9585 LP  0  0  0  0  0  0  0  0  0  0  0  0  # atno 17343 bound_to 10162
  156.7410  130.9079  151.3632 LP  0  0  0  0  0  0  0  0  0  0  0  0  # atno 17370 bound_to 10713
  157.6817  130.9146  150.0284 LP  0  0  0  0  0  0  0  0  0  0  0  0  # atno 17371 bound_to 10713
  139.8732  134.9868  156.5342 LP  0  0  0  0  0  0  0  0  0  0  0  0  # atno 17394 bound_to 11000
  140.8318  133.8273  155.8991 LP  0  0  0  0  0  0  0  0  0  0  0  0  # atno 17395 bound_to 11000

$$$$
