AV-unprocessed.smi:303|AV-procd|sdf|2275|dock8
  -GOLD-   2262022173D 1   1.00000     0.00000
 Structure written by MMmdl.
 46 47  0  0  0  0  0  0  0  0  2 V2000
  150.6784  142.6312  157.9283 C   0  0  0  0  0  0  0  0  0  0  0  0
  150.7804  142.2167  156.4557 C   0  0  0  0  0  0  0  0  0  0  0  0
  151.2020  140.4262  156.2669 S   0  0  0  0  0  0  0  0  0  0  0  0
  152.3906  140.3227  155.4064 O   0  0  0  0  0  0  0  0  0  0  0  0
  151.2060  139.7954  157.5963 O   0  0  0  0  0  0  0  0  0  0  0  0
  149.8590  139.7637  155.3777 N   0  0  0  0  0  0  0  0  0  0  0  0
  150.1018  139.0167  154.1290 C   0  0  0  0  0  0  0  0  0  0  0  0
  149.9845  137.4994  154.3527 C   0  0  0  0  0  0  0  0  0  0  0  0
  148.6253  137.1277  154.9717 C   0  0  0  0  0  0  0  0  0  0  0  0
  148.5291  135.6149  155.2095 C   0  0  0  0  0  0  0  0  0  0  0  0
  148.4125  135.1713  156.3526 O   0  0  0  0  0  0  0  0  0  0  0  0
  148.5893  134.8307  154.1218 N   0  0  0  0  0  0  0  0  0  0  0  0
  148.5446  133.3733  154.1410 C   0  0  0  0  0  0  0  0  0  0  0  0
  148.5071  132.7923  152.7170 C   0  0  0  0  0  0  0  0  0  0  0  0
  147.1792  133.0375  152.0279 C   0  0  0  0  0  0  0  0  0  0  0  0
  146.3081  131.9817  151.6817 C   0  0  0  0  0  0  0  0  0  0  0  0
  145.0864  132.2781  151.0415 C   0  0  0  0  0  0  0  0  0  0  0  0
  144.7615  133.6219  150.7631 C   0  0  0  0  0  0  0  0  0  0  0  0
  145.6671  134.6370  151.1333 C   0  0  0  0  0  0  0  0  0  0  0  0
  146.8279  134.3129  151.7448 N   0  3  0  0  0  0  0  0  0  0  0  0
  148.4398  137.9119  156.2839 C   0  0  0  0  0  0  0  0  0  0  0  0
  148.5937  139.4275  156.0640 C   0  0  0  0  0  0  0  0  0  0  0  0
  150.4001  143.6814  158.0159 H   0  0  0  0  0  0  0  0  0  0  0  0
  151.6312  142.4979  158.4411 H   0  0  0  0  0  0  0  0  0  0  0  0
  149.9295  142.0426  158.4573 H   0  0  0  0  0  0  0  0  0  0  0  0
  149.8625  142.4326  155.9151 H   0  0  0  0  0  0  0  0  0  0  0  0
  151.5736  142.7908  155.9771 H   0  0  0  0  0  0  0  0  0  0  0  0
  149.3703  139.3366  153.3862 H   0  0  0  0  0  0  0  0  0  0  0  0
  151.0820  139.2663  153.7234 H   0  0  0  0  0  0  0  0  0  0  0  0
  150.1143  136.9851  153.3995 H   0  0  0  0  0  0  0  0  0  0  0  0
  150.7971  137.1587  154.9944 H   0  0  0  0  0  0  0  0  0  0  0  0
  147.8366  137.4245  154.2778 H   0  0  0  0  0  0  0  0  0  0  0  0
  148.6812  135.2756  153.2197 H   0  0  0  0  0  0  0  0  0  0  0  0
  149.4017  132.9817  154.6919 H   0  0  0  0  0  0  0  0  0  0  0  0
  147.6551  133.0689  154.6933 H   0  0  0  0  0  0  0  0  0  0  0  0
  149.3047  133.2290  152.1140 H   0  0  0  0  0  0  0  0  0  0  0  0
  148.6955  131.7180  152.7414 H   0  0  0  0  0  0  0  0  0  0  0  0
  146.5709  130.9571  151.9028 H   0  0  0  0  0  0  0  0  0  0  0  0
  144.4072  131.4839  150.7671 H   0  0  0  0  0  0  0  0  0  0  0  0
  143.8313  133.8697  150.2725 H   0  0  0  0  0  0  0  0  0  0  0  0
  145.5003  135.6900  150.9593 H   0  0  0  0  0  0  0  0  0  0  0  0
  147.4507  137.7112  156.6978 H   0  0  0  0  0  0  0  0  0  0  0  0
  149.1499  137.5739  157.0376 H   0  0  0  0  0  0  0  0  0  0  0  0
  148.5210  139.9563  157.0136 H   0  0  0  0  0  0  0  0  0  0  0  0
  147.7678  139.7888  155.4501 H   0  0  0  0  0  0  0  0  0  0  0  0
  147.4685  135.0638  152.0025 H   0  0  0  0  0  0  0  0  0  0  0  0
  1  2  1  0  0  0  0
  1 23  1  0  0  0  0
  1 24  1  0  0  0  0
  1 25  1  0  0  0  0
  2  3  1  0  0  0  0
  2 26  1  0  0  0  0
  2 27  1  0  0  0  0
  3  4  2  0  0  0  0
  3  5  2  0  0  0  0
  3  6  1  0  0  0  0
  6 22  1  0  0  0  0
  6  7  1  0  0  0  0
  7  8  1  0  0  0  0
  7 28  1  0  0  0  0
  7 29  1  0  0  0  0
  8  9  1  0  0  0  0
  8 30  1  0  0  0  0
  8 31  1  0  0  0  0
  9 10  1  0  0  0  0
  9 21  1  0  0  0  0
  9 32  1  0  0  0  0
 10 11  2  0  0  0  0
 10 12  1  0  0  0  0
 12 13  1  0  0  0  0
 12 33  1  0  0  0  0
 13 14  1  0  0  0  0
 13 34  1  0  0  0  0
 13 35  1  0  0  0  0
 14 15  1  0  0  0  0
 14 36  1  0  0  0  0
 14 37  1  0  0  0  0
 15 20  1  0  0  0  0
 15 16  2  0  0  0  0
 16 17  1  0  0  0  0
 16 38  1  0  0  0  0
 17 18  2  0  0  0  0
 17 39  1  0  0  0  0
 18 19  1  0  0  0  0
 18 40  1  0  0  0  0
 19 20  2  0  0  0  0
 19 41  1  0  0  0  0
 20 46  1  0  0  0  0
 21 22  1  0  0  0  0
 21 42  1  0  0  0  0
 21 43  1  0  0  0  0
 22 44  1  0  0  0  0
 22 45  1  0  0  0  0
M  CHG  1  20   1
M  END
> <s_m_source_file>
AV-unprocessed.smi

> <i_m_source_file_index>
303

> <i_lp_mmshare_version>
43012

> <i_f3d_flags>
0

> <s_epik_input>
W0NIM11bQ0gyXVMoPU8pKD1PKU4xW0NIMl1bQ0gyXVtDSF0oW0NIMl1bQ0gyXTEpQyg9TylbTkhdW0NIMl1bQ0gyXWMyW2NIXVtjSF1bY0hdW2NIXW4y

> <s_epik_cmdline>
J2VwaWtfcHl0aG9uJywgJy1waCcsICc3LjAnLCAnLXRuJywgJzgnLCAnLW1hJywgJzIwMCcsICctbWV0YWxfYmluZGluZycsICctaW1hZScsICc8aW5maWxlLm1hZT4nLCAnLW9tYWUnLCAnPG91dGZpbGUubWFlPic=

> <r_epik_Ionization_Penalty>
1.82741

> <r_epik_Ionization_Penalty_Charging>
1.82741

> <r_epik_Ionization_Penalty_Neutral>
1.89562e-08

> <r_epik_State_Penalty>
1.94311

> <r_epik_Charging_Adjusted_Penalty>
3.77052

> <i_epik_Tot_Q>
1

> <i_epik_Tot_abs_Q>
1

> <r_epik_Metal_State_Penalty>
1.96983

> <b_epik_Metal_Only>
0

> <s_lp_Force_Field>
OPLS_2005

> <r_lp_Energy>
6.79825

> <b_lp_Chiralities_Consistent>
1

> <s_lp_Variant>
AV-unprocessed.smi:303-2

> <Gold.Version>
5.8.1

> <Gold.Id.Protein>
6NUR|6NUR_protein|mol2

> <Gold.PLP.Fitness>
45.3498

> <Gold.PLP.PLP>
-32.6714

> <Gold.PLP.part.hbond>
-4.0000

> <Gold.PLP.part.metal>
0.0000

> <Gold.PLP.part.buried>
0.2828

> <Gold.PLP.part.nonpolar>
-28.5671

> <Gold.PLP.part.repulsive>
0.0725

> <Gold.PLP.ligand.clash>
0.0000

> <Gold.PLP.ligand.torsion>
1.2003

> <Gold.PLP.Chemscore.Hbond>
4.2995

> <Gold.PLP.Chemscore.CHOScore>
0.0000

> <Gold.PLP.Chemscore.Metal>
0.0000

> <Gold.Chemscore.Hbonds>
donor molecule, donor type, donor heavy atom, donor atom, acceptor molecule, acceptor atom, score
      L1  H    12    33       P1  7948  1.00
      L1  H    20    46       P1  7948  2.00
      P1  H  7989  7998       L1     4  0.46
      P1  H  7997  8008       L1     4  0.84

> <Gold.PLP.Chemscore.Internal.Correction>
2.1806

> <Gold.Rescore>
     Score         DG    S(hbond)    S(metal)    S(lipo)     H(rot)  DE(clash)    DE(int)     intcor
     17.53     -20.17       2.95        0.00      80.02       1.76       1.30       1.34       ----

> <Gold.Chemscore.Fitness>
17.5313

> <Gold.Chemscore.DG>
-20.1747

> <Gold.Chemscore.ZeroCoef>
-5.4800

> <Gold.Chemscore.Hbond>
2.9452

> <Gold.Chemscore.Metal>
0.0000

> <Gold.Chemscore.Lipo>
80.0192

> <Gold.Chemscore.Internal_Hbond>
0.0000

> <Gold.Chemscore.DEClash>
1.3033

> <Gold.Chemscore.DEInternal>
1.3401

> <Gold.Chemscore.Rot>
1.7596

> <Gold.Chemscore.Internal.Correction>
   9.000000E+99

> <Gold.Chemscore.Hbonds>
donor molecule, donor type, donor heavy atom, donor atom, acceptor molecule, acceptor atom, score
      L1  H    12    33       P1  7948  0.82
      L1  H    20    46       P1  7948  0.93
      P1  H  7989  7998       L1     4  0.20
      P1  H  7997  8008       L1     4  0.81

> <Gold.Chemscore.Hbond.Weighted>
-9.8369

> <Gold.Chemscore.Metal.Weighted>
-0.0000

> <Gold.Chemscore.Lipo.Weighted>
-9.3622

> <Gold.Chemscore.Internal_Hbond.Weighted>
0.0000

> <Gold.Chemscore.DEClash.Weighted>
1.3033

> <Gold.Chemscore.DEInternal.Weighted>
1.3401

> <Gold.Chemscore.Rot.Weighted>
4.5045

> <Gold.Chemscore.Internal.Correction.Weighted>
   9.000000E+99

> <Gold.Protein.RotatedTorsions>
[ 6907 6896 6895 6894 ] final  -93.64 input  -60.11 | X-H torsion
[ 7974 7965 7964 7962 ] final  -12.93 input  175.53 | X-H torsion
[ 8008 7997 7996 7995 ] final  -22.93 input   59.86 | X-H torsion
[ 10167 10162 10161 10158 ] final -148.20 input  -65.29 | X-H torsion
[ 10718 10713 10712 10709 ] final  -48.83 input   66.30 | X-H torsion
[ 10763 10752 10751 10750 ] final  -53.34 input  -60.55 | X-H torsion
[ 11005 11000 10999 10996 ] final  135.79 input  -57.11 | X-H torsion

> <Gold.Protein.ActiveResidues>
 VAL166  LYS551  ARG553  GLY616  TRP617  ASP618  TYR619  PRO620  LYS621  CYS622 
 ASP623  PHE694  ASN695  SER759  ASP760  ASP761  ALA762  ILE779  LEU786  VAL792 
 PHE793  MET794  SER795  GLU796  ALA797  LYS798  CYS799  TRP800  GLU811  SER814 

> <Gold.Protein.RotatedAtoms>
  150.6926  134.1936  159.4294 H   0  0  0  0  0  0  0  0  0  0  0  0  # atno 6907 bound_to 6896
  151.9906  134.9979  160.0570 H   0  0  0  0  0  0  0  0  0  0  0  0  # atno 6908 bound_to 6896
  152.1671  133.4584  159.4927 H   0  0  0  0  0  0  0  0  0  0  0  0  # atno 6909 bound_to 6896
  146.2134  140.3129  142.8384 H   0  0  0  0  0  0  0  0  0  0  0  0  # atno 7974 bound_to 7965
  154.4615  140.1994  156.0233 H   0  0  0  0  0  0  0  0  0  0  0  0  # atno 8008 bound_to 7997
  156.0848  140.3266  155.7711 H   0  0  0  0  0  0  0  0  0  0  0  0  # atno 8009 bound_to 7997
  155.5053  140.0557  157.2923 H   0  0  0  0  0  0  0  0  0  0  0  0  # atno 8010 bound_to 7997
  139.7553  143.8457  152.2595 H   0  0  0  0  0  0  0  0  0  0  0  0  # atno 10167 bound_to 10162
  156.1951  130.4154  149.9318 H   0  0  0  0  0  0  0  0  0  0  0  0  # atno 10718 bound_to 10713
  154.1573  135.6480  153.4977 H   0  0  0  0  0  0  0  0  0  0  0  0  # atno 10763 bound_to 10752
  153.0120  135.5352  154.6747 H   0  0  0  0  0  0  0  0  0  0  0  0  # atno 10764 bound_to 10752
  154.6051  135.2948  155.0465 H   0  0  0  0  0  0  0  0  0  0  0  0  # atno 10765 bound_to 10752
  140.0003  134.9481  157.0057 H   0  0  0  0  0  0  0  0  0  0  0  0  # atno 11005 bound_to 11000
  144.8975  140.7602  143.5887 LP  0  0  0  0  0  0  0  0  0  0  0  0  # atno 17320 bound_to 7965
  145.3053  139.1836  143.4667 LP  0  0  0  0  0  0  0  0  0  0  0  0  # atno 17321 bound_to 7965
  139.8447  144.7193  150.9287 LP  0  0  0  0  0  0  0  0  0  0  0  0  # atno 17342 bound_to 10162
  140.7802  143.3952  151.1242 LP  0  0  0  0  0  0  0  0  0  0  0  0  # atno 17343 bound_to 10162
  156.7046  130.8946  151.3603 LP  0  0  0  0  0  0  0  0  0  0  0  0  # atno 17370 bound_to 10713
  157.6952  130.9275  150.0626 LP  0  0  0  0  0  0  0  0  0  0  0  0  # atno 17371 bound_to 10713
  140.4740  134.1357  155.7207 LP  0  0  0  0  0  0  0  0  0  0  0  0  # atno 17394 bound_to 11000
  141.1637  133.8745  157.1777 LP  0  0  0  0  0  0  0  0  0  0  0  0  # atno 17395 bound_to 11000

$$$$
