AV-unprocessed.smi:3255|AV-procd|sdf|12460|dock5
  -GOLD-   2272018353D 1   1.00000     0.00000
 Structure written by MMmdl.
 39 40  0  0  0  0  0  0  0  0  2 V2000
  147.4294  140.4793  153.5362 C   0  0  0  0  0  0  0  0  0  0  0  0
  148.0959  139.1916  154.0518 C   0  0  1  0  0  0  0  0  0  0  0  0
  147.7047  138.0636  153.2105 N   0  0  0  0  0  0  0  0  0  0  0  0
  146.4461  137.6574  152.9961 C   0  0  0  0  0  0  0  0  0  0  0  0
  145.4507  138.2084  153.4672 O   0  0  0  0  0  0  0  0  0  0  0  0
  146.3996  136.5742  152.2083 N   0  0  0  0  0  0  0  0  0  0  0  0
  145.1746  135.9003  151.7961 C   0  0  0  0  0  0  0  0  0  0  0  0
  145.1777  134.4192  152.2101 C   0  0  0  0  0  0  0  0  0  0  0  0
  144.4285  133.5917  151.2644 N   0  0  0  0  0  0  0  0  0  0  0  0
  144.7863  133.2697  149.9807 C   0  0  0  0  0  0  0  0  0  0  0  0
  143.7856  132.4743  149.4848 C   0  0  0  0  0  0  0  0  0  0  0  0
  142.8611  132.3439  150.4869 N   0  3  0  0  0  0  0  0  0  0  0  0
  143.2543  133.0248  151.5685 C   0  0  0  0  0  0  0  0  0  0  0  0
  149.6325  139.2968  154.0678 C   0  0  1  0  0  0  0  0  0  0  0  0
  150.2007  140.2385  155.1316 C   0  0  0  0  0  0  0  0  0  0  0  0
  151.5890  139.6808  155.4081 C   0  0  0  0  0  0  0  0  0  0  0  0
  151.5790  138.3028  154.7421 C   0  0  0  0  0  0  0  0  0  0  0  0
  150.2152  138.0552  154.4345 O   0  0  0  0  0  0  0  0  0  0  0  0
  147.6780  141.3343  154.1649 H   0  0  0  0  0  0  0  0  0  0  0  0
  146.3429  140.3878  153.5328 H   0  0  0  0  0  0  0  0  0  0  0  0
  147.7471  140.7104  152.5189 H   0  0  0  0  0  0  0  0  0  0  0  0
  147.7561  139.0075  155.0729 H   0  0  0  0  0  0  0  0  0  0  0  0
  148.4535  137.5407  152.7805 H   0  0  0  0  0  0  0  0  0  0  0  0
  147.2708  136.1916  151.8705 H   0  0  0  0  0  0  0  0  0  0  0  0
  144.3093  136.4146  152.2185 H   0  0  0  0  0  0  0  0  0  0  0  0
  145.0879  135.9851  150.7125 H   0  0  0  0  0  0  0  0  0  0  0  0
  146.1964  134.0336  152.2731 H   0  0  0  0  0  0  0  0  0  0  0  0
  144.7236  134.2872  153.1932 H   0  0  0  0  0  0  0  0  0  0  0  0
  145.7027  133.6214  149.5284 H   0  0  0  0  0  0  0  0  0  0  0  0
  143.6660  132.0034  148.5199 H   0  0  0  0  0  0  0  0  0  0  0  0
  142.7274  133.0999  152.5033 H   0  0  0  0  0  0  0  0  0  0  0  0
  150.0063  139.5823  153.0822 H   0  0  0  0  0  0  0  0  0  0  0  0
  150.2214  141.2783  154.8036 H   0  0  0  0  0  0  0  0  0  0  0  0
  149.6015  140.1861  156.0418 H   0  0  0  0  0  0  0  0  0  0  0  0
  152.3697  140.3109  154.9808 H   0  0  0  0  0  0  0  0  0  0  0  0
  151.7674  139.6059  156.4814 H   0  0  0  0  0  0  0  0  0  0  0  0
  152.1570  138.3197  153.8170 H   0  0  0  0  0  0  0  0  0  0  0  0
  151.9874  137.5221  155.3843 H   0  0  0  0  0  0  0  0  0  0  0  0
  142.0040  131.8094  150.4218 H   0  0  0  0  0  0  0  0  0  0  0  0
  1  2  1  0  0  0  0
  1 19  1  0  0  0  0
  1 20  1  0  0  0  0
  1 21  1  0  0  0  0
  2  3  1  0  0  0  0
  2 14  1  0  0  0  0
  2 22  1  0  0  0  0
  3  4  1  0  0  0  0
  3 23  1  0  0  0  0
  4  5  2  0  0  0  0
  4  6  1  0  0  0  0
  6  7  1  0  0  0  0
  6 24  1  0  0  0  0
  7  8  1  0  0  0  0
  7 25  1  0  0  0  0
  7 26  1  0  0  0  0
  8  9  1  0  0  0  0
  8 27  1  0  0  0  0
  8 28  1  0  0  0  0
  9 13  1  0  0  0  0
  9 10  1  0  0  0  0
 10 11  2  0  0  0  0
 10 29  1  0  0  0  0
 11 12  1  0  0  0  0
 11 30  1  0  0  0  0
 12 13  2  0  0  0  0
 12 39  1  0  0  0  0
 13 31  1  0  0  0  0
 14 18  1  0  0  0  0
 14 15  1  0  0  0  0
 14 32  1  0  0  0  0
 15 16  1  0  0  0  0
 15 33  1  0  0  0  0
 15 34  1  0  0  0  0
 16 17  1  0  0  0  0
 16 35  1  0  0  0  0
 16 36  1  0  0  0  0
 17 18  1  0  0  0  0
 17 37  1  0  0  0  0
 17 38  1  0  0  0  0
M  CHG  1  12   1
M  END
> <s_m_source_file>
AV-unprocessed.smi

> <i_m_source_file_index>
3255

> <i_lp_mmshare_version>
43012

> <i_f3d_flags>
0

> <s_epik_input>
TzFbQ0gyXVtDSDJdW0NIMl1bQ0BIXTFbQ0BIXShbQ0gzXSlbTkhdQyg9TylbTkhdW0NIMl1bQ0gyXW4yW2NIXVtjSF1uW2NIXTI=

> <s_epik_cmdline>
J2VwaWtfcHl0aG9uJywgJy1waCcsICc3LjAnLCAnLXRuJywgJzgnLCAnLW1hJywgJzIwMCcsICctbWV0YWxfYmluZGluZycsICctaW1hZScsICc8aW5maWxlLm1hZT4nLCAnLW9tYWUnLCAnPG91dGZpbGUubWFlPic=

> <r_lp_tautomer_probability>
1

> <r_epik_Ionization_Penalty>
0.256241

> <r_epik_Ionization_Penalty_Charging>
0

> <r_epik_Ionization_Penalty_Neutral>
0.256241

> <r_epik_State_Penalty>
0.247735

> <r_epik_Charging_Adjusted_Penalty>
0.247735

> <i_epik_Tot_Q>
1

> <i_epik_Tot_abs_Q>
1

> <r_epik_Metal_State_Penalty>
0.537184

> <b_epik_Metal_Only>
0

> <s_lp_Force_Field>
OPLS_2005

> <r_lp_Energy>
17.8763

> <b_lp_Chiralities_Consistent>
1

> <s_lp_Variant>
AV-unprocessed.smi:3255-4

> <Gold.Version>
5.8.1

> <Gold.Id.Protein>
6NUR|6NUR_protein|mol2

> <Gold.PLP.Fitness>
46.5932

> <Gold.PLP.PLP>
-32.6846

> <Gold.PLP.part.hbond>
-4.0000

> <Gold.PLP.part.metal>
0.0000

> <Gold.PLP.part.buried>
-2.1683

> <Gold.PLP.part.nonpolar>
-28.8212

> <Gold.PLP.part.repulsive>
0.6388

> <Gold.PLP.ligand.clash>
0.0000

> <Gold.PLP.ligand.torsion>
0.3854

> <Gold.PLP.Chemscore.Hbond>
2.9833

> <Gold.PLP.Chemscore.CHOScore>
1.8864

> <Gold.PLP.Chemscore.Metal>
0.0000

> <Gold.Chemscore.Hbonds>
donor molecule, donor type, donor heavy atom, donor atom, acceptor molecule, acceptor atom, score
      L1  H     3    23       P1  7948  1.00
      L1  H     6    24       P1  7948  1.00
      L1  H    12    39       P1 10952  0.94
      L1  C    10    29       P1  7921  1.00
      L1  C    13    31       P1 10957  0.77

> <Gold.PLP.Chemscore.Internal.Correction>
0.0704

> <Gold.Rescore>
     Score         DG    S(hbond)    S(metal)    S(lipo)     H(rot)  DE(clash)    DE(int)     intcor
     15.68     -16.39       2.74        0.00      64.45       2.26       0.29       0.42       ----

> <Gold.Chemscore.Fitness>
15.6843

> <Gold.Chemscore.DG>
-16.3887

> <Gold.Chemscore.ZeroCoef>
-5.4800

> <Gold.Chemscore.Hbond>
2.7438

> <Gold.Chemscore.Metal>
0.0000

> <Gold.Chemscore.Lipo>
64.4471

> <Gold.Chemscore.Internal_Hbond>
0.0000

> <Gold.Chemscore.DEClash>
0.2875

> <Gold.Chemscore.DEInternal>
0.4169

> <Gold.Chemscore.Rot>
2.2640

> <Gold.Chemscore.Internal.Correction>
   9.000000E+99

> <Gold.Chemscore.Hbonds>
donor molecule, donor type, donor heavy atom, donor atom, acceptor molecule, acceptor atom, score
      L1  H     3    23       P1  7948  0.94
      L1  H     6    24       P1  7948  0.94
      L1  H    12    39       P1 10952  0.39

> <Gold.Chemscore.Hbond.Weighted>
-9.1642

> <Gold.Chemscore.Metal.Weighted>
-0.0000

> <Gold.Chemscore.Lipo.Weighted>
-7.5403

> <Gold.Chemscore.Internal_Hbond.Weighted>
0.0000

> <Gold.Chemscore.DEClash.Weighted>
0.2875

> <Gold.Chemscore.DEInternal.Weighted>
0.4169

> <Gold.Chemscore.Rot.Weighted>
5.7958

> <Gold.Chemscore.Internal.Correction.Weighted>
   9.000000E+99

> <Gold.Protein.RotatedTorsions>
[ 6907 6896 6895 6894 ] final  126.59 input  -60.11 | X-H torsion
[ 7974 7965 7964 7962 ] final  -61.56 input  175.53 | X-H torsion
[ 8008 7997 7996 7995 ] final -138.86 input   59.86 | X-H torsion
[ 10167 10162 10161 10158 ] final   -0.64 input  -65.29 | X-H torsion
[ 10718 10713 10712 10709 ] final    5.35 input   66.30 | X-H torsion
[ 10763 10752 10751 10750 ] final  122.06 input  -60.55 | X-H torsion
[ 11005 11000 10999 10996 ] final -139.50 input  -57.11 | X-H torsion

> <Gold.Protein.ActiveResidues>
 VAL166  LYS551  ARG553  GLY616  TRP617  ASP618  TYR619  PRO620  LYS621  CYS622 
 ASP623  PHE694  ASN695  SER759  ASP760  ASP761  ALA762  ILE779  LEU786  VAL792 
 PHE793  MET794  SER795  GLU796  ALA797  LYS798  CYS799  TRP800  GLU811  SER814 

> <Gold.Protein.RotatedAtoms>
  152.3890  133.6651  159.6221 H   0  0  0  0  0  0  0  0  0  0  0  0  # atno 6907 bound_to 6896
  150.7802  133.8987  159.3343 H   0  0  0  0  0  0  0  0  0  0  0  0  # atno 6908 bound_to 6896
  151.6777  135.0968  160.0261 H   0  0  0  0  0  0  0  0  0  0  0  0  # atno 6909 bound_to 6896
  145.8019  140.8650  143.0227 H   0  0  0  0  0  0  0  0  0  0  0  0  # atno 7974 bound_to 7965
  155.4353  140.0528  157.3015 H   0  0  0  0  0  0  0  0  0  0  0  0  # atno 8008 bound_to 7997
  154.4842  140.2094  155.9651 H   0  0  0  0  0  0  0  0  0  0  0  0  # atno 8009 bound_to 7997
  156.1250  140.3182  155.8269 H   0  0  0  0  0  0  0  0  0  0  0  0  # atno 8010 bound_to 7997
  140.6776  143.6870  150.8059 H   0  0  0  0  0  0  0  0  0  0  0  0  # atno 10167 bound_to 10162
  156.9061  130.5739  149.5647 H   0  0  0  0  0  0  0  0  0  0  0  0  # atno 10718 bound_to 10713
  153.6238  135.3408  155.3019 H   0  0  0  0  0  0  0  0  0  0  0  0  # atno 10763 bound_to 10752
  154.8594  135.4279  154.2179 H   0  0  0  0  0  0  0  0  0  0  0  0  # atno 10764 bound_to 10752
  153.3058  135.7028  153.7234 H   0  0  0  0  0  0  0  0  0  0  0  0  # atno 10765 bound_to 10752
  140.8513  134.2282  157.4758 H   0  0  0  0  0  0  0  0  0  0  0  0  # atno 11005 bound_to 11000
  144.6767  140.0272  143.7483 LP  0  0  0  0  0  0  0  0  0  0  0  0  # atno 17320 bound_to 7965
  145.9868  139.2984  143.1008 LP  0  0  0  0  0  0  0  0  0  0  0  0  # atno 17321 bound_to 7965
  140.0565  143.5197  152.2648 LP  0  0  0  0  0  0  0  0  0  0  0  0  # atno 17342 bound_to 10162
  139.6078  144.7601  151.3021 LP  0  0  0  0  0  0  0  0  0  0  0  0  # atno 17343 bound_to 10162
  156.0558  130.5620  150.9089 LP  0  0  0  0  0  0  0  0  0  0  0  0  # atno 17370 bound_to 10713
  157.5996  131.0941  150.8982 LP  0  0  0  0  0  0  0  0  0  0  0  0  # atno 17371 bound_to 10713
  139.8704  134.9685  156.4632 LP  0  0  0  0  0  0  0  0  0  0  0  0  # atno 17394 bound_to 11000
  140.8786  133.7934  155.9442 LP  0  0  0  0  0  0  0  0  0  0  0  0  # atno 17395 bound_to 11000

$$$$
