AV-unprocessed.smi:3305|AV-procd|sdf|12700|dock1
  -GOLD-   2272019 33D 1   1.00000     0.00000
 Structure written by MMmdl.
 32 33  0  0  0  0  0  0  0  0  1 V2000
  152.1152  144.1232  161.6121 C   0  0  0  0  0  0  0  0  0  0  0  0
  152.2782  142.9418  160.7079 C   0  0  0  0  0  0  0  0  0  0  0  0
  153.2027  141.9339  160.8251 C   0  0  0  0  0  0  0  0  0  0  0  0
  153.0382  140.7507  159.5573 S   0  0  0  0  0  0  0  0  0  0  0  0
  151.7020  141.6893  158.8976 C   0  0  0  0  0  0  0  0  0  0  0  0
  150.9226  141.2756  157.6906 C   0  0  0  0  0  0  0  0  0  0  0  0
  150.9912  142.2838  156.5268 C   0  0  0  0  0  0  0  0  0  0  0  0
  149.7986  142.2635  155.6852 N   0  0  0  0  0  0  0  0  0  0  0  0
  149.4880  141.2940  154.8114 C   0  0  0  0  0  0  0  0  0  0  0  0
  150.2065  140.3141  154.6101 O   0  0  0  0  0  0  0  0  0  0  0  0
  148.1557  141.4529  154.0617 C   0  0  1  0  0  0  0  0  0  0  0  0
  147.7366  140.1678  153.3392 C   0  0  0  0  0  0  0  0  0  0  0  0
  146.4774  139.6984  154.0732 C   0  0  0  0  0  0  0  0  0  0  0  0
  146.4978  140.3959  155.3076 O   0  0  0  0  0  0  0  0  0  0  0  0
  146.9915  141.6957  155.0312 C   0  0  0  0  0  0  0  0  0  0  0  0
  151.4273  142.7854  159.6098 N   0  0  0  0  0  0  0  0  0  0  0  0
  152.9491  144.2103  162.3090 H   0  0  0  0  0  0  0  0  0  0  0  0
  151.2007  144.0442  162.2005 H   0  0  0  0  0  0  0  0  0  0  0  0
  152.0644  145.0522  161.0434 H   0  0  0  0  0  0  0  0  0  0  0  0
  153.9672  141.8146  161.5785 H   0  0  0  0  0  0  0  0  0  0  0  0
  151.2853  140.3031  157.3563 H   0  0  0  0  0  0  0  0  0  0  0  0
  149.8846  141.1251  157.9893 H   0  0  0  0  0  0  0  0  0  0  0  0
  151.0898  143.2924  156.9289 H   0  0  0  0  0  0  0  0  0  0  0  0
  151.8820  142.1058  155.9226 H   0  0  0  0  0  0  0  0  0  0  0  0
  149.1532  143.0330  155.7904 H   0  0  0  0  0  0  0  0  0  0  0  0
  148.2333  142.2843  153.3590 H   0  0  0  0  0  0  0  0  0  0  0  0
  147.5261  140.3497  152.2847 H   0  0  0  0  0  0  0  0  0  0  0  0
  148.5094  139.3985  153.3814 H   0  0  0  0  0  0  0  0  0  0  0  0
  145.5817  139.9804  153.5175 H   0  0  0  0  0  0  0  0  0  0  0  0
  146.4574  138.6193  154.2266 H   0  0  0  0  0  0  0  0  0  0  0  0
  147.2855  142.2059  155.9497 H   0  0  0  0  0  0  0  0  0  0  0  0
  146.2112  142.2916  154.5549 H   0  0  0  0  0  0  0  0  0  0  0  0
  1  2  1  0  0  0  0
  1 17  1  0  0  0  0
  1 18  1  0  0  0  0
  1 19  1  0  0  0  0
  2 16  1  0  0  0  0
  2  3  2  0  0  0  0
  3  4  1  0  0  0  0
  3 20  1  0  0  0  0
  4  5  1  0  0  0  0
  5  6  1  0  0  0  0
  5 16  2  0  0  0  0
  6  7  1  0  0  0  0
  6 21  1  0  0  0  0
  6 22  1  0  0  0  0
  7  8  1  0  0  0  0
  7 23  1  0  0  0  0
  7 24  1  0  0  0  0
  8  9  1  0  0  0  0
  8 25  1  0  0  0  0
  9 10  2  0  0  0  0
  9 11  1  0  0  0  0
 11 15  1  0  0  0  0
 11 12  1  0  0  0  0
 11 26  1  0  0  0  0
 12 13  1  0  0  0  0
 12 27  1  0  0  0  0
 12 28  1  0  0  0  0
 13 14  1  0  0  0  0
 13 29  1  0  0  0  0
 13 30  1  0  0  0  0
 14 15  1  0  0  0  0
 15 31  1  0  0  0  0
 15 32  1  0  0  0  0
M  END
> <s_m_source_file>
AV-unprocessed.smi

> <i_m_source_file_index>
3305

> <i_lp_mmshare_version>
43012

> <i_f3d_flags>
0

> <s_epik_input>
W0NIM11jMVtjSF1zYyhuMSlbQ0gyXVtDSDJdW05IXUMoPU8pW0NAQEhdMltDSDJdW0NIMl1PW0NIMl0y

> <s_epik_cmdline>
J2VwaWtfcHl0aG9uJywgJy1waCcsICc3LjAnLCAnLXRuJywgJzgnLCAnLW1hJywgJzIwMCcsICctbWV0YWxfYmluZGluZycsICctaW1hZScsICc8aW5maWxlLm1hZT4nLCAnLW9tYWUnLCAnPG91dGZpbGUubWFlPic=

> <r_epik_Ionization_Penalty>
0.00102754

> <r_epik_Ionization_Penalty_Charging>
0

> <r_epik_Ionization_Penalty_Neutral>
0.00102754

> <r_epik_State_Penalty>
0.000671034

> <r_epik_Charging_Adjusted_Penalty>
0.000671034

> <i_epik_Tot_Q>
0

> <i_epik_Tot_abs_Q>
0

> <r_epik_Metal_State_Penalty>
-0

> <b_epik_Metal_Only>
0

> <s_lp_Force_Field>
OPLS_2005

> <r_lp_Energy>
8.47293

> <b_lp_Chiralities_Consistent>
1

> <s_lp_Variant>
AV-unprocessed.smi:3305-2

> <Gold.Version>
5.8.1

> <Gold.Id.Protein>
6NUR|6NUR_protein|mol2

> <Gold.PLP.Fitness>
40.3762

> <Gold.PLP.PLP>
-35.2315

> <Gold.PLP.part.hbond>
-2.0000

> <Gold.PLP.part.metal>
0.0000

> <Gold.PLP.part.buried>
-2.7817

> <Gold.PLP.part.nonpolar>
-29.7877

> <Gold.PLP.part.repulsive>
0.3178

> <Gold.PLP.ligand.clash>
0.0000

> <Gold.PLP.ligand.torsion>
0.4568

> <Gold.PLP.Chemscore.Hbond>
1.9920

> <Gold.PLP.Chemscore.CHOScore>
0.0000

> <Gold.PLP.Chemscore.Metal>
0.0000

> <Gold.Chemscore.Hbonds>
donor molecule, donor type, donor heavy atom, donor atom, acceptor molecule, acceptor atom, score
      L1  H     8    25       P1  8028  0.96
      P1  H  7989  7998       L1    10  1.00

> <Gold.PLP.Chemscore.Internal.Correction>
0.0823

> <Gold.Rescore>
     Score         DG    S(hbond)    S(metal)    S(lipo)     H(rot)  DE(clash)    DE(int)     intcor
     16.51     -18.25       1.72        0.00      93.32       1.52       1.42       0.32       ----

> <Gold.Chemscore.Fitness>
16.5104

> <Gold.Chemscore.DG>
-18.2515

> <Gold.Chemscore.ZeroCoef>
-5.4800

> <Gold.Chemscore.Hbond>
1.7166

> <Gold.Chemscore.Metal>
0.0000

> <Gold.Chemscore.Lipo>
93.3209

> <Gold.Chemscore.Internal_Hbond>
0.0000

> <Gold.Chemscore.DEClash>
1.4235

> <Gold.Chemscore.DEInternal>
0.3176

> <Gold.Chemscore.Rot>
1.5159

> <Gold.Chemscore.Internal.Correction>
   9.000000E+99

> <Gold.Chemscore.Hbonds>
donor molecule, donor type, donor heavy atom, donor atom, acceptor molecule, acceptor atom, score
      L1  H     8    25       P1  8028  0.92
      P1  H  7989  7998       L1    10  0.58

> <Gold.Chemscore.Hbond.Weighted>
-5.7336

> <Gold.Chemscore.Metal.Weighted>
-0.0000

> <Gold.Chemscore.Lipo.Weighted>
-10.9185

> <Gold.Chemscore.Internal_Hbond.Weighted>
0.0000

> <Gold.Chemscore.DEClash.Weighted>
1.4235

> <Gold.Chemscore.DEInternal.Weighted>
0.3176

> <Gold.Chemscore.Rot.Weighted>
3.8807

> <Gold.Chemscore.Internal.Correction.Weighted>
   9.000000E+99

> <Gold.Protein.RotatedTorsions>
[ 6907 6896 6895 6894 ] final  -35.99 input  -60.11 | X-H torsion
[ 7974 7965 7964 7962 ] final  -80.30 input  175.53 | X-H torsion
[ 8008 7997 7996 7995 ] final   83.01 input   59.86 | X-H torsion
[ 10167 10162 10161 10158 ] final -115.28 input  -65.29 | X-H torsion
[ 10718 10713 10712 10709 ] final    8.54 input   66.30 | X-H torsion
[ 10763 10752 10751 10750 ] final  -33.94 input  -60.55 | X-H torsion
[ 11005 11000 10999 10996 ] final   44.77 input  -57.11 | X-H torsion

> <Gold.Protein.ActiveResidues>
 VAL166  LYS551  ARG553  GLY616  TRP617  ASP618  TYR619  PRO620  LYS621  CYS622 
 ASP623  PHE694  ASN695  SER759  ASP760  ASP761  ALA762  ILE779  LEU786  VAL792 
 PHE793  MET794  SER795  GLU796  ALA797  LYS798  CYS799  TRP800  GLU811  SER814 

> <Gold.Protein.RotatedAtoms>
  151.0328  134.9551  159.8119 H   0  0  0  0  0  0  0  0  0  0  0  0  # atno 6907 bound_to 6896
  152.5349  134.2759  159.8999 H   0  0  0  0  0  0  0  0  0  0  0  0  # atno 6908 bound_to 6896
  151.2768  133.4186  159.2658 H   0  0  0  0  0  0  0  0  0  0  0  0  # atno 6909 bound_to 6896
  145.5618  140.9481  143.1443 H   0  0  0  0  0  0  0  0  0  0  0  0  # atno 7974 bound_to 7965
  155.9182  140.3423  155.6152 H   0  0  0  0  0  0  0  0  0  0  0  0  # atno 8008 bound_to 7997
  155.7305  140.0795  157.2310 H   0  0  0  0  0  0  0  0  0  0  0  0  # atno 8009 bound_to 7997
  154.4065  140.1589  156.2490 H   0  0  0  0  0  0  0  0  0  0  0  0  # atno 8010 bound_to 7997
  140.0918  143.4693  152.1865 H   0  0  0  0  0  0  0  0  0  0  0  0  # atno 10167 bound_to 10162
  156.9531  130.5904  149.5658 H   0  0  0  0  0  0  0  0  0  0  0  0  # atno 10718 bound_to 10713
  153.8385  135.6859  153.4806 H   0  0  0  0  0  0  0  0  0  0  0  0  # atno 10763 bound_to 10752
  153.1468  135.4634  154.9576 H   0  0  0  0  0  0  0  0  0  0  0  0  # atno 10764 bound_to 10752
  154.7855  135.3283  154.7841 H   0  0  0  0  0  0  0  0  0  0  0  0  # atno 10765 bound_to 10752
  140.1521  134.4448  155.8374 H   0  0  0  0  0  0  0  0  0  0  0  0  # atno 11005 bound_to 11000
  144.7479  139.7270  143.7285 LP  0  0  0  0  0  0  0  0  0  0  0  0  # atno 17320 bound_to 7965
  146.1846  139.5055  142.9844 LP  0  0  0  0  0  0  0  0  0  0  0  0  # atno 17321 bound_to 7965
  139.5720  144.7468  151.3864 LP  0  0  0  0  0  0  0  0  0  0  0  0  # atno 17342 bound_to 10162
  140.7024  143.7597  150.7426 LP  0  0  0  0  0  0  0  0  0  0  0  0  # atno 17343 bound_to 10162
  156.0354  130.5442  150.8641 LP  0  0  0  0  0  0  0  0  0  0  0  0  # atno 17370 bound_to 10713
  157.5708  131.0946  150.9420 LP  0  0  0  0  0  0  0  0  0  0  0  0  # atno 17371 bound_to 10713
  141.2200  133.6877  156.7441 LP  0  0  0  0  0  0  0  0  0  0  0  0  # atno 17394 bound_to 11000
  140.2591  134.8480  157.3742 LP  0  0  0  0  0  0  0  0  0  0  0  0  # atno 17395 bound_to 11000

$$$$
