AV-unprocessed.smi:1207|AV-procd|sdf|5049|dock3
  -GOLD-   22720 4 73D 1   1.00000     0.00000
 Structure written by MMmdl.
 51 53  0  0  0  0  0  0  0  0  1 V2000
  152.3248  142.9807  161.9386 C   0  0  0  0  0  0  0  0  0  0  0  0
  151.9065  142.6562  160.5153 C   0  0  0  0  0  0  0  0  0  0  0  0
  152.3573  141.4548  159.9235 C   0  0  0  0  0  0  0  0  0  0  0  0
  151.9914  141.1162  158.6022 C   0  0  0  0  0  0  0  0  0  0  0  0
  152.3153  140.0095  157.8361 N   0  0  0  0  0  0  0  0  0  0  0  0
  151.6742  140.2730  156.7012 C   0  0  0  0  0  0  0  0  0  0  0  0
  150.9717  141.4204  156.6412 N   0  0  0  0  0  0  0  0  0  0  0  0
  150.1989  141.9112  155.5136 C   0  0  0  0  0  0  0  0  0  0  0  0
  149.3751  140.8011  154.8341 C   0  0  2  0  0  0  0  0  0  0  0  0
  150.2402  139.9717  154.0830 O   0  0  0  0  0  0  0  0  0  0  0  0
  148.3142  141.3875  153.8795 C   0  0  0  0  0  0  0  0  0  0  0  0
  147.0791  141.8540  154.5149 N   0  0  0  0  0  0  0  0  0  0  0  0
  146.6238  140.8744  155.4979 C   0  0  0  0  0  0  0  0  0  0  0  0
  146.0216  142.1457  153.5418 C   0  0  0  0  0  0  0  0  0  0  0  0
  145.1271  143.2813  153.9708 C   0  0  0  0  0  0  0  0  0  0  0  0
  144.8218  144.4765  153.2594 C   0  0  0  0  0  0  0  0  0  0  0  0
  145.3060  144.9043  151.9040 C   0  0  0  0  0  0  0  0  0  0  0  0
  144.0012  145.2602  153.9391 N   0  0  0  0  0  0  0  0  0  0  0  0
  143.7392  144.5921  155.1391 O   0  0  0  0  0  0  0  0  0  0  0  0
  144.4220  143.4190  155.1348 C   0  0  0  0  0  0  0  0  0  0  0  0
  144.2750  142.5500  156.3381 C   0  0  0  0  0  0  0  0  0  0  0  0
  151.1531  142.0183  157.8839 C   0  0  0  0  0  0  0  0  0  0  0  0
  150.6991  143.2171  158.4618 C   0  0  0  0  0  0  0  0  0  0  0  0
  151.0763  143.5415  159.7819 C   0  0  0  0  0  0  0  0  0  0  0  0
  150.5835  144.8403  160.3946 C   0  0  0  0  0  0  0  0  0  0  0  0
  152.9374  142.1860  162.3649 H   0  0  0  0  0  0  0  0  0  0  0  0
  151.4491  143.1054  162.5758 H   0  0  0  0  0  0  0  0  0  0  0  0
  152.9067  143.9024  161.9643 H   0  0  0  0  0  0  0  0  0  0  0  0
  152.9910  140.7811  160.4812 H   0  0  0  0  0  0  0  0  0  0  0  0
  151.7177  139.5931  155.8629 H   0  0  0  0  0  0  0  0  0  0  0  0
  149.5377  142.6999  155.8748 H   0  0  0  0  0  0  0  0  0  0  0  0
  150.8783  142.3790  154.7996 H   0  0  0  0  0  0  0  0  0  0  0  0
  148.9121  140.1969  155.6125 H   0  0  0  0  0  0  0  0  0  0  0  0
  149.8608  139.8463  153.2265 H   0  0  0  0  0  0  0  0  0  0  0  0
  148.7538  142.2086  153.3112 H   0  0  0  0  0  0  0  0  0  0  0  0
  148.0733  140.6181  153.1440 H   0  0  0  0  0  0  0  0  0  0  0  0
  145.7456  141.2303  156.0365 H   0  0  0  0  0  0  0  0  0  0  0  0
  147.3988  140.6818  156.2404 H   0  0  0  0  0  0  0  0  0  0  0  0
  146.3694  139.9271  155.0208 H   0  0  0  0  0  0  0  0  0  0  0  0
  146.4594  142.4051  152.5804 H   0  0  0  0  0  0  0  0  0  0  0  0
  145.4418  141.2409  153.3552 H   0  0  0  0  0  0  0  0  0  0  0  0
  146.3702  145.1383  151.9275 H   0  0  0  0  0  0  0  0  0  0  0  0
  144.7789  145.7894  151.5464 H   0  0  0  0  0  0  0  0  0  0  0  0
  145.1562  144.1127  151.1699 H   0  0  0  0  0  0  0  0  0  0  0  0
  145.2428  142.1588  156.6524 H   0  0  0  0  0  0  0  0  0  0  0  0
  143.6239  141.7027  156.1220 H   0  0  0  0  0  0  0  0  0  0  0  0
  143.8463  143.1030  157.1742 H   0  0  0  0  0  0  0  0  0  0  0  0
  150.0693  143.8830  157.8903 H   0  0  0  0  0  0  0  0  0  0  0  0
  149.9819  145.4108  159.6866 H   0  0  0  0  0  0  0  0  0  0  0  0
  151.4247  145.4642  160.6965 H   0  0  0  0  0  0  0  0  0  0  0  0
  149.9680  144.6389  161.2717 H   0  0  0  0  0  0  0  0  0  0  0  0
  1  2  1  0  0  0  0
  1 26  1  0  0  0  0
  1 27  1  0  0  0  0
  1 28  1  0  0  0  0
  2 24  1  0  0  0  0
  2  3  2  0  0  0  0
  3  4  1  0  0  0  0
  3 29  1  0  0  0  0
  4 22  2  0  0  0  0
  4  5  1  0  0  0  0
  5  6  2  0  0  0  0
  6  7  1  0  0  0  0
  6 30  1  0  0  0  0
  7  8  1  0  0  0  0
  7 22  1  0  0  0  0
  8  9  1  0  0  0  0
  8 31  1  0  0  0  0
  8 32  1  0  0  0  0
  9 10  1  0  0  0  0
  9 11  1  0  0  0  0
  9 33  1  0  0  0  0
 10 34  1  0  0  0  0
 11 12  1  0  0  0  0
 11 35  1  0  0  0  0
 11 36  1  0  0  0  0
 12 13  1  0  0  0  0
 12 14  1  0  0  0  0
 13 37  1  0  0  0  0
 13 38  1  0  0  0  0
 13 39  1  0  0  0  0
 14 15  1  0  0  0  0
 14 40  1  0  0  0  0
 14 41  1  0  0  0  0
 15 20  2  0  0  0  0
 15 16  1  0  0  0  0
 16 17  1  0  0  0  0
 16 18  2  0  0  0  0
 17 42  1  0  0  0  0
 17 43  1  0  0  0  0
 17 44  1  0  0  0  0
 18 19  1  0  0  0  0
 19 20  1  0  0  0  0
 20 21  1  0  0  0  0
 21 45  1  0  0  0  0
 21 46  1  0  0  0  0
 21 47  1  0  0  0  0
 22 23  1  0  0  0  0
 23 24  2  0  0  0  0
 23 48  1  0  0  0  0
 24 25  1  0  0  0  0
 25 49  1  0  0  0  0
 25 50  1  0  0  0  0
 25 51  1  0  0  0  0
M  END
> <s_m_source_file>
AV-unprocessed.smi

> <i_m_source_file_index>
1207

> <i_lp_mmshare_version>
43012

> <i_f3d_flags>
0

> <s_epik_input>
W0NIM11jKFtjSF0xKWMoW0NIM10pW2NIXWMoYzEyKW4oW2NIXW4yKVtDSDJdW0NASF0oW09IXSlbQ0gyXU4oW0NIM10pW0NIMl1jM2MoW0NIM10pbm9jM1tDSDNd

> <s_epik_cmdline>
J2VwaWtfcHl0aG9uJywgJy1waCcsICc3LjAnLCAnLXRuJywgJzgnLCAnLW1hJywgJzIwMCcsICctbWV0YWxfYmluZGluZycsICctaW1hZScsICc8aW5maWxlLm1hZT4nLCAnLW9tYWUnLCAnPG91dGZpbGUubWFlPic=

> <r_epik_Ionization_Penalty>
0.374039

> <r_epik_Ionization_Penalty_Charging>
0

> <r_epik_Ionization_Penalty_Neutral>
0.374039

> <r_epik_State_Penalty>
0.350767

> <r_epik_Charging_Adjusted_Penalty>
0.350767

> <i_epik_Tot_Q>
0

> <i_epik_Tot_abs_Q>
0

> <r_epik_Metal_State_Penalty>
0.343187

> <b_epik_Metal_Only>
0

> <s_lp_Force_Field>
OPLS_2005

> <r_lp_Energy>
17.2157

> <b_lp_Chiralities_Consistent>
1

> <s_lp_Variant>
AV-unprocessed.smi:1207-1

> <Gold.Version>
5.8.1

> <Gold.Id.Protein>
6NUR|6NUR_protein|mol2

> <Gold.PLP.Fitness>
60.2219

> <Gold.PLP.PLP>
-53.0466

> <Gold.PLP.part.hbond>
-3.0000

> <Gold.PLP.part.metal>
0.0000

> <Gold.PLP.part.buried>
-4.6624

> <Gold.PLP.part.nonpolar>
-44.3554

> <Gold.PLP.part.repulsive>
0.2873

> <Gold.PLP.ligand.clash>
0.0000

> <Gold.PLP.ligand.torsion>
1.0555

> <Gold.PLP.Chemscore.Hbond>
2.9833

> <Gold.PLP.Chemscore.CHOScore>
0.0000

> <Gold.PLP.Chemscore.Metal>
0.0000

> <Gold.Chemscore.Hbonds>
donor molecule, donor type, donor heavy atom, donor atom, acceptor molecule, acceptor atom, score
      L1  H    10    34       P1  7957  0.86
      P1  H  7989  7998       L1    10  0.70
      P1  H  7997  8009       L1     5  0.12

> <Gold.PLP.Chemscore.Internal.Correction>
0.3366

> <Gold.Rescore>
     Score         DG    S(hbond)    S(metal)    S(lipo)     H(rot)  DE(clash)    DE(int)     intcor
     19.24     -21.97       1.94        0.00     137.64       2.38       1.48       1.25       ----

> <Gold.Chemscore.Fitness>
19.2394

> <Gold.Chemscore.DG>
-21.9696

> <Gold.Chemscore.ZeroCoef>
-5.4800

> <Gold.Chemscore.Hbond>
1.9362

> <Gold.Chemscore.Metal>
0.0000

> <Gold.Chemscore.Lipo>
137.6433

> <Gold.Chemscore.Internal_Hbond>
0.0000

> <Gold.Chemscore.DEClash>
1.4767

> <Gold.Chemscore.DEInternal>
1.2534

> <Gold.Chemscore.Rot>
2.3756

> <Gold.Chemscore.Internal.Correction>
   9.000000E+99

> <Gold.Chemscore.Hbonds>
donor molecule, donor type, donor heavy atom, donor atom, acceptor molecule, acceptor atom, score
      L1  H    10    34       P1  7957  0.83
      P1  H  7989  7998       L1    10  0.06
      P1  H  7997  8009       L1     5  0.02

> <Gold.Chemscore.Hbond.Weighted>
-6.4669

> <Gold.Chemscore.Metal.Weighted>
-0.0000

> <Gold.Chemscore.Lipo.Weighted>
-16.1043

> <Gold.Chemscore.Internal_Hbond.Weighted>
0.0000

> <Gold.Chemscore.DEClash.Weighted>
1.4767

> <Gold.Chemscore.DEInternal.Weighted>
1.2534

> <Gold.Chemscore.Rot.Weighted>
6.0816

> <Gold.Chemscore.Internal.Correction.Weighted>
   9.000000E+99

> <Gold.Protein.RotatedTorsions>
[ 6907 6896 6895 6894 ] final  101.47 input  -60.11 | X-H torsion
[ 7974 7965 7964 7962 ] final  -61.12 input  175.53 | X-H torsion
[ 8008 7997 7996 7995 ] final  161.89 input   59.86 | X-H torsion
[ 10167 10162 10161 10158 ] final   74.81 input  -65.29 | X-H torsion
[ 10718 10713 10712 10709 ] final   29.35 input   66.30 | X-H torsion
[ 10763 10752 10751 10750 ] final   44.80 input  -60.55 | X-H torsion
[ 11005 11000 10999 10996 ] final -121.87 input  -57.11 | X-H torsion

> <Gold.Protein.ActiveResidues>
 VAL166  LYS551  ARG553  GLY616  TRP617  ASP618  TYR619  PRO620  LYS621  CYS622 
 ASP623  PHE694  ASN695  SER759  ASP760  ASP761  ALA762  ILE779  LEU786  VAL792 
 PHE793  MET794  SER795  GLU796  ALA797  LYS798  CYS799  TRP800  GLU811  SER814 

> <Gold.Protein.RotatedAtoms>
  152.5348  134.0121  159.7942 H   0  0  0  0  0  0  0  0  0  0  0  0  # atno 6907 bound_to 6896
  151.0321  133.5773  159.2667 H   0  0  0  0  0  0  0  0  0  0  0  0  # atno 6908 bound_to 6896
  151.2774  135.0710  159.9210 H   0  0  0  0  0  0  0  0  0  0  0  0  # atno 6909 bound_to 6896
  145.8073  140.8619  143.0200 H   0  0  0  0  0  0  0  0  0  0  0  0  # atno 7974 bound_to 7965
  156.2071  140.1765  156.7777 H   0  0  0  0  0  0  0  0  0  0  0  0  # atno 8008 bound_to 7997
  154.5670  140.0689  156.8936 H   0  0  0  0  0  0  0  0  0  0  0  0  # atno 8009 bound_to 7997
  155.2743  140.3344  155.4265 H   0  0  0  0  0  0  0  0  0  0  0  0  # atno 8010 bound_to 7997
  140.0097  144.5624  150.7669 H   0  0  0  0  0  0  0  0  0  0  0  0  # atno 10167 bound_to 10162
  157.2455  130.7089  149.6379 H   0  0  0  0  0  0  0  0  0  0  0  0  # atno 10718 bound_to 10713
  152.9835  135.6059  154.3332 H   0  0  0  0  0  0  0  0  0  0  0  0  # atno 10763 bound_to 10752
  154.3034  135.2772  155.2602 H   0  0  0  0  0  0  0  0  0  0  0  0  # atno 10764 bound_to 10752
  154.4844  135.5909  153.6469 H   0  0  0  0  0  0  0  0  0  0  0  0  # atno 10765 bound_to 10752
  141.0038  134.0365  157.3504 H   0  0  0  0  0  0  0  0  0  0  0  0  # atno 11005 bound_to 11000
  144.6761  140.0345  143.7482 LP  0  0  0  0  0  0  0  0  0  0  0  0  # atno 17320 bound_to 7965
  145.9814  139.2944  143.1039 LP  0  0  0  0  0  0  0  0  0  0  0  0  # atno 17321 bound_to 7965
  140.7386  143.2781  151.3681 LP  0  0  0  0  0  0  0  0  0  0  0  0  # atno 17342 bound_to 10162
  139.6214  144.0900  152.2394 LP  0  0  0  0  0  0  0  0  0  0  0  0  # atno 17343 bound_to 10162
  155.9668  130.4444  150.5461 LP  0  0  0  0  0  0  0  0  0  0  0  0  # atno 17370 bound_to 10713
  157.3334  131.0703  151.1843 LP  0  0  0  0  0  0  0  0  0  0  0  0  # atno 17371 bound_to 10713
  139.9052  135.0177  156.7454 LP  0  0  0  0  0  0  0  0  0  0  0  0  # atno 17394 bound_to 11000
  140.6846  133.9444  155.7930 LP  0  0  0  0  0  0  0  0  0  0  0  0  # atno 17395 bound_to 11000

$$$$
