AV-unprocessed.smi:2896|AV-procd|sdf|11137|dock7
  -GOLD-   2272016 13D 1   1.00000     0.00000
 Structure written by MMmdl.
 50 51  0  0  0  0  0  0  0  0  2 V2000
  149.0954  136.0306  157.4581 C   0  0  0  0  0  0  0  0  0  0  0  0
  149.4900  136.3846  156.0105 C   0  0  1  0  0  0  0  0  0  0  0  0
  150.7470  137.2810  155.9685 C   0  0  0  0  0  0  0  0  0  0  0  0
  150.4706  138.6383  156.4259 N   0  0  0  0  0  0  0  0  0  0  0  0
  151.3862  139.4953  156.9110 C   0  0  0  0  0  0  0  0  0  0  0  0
  152.5671  139.1786  157.0629 O   0  0  0  0  0  0  0  0  0  0  0  0
  150.8992  140.9211  157.2713 C   0  0  0  0  0  0  0  0  0  0  0  0
  150.9302  141.7640  155.9747 C   0  0  0  0  0  0  0  0  0  0  0  0
  149.4308  140.8850  157.7619 C   0  0  0  0  0  0  0  0  0  0  0  0
  151.7929  141.4903  158.3933 C   0  0  0  0  0  0  0  0  0  0  0  0
  152.3707  142.7767  158.2643 C   0  0  0  0  0  0  0  0  0  0  0  0
  153.1697  143.2881  159.3033 C   0  0  0  0  0  0  0  0  0  0  0  0
  153.3713  142.4912  160.4450 C   0  0  0  0  0  0  0  0  0  0  0  0
  152.8339  141.2628  160.5906 N   0  0  0  0  0  0  0  0  0  0  0  0
  152.0684  140.7799  159.5885 C   0  0  0  0  0  0  0  0  0  0  0  0
  149.7104  135.1134  155.1620 C   0  0  0  0  0  0  0  0  0  0  0  0
  148.6126  134.8646  154.1925 N   0  3  0  0  0  0  0  0  0  0  0  0
  148.5913  133.4801  153.6578 C   0  0  0  0  0  0  0  0  0  0  0  0
  147.4565  133.3177  152.6326 C   0  0  0  0  0  0  0  0  0  0  0  0
  146.2147  133.6582  153.2360 O   0  0  0  0  0  0  0  0  0  0  0  0
  146.1899  135.0105  153.6745 C   0  0  0  0  0  0  0  0  0  0  0  0
  147.2823  135.2291  154.7351 C   0  0  0  0  0  0  0  0  0  0  0  0
  149.8843  135.4660  157.9561 H   0  0  0  0  0  0  0  0  0  0  0  0
  148.1869  135.4292  157.4883 H   0  0  0  0  0  0  0  0  0  0  0  0
  148.9034  136.9232  158.0528 H   0  0  0  0  0  0  0  0  0  0  0  0
  148.6736  136.9579  155.5723 H   0  0  0  0  0  0  0  0  0  0  0  0
  151.5280  136.8609  156.6034 H   0  0  0  0  0  0  0  0  0  0  0  0
  151.1606  137.3148  154.9590 H   0  0  0  0  0  0  0  0  0  0  0  0
  149.5198  138.9673  156.3356 H   0  0  0  0  0  0  0  0  0  0  0  0
  151.9314  141.8211  155.5452 H   0  0  0  0  0  0  0  0  0  0  0  0
  150.5852  142.7832  156.1534 H   0  0  0  0  0  0  0  0  0  0  0  0
  150.2806  141.3383  155.2085 H   0  0  0  0  0  0  0  0  0  0  0  0
  149.2913  140.2144  158.6102 H   0  0  0  0  0  0  0  0  0  0  0  0
  148.7503  140.5526  156.9764 H   0  0  0  0  0  0  0  0  0  0  0  0
  149.0998  141.8763  158.0733 H   0  0  0  0  0  0  0  0  0  0  0  0
  152.1958  143.3775  157.3840 H   0  0  0  0  0  0  0  0  0  0  0  0
  153.6168  144.2683  159.2273 H   0  0  0  0  0  0  0  0  0  0  0  0
  153.9783  142.8503  161.2629 H   0  0  0  0  0  0  0  0  0  0  0  0
  151.6681  139.7948  159.7710 H   0  0  0  0  0  0  0  0  0  0  0  0
  150.6566  135.1686  154.6212 H   0  0  0  0  0  0  0  0  0  0  0  0
  149.7990  134.2620  155.8389 H   0  0  0  0  0  0  0  0  0  0  0  0
  149.5399  133.2368  153.1807 H   0  0  0  0  0  0  0  0  0  0  0  0
  148.4555  132.7721  154.4769 H   0  0  0  0  0  0  0  0  0  0  0  0
  147.6319  133.9411  151.7544 H   0  0  0  0  0  0  0  0  0  0  0  0
  147.4093  132.2852  152.2858 H   0  0  0  0  0  0  0  0  0  0  0  0
  146.3287  135.6837  152.8269 H   0  0  0  0  0  0  0  0  0  0  0  0
  145.2079  135.2272  154.0958 H   0  0  0  0  0  0  0  0  0  0  0  0
  147.0702  134.6285  155.6211 H   0  0  0  0  0  0  0  0  0  0  0  0
  147.2829  136.2739  155.0476 H   0  0  0  0  0  0  0  0  0  0  0  0
  148.7753  135.4824  153.4100 H   0  0  0  0  0  0  0  0  0  0  0  0
  1  2  1  0  0  0  0
  1 23  1  0  0  0  0
  1 24  1  0  0  0  0
  1 25  1  0  0  0  0
  2  3  1  0  0  0  0
  2 16  1  0  0  0  0
  2 26  1  0  0  0  0
  3  4  1  0  0  0  0
  3 27  1  0  0  0  0
  3 28  1  0  0  0  0
  4  5  1  0  0  0  0
  4 29  1  0  0  0  0
  5  6  2  0  0  0  0
  5  7  1  0  0  0  0
  7  8  1  0  0  0  0
  7  9  1  0  0  0  0
  7 10  1  0  0  0  0
  8 30  1  0  0  0  0
  8 31  1  0  0  0  0
  8 32  1  0  0  0  0
  9 33  1  0  0  0  0
  9 34  1  0  0  0  0
  9 35  1  0  0  0  0
 10 15  1  0  0  0  0
 10 11  2  0  0  0  0
 11 12  1  0  0  0  0
 11 36  1  0  0  0  0
 12 13  2  0  0  0  0
 12 37  1  0  0  0  0
 13 14  1  0  0  0  0
 13 38  1  0  0  0  0
 14 15  2  0  0  0  0
 15 39  1  0  0  0  0
 16 17  1  0  0  0  0
 16 40  1  0  0  0  0
 16 41  1  0  0  0  0
 17 22  1  0  0  0  0
 17 18  1  0  0  0  0
 17 50  1  0  0  0  0
 18 19  1  0  0  0  0
 18 42  1  0  0  0  0
 18 43  1  0  0  0  0
 19 20  1  0  0  0  0
 19 44  1  0  0  0  0
 19 45  1  0  0  0  0
 20 21  1  0  0  0  0
 21 22  1  0  0  0  0
 21 46  1  0  0  0  0
 21 47  1  0  0  0  0
 22 48  1  0  0  0  0
 22 49  1  0  0  0  0
M  CHG  1  17   1
M  END
> <s_m_source_file>
AV-unprocessed.smi

> <i_m_source_file_index>
2896

> <i_lp_mmshare_version>
43012

> <i_f3d_flags>
0

> <s_epik_input>
W0NIMl0xW0NIMl1PW0NIMl1bQ0gyXU4xW0NIMl1bQ0BIXShbQ0gzXSlbQ0gyXVtOSF1DKD1PKUMoW0NIM10pKFtDSDNdKWMyW2NIXVtjSF1bY0hdbltjSF0y

> <s_epik_cmdline>
J2VwaWtfcHl0aG9uJywgJy1waCcsICc3LjAnLCAnLXRuJywgJzgnLCAnLW1hJywgJzIwMCcsICctbWV0YWxfYmluZGluZycsICctaW1hZScsICc8aW5maWxlLm1hZT4nLCAnLW9tYWUnLCAnPG91dGZpbGUubWFlPic=

> <r_epik_Ionization_Penalty>
0.378644

> <r_epik_Ionization_Penalty_Charging>
0.372108

> <r_epik_Ionization_Penalty_Neutral>
0.0065361

> <r_epik_State_Penalty>
0.380038

> <r_epik_Charging_Adjusted_Penalty>
0.752147

> <i_epik_Tot_Q>
1

> <i_epik_Tot_abs_Q>
1

> <r_epik_Metal_State_Penalty>
0.375202

> <b_epik_Metal_Only>
0

> <s_lp_Force_Field>
OPLS_2005

> <r_lp_Energy>
23.8301

> <b_lp_Chiralities_Consistent>
1

> <s_lp_Variant>
AV-unprocessed.smi:2896-2

> <Gold.Version>
5.8.1

> <Gold.Id.Protein>
6NUR|6NUR_protein|mol2

> <Gold.PLP.Fitness>
40.7936

> <Gold.PLP.PLP>
-36.6037

> <Gold.PLP.part.hbond>
-2.0000

> <Gold.PLP.part.metal>
0.0000

> <Gold.PLP.part.buried>
-5.4728

> <Gold.PLP.part.nonpolar>
-28.6381

> <Gold.PLP.part.repulsive>
0.1189

> <Gold.PLP.ligand.clash>
0.0000

> <Gold.PLP.ligand.torsion>
2.4947

> <Gold.PLP.Chemscore.Hbond>
3.0000

> <Gold.PLP.Chemscore.CHOScore>
0.0000

> <Gold.PLP.Chemscore.Metal>
0.0000

> <Gold.Chemscore.Hbonds>
donor molecule, donor type, donor heavy atom, donor atom, acceptor molecule, acceptor atom, score
      L1  H    17    50       P1  7948  2.00
      P1  H  7997  8008       L1     6  0.91

> <Gold.PLP.Chemscore.Internal.Correction>
0.1794

> <Gold.Rescore>
     Score         DG    S(hbond)    S(metal)    S(lipo)     H(rot)  DE(clash)    DE(int)     intcor
     16.27     -18.65       1.80        0.00     100.02       1.78       0.09       2.28       ----

> <Gold.Chemscore.Fitness>
16.2703

> <Gold.Chemscore.DG>
-18.6485

> <Gold.Chemscore.ZeroCoef>
-5.4800

> <Gold.Chemscore.Hbond>
1.8009

> <Gold.Chemscore.Metal>
0.0000

> <Gold.Chemscore.Lipo>
100.0233

> <Gold.Chemscore.Internal_Hbond>
0.0000

> <Gold.Chemscore.DEClash>
0.0935

> <Gold.Chemscore.DEInternal>
2.2847

> <Gold.Chemscore.Rot>
1.7771

> <Gold.Chemscore.Internal.Correction>
   9.000000E+99

> <Gold.Chemscore.Hbonds>
donor molecule, donor type, donor heavy atom, donor atom, acceptor molecule, acceptor atom, score
      L1  H    17    50       P1  7948  0.88
      P1  H  7997  8008       L1     6  0.87

> <Gold.Chemscore.Hbond.Weighted>
-6.0152

> <Gold.Chemscore.Metal.Weighted>
-0.0000

> <Gold.Chemscore.Lipo.Weighted>
-11.7027

> <Gold.Chemscore.Internal_Hbond.Weighted>
0.0000

> <Gold.Chemscore.DEClash.Weighted>
0.0935

> <Gold.Chemscore.DEInternal.Weighted>
2.2847

> <Gold.Chemscore.Rot.Weighted>
4.5494

> <Gold.Chemscore.Internal.Correction.Weighted>
   9.000000E+99

> <Gold.Protein.RotatedTorsions>
[ 6907 6896 6895 6894 ] final -100.19 input  -60.11 | X-H torsion
[ 7974 7965 7964 7962 ] final -101.98 input  175.53 | X-H torsion
[ 8008 7997 7996 7995 ] final  -55.27 input   59.86 | X-H torsion
[ 10167 10162 10161 10158 ] final -142.36 input  -65.29 | X-H torsion
[ 10718 10713 10712 10709 ] final    9.58 input   66.30 | X-H torsion
[ 10763 10752 10751 10750 ] final  -57.03 input  -60.55 | X-H torsion
[ 11005 11000 10999 10996 ] final  -93.43 input  -57.11 | X-H torsion

> <Gold.Protein.ActiveResidues>
 VAL166  LYS551  ARG553  GLY616  TRP617  ASP618  TYR619  PRO620  LYS621  CYS622 
 ASP623  PHE694  ASN695  SER759  ASP760  ASP761  ALA762  ILE779  LEU786  VAL792 
 PHE793  MET794  SER795  GLU796  ALA797  LYS798  CYS799  TRP800  GLU811  SER814 

> <Gold.Protein.RotatedAtoms>
  150.7107  134.0926  159.3936 H   0  0  0  0  0  0  0  0  0  0  0  0  # atno 6907 bound_to 6896
  151.8911  135.0414  160.0507 H   0  0  0  0  0  0  0  0  0  0  0  0  # atno 6908 bound_to 6896
  152.2491  133.5164  159.5351 H   0  0  0  0  0  0  0  0  0  0  0  0  # atno 6909 bound_to 6896
  145.2746  140.9309  143.2967 H   0  0  0  0  0  0  0  0  0  0  0  0  # atno 7974 bound_to 7965
  154.4189  140.1157  156.5450 H   0  0  0  0  0  0  0  0  0  0  0  0  # atno 8008 bound_to 7997
  155.6468  140.3496  155.4715 H   0  0  0  0  0  0  0  0  0  0  0  0  # atno 8009 bound_to 7997
  155.9825  140.1163  157.0703 H   0  0  0  0  0  0  0  0  0  0  0  0  # atno 8010 bound_to 7997
  139.8096  143.7721  152.2663 H   0  0  0  0  0  0  0  0  0  0  0  0  # atno 10167 bound_to 10162
  156.9684  130.5959  149.5667 H   0  0  0  0  0  0  0  0  0  0  0  0  # atno 10718 bound_to 10713
  154.2159  135.6386  153.5129 H   0  0  0  0  0  0  0  0  0  0  0  0  # atno 10763 bound_to 10752
  152.9979  135.5485  154.6165 H   0  0  0  0  0  0  0  0  0  0  0  0  # atno 10764 bound_to 10752
  154.5613  135.2909  155.0890 H   0  0  0  0  0  0  0  0  0  0  0  0  # atno 10765 bound_to 10752
  141.1497  133.7887  157.0159 H   0  0  0  0  0  0  0  0  0  0  0  0  # atno 11005 bound_to 11000
  144.9306  139.4303  143.6497 LP  0  0  0  0  0  0  0  0  0  0  0  0  # atno 17320 bound_to 7965
  146.3236  139.8214  142.8926 LP  0  0  0  0  0  0  0  0  0  0  0  0  # atno 17321 bound_to 7965
  139.7866  144.7425  151.0013 LP  0  0  0  0  0  0  0  0  0  0  0  0  # atno 17342 bound_to 10162
  140.7818  143.4486  151.0446 LP  0  0  0  0  0  0  0  0  0  0  0  0  # atno 17343 bound_to 10162
  156.0293  130.5385  150.8491 LP  0  0  0  0  0  0  0  0  0  0  0  0  # atno 17370 bound_to 10713
  157.5609  131.0946  150.9560 LP  0  0  0  0  0  0  0  0  0  0  0  0  # atno 17371 bound_to 10713
  140.0847  134.9627  157.1681 LP  0  0  0  0  0  0  0  0  0  0  0  0  # atno 17394 bound_to 11000
  140.3528  134.2580  155.7196 LP  0  0  0  0  0  0  0  0  0  0  0  0  # atno 17395 bound_to 11000

$$$$
