AV-unprocessed.smi:2032|AV-procd|sdf|8248|dock8
  -GOLD-   2272010523D 1   1.00000     0.00000
 Structure written by MMmdl.
 41 42  0  0  0  0  0  0  0  0  2 V2000
  151.7180  144.7010  158.6886 C   0  0  0  0  0  0  0  0  0  0  0  0
  151.5374  143.2587  159.1730 C   0  0  1  0  0  0  0  0  0  0  0  0
  151.0668  142.3204  158.0451 C   0  0  0  0  0  0  0  0  0  0  0  0
  150.9569  140.9222  158.4746 N   0  0  0  0  0  0  0  0  0  0  0  0
  150.5246  140.0178  157.3826 C   0  0  1  0  0  0  0  0  0  0  0  0
  151.4571  140.0869  156.1461 C   0  0  0  0  0  0  0  0  0  0  0  0
  150.3875  138.5326  157.8300 C   0  0  0  0  0  0  0  0  0  0  0  0
  149.4058  138.3275  158.8927 N   0  0  0  0  0  0  0  0  0  0  0  0
  149.0363  137.1462  159.4080 C   0  0  0  0  0  0  0  0  0  0  0  0
  149.5330  136.1034  158.9761 O   0  0  0  0  0  0  0  0  0  0  0  0
  148.1172  137.2488  160.3951 N   0  5  0  0  0  0  0  0  0  0  0  0
  147.7727  136.1659  161.1107 C   0  0  0  0  0  0  0  0  0  0  0  0
  147.6263  134.9506  160.5702 N   0  0  0  0  0  0  0  0  0  0  0  0
  147.2518  133.9735  161.4942 C   0  0  0  0  0  0  0  0  0  0  0  0
  147.1010  134.4576  162.7666 C   0  0  0  0  0  0  0  0  0  0  0  0
  147.4285  136.1656  162.8428 S   0  0  0  0  0  0  0  0  0  0  0  0
  152.2458  140.5264  159.0522 C   0  0  0  0  0  0  0  0  0  0  0  0
  152.7162  141.4686  160.1767 C   0  0  1  0  0  0  0  0  0  0  0  0
  154.1008  141.0856  160.7103 C   0  0  0  0  0  0  0  0  0  0  0  0
  152.7849  142.7974  159.6757 O   0  0  0  0  0  0  0  0  0  0  0  0
  150.7814  145.1052  158.3039 H   0  0  0  0  0  0  0  0  0  0  0  0
  152.4604  144.7600  157.8922 H   0  0  0  0  0  0  0  0  0  0  0  0
  152.0492  145.3469  159.5021 H   0  0  0  0  0  0  0  0  0  0  0  0
  150.8051  143.2519  159.9823 H   0  0  0  0  0  0  0  0  0  0  0  0
  150.1022  142.6940  157.7077 H   0  0  0  0  0  0  0  0  0  0  0  0
  151.7503  142.3932  157.1976 H   0  0  0  0  0  0  0  0  0  0  0  0
  149.5375  140.3447  157.0522 H   0  0  0  0  0  0  0  0  0  0  0  0
  151.1611  139.3913  155.3617 H   0  0  0  0  0  0  0  0  0  0  0  0
  152.4875  139.8557  156.4172 H   0  0  0  0  0  0  0  0  0  0  0  0
  151.4440  141.0663  155.6706 H   0  0  0  0  0  0  0  0  0  0  0  0
  150.0962  137.9149  156.9800 H   0  0  0  0  0  0  0  0  0  0  0  0
  151.3302  138.1280  158.1961 H   0  0  0  0  0  0  0  0  0  0  0  0
  148.9726  139.1541  159.2770 H   0  0  0  0  0  0  0  0  0  0  0  0
  147.1115  132.9570  161.1578 H   0  0  0  0  0  0  0  0  0  0  0  0
  146.8178  133.9184  163.6580 H   0  0  0  0  0  0  0  0  0  0  0  0
  152.1828  139.5275  159.4795 H   0  0  0  0  0  0  0  0  0  0  0  0
  153.0034  140.4879  158.2677 H   0  0  0  0  0  0  0  0  0  0  0  0
  152.0027  141.4365  161.0021 H   0  0  0  0  0  0  0  0  0  0  0  0
  154.0996  140.0735  161.1154 H   0  0  0  0  0  0  0  0  0  0  0  0
  154.4119  141.7621  161.5067 H   0  0  0  0  0  0  0  0  0  0  0  0
  154.8534  141.1305  159.9223 H   0  0  0  0  0  0  0  0  0  0  0  0
  1  2  1  0  0  0  0
  1 21  1  0  0  0  0
  1 22  1  0  0  0  0
  1 23  1  0  0  0  0
  2 20  1  0  0  0  0
  2  3  1  0  0  0  0
  2 24  1  0  0  0  0
  3  4  1  0  0  0  0
  3 25  1  0  0  0  0
  3 26  1  0  0  0  0
  4  5  1  0  0  0  0
  4 17  1  0  0  0  0
  5  6  1  0  0  0  0
  5  7  1  0  0  0  0
  5 27  1  0  0  0  0
  6 28  1  0  0  0  0
  6 29  1  0  0  0  0
  6 30  1  0  0  0  0
  7  8  1  0  0  0  0
  7 31  1  0  0  0  0
  7 32  1  0  0  0  0
  8  9  1  0  0  0  0
  8 33  1  0  0  0  0
  9 10  2  0  0  0  0
  9 11  1  0  0  0  0
 11 12  1  0  0  0  0
 12 16  1  0  0  0  0
 12 13  2  0  0  0  0
 13 14  1  0  0  0  0
 14 15  2  0  0  0  0
 14 34  1  0  0  0  0
 15 16  1  0  0  0  0
 15 35  1  0  0  0  0
 17 18  1  0  0  0  0
 17 36  1  0  0  0  0
 17 37  1  0  0  0  0
 18 19  1  0  0  0  0
 18 20  1  0  0  0  0
 18 38  1  0  0  0  0
 19 39  1  0  0  0  0
 19 40  1  0  0  0  0
 19 41  1  0  0  0  0
M  CHG  1  11  -1
M  END
> <s_m_source_file>
AV-unprocessed.smi

> <i_m_source_file_index>
2032

> <i_lp_mmshare_version>
43012

> <i_f3d_flags>
0

> <s_epik_input>
W0NIM11bQ0BASF0xW0NIMl1OKFtDSDJdW0NASF0oTzEpW0NIM10pW0NASF0oW0NIM10pW0NIMl1bTkhdQyg9TylbTkhdYzJuW2NIXVtjSF1zMg==

> <s_epik_cmdline>
J2VwaWtfcHl0aG9uJywgJy1waCcsICc3LjAnLCAnLXRuJywgJzgnLCAnLW1hJywgJzIwMCcsICctbWV0YWxfYmluZGluZycsICctaW1hZScsICc8aW5maWxlLm1hZT4nLCAnLW9tYWUnLCAnPG91dGZpbGUubWFlPic=

> <r_lp_tautomer_probability>
0.999

> <r_epik_Ionization_Penalty>
7.22375

> <r_epik_Ionization_Penalty_Charging>
5.82415

> <r_epik_Ionization_Penalty_Neutral>
1.39959

> <r_epik_State_Penalty>
6.03347

> <r_epik_Charging_Adjusted_Penalty>
11.8576

> <i_epik_Tot_Q>
-1

> <i_epik_Tot_abs_Q>
1

> <r_epik_Metal_State_Penalty>
2.01024

> <b_epik_Metal_Only>
1

> <s_lp_Force_Field>
OPLS_2005

> <r_lp_Energy>
22.8045

> <b_lp_Chiralities_Consistent>
1

> <s_lp_Variant>
AV-unprocessed.smi:2032-18

> <Gold.Version>
5.8.1

> <Gold.Id.Protein>
6NUR|6NUR_protein|mol2

> <Gold.PLP.Fitness>
52.0074

> <Gold.PLP.PLP>
-41.9783

> <Gold.PLP.part.hbond>
-3.0000

> <Gold.PLP.part.metal>
0.0000

> <Gold.PLP.part.buried>
-6.3241

> <Gold.PLP.part.nonpolar>
-35.3720

> <Gold.PLP.part.repulsive>
0.2329

> <Gold.PLP.ligand.clash>
0.0000

> <Gold.PLP.ligand.torsion>
0.3367

> <Gold.PLP.Chemscore.Hbond>
3.5417

> <Gold.PLP.Chemscore.CHOScore>
0.0000

> <Gold.PLP.Chemscore.Metal>
0.0000

> <Gold.Chemscore.Hbonds>
donor molecule, donor type, donor heavy atom, donor atom, acceptor molecule, acceptor atom, score
      P1  H  6896  6908       L1    10  1.00
      P1  H  6931  6943       L1    11  1.27
      P1  H  6934  6947       L1    11  1.25

> <Gold.PLP.Chemscore.Internal.Correction>
0.0773

> <Gold.Rescore>
     Score         DG    S(hbond)    S(metal)    S(lipo)     H(rot)  DE(clash)    DE(int)     intcor
     16.93     -18.82       1.75        0.00      97.80       1.54       0.09       1.80       ----

> <Gold.Chemscore.Fitness>
16.9324

> <Gold.Chemscore.DG>
-18.8184

> <Gold.Chemscore.ZeroCoef>
-5.4800

> <Gold.Chemscore.Hbond>
1.7502

> <Gold.Chemscore.Metal>
0.0000

> <Gold.Chemscore.Lipo>
97.8032

> <Gold.Chemscore.Internal_Hbond>
0.0000

> <Gold.Chemscore.DEClash>
0.0869

> <Gold.Chemscore.DEInternal>
1.7992

> <Gold.Chemscore.Rot>
1.5431

> <Gold.Chemscore.Internal.Correction>
   9.000000E+99

> <Gold.Chemscore.Hbonds>
donor molecule, donor type, donor heavy atom, donor atom, acceptor molecule, acceptor atom, score
      P1  H  6896  6908       L1    10  0.98
      P1  H  6931  6943       L1    11  0.06
      P1  H  6934  6947       L1    11  0.55

> <Gold.Chemscore.Hbond.Weighted>
-5.8457

> <Gold.Chemscore.Metal.Weighted>
-0.0000

> <Gold.Chemscore.Lipo.Weighted>
-11.4430

> <Gold.Chemscore.Internal_Hbond.Weighted>
0.0000

> <Gold.Chemscore.DEClash.Weighted>
0.0869

> <Gold.Chemscore.DEInternal.Weighted>
1.7992

> <Gold.Chemscore.Rot.Weighted>
3.9503

> <Gold.Chemscore.Internal.Correction.Weighted>
   9.000000E+99

> <Gold.Protein.RotatedTorsions>
[ 6907 6896 6895 6894 ] final  171.78 input  -60.11 | X-H torsion
[ 7974 7965 7964 7962 ] final  107.50 input  175.53 | X-H torsion
[ 8008 7997 7996 7995 ] final -167.92 input   59.86 | X-H torsion
[ 10167 10162 10161 10158 ] final  -60.75 input  -65.29 | X-H torsion
[ 10718 10713 10712 10709 ] final -129.88 input   66.30 | X-H torsion
[ 10763 10752 10751 10750 ] final  134.20 input  -60.55 | X-H torsion
[ 11005 11000 10999 10996 ] final  -78.96 input  -57.11 | X-H torsion

> <Gold.Protein.ActiveResidues>
 VAL166  LYS551  ARG553  GLY616  TRP617  ASP618  TYR619  PRO620  LYS621  CYS622 
 ASP623  PHE694  ASN695  SER759  ASP760  ASP761  ALA762  ILE779  LEU786  VAL792 
 PHE793  MET794  SER795  GLU796  ALA797  LYS798  CYS799  TRP800  GLU811  SER814 

> <Gold.Protein.RotatedAtoms>
  151.7947  133.3363  159.3509 H   0  0  0  0  0  0  0  0  0  0  0  0  # atno 6907 bound_to 6896
  150.7379  134.5809  159.5947 H   0  0  0  0  0  0  0  0  0  0  0  0  # atno 6908 bound_to 6896
  152.3185  134.7411  160.0371 H   0  0  0  0  0  0  0  0  0  0  0  0  # atno 6909 bound_to 6896
  145.2928  139.2594  143.3855 H   0  0  0  0  0  0  0  0  0  0  0  0  # atno 7974 bound_to 7965
  155.8843  140.1014  157.1463 H   0  0  0  0  0  0  0  0  0  0  0  0  # atno 8008 bound_to 7997
  154.4008  140.1323  156.4300 H   0  0  0  0  0  0  0  0  0  0  0  0  # atno 8009 bound_to 7997
  155.7606  140.3463  155.5198 H   0  0  0  0  0  0  0  0  0  0  0  0  # atno 8010 bound_to 7997
  140.6051  143.2371  151.5840 H   0  0  0  0  0  0  0  0  0  0  0  0  # atno 10167 bound_to 10162
  156.2089  130.6906  151.0627 H   0  0  0  0  0  0  0  0  0  0  0  0  # atno 10718 bound_to 10713
  153.8196  135.3118  155.3409 H   0  0  0  0  0  0  0  0  0  0  0  0  # atno 10763 bound_to 10752
  154.8018  135.4722  154.0297 H   0  0  0  0  0  0  0  0  0  0  0  0  # atno 10764 bound_to 10752
  153.1702  135.6876  153.8708 H   0  0  0  0  0  0  0  0  0  0  0  0  # atno 10765 bound_to 10752
  141.1666  133.7085  156.8050 H   0  0  0  0  0  0  0  0  0  0  0  0  # atno 11005 bound_to 11000
  146.3179  140.3424  142.8649 LP  0  0  0  0  0  0  0  0  0  0  0  0  # atno 17320 bound_to 7965
  144.9158  140.7811  143.5779 LP  0  0  0  0  0  0  0  0  0  0  0  0  # atno 17321 bound_to 7965
  139.5319  144.2892  152.1166 LP  0  0  0  0  0  0  0  0  0  0  0  0  # atno 17342 bound_to 10162
  140.2080  144.4591  150.6399 LP  0  0  0  0  0  0  0  0  0  0  0  0  # atno 17343 bound_to 10162
  157.7028  131.0769  150.6766 LP  0  0  0  0  0  0  0  0  0  0  0  0  # atno 17370 bound_to 10713
  156.6825  130.4571  149.5623 LP  0  0  0  0  0  0  0  0  0  0  0  0  # atno 17371 bound_to 10713
  140.2229  134.8744  157.3396 LP  0  0  0  0  0  0  0  0  0  0  0  0  # atno 17394 bound_to 11000
  140.1970  134.4302  155.7684 LP  0  0  0  0  0  0  0  0  0  0  0  0  # atno 17395 bound_to 11000

$$$$
