AV-unprocessed.smi:3150|AV-procd|sdf|12011|dock3
  -GOLD-   2272017423D 1   1.00000     0.00000
 Structure written by MMmdl.
 32 33  0  0  0  0  0  0  0  0  2 V2000
  150.8559  138.5422  154.5744 C   0  0  0  0  0  0  0  0  0  0  0  0
  150.4697  139.6438  155.5705 C   0  0  2  0  0  0  0  0  0  0  0  0
  149.9507  140.7415  154.8243 O   0  0  0  0  0  0  0  0  0  0  0  0
  148.6502  140.5402  154.2789 C   0  0  0  0  0  0  0  0  0  0  0  0
  147.8294  141.8155  154.3342 C   0  0  0  0  0  0  0  0  0  0  0  0
  146.7665  142.0175  155.3945 C   0  0  0  0  0  0  0  0  0  0  0  0
  146.3617  141.8115  153.9600 C   0  0  0  0  0  0  0  0  0  0  0  0
  151.6905  140.0844  156.3951 C   0  0  0  0  0  0  0  0  0  0  0  0
  152.7842  139.5671  156.1512 O   0  0  0  0  0  0  0  0  0  0  0  0
  151.3585  141.0518  157.3399 N   0  0  0  0  0  0  0  0  0  0  0  0
  151.9187  141.1343  158.5158 C   0  0  0  0  0  0  0  0  0  0  0  0
  152.9219  140.2537  158.9571 N   0  0  0  0  0  0  0  0  0  0  0  0
  153.5107  140.3462  160.2004 C   0  0  0  0  0  0  0  0  0  0  0  0
  153.1567  141.2924  161.0712 C   0  0  0  0  0  0  0  0  0  0  0  0
  152.1295  142.2414  160.6941 C   0  0  0  0  0  0  0  0  0  0  0  0
  151.4965  142.1969  159.4463 C   0  0  0  0  0  0  0  0  0  0  0  0
  150.6133  143.0391  159.1625 O   0  5  0  0  0  0  0  0  0  0  0  0
  151.2497  137.6644  155.0883 H   0  0  0  0  0  0  0  0  0  0  0  0
  151.6134  138.8873  153.8696 H   0  0  0  0  0  0  0  0  0  0  0  0
  149.9882  138.2232  153.9967 H   0  0  0  0  0  0  0  0  0  0  0  0
  149.6866  139.2560  156.2257 H   0  0  0  0  0  0  0  0  0  0  0  0
  148.7285  140.2219  153.2388 H   0  0  0  0  0  0  0  0  0  0  0  0
  148.1109  139.7627  154.8206 H   0  0  0  0  0  0  0  0  0  0  0  0
  148.3882  142.7041  154.0474 H   0  0  0  0  0  0  0  0  0  0  0  0
  146.5759  141.2042  156.0918 H   0  0  0  0  0  0  0  0  0  0  0  0
  146.6567  143.0178  155.8079 H   0  0  0  0  0  0  0  0  0  0  0  0
  145.9809  142.6743  153.4175 H   0  0  0  0  0  0  0  0  0  0  0  0
  145.9030  140.8598  153.6988 H   0  0  0  0  0  0  0  0  0  0  0  0
  154.2657  139.6008  160.4013 H   0  0  0  0  0  0  0  0  0  0  0  0
  153.6276  141.3502  162.0412 H   0  0  0  0  0  0  0  0  0  0  0  0
  151.8512  143.0039  161.4074 H   0  0  0  0  0  0  0  0  0  0  0  0
  153.2506  139.5074  158.3624 H   0  0  0  0  0  0  0  0  0  0  0  0
  1  2  1  0  0  0  0
  1 18  1  0  0  0  0
  1 19  1  0  0  0  0
  1 20  1  0  0  0  0
  2  3  1  0  0  0  0
  2  8  1  0  0  0  0
  2 21  1  0  0  0  0
  3  4  1  0  0  0  0
  4  5  1  0  0  0  0
  4 22  1  0  0  0  0
  4 23  1  0  0  0  0
  5  7  1  0  0  0  0
  5  6  1  0  0  0  0
  5 24  1  0  0  0  0
  6  7  1  0  0  0  0
  6 25  1  0  0  0  0
  6 26  1  0  0  0  0
  7 27  1  0  0  0  0
  7 28  1  0  0  0  0
  8  9  2  0  0  0  0
  8 10  1  0  0  0  0
 10 11  2  0  0  0  0
 11 16  1  0  0  0  0
 11 12  1  0  0  0  0
 12 32  1  0  0  0  0
 12 13  1  0  0  0  0
 13 29  1  0  0  0  0
 13 14  2  0  0  0  0
 14 30  1  0  0  0  0
 14 15  1  0  0  0  0
 15 16  2  0  0  0  0
 15 31  1  0  0  0  0
 16 17  1  0  0  0  0
M  CHG  1  17  -1
M  END
> <s_m_source_file>
AV-unprocessed.smi

> <i_m_source_file_index>
3150

> <i_lp_mmshare_version>
43012

> <i_f3d_flags>
0

> <s_epik_input>
W0NIMl0xW0NIMl1bQ0hdMVtDSDJdT1tDQEBIXShbQ0gzXSlDKD1PKVtOSF1jMm5bY0hdW2NIXVtjSF1jMltPSF0=

> <s_epik_cmdline>
J2VwaWtfcHl0aG9uJywgJy1waCcsICc3LjAnLCAnLXRuJywgJzgnLCAnLW1hJywgJzIwMCcsICctbWV0YWxfYmluZGluZycsICctaW1hZScsICc8aW5maWxlLm1hZT4nLCAnLW9tYWUnLCAnPG91dGZpbGUubWFlPic=

> <r_epik_Ionization_Penalty>
0.784632

> <r_epik_Ionization_Penalty_Charging>
0.784632

> <r_epik_Ionization_Penalty_Neutral>
7.02258e-13

> <r_epik_State_Penalty>
1.43154

> <r_epik_Charging_Adjusted_Penalty>
2.21617

> <i_epik_Tot_Q>
-1

> <i_epik_Tot_abs_Q>
1

> <r_epik_Metal_State_Penalty>
1.39244

> <b_epik_Metal_Only>
0

> <s_lp_Force_Field>
OPLS_2005

> <r_lp_Energy>
43.7392

> <b_lp_Chiralities_Consistent>
1

> <s_lp_Variant>
AV-unprocessed.smi:3150-5

> <Gold.Version>
5.8.1

> <Gold.Id.Protein>
6NUR|6NUR_protein|mol2

> <Gold.PLP.Fitness>
40.1131

> <Gold.PLP.PLP>
-35.9061

> <Gold.PLP.part.hbond>
-2.0000

> <Gold.PLP.part.metal>
0.0000

> <Gold.PLP.part.buried>
-3.5961

> <Gold.PLP.part.nonpolar>
-30.6888

> <Gold.PLP.part.repulsive>
0.3417

> <Gold.PLP.ligand.clash>
0.0000

> <Gold.PLP.ligand.torsion>
0.9185

> <Gold.PLP.Chemscore.Hbond>
1.8320

> <Gold.PLP.Chemscore.CHOScore>
0.0000

> <Gold.PLP.Chemscore.Metal>
0.0000

> <Gold.Chemscore.Hbonds>
donor molecule, donor type, donor heavy atom, donor atom, acceptor molecule, acceptor atom, score
      P1  H  7989  7998       L1     3  0.46
      P1  H  7997  8009       L1     9  1.00

> <Gold.PLP.Chemscore.Internal.Correction>
0.5479

> <Gold.Rescore>
     Score         DG    S(hbond)    S(metal)    S(lipo)     H(rot)  DE(clash)    DE(int)     intcor
     15.77     -16.93       1.78        0.00      82.81       1.64       0.29       0.88       ----

> <Gold.Chemscore.Fitness>
15.7652

> <Gold.Chemscore.DG>
-16.9312

> <Gold.Chemscore.ZeroCoef>
-5.4800

> <Gold.Chemscore.Hbond>
1.7837

> <Gold.Chemscore.Metal>
0.0000

> <Gold.Chemscore.Lipo>
82.8100

> <Gold.Chemscore.Internal_Hbond>
0.0000

> <Gold.Chemscore.DEClash>
0.2891

> <Gold.Chemscore.DEInternal>
0.8768

> <Gold.Chemscore.Rot>
1.6387

> <Gold.Chemscore.Internal.Correction>
   9.000000E+99

> <Gold.Chemscore.Hbonds>
donor molecule, donor type, donor heavy atom, donor atom, acceptor molecule, acceptor atom, score
      P1  H  7989  7998       L1     3  0.07
      P1  H  7997  8009       L1     9  1.00

> <Gold.Chemscore.Hbond.Weighted>
-5.9574

> <Gold.Chemscore.Metal.Weighted>
-0.0000

> <Gold.Chemscore.Lipo.Weighted>
-9.6888

> <Gold.Chemscore.Internal_Hbond.Weighted>
0.0000

> <Gold.Chemscore.DEClash.Weighted>
0.2891

> <Gold.Chemscore.DEInternal.Weighted>
0.8768

> <Gold.Chemscore.Rot.Weighted>
4.1950

> <Gold.Chemscore.Internal.Correction.Weighted>
   9.000000E+99

> <Gold.Protein.RotatedTorsions>
[ 6907 6896 6895 6894 ] final -101.64 input  -60.11 | X-H torsion
[ 7974 7965 7964 7962 ] final  158.67 input  175.53 | X-H torsion
[ 8008 7997 7996 7995 ] final -168.09 input   59.86 | X-H torsion
[ 10167 10162 10161 10158 ] final  -57.21 input  -65.29 | X-H torsion
[ 10718 10713 10712 10709 ] final   37.39 input   66.30 | X-H torsion
[ 10763 10752 10751 10750 ] final  158.65 input  -60.55 | X-H torsion
[ 11005 11000 10999 10996 ] final  -52.95 input  -57.11 | X-H torsion

> <Gold.Protein.ActiveResidues>
 VAL166  LYS551  ARG553  GLY616  TRP617  ASP618  TYR619  PRO620  LYS621  CYS622 
 ASP623  PHE694  ASN695  SER759  ASP760  ASP761  ALA762  ILE779  LEU786  VAL792 
 PHE793  MET794  SER795  GLU796  ALA797  LYS798  CYS799  TRP800  GLU811  SER814 

> <Gold.Protein.RotatedAtoms>
  150.7163  134.0703  159.3861 H   0  0  0  0  0  0  0  0  0  0  0  0  # atno 6907 bound_to 6896
  151.8685  135.0496  160.0486 H   0  0  0  0  0  0  0  0  0  0  0  0  # atno 6908 bound_to 6896
  152.2661  133.5305  159.5447 H   0  0  0  0  0  0  0  0  0  0  0  0  # atno 6909 bound_to 6896
  144.7833  139.7510  143.6251 H   0  0  0  0  0  0  0  0  0  0  0  0  # atno 7974 bound_to 7965
  155.8867  140.1018  157.1447 H   0  0  0  0  0  0  0  0  0  0  0  0  # atno 8008 bound_to 7997
  154.4010  140.1318  156.4328 H   0  0  0  0  0  0  0  0  0  0  0  0  # atno 8009 bound_to 7997
  155.7581  140.3463  155.5186 H   0  0  0  0  0  0  0  0  0  0  0  0  # atno 8010 bound_to 7997
  140.6271  143.2443  151.5335 H   0  0  0  0  0  0  0  0  0  0  0  0  # atno 10167 bound_to 10162
  157.3464  130.7575  149.6947 H   0  0  0  0  0  0  0  0  0  0  0  0  # atno 10718 bound_to 10713
  154.2194  135.2782  155.2930 H   0  0  0  0  0  0  0  0  0  0  0  0  # atno 10763 bound_to 10752
  154.5714  135.5617  153.7102 H   0  0  0  0  0  0  0  0  0  0  0  0  # atno 10764 bound_to 10752
  153.0045  135.6322  154.2334 H   0  0  0  0  0  0  0  0  0  0  0  0  # atno 10765 bound_to 10752
  141.0951  133.6626  156.4100 H   0  0  0  0  0  0  0  0  0  0  0  0  # atno 11005 bound_to 11000
  146.2052  139.5372  142.9717 LP  0  0  0  0  0  0  0  0  0  0  0  0  # atno 17320 bound_to 7965
  145.5991  141.0358  143.2028 LP  0  0  0  0  0  0  0  0  0  0  0  0  # atno 17321 bound_to 7965
  139.5490  144.2445  152.1496 LP  0  0  0  0  0  0  0  0  0  0  0  0  # atno 17342 bound_to 10162
  140.1679  144.4964  150.6596 LP  0  0  0  0  0  0  0  0  0  0  0  0  # atno 17343 bound_to 10162
  155.9715  130.4153  150.4175 LP  0  0  0  0  0  0  0  0  0  0  0  0  # atno 17370 bound_to 10713
  157.2231  131.0487  151.2535 LP  0  0  0  0  0  0  0  0  0  0  0  0  # atno 17371 bound_to 10713
  140.5159  134.6350  157.5301 LP  0  0  0  0  0  0  0  0  0  0  0  0  # atno 17394 bound_to 11000
  139.9786  134.7175  155.9903 LP  0  0  0  0  0  0  0  0  0  0  0  0  # atno 17395 bound_to 11000

$$$$
