AV-unprocessed.smi:1909|AV-procd|sdf|7735|dock6
  -GOLD-   22720 9473D 1   1.00000     0.00000
 Structure written by MMmdl.
 40 41  0  0  0  0  0  0  0  0  1 V2000
  145.8446  142.8975  156.6693 C   0  0  0  0  0  0  0  0  0  0  0  0
  146.7243  142.1825  155.7022 C   0  0  0  0  0  0  0  0  0  0  0  0
  147.6684  141.3113  156.0667 N   0  0  0  0  0  0  0  0  0  0  0  0
  148.3627  140.7791  154.9750 C   0  0  0  0  0  0  0  0  0  0  0  0
  149.4715  139.7894  155.1967 C   0  0  0  0  0  0  0  0  0  0  0  0
  150.7161  140.4812  155.7599 C   0  0  0  0  0  0  0  0  0  0  0  0
  151.8029  140.3389  155.2001 O   0  0  0  0  0  0  0  0  0  0  0  0
  150.5412  141.2356  156.8580 N   0  0  0  0  0  0  0  0  0  0  0  0
  151.5864  141.9581  157.5789 C   0  0  0  0  0  0  0  0  0  0  0  0
  151.6629  141.3685  159.0077 C   0  0  0  0  0  0  0  0  0  0  0  0
  152.8710  141.8312  159.8472 C   0  0  0  0  0  0  0  0  0  0  0  0
  152.5709  142.9087  160.9073 C   0  0  0  0  0  0  0  0  0  0  0  0
  151.6529  144.0692  160.4827 C   0  0  0  0  0  0  0  0  0  0  0  0
  152.1945  145.0084  159.3901 C   0  0  0  0  0  0  0  0  0  0  0  0
  152.4251  144.3951  157.9953 C   0  0  0  0  0  0  0  0  0  0  0  0
  151.2986  143.4769  157.4790 C   0  0  0  0  0  0  0  0  0  0  0  0
  147.9153  141.2565  153.7673 C   0  0  0  0  0  0  0  0  0  0  0  0
  146.6177  142.4024  153.9602 S   0  0  0  0  0  0  0  0  0  0  0  0
  146.2386  142.8114  157.6824 H   0  0  0  0  0  0  0  0  0  0  0  0
  144.8418  142.4709  156.6453 H   0  0  0  0  0  0  0  0  0  0  0  0
  145.7833  143.9540  156.4079 H   0  0  0  0  0  0  0  0  0  0  0  0
  149.1516  139.0034  155.8822 H   0  0  0  0  0  0  0  0  0  0  0  0
  149.7382  139.2929  154.2630 H   0  0  0  0  0  0  0  0  0  0  0  0
  149.6090  141.2931  157.2414 H   0  0  0  0  0  0  0  0  0  0  0  0
  152.5425  141.7580  157.0916 H   0  0  0  0  0  0  0  0  0  0  0  0
  150.7281  141.5215  159.5473 H   0  0  0  0  0  0  0  0  0  0  0  0
  151.7484  140.2852  158.9048 H   0  0  0  0  0  0  0  0  0  0  0  0
  153.2654  140.9648  160.3798 H   0  0  0  0  0  0  0  0  0  0  0  0
  153.6918  142.1389  159.2019 H   0  0  0  0  0  0  0  0  0  0  0  0
  152.0996  142.4164  161.7589 H   0  0  0  0  0  0  0  0  0  0  0  0
  153.5123  143.3078  161.2860 H   0  0  0  0  0  0  0  0  0  0  0  0
  150.6683  143.6945  160.2073 H   0  0  0  0  0  0  0  0  0  0  0  0
  151.4713  144.6776  161.3694 H   0  0  0  0  0  0  0  0  0  0  0  0
  151.4820  145.8270  159.2813 H   0  0  0  0  0  0  0  0  0  0  0  0
  153.1202  145.4715  159.7333 H   0  0  0  0  0  0  0  0  0  0  0  0
  152.5315  145.2271  157.2979 H   0  0  0  0  0  0  0  0  0  0  0  0
  153.3869  143.8877  157.9482 H   0  0  0  0  0  0  0  0  0  0  0  0
  151.1616  143.7135  156.4228 H   0  0  0  0  0  0  0  0  0  0  0  0
  150.3450  143.7272  157.9444 H   0  0  0  0  0  0  0  0  0  0  0  0
  148.2732  141.0078  152.7793 H   0  0  0  0  0  0  0  0  0  0  0  0
  1  2  1  0  0  0  0
  1 19  1  0  0  0  0
  1 20  1  0  0  0  0
  1 21  1  0  0  0  0
  2 18  1  0  0  0  0
  2  3  2  0  0  0  0
  3  4  1  0  0  0  0
  4  5  1  0  0  0  0
  4 17  2  0  0  0  0
  5  6  1  0  0  0  0
  5 22  1  0  0  0  0
  5 23  1  0  0  0  0
  6  7  2  0  0  0  0
  6  8  1  0  0  0  0
  8  9  1  0  0  0  0
  8 24  1  0  0  0  0
  9 16  1  0  0  0  0
  9 10  1  0  0  0  0
  9 25  1  0  0  0  0
 10 11  1  0  0  0  0
 10 26  1  0  0  0  0
 10 27  1  0  0  0  0
 11 12  1  0  0  0  0
 11 28  1  0  0  0  0
 11 29  1  0  0  0  0
 12 13  1  0  0  0  0
 12 30  1  0  0  0  0
 12 31  1  0  0  0  0
 13 14  1  0  0  0  0
 13 32  1  0  0  0  0
 13 33  1  0  0  0  0
 14 15  1  0  0  0  0
 14 34  1  0  0  0  0
 14 35  1  0  0  0  0
 15 16  1  0  0  0  0
 15 36  1  0  0  0  0
 15 37  1  0  0  0  0
 16 38  1  0  0  0  0
 16 39  1  0  0  0  0
 17 18  1  0  0  0  0
 17 40  1  0  0  0  0
M  END
> <s_m_source_file>
AV-unprocessed.smi

> <i_m_source_file_index>
1909

> <i_lp_mmshare_version>
43012

> <i_f3d_flags>
0

> <s_epik_input>
W0NIM11jMW5jKFtjSF1zMSlbQ0gyXUMoPU8pW05IXVtDSF0yW0NIMl1bQ0gyXVtDSDJdW0NIMl1bQ0gyXVtDSDJdW0NIMl0y

> <s_epik_cmdline>
J2VwaWtfcHl0aG9uJywgJy1waCcsICc3LjAnLCAnLXRuJywgJzgnLCAnLW1hJywgJzIwMCcsICctbWV0YWxfYmluZGluZycsICctaW1hZScsICc8aW5maWxlLm1hZT4nLCAnLW9tYWUnLCAnPG91dGZpbGUubWFlPic=

> <r_lp_tautomer_probability>
1

> <r_epik_Ionization_Penalty>
6.3061e-05

> <r_epik_Ionization_Penalty_Charging>
0

> <r_epik_Ionization_Penalty_Neutral>
6.3061e-05

> <r_epik_State_Penalty>
-0

> <r_epik_Charging_Adjusted_Penalty>
0

> <i_epik_Tot_Q>
0

> <i_epik_Tot_abs_Q>
0

> <r_epik_Metal_State_Penalty>
-0

> <b_epik_Metal_Only>
0

> <s_lp_Force_Field>
OPLS_2005

> <r_lp_Energy>
17.5912

> <b_lp_Chiralities_Consistent>
1

> <s_lp_Variant>
AV-unprocessed.smi:1909-1

> <Gold.Version>
5.8.1

> <Gold.Id.Protein>
6NUR|6NUR_protein|mol2

> <Gold.PLP.Fitness>
48.2306

> <Gold.PLP.PLP>
-43.1739

> <Gold.PLP.part.hbond>
-1.0000

> <Gold.PLP.part.metal>
0.0000

> <Gold.PLP.part.buried>
-5.3971

> <Gold.PLP.part.nonpolar>
-37.2624

> <Gold.PLP.part.repulsive>
0.1545

> <Gold.PLP.ligand.clash>
0.0000

> <Gold.PLP.ligand.torsion>
0.2081

> <Gold.PLP.Chemscore.Hbond>
0.8160

> <Gold.PLP.Chemscore.CHOScore>
1.0000

> <Gold.PLP.Chemscore.Metal>
0.0000

> <Gold.Chemscore.Hbonds>
donor molecule, donor type, donor heavy atom, donor atom, acceptor molecule, acceptor atom, score
      P1  H  7989  7998       L1     7  0.82
      L1  C    17    40       P1  7957  1.00

> <Gold.PLP.Chemscore.Internal.Correction>
0.0248

> <Gold.Rescore>
     Score         DG    S(hbond)    S(metal)    S(lipo)     H(rot)  DE(clash)    DE(int)     intcor
     18.89     -19.10       0.89        0.00     118.25       1.25       0.04       0.16       ----

> <Gold.Chemscore.Fitness>
18.8895

> <Gold.Chemscore.DG>
-19.0963

> <Gold.Chemscore.ZeroCoef>
-5.4800

> <Gold.Chemscore.Hbond>
0.8931

> <Gold.Chemscore.Metal>
0.0000

> <Gold.Chemscore.Lipo>
118.2518

> <Gold.Chemscore.Internal_Hbond>
0.0000

> <Gold.Chemscore.DEClash>
0.0449

> <Gold.Chemscore.DEInternal>
0.1620

> <Gold.Chemscore.Rot>
1.2508

> <Gold.Chemscore.Internal.Correction>
   9.000000E+99

> <Gold.Chemscore.Hbonds>
donor molecule, donor type, donor heavy atom, donor atom, acceptor molecule, acceptor atom, score
      P1  H  7989  7998       L1     7  0.56

> <Gold.Chemscore.Hbond.Weighted>
-2.9830

> <Gold.Chemscore.Metal.Weighted>
-0.0000

> <Gold.Chemscore.Lipo.Weighted>
-13.8355

> <Gold.Chemscore.Internal_Hbond.Weighted>
0.0000

> <Gold.Chemscore.DEClash.Weighted>
0.0449

> <Gold.Chemscore.DEInternal.Weighted>
0.1620

> <Gold.Chemscore.Rot.Weighted>
3.2022

> <Gold.Chemscore.Internal.Correction.Weighted>
   9.000000E+99

> <Gold.Protein.RotatedTorsions>
[ 6907 6896 6895 6894 ] final -161.32 input  -60.11 | X-H torsion
[ 7974 7965 7964 7962 ] final -126.79 input  175.53 | X-H torsion
[ 8008 7997 7996 7995 ] final  113.58 input   59.86 | X-H torsion
[ 10167 10162 10161 10158 ] final   82.47 input  -65.29 | X-H torsion
[ 10718 10713 10712 10709 ] final -121.53 input   66.30 | X-H torsion
[ 10763 10752 10751 10750 ] final -137.27 input  -60.55 | X-H torsion
[ 11005 11000 10999 10996 ] final -150.93 input  -57.11 | X-H torsion

> <Gold.Protein.ActiveResidues>
 VAL166  LYS551  ARG553  GLY616  TRP617  ASP618  TYR619  PRO620  LYS621  CYS622 
 ASP623  PHE694  ASN695  SER759  ASP760  ASP761  ALA762  ILE779  LEU786  VAL792 
 PHE793  MET794  SER795  GLU796  ALA797  LYS798  CYS799  TRP800  GLU811  SER814 

> <Gold.Protein.RotatedAtoms>
  151.3628  133.3883  159.2691 H   0  0  0  0  0  0  0  0  0  0  0  0  # atno 6907 bound_to 6896
  150.9712  134.9085  159.7799 H   0  0  0  0  0  0  0  0  0  0  0  0  # atno 6908 bound_to 6896
  152.5185  134.3590  159.9330 H   0  0  0  0  0  0  0  0  0  0  0  0  # atno 6909 bound_to 6896
  144.9836  140.7665  143.4597 H   0  0  0  0  0  0  0  0  0  0  0  0  # atno 7974 bound_to 7965
  156.2267  140.2976  156.0085 H   0  0  0  0  0  0  0  0  0  0  0  0  # atno 8008 bound_to 7997
  155.2337  140.0420  157.2983 H   0  0  0  0  0  0  0  0  0  0  0  0  # atno 8009 bound_to 7997
  154.5927  140.2406  155.7906 H   0  0  0  0  0  0  0  0  0  0  0  0  # atno 8010 bound_to 7997
  139.9285  144.6167  150.8369 H   0  0  0  0  0  0  0  0  0  0  0  0  # atno 10167 bound_to 10162
  156.1344  130.6420  150.9673 H   0  0  0  0  0  0  0  0  0  0  0  0  # atno 10718 bound_to 10713
  154.8665  135.3647  154.5196 H   0  0  0  0  0  0  0  0  0  0  0  0  # atno 10763 bound_to 10752
  153.5827  135.7018  153.5461 H   0  0  0  0  0  0  0  0  0  0  0  0  # atno 10764 bound_to 10752
  153.3443  135.4089  155.1559 H   0  0  0  0  0  0  0  0  0  0  0  0  # atno 10765 bound_to 10752
  140.7349  134.3579  157.5159 H   0  0  0  0  0  0  0  0  0  0  0  0  # atno 11005 bound_to 11000
  145.2385  139.2083  143.5005 LP  0  0  0  0  0  0  0  0  0  0  0  0  # atno 17320 bound_to 7965
  146.3414  140.2276  142.8592 LP  0  0  0  0  0  0  0  0  0  0  0  0  # atno 17321 bound_to 7965
  140.7644  143.3247  151.2543 LP  0  0  0  0  0  0  0  0  0  0  0  0  # atno 17342 bound_to 10162
  139.6802  143.9868  152.2804 LP  0  0  0  0  0  0  0  0  0  0  0  0  # atno 17343 bound_to 10162
  157.6519  131.0895  150.8033 LP  0  0  0  0  0  0  0  0  0  0  0  0  # atno 17370 bound_to 10713
  156.8114  130.4954  149.5355 LP  0  0  0  0  0  0  0  0  0  0  0  0  # atno 17371 bound_to 10713
  139.8818  134.9043  156.2874 LP  0  0  0  0  0  0  0  0  0  0  0  0  # atno 17394 bound_to 11000
  140.9888  133.7221  156.0782 LP  0  0  0  0  0  0  0  0  0  0  0  0  # atno 17395 bound_to 11000

$$$$
