AV-unprocessed.smi:2528|AV-procd|sdf|9950|dock3
  -GOLD-   2272013593D 1   1.00000     0.00000
 Structure written by MMmdl.
 44 46  0  0  0  0  0  0  0  0  2 V2000
  151.6328  140.8406  157.3558 O   0  0  0  0  0  0  0  0  0  0  0  0
  151.0168  141.9067  157.3556 C   0  0  0  0  0  0  0  0  0  0  0  0
  150.2188  142.2957  156.3507 N   0  0  0  0  0  0  0  0  0  0  0  0
  149.9563  141.5227  155.1402 C   0  0  0  0  0  0  0  0  0  0  0  0
  149.8849  140.0047  155.3989 C   0  0  2  0  0  0  0  0  0  0  0  0
  149.6225  139.1811  154.1154 C   0  0  0  0  0  0  0  0  0  0  0  0
  149.4441  137.7410  154.4211 N   0  3  1  0  0  0  0  0  0  0  0  0
  150.7246  137.0318  154.6925 C   0  0  0  0  0  0  0  0  0  0  0  0
  150.4936  135.5337  154.9401 C   0  0  0  0  0  0  0  0  0  0  0  0
  149.5033  135.3200  156.0902 C   0  0  0  0  0  0  0  0  0  0  0  0
  148.1895  136.0531  155.7884 C   0  0  0  0  0  0  0  0  0  0  0  0
  148.4070  137.5480  155.4721 C   0  0  1  0  0  0  0  0  0  0  0  0
  148.7211  138.4104  156.7130 C   0  0  0  0  0  0  0  0  0  0  0  0
  148.8259  139.7748  156.3226 O   0  0  0  0  0  0  0  0  0  0  0  0
  151.0488  142.8253  158.3368 N   0  0  0  0  0  0  0  0  0  0  0  0
  151.7889  142.7882  159.5486 C   0  0  0  0  0  0  0  0  0  0  0  0
  152.9157  141.9355  159.5362 C   0  0  0  0  0  0  0  0  0  0  0  0
  153.7169  141.8294  160.6896 C   0  0  0  0  0  0  0  0  0  0  0  0
  153.3685  142.5778  161.8279 C   0  0  0  0  0  0  0  0  0  0  0  0
  152.2288  143.4000  161.7578 C   0  0  0  0  0  0  0  0  0  0  0  0
  151.4597  143.5031  160.6534 N   0  0  0  0  0  0  0  0  0  0  0  0
  149.7464  143.1840  156.4342 H   0  0  0  0  0  0  0  0  0  0  0  0
  149.0281  141.8699  154.6834 H   0  0  0  0  0  0  0  0  0  0  0  0
  150.7504  141.7392  154.4249 H   0  0  0  0  0  0  0  0  0  0  0  0
  150.8195  139.6877  155.8627 H   0  0  0  0  0  0  0  0  0  0  0  0
  148.7152  139.5430  153.6299 H   0  0  0  0  0  0  0  0  0  0  0  0
  150.4298  139.3066  153.3930 H   0  0  0  0  0  0  0  0  0  0  0  0
  151.3935  137.1589  153.8407 H   0  0  0  0  0  0  0  0  0  0  0  0
  151.2312  137.4677  155.5533 H   0  0  0  0  0  0  0  0  0  0  0  0
  150.1124  135.0640  154.0324 H   0  0  0  0  0  0  0  0  0  0  0  0
  151.4406  135.0439  155.1689 H   0  0  0  0  0  0  0  0  0  0  0  0
  149.3146  134.2552  156.2297 H   0  0  0  0  0  0  0  0  0  0  0  0
  149.9321  135.6838  157.0245 H   0  0  0  0  0  0  0  0  0  0  0  0
  147.7109  135.5759  154.9321 H   0  0  0  0  0  0  0  0  0  0  0  0
  147.4956  135.9397  156.6220 H   0  0  0  0  0  0  0  0  0  0  0  0
  147.4685  137.9220  155.0595 H   0  0  0  0  0  0  0  0  0  0  0  0
  147.9174  138.3224  157.4443 H   0  0  0  0  0  0  0  0  0  0  0  0
  149.6364  138.0909  157.2125 H   0  0  0  0  0  0  0  0  0  0  0  0
  150.4768  143.6460  158.2038 H   0  0  0  0  0  0  0  0  0  0  0  0
  153.1697  141.3675  158.6530 H   0  0  0  0  0  0  0  0  0  0  0  0
  154.5833  141.1847  160.6993 H   0  0  0  0  0  0  0  0  0  0  0  0
  153.9587  142.5235  162.7307 H   0  0  0  0  0  0  0  0  0  0  0  0
  151.9260  143.9893  162.6105 H   0  0  0  0  0  0  0  0  0  0  0  0
  149.0777  137.3155  153.5814 H   0  0  0  0  0  0  0  0  0  0  0  0
  1  2  2  0  0  0  0
  2  3  1  0  0  0  0
  2 15  1  0  0  0  0
  3  4  1  0  0  0  0
  3 22  1  0  0  0  0
  4  5  1  0  0  0  0
  4 23  1  0  0  0  0
  4 24  1  0  0  0  0
  5 14  1  0  0  0  0
  5  6  1  0  0  0  0
  5 25  1  0  0  0  0
  6  7  1  0  0  0  0
  6 26  1  0  0  0  0
  6 27  1  0  0  0  0
  7 12  1  0  0  0  0
  7  8  1  0  0  0  0
  7 44  1  0  0  0  0
  8  9  1  0  0  0  0
  8 28  1  0  0  0  0
  8 29  1  0  0  0  0
  9 10  1  0  0  0  0
  9 30  1  0  0  0  0
  9 31  1  0  0  0  0
 10 11  1  0  0  0  0
 10 32  1  0  0  0  0
 10 33  1  0  0  0  0
 11 12  1  0  0  0  0
 11 34  1  0  0  0  0
 11 35  1  0  0  0  0
 12 13  1  0  0  0  0
 12 36  1  0  0  0  0
 13 14  1  0  0  0  0
 13 37  1  0  0  0  0
 13 38  1  0  0  0  0
 15 16  1  0  0  0  0
 15 39  1  0  0  0  0
 16 21  1  0  0  0  0
 16 17  2  0  0  0  0
 17 18  1  0  0  0  0
 17 40  1  0  0  0  0
 18 19  2  0  0  0  0
 18 41  1  0  0  0  0
 19 20  1  0  0  0  0
 19 42  1  0  0  0  0
 20 21  2  0  0  0  0
 20 43  1  0  0  0  0
M  CHG  1   7   1
M  END
> <s_m_source_file>
AV-unprocessed.smi

> <i_m_source_file_index>
2528

> <i_lp_mmshare_version>
43012

> <i_f3d_flags>
0

> <s_epik_input>
bjFbY0hdW2NIXVtjSF1bY0hdYzFbTkhdQyg9TylbTkhdW0NIMl1bQ0BIXShbQ0gyXTIpT1tDSDJdW0NAQEhdKE4yMylbQ0gyXVtDSDJdW0NIMl1bQ0gyXTM=

> <s_epik_cmdline>
J2VwaWtfcHl0aG9uJywgJy1waCcsICc3LjAnLCAnLXRuJywgJzgnLCAnLW1hJywgJzIwMCcsICctbWV0YWxfYmluZGluZycsICctaW1hZScsICc8aW5maWxlLm1hZT4nLCAnLW9tYWUnLCAnPG91dGZpbGUubWFlPic=

> <r_epik_Ionization_Penalty>
0.0932337

> <r_epik_Ionization_Penalty_Charging>
0.0931942

> <r_epik_Ionization_Penalty_Neutral>
3.9565e-05

> <r_epik_State_Penalty>
0.0834605

> <r_epik_Charging_Adjusted_Penalty>
0.176655

> <i_epik_Tot_Q>
1

> <i_epik_Tot_abs_Q>
1

> <r_epik_Metal_State_Penalty>
0.0834607

> <b_epik_Metal_Only>
0

> <s_lp_Force_Field>
OPLS_2005

> <r_lp_Energy>
27.0469

> <b_lp_Chiralities_Consistent>
1

> <s_lp_Variant>
AV-unprocessed.smi:2528-3

> <Gold.Version>
5.8.1

> <Gold.Id.Protein>
6NUR|6NUR_protein|mol2

> <Gold.PLP.Fitness>
44.3406

> <Gold.PLP.PLP>
-35.8868

> <Gold.PLP.part.hbond>
-2.4774

> <Gold.PLP.part.metal>
0.0000

> <Gold.PLP.part.buried>
-3.8649

> <Gold.PLP.part.nonpolar>
-29.3993

> <Gold.PLP.part.repulsive>
0.2352

> <Gold.PLP.ligand.clash>
0.0000

> <Gold.PLP.ligand.torsion>
0.2735

> <Gold.PLP.Chemscore.Hbond>
3.0000

> <Gold.PLP.Chemscore.CHOScore>
0.0000

> <Gold.PLP.Chemscore.Metal>
0.0000

> <Gold.Chemscore.Hbonds>
donor molecule, donor type, donor heavy atom, donor atom, acceptor molecule, acceptor atom, score
      L1  H     3    22       P1  8028  1.00
      L1  H     7    44       P1  7948  2.00

> <Gold.PLP.Chemscore.Internal.Correction>
0.0008

> <Gold.Rescore>
     Score         DG    S(hbond)    S(metal)    S(lipo)     H(rot)  DE(clash)    DE(int)     intcor
     15.43     -18.88       1.94        0.00      87.36       1.29       0.29       3.16       ----

> <Gold.Chemscore.Fitness>
15.4349

> <Gold.Chemscore.DG>
-18.8816

> <Gold.Chemscore.ZeroCoef>
-5.4800

> <Gold.Chemscore.Hbond>
1.9386

> <Gold.Chemscore.Metal>
0.0000

> <Gold.Chemscore.Lipo>
87.3645

> <Gold.Chemscore.Internal_Hbond>
0.0000

> <Gold.Chemscore.DEClash>
0.2895

> <Gold.Chemscore.DEInternal>
3.1571

> <Gold.Chemscore.Rot>
1.2870

> <Gold.Chemscore.Internal.Correction>
   9.000000E+99

> <Gold.Chemscore.Hbonds>
donor molecule, donor type, donor heavy atom, donor atom, acceptor molecule, acceptor atom, score
      L1  H     3    22       P1  8028  0.96
      L1  H     7    44       P1  7948  0.94

> <Gold.Chemscore.Hbond.Weighted>
-6.4748

> <Gold.Chemscore.Metal.Weighted>
-0.0000

> <Gold.Chemscore.Lipo.Weighted>
-10.2216

> <Gold.Chemscore.Internal_Hbond.Weighted>
0.0000

> <Gold.Chemscore.DEClash.Weighted>
0.2895

> <Gold.Chemscore.DEInternal.Weighted>
3.1571

> <Gold.Chemscore.Rot.Weighted>
3.2948

> <Gold.Chemscore.Internal.Correction.Weighted>
   9.000000E+99

> <Gold.Protein.RotatedTorsions>
[ 6907 6896 6895 6894 ] final  -41.91 input  -60.11 | X-H torsion
[ 7974 7965 7964 7962 ] final -107.01 input  175.53 | X-H torsion
[ 8008 7997 7996 7995 ] final   73.62 input   59.86 | X-H torsion
[ 10167 10162 10161 10158 ] final   52.46 input  -65.29 | X-H torsion
[ 10718 10713 10712 10709 ] final -119.84 input   66.30 | X-H torsion
[ 10763 10752 10751 10750 ] final   -0.37 input  -60.55 | X-H torsion
[ 11005 11000 10999 10996 ] final -109.15 input  -57.11 | X-H torsion

> <Gold.Protein.ActiveResidues>
 VAL166  LYS551  ARG553  GLY616  TRP617  ASP618  TYR619  PRO620  LYS621  CYS622 
 ASP623  PHE694  ASN695  SER759  ASP760  ASP761  ALA762  ILE779  LEU786  VAL792 
 PHE793  MET794  SER795  GLU796  ALA797  LYS798  CYS799  TRP800  GLU811  SER814 

> <Gold.Protein.RotatedAtoms>
  150.9613  134.9000  159.7731 H   0  0  0  0  0  0  0  0  0  0  0  0  # atno 6907 bound_to 6896
  152.5157  134.3669  159.9314 H   0  0  0  0  0  0  0  0  0  0  0  0  # atno 6908 bound_to 6896
  151.3681  133.3824  159.2731 H   0  0  0  0  0  0  0  0  0  0  0  0  # atno 6909 bound_to 6896
  145.2107  140.9095  143.3316 H   0  0  0  0  0  0  0  0  0  0  0  0  # atno 7974 bound_to 7965
  155.7864  140.3480  155.5325 H   0  0  0  0  0  0  0  0  0  0  0  0  # atno 8008 bound_to 7997
  155.8678  140.0981  157.1591 H   0  0  0  0  0  0  0  0  0  0  0  0  # atno 8009 bound_to 7997
  154.4015  140.1346  156.4027 H   0  0  0  0  0  0  0  0  0  0  0  0  # atno 8010 bound_to 7997
  140.2511  144.3478  150.6348 H   0  0  0  0  0  0  0  0  0  0  0  0  # atno 10167 bound_to 10162
  156.1212  130.6324  150.9466 H   0  0  0  0  0  0  0  0  0  0  0  0  # atno 10718 bound_to 10713
  153.3310  135.6975  153.6948 H   0  0  0  0  0  0  0  0  0  0  0  0  # atno 10763 bound_to 10752
  153.5751  135.3509  155.2853 H   0  0  0  0  0  0  0  0  0  0  0  0  # atno 10764 bound_to 10752
  154.8618  135.4281  154.2498 H   0  0  0  0  0  0  0  0  0  0  0  0  # atno 10765 bound_to 10752
  141.0863  133.9133  157.2177 H   0  0  0  0  0  0  0  0  0  0  0  0  # atno 11005 bound_to 11000
  144.9858  139.3738  143.6239 LP  0  0  0  0  0  0  0  0  0  0  0  0  # atno 17320 bound_to 7965
  146.3398  139.9019  142.8793 LP  0  0  0  0  0  0  0  0  0  0  0  0  # atno 17321 bound_to 7965
  140.6040  143.2167  151.7017 LP  0  0  0  0  0  0  0  0  0  0  0  0  # atno 17342 bound_to 10162
  139.5046  144.3748  152.0434 LP  0  0  0  0  0  0  0  0  0  0  0  0  # atno 17343 bound_to 10162
  157.6395  131.0912  150.8280 LP  0  0  0  0  0  0  0  0  0  0  0  0  # atno 17370 bound_to 10713
  156.8376  130.5037  149.5324 LP  0  0  0  0  0  0  0  0  0  0  0  0  # atno 17371 bound_to 10713
  139.9682  135.0136  156.9443 LP  0  0  0  0  0  0  0  0  0  0  0  0  # atno 17394 bound_to 11000
  140.5355  134.0771  155.7327 LP  0  0  0  0  0  0  0  0  0  0  0  0  # atno 17395 bound_to 11000

$$$$
