AV-unprocessed.smi:428|AV-procd|sdf|2544|dock8
  -GOLD-   2262022503D 1   1.00000     0.00000
 Structure written by MMmdl.
 40 41  0  0  0  0  0  0  0  0  1 V2000
  152.5876  133.2443  154.2520 C   0  0  0  0  0  0  0  0  0  0  0  0
  151.3075  133.7299  153.5629 C   0  0  0  0  0  0  0  0  0  0  0  0
  150.6762  134.9358  154.2817 C   0  0  0  0  0  0  0  0  0  0  0  0
  151.5509  136.1930  154.2399 C   0  0  0  0  0  0  0  0  0  0  0  0
  152.6425  136.2199  154.8090 O   0  0  0  0  0  0  0  0  0  0  0  0
  151.0577  137.2308  153.5468 N   0  0  0  0  0  0  0  0  0  0  0  0
  151.7190  138.5217  153.3773 C   0  0  0  0  0  0  0  0  0  0  0  0
  151.8068  139.3833  154.6319 C   0  0  0  0  0  0  0  0  0  0  0  0
  150.6343  139.9604  155.1577 C   0  0  0  0  0  0  0  0  0  0  0  0
  150.7195  140.7662  156.3087 C   0  0  0  0  0  0  0  0  0  0  0  0
  151.9821  140.9772  156.9105 C   0  0  0  0  0  0  0  0  0  0  0  0
  152.0905  141.7846  158.0631 N   0  0  0  0  0  0  0  0  0  0  0  0
  150.9208  142.5630  158.4656 C   0  0  0  0  0  0  0  0  0  0  0  0
  151.3035  143.5788  159.5552 C   0  0  0  0  0  0  0  0  0  0  0  0
  151.9135  142.9006  160.6485 O   0  0  0  0  0  0  0  0  0  0  0  0
  153.1116  142.2379  160.2579 C   0  0  0  0  0  0  0  0  0  0  0  0
  152.7971  141.1778  159.1881 C   0  0  0  0  0  0  0  0  0  0  0  0
  153.1097  140.4177  156.4071 N   0  0  0  0  0  0  0  0  0  0  0  0
  153.0225  139.6491  155.3011 C   0  0  0  0  0  0  0  0  0  0  0  0
  153.0128  132.3903  153.7241 H   0  0  0  0  0  0  0  0  0  0  0  0
  152.3896  132.9363  155.2789 H   0  0  0  0  0  0  0  0  0  0  0  0
  153.3434  134.0296  154.2768 H   0  0  0  0  0  0  0  0  0  0  0  0
  151.5371  133.9932  152.5294 H   0  0  0  0  0  0  0  0  0  0  0  0
  150.5942  132.9056  153.5218 H   0  0  0  0  0  0  0  0  0  0  0  0
  149.7117  135.1739  153.8321 H   0  0  0  0  0  0  0  0  0  0  0  0
  150.4795  134.6748  155.3228 H   0  0  0  0  0  0  0  0  0  0  0  0
  150.1553  137.1202  153.1073 H   0  0  0  0  0  0  0  0  0  0  0  0
  152.7337  138.3311  153.0274 H   0  0  0  0  0  0  0  0  0  0  0  0
  151.2270  139.0910  152.5867 H   0  0  0  0  0  0  0  0  0  0  0  0
  149.6781  139.7886  154.6855 H   0  0  0  0  0  0  0  0  0  0  0  0
  149.8207  141.1991  156.7224 H   0  0  0  0  0  0  0  0  0  0  0  0
  150.5067  143.0919  157.6062 H   0  0  0  0  0  0  0  0  0  0  0  0
  150.1485  141.8892  158.8391 H   0  0  0  0  0  0  0  0  0  0  0  0
  151.9807  144.3376  159.1598 H   0  0  0  0  0  0  0  0  0  0  0  0
  150.4150  144.1002  159.9112 H   0  0  0  0  0  0  0  0  0  0  0  0
  153.8359  142.9635  159.8844 H   0  0  0  0  0  0  0  0  0  0  0  0
  153.5570  141.7655  161.1334 H   0  0  0  0  0  0  0  0  0  0  0  0
  152.1700  140.3936  159.6143 H   0  0  0  0  0  0  0  0  0  0  0  0
  153.7260  140.7047  158.8726 H   0  0  0  0  0  0  0  0  0  0  0  0
  153.9592  139.2437  154.9491 H   0  0  0  0  0  0  0  0  0  0  0  0
  1  2  1  0  0  0  0
  1 20  1  0  0  0  0
  1 21  1  0  0  0  0
  1 22  1  0  0  0  0
  2  3  1  0  0  0  0
  2 23  1  0  0  0  0
  2 24  1  0  0  0  0
  3  4  1  0  0  0  0
  3 25  1  0  0  0  0
  3 26  1  0  0  0  0
  4  5  2  0  0  0  0
  4  6  1  0  0  0  0
  6  7  1  0  0  0  0
  6 27  1  0  0  0  0
  7  8  1  0  0  0  0
  7 28  1  0  0  0  0
  7 29  1  0  0  0  0
  8 19  1  0  0  0  0
  8  9  2  0  0  0  0
  9 10  1  0  0  0  0
  9 30  1  0  0  0  0
 10 11  2  0  0  0  0
 10 31  1  0  0  0  0
 11 12  1  0  0  0  0
 11 18  1  0  0  0  0
 12 17  1  0  0  0  0
 12 13  1  0  0  0  0
 13 14  1  0  0  0  0
 13 32  1  0  0  0  0
 13 33  1  0  0  0  0
 14 15  1  0  0  0  0
 14 34  1  0  0  0  0
 14 35  1  0  0  0  0
 15 16  1  0  0  0  0
 16 17  1  0  0  0  0
 16 36  1  0  0  0  0
 16 37  1  0  0  0  0
 17 38  1  0  0  0  0
 17 39  1  0  0  0  0
 18 19  2  0  0  0  0
 19 40  1  0  0  0  0
M  END
> <s_m_source_file>
AV-unprocessed.smi

> <i_m_source_file_index>
428

> <i_lp_mmshare_version>
43012

> <i_f3d_flags>
0

> <s_epik_input>
W0NIM11bQ0gyXVtDSDJdQyg9TylbTkhdW0NIMl1jMVtjSF1bY0hdYyhuW2NIXTEpTjJbQ0gyXVtDSDJdT1tDSDJdW0NIMl0y

> <s_epik_cmdline>
J2VwaWtfcHl0aG9uJywgJy1waCcsICc3LjAnLCAnLXRuJywgJzgnLCAnLW1hJywgJzIwMCcsICctbWV0YWxfYmluZGluZycsICctaW1hZScsICc8aW5maWxlLm1hZT4nLCAnLW9tYWUnLCAnPG91dGZpbGUubWFlPic=

> <r_lp_tautomer_probability>
1

> <r_epik_Ionization_Penalty>
0.00505548

> <r_epik_Ionization_Penalty_Charging>
0

> <r_epik_Ionization_Penalty_Neutral>
0.00505548

> <r_epik_State_Penalty>
0.00367784

> <r_epik_Charging_Adjusted_Penalty>
0.00367784

> <i_epik_Tot_Q>
0

> <i_epik_Tot_abs_Q>
0

> <r_epik_Metal_State_Penalty>
-0

> <b_epik_Metal_Only>
0

> <s_lp_Force_Field>
OPLS_2005

> <r_lp_Energy>
16.3878

> <b_lp_Chiralities_Consistent>
1

> <s_lp_Variant>
AV-unprocessed.smi:428-1

> <Gold.Version>
5.8.1

> <Gold.Id.Protein>
6NUR|6NUR_protein|mol2

> <Gold.PLP.Fitness>
44.8766

> <Gold.PLP.PLP>
-36.4852

> <Gold.PLP.part.hbond>
-4.1403

> <Gold.PLP.part.metal>
0.0000

> <Gold.PLP.part.buried>
-0.9228

> <Gold.PLP.part.nonpolar>
-31.1372

> <Gold.PLP.part.repulsive>
0.1784

> <Gold.PLP.ligand.clash>
0.0000

> <Gold.PLP.ligand.torsion>
0.3272

> <Gold.PLP.Chemscore.Hbond>
2.9040

> <Gold.PLP.Chemscore.CHOScore>
0.0000

> <Gold.PLP.Chemscore.Metal>
0.0000

> <Gold.Chemscore.Hbonds>
donor molecule, donor type, donor heavy atom, donor atom, acceptor molecule, acceptor atom, score
      L1  H     6    27       P1  7948  0.65
      P1  H  7997  8009       L1    18  0.32

> <Gold.PLP.Chemscore.Internal.Correction>
0.3339

> <Gold.Rescore>
     Score         DG    S(hbond)    S(metal)    S(lipo)     H(rot)  DE(clash)    DE(int)     intcor
     17.61     -19.12       2.21        0.00      90.47       1.69       0.33       1.18       ----

> <Gold.Chemscore.Fitness>
17.6096

> <Gold.Chemscore.DG>
-19.1161

> <Gold.Chemscore.ZeroCoef>
-5.4800

> <Gold.Chemscore.Hbond>
2.2110

> <Gold.Chemscore.Metal>
0.0000

> <Gold.Chemscore.Lipo>
90.4656

> <Gold.Chemscore.Internal_Hbond>
0.0000

> <Gold.Chemscore.DEClash>
0.3270

> <Gold.Chemscore.DEInternal>
1.1795

> <Gold.Chemscore.Rot>
1.6926

> <Gold.Chemscore.Internal.Correction>
   9.000000E+99

> <Gold.Chemscore.Hbonds>
donor molecule, donor type, donor heavy atom, donor atom, acceptor molecule, acceptor atom, score
      L1  H     6    27       P1  7948  0.05
      P1  H  7997  8009       L1    18  0.09

> <Gold.Chemscore.Hbond.Weighted>
-7.3847

> <Gold.Chemscore.Metal.Weighted>
-0.0000

> <Gold.Chemscore.Lipo.Weighted>
-10.5845

> <Gold.Chemscore.Internal_Hbond.Weighted>
0.0000

> <Gold.Chemscore.DEClash.Weighted>
0.3270

> <Gold.Chemscore.DEInternal.Weighted>
1.1795

> <Gold.Chemscore.Rot.Weighted>
4.3330

> <Gold.Chemscore.Internal.Correction.Weighted>
   9.000000E+99

> <Gold.Protein.RotatedTorsions>
[ 6907 6896 6895 6894 ] final  -27.66 input  -60.11 | X-H torsion
[ 7974 7965 7964 7962 ] final -114.41 input  175.53 | X-H torsion
[ 8008 7997 7996 7995 ] final  161.72 input   59.86 | X-H torsion
[ 10167 10162 10161 10158 ] final   11.83 input  -65.29 | X-H torsion
[ 10718 10713 10712 10709 ] final   30.68 input   66.30 | X-H torsion
[ 10763 10752 10751 10750 ] final  -34.84 input  -60.55 | X-H torsion
[ 11005 11000 10999 10996 ] final   53.41 input  -57.11 | X-H torsion

> <Gold.Protein.ActiveResidues>
 VAL166  LYS551  ARG553  GLY616  TRP617  ASP618  TYR619  PRO620  LYS621  CYS622 
 ASP623  PHE694  ASN695  SER759  ASP760  ASP761  ALA762  ILE779  LEU786  VAL792 
 PHE793  MET794  SER795  GLU796  ALA797  LYS798  CYS799  TRP800  GLU811  SER814 

> <Gold.Protein.RotatedAtoms>
  151.1438  135.0193  159.8637 H   0  0  0  0  0  0  0  0  0  0  0  0  # atno 6907 bound_to 6896
  152.5453  134.1468  159.8512 H   0  0  0  0  0  0  0  0  0  0  0  0  # atno 6908 bound_to 6896
  151.1546  133.4839  159.2627 H   0  0  0  0  0  0  0  0  0  0  0  0  # atno 6909 bound_to 6896
  145.1205  140.8666  143.3816 H   0  0  0  0  0  0  0  0  0  0  0  0  # atno 7974 bound_to 7965
  156.2083  140.1770  156.7751 H   0  0  0  0  0  0  0  0  0  0  0  0  # atno 8008 bound_to 7997
  154.5686  140.0686  156.8960 H   0  0  0  0  0  0  0  0  0  0  0  0  # atno 8009 bound_to 7997
  155.2714  140.3343  155.4267 H   0  0  0  0  0  0  0  0  0  0  0  0  # atno 8010 bound_to 7997
  140.6107  143.8414  150.7062 H   0  0  0  0  0  0  0  0  0  0  0  0  # atno 10167 bound_to 10162
  157.2628  130.7169  149.6462 H   0  0  0  0  0  0  0  0  0  0  0  0  # atno 10718 bound_to 10713
  153.8534  135.6847  153.4790 H   0  0  0  0  0  0  0  0  0  0  0  0  # atno 10763 bound_to 10752
  153.1384  135.4668  154.9456 H   0  0  0  0  0  0  0  0  0  0  0  0  # atno 10764 bound_to 10752
  154.7792  135.3263  154.7975 H   0  0  0  0  0  0  0  0  0  0  0  0  # atno 10765 bound_to 10752
  140.0770  134.5391  155.8986 H   0  0  0  0  0  0  0  0  0  0  0  0  # atno 11005 bound_to 11000
  145.0745  139.3006  143.5815 LP  0  0  0  0  0  0  0  0  0  0  0  0  # atno 17320 bound_to 7965
  146.3521  140.0231  142.8657 LP  0  0  0  0  0  0  0  0  0  0  0  0  # atno 17321 bound_to 7965
  140.1982  143.3981  152.1812 LP  0  0  0  0  0  0  0  0  0  0  0  0  # atno 17342 bound_to 10162
  139.5359  144.7209  151.4896 LP  0  0  0  0  0  0  0  0  0  0  0  0  # atno 17343 bound_to 10162
  155.9664  130.4392  150.5249 LP  0  0  0  0  0  0  0  0  0  0  0  0  # atno 17370 bound_to 10713
  157.3157  131.0672  151.1968 LP  0  0  0  0  0  0  0  0  0  0  0  0  # atno 17371 bound_to 10713
  141.2033  133.6631  156.6054 LP  0  0  0  0  0  0  0  0  0  0  0  0  # atno 17394 bound_to 11000
  140.3544  134.7741  157.4489 LP  0  0  0  0  0  0  0  0  0  0  0  0  # atno 17395 bound_to 11000

$$$$
