AV-unprocessed.smi:1011|AV-procd|sdf|4420|dock9
  -GOLD-   22720 2373D 1   1.00000     0.00000
 Structure written by MMmdl.
 43 45  0  0  0  0  0  0  0  0  1 V2000
  150.9899  142.3786  157.4202 C   0  0  0  0  0  0  0  0  0  0  0  0
  150.8763  141.4183  156.2717 C   0  0  0  0  0  0  0  0  0  0  0  0
  150.2896  141.6496  154.9951 C   0  0  0  0  0  0  0  0  0  0  0  0
  150.3522  140.5934  154.2011 N   0  0  0  0  0  0  0  0  0  0  0  0
  150.9793  139.6536  154.9393 N   0  0  0  0  0  0  0  0  0  0  0  0
  151.2272  138.3421  154.3734 C   0  0  0  0  0  0  0  0  0  0  0  0
  150.3445  137.2723  155.0304 C   0  0  0  0  0  0  0  0  0  0  0  0
  150.6255  135.9740  154.4405 N   0  0  0  0  0  0  0  0  0  0  0  0
  150.1409  134.9194  155.3192 C   0  0  0  0  0  0  0  0  0  0  0  0
  149.3382  133.8569  154.6225 C   0  0  0  0  0  0  0  0  0  0  0  0
  148.3627  134.1229  153.7495 N   0  0  0  0  0  0  0  0  0  0  0  0
  147.9315  132.8645  153.3784 C   0  0  0  0  0  0  0  0  0  0  0  0
  146.9172  132.4697  152.4772 C   0  0  0  0  0  0  0  0  0  0  0  0
  146.6508  131.1023  152.2562 C   0  0  0  0  0  0  0  0  0  0  0  0
  145.4094  130.6374  151.1518 Cl  0  0  0  0  0  0  0  0  0  0  0  0
  147.3933  130.1128  152.9336 C   0  0  0  0  0  0  0  0  0  0  0  0
  148.4082  130.4847  153.8363 C   0  0  0  0  0  0  0  0  0  0  0  0
  148.6708  131.8509  154.0507 C   0  0  0  0  0  0  0  0  0  0  0  0
  149.5771  132.5411  154.8486 N   0  0  0  0  0  0  0  0  0  0  0  0
  150.5635  131.9495  155.7383 C   0  0  0  0  0  0  0  0  0  0  0  0
  150.2171  132.2070  157.2111 C   0  0  0  0  0  0  0  0  0  0  0  0
  151.0734  133.1980  157.7348 O   0  0  0  0  0  0  0  0  0  0  0  0
  151.3069  140.1240  156.1932 C   0  0  0  0  0  0  0  0  0  0  0  0
  150.2039  143.1336  157.3941 H   0  0  0  0  0  0  0  0  0  0  0  0
  151.9434  142.9066  157.4081 H   0  0  0  0  0  0  0  0  0  0  0  0
  150.9142  141.8707  158.3820 H   0  0  0  0  0  0  0  0  0  0  0  0
  149.8227  142.5501  154.6240 H   0  0  0  0  0  0  0  0  0  0  0  0
  151.0389  138.3865  153.2997 H   0  0  0  0  0  0  0  0  0  0  0  0
  152.2839  138.1021  154.5020 H   0  0  0  0  0  0  0  0  0  0  0  0
  150.5353  137.2341  156.1039 H   0  0  0  0  0  0  0  0  0  0  0  0
  149.2914  137.5214  154.8924 H   0  0  0  0  0  0  0  0  0  0  0  0
  150.1589  135.9050  153.5475 H   0  0  0  0  0  0  0  0  0  0  0  0
  150.9907  134.4375  155.8038 H   0  0  0  0  0  0  0  0  0  0  0  0
  149.5284  135.3667  156.1028 H   0  0  0  0  0  0  0  0  0  0  0  0
  146.3441  133.2217  151.9553 H   0  0  0  0  0  0  0  0  0  0  0  0
  147.1843  129.0673  152.7606 H   0  0  0  0  0  0  0  0  0  0  0  0
  148.9781  129.7290  154.3562 H   0  0  0  0  0  0  0  0  0  0  0  0
  150.6072  130.8774  155.5427 H   0  0  0  0  0  0  0  0  0  0  0  0
  151.5511  132.3448  155.4982 H   0  0  0  0  0  0  0  0  0  0  0  0
  149.1840  132.5396  157.3151 H   0  0  0  0  0  0  0  0  0  0  0  0
  150.3278  131.2948  157.7986 H   0  0  0  0  0  0  0  0  0  0  0  0
  151.6453  133.4965  157.0441 H   0  0  0  0  0  0  0  0  0  0  0  0
  151.8157  139.5056  156.9179 H   0  0  0  0  0  0  0  0  0  0  0  0
  1  2  1  0  0  0  0
  1 24  1  0  0  0  0
  1 25  1  0  0  0  0
  1 26  1  0  0  0  0
  2 23  2  0  0  0  0
  2  3  1  0  0  0  0
  3  4  2  0  0  0  0
  3 27  1  0  0  0  0
  4  5  1  0  0  0  0
  5  6  1  0  0  0  0
  5 23  1  0  0  0  0
  6  7  1  0  0  0  0
  6 28  1  0  0  0  0
  6 29  1  0  0  0  0
  7  8  1  0  0  0  0
  7 30  1  0  0  0  0
  7 31  1  0  0  0  0
  8  9  1  0  0  0  0
  8 32  1  0  0  0  0
  9 10  1  0  0  0  0
  9 33  1  0  0  0  0
  9 34  1  0  0  0  0
 10 19  1  0  0  0  0
 10 11  2  0  0  0  0
 11 12  1  0  0  0  0
 12 18  2  0  0  0  0
 12 13  1  0  0  0  0
 13 14  2  0  0  0  0
 13 35  1  0  0  0  0
 14 15  1  0  0  0  0
 14 16  1  0  0  0  0
 16 17  2  0  0  0  0
 16 36  1  0  0  0  0
 17 18  1  0  0  0  0
 17 37  1  0  0  0  0
 18 19  1  0  0  0  0
 19 20  1  0  0  0  0
 20 21  1  0  0  0  0
 20 38  1  0  0  0  0
 20 39  1  0  0  0  0
 21 22  1  0  0  0  0
 21 40  1  0  0  0  0
 21 41  1  0  0  0  0
 22 42  1  0  0  0  0
 23 43  1  0  0  0  0
M  END
> <s_m_source_file>
AV-unprocessed.smi

> <i_m_source_file_index>
1011

> <i_lp_mmshare_version>
43012

> <i_f3d_flags>
0

> <s_epik_input>
W0NIM11jMVtjSF1ubihbY0hdMSlbQ0gyXVtDSDJdW05IXVtDSDJdYyhuMiluKFtDSDJdW0NIMl1bT0hdKWMoYzIzKVtjSF1bY0hdYyhDbClbY0hdMw==

> <s_epik_cmdline>
J2VwaWtfcHl0aG9uJywgJy1waCcsICc3LjAnLCAnLXRuJywgJzgnLCAnLW1hJywgJzIwMCcsICctbWV0YWxfYmluZGluZycsICctaW1hZScsICc8aW5maWxlLm1hZT4nLCAnLW9tYWUnLCAnPG91dGZpbGUubWFlPic=

> <r_lp_tautomer_probability>
1

> <r_epik_Ionization_Penalty>
0.714951

> <r_epik_Ionization_Penalty_Charging>
0

> <r_epik_Ionization_Penalty_Neutral>
0.714951

> <r_epik_State_Penalty>
0.695393

> <r_epik_Charging_Adjusted_Penalty>
0.695393

> <i_epik_Tot_Q>
0

> <i_epik_Tot_abs_Q>
0

> <r_epik_Metal_State_Penalty>
0.662708

> <b_epik_Metal_Only>
0

> <s_lp_Force_Field>
OPLS_2005

> <r_lp_Energy>
11.4797

> <b_lp_Chiralities_Consistent>
1

> <s_lp_Variant>
AV-unprocessed.smi:1011-2

> <Gold.Version>
5.8.1

> <Gold.Id.Protein>
6NUR|6NUR_protein|mol2

> <Gold.PLP.Fitness>
53.8350

> <Gold.PLP.PLP>
-45.3969

> <Gold.PLP.part.hbond>
-4.3342

> <Gold.PLP.part.metal>
0.0000

> <Gold.PLP.part.buried>
-4.0449

> <Gold.PLP.part.nonpolar>
-36.6864

> <Gold.PLP.part.repulsive>
0.9363

> <Gold.PLP.ligand.clash>
0.0000

> <Gold.PLP.ligand.torsion>
1.0651

> <Gold.PLP.Chemscore.Hbond>
2.7185

> <Gold.PLP.Chemscore.CHOScore>
0.7717

> <Gold.PLP.Chemscore.Metal>
0.0000

> <Gold.Chemscore.Hbonds>
donor molecule, donor type, donor heavy atom, donor atom, acceptor molecule, acceptor atom, score
      L1  H     8    32       P1  7948  0.34
      P1  H  6896  6908       L1    22  0.74
      P1  H  7989  7998       L1     4  0.39
      P1  H 10752 10764       L1     8  0.29
      L1  C     3    27       P1  8028  0.91

> <Gold.PLP.Chemscore.Internal.Correction>
0.0978

> <Gold.Rescore>
     Score         DG    S(hbond)    S(metal)    S(lipo)     H(rot)  DE(clash)    DE(int)     intcor
     14.34     -15.87       2.01        0.00      93.66       2.84       0.09       1.43       ----

> <Gold.Chemscore.Fitness>
14.3404

> <Gold.Chemscore.DG>
-15.8662

> <Gold.Chemscore.ZeroCoef>
-5.4800

> <Gold.Chemscore.Hbond>
2.0087

> <Gold.Chemscore.Metal>
0.0000

> <Gold.Chemscore.Lipo>
93.6629

> <Gold.Chemscore.Internal_Hbond>
0.0000

> <Gold.Chemscore.DEClash>
0.0931

> <Gold.Chemscore.DEInternal>
1.4327

> <Gold.Chemscore.Rot>
2.8442

> <Gold.Chemscore.Internal.Correction>
   9.000000E+99

> <Gold.Chemscore.Hbonds>
donor molecule, donor type, donor heavy atom, donor atom, acceptor molecule, acceptor atom, score
      L1  H     8    32       P1  7948  0.01
      P1  H  6896  6908       L1    22  0.69
      P1  H  7989  7998       L1     4  0.01
      P1  H 10752 10764       L1     8  0.08

> <Gold.Chemscore.Hbond.Weighted>
-6.7089

> <Gold.Chemscore.Metal.Weighted>
-0.0000

> <Gold.Chemscore.Lipo.Weighted>
-10.9586

> <Gold.Chemscore.Internal_Hbond.Weighted>
0.0000

> <Gold.Chemscore.DEClash.Weighted>
0.0931

> <Gold.Chemscore.DEInternal.Weighted>
1.4327

> <Gold.Chemscore.Rot.Weighted>
7.2812

> <Gold.Chemscore.Internal.Correction.Weighted>
   9.000000E+99

> <Gold.Protein.RotatedTorsions>
[ 6907 6896 6895 6894 ] final   69.77 input  -60.11 | X-H torsion
[ 7974 7965 7964 7962 ] final -161.33 input  175.53 | X-H torsion
[ 8008 7997 7996 7995 ] final  -40.08 input   59.86 | X-H torsion
[ 10167 10162 10161 10158 ] final  -81.05 input  -65.29 | X-H torsion
[ 10718 10713 10712 10709 ] final   -8.21 input   66.30 | X-H torsion
[ 10763 10752 10751 10750 ] final  -70.74 input  -60.55 | X-H torsion
[ 11005 11000 10999 10996 ] final  -84.91 input  -57.11 | X-H torsion

> <Gold.Protein.ActiveResidues>
 VAL166  LYS551  ARG553  GLY616  TRP617  ASP618  TYR619  PRO620  LYS621  CYS622 
 ASP623  PHE694  ASN695  SER759  ASP760  ASP761  ALA762  ILE779  LEU786  VAL792 
 PHE793  MET794  SER795  GLU796  ALA797  LYS798  CYS799  TRP800  GLU811  SER814 

> <Gold.Protein.RotatedAtoms>
  152.4707  134.4967  159.9711 H   0  0  0  0  0  0  0  0  0  0  0  0  # atno 6907 bound_to 6896
  151.4994  133.3501  159.2874 H   0  0  0  0  0  0  0  0  0  0  0  0  # atno 6908 bound_to 6896
  150.8715  134.8118  159.7220 H   0  0  0  0  0  0  0  0  0  0  0  0  # atno 6909 bound_to 6896
  144.7395  140.3413  143.6134 H   0  0  0  0  0  0  0  0  0  0  0  0  # atno 7974 bound_to 7965
  154.4016  140.1535  156.2968 H   0  0  0  0  0  0  0  0  0  0  0  0  # atno 8008 bound_to 7997
  155.8736  140.3447  155.5816 H   0  0  0  0  0  0  0  0  0  0  0  0  # atno 8009 bound_to 7997
  155.7747  140.0835  157.2081 H   0  0  0  0  0  0  0  0  0  0  0  0  # atno 8010 bound_to 7997
  140.4448  143.2502  151.8575 H   0  0  0  0  0  0  0  0  0  0  0  0  # atno 10167 bound_to 10162
  156.7059  130.5107  149.5905 H   0  0  0  0  0  0  0  0  0  0  0  0  # atno 10718 bound_to 10713
  154.4219  135.5984  153.6015 H   0  0  0  0  0  0  0  0  0  0  0  0  # atno 10763 bound_to 10752
  152.9794  135.5954  154.3945 H   0  0  0  0  0  0  0  0  0  0  0  0  # atno 10764 bound_to 10752
  154.3771  135.2841  155.2211 H   0  0  0  0  0  0  0  0  0  0  0  0  # atno 10765 bound_to 10752
  141.1646  133.7371  156.8938 H   0  0  0  0  0  0  0  0  0  0  0  0  # atno 11005 bound_to 11000
  145.7371  139.1753  143.2397 LP  0  0  0  0  0  0  0  0  0  0  0  0  # atno 17320 bound_to 7965
  146.1162  140.7366  142.9479 LP  0  0  0  0  0  0  0  0  0  0  0  0  # atno 17321 bound_to 7965
  139.4792  144.5188  151.8830 LP  0  0  0  0  0  0  0  0  0  0  0  0  # atno 17342 bound_to 10162
  140.4277  144.2158  150.5887 LP  0  0  0  0  0  0  0  0  0  0  0  0  # atno 17343 bound_to 10162
  156.1695  130.6428  151.0820 LP  0  0  0  0  0  0  0  0  0  0  0  0  # atno 17370 bound_to 10713
  157.6955  131.0795  150.6982 LP  0  0  0  0  0  0  0  0  0  0  0  0  # atno 17371 bound_to 10713
  140.1630  134.9152  157.2738 LP  0  0  0  0  0  0  0  0  0  0  0  0  # atno 17394 bound_to 11000
  140.2589  134.3594  155.7414 LP  0  0  0  0  0  0  0  0  0  0  0  0  # atno 17395 bound_to 11000

$$$$
