AV-unprocessed.smi:2063|AV-procd|sdf|8410|dock6
  -GOLD-   2272011103D 1   1.00000     0.00000
 Structure written by MMmdl.
 39 40  0  0  0  0  0  0  0  0  1 V2000
  151.8222  140.1494  158.6497 C   0  0  0  0  0  0  0  0  0  0  0  0
  151.7395  140.8138  157.2676 C   0  0  0  0  0  0  0  0  0  0  0  0
  150.9621  142.1380  157.2808 C   0  0  0  0  0  0  0  0  0  0  0  0
  151.2334  139.8729  156.2187 C   0  0  0  0  0  0  0  0  0  0  0  0
  151.1106  140.2159  154.9293 N   0  0  0  0  0  0  0  0  0  0  0  0
  150.6204  139.1776  154.1505 N   0  0  0  0  0  0  0  0  0  0  0  0
  150.3865  138.0759  154.8763 C   0  0  0  0  0  0  0  0  0  0  0  0
  149.8825  136.8647  154.3326 N   0  0  0  0  0  0  0  0  0  0  0  0
  149.7050  135.6838  154.9506 C   0  0  0  0  0  0  0  0  0  0  0  0
  149.9664  135.4525  156.1314 O   0  0  0  0  0  0  0  0  0  0  0  0
  149.1990  134.7697  154.1093 N   0  0  0  0  0  0  0  0  0  0  0  0
  148.8744  133.3864  154.4510 C   0  0  2  0  0  0  0  0  0  0  0  0
  150.1433  132.7064  154.9883 C   0  0  0  0  0  0  0  0  0  0  0  0
  148.3014  132.6598  153.2162 C   0  0  1  0  0  0  0  0  0  0  0  0
  147.6330  131.3172  153.5158 C   0  0  0  0  0  0  0  0  0  0  0  0
  146.6666  131.1317  152.3567 C   0  0  0  0  0  0  0  0  0  0  0  0
  146.5460  132.5298  151.7451 C   0  0  0  0  0  0  0  0  0  0  0  0
  147.2266  133.3913  152.6463 O   0  0  0  0  0  0  0  0  0  0  0  0
  150.7516  138.2200  156.5870 S   0  0  0  0  0  0  0  0  0  0  0  0
  152.4494  139.2578  158.6192 H   0  0  0  0  0  0  0  0  0  0  0  0
  150.8361  139.8510  159.0072 H   0  0  0  0  0  0  0  0  0  0  0  0
  152.2502  140.8291  159.3868 H   0  0  0  0  0  0  0  0  0  0  0  0
  152.7636  141.0637  156.9873 H   0  0  0  0  0  0  0  0  0  0  0  0
  150.9999  142.6242  156.3054 H   0  0  0  0  0  0  0  0  0  0  0  0
  151.3797  142.8311  158.0114 H   0  0  0  0  0  0  0  0  0  0  0  0
  149.9133  141.9802  157.5349 H   0  0  0  0  0  0  0  0  0  0  0  0
  149.6270  136.9019  153.3571 H   0  0  0  0  0  0  0  0  0  0  0  0
  149.0149  135.0533  153.1583 H   0  0  0  0  0  0  0  0  0  0  0  0
  148.1289  133.3713  155.2481 H   0  0  0  0  0  0  0  0  0  0  0  0
  149.9399  131.6871  155.3168 H   0  0  0  0  0  0  0  0  0  0  0  0
  150.5453  133.2480  155.8452 H   0  0  0  0  0  0  0  0  0  0  0  0
  150.9229  132.6617  154.2271 H   0  0  0  0  0  0  0  0  0  0  0  0
  149.0767  132.5266  152.4586 H   0  0  0  0  0  0  0  0  0  0  0  0
  148.3481  130.4990  153.6037 H   0  0  0  0  0  0  0  0  0  0  0  0
  147.0729  131.3768  154.4502 H   0  0  0  0  0  0  0  0  0  0  0  0
  147.0571  130.4259  151.6228 H   0  0  0  0  0  0  0  0  0  0  0  0
  145.7039  130.7561  152.7055 H   0  0  0  0  0  0  0  0  0  0  0  0
  147.0381  132.5670  150.7723 H   0  0  0  0  0  0  0  0  0  0  0  0
  145.5097  132.8423  151.6146 H   0  0  0  0  0  0  0  0  0  0  0  0
  1  2  1  0  0  0  0
  1 20  1  0  0  0  0
  1 21  1  0  0  0  0
  1 22  1  0  0  0  0
  2  3  1  0  0  0  0
  2  4  1  0  0  0  0
  2 23  1  0  0  0  0
  3 24  1  0  0  0  0
  3 25  1  0  0  0  0
  3 26  1  0  0  0  0
  4 19  1  0  0  0  0
  4  5  2  0  0  0  0
  5  6  1  0  0  0  0
  6  7  2  0  0  0  0
  7  8  1  0  0  0  0
  7 19  1  0  0  0  0
  8  9  1  0  0  0  0
  8 27  1  0  0  0  0
  9 10  2  0  0  0  0
  9 11  1  0  0  0  0
 11 12  1  0  0  0  0
 11 28  1  0  0  0  0
 12 13  1  0  0  0  0
 12 14  1  0  0  0  0
 12 29  1  0  0  0  0
 13 30  1  0  0  0  0
 13 31  1  0  0  0  0
 13 32  1  0  0  0  0
 14 18  1  0  0  0  0
 14 15  1  0  0  0  0
 14 33  1  0  0  0  0
 15 16  1  0  0  0  0
 15 34  1  0  0  0  0
 15 35  1  0  0  0  0
 16 17  1  0  0  0  0
 16 36  1  0  0  0  0
 16 37  1  0  0  0  0
 17 18  1  0  0  0  0
 17 38  1  0  0  0  0
 17 39  1  0  0  0  0
M  END
> <s_m_source_file>
AV-unprocessed.smi

> <i_m_source_file_index>
2063

> <i_lp_mmshare_version>
43012

> <i_f3d_flags>
0

> <s_epik_input>
W0NIM11bQ0hdKFtDSDNdKWMxbm5jKHMxKVtOSF1DKD1PKVtOSF1bQ0BIXShbQ0gzXSlbQ0BASF0yW0NIMl1bQ0gyXVtDSDJdTzI=

> <s_epik_cmdline>
J2VwaWtfcHl0aG9uJywgJy1waCcsICc3LjAnLCAnLXRuJywgJzgnLCAnLW1hJywgJzIwMCcsICctbWV0YWxfYmluZGluZycsICctaW1hZScsICc8aW5maWxlLm1hZT4nLCAnLW9tYWUnLCAnPG91dGZpbGUubWFlPic=

> <r_lp_tautomer_probability>
1

> <r_epik_Ionization_Penalty>
0.00050567

> <r_epik_Ionization_Penalty_Charging>
0

> <r_epik_Ionization_Penalty_Neutral>
0.00050567

> <r_epik_State_Penalty>
-0

> <r_epik_Charging_Adjusted_Penalty>
0

> <i_epik_Tot_Q>
0

> <i_epik_Tot_abs_Q>
0

> <r_epik_Metal_State_Penalty>
0.219912

> <b_epik_Metal_Only>
0

> <s_lp_Force_Field>
OPLS_2005

> <r_lp_Energy>
10.8912

> <b_lp_Chiralities_Consistent>
1

> <s_lp_Variant>
AV-unprocessed.smi:2063-3

> <Gold.Version>
5.8.1

> <Gold.Id.Protein>
6NUR|6NUR_protein|mol2

> <Gold.PLP.Fitness>
36.5322

> <Gold.PLP.PLP>
-29.7069

> <Gold.PLP.part.hbond>
-4.2926

> <Gold.PLP.part.metal>
0.0000

> <Gold.PLP.part.buried>
-3.0218

> <Gold.PLP.part.nonpolar>
-22.5264

> <Gold.PLP.part.repulsive>
0.4780

> <Gold.PLP.ligand.clash>
0.0000

> <Gold.PLP.ligand.torsion>
0.1622

> <Gold.PLP.Chemscore.Hbond>
2.3500

> <Gold.PLP.Chemscore.CHOScore>
0.0000

> <Gold.PLP.Chemscore.Metal>
0.0000

> <Gold.Chemscore.Hbonds>
donor molecule, donor type, donor heavy atom, donor atom, acceptor molecule, acceptor atom, score
      L1  H     8    27       P1  7948  1.00
      L1  H    11    28       P1  7948  0.90
      P1  H  7989  7998       L1     5  0.30

> <Gold.PLP.Chemscore.Internal.Correction>
0.0998

> <Gold.Rescore>
     Score         DG    S(hbond)    S(metal)    S(lipo)     H(rot)  DE(clash)    DE(int)     intcor
     12.91     -14.46       1.69        0.00      59.58       1.42       0.01       1.54       ----

> <Gold.Chemscore.Fitness>
12.9108

> <Gold.Chemscore.DG>
-14.4625

> <Gold.Chemscore.ZeroCoef>
-5.4800

> <Gold.Chemscore.Hbond>
1.6869

> <Gold.Chemscore.Metal>
0.0000

> <Gold.Chemscore.Lipo>
59.5835

> <Gold.Chemscore.Internal_Hbond>
0.0000

> <Gold.Chemscore.DEClash>
0.0076

> <Gold.Chemscore.DEInternal>
1.5442

> <Gold.Chemscore.Rot>
1.4152

> <Gold.Chemscore.Internal.Correction>
   9.000000E+99

> <Gold.Chemscore.Hbonds>
donor molecule, donor type, donor heavy atom, donor atom, acceptor molecule, acceptor atom, score
      L1  H     8    27       P1  7948  0.64
      L1  H    11    28       P1  7948  0.17

> <Gold.Chemscore.Hbond.Weighted>
-5.6342

> <Gold.Chemscore.Metal.Weighted>
-0.0000

> <Gold.Chemscore.Lipo.Weighted>
-6.9713

> <Gold.Chemscore.Internal_Hbond.Weighted>
0.0000

> <Gold.Chemscore.DEClash.Weighted>
0.0076

> <Gold.Chemscore.DEInternal.Weighted>
1.5442

> <Gold.Chemscore.Rot.Weighted>
3.6229

> <Gold.Chemscore.Internal.Correction.Weighted>
   9.000000E+99

> <Gold.Protein.RotatedTorsions>
[ 6907 6896 6895 6894 ] final   47.39 input  -60.11 | X-H torsion
[ 7974 7965 7964 7962 ] final    9.98 input  175.53 | X-H torsion
[ 8008 7997 7996 7995 ] final  118.32 input   59.86 | X-H torsion
[ 10167 10162 10161 10158 ] final  -17.09 input  -65.29 | X-H torsion
[ 10718 10713 10712 10709 ] final  171.50 input   66.30 | X-H torsion
[ 10763 10752 10751 10750 ] final  -30.84 input  -60.55 | X-H torsion
[ 11005 11000 10999 10996 ] final  -67.28 input  -57.11 | X-H torsion

> <Gold.Protein.ActiveResidues>
 VAL166  LYS551  ARG553  GLY616  TRP617  ASP618  TYR619  PRO620  LYS621  CYS622 
 ASP623  PHE694  ASN695  SER759  ASP760  ASP761  ALA762  ILE779  LEU786  VAL792 
 PHE793  MET794  SER795  GLU796  ALA797  LYS798  CYS799  TRP800  GLU811  SER814 

> <Gold.Protein.RotatedAtoms>
  152.2675  134.7968  160.0419 H   0  0  0  0  0  0  0  0  0  0  0  0  # atno 6907 bound_to 6896
  151.8592  133.3449  159.3706 H   0  0  0  0  0  0  0  0  0  0  0  0  # atno 6908 bound_to 6896
  150.7139  134.5150  159.5670 H   0  0  0  0  0  0  0  0  0  0  0  0  # atno 6909 bound_to 6896
  146.2395  139.9702  142.8448 H   0  0  0  0  0  0  0  0  0  0  0  0  # atno 7974 bound_to 7965
  156.2540  140.2877  156.0816 H   0  0  0  0  0  0  0  0  0  0  0  0  # atno 8008 bound_to 7997
  155.1560  140.0398  157.2849 H   0  0  0  0  0  0  0  0  0  0  0  0  # atno 8009 bound_to 7997
  154.6426  140.2526  155.7311 H   0  0  0  0  0  0  0  0  0  0  0  0  # atno 8010 bound_to 7997
  140.7242  143.5050  150.9821 H   0  0  0  0  0  0  0  0  0  0  0  0  # atno 10167 bound_to 10162
  156.9927  131.0152  151.2852 H   0  0  0  0  0  0  0  0  0  0  0  0  # atno 10718 bound_to 10713
  153.7876  135.6900  153.4877 H   0  0  0  0  0  0  0  0  0  0  0  0  # atno 10763 bound_to 10752
  153.1771  135.4520  154.9978 H   0  0  0  0  0  0  0  0  0  0  0  0  # atno 10764 bound_to 10752
  154.8057  135.3356  154.7374 H   0  0  0  0  0  0  0  0  0  0  0  0  # atno 10765 bound_to 10752
  141.1504  133.6716  156.6269 H   0  0  0  0  0  0  0  0  0  0  0  0  # atno 11005 bound_to 11000
  145.1688  140.9710  143.4334 LP  0  0  0  0  0  0  0  0  0  0  0  0  # atno 17320 bound_to 7965
  145.0048  139.3565  143.6150 LP  0  0  0  0  0  0  0  0  0  0  0  0  # atno 17321 bound_to 7965
  139.8761  143.7130  152.3162 LP  0  0  0  0  0  0  0  0  0  0  0  0  # atno 17342 bound_to 10162
  139.7396  144.7563  151.0673 LP  0  0  0  0  0  0  0  0  0  0  0  0  # atno 17343 bound_to 10162
  157.5447  130.8143  149.8072 LP  0  0  0  0  0  0  0  0  0  0  0  0  # atno 17370 bound_to 10713
  156.0201  130.3799  150.1988 LP  0  0  0  0  0  0  0  0  0  0  0  0  # atno 17371 bound_to 10713
  140.3497  134.7779  157.4458 LP  0  0  0  0  0  0  0  0  0  0  0  0  # atno 17394 bound_to 11000
  140.0871  134.5652  155.8481 LP  0  0  0  0  0  0  0  0  0  0  0  0  # atno 17395 bound_to 11000

$$$$
