AV-unprocessed.smi:2248|AV-procd|sdf|9097|dock1
  -GOLD-   2272012293D 1   1.00000     0.00000
 Structure written by MMmdl.
 35 36  0  0  0  0  0  0  0  0  1 V2000
  154.0434  140.6123  160.7952 C   0  0  0  0  0  0  0  0  0  0  0  0
  153.1495  141.7996  160.5057 C   0  0  0  0  0  0  0  0  0  0  0  0
  153.0660  142.8797  161.4062 C   0  0  0  0  0  0  0  0  0  0  0  0
  152.2204  143.9537  161.0758 C   0  0  0  0  0  0  0  0  0  0  0  0
  151.4995  143.9046  159.8673 C   0  0  0  0  0  0  0  0  0  0  0  0
  151.6397  142.7829  159.0193 C   0  0  0  0  0  0  0  0  0  0  0  0
  150.8729  142.8313  157.8249 N   0  0  0  0  0  0  0  0  0  0  0  0
  150.6560  141.8463  156.9356 C   0  0  0  0  0  0  0  0  0  0  0  0
  151.0818  140.6944  157.0279 O   0  0  0  0  0  0  0  0  0  0  0  0
  149.9046  142.2751  155.9117 N   0  0  0  0  0  0  0  0  0  0  0  0
  149.5085  141.4605  154.7687 C   0  0  1  0  0  0  0  0  0  0  0  0
  149.0920  140.0877  155.2242 C   0  0  0  0  0  0  0  0  0  0  0  0
  147.8441  139.7841  154.8736 C   0  0  0  0  0  0  0  0  0  0  0  0
  147.1664  140.8993  154.1201 C   0  0  1  0  0  0  0  0  0  0  0  0
  145.8372  141.3426  154.7605 C   0  0  0  0  0  0  0  0  0  0  0  0
  144.9471  140.2564  154.9274 O   0  0  0  0  0  0  0  0  0  0  0  0
  148.2457  142.0102  154.0523 C   0  0  0  0  0  0  0  0  0  0  0  0
  152.4582  141.7520  159.3467 N   0  0  0  0  0  0  0  0  0  0  0  0
  150.3407  141.3577  154.0702 H   0  0  0  0  0  0  0  0  0  0  0  0
  146.9642  140.5354  153.1121 H   0  0  0  0  0  0  0  0  0  0  0  0
  154.3696  140.6092  161.8358 H   0  0  0  0  0  0  0  0  0  0  0  0
  154.9283  140.6439  160.1592 H   0  0  0  0  0  0  0  0  0  0  0  0
  153.5149  139.6779  160.6034 H   0  0  0  0  0  0  0  0  0  0  0  0
  153.6336  142.8874  162.3252 H   0  0  0  0  0  0  0  0  0  0  0  0
  152.1266  144.8021  161.7375 H   0  0  0  0  0  0  0  0  0  0  0  0
  150.8463  144.7220  159.5983 H   0  0  0  0  0  0  0  0  0  0  0  0
  150.4470  143.7226  157.6187 H   0  0  0  0  0  0  0  0  0  0  0  0
  149.5989  143.2371  155.9118 H   0  0  0  0  0  0  0  0  0  0  0  0
  149.7597  139.4352  155.7673 H   0  0  0  0  0  0  0  0  0  0  0  0
  147.3463  138.8509  155.0915 H   0  0  0  0  0  0  0  0  0  0  0  0
  146.0211  141.8004  155.7329 H   0  0  0  0  0  0  0  0  0  0  0  0
  145.3530  142.0972  154.1402 H   0  0  0  0  0  0  0  0  0  0  0  0
  144.4460  140.1542  154.1328 H   0  0  0  0  0  0  0  0  0  0  0  0
  147.8927  142.9350  154.5109 H   0  0  0  0  0  0  0  0  0  0  0  0
  148.4767  142.2519  153.0144 H   0  0  0  0  0  0  0  0  0  0  0  0
  1  2  1  0  0  0  0
  1 21  1  0  0  0  0
  1 22  1  0  0  0  0
  1 23  1  0  0  0  0
  2 18  1  0  0  0  0
  2  3  2  0  0  0  0
  3  4  1  0  0  0  0
  3 24  1  0  0  0  0
  4  5  2  0  0  0  0
  4 25  1  0  0  0  0
  5  6  1  0  0  0  0
  5 26  1  0  0  0  0
  6  7  1  0  0  0  0
  6 18  2  0  0  0  0
  7  8  1  0  0  0  0
  7 27  1  0  0  0  0
  8  9  2  0  0  0  0
  8 10  1  0  0  0  0
 10 11  1  0  0  0  0
 10 28  1  0  0  0  0
 11 19  1  0  0  0  0
 11 17  1  0  0  0  0
 11 12  1  0  0  0  0
 12 13  2  0  0  0  0
 12 29  1  0  0  0  0
 13 14  1  0  0  0  0
 13 30  1  0  0  0  0
 14 20  1  0  0  0  0
 14 15  1  0  0  0  0
 14 17  1  0  0  0  0
 15 16  1  0  0  0  0
 15 31  1  0  0  0  0
 15 32  1  0  0  0  0
 16 33  1  0  0  0  0
 17 34  1  0  0  0  0
 17 35  1  0  0  0  0
M  END
> <s_m_source_file>
AV-unprocessed.smi

> <i_m_source_file_index>
2248

> <i_lp_mmshare_version>
43012

> <i_f3d_flags>
0

> <s_epik_input>
W0NIM11jMVtjSF1bY0hdW2NIXWMobjEpW05IXUMoPU8pW05IXVtDQEBIXTJbQ0hdPVtDSF1bQ0BASF0oW0NIMl0yKVtDSDJdW09IXQ==

> <s_epik_cmdline>
J2VwaWtfcHl0aG9uJywgJy1waCcsICc3LjAnLCAnLXRuJywgJzgnLCAnLW1hJywgJzIwMCcsICctbWV0YWxfYmluZGluZycsICctaW1hZScsICc8aW5maWxlLm1hZT4nLCAnLW9tYWUnLCAnPG91dGZpbGUubWFlPic=

> <r_lp_tautomer_probability>
1

> <r_epik_Ionization_Penalty>
8.36606e-05

> <r_epik_Ionization_Penalty_Charging>
0

> <r_epik_Ionization_Penalty_Neutral>
8.36606e-05

> <r_epik_State_Penalty>
-0

> <r_epik_Charging_Adjusted_Penalty>
0

> <i_epik_Tot_Q>
0

> <i_epik_Tot_abs_Q>
0

> <r_epik_Metal_State_Penalty>
-0

> <b_epik_Metal_Only>
0

> <s_lp_Force_Field>
OPLS_2005

> <r_lp_Energy>
18.8307

> <b_lp_Chiralities_Consistent>
1

> <s_lp_Variant>
AV-unprocessed.smi:2248-4

> <Gold.Version>
5.8.1

> <Gold.Id.Protein>
6NUR|6NUR_protein|mol2

> <Gold.PLP.Fitness>
40.2415

> <Gold.PLP.PLP>
-34.8582

> <Gold.PLP.part.hbond>
-2.0000

> <Gold.PLP.part.metal>
0.0000

> <Gold.PLP.part.buried>
-3.5246

> <Gold.PLP.part.nonpolar>
-28.6953

> <Gold.PLP.part.repulsive>
0.1646

> <Gold.PLP.ligand.clash>
0.0000

> <Gold.PLP.ligand.torsion>
0.3179

> <Gold.PLP.Chemscore.Hbond>
2.0000

> <Gold.PLP.Chemscore.CHOScore>
0.0000

> <Gold.PLP.Chemscore.Metal>
0.0000

> <Gold.Chemscore.Hbonds>
donor molecule, donor type, donor heavy atom, donor atom, acceptor molecule, acceptor atom, score
      L1  H    10    28       P1  8028  1.00
      L1  H    16    33       P1 10175  1.00

> <Gold.PLP.Chemscore.Internal.Correction>
0.0192

> <Gold.Rescore>
     Score         DG    S(hbond)    S(metal)    S(lipo)     H(rot)  DE(clash)    DE(int)     intcor
     14.66     -17.83       1.99        0.00      88.62       1.82       0.24       2.92       ----

> <Gold.Chemscore.Fitness>
14.6602

> <Gold.Chemscore.DG>
-17.8294

> <Gold.Chemscore.ZeroCoef>
-5.4800

> <Gold.Chemscore.Hbond>
1.9869

> <Gold.Chemscore.Metal>
0.0000

> <Gold.Chemscore.Lipo>
88.6179

> <Gold.Chemscore.Internal_Hbond>
0.0000

> <Gold.Chemscore.DEClash>
0.2449

> <Gold.Chemscore.DEInternal>
2.9242

> <Gold.Chemscore.Rot>
1.8184

> <Gold.Chemscore.Internal.Correction>
   9.000000E+99

> <Gold.Chemscore.Hbonds>
donor molecule, donor type, donor heavy atom, donor atom, acceptor molecule, acceptor atom, score
      L1  H    10    28       P1  8028  1.00
      L1  H    16    33       P1 10175  1.00

> <Gold.Chemscore.Hbond.Weighted>
-6.6361

> <Gold.Chemscore.Metal.Weighted>
-0.0000

> <Gold.Chemscore.Lipo.Weighted>
-10.3683

> <Gold.Chemscore.Internal_Hbond.Weighted>
0.0000

> <Gold.Chemscore.DEClash.Weighted>
0.2449

> <Gold.Chemscore.DEInternal.Weighted>
2.9242

> <Gold.Chemscore.Rot.Weighted>
4.6551

> <Gold.Chemscore.Internal.Correction.Weighted>
   9.000000E+99

> <Gold.Protein.RotatedTorsions>
[ 6907 6896 6895 6894 ] final    8.64 input  -60.11 | X-H torsion
[ 7974 7965 7964 7962 ] final  102.31 input  175.53 | X-H torsion
[ 8008 7997 7996 7995 ] final   92.17 input   59.86 | X-H torsion
[ 10167 10162 10161 10158 ] final   75.67 input  -65.29 | X-H torsion
[ 10718 10713 10712 10709 ] final  -41.61 input   66.30 | X-H torsion
[ 10763 10752 10751 10750 ] final -169.79 input  -60.55 | X-H torsion
[ 11005 11000 10999 10996 ] final   38.98 input  -57.11 | X-H torsion

> <Gold.Protein.ActiveResidues>
 VAL166  LYS551  ARG553  GLY616  TRP617  ASP618  TYR619  PRO620  LYS621  CYS622 
 ASP623  PHE694  ASN695  SER759  ASP760  ASP761  ALA762  ILE779  LEU786  VAL792 
 PHE793  MET794  SER795  GLU796  ALA797  LYS798  CYS799  TRP800  GLU811  SER814 

> <Gold.Protein.RotatedAtoms>
  151.7094  135.0915  160.0264 H   0  0  0  0  0  0  0  0  0  0  0  0  # atno 6907 bound_to 6896
  152.3671  133.6367  159.6067 H   0  0  0  0  0  0  0  0  0  0  0  0  # atno 6908 bound_to 6896
  150.7646  133.9246  159.3450 H   0  0  0  0  0  0  0  0  0  0  0  0  # atno 6909 bound_to 6896
  145.3608  139.2418  143.3508 H   0  0  0  0  0  0  0  0  0  0  0  0  # atno 7974 bound_to 7965
  156.0323  140.3329  155.7153 H   0  0  0  0  0  0  0  0  0  0  0  0  # atno 8008 bound_to 7997
  155.5867  140.0642  157.2787 H   0  0  0  0  0  0  0  0  0  0  0  0  # atno 8009 bound_to 7997
  154.4358  140.1834  156.1020 H   0  0  0  0  0  0  0  0  0  0  0  0  # atno 8010 bound_to 7997
  140.0005  144.5690  150.7741 H   0  0  0  0  0  0  0  0  0  0  0  0  # atno 10167 bound_to 10162
  156.2685  130.4204  149.8464 H   0  0  0  0  0  0  0  0  0  0  0  0  # atno 10718 bound_to 10713
  154.6485  135.2908  155.0016 H   0  0  0  0  0  0  0  0  0  0  0  0  # atno 10763 bound_to 10752
  154.1117  135.6561  153.4890 H   0  0  0  0  0  0  0  0  0  0  0  0  # atno 10764 bound_to 10752
  153.0364  135.5266  154.7383 H   0  0  0  0  0  0  0  0  0  0  0  0  # atno 10765 bound_to 10752
  140.2072  134.3798  155.8066 H   0  0  0  0  0  0  0  0  0  0  0  0  # atno 11005 bound_to 11000
  146.2928  140.4241  142.8733 LP  0  0  0  0  0  0  0  0  0  0  0  0  # atno 17320 bound_to 7965
  144.8648  140.7190  143.6084 LP  0  0  0  0  0  0  0  0  0  0  0  0  # atno 17321 bound_to 7965
  140.7420  143.2827  151.3553 LP  0  0  0  0  0  0  0  0  0  0  0  0  # atno 17342 bound_to 10162
  139.6275  144.0785  152.2447 LP  0  0  0  0  0  0  0  0  0  0  0  0  # atno 17343 bound_to 10162
  156.5953  130.8524  151.3418 LP  0  0  0  0  0  0  0  0  0  0  0  0  # atno 17370 bound_to 10713
  157.7276  130.9645  150.1704 LP  0  0  0  0  0  0  0  0  0  0  0  0  # atno 17371 bound_to 10713
  141.2227  133.7124  156.8358 LP  0  0  0  0  0  0  0  0  0  0  0  0  # atno 17394 bound_to 11000
  140.1990  134.8911  157.3147 LP  0  0  0  0  0  0  0  0  0  0  0  0  # atno 17395 bound_to 11000

$$$$
