AV-unprocessed.smi:1406|AV-procd|sdf|5724|dock8
  -GOLD-   22720 5353D 1   1.00000     0.00000
 Structure written by MMmdl.
 41 43  0  0  0  0  0  0  0  0  2 V2000
  154.5139  137.4901  157.2672 C   0  0  0  0  0  0  0  0  0  0  0  0
  152.9918  137.4948  157.5152 C   0  0  1  0  0  0  0  0  0  0  0  0
  152.5875  138.4247  158.6693 C   0  0  0  0  0  0  0  0  0  0  0  0
  152.0745  137.9696  159.6922 O   0  0  0  0  0  0  0  0  0  0  0  0
  152.8240  139.7337  158.4883 N   0  0  0  0  0  0  0  0  0  0  0  0
  152.5162  140.7873  159.4506 C   0  0  1  0  0  0  0  0  0  0  0  0
  153.3703  140.7132  160.7104 C   0  0  0  0  0  0  0  0  0  0  0  0
  153.2285  142.1258  161.2792 C   0  0  0  0  0  0  0  0  0  0  0  0
  153.1206  143.0262  160.1086 N   0  3  2  0  0  0  0  0  0  0  0  0
  152.2355  144.1993  160.3112 C   0  0  0  0  0  0  0  0  0  0  0  0
  152.2022  145.0794  159.0483 C   0  0  0  0  0  0  0  0  0  0  0  0
  151.9077  144.2796  157.7618 C   0  0  0  0  0  0  0  0  0  0  0  0
  151.6866  142.7841  158.0374 C   0  0  0  0  0  0  0  0  0  0  0  0
  152.8199  142.1949  158.9081 C   0  0  2  0  0  0  0  0  0  0  0  0
  152.2347  137.8250  156.3140 N   0  0  0  0  0  0  0  0  0  0  0  0
  152.1191  138.9863  155.6663 C   0  0  0  0  0  0  0  0  0  0  0  0
  151.3816  138.9197  154.5670 N   0  0  0  0  0  0  0  0  0  0  0  0
  151.0570  137.5931  154.5905 C   0  0  0  0  0  0  0  0  0  0  0  0
  151.5518  136.8890  155.6084 N   0  0  0  0  0  0  0  0  0  0  0  0
  155.0567  137.1979  158.1667 H   0  0  0  0  0  0  0  0  0  0  0  0
  154.8848  138.4697  156.9626 H   0  0  0  0  0  0  0  0  0  0  0  0
  154.7767  136.7797  156.4831 H   0  0  0  0  0  0  0  0  0  0  0  0
  152.7117  136.4787  157.7986 H   0  0  0  0  0  0  0  0  0  0  0  0
  153.2514  140.0198  157.6193 H   0  0  0  0  0  0  0  0  0  0  0  0
  151.4693  140.7266  159.7563 H   0  0  0  0  0  0  0  0  0  0  0  0
  153.0379  139.9418  161.4058 H   0  0  0  0  0  0  0  0  0  0  0  0
  154.4132  140.5159  160.4559 H   0  0  0  0  0  0  0  0  0  0  0  0
  152.3173  142.1822  161.8772 H   0  0  0  0  0  0  0  0  0  0  0  0
  154.0647  142.4044  161.9208 H   0  0  0  0  0  0  0  0  0  0  0  0
  151.2280  143.8622  160.5609 H   0  0  0  0  0  0  0  0  0  0  0  0
  152.5911  144.7809  161.1624 H   0  0  0  0  0  0  0  0  0  0  0  0
  151.4592  145.8675  159.1741 H   0  0  0  0  0  0  0  0  0  0  0  0
  153.1613  145.5876  158.9392 H   0  0  0  0  0  0  0  0  0  0  0  0
  151.0360  144.6935  157.2536 H   0  0  0  0  0  0  0  0  0  0  0  0
  152.7429  144.3955  157.0699 H   0  0  0  0  0  0  0  0  0  0  0  0
  150.7246  142.6489  158.5339 H   0  0  0  0  0  0  0  0  0  0  0  0
  151.6154  142.2426  157.0939 H   0  0  0  0  0  0  0  0  0  0  0  0
  153.7408  142.1678  158.3230 H   0  0  0  0  0  0  0  0  0  0  0  0
  152.5879  139.8991  156.0033 H   0  0  0  0  0  0  0  0  0  0  0  0
  150.4445  137.1303  153.8308 H   0  0  0  0  0  0  0  0  0  0  0  0
  154.0461  143.3983  159.9493 H   0  0  0  0  0  0  0  0  0  0  0  0
  1  2  1  0  0  0  0
  1 20  1  0  0  0  0
  1 21  1  0  0  0  0
  1 22  1  0  0  0  0
  2  3  1  0  0  0  0
  2 15  1  0  0  0  0
  2 23  1  0  0  0  0
  3  4  2  0  0  0  0
  3  5  1  0  0  0  0
  5  6  1  0  0  0  0
  5 24  1  0  0  0  0
  6 14  1  0  0  0  0
  6  7  1  0  0  0  0
  6 25  1  0  0  0  0
  7  8  1  0  0  0  0
  7 26  1  0  0  0  0
  7 27  1  0  0  0  0
  8  9  1  0  0  0  0
  8 28  1  0  0  0  0
  8 29  1  0  0  0  0
  9 14  1  0  0  0  0
  9 10  1  0  0  0  0
  9 41  1  0  0  0  0
 10 11  1  0  0  0  0
 10 30  1  0  0  0  0
 10 31  1  0  0  0  0
 11 12  1  0  0  0  0
 11 32  1  0  0  0  0
 11 33  1  0  0  0  0
 12 13  1  0  0  0  0
 12 34  1  0  0  0  0
 12 35  1  0  0  0  0
 13 14  1  0  0  0  0
 13 36  1  0  0  0  0
 13 37  1  0  0  0  0
 14 38  1  0  0  0  0
 15 19  1  0  0  0  0
 15 16  1  0  0  0  0
 16 17  2  0  0  0  0
 16 39  1  0  0  0  0
 17 18  1  0  0  0  0
 18 19  2  0  0  0  0
 18 40  1  0  0  0  0
M  CHG  1   9   1
M  END
> <s_m_source_file>
AV-unprocessed.smi

> <i_m_source_file_index>
1406

> <i_lp_mmshare_version>
43012

> <i_f3d_flags>
0

> <s_epik_input>
bjFbY0hdbltjSF1uMVtDQEhdKFtDSDNdKUMoPU8pW05IXVtDQEhdKFtDSDJdW0NIMl0yKVtDQEBIXShOMjMpW0NIMl1bQ0gyXVtDSDJdW0NIMl0z

> <s_epik_cmdline>
J2VwaWtfcHl0aG9uJywgJy1waCcsICc3LjAnLCAnLXRuJywgJzgnLCAnLW1hJywgJzIwMCcsICctbWV0YWxfYmluZGluZycsICctaW1hZScsICc8aW5maWxlLm1hZT4nLCAnLW9tYWUnLCAnPG91dGZpbGUubWFlPic=

> <r_lp_tautomer_probability>
1

> <r_epik_Ionization_Penalty>
0.00197066

> <r_epik_Ionization_Penalty_Charging>
0.00196223

> <r_epik_Ionization_Penalty_Neutral>
8.43107e-06

> <r_epik_State_Penalty>
0.00133866

> <r_epik_Charging_Adjusted_Penalty>
0.00330089

> <i_epik_Tot_Q>
1

> <i_epik_Tot_abs_Q>
1

> <r_epik_Metal_State_Penalty>
-0

> <b_epik_Metal_Only>
0

> <s_lp_Force_Field>
OPLS_2005

> <r_lp_Energy>
45.3415

> <b_lp_Chiralities_Consistent>
1

> <s_lp_Variant>
AV-unprocessed.smi:1406-16

> <Gold.Version>
5.8.1

> <Gold.Id.Protein>
6NUR|6NUR_protein|mol2

> <Gold.PLP.Fitness>
47.4613

> <Gold.PLP.PLP>
-38.3584

> <Gold.PLP.part.hbond>
-2.0000

> <Gold.PLP.part.metal>
0.0000

> <Gold.PLP.part.buried>
-4.2418

> <Gold.PLP.part.nonpolar>
-32.6845

> <Gold.PLP.part.repulsive>
0.3289

> <Gold.PLP.ligand.clash>
0.0000

> <Gold.PLP.ligand.torsion>
0.2443

> <Gold.PLP.Chemscore.Hbond>
2.0000

> <Gold.PLP.Chemscore.CHOScore>
1.1629

> <Gold.PLP.Chemscore.Metal>
0.0000

> <Gold.Chemscore.Hbonds>
donor molecule, donor type, donor heavy atom, donor atom, acceptor molecule, acceptor atom, score
      P1  H  7989  7998       L1    17  0.50
      P1  H 10752 10764       L1    19  0.73
      L1  C    18    40       P1  7948  0.68
      L1  C    18    40       P1  7949  0.29

> <Gold.PLP.Chemscore.Internal.Correction>
0.1026

> <Gold.Rescore>
     Score         DG    S(hbond)    S(metal)    S(lipo)     H(rot)  DE(clash)    DE(int)     intcor
     14.65     -15.31       1.12        0.00      93.33       1.89       0.56       0.10       ----

> <Gold.Chemscore.Fitness>
14.6478

> <Gold.Chemscore.DG>
-15.3054

> <Gold.Chemscore.ZeroCoef>
-5.4800

> <Gold.Chemscore.Hbond>
1.1183

> <Gold.Chemscore.Metal>
0.0000

> <Gold.Chemscore.Lipo>
93.3327

> <Gold.Chemscore.Internal_Hbond>
0.0000

> <Gold.Chemscore.DEClash>
0.5616

> <Gold.Chemscore.DEInternal>
0.0961

> <Gold.Chemscore.Rot>
1.8865

> <Gold.Chemscore.Internal.Correction>
   9.000000E+99

> <Gold.Chemscore.Hbonds>
donor molecule, donor type, donor heavy atom, donor atom, acceptor molecule, acceptor atom, score
      P1  H  7989  7998       L1    17  0.31
      P1  H 10752 10764       L1    19  0.20

> <Gold.Chemscore.Hbond.Weighted>
-3.7350

> <Gold.Chemscore.Metal.Weighted>
-0.0000

> <Gold.Chemscore.Lipo.Weighted>
-10.9199

> <Gold.Chemscore.Internal_Hbond.Weighted>
0.0000

> <Gold.Chemscore.DEClash.Weighted>
0.5616

> <Gold.Chemscore.DEInternal.Weighted>
0.0961

> <Gold.Chemscore.Rot.Weighted>
4.8295

> <Gold.Chemscore.Internal.Correction.Weighted>
   9.000000E+99

> <Gold.Protein.RotatedTorsions>
[ 6907 6896 6895 6894 ] final  -33.30 input  -60.11 | X-H torsion
[ 7974 7965 7964 7962 ] final    5.43 input  175.53 | X-H torsion
[ 8008 7997 7996 7995 ] final  177.99 input   59.86 | X-H torsion
[ 10167 10162 10161 10158 ] final  -51.14 input  -65.29 | X-H torsion
[ 10718 10713 10712 10709 ] final  -82.53 input   66.30 | X-H torsion
[ 10763 10752 10751 10750 ] final  -56.08 input  -60.55 | X-H torsion
[ 11005 11000 10999 10996 ] final  165.58 input  -57.11 | X-H torsion

> <Gold.Protein.ActiveResidues>
 VAL166  LYS551  ARG553  GLY616  TRP617  ASP618  TYR619  PRO620  LYS621  CYS622 
 ASP623  PHE694  ASN695  SER759  ASP760  ASP761  ALA762  ILE779  LEU786  VAL792 
 PHE793  MET794  SER795  GLU796  ALA797  LYS798  CYS799  TRP800  GLU811  SER814 

> <Gold.Protein.RotatedAtoms>
  151.0674  134.9776  159.8290 H   0  0  0  0  0  0  0  0  0  0  0  0  # atno 6907 bound_to 6896
  152.5404  134.2342  159.8847 H   0  0  0  0  0  0  0  0  0  0  0  0  # atno 6908 bound_to 6896
  151.2365  133.4379  159.2639 H   0  0  0  0  0  0  0  0  0  0  0  0  # atno 6909 bound_to 6896
  146.2440  140.0385  142.8384 H   0  0  0  0  0  0  0  0  0  0  0  0  # atno 7974 bound_to 7965
  156.0595  140.1344  156.9957 H   0  0  0  0  0  0  0  0  0  0  0  0  # atno 8008 bound_to 7997
  154.4475  140.0994  156.6567 H   0  0  0  0  0  0  0  0  0  0  0  0  # atno 8009 bound_to 7997
  155.5399  140.3460  155.4446 H   0  0  0  0  0  0  0  0  0  0  0  0  # atno 8010 bound_to 7997
  140.6603  143.2631  151.4460 H   0  0  0  0  0  0  0  0  0  0  0  0  # atno 10167 bound_to 10162
  156.0032  130.4637  150.4119 H   0  0  0  0  0  0  0  0  0  0  0  0  # atno 10718 bound_to 10713
  154.2009  135.6411  153.5087 H   0  0  0  0  0  0  0  0  0  0  0  0  # atno 10763 bound_to 10752
  153.0012  135.5451  154.6316 H   0  0  0  0  0  0  0  0  0  0  0  0  # atno 10764 bound_to 10752
  154.5729  135.2918  155.0783 H   0  0  0  0  0  0  0  0  0  0  0  0  # atno 10765 bound_to 10752
  140.2576  134.7928  157.3560 H   0  0  0  0  0  0  0  0  0  0  0  0  # atno 11005 bound_to 11000
  145.1091  140.9393  143.4667 LP  0  0  0  0  0  0  0  0  0  0  0  0  # atno 17320 bound_to 7965
  145.0595  139.3117  143.5888 LP  0  0  0  0  0  0  0  0  0  0  0  0  # atno 17321 bound_to 7965
  139.5835  144.1655  152.1999 LP  0  0  0  0  0  0  0  0  0  0  0  0  # atno 17342 bound_to 10162
  140.0988  144.5557  150.7003 LP  0  0  0  0  0  0  0  0  0  0  0  0  # atno 17343 bound_to 10162
  157.2181  131.0476  151.2562 LP  0  0  0  0  0  0  0  0  0  0  0  0  # atno 17370 bound_to 10713
  157.3826  130.7239  149.6641 LP  0  0  0  0  0  0  0  0  0  0  0  0  # atno 17371 bound_to 10713
  140.1496  134.4866  155.7971 LP  0  0  0  0  0  0  0  0  0  0  0  0  # atno 17394 bound_to 11000
  141.2194  133.6857  156.7355 LP  0  0  0  0  0  0  0  0  0  0  0  0  # atno 17395 bound_to 11000

$$$$
