AV-unprocessed.smi:3|AV-procd|sdf|30|dock8
  -GOLD-   2262015143D 1   1.00000     0.00000
 Structure written by MMmdl.
 34 36  0  0  0  0  0  0  0  0  2 V2000
  150.4033  141.6832  157.1381 C   0  0  0  0  0  0  0  0  0  0  0  0
  151.5172  140.7733  156.9107 N   0  0  0  0  0  0  0  0  0  0  0  0
  152.5210  140.6495  157.9703 C   0  0  0  0  0  0  0  0  0  0  0  0
  152.1076  141.3734  159.2515 C   0  0  1  0  0  0  0  0  0  0  0  0
  153.0552  141.4149  160.4604 C   0  0  0  0  0  0  0  0  0  0  0  0
  152.6248  142.8612  160.7219 C   0  0  2  0  0  0  0  0  0  0  0  0
  151.6748  143.0738  161.7436 O   0  0  0  0  0  0  0  0  0  0  0  0
  152.1150  142.9083  159.2781 C   0  0  0  0  0  0  0  0  0  0  0  0
  151.4623  139.8411  155.8444 C   0  0  0  0  0  0  0  0  0  0  0  0
  152.6085  139.1715  155.5369 N   0  0  0  0  0  0  0  0  0  0  0  0
  152.6882  138.2653  154.5542 C   0  0  0  0  0  0  0  0  0  0  0  0
  151.6452  137.9437  153.7864 N   0  3  0  0  0  0  0  0  0  0  0  0
  150.4791  138.5857  154.0440 C   0  0  0  0  0  0  0  0  0  0  0  0
  149.2689  138.4393  153.3999 N   0  0  0  0  0  0  0  0  0  0  0  0
  148.3290  139.2806  153.9649 C   0  0  0  0  0  0  0  0  0  0  0  0
  148.9171  139.9850  154.9847 C   0  0  0  0  0  0  0  0  0  0  0  0
  150.2965  139.5600  155.0632 C   0  0  0  0  0  0  0  0  0  0  0  0
  151.1239  141.0417  159.5899 H   0  0  0  0  0  0  0  0  0  0  0  0
  153.4746  143.5264  160.8791 H   0  0  0  0  0  0  0  0  0  0  0  0
  149.0658  137.8206  152.6274 H   0  0  0  0  0  0  0  0  0  0  0  0
  150.3239  142.4016  156.3223 H   0  0  0  0  0  0  0  0  0  0  0  0
  150.5436  142.2499  158.0593 H   0  0  0  0  0  0  0  0  0  0  0  0
  149.4659  141.1340  157.2309 H   0  0  0  0  0  0  0  0  0  0  0  0
  152.7652  139.6070  158.1743 H   0  0  0  0  0  0  0  0  0  0  0  0
  153.4501  141.0804  157.5958 H   0  0  0  0  0  0  0  0  0  0  0  0
  152.8008  140.7073  161.2502 H   0  0  0  0  0  0  0  0  0  0  0  0
  154.1083  141.3434  160.1853 H   0  0  0  0  0  0  0  0  0  0  0  0
  151.9212  143.8696  162.1900 H   0  0  0  0  0  0  0  0  0  0  0  0
  152.8435  143.3437  158.5921 H   0  0  0  0  0  0  0  0  0  0  0  0
  151.1311  143.3621  159.1534 H   0  0  0  0  0  0  0  0  0  0  0  0
  153.6204  137.7585  154.3510 H   0  0  0  0  0  0  0  0  0  0  0  0
  147.3141  139.3111  153.5945 H   0  0  0  0  0  0  0  0  0  0  0  0
  148.4273  140.7182  155.6065 H   0  0  0  0  0  0  0  0  0  0  0  0
  151.7147  137.2528  153.0394 H   0  0  0  0  0  0  0  0  0  0  0  0
  1  2  1  0  0  0  0
  1 21  1  0  0  0  0
  1 22  1  0  0  0  0
  1 23  1  0  0  0  0
  2  3  1  0  0  0  0
  2  9  1  0  0  0  0
  3  4  1  0  0  0  0
  3 24  1  0  0  0  0
  3 25  1  0  0  0  0
  4 18  1  0  0  0  0
  4  8  1  0  0  0  0
  4  5  1  0  0  0  0
  5  6  1  0  0  0  0
  5 26  1  0  0  0  0
  5 27  1  0  0  0  0
  6 19  1  0  0  0  0
  6  7  1  0  0  0  0
  6  8  1  0  0  0  0
  7 28  1  0  0  0  0
  8 29  1  0  0  0  0
  8 30  1  0  0  0  0
  9 17  1  0  0  0  0
  9 10  2  0  0  0  0
 10 11  1  0  0  0  0
 11 12  2  0  0  0  0
 11 31  1  0  0  0  0
 12 13  1  0  0  0  0
 12 34  1  0  0  0  0
 13 17  2  0  0  0  0
 13 14  1  0  0  0  0
 14 20  1  0  0  0  0
 14 15  1  0  0  0  0
 15 16  2  0  0  0  0
 15 32  1  0  0  0  0
 16 17  1  0  0  0  0
 16 33  1  0  0  0  0
M  CHG  1  12   1
M  END
> <s_m_source_file>
AV-unprocessed.smi

> <i_m_source_file_index>
3

> <i_lp_mmshare_version>
43012

> <i_f3d_flags>
0

> <s_epik_input>
W25IXTFbY0hdW2NIXWMoYzEyKWMobltjSF1uMilOKFtDSDNdKVtDSDJdW0NASF0zW0NIMl1bQ0BASF0oW09IXSlbQ0gyXTM=

> <s_epik_cmdline>
J2VwaWtfcHl0aG9uJywgJy1waCcsICc3LjAnLCAnLXRuJywgJzgnLCAnLW1hJywgJzIwMCcsICctbWV0YWxfYmluZGluZycsICctaW1hZScsICc8aW5maWxlLm1hZT4nLCAnLW9tYWUnLCAnPG91dGZpbGUubWFlPic=

> <r_lp_tautomer_probability>
1.75997e-05

> <r_epik_Ionization_Penalty>
2.28439

> <r_epik_Ionization_Penalty_Charging>
2.28438

> <r_epik_Ionization_Penalty_Neutral>
1.03791e-05

> <r_epik_State_Penalty>
2.43392

> <r_epik_Charging_Adjusted_Penalty>
4.7183

> <i_epik_Tot_Q>
1

> <i_epik_Tot_abs_Q>
1

> <r_epik_Metal_State_Penalty>
2.4464

> <b_epik_Metal_Only>
0

> <s_lp_Force_Field>
OPLS_2005

> <r_lp_Energy>
18.3307

> <b_lp_Chiralities_Consistent>
1

> <s_lp_Variant>
AV-unprocessed.smi:3-4

> <Gold.Version>
5.8.1

> <Gold.Id.Protein>
6NUR|6NUR_protein|mol2

> <Gold.PLP.Fitness>
51.3310

> <Gold.PLP.PLP>
-36.8585

> <Gold.PLP.part.hbond>
-5.6316

> <Gold.PLP.part.metal>
0.0000

> <Gold.PLP.part.buried>
-2.6526

> <Gold.PLP.part.nonpolar>
-29.4628

> <Gold.PLP.part.repulsive>
0.2197

> <Gold.PLP.ligand.clash>
0.6312

> <Gold.PLP.ligand.torsion>
0.3768

> <Gold.PLP.Chemscore.Hbond>
5.2222

> <Gold.PLP.Chemscore.CHOScore>
0.0000

> <Gold.PLP.Chemscore.Metal>
0.0000

> <Gold.Chemscore.Hbonds>
donor molecule, donor type, donor heavy atom, donor atom, acceptor molecule, acceptor atom, score
      L1  H    12    34       P1  7949  1.82
      L1  H    14    20       P1  7948  2.00
      P1  H  6933  6945       L1     7  0.47
      P1  H  7997  8010       L1    10  0.84

> <Gold.PLP.Chemscore.Internal.Correction>
0.1908

> <Gold.Rescore>
     Score         DG    S(hbond)    S(metal)    S(lipo)     H(rot)  DE(clash)    DE(int)     intcor
     16.16     -18.43       2.95        0.00      67.12       1.86       0.72       1.54       ----

> <Gold.Chemscore.Fitness>
16.1647

> <Gold.Chemscore.DG>
-18.4262

> <Gold.Chemscore.ZeroCoef>
-5.4800

> <Gold.Chemscore.Hbond>
2.9540

> <Gold.Chemscore.Metal>
0.0000

> <Gold.Chemscore.Lipo>
67.1185

> <Gold.Chemscore.Internal_Hbond>
0.0000

> <Gold.Chemscore.DEClash>
0.7171

> <Gold.Chemscore.DEInternal>
1.5443

> <Gold.Chemscore.Rot>
1.8645

> <Gold.Chemscore.Internal.Correction>
   9.000000E+99

> <Gold.Chemscore.Hbonds>
donor molecule, donor type, donor heavy atom, donor atom, acceptor molecule, acceptor atom, score
      L1  H    12    34       P1  7949  0.85
      L1  H    14    20       P1  7948  0.96
      P1  H  6933  6945       L1     7  0.47
      P1  H  7997  8010       L1    10  0.71

> <Gold.Chemscore.Hbond.Weighted>
-9.8663

> <Gold.Chemscore.Metal.Weighted>
-0.0000

> <Gold.Chemscore.Lipo.Weighted>
-7.8529

> <Gold.Chemscore.Internal_Hbond.Weighted>
0.0000

> <Gold.Chemscore.DEClash.Weighted>
0.7171

> <Gold.Chemscore.DEInternal.Weighted>
1.5443

> <Gold.Chemscore.Rot.Weighted>
4.7730

> <Gold.Chemscore.Internal.Correction.Weighted>
   9.000000E+99

> <Gold.Protein.RotatedTorsions>
[ 6907 6896 6895 6894 ] final   59.60 input  -60.11 | X-H torsion
[ 7974 7965 7964 7962 ] final    6.91 input  175.53 | X-H torsion
[ 8008 7997 7996 7995 ] final   90.61 input   59.86 | X-H torsion
[ 10167 10162 10161 10158 ] final    4.06 input  -65.29 | X-H torsion
[ 10718 10713 10712 10709 ] final  -22.73 input   66.30 | X-H torsion
[ 10763 10752 10751 10750 ] final -140.16 input  -60.55 | X-H torsion
[ 11005 11000 10999 10996 ] final -144.51 input  -57.11 | X-H torsion

> <Gold.Protein.ActiveResidues>
 VAL166  LYS551  ARG553  GLY616  TRP617  ASP618  TYR619  PRO620  LYS621  CYS622 
 ASP623  PHE694  ASN695  SER759  ASP760  ASP761  ALA762  ILE779  LEU786  VAL792 
 PHE793  MET794  SER795  GLU796  ALA797  LYS798  CYS799  TRP800  GLU811  SER814 

> <Gold.Protein.RotatedAtoms>
  152.3929  134.6412  160.0100 H   0  0  0  0  0  0  0  0  0  0  0  0  # atno 6907 bound_to 6896
  151.6641  133.3310  159.3189 H   0  0  0  0  0  0  0  0  0  0  0  0  # atno 6908 bound_to 6896
  150.7842  134.6856  159.6513 H   0  0  0  0  0  0  0  0  0  0  0  0  # atno 6909 bound_to 6896
  146.2431  140.0162  142.8402 H   0  0  0  0  0  0  0  0  0  0  0  0  # atno 7974 bound_to 7965
  156.0139  140.3347  155.6969 H   0  0  0  0  0  0  0  0  0  0  0  0  # atno 8008 bound_to 7997
  155.6118  140.0666  157.2721 H   0  0  0  0  0  0  0  0  0  0  0  0  # atno 8009 bound_to 7997
  154.4291  140.1792  156.1268 H   0  0  0  0  0  0  0  0  0  0  0  0  # atno 8010 bound_to 7997
  140.6554  143.7441  150.7644 H   0  0  0  0  0  0  0  0  0  0  0  0  # atno 10167 bound_to 10162
  156.5006  130.4587  149.6703 H   0  0  0  0  0  0  0  0  0  0  0  0  # atno 10718 bound_to 10713
  154.8587  135.3561  154.5663 H   0  0  0  0  0  0  0  0  0  0  0  0  # atno 10763 bound_to 10752
  153.6277  135.7003  153.5291 H   0  0  0  0  0  0  0  0  0  0  0  0  # atno 10764 bound_to 10752
  153.3075  135.4188  155.1267 H   0  0  0  0  0  0  0  0  0  0  0  0  # atno 10765 bound_to 10752
  140.8017  134.2849  157.4976 H   0  0  0  0  0  0  0  0  0  0  0  0  # atno 11005 bound_to 11000
  145.1282  140.9503  143.4560 LP  0  0  0  0  0  0  0  0  0  0  0  0  # atno 17320 bound_to 7965
  145.0413  139.3257  143.5975 LP  0  0  0  0  0  0  0  0  0  0  0  0  # atno 17321 bound_to 7965
  140.1099  143.4709  152.2376 LP  0  0  0  0  0  0  0  0  0  0  0  0  # atno 17342 bound_to 10162
  139.5776  144.7495  151.3725 LP  0  0  0  0  0  0  0  0  0  0  0  0  # atno 17343 bound_to 10162
  156.3337  130.7345  151.2279 LP  0  0  0  0  0  0  0  0  0  0  0  0  # atno 17370 bound_to 10713
  157.7463  131.0423  150.4687 LP  0  0  0  0  0  0  0  0  0  0  0  0  # atno 17371 bound_to 10713
  139.8721  134.9433  156.3850 LP  0  0  0  0  0  0  0  0  0  0  0  0  # atno 17394 bound_to 11000
  140.9287  133.7594  155.9998 LP  0  0  0  0  0  0  0  0  0  0  0  0  # atno 17395 bound_to 11000

$$$$
