AV-unprocessed.smi:1239|AV-procd|sdf|5186|dock5
  -GOLD-   22720 4273D 1   1.00000     0.00000
 Structure written by MMmdl.
 48 49  0  0  0  0  0  0  0  0  2 V2000
  139.7811  140.9497  154.4307 C   0  0  0  0  0  0  0  0  0  0  0  0
  140.1486  139.5383  153.9053 C   0  0  1  0  0  0  0  0  0  0  0  0
  141.6088  139.2070  154.3228 C   0  0  0  0  0  0  0  0  0  0  0  0
  142.3676  138.5476  153.2617 N   0  0  0  0  0  0  0  0  0  0  0  0
  142.6705  137.2423  153.2145 C   0  0  0  0  0  0  0  0  0  0  0  0
  142.3490  136.4350  154.0859 O   0  0  0  0  0  0  0  0  0  0  0  0
  143.3798  136.9488  152.1107 N   0  0  0  0  0  0  0  0  0  0  0  0
  143.8490  135.6809  151.6706 C   0  0  0  0  0  0  0  0  0  0  0  0
  143.6330  134.5696  152.5119 C   0  0  0  0  0  0  0  0  0  0  0  0
  144.0964  133.2950  152.1257 C   0  0  0  0  0  0  0  0  0  0  0  0
  144.7856  133.1378  150.8981 C   0  0  0  0  0  0  0  0  0  0  0  0
  145.2822  131.8971  150.4431 N   0  0  0  0  0  0  0  0  0  0  0  0
  145.7936  131.7756  149.0824 C   0  0  0  0  0  0  0  0  0  0  0  0
  145.2789  130.7437  151.3334 C   0  0  0  0  0  0  0  0  0  0  0  0
  144.9787  134.2371  150.1292 N   0  3  0  0  0  0  0  0  0  0  0  0
  144.5508  135.4746  150.4592 C   0  0  0  0  0  0  0  0  0  0  0  0
  139.1740  138.5019  154.3209 N   0  0  0  0  0  0  0  0  0  0  0  0
  139.3943  138.0397  155.6964 C   0  0  0  0  0  0  0  0  0  0  0  0
  138.3716  136.9807  156.1434 C   0  0  0  0  0  0  0  0  0  0  0  0
  137.0563  137.5005  156.0105 O   0  0  0  0  0  0  0  0  0  0  0  0
  136.7704  137.8881  154.6741 C   0  0  0  0  0  0  0  0  0  0  0  0
  137.7813  138.9527  154.2134 C   0  0  0  0  0  0  0  0  0  0  0  0
  140.5135  141.7037  154.1455 H   0  0  0  0  0  0  0  0  0  0  0  0
  139.7097  140.9579  155.5188 H   0  0  0  0  0  0  0  0  0  0  0  0
  138.8364  141.3110  154.0278 H   0  0  0  0  0  0  0  0  0  0  0  0
  140.1349  139.5926  152.8154 H   0  0  0  0  0  0  0  0  0  0  0  0
  142.1075  140.1122  154.6735 H   0  0  0  0  0  0  0  0  0  0  0  0
  141.6321  138.5030  155.1524 H   0  0  0  0  0  0  0  0  0  0  0  0
  142.6815  139.1350  152.5032 H   0  0  0  0  0  0  0  0  0  0  0  0
  143.6393  137.7331  151.5302 H   0  0  0  0  0  0  0  0  0  0  0  0
  143.1109  134.6881  153.4503 H   0  0  0  0  0  0  0  0  0  0  0  0
  143.9160  132.4569  152.7821 H   0  0  0  0  0  0  0  0  0  0  0  0
  146.6360  132.4507  148.9278 H   0  0  0  0  0  0  0  0  0  0  0  0
  145.0159  132.0185  148.3576 H   0  0  0  0  0  0  0  0  0  0  0  0
  146.1373  130.7619  148.8758 H   0  0  0  0  0  0  0  0  0  0  0  0
  144.2627  130.5072  151.6506 H   0  0  0  0  0  0  0  0  0  0  0  0
  145.8845  130.9409  152.2184 H   0  0  0  0  0  0  0  0  0  0  0  0
  145.6875  129.8613  150.8408 H   0  0  0  0  0  0  0  0  0  0  0  0
  144.8019  136.2439  149.7446 H   0  0  0  0  0  0  0  0  0  0  0  0
  140.3803  137.5902  155.7987 H   0  0  0  0  0  0  0  0  0  0  0  0
  139.3590  138.8880  156.3815 H   0  0  0  0  0  0  0  0  0  0  0  0
  138.4739  136.0696  155.5514 H   0  0  0  0  0  0  0  0  0  0  0  0
  138.5415  136.7059  157.1843 H   0  0  0  0  0  0  0  0  0  0  0  0
  136.8019  137.0161  154.0188 H   0  0  0  0  0  0  0  0  0  0  0  0
  135.7561  138.2848  154.6290 H   0  0  0  0  0  0  0  0  0  0  0  0
  137.6408  139.8632  154.7978 H   0  0  0  0  0  0  0  0  0  0  0  0
  137.5328  139.1950  153.1821 H   0  0  0  0  0  0  0  0  0  0  0  0
  145.4807  134.1251  149.2482 H   0  0  0  0  0  0  0  0  0  0  0  0
  1  2  1  0  0  0  0
  1 23  1  0  0  0  0
  1 24  1  0  0  0  0
  1 25  1  0  0  0  0
  2  3  1  0  0  0  0
  2 17  1  0  0  0  0
  2 26  1  0  0  0  0
  3  4  1  0  0  0  0
  3 27  1  0  0  0  0
  3 28  1  0  0  0  0
  4  5  1  0  0  0  0
  4 29  1  0  0  0  0
  5  6  2  0  0  0  0
  5  7  1  0  0  0  0
  7  8  1  0  0  0  0
  7 30  1  0  0  0  0
  8 16  1  0  0  0  0
  8  9  2  0  0  0  0
  9 10  1  0  0  0  0
  9 31  1  0  0  0  0
 10 11  2  0  0  0  0
 10 32  1  0  0  0  0
 11 12  1  0  0  0  0
 11 15  1  0  0  0  0
 12 13  1  0  0  0  0
 12 14  1  0  0  0  0
 13 33  1  0  0  0  0
 13 34  1  0  0  0  0
 13 35  1  0  0  0  0
 14 36  1  0  0  0  0
 14 37  1  0  0  0  0
 14 38  1  0  0  0  0
 15 16  2  0  0  0  0
 15 48  1  0  0  0  0
 16 39  1  0  0  0  0
 17 22  1  0  0  0  0
 17 18  1  0  0  0  0
 18 19  1  0  0  0  0
 18 40  1  0  0  0  0
 18 41  1  0  0  0  0
 19 20  1  0  0  0  0
 19 42  1  0  0  0  0
 19 43  1  0  0  0  0
 20 21  1  0  0  0  0
 21 22  1  0  0  0  0
 21 44  1  0  0  0  0
 21 45  1  0  0  0  0
 22 46  1  0  0  0  0
 22 47  1  0  0  0  0
M  CHG  1  15   1
M  END
> <s_m_source_file>
AV-unprocessed.smi

> <i_m_source_file_index>
1239

> <i_lp_mmshare_version>
43012

> <i_f3d_flags>
0

> <s_epik_input>
W0NIMl0xW0NIMl1PW0NIMl1bQ0gyXU4xW0NASF0oW0NIM10pW0NIMl1bTkhdQyg9TylbTkhdYzJbY0hdW2NIXWMoTihbQ0gzXSlbQ0gzXSluW2NIXTI=

> <s_epik_cmdline>
J2VwaWtfcHl0aG9uJywgJy1waCcsICc3LjAnLCAnLXRuJywgJzgnLCAnLW1hJywgJzIwMCcsICctbWV0YWxfYmluZGluZycsICctaW1hZScsICc8aW5maWxlLm1hZT4nLCAnLW9tYWUnLCAnPG91dGZpbGUubWFlPic=

> <r_lp_tautomer_probability>
0.999994

> <r_epik_Ionization_Penalty>
0.528791

> <r_epik_Ionization_Penalty_Charging>
0.26278

> <r_epik_Ionization_Penalty_Neutral>
0.26601

> <r_epik_State_Penalty>
0.520375

> <r_epik_Charging_Adjusted_Penalty>
0.783156

> <i_epik_Tot_Q>
1

> <i_epik_Tot_abs_Q>
1

> <r_epik_Metal_State_Penalty>
0.806531

> <b_epik_Metal_Only>
0

> <s_lp_Force_Field>
OPLS_2005

> <r_lp_Energy>
38.5694

> <b_lp_Chiralities_Consistent>
1

> <s_lp_Variant>
AV-unprocessed.smi:1239-2

> <Gold.Version>
5.8.1

> <Gold.Id.Protein>
6NUR|6NUR_protein|mol2

> <Gold.PLP.Fitness>
43.1309

> <Gold.PLP.PLP>
-36.7743

> <Gold.PLP.part.hbond>
-2.8348

> <Gold.PLP.part.metal>
0.0000

> <Gold.PLP.part.buried>
-5.4289

> <Gold.PLP.part.nonpolar>
-29.6683

> <Gold.PLP.part.repulsive>
0.3083

> <Gold.PLP.ligand.clash>
0.0000

> <Gold.PLP.ligand.torsion>
0.9589

> <Gold.PLP.Chemscore.Hbond>
2.7440

> <Gold.PLP.Chemscore.CHOScore>
0.0000

> <Gold.PLP.Chemscore.Metal>
0.0000

> <Gold.Chemscore.Hbonds>
donor molecule, donor type, donor heavy atom, donor atom, acceptor molecule, acceptor atom, score
      L1  H     4    29       P1 10175  0.66
      L1  H     7    30       P1 10171  1.00
      L1  H    15    48       P1  7921  1.00

> <Gold.PLP.Chemscore.Internal.Correction>
0.0425

> <Gold.Rescore>
     Score         DG    S(hbond)    S(metal)    S(lipo)     H(rot)  DE(clash)    DE(int)     intcor
     17.48     -19.87       2.62        0.00      80.06       1.46       0.14       2.26       ----

> <Gold.Chemscore.Fitness>
17.4766

> <Gold.Chemscore.DG>
-19.8710

> <Gold.Chemscore.ZeroCoef>
-5.4800

> <Gold.Chemscore.Hbond>
2.6234

> <Gold.Chemscore.Metal>
0.0000

> <Gold.Chemscore.Lipo>
80.0633

> <Gold.Chemscore.Internal_Hbond>
0.0000

> <Gold.Chemscore.DEClash>
0.1373

> <Gold.Chemscore.DEInternal>
2.2571

> <Gold.Chemscore.Rot>
1.4604

> <Gold.Chemscore.Internal.Correction>
   9.000000E+99

> <Gold.Chemscore.Hbonds>
donor molecule, donor type, donor heavy atom, donor atom, acceptor molecule, acceptor atom, score
      L1  H     4    29       P1 10175  0.64
      L1  H     7    30       P1 10171  0.94
      L1  H    15    48       P1  7921  0.79

> <Gold.Chemscore.Hbond.Weighted>
-8.7621

> <Gold.Chemscore.Metal.Weighted>
-0.0000

> <Gold.Chemscore.Lipo.Weighted>
-9.3674

> <Gold.Chemscore.Internal_Hbond.Weighted>
0.0000

> <Gold.Chemscore.DEClash.Weighted>
0.1373

> <Gold.Chemscore.DEInternal.Weighted>
2.2571

> <Gold.Chemscore.Rot.Weighted>
3.7385

> <Gold.Chemscore.Internal.Correction.Weighted>
   9.000000E+99

> <Gold.Protein.RotatedTorsions>
[ 6907 6896 6895 6894 ] final -139.77 input  -60.11 | X-H torsion
[ 7974 7965 7964 7962 ] final  -89.45 input  175.53 | X-H torsion
[ 8008 7997 7996 7995 ] final  101.11 input   59.86 | X-H torsion
[ 10167 10162 10161 10158 ] final -178.39 input  -65.29 | X-H torsion
[ 10718 10713 10712 10709 ] final -109.00 input   66.30 | X-H torsion
[ 10763 10752 10751 10750 ] final  -33.11 input  -60.55 | X-H torsion
[ 11005 11000 10999 10996 ] final  100.84 input  -57.11 | X-H torsion

> <Gold.Protein.ActiveResidues>
 VAL166  LYS551  ARG553  GLY616  TRP617  ASP618  TYR619  PRO620  LYS621  CYS622 
 ASP623  PHE694  ASN695  SER759  ASP760  ASP761  ALA762  ILE779  LEU786  VAL792 
 PHE793  MET794  SER795  GLU796  ALA797  LYS798  CYS799  TRP800  GLU811  SER814 

> <Gold.Protein.RotatedAtoms>
  151.0521  133.5615  159.2641 H   0  0  0  0  0  0  0  0  0  0  0  0  # atno 6907 bound_to 6896
  151.2622  135.0657  159.9112 H   0  0  0  0  0  0  0  0  0  0  0  0  # atno 6908 bound_to 6896
  152.5383  134.0264  159.8059 H   0  0  0  0  0  0  0  0  0  0  0  0  # atno 6909 bound_to 6896
  145.4396  140.9558  143.2082 H   0  0  0  0  0  0  0  0  0  0  0  0  # atno 7974 bound_to 7965
  156.1267  140.3203  155.8288 H   0  0  0  0  0  0  0  0  0  0  0  0  # atno 8008 bound_to 7997
  155.4406  140.0525  157.3028 H   0  0  0  0  0  0  0  0  0  0  0  0  # atno 8009 bound_to 7997
  154.4868  140.2076  155.9650 H   0  0  0  0  0  0  0  0  0  0  0  0  # atno 8010 bound_to 7997
  139.5435  144.2299  152.0941 H   0  0  0  0  0  0  0  0  0  0  0  0  # atno 10167 bound_to 10162
  156.0514  130.5741  150.8039 H   0  0  0  0  0  0  0  0  0  0  0  0  # atno 10718 bound_to 10713
  153.8248  135.6871  153.4822 H   0  0  0  0  0  0  0  0  0  0  0  0  # atno 10763 bound_to 10752
  153.1547  135.4604  154.9685 H   0  0  0  0  0  0  0  0  0  0  0  0  # atno 10764 bound_to 10752
  154.7912  135.3302  154.7716 H   0  0  0  0  0  0  0  0  0  0  0  0  # atno 10765 bound_to 10752
  139.8772  134.9158  156.4817 H   0  0  0  0  0  0  0  0  0  0  0  0  # atno 11005 bound_to 11000
  144.8130  139.5927  143.7021 LP  0  0  0  0  0  0  0  0  0  0  0  0  # atno 17320 bound_to 7965
  146.2563  139.6311  142.9392 LP  0  0  0  0  0  0  0  0  0  0  0  0  # atno 17321 bound_to 7965
  140.1782  144.4870  150.6542 LP  0  0  0  0  0  0  0  0  0  0  0  0  # atno 17342 bound_to 10162
  140.6674  143.2273  151.5710 LP  0  0  0  0  0  0  0  0  0  0  0  0  # atno 17343 bound_to 10162
  157.5444  131.0942  150.9783 LP  0  0  0  0  0  0  0  0  0  0  0  0  # atno 17370 bound_to 10713
  157.0057  130.5617  149.5316 LP  0  0  0  0  0  0  0  0  0  0  0  0  # atno 17371 bound_to 10713
  140.8722  133.7979  155.9377 LP  0  0  0  0  0  0  0  0  0  0  0  0  # atno 17394 bound_to 11000
  140.8940  134.2460  157.5078 LP  0  0  0  0  0  0  0  0  0  0  0  0  # atno 17395 bound_to 11000

$$$$
