AV-unprocessed.smi:1962|AV-procd|sdf|7922|dock4
  -GOLD-   2272010 93D 1   1.00000     0.00000
 Structure written by MMmdl.
 36 37  0  0  0  0  0  0  0  0  1 V2000
  145.0600  137.0604  153.3698 C   0  0  0  0  0  0  0  0  0  0  0  0
  145.8958  137.8560  152.3582 C   0  0  2  0  0  0  0  0  0  0  0  0
  146.1557  137.0384  151.0754 C   0  0  0  0  0  0  0  0  0  0  0  0
  145.5570  135.7157  151.1251 N   0  0  0  0  0  0  0  0  0  0  0  0
  146.1850  134.4958  151.2631 C   0  0  0  0  0  0  0  0  0  0  0  0
  145.2125  133.5376  151.2756 C   0  0  0  0  0  0  0  0  0  0  0  0
  144.0058  134.2786  151.1356 C   0  0  0  0  0  0  0  0  0  0  0  0
  144.2151  135.5815  151.0419 N   0  0  0  0  0  0  0  0  0  0  0  0
  147.1562  138.2482  152.9870 N   0  0  0  0  0  0  0  0  0  0  0  0
  147.3655  139.3685  153.7040 C   0  0  0  0  0  0  0  0  0  0  0  0
  146.4793  140.1895  153.9430 O   0  0  0  0  0  0  0  0  0  0  0  0
  148.7556  139.5798  154.1877 C   0  0  0  0  0  0  0  0  0  0  0  0
  149.5903  138.5884  154.2185 N   0  0  0  0  0  0  0  0  0  0  0  0
  150.8951  138.7421  154.6410 N   0  0  0  0  0  0  0  0  0  0  0  0
  151.7706  137.6077  154.3537 C   0  0  0  0  0  0  0  0  0  0  0  0
  151.3698  139.8295  155.2981 C   0  0  0  0  0  0  0  0  0  0  0  0
  152.5413  139.9567  155.6541 O   0  0  0  0  0  0  0  0  0  0  0  0
  150.3529  140.9273  155.6240 C   0  0  0  0  0  0  0  0  0  0  0  0
  149.1942  140.9689  154.6079 C   0  0  0  0  0  0  0  0  0  0  0  0
  144.1000  136.7696  152.9427 H   0  0  0  0  0  0  0  0  0  0  0  0
  144.8560  137.6526  154.2625 H   0  0  0  0  0  0  0  0  0  0  0  0
  145.5740  136.1510  153.6830 H   0  0  0  0  0  0  0  0  0  0  0  0
  145.3194  138.7440  152.0924 H   0  0  0  0  0  0  0  0  0  0  0  0
  145.7812  137.5699  150.1987 H   0  0  0  0  0  0  0  0  0  0  0  0
  147.2285  136.9115  150.9256 H   0  0  0  0  0  0  0  0  0  0  0  0
  147.2588  134.4134  151.3463 H   0  0  0  0  0  0  0  0  0  0  0  0
  145.3428  132.4700  151.3726 H   0  0  0  0  0  0  0  0  0  0  0  0
  142.9909  133.9111  151.0986 H   0  0  0  0  0  0  0  0  0  0  0  0
  147.9458  137.6362  152.8381 H   0  0  0  0  0  0  0  0  0  0  0  0
  152.1945  137.2045  155.2745 H   0  0  0  0  0  0  0  0  0  0  0  0
  152.5917  137.9135  153.7035 H   0  0  0  0  0  0  0  0  0  0  0  0
  151.2392  136.7966  153.8530 H   0  0  0  0  0  0  0  0  0  0  0  0
  149.9596  140.7238  156.6205 H   0  0  0  0  0  0  0  0  0  0  0  0
  150.8494  141.8969  155.6737 H   0  0  0  0  0  0  0  0  0  0  0  0
  149.4939  141.5330  153.7239 H   0  0  0  0  0  0  0  0  0  0  0  0
  148.3636  141.5165  155.0550 H   0  0  0  0  0  0  0  0  0  0  0  0
  1  2  1  0  0  0  0
  1 20  1  0  0  0  0
  1 21  1  0  0  0  0
  1 22  1  0  0  0  0
  2  3  1  0  0  0  0
  2  9  1  0  0  0  0
  2 23  1  0  0  0  0
  3  4  1  0  0  0  0
  3 24  1  0  0  0  0
  3 25  1  0  0  0  0
  4  8  1  0  0  0  0
  4  5  1  0  0  0  0
  5  6  2  0  0  0  0
  5 26  1  0  0  0  0
  6  7  1  0  0  0  0
  6 27  1  0  0  0  0
  7  8  2  0  0  0  0
  7 28  1  0  0  0  0
  9 10  1  0  0  0  0
  9 29  1  0  0  0  0
 10 11  2  0  0  0  0
 10 12  1  0  0  0  0
 12 19  1  0  0  0  0
 12 13  2  0  0  0  0
 13 14  1  0  0  0  0
 14 15  1  0  0  0  0
 14 16  1  0  0  0  0
 15 30  1  0  0  0  0
 15 31  1  0  0  0  0
 15 32  1  0  0  0  0
 16 17  2  0  0  0  0
 16 18  1  0  0  0  0
 18 19  1  0  0  0  0
 18 33  1  0  0  0  0
 18 34  1  0  0  0  0
 19 35  1  0  0  0  0
 19 36  1  0  0  0  0
M  END
> <s_m_source_file>
AV-unprocessed.smi

> <i_m_source_file_index>
1962

> <i_lp_mmshare_version>
43012

> <i_f3d_flags>
0

> <s_epik_input>
bjFbY0hdW2NIXVtjSF1uMVtDSDJdW0NAQEhdKFtDSDNdKVtOSF1DKD1PKUMyPU5OKFtDSDNdKUMoPU8pW0NIMl1bQ0gyXTI=

> <s_epik_cmdline>
J2VwaWtfcHl0aG9uJywgJy1waCcsICc3LjAnLCAnLXRuJywgJzgnLCAnLW1hJywgJzIwMCcsICctbWV0YWxfYmluZGluZycsICctaW1hZScsICc8aW5maWxlLm1hZT4nLCAnLW9tYWUnLCAnPG91dGZpbGUubWFlPic=

> <r_lp_tautomer_probability>
1

> <r_epik_Ionization_Penalty>
9.43868e-05

> <r_epik_Ionization_Penalty_Charging>
0

> <r_epik_Ionization_Penalty_Neutral>
9.43868e-05

> <r_epik_State_Penalty>
-0

> <r_epik_Charging_Adjusted_Penalty>
0

> <i_epik_Tot_Q>
0

> <i_epik_Tot_abs_Q>
0

> <r_epik_Metal_State_Penalty>
0.0732556

> <b_epik_Metal_Only>
0

> <s_epik_Chemistry_Notes>
This compound has an imine and may undergo hydrolysis.

> <s_lp_Force_Field>
OPLS_2005

> <r_lp_Energy>
16.0967

> <b_lp_Chiralities_Consistent>
1

> <s_lp_Variant>
AV-unprocessed.smi:1962-1

> <Gold.Version>
5.8.1

> <Gold.Id.Protein>
6NUR|6NUR_protein|mol2

> <Gold.PLP.Fitness>
41.8430

> <Gold.PLP.PLP>
-32.6173

> <Gold.PLP.part.hbond>
-2.2283

> <Gold.PLP.part.metal>
0.0000

> <Gold.PLP.part.buried>
1.6587

> <Gold.PLP.part.nonpolar>
-33.3260

> <Gold.PLP.part.repulsive>
0.6458

> <Gold.PLP.ligand.clash>
0.0000

> <Gold.PLP.ligand.torsion>
1.3893

> <Gold.PLP.Chemscore.Hbond>
2.0000

> <Gold.PLP.Chemscore.CHOScore>
1.9818

> <Gold.PLP.Chemscore.Metal>
0.0000

> <Gold.Chemscore.Hbonds>
donor molecule, donor type, donor heavy atom, donor atom, acceptor molecule, acceptor atom, score
      L1  H     9    29       P1  7948  1.00
      P1  H  7997  8008       L1    17  1.00
      L1  C     5    26       P1  7948  0.99
      L1  C     7    28       P1 10186  0.93

> <Gold.PLP.Chemscore.Internal.Correction>
0.0590

> <Gold.Rescore>
     Score         DG    S(hbond)    S(metal)    S(lipo)     H(rot)  DE(clash)    DE(int)     intcor
     12.53     -15.44       1.95        0.00      62.81       1.53       1.36       1.55       ----

> <Gold.Chemscore.Fitness>
12.5284

> <Gold.Chemscore.DG>
-15.4430

> <Gold.Chemscore.ZeroCoef>
-5.4800

> <Gold.Chemscore.Hbond>
1.9518

> <Gold.Chemscore.Metal>
0.0000

> <Gold.Chemscore.Lipo>
62.8126

> <Gold.Chemscore.Internal_Hbond>
0.0000

> <Gold.Chemscore.DEClash>
1.3650

> <Gold.Chemscore.DEInternal>
1.5496

> <Gold.Chemscore.Rot>
1.5254

> <Gold.Chemscore.Internal.Correction>
   9.000000E+99

> <Gold.Chemscore.Hbonds>
donor molecule, donor type, donor heavy atom, donor atom, acceptor molecule, acceptor atom, score
      L1  H     9    29       P1  7948  0.95
      P1  H  7997  8008       L1    17  0.99

> <Gold.Chemscore.Hbond.Weighted>
-6.5190

> <Gold.Chemscore.Metal.Weighted>
-0.0000

> <Gold.Chemscore.Lipo.Weighted>
-7.3491

> <Gold.Chemscore.Internal_Hbond.Weighted>
0.0000

> <Gold.Chemscore.DEClash.Weighted>
1.3650

> <Gold.Chemscore.DEInternal.Weighted>
1.5496

> <Gold.Chemscore.Rot.Weighted>
3.9051

> <Gold.Chemscore.Internal.Correction.Weighted>
   9.000000E+99

> <Gold.Protein.RotatedTorsions>
[ 6907 6896 6895 6894 ] final  -57.74 input  -60.11 | X-H torsion
[ 7974 7965 7964 7962 ] final  -17.16 input  175.53 | X-H torsion
[ 8008 7997 7996 7995 ] final  -19.22 input   59.86 | X-H torsion
[ 10167 10162 10161 10158 ] final   -0.62 input  -65.29 | X-H torsion
[ 10718 10713 10712 10709 ] final  101.68 input   66.30 | X-H torsion
[ 10763 10752 10751 10750 ] final  172.55 input  -60.55 | X-H torsion
[ 11005 11000 10999 10996 ] final  -67.58 input  -57.11 | X-H torsion

> <Gold.Protein.ActiveResidues>
 VAL166  LYS551  ARG553  GLY616  TRP617  ASP618  TYR619  PRO620  LYS621  CYS622 
 ASP623  PHE694  ASN695  SER759  ASP760  ASP761  ALA762  ILE779  LEU786  VAL792 
 PHE793  MET794  SER795  GLU796  ALA797  LYS798  CYS799  TRP800  GLU811  SER814 

> <Gold.Protein.RotatedAtoms>
  150.8062  134.7189  159.6646 H   0  0  0  0  0  0  0  0  0  0  0  0  # atno 6907 bound_to 6896
  152.4182  134.6001  160.0007 H   0  0  0  0  0  0  0  0  0  0  0  0  # atno 6908 bound_to 6896
  151.6224  133.3301  159.3127 H   0  0  0  0  0  0  0  0  0  0  0  0  # atno 6909 bound_to 6896
  146.1954  140.3739  142.8442 H   0  0  0  0  0  0  0  0  0  0  0  0  # atno 7974 bound_to 7965
  154.4851  140.2094  155.9673 H   0  0  0  0  0  0  0  0  0  0  0  0  # atno 8008 bound_to 7997
  156.1224  140.3211  155.8197 H   0  0  0  0  0  0  0  0  0  0  0  0  # atno 8009 bound_to 7997
  155.4443  140.0512  157.2998 H   0  0  0  0  0  0  0  0  0  0  0  0  # atno 8010 bound_to 7997
  140.6775  143.6872  150.8057 H   0  0  0  0  0  0  0  0  0  0  0  0  # atno 10167 bound_to 10162
  157.6823  131.0733  150.5289 H   0  0  0  0  0  0  0  0  0  0  0  0  # atno 10718 bound_to 10713
  154.4276  135.2759  155.1934 H   0  0  0  0  0  0  0  0  0  0  0  0  # atno 10763 bound_to 10752
  154.3854  135.6078  153.5817 H   0  0  0  0  0  0  0  0  0  0  0  0  # atno 10764 bound_to 10752
  152.9835  135.5890  154.4582 H   0  0  0  0  0  0  0  0  0  0  0  0  # atno 10765 bound_to 10752
  141.1511  133.6722  156.6314 H   0  0  0  0  0  0  0  0  0  0  0  0  # atno 11005 bound_to 11000
  144.8570  140.7084  143.6132 LP  0  0  0  0  0  0  0  0  0  0  0  0  # atno 17320 bound_to 7965
  145.3660  139.1670  143.4357 LP  0  0  0  0  0  0  0  0  0  0  0  0  # atno 17321 bound_to 7965
  140.0567  143.5195  152.2647 LP  0  0  0  0  0  0  0  0  0  0  0  0  # atno 17342 bound_to 10162
  139.6077  144.7600  151.3024 LP  0  0  0  0  0  0  0  0  0  0  0  0  # atno 17343 bound_to 10162
  156.5600  130.4253  149.6067 LP  0  0  0  0  0  0  0  0  0  0  0  0  # atno 17370 bound_to 10713
  156.2829  130.7081  151.1910 LP  0  0  0  0  0  0  0  0  0  0  0  0  # atno 17371 bound_to 10713
  140.3464  134.7806  157.4435 LP  0  0  0  0  0  0  0  0  0  0  0  0  # atno 17394 bound_to 11000
  140.0896  134.5619  155.8457 LP  0  0  0  0  0  0  0  0  0  0  0  0  # atno 17395 bound_to 11000

$$$$
