AV-unprocessed.smi:2987|AV-procd|sdf|11385|dock10
  -GOLD-   2272016313D 1   1.00000     0.00000
 Structure written by MMmdl.
 25 26  0  0  0  0  0  0  0  0  1 V2000
  154.3376  140.7832  162.4596 C   0  0  0  0  0  0  0  0  0  0  0  0
  153.6261  141.8334  161.6672 C   0  0  0  0  0  0  0  0  0  0  0  0
  153.1024  142.9213  162.2328 N   0  0  0  0  0  0  0  0  0  0  0  0
  152.5561  143.5898  161.1537 C   0  0  0  0  0  0  0  0  0  0  0  0
  151.8533  144.8144  161.0911 C   0  0  0  0  0  0  0  0  0  0  0  0
  151.3805  145.3038  159.8556 C   0  0  0  0  0  0  0  0  0  0  0  0
  151.6023  144.5773  158.6676 C   0  0  0  0  0  0  0  0  0  0  0  0
  152.3007  143.3553  158.7074 C   0  0  0  0  0  0  0  0  0  0  0  0
  152.7713  142.8720  159.9428 C   0  0  0  0  0  0  0  0  0  0  0  0
  153.4745  141.7342  160.3240 N   0  0  0  0  0  0  0  0  0  0  0  0
  153.9319  140.6698  159.4459 C   0  0  0  0  0  0  0  0  0  0  0  0
  152.7614  140.0149  158.7002 C   0  0  0  0  0  0  0  0  0  0  0  0
  153.2553  139.1946  157.6643 O   0  0  0  0  0  0  0  0  0  0  0  0
  154.2635  140.9935  163.5271 H   0  0  0  0  0  0  0  0  0  0  0  0
  155.3928  140.7571  162.1867 H   0  0  0  0  0  0  0  0  0  0  0  0
  153.8991  139.8028  162.2721 H   0  0  0  0  0  0  0  0  0  0  0  0
  151.6769  145.3775  161.9954 H   0  0  0  0  0  0  0  0  0  0  0  0
  150.8451  146.2413  159.8193 H   0  0  0  0  0  0  0  0  0  0  0  0
  151.2362  144.9590  157.7259 H   0  0  0  0  0  0  0  0  0  0  0  0
  152.4722  142.7964  157.7995 H   0  0  0  0  0  0  0  0  0  0  0  0
  154.6442  141.0915  158.7354 H   0  0  0  0  0  0  0  0  0  0  0  0
  154.4814  139.9306  160.0293 H   0  0  0  0  0  0  0  0  0  0  0  0
  152.1597  139.4084  159.3778 H   0  0  0  0  0  0  0  0  0  0  0  0
  152.1057  140.7729  158.2707 H   0  0  0  0  0  0  0  0  0  0  0  0
  153.6213  138.4127  158.0490 H   0  0  0  0  0  0  0  0  0  0  0  0
  1  2  1  0  0  0  0
  1 14  1  0  0  0  0
  1 15  1  0  0  0  0
  1 16  1  0  0  0  0
  2 10  1  0  0  0  0
  2  3  2  0  0  0  0
  3  4  1  0  0  0  0
  4  9  2  0  0  0  0
  4  5  1  0  0  0  0
  5  6  2  0  0  0  0
  5 17  1  0  0  0  0
  6  7  1  0  0  0  0
  6 18  1  0  0  0  0
  7  8  2  0  0  0  0
  7 19  1  0  0  0  0
  8  9  1  0  0  0  0
  8 20  1  0  0  0  0
  9 10  1  0  0  0  0
 10 11  1  0  0  0  0
 11 12  1  0  0  0  0
 11 21  1  0  0  0  0
 11 22  1  0  0  0  0
 12 13  1  0  0  0  0
 12 23  1  0  0  0  0
 12 24  1  0  0  0  0
 13 25  1  0  0  0  0
M  END
> <s_m_source_file>
AV-unprocessed.smi

> <i_m_source_file_index>
2987

> <i_lp_mmshare_version>
43012

> <i_f3d_flags>
0

> <s_epik_input>
W09IXVtDSDJdW0NIMl1uKGMobjEpW0NIM10pYyhjMTIpW2NIXVtjSF1bY0hdW2NIXTI=

> <s_epik_cmdline>
J2VwaWtfcHl0aG9uJywgJy1waCcsICc3LjAnLCAnLXRuJywgJzgnLCAnLW1hJywgJzIwMCcsICctbWV0YWxfYmluZGluZycsICctaW1hZScsICc8aW5maWxlLm1hZT4nLCAnLW9tYWUnLCAnPG91dGZpbGUubWFlPic=

> <r_epik_Ionization_Penalty>
0.129663

> <r_epik_Ionization_Penalty_Charging>
0

> <r_epik_Ionization_Penalty_Neutral>
0.129663

> <r_epik_State_Penalty>
0.119073

> <r_epik_Charging_Adjusted_Penalty>
0.119073

> <i_epik_Tot_Q>
0

> <i_epik_Tot_abs_Q>
0

> <r_epik_Metal_State_Penalty>
0.000131867

> <b_epik_Metal_Only>
0

> <s_lp_Force_Field>
OPLS_2005

> <r_lp_Energy>
7.88102

> <b_lp_Chiralities_Consistent>
1

> <s_lp_Variant>
AV-unprocessed.smi:2987-1

> <Gold.Version>
5.8.1

> <Gold.Id.Protein>
6NUR|6NUR_protein|mol2

> <Gold.PLP.Fitness>
39.6967

> <Gold.PLP.PLP>
-36.7731

> <Gold.PLP.part.hbond>
-1.0000

> <Gold.PLP.part.metal>
0.0000

> <Gold.PLP.part.buried>
-2.2784

> <Gold.PLP.part.nonpolar>
-33.6100

> <Gold.PLP.part.repulsive>
0.0942

> <Gold.PLP.ligand.clash>
0.0000

> <Gold.PLP.ligand.torsion>
0.0383

> <Gold.PLP.Chemscore.Hbond>
1.0000

> <Gold.PLP.Chemscore.CHOScore>
0.0000

> <Gold.PLP.Chemscore.Metal>
0.0000

> <Gold.Chemscore.Hbonds>
donor molecule, donor type, donor heavy atom, donor atom, acceptor molecule, acceptor atom, score
      P1  H  7997  8010       L1    13  1.00

> <Gold.PLP.Chemscore.Internal.Correction>
0.0001

> <Gold.Rescore>
     Score         DG    S(hbond)    S(metal)    S(lipo)     H(rot)  DE(clash)    DE(int)     intcor
     15.20     -15.46       0.87        0.00      97.59       1.70       0.21       0.05       ----

> <Gold.Chemscore.Fitness>
15.2010

> <Gold.Chemscore.DG>
-15.4564

> <Gold.Chemscore.ZeroCoef>
-5.4800

> <Gold.Chemscore.Hbond>
0.8732

> <Gold.Chemscore.Metal>
0.0000

> <Gold.Chemscore.Lipo>
97.5891

> <Gold.Chemscore.Internal_Hbond>
0.0000

> <Gold.Chemscore.DEClash>
0.2090

> <Gold.Chemscore.DEInternal>
0.0465

> <Gold.Chemscore.Rot>
1.7023

> <Gold.Chemscore.Internal.Correction>
   9.000000E+99

> <Gold.Chemscore.Hbonds>
donor molecule, donor type, donor heavy atom, donor atom, acceptor molecule, acceptor atom, score
      P1  H  7997  8010       L1    13  0.55

> <Gold.Chemscore.Hbond.Weighted>
-2.9164

> <Gold.Chemscore.Metal.Weighted>
-0.0000

> <Gold.Chemscore.Lipo.Weighted>
-11.4179

> <Gold.Chemscore.Internal_Hbond.Weighted>
0.0000

> <Gold.Chemscore.DEClash.Weighted>
0.2090

> <Gold.Chemscore.DEInternal.Weighted>
0.0465

> <Gold.Chemscore.Rot.Weighted>
4.3579

> <Gold.Chemscore.Internal.Correction.Weighted>
   9.000000E+99

> <Gold.Protein.RotatedTorsions>
[ 6907 6896 6895 6894 ] final  -21.78 input  -60.11 | X-H torsion
[ 7974 7965 7964 7962 ] final   69.21 input  175.53 | X-H torsion
[ 8008 7997 7996 7995 ] final   52.02 input   59.86 | X-H torsion
[ 10167 10162 10161 10158 ] final    6.52 input  -65.29 | X-H torsion
[ 10718 10713 10712 10709 ] final   38.40 input   66.30 | X-H torsion
[ 10763 10752 10751 10750 ] final   -2.17 input  -60.55 | X-H torsion
[ 11005 11000 10999 10996 ] final  173.49 input  -57.11 | X-H torsion

> <Gold.Protein.ActiveResidues>
 VAL166  LYS551  ARG553  GLY616  TRP617  ASP618  TYR619  PRO620  LYS621  CYS622 
 ASP623  PHE694  ASN695  SER759  ASP760  ASP761  ALA762  ILE779  LEU786  VAL792 
 PHE793  MET794  SER795  GLU796  ALA797  LYS798  CYS799  TRP800  GLU811  SER814 

> <Gold.Protein.RotatedAtoms>
  151.2282  135.0544  159.8976 H   0  0  0  0  0  0  0  0  0  0  0  0  # atno 6907 bound_to 6896
  152.5408  134.0566  159.8143 H   0  0  0  0  0  0  0  0  0  0  0  0  # atno 6908 bound_to 6896
  151.0742  133.5393  159.2656 H   0  0  0  0  0  0  0  0  0  0  0  0  # atno 6909 bound_to 6896
  145.7932  139.2944  143.1198 H   0  0  0  0  0  0  0  0  0  0  0  0  # atno 7974 bound_to 7965
  155.4448  140.3456  155.4294 H   0  0  0  0  0  0  0  0  0  0  0  0  # atno 8008 bound_to 7997
  156.1256  140.1499  156.9171 H   0  0  0  0  0  0  0  0  0  0  0  0  # atno 8009 bound_to 7997
  154.4856  140.0856  156.7458 H   0  0  0  0  0  0  0  0  0  0  0  0  # atno 8010 bound_to 7997
  140.6423  143.7744  150.7447 H   0  0  0  0  0  0  0  0  0  0  0  0  # atno 10167 bound_to 10162
  157.3584  130.7636  149.7029 H   0  0  0  0  0  0  0  0  0  0  0  0  # atno 10718 bound_to 10713
  153.3545  135.6987  153.6761 H   0  0  0  0  0  0  0  0  0  0  0  0  # atno 10763 bound_to 10752
  153.5475  135.3560  155.2745 H   0  0  0  0  0  0  0  0  0  0  0  0  # atno 10764 bound_to 10752
  154.8658  135.4218  154.2788 H   0  0  0  0  0  0  0  0  0  0  0  0  # atno 10765 bound_to 10752
  140.3410  134.7276  157.4202 H   0  0  0  0  0  0  0  0  0  0  0  0  # atno 11005 bound_to 11000
  145.9955  140.8565  143.0045 LP  0  0  0  0  0  0  0  0  0  0  0  0  # atno 17320 bound_to 7965
  144.6779  140.2277  143.7359 LP  0  0  0  0  0  0  0  0  0  0  0  0  # atno 17321 bound_to 7965
  140.1378  143.4468  152.2213 LP  0  0  0  0  0  0  0  0  0  0  0  0  # atno 17342 bound_to 10162
  139.5633  144.7419  151.4094 LP  0  0  0  0  0  0  0  0  0  0  0  0  # atno 17343 bound_to 10162
  155.9733  130.4120  150.4013 LP  0  0  0  0  0  0  0  0  0  0  0  0  # atno 17370 bound_to 10713
  157.2086  131.0455  151.2611 LP  0  0  0  0  0  0  0  0  0  0  0  0  # atno 17371 bound_to 10713
  140.0781  134.5769  155.8569 LP  0  0  0  0  0  0  0  0  0  0  0  0  # atno 17394 bound_to 11000
  141.2038  133.6635  156.6086 LP  0  0  0  0  0  0  0  0  0  0  0  0  # atno 17395 bound_to 11000

$$$$
