AV-unprocessed.smi:332|AV-procd|sdf|2354|dock4
  -GOLD-   2262022263D 1   1.00000     0.00000
 Structure written by MMmdl.
 42 44  0  0  0  0  0  0  0  0  1 V2000
  151.4814  139.8133  155.5339 C   0  0  0  0  0  0  0  0  0  0  0  0
  150.4517  140.9482  155.6442 C   0  0  2  0  0  0  0  0  0  0  0  0
  151.0111  142.0049  156.4862 N   0  0  0  0  0  0  0  0  0  0  0  0
  151.3462  141.8934  157.7813 C   0  0  0  0  0  0  0  0  0  0  0  0
  151.2325  140.8493  158.4249 O   0  0  0  0  0  0  0  0  0  0  0  0
  151.9196  143.1602  158.4322 C   0  0  0  0  0  0  0  0  0  0  0  0
  152.2978  142.9737  159.8429 N   0  0  0  0  0  0  0  0  0  0  0  0
  151.8020  143.9129  160.7693 C   0  0  0  0  0  0  0  0  0  0  0  0
  152.0868  143.8369  162.0790 C   0  0  0  0  0  0  0  0  0  0  0  0
  152.9272  142.7545  162.5331 C   0  0  0  0  0  0  0  0  0  0  0  0
  153.4100  141.8529  161.6550 C   0  0  0  0  0  0  0  0  0  0  0  0
  153.1025  141.9331  160.2221 C   0  0  0  0  0  0  0  0  0  0  0  0
  153.5405  141.1145  159.4131 O   0  0  0  0  0  0  0  0  0  0  0  0
  149.1025  140.4684  156.2333 C   0  0  1  0  0  0  0  0  0  0  0  0
  148.1910  141.5903  156.7840 C   0  0  0  0  0  0  0  0  0  0  0  0
  146.8278  141.2793  156.1394 C   0  0  1  0  0  0  0  0  0  0  0  0
  146.8776  141.6680  154.6505 C   0  0  0  0  0  0  0  0  0  0  0  0
  147.7694  140.5689  154.0454 C   0  0  0  0  0  0  0  0  0  0  0  0
  148.1454  139.7160  155.2748 C   0  0  2  0  0  0  0  0  0  0  0  0
  146.8432  139.7570  156.0687 C   0  0  0  0  0  0  0  0  0  0  0  0
  151.1386  139.0297  154.8582 H   0  0  0  0  0  0  0  0  0  0  0  0
  151.6754  139.3555  156.5044 H   0  0  0  0  0  0  0  0  0  0  0  0
  152.4306  140.1829  155.1442 H   0  0  0  0  0  0  0  0  0  0  0  0
  150.2855  141.3389  154.6401 H   0  0  0  0  0  0  0  0  0  0  0  0
  151.1506  142.9022  156.0444 H   0  0  0  0  0  0  0  0  0  0  0  0
  152.7808  143.4822  157.8453 H   0  0  0  0  0  0  0  0  0  0  0  0
  151.1950  143.9720  158.3433 H   0  0  0  0  0  0  0  0  0  0  0  0
  151.1870  144.6951  160.3481 H   0  0  0  0  0  0  0  0  0  0  0  0
  151.7004  144.5684  162.7737 H   0  0  0  0  0  0  0  0  0  0  0  0
  153.1713  142.6681  163.5816 H   0  0  0  0  0  0  0  0  0  0  0  0
  154.0387  141.0509  162.0128 H   0  0  0  0  0  0  0  0  0  0  0  0
  149.3293  139.7897  157.0582 H   0  0  0  0  0  0  0  0  0  0  0  0
  148.1337  141.5359  157.8718 H   0  0  0  0  0  0  0  0  0  0  0  0
  148.5355  142.5914  156.5224 H   0  0  0  0  0  0  0  0  0  0  0  0
  145.9814  141.7096  156.6754 H   0  0  0  0  0  0  0  0  0  0  0  0
  145.8818  141.6422  154.2061 H   0  0  0  0  0  0  0  0  0  0  0  0
  147.2870  142.6673  154.4965 H   0  0  0  0  0  0  0  0  0  0  0  0
  147.1983  139.9728  153.3323 H   0  0  0  0  0  0  0  0  0  0  0  0
  148.6307  140.9678  153.5114 H   0  0  0  0  0  0  0  0  0  0  0  0
  148.4833  138.7109  155.0211 H   0  0  0  0  0  0  0  0  0  0  0  0
  146.9135  139.2789  157.0476 H   0  0  0  0  0  0  0  0  0  0  0  0
  145.9911  139.3402  155.5284 H   0  0  0  0  0  0  0  0  0  0  0  0
  1  2  1  0  0  0  0
  1 21  1  0  0  0  0
  1 22  1  0  0  0  0
  1 23  1  0  0  0  0
  2  3  1  0  0  0  0
  2 14  1  0  0  0  0
  2 24  1  0  0  0  0
  3  4  1  0  0  0  0
  3 25  1  0  0  0  0
  4  5  2  0  0  0  0
  4  6  1  0  0  0  0
  6  7  1  0  0  0  0
  6 26  1  0  0  0  0
  6 27  1  0  0  0  0
  7 12  1  0  0  0  0
  7  8  1  0  0  0  0
  8  9  2  0  0  0  0
  8 28  1  0  0  0  0
  9 10  1  0  0  0  0
  9 29  1  0  0  0  0
 10 11  2  0  0  0  0
 10 30  1  0  0  0  0
 11 12  1  0  0  0  0
 11 31  1  0  0  0  0
 12 13  2  0  0  0  0
 14 19  1  0  0  0  0
 14 15  1  0  0  0  0
 14 32  1  0  0  0  0
 15 16  1  0  0  0  0
 15 33  1  0  0  0  0
 15 34  1  0  0  0  0
 16 20  1  0  0  0  0
 16 17  1  0  0  0  0
 16 35  1  0  0  0  0
 17 18  1  0  0  0  0
 17 36  1  0  0  0  0
 17 37  1  0  0  0  0
 18 19  1  0  0  0  0
 18 38  1  0  0  0  0
 18 39  1  0  0  0  0
 19 20  1  0  0  0  0
 19 40  1  0  0  0  0
 20 41  1  0  0  0  0
 20 42  1  0  0  0  0
M  END
> <s_m_source_file>
AV-unprocessed.smi

> <i_m_source_file_index>
332

> <i_lp_mmshare_version>
43012

> <i_f3d_flags>
0

> <s_epik_input>
W0NIMl0xW0NIMl1bQ0BIXShbQ0gyXTIpW0NAQEhdKFtDSDJdW0NAQEhdMTIpW0NASF0oW0NIM10pW05IXUMoPU8pW0NIMl1uM1tjSF1bY0hdW2NIXVtjSF1jMz1P

> <s_epik_cmdline>
J2VwaWtfcHl0aG9uJywgJy1waCcsICc3LjAnLCAnLXRuJywgJzgnLCAnLW1hJywgJzIwMCcsICctbWV0YWxfYmluZGluZycsICctaW1hZScsICc8aW5maWxlLm1hZT4nLCAnLW9tYWUnLCAnPG91dGZpbGUubWFlPic=

> <r_lp_tautomer_probability>
1

> <r_epik_Ionization_Penalty>
4.05802e-07

> <r_epik_Ionization_Penalty_Charging>
3.84175e-07

> <r_epik_Ionization_Penalty_Neutral>
2.16269e-08

> <r_epik_State_Penalty>
-0

> <r_epik_Charging_Adjusted_Penalty>
3.84175e-07

> <i_epik_Tot_Q>
0

> <i_epik_Tot_abs_Q>
0

> <r_epik_Metal_State_Penalty>
-0

> <b_epik_Metal_Only>
0

> <s_lp_Force_Field>
OPLS_2005

> <r_lp_Energy>
60.6012

> <b_lp_Chiralities_Consistent>
1

> <s_lp_Variant>
AV-unprocessed.smi:332-3

> <Gold.Version>
5.8.1

> <Gold.Id.Protein>
6NUR|6NUR_protein|mol2

> <Gold.PLP.Fitness>
42.4123

> <Gold.PLP.PLP>
-43.2557

> <Gold.PLP.part.hbond>
0.0000

> <Gold.PLP.part.metal>
0.0000

> <Gold.PLP.part.buried>
-3.4454

> <Gold.PLP.part.nonpolar>
-38.5465

> <Gold.PLP.part.repulsive>
0.0924

> <Gold.PLP.ligand.clash>
0.0000

> <Gold.PLP.ligand.torsion>
0.4290

> <Gold.PLP.Chemscore.Hbond>
0.0000

> <Gold.PLP.Chemscore.CHOScore>
0.0000

> <Gold.PLP.Chemscore.Metal>
0.0000

> <Gold.PLP.Chemscore.Internal.Correction>
0.0146

> <Gold.Rescore>
     Score         DG    S(hbond)    S(metal)    S(lipo)     H(rot)  DE(clash)    DE(int)     intcor
     12.86     -14.46       0.64        0.00      92.09       1.54       0.64       0.95       ----

> <Gold.Chemscore.Fitness>
12.8610

> <Gold.Chemscore.DG>
-14.4565

> <Gold.Chemscore.ZeroCoef>
-5.4800

> <Gold.Chemscore.Hbond>
0.6419

> <Gold.Chemscore.Metal>
0.0000

> <Gold.Chemscore.Lipo>
92.0895

> <Gold.Chemscore.Internal_Hbond>
0.0000

> <Gold.Chemscore.DEClash>
0.6423

> <Gold.Chemscore.DEInternal>
0.9532

> <Gold.Chemscore.Rot>
1.5398

> <Gold.Chemscore.Internal.Correction>
   9.000000E+99

> <Gold.Chemscore.Hbond.Weighted>
-2.1439

> <Gold.Chemscore.Metal.Weighted>
-0.0000

> <Gold.Chemscore.Lipo.Weighted>
-10.7745

> <Gold.Chemscore.Internal_Hbond.Weighted>
0.0000

> <Gold.Chemscore.DEClash.Weighted>
0.6423

> <Gold.Chemscore.DEInternal.Weighted>
0.9532

> <Gold.Chemscore.Rot.Weighted>
3.9419

> <Gold.Chemscore.Internal.Correction.Weighted>
   9.000000E+99

> <Gold.Protein.RotatedTorsions>
[ 6907 6896 6895 6894 ] final -126.26 input  -60.11 | X-H torsion
[ 7974 7965 7964 7962 ] final  179.66 input  175.53 | X-H torsion
[ 8008 7997 7996 7995 ] final -100.75 input   59.86 | X-H torsion
[ 10167 10162 10161 10158 ] final  -99.52 input  -65.29 | X-H torsion
[ 10718 10713 10712 10709 ] final -124.17 input   66.30 | X-H torsion
[ 10763 10752 10751 10750 ] final   89.99 input  -60.55 | X-H torsion
[ 11005 11000 10999 10996 ] final   69.77 input  -57.11 | X-H torsion

> <Gold.Protein.ActiveResidues>
 VAL166  LYS551  ARG553  GLY616  TRP617  ASP618  TYR619  PRO620  LYS621  CYS622 
 ASP623  PHE694  ASN695  SER759  ASP760  ASP761  ALA762  ILE779  LEU786  VAL792 
 PHE793  MET794  SER795  GLU796  ALA797  LYS798  CYS799  TRP800  GLU811  SER814 

> <Gold.Protein.RotatedAtoms>
  150.8951  133.7192  159.2893 H   0  0  0  0  0  0  0  0  0  0  0  0  # atno 6907 bound_to 6896
  151.4729  135.1045  159.9766 H   0  0  0  0  0  0  0  0  0  0  0  0  # atno 6908 bound_to 6896
  152.4843  133.8286  159.7147 H   0  0  0  0  0  0  0  0  0  0  0  0  # atno 6909 bound_to 6896
  144.7144  140.0581  143.6433 H   0  0  0  0  0  0  0  0  0  0  0  0  # atno 7974 bound_to 7965
  154.8329  140.0439  157.1489 H   0  0  0  0  0  0  0  0  0  0  0  0  # atno 8008 bound_to 7997
  154.9132  140.3016  155.5235 H   0  0  0  0  0  0  0  0  0  0  0  0  # atno 8009 bound_to 7997
  156.2988  140.2354  156.4174 H   0  0  0  0  0  0  0  0  0  0  0  0  # atno 8010 bound_to 7997
  140.2616  143.3403  152.0620 H   0  0  0  0  0  0  0  0  0  0  0  0  # atno 10167 bound_to 10162
  156.1565  130.6571  150.9989 H   0  0  0  0  0  0  0  0  0  0  0  0  # atno 10718 bound_to 10713
  153.1928  135.4450  155.0171 H   0  0  0  0  0  0  0  0  0  0  0  0  # atno 10763 bound_to 10752
  154.8101  135.3290  154.7331 H   0  0  0  0  0  0  0  0  0  0  0  0  # atno 10764 bound_to 10752
  153.7784  135.6979  153.4948 H   0  0  0  0  0  0  0  0  0  0  0  0  # atno 10765 bound_to 10752
  139.9635  134.7021  156.0595 H   0  0  0  0  0  0  0  0  0  0  0  0  # atno 11005 bound_to 11000
  145.9887  139.2998  143.0998 LP  0  0  0  0  0  0  0  0  0  0  0  0  # atno 17320 bound_to 7965
  145.8927  140.9293  143.0543 LP  0  0  0  0  0  0  0  0  0  0  0  0  # atno 17321 bound_to 7965
  139.5015  144.6715  151.6232 LP  0  0  0  0  0  0  0  0  0  0  0  0  # atno 17342 bound_to 10162
  140.5961  143.9693  150.6355 LP  0  0  0  0  0  0  0  0  0  0  0  0  # atno 17343 bound_to 10162
  157.6699  131.0863  150.7638 LP  0  0  0  0  0  0  0  0  0  0  0  0  # atno 17370 bound_to 10713
  156.7703  130.4826  149.5419 LP  0  0  0  0  0  0  0  0  0  0  0  0  # atno 17371 bound_to 10713
  141.1313  133.6585  156.3473 LP  0  0  0  0  0  0  0  0  0  0  0  0  # atno 17394 bound_to 11000
  140.5448  134.6085  157.5390 LP  0  0  0  0  0  0  0  0  0  0  0  0  # atno 17395 bound_to 11000

$$$$
