AV-unprocessed.smi:1644|AV-procd|sdf|6596|dock4
  -GOLD-   22720 7293D 1   1.00000     0.00000
 Structure written by MMmdl.
 49 51  0  0  0  0  0  0  0  0  3 V2000
  147.6279  135.7060  163.0624 C   0  0  0  0  0  0  0  0  0  0  0  0
  146.4450  135.0351  162.3564 C   0  0  0  0  0  0  0  0  0  0  0  0
  146.8678  134.3140  161.0582 C   0  0  0  0  0  0  0  0  0  0  0  0
  146.9858  135.1983  159.7927 C   0  0  2  0  0  0  0  0  0  0  0  0
  147.4800  134.4489  158.6563 N   0  5  0  0  0  0  0  0  0  0  0  0
  148.5924  135.0640  158.1904 C   0  0  0  0  0  0  0  0  0  0  0  0
  149.2914  134.7021  157.2440 O   0  0  0  0  0  0  0  0  0  0  0  0
  148.8831  136.1601  158.9189 N   0  0  0  0  0  0  0  0  0  0  0  0
  150.0479  137.0247  158.7086 C   0  0  0  0  0  0  0  0  0  0  0  0
  149.6369  138.3873  158.1131 C   0  0  2  0  0  0  0  0  0  0  0  0
  148.7265  138.1763  157.0513 O   0  0  0  0  0  0  0  0  0  0  0  0
  150.8473  139.1668  157.5638 C   0  0  0  0  0  0  0  0  0  0  0  0
  150.5420  140.5841  157.3346 N   0  0  0  0  0  0  0  0  0  0  0  0
  149.7774  141.1789  156.3796 C   0  0  0  0  0  0  0  0  0  0  0  0
  149.8079  142.5215  156.6085 N   0  3  0  0  0  0  0  0  0  0  0  0
  150.5999  142.7858  157.7289 C   0  0  0  0  0  0  0  0  0  0  0  0
  150.9258  143.9831  158.3553 C   0  0  0  0  0  0  0  0  0  0  0  0
  151.7599  143.9092  159.4943 C   0  0  0  0  0  0  0  0  0  0  0  0
  152.1279  145.1984  160.2084 C   0  0  0  0  0  0  0  0  0  0  0  0
  152.2445  142.6611  159.9654 C   0  0  0  0  0  0  0  0  0  0  0  0
  153.1399  142.5916  161.1905 C   0  0  0  0  0  0  0  0  0  0  0  0
  151.9050  141.4554  159.3122 C   0  0  0  0  0  0  0  0  0  0  0  0
  151.0769  141.5465  158.1963 C   0  0  0  0  0  0  0  0  0  0  0  0
  147.9985  136.3196  159.9074 C   0  0  0  0  0  0  0  0  0  0  0  0
  147.9831  137.1933  160.7750 O   0  0  0  0  0  0  0  0  0  0  0  0
  147.3007  136.2150  163.9691 H   0  0  0  0  0  0  0  0  0  0  0  0
  148.1025  136.4464  162.4178 H   0  0  0  0  0  0  0  0  0  0  0  0
  148.3835  134.9730  163.3455 H   0  0  0  0  0  0  0  0  0  0  0  0
  145.9798  134.3312  163.0467 H   0  0  0  0  0  0  0  0  0  0  0  0
  145.6919  135.7912  162.1333 H   0  0  0  0  0  0  0  0  0  0  0  0
  147.8242  133.8167  161.2253 H   0  0  0  0  0  0  0  0  0  0  0  0
  146.1553  133.5132  160.8558 H   0  0  0  0  0  0  0  0  0  0  0  0
  146.0125  135.6436  159.5826 H   0  0  0  0  0  0  0  0  0  0  0  0
  150.5263  137.1728  159.6782 H   0  0  0  0  0  0  0  0  0  0  0  0
  150.8054  136.5357  158.0930 H   0  0  0  0  0  0  0  0  0  0  0  0
  149.1396  138.9928  158.8715 H   0  0  0  0  0  0  0  0  0  0  0  0
  148.5076  137.2575  157.0223 H   0  0  0  0  0  0  0  0  0  0  0  0
  151.6904  139.1150  158.2540 H   0  0  0  0  0  0  0  0  0  0  0  0
  151.1905  138.7379  156.6213 H   0  0  0  0  0  0  0  0  0  0  0  0
  149.2399  140.6767  155.5882 H   0  0  0  0  0  0  0  0  0  0  0  0
  150.5539  144.9298  157.9912 H   0  0  0  0  0  0  0  0  0  0  0  0
  151.8167  145.1607  161.2528 H   0  0  0  0  0  0  0  0  0  0  0  0
  151.6451  146.0616  159.7489 H   0  0  0  0  0  0  0  0  0  0  0  0
  153.2055  145.3597  160.1730 H   0  0  0  0  0  0  0  0  0  0  0  0
  153.4595  141.5686  161.3931 H   0  0  0  0  0  0  0  0  0  0  0  0
  152.6104  142.9557  162.0712 H   0  0  0  0  0  0  0  0  0  0  0  0
  154.0351  143.1970  161.0475 H   0  0  0  0  0  0  0  0  0  0  0  0
  152.2683  140.5038  159.6734 H   0  0  0  0  0  0  0  0  0  0  0  0
  149.3194  143.2040  156.0429 H   0  0  0  0  0  0  0  0  0  0  0  0
  1  2  1  0  0  0  0
  1 26  1  0  0  0  0
  1 27  1  0  0  0  0
  1 28  1  0  0  0  0
  2  3  1  0  0  0  0
  2 29  1  0  0  0  0
  2 30  1  0  0  0  0
  3  4  1  0  0  0  0
  3 31  1  0  0  0  0
  3 32  1  0  0  0  0
  4 24  1  0  0  0  0
  4  5  1  0  0  0  0
  4 33  1  0  0  0  0
  5  6  1  0  0  0  0
  6  7  2  0  0  0  0
  6  8  1  0  0  0  0
  8  9  1  0  0  0  0
  8 24  1  0  0  0  0
  9 10  1  0  0  0  0
  9 34  1  0  0  0  0
  9 35  1  0  0  0  0
 10 11  1  0  0  0  0
 10 12  1  0  0  0  0
 10 36  1  0  0  0  0
 11 37  1  0  0  0  0
 12 13  1  0  0  0  0
 12 38  1  0  0  0  0
 12 39  1  0  0  0  0
 13 23  1  0  0  0  0
 13 14  1  0  0  0  0
 14 15  2  0  0  0  0
 14 40  1  0  0  0  0
 15 16  1  0  0  0  0
 15 49  1  0  0  0  0
 16 23  2  0  0  0  0
 16 17  1  0  0  0  0
 17 18  2  0  0  0  0
 17 41  1  0  0  0  0
 18 19  1  0  0  0  0
 18 20  1  0  0  0  0
 19 42  1  0  0  0  0
 19 43  1  0  0  0  0
 19 44  1  0  0  0  0
 20 21  1  0  0  0  0
 20 22  2  0  0  0  0
 21 45  1  0  0  0  0
 21 46  1  0  0  0  0
 21 47  1  0  0  0  0
 22 23  1  0  0  0  0
 22 48  1  0  0  0  0
 24 25  2  0  0  0  0
M  CHG  1   5  -1
M  CHG  1  15   1
M  END
> <s_m_source_file>
AV-unprocessed.smi

> <i_m_source_file_index>
1644

> <i_lp_mmshare_version>
43012

> <i_f3d_flags>
0

> <s_epik_input>
W0NIM11bQ0gyXVtDSDJdW0NAQEhdMVtOSF1DKD1PKU4oQzE9TylbQ0gyXVtDQEhdKFtPSF0pW0NIMl1uKFtjSF1uMiljKGMyMylbY0hdYyhbQ0gzXSljKFtjSF0zKVtDSDNd

> <s_epik_cmdline>
J2VwaWtfcHl0aG9uJywgJy1waCcsICc3LjAnLCAnLXRuJywgJzgnLCAnLW1hJywgJzIwMCcsICctbWV0YWxfYmluZGluZycsICctaW1hZScsICc8aW5maWxlLm1hZT4nLCAnLW9tYWUnLCAnPG91dGZpbGUubWFlPic=

> <r_lp_tautomer_probability>
1

> <r_epik_Ionization_Penalty>
6.86868

> <r_epik_Ionization_Penalty_Charging>
6.86868

> <r_epik_Ionization_Penalty_Neutral>
5.84798e-07

> <r_epik_State_Penalty>
6.92818

> <r_epik_Charging_Adjusted_Penalty>
13.7969

> <i_epik_Tot_Q>
0

> <i_epik_Tot_abs_Q>
2

> <r_epik_Metal_State_Penalty>
2.98017

> <b_epik_Metal_Only>
1

> <s_lp_Force_Field>
OPLS_2005

> <r_lp_Energy>
22.7735

> <b_lp_Chiralities_Consistent>
1

> <s_lp_Variant>
AV-unprocessed.smi:1644-13

> <Gold.Version>
5.8.1

> <Gold.Id.Protein>
6NUR|6NUR_protein|mol2

> <Gold.PLP.Fitness>
57.5228

> <Gold.PLP.PLP>
-47.7903

> <Gold.PLP.part.hbond>
-3.0000

> <Gold.PLP.part.metal>
0.0000

> <Gold.PLP.part.buried>
-6.5302

> <Gold.PLP.part.nonpolar>
-39.1577

> <Gold.PLP.part.repulsive>
0.0493

> <Gold.PLP.ligand.clash>
0.0000

> <Gold.PLP.ligand.torsion>
0.6233

> <Gold.PLP.Chemscore.Hbond>
3.6320

> <Gold.PLP.Chemscore.CHOScore>
0.0000

> <Gold.PLP.Chemscore.Metal>
0.0000

> <Gold.Chemscore.Hbonds>
donor molecule, donor type, donor heavy atom, donor atom, acceptor molecule, acceptor atom, score
      L1  H    15    49       P1  8028  2.00
      P1  H  6931  6943       L1    25  0.85
      P1  H  6934  6947       L1    25  0.77

> <Gold.PLP.Chemscore.Internal.Correction>
0.0831

> <Gold.Rescore>
     Score         DG    S(hbond)    S(metal)    S(lipo)     H(rot)  DE(clash)    DE(int)     intcor
     18.97     -21.10       2.60        0.00     118.96       2.72       0.09       2.04       ----

> <Gold.Chemscore.Fitness>
18.9661

> <Gold.Chemscore.DG>
-21.0959

> <Gold.Chemscore.ZeroCoef>
-5.4800

> <Gold.Chemscore.Hbond>
2.5965

> <Gold.Chemscore.Metal>
0.0000

> <Gold.Chemscore.Lipo>
118.9615

> <Gold.Chemscore.Internal_Hbond>
0.0000

> <Gold.Chemscore.DEClash>
0.0918

> <Gold.Chemscore.DEInternal>
2.0381

> <Gold.Chemscore.Rot>
2.7245

> <Gold.Chemscore.Internal.Correction>
   9.000000E+99

> <Gold.Chemscore.Hbonds>
donor molecule, donor type, donor heavy atom, donor atom, acceptor molecule, acceptor atom, score
      L1  H    15    49       P1  8028  0.96
      P1  H  6931  6943       L1    25  0.85
      P1  H  6934  6947       L1    25  0.73

> <Gold.Chemscore.Hbond.Weighted>
-8.6722

> <Gold.Chemscore.Metal.Weighted>
-0.0000

> <Gold.Chemscore.Lipo.Weighted>
-13.9185

> <Gold.Chemscore.Internal_Hbond.Weighted>
0.0000

> <Gold.Chemscore.DEClash.Weighted>
0.0918

> <Gold.Chemscore.DEInternal.Weighted>
2.0381

> <Gold.Chemscore.Rot.Weighted>
6.9748

> <Gold.Chemscore.Internal.Correction.Weighted>
   9.000000E+99

> <Gold.Protein.RotatedTorsions>
[ 6907 6896 6895 6894 ] final  -85.44 input  -60.11 | X-H torsion
[ 7974 7965 7964 7962 ] final -118.71 input  175.53 | X-H torsion
[ 8008 7997 7996 7995 ] final  -26.62 input   59.86 | X-H torsion
[ 10167 10162 10161 10158 ] final   84.17 input  -65.29 | X-H torsion
[ 10718 10713 10712 10709 ] final  -79.52 input   66.30 | X-H torsion
[ 10763 10752 10751 10750 ] final   51.26 input  -60.55 | X-H torsion
[ 11005 11000 10999 10996 ] final -168.95 input  -57.11 | X-H torsion

> <Gold.Protein.ActiveResidues>
 VAL166  LYS551  ARG553  GLY616  TRP617  ASP618  TYR619  PRO620  LYS621  CYS622 
 ASP623  PHE694  ASN695  SER759  ASP760  ASP761  ALA762  ILE779  LEU786  VAL792 
 PHE793  MET794  SER795  GLU796  ALA797  LYS798  CYS799  TRP800  GLU811  SER814 

> <Gold.Protein.RotatedAtoms>
  150.6870  134.3204  159.4783 H   0  0  0  0  0  0  0  0  0  0  0  0  # atno 6907 bound_to 6896
  152.1080  134.9292  160.0577 H   0  0  0  0  0  0  0  0  0  0  0  0  # atno 6908 bound_to 6896
  152.0545  133.3999  159.4428 H   0  0  0  0  0  0  0  0  0  0  0  0  # atno 6909 bound_to 6896
  145.0707  140.8357  143.4097 H   0  0  0  0  0  0  0  0  0  0  0  0  # atno 7974 bound_to 7965
  154.4416  140.1894  156.0804 H   0  0  0  0  0  0  0  0  0  0  0  0  # atno 8008 bound_to 7997
  156.0443  140.3316  155.7252 H   0  0  0  0  0  0  0  0  0  0  0  0  # atno 8009 bound_to 7997
  155.5653  140.0607  157.2810 H   0  0  0  0  0  0  0  0  0  0  0  0  # atno 8010 bound_to 7997
  139.9108  144.6273  150.8539 H   0  0  0  0  0  0  0  0  0  0  0  0  # atno 10167 bound_to 10162
  156.0090  130.4548  150.3661 H   0  0  0  0  0  0  0  0  0  0  0  0  # atno 10718 bound_to 10713
  152.9785  135.5851  154.4387 H   0  0  0  0  0  0  0  0  0  0  0  0  # atno 10763 bound_to 10752
  154.3991  135.2768  155.2110 H   0  0  0  0  0  0  0  0  0  0  0  0  # atno 10764 bound_to 10752
  154.3948  135.6117  153.5918 H   0  0  0  0  0  0  0  0  0  0  0  0  # atno 10765 bound_to 10752
  140.5362  134.5568  157.5088 H   0  0  0  0  0  0  0  0  0  0  0  0  # atno 11005 bound_to 11000
  145.1296  139.2641  143.5546 LP  0  0  0  0  0  0  0  0  0  0  0  0  # atno 17320 bound_to 7965
  146.3528  140.0943  142.8611 LP  0  0  0  0  0  0  0  0  0  0  0  0  # atno 17321 bound_to 7965
  140.7686  143.3367  151.2294 LP  0  0  0  0  0  0  0  0  0  0  0  0  # atno 17342 bound_to 10162
  139.6944  143.9638  152.2875 LP  0  0  0  0  0  0  0  0  0  0  0  0  # atno 17343 bound_to 10162
  157.1748  131.0377  151.2778 LP  0  0  0  0  0  0  0  0  0  0  0  0  # atno 17370 bound_to 10713
  157.4198  130.7431  149.6904 LP  0  0  0  0  0  0  0  0  0  0  0  0  # atno 17371 bound_to 10713
  139.9528  134.7587  156.0409 LP  0  0  0  0  0  0  0  0  0  0  0  0  # atno 17394 bound_to 11000
  141.1253  133.6601  156.3321 LP  0  0  0  0  0  0  0  0  0  0  0  0  # atno 17395 bound_to 11000

$$$$
