AV-unprocessed.smi:2109|AV-procd|sdf|8606|dock3
  -GOLD-   2272011343D 1   1.00000     0.00000
 Structure written by MMmdl.
 45 46  0  0  0  0  0  0  0  0  1 V2000
  147.0255  133.8678  162.5319 C   0  0  0  0  0  0  0  0  0  0  0  0
  147.7698  135.0591  161.9047 C   0  0  0  0  0  0  0  0  0  0  0  0
  147.7664  136.2646  162.8563 C   0  0  0  0  0  0  0  0  0  0  0  0
  147.1972  135.4529  160.5258 C   0  0  0  0  0  0  0  0  0  0  0  0
  147.8796  136.5973  159.9298 N   0  0  0  0  0  0  0  0  0  0  0  0
  148.9418  136.5201  159.1158 C   0  0  0  0  0  0  0  0  0  0  0  0
  149.4566  135.4627  158.7514 O   0  0  0  0  0  0  0  0  0  0  0  0
  149.3782  137.7324  158.7482 N   0  0  0  0  0  0  0  0  0  0  0  0
  150.5027  137.9686  157.8505 C   0  0  0  0  0  0  0  0  0  0  0  0
  150.7440  139.4437  157.5802 C   0  0  0  0  0  0  0  0  0  0  0  0
  150.7874  139.9336  156.2607 C   0  0  0  0  0  0  0  0  0  0  0  0
  151.0078  141.3095  156.0672 C   0  0  0  0  0  0  0  0  0  0  0  0
  151.1907  142.1800  157.0821 N   0  0  0  0  0  0  0  0  0  0  0  0
  151.1645  141.7177  158.3570 C   0  0  0  0  0  0  0  0  0  0  0  0
  151.3733  142.6372  159.4082 N   0  0  0  0  0  0  0  0  0  0  0  0
  151.3055  144.0631  159.0920 C   0  0  0  0  0  0  0  0  0  0  0  0
  151.2821  144.8991  160.3827 C   0  0  0  0  0  0  0  0  0  0  0  0
  152.4086  144.5691  161.1880 O   0  0  0  0  0  0  0  0  0  0  0  0
  152.3967  143.2001  161.5783 C   0  0  0  0  0  0  0  0  0  0  0  0
  152.4555  142.3015  160.3310 C   0  0  0  0  0  0  0  0  0  0  0  0
  150.9346  140.3508  158.6439 C   0  0  0  0  0  0  0  0  0  0  0  0
  145.9683  134.0925  162.6758 H   0  0  0  0  0  0  0  0  0  0  0  0
  147.4463  133.6135  163.5050 H   0  0  0  0  0  0  0  0  0  0  0  0
  147.0963  132.9770  161.9078 H   0  0  0  0  0  0  0  0  0  0  0  0
  148.8105  134.7622  161.7698 H   0  0  0  0  0  0  0  0  0  0  0  0
  146.7525  136.6206  163.0426 H   0  0  0  0  0  0  0  0  0  0  0  0
  148.3397  137.0943  162.4416 H   0  0  0  0  0  0  0  0  0  0  0  0
  148.2116  136.0081  163.8180 H   0  0  0  0  0  0  0  0  0  0  0  0
  147.2837  134.6136  159.8349 H   0  0  0  0  0  0  0  0  0  0  0  0
  146.1311  135.6721  160.6072 H   0  0  0  0  0  0  0  0  0  0  0  0
  147.5256  137.5124  160.1671 H   0  0  0  0  0  0  0  0  0  0  0  0
  148.8925  138.5451  159.0981 H   0  0  0  0  0  0  0  0  0  0  0  0
  151.3994  137.5526  158.3101 H   0  0  0  0  0  0  0  0  0  0  0  0
  150.3587  137.4277  156.9134 H   0  0  0  0  0  0  0  0  0  0  0  0
  150.6469  139.2766  155.4149 H   0  0  0  0  0  0  0  0  0  0  0  0
  151.0406  141.7225  155.0698 H   0  0  0  0  0  0  0  0  0  0  0  0
  152.1679  144.3404  158.4842 H   0  0  0  0  0  0  0  0  0  0  0  0
  150.4102  144.2776  158.5070 H   0  0  0  0  0  0  0  0  0  0  0  0
  151.3171  145.9615  160.1419 H   0  0  0  0  0  0  0  0  0  0  0  0
  150.3595  144.7291  160.9401 H   0  0  0  0  0  0  0  0  0  0  0  0
  153.2568  143.0073  162.2199 H   0  0  0  0  0  0  0  0  0  0  0  0
  151.5048  142.9863  162.1697 H   0  0  0  0  0  0  0  0  0  0  0  0
  152.4114  141.2597  160.6447 H   0  0  0  0  0  0  0  0  0  0  0  0
  153.4088  142.4377  159.8185 H   0  0  0  0  0  0  0  0  0  0  0  0
  150.8939  139.9947  159.6625 H   0  0  0  0  0  0  0  0  0  0  0  0
  1  2  1  0  0  0  0
  1 22  1  0  0  0  0
  1 23  1  0  0  0  0
  1 24  1  0  0  0  0
  2  3  1  0  0  0  0
  2  4  1  0  0  0  0
  2 25  1  0  0  0  0
  3 26  1  0  0  0  0
  3 27  1  0  0  0  0
  3 28  1  0  0  0  0
  4  5  1  0  0  0  0
  4 29  1  0  0  0  0
  4 30  1  0  0  0  0
  5  6  1  0  0  0  0
  5 31  1  0  0  0  0
  6  7  2  0  0  0  0
  6  8  1  0  0  0  0
  8  9  1  0  0  0  0
  8 32  1  0  0  0  0
  9 10  1  0  0  0  0
  9 33  1  0  0  0  0
  9 34  1  0  0  0  0
 10 21  1  0  0  0  0
 10 11  2  0  0  0  0
 11 12  1  0  0  0  0
 11 35  1  0  0  0  0
 12 13  2  0  0  0  0
 12 36  1  0  0  0  0
 13 14  1  0  0  0  0
 14 15  1  0  0  0  0
 14 21  2  0  0  0  0
 15 20  1  0  0  0  0
 15 16  1  0  0  0  0
 16 17  1  0  0  0  0
 16 37  1  0  0  0  0
 16 38  1  0  0  0  0
 17 18  1  0  0  0  0
 17 39  1  0  0  0  0
 17 40  1  0  0  0  0
 18 19  1  0  0  0  0
 19 20  1  0  0  0  0
 19 41  1  0  0  0  0
 19 42  1  0  0  0  0
 20 43  1  0  0  0  0
 20 44  1  0  0  0  0
 21 45  1  0  0  0  0
M  END
> <s_m_source_file>
AV-unprocessed.smi

> <i_m_source_file_index>
2109

> <i_lp_mmshare_version>
43012

> <i_f3d_flags>
0

> <s_epik_input>
W0NIM11bQ0hdKFtDSDNdKVtDSDJdW05IXUMoPU8pW05IXVtDSDJdYzFbY0hdW2NIXW5jKFtjSF0xKU4yW0NIMl1bQ0gyXU9bQ0gyXVtDSDJdMg==

> <s_epik_cmdline>
J2VwaWtfcHl0aG9uJywgJy1waCcsICc3LjAnLCAnLXRuJywgJzgnLCAnLW1hJywgJzIwMCcsICctbWV0YWxfYmluZGluZycsICctaW1hZScsICc8aW5maWxlLm1hZT4nLCAnLW9tYWUnLCAnPG91dGZpbGUubWFlPic=

> <r_lp_tautomer_probability>
1

> <r_epik_Ionization_Penalty>
0.012582

> <r_epik_Ionization_Penalty_Charging>
0

> <r_epik_Ionization_Penalty_Neutral>
0.012582

> <r_epik_State_Penalty>
0.00970236

> <r_epik_Charging_Adjusted_Penalty>
0.00970236

> <i_epik_Tot_Q>
0

> <i_epik_Tot_abs_Q>
0

> <r_epik_Metal_State_Penalty>
0.00950075

> <b_epik_Metal_Only>
0

> <s_lp_Force_Field>
OPLS_2005

> <r_lp_Energy>
12.0327

> <b_lp_Chiralities_Consistent>
1

> <s_lp_Variant>
AV-unprocessed.smi:2109-1

> <Gold.Version>
5.8.1

> <Gold.Id.Protein>
6NUR|6NUR_protein|mol2

> <Gold.PLP.Fitness>
43.2105

> <Gold.PLP.PLP>
-40.6703

> <Gold.PLP.part.hbond>
-1.0000

> <Gold.PLP.part.metal>
0.0000

> <Gold.PLP.part.buried>
-4.3276

> <Gold.PLP.part.nonpolar>
-35.1367

> <Gold.PLP.part.repulsive>
0.5918

> <Gold.PLP.ligand.clash>
0.0000

> <Gold.PLP.ligand.torsion>
0.4033

> <Gold.PLP.Chemscore.Hbond>
1.0000

> <Gold.PLP.Chemscore.CHOScore>
0.0000

> <Gold.PLP.Chemscore.Metal>
0.0000

> <Gold.Chemscore.Hbonds>
donor molecule, donor type, donor heavy atom, donor atom, acceptor molecule, acceptor atom, score
      P1  H  6896  6907       L1     7  1.00

> <Gold.PLP.Chemscore.Internal.Correction>
0.3467

> <Gold.Rescore>
     Score         DG    S(hbond)    S(metal)    S(lipo)     H(rot)  DE(clash)    DE(int)     intcor
     15.62     -16.12       0.98        0.00     101.75       1.77       0.08       0.41       ----

> <Gold.Chemscore.Fitness>
15.6216

> <Gold.Chemscore.DG>
-16.1204

> <Gold.Chemscore.ZeroCoef>
-5.4800

> <Gold.Chemscore.Hbond>
0.9753

> <Gold.Chemscore.Metal>
0.0000

> <Gold.Chemscore.Lipo>
101.7450

> <Gold.Chemscore.Internal_Hbond>
0.0000

> <Gold.Chemscore.DEClash>
0.0849

> <Gold.Chemscore.DEInternal>
0.4140

> <Gold.Chemscore.Rot>
1.7662

> <Gold.Chemscore.Internal.Correction>
   9.000000E+99

> <Gold.Chemscore.Hbonds>
donor molecule, donor type, donor heavy atom, donor atom, acceptor molecule, acceptor atom, score
      P1  H  6896  6907       L1     7  0.94

> <Gold.Chemscore.Hbond.Weighted>
-3.2576

> <Gold.Chemscore.Metal.Weighted>
-0.0000

> <Gold.Chemscore.Lipo.Weighted>
-11.9042

> <Gold.Chemscore.Internal_Hbond.Weighted>
0.0000

> <Gold.Chemscore.DEClash.Weighted>
0.0849

> <Gold.Chemscore.DEInternal.Weighted>
0.4140

> <Gold.Chemscore.Rot.Weighted>
4.5214

> <Gold.Chemscore.Internal.Correction.Weighted>
   9.000000E+99

> <Gold.Protein.RotatedTorsions>
[ 6907 6896 6895 6894 ] final  -88.55 input  -60.11 | X-H torsion
[ 7974 7965 7964 7962 ] final  -82.73 input  175.53 | X-H torsion
[ 8008 7997 7996 7995 ] final -120.92 input   59.86 | X-H torsion
[ 10167 10162 10161 10158 ] final -163.65 input  -65.29 | X-H torsion
[ 10718 10713 10712 10709 ] final   60.20 input   66.30 | X-H torsion
[ 10763 10752 10751 10750 ] final -119.14 input  -60.55 | X-H torsion
[ 11005 11000 10999 10996 ] final  110.95 input  -57.11 | X-H torsion

> <Gold.Protein.ActiveResidues>
 VAL166  LYS551  ARG553  GLY616  TRP617  ASP618  TYR619  PRO620  LYS621  CYS622 
 ASP623  PHE694  ASN695  SER759  ASP760  ASP761  ALA762  ILE779  LEU786  VAL792 
 PHE793  MET794  SER795  GLU796  ALA797  LYS798  CYS799  TRP800  GLU811  SER814 

> <Gold.Protein.RotatedAtoms>
  150.6869  134.2724  159.4593 H   0  0  0  0  0  0  0  0  0  0  0  0  # atno 6907 bound_to 6896
  152.0645  134.9570  160.0584 H   0  0  0  0  0  0  0  0  0  0  0  0  # atno 6908 bound_to 6896
  152.0984  133.4202  159.4613 H   0  0  0  0  0  0  0  0  0  0  0  0  # atno 6909 bound_to 6896
  145.5294  140.9523  143.1611 H   0  0  0  0  0  0  0  0  0  0  0  0  # atno 7974 bound_to 7965
  155.1396  140.0401  157.2795 H   0  0  0  0  0  0  0  0  0  0  0  0  # atno 8008 bound_to 7997
  154.6482  140.2563  155.7217 H   0  0  0  0  0  0  0  0  0  0  0  0  # atno 8009 bound_to 7997
  156.2565  140.2841  156.0905 H   0  0  0  0  0  0  0  0  0  0  0  0  # atno 8010 bound_to 7997
  139.6305  144.0448  152.2012 H   0  0  0  0  0  0  0  0  0  0  0  0  # atno 10167 bound_to 10162
  157.5735  130.8925  149.9307 H   0  0  0  0  0  0  0  0  0  0  0  0  # atno 10718 bound_to 10713
  154.8608  135.4249  154.2251 H   0  0  0  0  0  0  0  0  0  0  0  0  # atno 10763 bound_to 10752
  153.3248  135.6984  153.7005 H   0  0  0  0  0  0  0  0  0  0  0  0  # atno 10764 bound_to 10752
  153.6045  135.3530  155.2931 H   0  0  0  0  0  0  0  0  0  0  0  0  # atno 10765 bound_to 10752
  139.8893  134.9496  156.6357 H   0  0  0  0  0  0  0  0  0  0  0  0  # atno 11005 bound_to 11000
  144.7634  139.6903  143.7225 LP  0  0  0  0  0  0  0  0  0  0  0  0  # atno 17320 bound_to 7965
  146.2054  139.5375  142.9716 LP  0  0  0  0  0  0  0  0  0  0  0  0  # atno 17321 bound_to 7965
  140.0112  144.6222  150.7645 LP  0  0  0  0  0  0  0  0  0  0  0  0  # atno 17342 bound_to 10162
  140.7436  143.2849  151.3492 LP  0  0  0  0  0  0  0  0  0  0  0  0  # atno 17343 bound_to 10162
  156.0780  130.3676  150.0639 LP  0  0  0  0  0  0  0  0  0  0  0  0  # atno 17370 bound_to 10713
  156.8788  130.9549  151.3601 LP  0  0  0  0  0  0  0  0  0  0  0  0  # atno 17371 bound_to 10713
  140.7632  133.8800  155.8434 LP  0  0  0  0  0  0  0  0  0  0  0  0  # atno 17394 bound_to 11000
  140.9904  134.1286  157.4413 LP  0  0  0  0  0  0  0  0  0  0  0  0  # atno 17395 bound_to 11000

$$$$
