AV-unprocessed.smi:2837|AV-procd|sdf|10926|dock6
  -GOLD-   2272015373D 1   1.00000     0.00000
 Structure written by MMmdl.
 33 35  0  0  0  0  0  0  0  0  2 V2000
  153.4049  142.6691  162.4272 F   0  0  0  0  0  0  0  0  0  0  0  0
  152.4870  142.9827  161.4803 C   0  0  0  0  0  0  0  0  0  0  0  0
  152.1948  144.2985  161.6141 F   0  0  0  0  0  0  0  0  0  0  0  0
  152.9873  142.7480  160.2380 O   0  0  0  0  0  0  0  0  0  0  0  0
  152.1209  142.6048  159.1782 C   0  0  0  0  0  0  0  0  0  0  0  0
  151.6227  141.3172  158.8901 C   0  0  0  0  0  0  0  0  0  0  0  0
  150.7236  141.1343  157.8197 C   0  0  0  0  0  0  0  0  0  0  0  0
  150.3221  142.2520  157.0502 C   0  0  0  0  0  0  0  0  0  0  0  0
  149.4363  142.1942  155.9655 N   0  0  0  0  0  0  0  0  0  0  0  0
  148.8442  140.9320  155.5375 C   0  0  2  0  0  0  0  0  0  0  0  0
  149.0476  140.6500  154.0467 C   0  0  0  0  0  0  0  0  0  0  0  0
  147.6109  140.3825  153.5769 C   0  0  2  0  0  0  0  0  0  0  0  0
  146.8009  141.6810  153.4752 C   0  0  0  0  0  0  0  0  0  0  0  0
  146.5799  142.0245  154.9469 C   0  0  0  0  0  0  0  0  0  0  0  0
  147.3079  140.8700  155.6571 C   0  0  1  0  0  0  0  0  0  0  0  0
  147.0440  139.8161  154.7470 O   0  0  0  0  0  0  0  0  0  0  0  0
  150.8136  143.4708  157.3645 N   0  3  0  0  0  0  0  0  0  0  0  0
  151.6778  143.6869  158.3802 C   0  0  0  0  0  0  0  0  0  0  0  0
  151.5715  142.4182  161.6590 H   0  0  0  0  0  0  0  0  0  0  0  0
  151.9321  140.4712  159.4863 H   0  0  0  0  0  0  0  0  0  0  0  0
  150.3584  140.1406  157.6077 H   0  0  0  0  0  0  0  0  0  0  0  0
  149.0573  143.0510  155.5885 H   0  0  0  0  0  0  0  0  0  0  0  0
  149.2905  140.1129  156.1025 H   0  0  0  0  0  0  0  0  0  0  0  0
  149.5080  141.4742  153.4996 H   0  0  0  0  0  0  0  0  0  0  0  0
  149.6719  139.7659  153.9119 H   0  0  0  0  0  0  0  0  0  0  0  0
  147.5446  139.7496  152.6915 H   0  0  0  0  0  0  0  0  0  0  0  0
  147.3328  142.4626  152.9317 H   0  0  0  0  0  0  0  0  0  0  0  0
  145.8468  141.5060  152.9765 H   0  0  0  0  0  0  0  0  0  0  0  0
  146.9655  143.0074  155.2181 H   0  0  0  0  0  0  0  0  0  0  0  0
  145.5153  142.0062  155.1820 H   0  0  0  0  0  0  0  0  0  0  0  0
  146.9470  140.6801  156.6679 H   0  0  0  0  0  0  0  0  0  0  0  0
  151.9773  144.7156  158.5194 H   0  0  0  0  0  0  0  0  0  0  0  0
  150.5153  144.2728  156.8087 H   0  0  0  0  0  0  0  0  0  0  0  0
  1  2  1  0  0  0  0
  2  3  1  0  0  0  0
  2  4  1  0  0  0  0
  2 19  1  0  0  0  0
  4  5  1  0  0  0  0
  5 18  1  0  0  0  0
  5  6  2  0  0  0  0
  6  7  1  0  0  0  0
  6 20  1  0  0  0  0
  7  8  2  0  0  0  0
  7 21  1  0  0  0  0
  8  9  1  0  0  0  0
  8 17  1  0  0  0  0
  9 10  1  0  0  0  0
  9 22  1  0  0  0  0
 10 15  1  0  0  0  0
 10 11  1  0  0  0  0
 10 23  1  0  0  0  0
 11 12  1  0  0  0  0
 11 24  1  0  0  0  0
 11 25  1  0  0  0  0
 12 16  1  0  0  0  0
 12 13  1  0  0  0  0
 12 26  1  0  0  0  0
 13 14  1  0  0  0  0
 13 27  1  0  0  0  0
 13 28  1  0  0  0  0
 14 15  1  0  0  0  0
 14 29  1  0  0  0  0
 14 30  1  0  0  0  0
 15 16  1  0  0  0  0
 15 31  1  0  0  0  0
 17 18  2  0  0  0  0
 17 33  1  0  0  0  0
 18 32  1  0  0  0  0
M  CHG  1  17   1
M  END
> <s_m_source_file>
AV-unprocessed.smi

> <i_m_source_file_index>
2837

> <i_lp_mmshare_version>
43012

> <i_f3d_flags>
0

> <s_epik_input>
RltDSF0oRilPYzFbY0hdW2NIXWMobltjSF0xKVtOSF1bQ0BIXShbQ0gyXVtDQEBIXTIzKVtDQEBIXShPMylbQ0gyXVtDSDJdMg==

> <s_epik_cmdline>
J2VwaWtfcHl0aG9uJywgJy1waCcsICc3LjAnLCAnLXRuJywgJzgnLCAnLW1hJywgJzIwMCcsICctbWV0YWxfYmluZGluZycsICctaW1hZScsICc8aW5maWxlLm1hZT4nLCAnLW9tYWUnLCAnPG91dGZpbGUubWFlPic=

> <r_lp_tautomer_probability>
0.999429

> <r_epik_Ionization_Penalty>
2.29716

> <r_epik_Ionization_Penalty_Charging>
2.29716

> <r_epik_Ionization_Penalty_Neutral>
1.42285e-06

> <r_epik_State_Penalty>
2.44762

> <r_epik_Charging_Adjusted_Penalty>
4.74478

> <i_epik_Tot_Q>
1

> <i_epik_Tot_abs_Q>
1

> <r_epik_Metal_State_Penalty>
6.53078

> <b_epik_Metal_Only>
0

> <s_lp_Force_Field>
OPLS_2005

> <r_lp_Energy>
46.8355

> <b_lp_Chiralities_Consistent>
1

> <s_lp_Variant>
AV-unprocessed.smi:2837-7

> <Gold.Version>
5.8.1

> <Gold.Id.Protein>
6NUR|6NUR_protein|mol2

> <Gold.PLP.Fitness>
47.1124

> <Gold.PLP.PLP>
-37.8963

> <Gold.PLP.part.hbond>
-2.0000

> <Gold.PLP.part.metal>
0.0000

> <Gold.PLP.part.buried>
-3.6634

> <Gold.PLP.part.nonpolar>
-31.5668

> <Gold.PLP.part.repulsive>
0.1858

> <Gold.PLP.ligand.clash>
0.0000

> <Gold.PLP.ligand.torsion>
0.5974

> <Gold.PLP.Chemscore.Hbond>
3.4664

> <Gold.PLP.Chemscore.CHOScore>
0.0000

> <Gold.PLP.Chemscore.Metal>
0.0000

> <Gold.Chemscore.Hbonds>
donor molecule, donor type, donor heavy atom, donor atom, acceptor molecule, acceptor atom, score
      L1  H     9    22       P1  8028  2.00
      L1  H    17    33       P1  8028  1.47

> <Gold.PLP.Chemscore.Internal.Correction>
0.0118

> <Gold.Rescore>
     Score         DG    S(hbond)    S(metal)    S(lipo)     H(rot)  DE(clash)    DE(int)     intcor
     16.47     -17.18       1.74        0.00      79.62       1.34       0.10       0.61       ----

> <Gold.Chemscore.Fitness>
16.4738

> <Gold.Chemscore.DG>
-17.1840

> <Gold.Chemscore.ZeroCoef>
-5.4800

> <Gold.Chemscore.Hbond>
1.7397

> <Gold.Chemscore.Metal>
0.0000

> <Gold.Chemscore.Lipo>
79.6225

> <Gold.Chemscore.Internal_Hbond>
0.0000

> <Gold.Chemscore.DEClash>
0.1002

> <Gold.Chemscore.DEInternal>
0.6100

> <Gold.Chemscore.Rot>
1.3368

> <Gold.Chemscore.Internal.Correction>
   9.000000E+99

> <Gold.Chemscore.Hbonds>
donor molecule, donor type, donor heavy atom, donor atom, acceptor molecule, acceptor atom, score
      L1  H     9    22       P1  8028  0.95
      L1  H    17    33       P1  8028  0.68

> <Gold.Chemscore.Hbond.Weighted>
-5.8105

> <Gold.Chemscore.Metal.Weighted>
-0.0000

> <Gold.Chemscore.Lipo.Weighted>
-9.3158

> <Gold.Chemscore.Internal_Hbond.Weighted>
0.0000

> <Gold.Chemscore.DEClash.Weighted>
0.1002

> <Gold.Chemscore.DEInternal.Weighted>
0.6100

> <Gold.Chemscore.Rot.Weighted>
3.4223

> <Gold.Chemscore.Internal.Correction.Weighted>
   9.000000E+99

> <Gold.Protein.RotatedTorsions>
[ 6907 6896 6895 6894 ] final  155.40 input  -60.11 | X-H torsion
[ 7974 7965 7964 7962 ] final  159.94 input  175.53 | X-H torsion
[ 8008 7997 7996 7995 ] final   41.16 input   59.86 | X-H torsion
[ 10167 10162 10161 10158 ] final -106.18 input  -65.29 | X-H torsion
[ 10718 10713 10712 10709 ] final -102.11 input   66.30 | X-H torsion
[ 10763 10752 10751 10750 ] final -120.11 input  -60.55 | X-H torsion
[ 11005 11000 10999 10996 ] final  -59.55 input  -57.11 | X-H torsion

> <Gold.Protein.ActiveResidues>
 VAL166  LYS551  ARG553  GLY616  TRP617  ASP618  TYR619  PRO620  LYS621  CYS622 
 ASP623  PHE694  ASN695  SER759  ASP760  ASP761  ALA762  ILE779  LEU786  VAL792 
 PHE793  MET794  SER795  GLU796  ALA797  LYS798  CYS799  TRP800  GLU811  SER814 

> <Gold.Protein.RotatedAtoms>
  152.0447  133.3993  159.4351 H   0  0  0  0  0  0  0  0  0  0  0  0  # atno 6907 bound_to 6896
  150.6873  134.3375  159.4863 H   0  0  0  0  0  0  0  0  0  0  0  0  # atno 6908 bound_to 6896
  152.1178  134.9227  160.0615 H   0  0  0  0  0  0  0  0  0  0  0  0  # atno 6909 bound_to 6896
  144.7763  139.7688  143.6277 H   0  0  0  0  0  0  0  0  0  0  0  0  # atno 7974 bound_to 7965
  155.2651  140.3362  155.4270 H   0  0  0  0  0  0  0  0  0  0  0  0  # atno 8008 bound_to 7997
  156.2157  140.1788  156.7636 H   0  0  0  0  0  0  0  0  0  0  0  0  # atno 8009 bound_to 7997
  154.5751  140.0663  156.9006 H   0  0  0  0  0  0  0  0  0  0  0  0  # atno 8010 bound_to 7997
  140.1905  143.3896  152.1210 H   0  0  0  0  0  0  0  0  0  0  0  0  # atno 10167 bound_to 10162
  156.0217  130.5404  150.7060 H   0  0  0  0  0  0  0  0  0  0  0  0  # atno 10718 bound_to 10713
  154.8635  135.4214  154.2407 H   0  0  0  0  0  0  0  0  0  0  0  0  # atno 10763 bound_to 10752
  153.3373  135.6991  153.6902 H   0  0  0  0  0  0  0  0  0  0  0  0  # atno 10764 bound_to 10752
  153.5895  135.3557  155.2878 H   0  0  0  0  0  0  0  0  0  0  0  0  # atno 10765 bound_to 10752
  141.1253  133.6617  156.5089 H   0  0  0  0  0  0  0  0  0  0  0  0  # atno 11005 bound_to 11000
  146.1944  139.5203  142.9784 LP  0  0  0  0  0  0  0  0  0  0  0  0  # atno 17320 bound_to 7965
  145.6177  141.0328  143.1932 LP  0  0  0  0  0  0  0  0  0  0  0  0  # atno 17321 bound_to 7965
  139.5258  144.7100  151.5236 LP  0  0  0  0  0  0  0  0  0  0  0  0  # atno 17342 bound_to 10162
  140.6459  143.8796  150.6736 LP  0  0  0  0  0  0  0  0  0  0  0  0  # atno 17343 bound_to 10162
  157.4709  131.0893  151.0643 LP  0  0  0  0  0  0  0  0  0  0  0  0  # atno 17370 bound_to 10713
  157.1103  130.6019  149.5480 LP  0  0  0  0  0  0  0  0  0  0  0  0  # atno 17371 bound_to 10713
  140.4385  134.7037  157.4979 LP  0  0  0  0  0  0  0  0  0  0  0  0  # atno 17394 bound_to 11000
  140.0245  134.6497  155.9192 LP  0  0  0  0  0  0  0  0  0  0  0  0  # atno 17395 bound_to 11000

$$$$
