AV-unprocessed.smi:3158|AV-procd|sdf|12044|dock10
  -GOLD-   2272017473D 1   1.00000     0.00000
 Structure written by MMmdl.
 40 40  0  0  0  0  0  0  0  0  2 V2000
  149.3355  134.2521  154.3176 C   0  0  0  0  0  0  0  0  0  0  0  0
  149.5967  135.6560  154.8826 C   0  0  0  0  0  0  0  0  0  0  0  0
  148.3111  136.4335  155.2207 C   0  0  1  0  0  0  0  0  0  0  0  0
  148.5864  137.6038  156.1762 C   0  0  0  0  0  0  0  0  0  0  0  0
  147.6898  136.9364  153.9974 N   0  0  0  0  0  0  0  0  0  0  0  0
  146.5060  137.5643  153.9209 C   0  0  0  0  0  0  0  0  0  0  0  0
  145.7903  137.7855  154.8987 O   0  0  0  0  0  0  0  0  0  0  0  0
  146.0585  137.9997  152.5180 C   0  0  1  0  0  0  0  0  0  0  0  0
  146.9660  139.1282  152.0043 C   0  0  0  0  0  0  0  0  0  0  0  0
  146.0696  136.8720  151.5573 N   0  3  0  0  0  0  0  0  0  0  0  0
  145.0984  135.7942  151.8421 C   0  0  0  0  0  0  0  0  0  0  0  0
  144.6607  135.0948  150.5479 C   0  0  0  0  0  0  0  0  0  0  0  0
  144.8341  133.6579  150.6301 N   0  0  0  0  0  0  0  0  0  0  0  0
  143.8667  132.6750  150.6384 C   0  0  0  0  0  0  0  0  0  0  0  0
  144.5096  131.4741  150.7317 C   0  0  0  0  0  0  0  0  0  0  0  0
  145.8865  131.8299  150.7774 C   0  0  0  0  0  0  0  0  0  0  0  0
  146.0775  133.1383  150.7160 N   0  0  0  0  0  0  0  0  0  0  0  0
  150.2739  133.7266  154.1389 H   0  0  0  0  0  0  0  0  0  0  0  0
  148.7964  134.2929  153.3707 H   0  0  0  0  0  0  0  0  0  0  0  0
  148.7473  133.6525  155.0128 H   0  0  0  0  0  0  0  0  0  0  0  0
  150.2033  135.5594  155.7839 H   0  0  0  0  0  0  0  0  0  0  0  0
  150.1988  136.2247  154.1726 H   0  0  0  0  0  0  0  0  0  0  0  0
  147.6321  135.7429  155.7242 H   0  0  0  0  0  0  0  0  0  0  0  0
  149.0323  137.2529  157.1072 H   0  0  0  0  0  0  0  0  0  0  0  0
  147.6656  138.1290  156.4319 H   0  0  0  0  0  0  0  0  0  0  0  0
  149.2708  138.3276  155.7321 H   0  0  0  0  0  0  0  0  0  0  0  0
  148.2042  136.7919  153.1406 H   0  0  0  0  0  0  0  0  0  0  0  0
  145.0392  138.3853  152.5769 H   0  0  0  0  0  0  0  0  0  0  0  0
  146.9537  139.9867  152.6772 H   0  0  0  0  0  0  0  0  0  0  0  0
  146.6373  139.4792  151.0258 H   0  0  0  0  0  0  0  0  0  0  0  0
  148.0011  138.7973  151.9067 H   0  0  0  0  0  0  0  0  0  0  0  0
  145.8560  137.2404  150.6417 H   0  0  0  0  0  0  0  0  0  0  0  0
  145.5430  135.0641  152.5196 H   0  0  0  0  0  0  0  0  0  0  0  0
  144.2324  136.2196  152.3512 H   0  0  0  0  0  0  0  0  0  0  0  0
  143.6124  135.3061  150.3314 H   0  0  0  0  0  0  0  0  0  0  0  0
  145.2409  135.4653  149.7017 H   0  0  0  0  0  0  0  0  0  0  0  0
  142.8136  132.9078  150.5774 H   0  0  0  0  0  0  0  0  0  0  0  0
  144.0640  130.4909  150.7636 H   0  0  0  0  0  0  0  0  0  0  0  0
  146.7462  131.1807  150.8526 H   0  0  0  0  0  0  0  0  0  0  0  0
  147.0007  136.4802  151.5388 H   0  0  0  0  0  0  0  0  0  0  0  0
  1  2  1  0  0  0  0
  1 18  1  0  0  0  0
  1 19  1  0  0  0  0
  1 20  1  0  0  0  0
  2  3  1  0  0  0  0
  2 21  1  0  0  0  0
  2 22  1  0  0  0  0
  3  4  1  0  0  0  0
  3  5  1  0  0  0  0
  3 23  1  0  0  0  0
  4 24  1  0  0  0  0
  4 25  1  0  0  0  0
  4 26  1  0  0  0  0
  5  6  1  0  0  0  0
  5 27  1  0  0  0  0
  6  7  2  0  0  0  0
  6  8  1  0  0  0  0
  8  9  1  0  0  0  0
  8 10  1  0  0  0  0
  8 28  1  0  0  0  0
  9 29  1  0  0  0  0
  9 30  1  0  0  0  0
  9 31  1  0  0  0  0
 10 11  1  0  0  0  0
 10 32  1  0  0  0  0
 10 40  1  0  0  0  0
 11 12  1  0  0  0  0
 11 33  1  0  0  0  0
 11 34  1  0  0  0  0
 12 13  1  0  0  0  0
 12 35  1  0  0  0  0
 12 36  1  0  0  0  0
 13 17  1  0  0  0  0
 13 14  1  0  0  0  0
 14 15  2  0  0  0  0
 14 37  1  0  0  0  0
 15 16  1  0  0  0  0
 15 38  1  0  0  0  0
 16 17  2  0  0  0  0
 16 39  1  0  0  0  0
M  CHG  1  10   1
M  END
> <s_m_source_file>
AV-unprocessed.smi

> <i_m_source_file_index>
3158

> <i_lp_mmshare_version>
43012

> <i_f3d_flags>
0

> <s_epik_input>
W0NIM11bQ0gyXVtDQEhdKFtDSDNdKVtOSF1DKD1PKVtDQEhdKFtDSDNdKVtOSF1bQ0gyXVtDSDJdbjFbY0hdW2NIXVtjSF1uMQ==

> <s_epik_cmdline>
J2VwaWtfcHl0aG9uJywgJy1waCcsICc3LjAnLCAnLXRuJywgJzgnLCAnLW1hJywgJzIwMCcsICctbWV0YWxfYmluZGluZycsICctaW1hZScsICc8aW5maWxlLm1hZT4nLCAnLW9tYWUnLCAnPG91dGZpbGUubWFlPic=

> <r_lp_tautomer_probability>
1

> <r_epik_Ionization_Penalty>
0.20724

> <r_epik_Ionization_Penalty_Charging>
0.207237

> <r_epik_Ionization_Penalty_Neutral>
3.33806e-06

> <r_epik_State_Penalty>
0.197234

> <r_epik_Charging_Adjusted_Penalty>
0.404471

> <i_epik_Tot_Q>
1

> <i_epik_Tot_abs_Q>
1

> <r_epik_Metal_State_Penalty>
0.197524

> <b_epik_Metal_Only>
0

> <s_lp_Force_Field>
OPLS_2005

> <r_lp_Energy>
5.19885

> <b_lp_Chiralities_Consistent>
1

> <s_lp_Variant>
AV-unprocessed.smi:3158-4

> <Gold.Version>
5.8.1

> <Gold.Id.Protein>
6NUR|6NUR_protein|mol2

> <Gold.PLP.Fitness>
42.4476

> <Gold.PLP.PLP>
-29.0292

> <Gold.PLP.part.hbond>
-2.1770

> <Gold.PLP.part.metal>
0.0000

> <Gold.PLP.part.buried>
-1.3669

> <Gold.PLP.part.nonpolar>
-25.7779

> <Gold.PLP.part.repulsive>
0.3033

> <Gold.PLP.ligand.clash>
0.0000

> <Gold.PLP.ligand.torsion>
0.8633

> <Gold.PLP.Chemscore.Hbond>
3.0000

> <Gold.PLP.Chemscore.CHOScore>
2.0000

> <Gold.PLP.Chemscore.Metal>
0.0000

> <Gold.Chemscore.Hbonds>
donor molecule, donor type, donor heavy atom, donor atom, acceptor molecule, acceptor atom, score
      L1  H     5    27       P1  7948  1.00
      L1  H    10    40       P1  7948  2.00
      L1  C    14    37       P1 10186  0.91
      L1  C    16    39       P1 10747  1.00

> <Gold.PLP.Chemscore.Internal.Correction>
0.1450

> <Gold.Rescore>
     Score         DG    S(hbond)    S(metal)    S(lipo)     H(rot)  DE(clash)    DE(int)     intcor
     13.60     -14.38       1.96        0.00      68.67       2.21       0.04       0.75       ----

> <Gold.Chemscore.Fitness>
13.5969

> <Gold.Chemscore.DG>
-14.3820

> <Gold.Chemscore.ZeroCoef>
-5.4800

> <Gold.Chemscore.Hbond>
1.9562

> <Gold.Chemscore.Metal>
0.0000

> <Gold.Chemscore.Lipo>
68.6670

> <Gold.Chemscore.Internal_Hbond>
0.0000

> <Gold.Chemscore.DEClash>
0.0363

> <Gold.Chemscore.DEInternal>
0.7489

> <Gold.Chemscore.Rot>
2.2132

> <Gold.Chemscore.Internal.Correction>
   9.000000E+99

> <Gold.Chemscore.Hbonds>
donor molecule, donor type, donor heavy atom, donor atom, acceptor molecule, acceptor atom, score
      L1  H     5    27       P1  7948  0.98
      L1  H    10    40       P1  7948  0.98

> <Gold.Chemscore.Hbond.Weighted>
-6.5338

> <Gold.Chemscore.Metal.Weighted>
-0.0000

> <Gold.Chemscore.Lipo.Weighted>
-8.0340

> <Gold.Chemscore.Internal_Hbond.Weighted>
0.0000

> <Gold.Chemscore.DEClash.Weighted>
0.0363

> <Gold.Chemscore.DEInternal.Weighted>
0.7489

> <Gold.Chemscore.Rot.Weighted>
5.6658

> <Gold.Chemscore.Internal.Correction.Weighted>
   9.000000E+99

> <Gold.Protein.RotatedTorsions>
[ 6907 6896 6895 6894 ] final -173.42 input  -60.11 | X-H torsion
[ 7974 7965 7964 7962 ] final    7.36 input  175.53 | X-H torsion
[ 8008 7997 7996 7995 ] final -125.80 input   59.86 | X-H torsion
[ 10167 10162 10161 10158 ] final  -16.75 input  -65.29 | X-H torsion
[ 10718 10713 10712 10709 ] final  -47.72 input   66.30 | X-H torsion
[ 10763 10752 10751 10750 ] final   23.06 input  -60.55 | X-H torsion
[ 11005 11000 10999 10996 ] final  107.03 input  -57.11 | X-H torsion

> <Gold.Protein.ActiveResidues>
 VAL166  LYS551  ARG553  GLY616  TRP617  ASP618  TYR619  PRO620  LYS621  CYS622 
 ASP623  PHE694  ASN695  SER759  ASP760  ASP761  ALA762  ILE779  LEU786  VAL792 
 PHE793  MET794  SER795  GLU796  ALA797  LYS798  CYS799  TRP800  GLU811  SER814 

> <Gold.Protein.RotatedAtoms>
  151.5559  133.3410  159.2961 H   0  0  0  0  0  0  0  0  0  0  0  0  # atno 6907 bound_to 6896
  150.8451  134.7760  159.6975 H   0  0  0  0  0  0  0  0  0  0  0  0  # atno 6908 bound_to 6896
  152.4510  134.5400  159.9888 H   0  0  0  0  0  0  0  0  0  0  0  0  # atno 6909 bound_to 6896
  146.2427  140.0095  142.8408 H   0  0  0  0  0  0  0  0  0  0  0  0  # atno 7974 bound_to 7965
  155.2193  140.0421  157.2946 H   0  0  0  0  0  0  0  0  0  0  0  0  # atno 8008 bound_to 7997
  154.5960  140.2439  155.7827 H   0  0  0  0  0  0  0  0  0  0  0  0  # atno 8009 bound_to 7997
  156.2290  140.2944  156.0150 H   0  0  0  0  0  0  0  0  0  0  0  0  # atno 8010 bound_to 7997
  140.7238  143.5085  150.9780 H   0  0  0  0  0  0  0  0  0  0  0  0  # atno 10167 bound_to 10162
  156.2057  130.4158  149.9181 H   0  0  0  0  0  0  0  0  0  0  0  0  # atno 10718 bound_to 10713
  153.0867  135.6635  153.9935 H   0  0  0  0  0  0  0  0  0  0  0  0  # atno 10763 bound_to 10752
  153.9542  135.2980  155.3438 H   0  0  0  0  0  0  0  0  0  0  0  0  # atno 10764 bound_to 10752
  154.7276  135.5137  153.8984 H   0  0  0  0  0  0  0  0  0  0  0  0  # atno 10765 bound_to 10752
  139.8822  134.9388  156.5757 H   0  0  0  0  0  0  0  0  0  0  0  0  # atno 11005 bound_to 11000
  145.1341  140.9534  143.4527 LP  0  0  0  0  0  0  0  0  0  0  0  0  # atno 17320 bound_to 7965
  145.0359  139.3301  143.6001 LP  0  0  0  0  0  0  0  0  0  0  0  0  # atno 17321 bound_to 7965
  139.8797  143.7087  152.3158 LP  0  0  0  0  0  0  0  0  0  0  0  0  # atno 17342 bound_to 10162
  139.7365  144.7570  151.0719 LP  0  0  0  0  0  0  0  0  0  0  0  0  # atno 17343 bound_to 10162
  156.6876  130.8883  151.3584 LP  0  0  0  0  0  0  0  0  0  0  0  0  # atno 17370 bound_to 10713
  157.7011  130.9334  150.0787 LP  0  0  0  0  0  0  0  0  0  0  0  0  # atno 17371 bound_to 10713
  140.8064  133.8464  155.8772 LP  0  0  0  0  0  0  0  0  0  0  0  0  # atno 17394 bound_to 11000
  140.9546  134.1735  157.4702 LP  0  0  0  0  0  0  0  0  0  0  0  0  # atno 17395 bound_to 11000

$$$$
