AV-unprocessed.smi:2949|AV-procd|sdf|11286|dock2
  -GOLD-   2272016173D 1   1.00000     0.00000
 Structure written by MMmdl.
 34 35  0  0  0  0  0  0  0  0  1 V2000
  145.7372  141.0344  155.5032 N   0  0  0  0  0  0  0  0  0  0  0  0
  146.2170  140.1482  154.7034 C   0  0  0  0  0  0  0  0  0  0  0  0
  145.4222  138.5775  154.2127 S   0  0  0  0  0  0  0  0  0  0  0  0
  146.7960  138.2121  153.1906 C   0  0  0  0  0  0  0  0  0  0  0  0
  147.7239  139.1665  153.2363 C   0  0  0  0  0  0  0  0  0  0  0  0
  147.4519  140.2408  154.0584 N   0  0  0  0  0  0  0  0  0  0  0  0
  148.3347  141.4037  154.1468 C   0  0  0  0  0  0  0  0  0  0  0  0
  149.6186  141.1979  154.9607 C   0  0  0  0  0  0  0  0  0  0  0  0
  150.2819  140.1690  154.8065 O   0  0  0  0  0  0  0  0  0  0  0  0
  149.9135  142.2042  155.8159 N   0  0  0  0  0  0  0  0  0  0  0  0
  150.9464  142.3670  156.6766 C   0  0  0  0  0  0  0  0  0  0  0  0
  151.6607  141.4142  156.9849 O   0  0  0  0  0  0  0  0  0  0  0  0
  151.1453  143.6036  157.1705 N   0  0  0  0  0  0  0  0  0  0  0  0
  152.1989  143.9836  158.1067 C   0  0  0  0  0  0  0  0  0  0  0  0
  152.3888  142.9272  159.2160 C   0  0  0  0  0  0  0  0  0  0  0  0
  152.3184  143.6845  160.5440 C   0  0  0  0  0  0  0  0  0  0  0  0
  151.4357  144.8920  160.2460 C   0  0  0  0  0  0  0  0  0  0  0  0
  151.8278  145.2933  158.8245 C   0  0  0  0  0  0  0  0  0  0  0  0
  146.8346  137.3043  152.6070 H   0  0  0  0  0  0  0  0  0  0  0  0
  148.6588  139.1782  152.6948 H   0  0  0  0  0  0  0  0  0  0  0  0
  148.5981  141.7404  153.1425 H   0  0  0  0  0  0  0  0  0  0  0  0
  147.7826  142.2307  154.5955 H   0  0  0  0  0  0  0  0  0  0  0  0
  149.2499  142.9650  155.8142 H   0  0  0  0  0  0  0  0  0  0  0  0
  150.5162  144.3357  156.8718 H   0  0  0  0  0  0  0  0  0  0  0  0
  153.1307  144.1319  157.5577 H   0  0  0  0  0  0  0  0  0  0  0  0
  151.5884  142.1861  159.1856 H   0  0  0  0  0  0  0  0  0  0  0  0
  153.3297  142.3867  159.1084 H   0  0  0  0  0  0  0  0  0  0  0  0
  151.9307  143.0708  161.3574 H   0  0  0  0  0  0  0  0  0  0  0  0
  153.3161  144.0221  160.8277 H   0  0  0  0  0  0  0  0  0  0  0  0
  150.3862  144.5958  160.2688 H   0  0  0  0  0  0  0  0  0  0  0  0
  151.5713  145.7007  160.9643 H   0  0  0  0  0  0  0  0  0  0  0  0
  152.7052  145.9401  158.8666 H   0  0  0  0  0  0  0  0  0  0  0  0
  151.0398  145.8562  158.3223 H   0  0  0  0  0  0  0  0  0  0  0  0
  144.8316  140.7441  155.8438 H   0  0  0  0  0  0  0  0  0  0  0  0
  1  2  2  0  0  0  0
  1 34  1  0  0  0  0
  2  6  1  0  0  0  0
  2  3  1  0  0  0  0
  3  4  1  0  0  0  0
  4  5  2  0  0  0  0
  4 19  1  0  0  0  0
  5  6  1  0  0  0  0
  5 20  1  0  0  0  0
  6  7  1  0  0  0  0
  7  8  1  0  0  0  0
  7 21  1  0  0  0  0
  7 22  1  0  0  0  0
  8  9  2  0  0  0  0
  8 10  1  0  0  0  0
 10 11  1  0  0  0  0
 10 23  1  0  0  0  0
 11 12  2  0  0  0  0
 11 13  1  0  0  0  0
 13 14  1  0  0  0  0
 13 24  1  0  0  0  0
 14 18  1  0  0  0  0
 14 15  1  0  0  0  0
 14 25  1  0  0  0  0
 15 16  1  0  0  0  0
 15 26  1  0  0  0  0
 15 27  1  0  0  0  0
 16 17  1  0  0  0  0
 16 28  1  0  0  0  0
 16 29  1  0  0  0  0
 17 18  1  0  0  0  0
 17 30  1  0  0  0  0
 17 31  1  0  0  0  0
 18 32  1  0  0  0  0
 18 33  1  0  0  0  0
M  END
> <s_m_source_file>
AV-unprocessed.smi

> <i_m_source_file_index>
2949

> <i_lp_mmshare_version>
43012

> <i_f3d_flags>
0

> <s_epik_input>
W0hdL049YzFcc1tjSF1bY0hdbjFbQ0gyXUMoPU8pW05IXUMoPU8pW05IXVtDSF0yW0NIMl1bQ0gyXVtDSDJdW0NIMl0y

> <s_epik_cmdline>
J2VwaWtfcHl0aG9uJywgJy1waCcsICc3LjAnLCAnLXRuJywgJzgnLCAnLW1hJywgJzIwMCcsICctbWV0YWxfYmluZGluZycsICctaW1hZScsICc8aW5maWxlLm1hZT4nLCAnLW9tYWUnLCAnPG91dGZpbGUubWFlPic=

> <r_epik_Ionization_Penalty>
2.0346

> <r_epik_Ionization_Penalty_Charging>
2.03458

> <r_epik_Ionization_Penalty_Neutral>
2.61125e-05

> <r_epik_State_Penalty>
2.18096

> <r_epik_Charging_Adjusted_Penalty>
4.21554

> <i_epik_Tot_Q>
0

> <i_epik_Tot_abs_Q>
0

> <r_epik_Metal_State_Penalty>
2.18096

> <b_epik_Metal_Only>
0

> <s_lp_Force_Field>
OPLS_2005

> <r_lp_Energy>
22.3694

> <b_lp_Chiralities_Consistent>
1

> <s_lp_Variant>
AV-unprocessed.smi:2949-2

> <Gold.Version>
5.8.1

> <Gold.Id.Protein>
6NUR|6NUR_protein|mol2

> <Gold.PLP.Fitness>
49.3400

> <Gold.PLP.PLP>
-36.5226

> <Gold.PLP.part.hbond>
-3.0000

> <Gold.PLP.part.metal>
0.0000

> <Gold.PLP.part.buried>
-1.8562

> <Gold.PLP.part.nonpolar>
-31.9448

> <Gold.PLP.part.repulsive>
0.2397

> <Gold.PLP.ligand.clash>
0.0000

> <Gold.PLP.ligand.torsion>
0.6687

> <Gold.PLP.Chemscore.Hbond>
2.8336

> <Gold.PLP.Chemscore.CHOScore>
1.8768

> <Gold.PLP.Chemscore.Metal>
0.0000

> <Gold.Chemscore.Hbonds>
donor molecule, donor type, donor heavy atom, donor atom, acceptor molecule, acceptor atom, score
      L1  H    10    23       P1  8028  1.00
      L1  H    13    24       P1  8028  0.87
      P1  H  7989  7998       L1     9  0.90
      L1  C     4    19       P1  7948  0.88
      L1  C     5    20       P1  7957  0.90

> <Gold.PLP.Chemscore.Internal.Correction>
0.0234

> <Gold.Rescore>
     Score         DG    S(hbond)    S(metal)    S(lipo)     H(rot)  DE(clash)    DE(int)     intcor
     13.78     -18.15       2.15        0.00      83.84       1.69       0.94       3.43       ----

> <Gold.Chemscore.Fitness>
13.7825

> <Gold.Chemscore.DG>
-18.1545

> <Gold.Chemscore.ZeroCoef>
-5.4800

> <Gold.Chemscore.Hbond>
2.1508

> <Gold.Chemscore.Metal>
0.0000

> <Gold.Chemscore.Lipo>
83.8440

> <Gold.Chemscore.Internal_Hbond>
0.0000

> <Gold.Chemscore.DEClash>
0.9418

> <Gold.Chemscore.DEInternal>
3.4302

> <Gold.Chemscore.Rot>
1.6871

> <Gold.Chemscore.Internal.Correction>
   9.000000E+99

> <Gold.Chemscore.Hbonds>
donor molecule, donor type, donor heavy atom, donor atom, acceptor molecule, acceptor atom, score
      L1  H    10    23       P1  8028  0.94
      L1  H    13    24       P1  8028  0.78
      P1  H  7989  7998       L1     9  0.17

> <Gold.Chemscore.Hbond.Weighted>
-7.1838

> <Gold.Chemscore.Metal.Weighted>
-0.0000

> <Gold.Chemscore.Lipo.Weighted>
-9.8097

> <Gold.Chemscore.Internal_Hbond.Weighted>
0.0000

> <Gold.Chemscore.DEClash.Weighted>
0.9418

> <Gold.Chemscore.DEInternal.Weighted>
3.4302

> <Gold.Chemscore.Rot.Weighted>
4.3191

> <Gold.Chemscore.Internal.Correction.Weighted>
   9.000000E+99

> <Gold.Protein.RotatedTorsions>
[ 6907 6896 6895 6894 ] final  -43.61 input  -60.11 | X-H torsion
[ 7974 7965 7964 7962 ] final   95.58 input  175.53 | X-H torsion
[ 8008 7997 7996 7995 ] final   64.28 input   59.86 | X-H torsion
[ 10167 10162 10161 10158 ] final -100.57 input  -65.29 | X-H torsion
[ 10718 10713 10712 10709 ] final   72.17 input   66.30 | X-H torsion
[ 10763 10752 10751 10750 ] final  127.86 input  -60.55 | X-H torsion
[ 11005 11000 10999 10996 ] final   73.63 input  -57.11 | X-H torsion

> <Gold.Protein.ActiveResidues>
 VAL166  LYS551  ARG553  GLY616  TRP617  ASP618  TYR619  PRO620  LYS621  CYS622 
 ASP623  PHE694  ASN695  SER759  ASP760  ASP761  ALA762  ILE779  LEU786  VAL792 
 PHE793  MET794  SER795  GLU796  ALA797  LYS798  CYS799  TRP800  GLU811  SER814 

> <Gold.Protein.RotatedAtoms>
  150.9420  134.8828  159.7618 H   0  0  0  0  0  0  0  0  0  0  0  0  # atno 6907 bound_to 6896
  152.5084  134.3928  159.9400 H   0  0  0  0  0  0  0  0  0  0  0  0  # atno 6908 bound_to 6896
  151.3948  133.3736  159.2760 H   0  0  0  0  0  0  0  0  0  0  0  0  # atno 6909 bound_to 6896
  145.4502  139.2294  143.3044 H   0  0  0  0  0  0  0  0  0  0  0  0  # atno 7974 bound_to 7965
  155.6436  140.3497  155.4723 H   0  0  0  0  0  0  0  0  0  0  0  0  # atno 8008 bound_to 7997
  155.9906  140.1193  157.0665 H   0  0  0  0  0  0  0  0  0  0  0  0  # atno 8009 bound_to 7997
  154.4218  140.1120  156.5546 H   0  0  0  0  0  0  0  0  0  0  0  0  # atno 8010 bound_to 7997
  140.2505  143.3476  152.0719 H   0  0  0  0  0  0  0  0  0  0  0  0  # atno 10167 bound_to 10162
  157.6488  130.9565  150.0891 H   0  0  0  0  0  0  0  0  0  0  0  0  # atno 10718 bound_to 10713
  153.7162  135.3260  155.3257 H   0  0  0  0  0  0  0  0  0  0  0  0  # atno 10763 bound_to 10752
  154.8370  135.4488  154.1264 H   0  0  0  0  0  0  0  0  0  0  0  0  # atno 10764 bound_to 10752
  153.2371  135.6967  153.7904 H   0  0  0  0  0  0  0  0  0  0  0  0  # atno 10765 bound_to 10752
  139.9430  134.7363  156.1049 H   0  0  0  0  0  0  0  0  0  0  0  0  # atno 11005 bound_to 11000
  146.2508  140.5261  142.8894 LP  0  0  0  0  0  0  0  0  0  0  0  0  # atno 17320 bound_to 7965
  144.8066  140.6310  143.6443 LP  0  0  0  0  0  0  0  0  0  0  0  0  # atno 17321 bound_to 7965
  139.5048  144.6782  151.6075 LP  0  0  0  0  0  0  0  0  0  0  0  0  # atno 17342 bound_to 10162
  140.6044  143.9551  150.6408 LP  0  0  0  0  0  0  0  0  0  0  0  0  # atno 17343 bound_to 10162
  156.1845  130.3651  149.8991 LP  0  0  0  0  0  0  0  0  0  0  0  0  # atno 17370 bound_to 10713
  156.6935  130.8905  151.3591 LP  0  0  0  0  0  0  0  0  0  0  0  0  # atno 17371 bound_to 10713
  141.1072  133.6656  156.2891 LP  0  0  0  0  0  0  0  0  0  0  0  0  # atno 17394 bound_to 11000
  140.5903  134.5657  157.5498 LP  0  0  0  0  0  0  0  0  0  0  0  0  # atno 17395 bound_to 11000

$$$$
