AV-unprocessed.smi:1978|AV-procd|sdf|8010|dock3
  -GOLD-   2272010203D 1   1.00000     0.00000
 Structure written by MMmdl.
 44 45  0  0  0  0  0  0  0  0  3 V2000
  148.5992  141.4331  154.3758 C   0  0  0  0  0  0  0  0  0  0  0  0
  149.2532  140.0999  154.4980 C   0  0  0  0  0  0  0  0  0  0  0  0
  148.7824  138.8203  154.4074 C   0  0  0  0  0  0  0  0  0  0  0  0
  149.9432  138.0341  154.6346 C   0  0  0  0  0  0  0  0  0  0  0  0
  149.8699  136.6161  154.6257 N   0  0  0  0  0  0  0  0  0  0  0  0
  149.9494  135.7624  155.6623 C   0  0  0  0  0  0  0  0  0  0  0  0
  150.1008  136.1893  156.8131 O   0  0  0  0  0  0  0  0  0  0  0  0
  149.8496  134.4624  155.2692 N   0  5  0  0  0  0  0  0  0  0  0  0
  149.0146  133.9845  154.1662 C   0  0  0  0  0  0  0  0  0  0  0  0
  147.5118  134.3661  154.3887 C   0  0  2  0  0  0  0  0  0  0  0  0
  146.6839  133.2235  155.0269 C   0  0  0  0  0  0  0  0  0  0  0  0
  146.7984  134.9243  153.1808 N   0  3  2  0  0  0  0  0  0  0  0  0
  145.9404  136.1244  153.4395 C   0  0  0  0  0  0  0  0  0  0  0  0
  145.5631  136.8364  152.1337 C   0  0  0  0  0  0  0  0  0  0  0  0
  144.8394  135.8743  151.1903 C   0  0  0  0  0  0  0  0  0  0  0  0
  145.7148  134.6426  150.9423 C   0  0  0  0  0  0  0  0  0  0  0  0
  146.1245  133.9435  152.2575 C   0  0  1  0  0  0  0  0  0  0  0  0
  146.9917  132.7158  151.9095 C   0  0  0  0  0  0  0  0  0  0  0  0
  151.0267  138.7693  154.8379 N   0  0  0  0  0  0  0  0  0  0  0  0
  150.5897  140.0962  154.7519 O   0  0  0  0  0  0  0  0  0  0  0  0
  147.5169  141.3309  154.2958 H   0  0  0  0  0  0  0  0  0  0  0  0
  148.9564  141.9585  153.4901 H   0  0  0  0  0  0  0  0  0  0  0  0
  148.8164  142.0508  155.2474 H   0  0  0  0  0  0  0  0  0  0  0  0
  147.7696  138.4995  154.2141 H   0  0  0  0  0  0  0  0  0  0  0  0
  149.7369  136.1922  153.7196 H   0  0  0  0  0  0  0  0  0  0  0  0
  149.3492  134.3925  153.2118 H   0  0  0  0  0  0  0  0  0  0  0  0
  149.0906  132.9032  154.0520 H   0  0  0  0  0  0  0  0  0  0  0  0
  147.4834  135.1481  155.1446 H   0  0  0  0  0  0  0  0  0  0  0  0
  147.0354  132.9815  156.0316 H   0  0  0  0  0  0  0  0  0  0  0  0
  146.7095  132.2984  154.4495 H   0  0  0  0  0  0  0  0  0  0  0  0
  145.6383  133.5158  155.1281 H   0  0  0  0  0  0  0  0  0  0  0  0
  145.0299  135.8317  153.9645 H   0  0  0  0  0  0  0  0  0  0  0  0
  146.4533  136.8410  154.0788 H   0  0  0  0  0  0  0  0  0  0  0  0
  144.9273  137.6959  152.3481 H   0  0  0  0  0  0  0  0  0  0  0  0
  146.4608  137.2258  151.6517 H   0  0  0  0  0  0  0  0  0  0  0  0
  143.8861  135.5718  151.6259 H   0  0  0  0  0  0  0  0  0  0  0  0
  144.6106  136.3712  150.2472 H   0  0  0  0  0  0  0  0  0  0  0  0
  145.1769  133.9447  150.2995 H   0  0  0  0  0  0  0  0  0  0  0  0
  146.6081  134.9405  150.3912 H   0  0  0  0  0  0  0  0  0  0  0  0
  145.2139  133.5846  152.7394 H   0  0  0  0  0  0  0  0  0  0  0  0
  146.5187  132.1121  151.1344 H   0  0  0  0  0  0  0  0  0  0  0  0
  147.1309  132.0545  152.7639 H   0  0  0  0  0  0  0  0  0  0  0  0
  147.9747  133.0118  151.5414 H   0  0  0  0  0  0  0  0  0  0  0  0
  147.5596  135.2836  152.6236 H   0  0  0  0  0  0  0  0  0  0  0  0
  1  2  1  0  0  0  0
  1 21  1  0  0  0  0
  1 22  1  0  0  0  0
  1 23  1  0  0  0  0
  2 20  1  0  0  0  0
  2  3  2  0  0  0  0
  3  4  1  0  0  0  0
  3 24  1  0  0  0  0
  4  5  1  0  0  0  0
  4 19  2  0  0  0  0
  5  6  1  0  0  0  0
  5 25  1  0  0  0  0
  6  7  2  0  0  0  0
  6  8  1  0  0  0  0
  8  9  1  0  0  0  0
  9 10  1  0  0  0  0
  9 26  1  0  0  0  0
  9 27  1  0  0  0  0
 10 11  1  0  0  0  0
 10 12  1  0  0  0  0
 10 28  1  0  0  0  0
 11 29  1  0  0  0  0
 11 30  1  0  0  0  0
 11 31  1  0  0  0  0
 12 17  1  0  0  0  0
 12 13  1  0  0  0  0
 12 44  1  0  0  0  0
 13 14  1  0  0  0  0
 13 32  1  0  0  0  0
 13 33  1  0  0  0  0
 14 15  1  0  0  0  0
 14 34  1  0  0  0  0
 14 35  1  0  0  0  0
 15 16  1  0  0  0  0
 15 36  1  0  0  0  0
 15 37  1  0  0  0  0
 16 17  1  0  0  0  0
 16 38  1  0  0  0  0
 16 39  1  0  0  0  0
 17 18  1  0  0  0  0
 17 40  1  0  0  0  0
 18 41  1  0  0  0  0
 18 42  1  0  0  0  0
 18 43  1  0  0  0  0
 19 20  1  0  0  0  0
M  CHG  1   8  -1
M  CHG  1  12   1
M  END
> <s_m_source_file>
AV-unprocessed.smi

> <i_m_source_file_index>
1978

> <i_lp_mmshare_version>
43012

> <i_f3d_flags>
0

> <s_epik_input>
W0NIM11jMVtjSF1jKG5vMSlbTkhdQyg9TylbTkhdW0NIMl1bQ0BIXShbQ0gzXSlOMltDSDJdW0NIMl1bQ0gyXVtDSDJdW0NASF0yW0NIM10=

> <s_epik_cmdline>
J2VwaWtfcHl0aG9uJywgJy1waCcsICc3LjAnLCAnLXRuJywgJzgnLCAnLW1hJywgJzIwMCcsICctbWV0YWxfYmluZGluZycsICctaW1hZScsICc8aW5maWxlLm1hZT4nLCAnLW9tYWUnLCAnPG91dGZpbGUubWFlPic=

> <r_epik_Ionization_Penalty>
6.7666

> <r_epik_Ionization_Penalty_Charging>
6.7666

> <r_epik_Ionization_Penalty_Neutral>
5.77131e-06

> <r_epik_State_Penalty>
6.79217

> <r_epik_Charging_Adjusted_Penalty>
13.5588

> <i_epik_Tot_Q>
0

> <i_epik_Tot_abs_Q>
2

> <r_epik_Metal_State_Penalty>
2.72569

> <b_epik_Metal_Only>
1

> <s_lp_Force_Field>
OPLS_2005

> <r_lp_Energy>
22.3249

> <b_lp_Chiralities_Consistent>
1

> <s_lp_Variant>
AV-unprocessed.smi:1978-19

> <Gold.Version>
5.8.1

> <Gold.Id.Protein>
6NUR|6NUR_protein|mol2

> <Gold.PLP.Fitness>
38.0277

> <Gold.PLP.PLP>
-30.3454

> <Gold.PLP.part.hbond>
-3.0000

> <Gold.PLP.part.metal>
0.0000

> <Gold.PLP.part.buried>
-3.4893

> <Gold.PLP.part.nonpolar>
-24.5942

> <Gold.PLP.part.repulsive>
0.3385

> <Gold.PLP.ligand.clash>
0.0000

> <Gold.PLP.ligand.torsion>
2.2959

> <Gold.PLP.Chemscore.Hbond>
3.9920

> <Gold.PLP.Chemscore.CHOScore>
0.0000

> <Gold.PLP.Chemscore.Metal>
0.0000

> <Gold.Chemscore.Hbonds>
donor molecule, donor type, donor heavy atom, donor atom, acceptor molecule, acceptor atom, score
      L1  H     5    25       P1  7948  1.00
      L1  H    12    44       P1  7948  2.00
      P1  H  7989  7998       L1    20  1.00

> <Gold.PLP.Chemscore.Internal.Correction>
0.2981

> <Gold.Rescore>
     Score         DG    S(hbond)    S(metal)    S(lipo)     H(rot)  DE(clash)    DE(int)     intcor
     14.11     -16.32       2.27        0.00      61.15       1.52       0.09       2.12       ----

> <Gold.Chemscore.Fitness>
14.1131

> <Gold.Chemscore.DG>
-16.3249

> <Gold.Chemscore.ZeroCoef>
-5.4800

> <Gold.Chemscore.Hbond>
2.2691

> <Gold.Chemscore.Metal>
0.0000

> <Gold.Chemscore.Lipo>
61.1512

> <Gold.Chemscore.Internal_Hbond>
0.0000

> <Gold.Chemscore.DEClash>
0.0889

> <Gold.Chemscore.DEInternal>
2.1230

> <Gold.Chemscore.Rot>
1.5190

> <Gold.Chemscore.Internal.Correction>
   9.000000E+99

> <Gold.Chemscore.Hbonds>
donor molecule, donor type, donor heavy atom, donor atom, acceptor molecule, acceptor atom, score
      L1  H     5    25       P1  7948  0.33
      L1  H    12    44       P1  7948  1.00
      P1  H  7989  7998       L1    20  0.51

> <Gold.Chemscore.Hbond.Weighted>
-7.5789

> <Gold.Chemscore.Metal.Weighted>
-0.0000

> <Gold.Chemscore.Lipo.Weighted>
-7.1547

> <Gold.Chemscore.Internal_Hbond.Weighted>
0.0000

> <Gold.Chemscore.DEClash.Weighted>
0.0889

> <Gold.Chemscore.DEInternal.Weighted>
2.1230

> <Gold.Chemscore.Rot.Weighted>
3.8886

> <Gold.Chemscore.Internal.Correction.Weighted>
   9.000000E+99

> <Gold.Protein.RotatedTorsions>
[ 6907 6896 6895 6894 ] final  150.06 input  -60.11 | X-H torsion
[ 7974 7965 7964 7962 ] final -102.90 input  175.53 | X-H torsion
[ 8008 7997 7996 7995 ] final    3.35 input   59.86 | X-H torsion
[ 10167 10162 10161 10158 ] final  -88.20 input  -65.29 | X-H torsion
[ 10718 10713 10712 10709 ] final -134.82 input   66.30 | X-H torsion
[ 10763 10752 10751 10750 ] final -138.23 input  -60.55 | X-H torsion
[ 11005 11000 10999 10996 ] final   -3.04 input  -57.11 | X-H torsion

> <Gold.Protein.ActiveResidues>
 VAL166  LYS551  ARG553  GLY616  TRP617  ASP618  TYR619  PRO620  LYS621  CYS622 
 ASP623  PHE694  ASN695  SER759  ASP760  ASP761  ALA762  ILE779  LEU786  VAL792 
 PHE793  MET794  SER795  GLU796  ALA797  LYS798  CYS799  TRP800  GLU811  SER814 

> <Gold.Protein.RotatedAtoms>
  152.1195  133.4345  159.4668 H   0  0  0  0  0  0  0  0  0  0  0  0  # atno 6907 bound_to 6896
  150.6871  134.2552  159.4536 H   0  0  0  0  0  0  0  0  0  0  0  0  # atno 6908 bound_to 6896
  152.0427  134.9701  160.0624 H   0  0  0  0  0  0  0  0  0  0  0  0  # atno 6909 bound_to 6896
  145.2628  140.9274  143.3031 H   0  0  0  0  0  0  0  0  0  0  0  0  # atno 7974 bound_to 7965
  154.7026  140.2676  155.6704 H   0  0  0  0  0  0  0  0  0  0  0  0  # atno 8008 bound_to 7997
  156.2770  140.2769  156.1566 H   0  0  0  0  0  0  0  0  0  0  0  0  # atno 8009 bound_to 7997
  155.0743  140.0372  157.2609 H   0  0  0  0  0  0  0  0  0  0  0  0  # atno 8010 bound_to 7997
  140.3770  143.2767  151.9431 H   0  0  0  0  0  0  0  0  0  0  0  0  # atno 10167 bound_to 10162
  156.2595  130.7201  151.1130 H   0  0  0  0  0  0  0  0  0  0  0  0  # atno 10718 bound_to 10713
  154.8642  135.3618  154.5352 H   0  0  0  0  0  0  0  0  0  0  0  0  # atno 10763 bound_to 10752
  153.5976  135.7013  153.5402 H   0  0  0  0  0  0  0  0  0  0  0  0  # atno 10764 bound_to 10752
  153.3319  135.4122  155.1464 H   0  0  0  0  0  0  0  0  0  0  0  0  # atno 10765 bound_to 10752
  140.6650  133.9287  155.8459 H   0  0  0  0  0  0  0  0  0  0  0  0  # atno 11005 bound_to 11000
  144.9403  139.4196  143.6452 LP  0  0  0  0  0  0  0  0  0  0  0  0  # atno 17320 bound_to 7965
  146.3270  139.8359  142.8899 LP  0  0  0  0  0  0  0  0  0  0  0  0  # atno 17321 bound_to 7965
  139.4798  144.5854  151.7862 LP  0  0  0  0  0  0  0  0  0  0  0  0  # atno 17342 bound_to 10162
  140.4976  144.1217  150.5964 LP  0  0  0  0  0  0  0  0  0  0  0  0  # atno 17343 bound_to 10162
  157.7245  131.0659  150.5991 LP  0  0  0  0  0  0  0  0  0  0  0  0  # atno 17370 bound_to 10713
  156.6078  130.4372  149.5871 LP  0  0  0  0  0  0  0  0  0  0  0  0  # atno 17371 bound_to 10713
  141.0436  134.0586  157.3871 LP  0  0  0  0  0  0  0  0  0  0  0  0  # atno 17394 bound_to 11000
  139.9000  135.0161  156.7223 LP  0  0  0  0  0  0  0  0  0  0  0  0  # atno 17395 bound_to 11000

$$$$
