AV-unprocessed.smi:783|AV-procd|sdf|3717|dock7
  -GOLD-   22720 1143D 1   1.00000     0.00000
 Structure written by MMmdl.
 45 46  0  0  0  0  0  0  0  0  1 V2000
  148.0253  134.5461  158.6544 C   0  0  0  0  0  0  0  0  0  0  0  0
  148.4619  135.5947  159.6980 C   0  0  1  0  0  0  0  0  0  0  0  0
  148.2969  137.0365  159.1935 C   0  0  0  0  0  0  0  0  0  0  0  0
  147.5200  137.8127  159.7508 O   0  0  0  0  0  0  0  0  0  0  0  0
  149.0375  137.3767  158.1267 N   0  0  0  0  0  0  0  0  0  0  0  0
  149.0348  138.6785  157.4590 C   0  0  0  0  0  0  0  0  0  0  0  0
  150.1791  138.8410  156.4110 C   0  0  0  0  0  0  0  0  0  0  0  0
  150.5181  140.3491  156.1493 C   0  0  0  0  0  0  0  0  0  0  0  0
  150.4289  140.7651  154.9912 O   0  0  0  0  0  0  0  0  0  0  0  0
  150.9062  141.1991  157.1388 N   0  0  0  0  0  0  0  0  0  0  0  0
  151.1450  142.6115  156.8220 C   0  0  0  0  0  0  0  0  0  0  0  0
  151.1435  140.8940  158.5525 C   0  0  0  0  0  0  0  0  0  0  0  0
  151.4332  138.0740  156.9173 C   0  0  0  0  0  0  0  0  0  0  0  0
  152.2959  137.7636  155.6896 C   0  0  0  0  0  0  0  0  0  0  0  0
  151.3207  137.7315  154.5108 C   0  0  0  0  0  0  0  0  0  0  0  0
  149.9397  138.0471  155.1008 C   0  0  0  0  0  0  0  0  0  0  0  0
  147.7810  135.4258  160.9767 N   0  0  0  0  0  0  0  0  0  0  0  0
  147.8934  136.2118  162.1058 C   0  0  0  0  0  0  0  0  0  0  0  0
  147.0422  135.7061  163.0461 C   0  0  0  0  0  0  0  0  0  0  0  0
  146.4311  134.6025  162.3891 C   0  0  0  0  0  0  0  0  0  0  0  0
  146.8665  134.4429  161.1503 N   0  0  0  0  0  0  0  0  0  0  0  0
  148.5816  134.6641  157.7238 H   0  0  0  0  0  0  0  0  0  0  0  0
  146.9637  134.6199  158.4147 H   0  0  0  0  0  0  0  0  0  0  0  0
  148.2116  133.5357  159.0193 H   0  0  0  0  0  0  0  0  0  0  0  0
  149.5262  135.4356  159.8805 H   0  0  0  0  0  0  0  0  0  0  0  0
  149.6459  136.6717  157.7367 H   0  0  0  0  0  0  0  0  0  0  0  0
  148.0664  138.8529  156.9870 H   0  0  0  0  0  0  0  0  0  0  0  0
  149.0869  139.4295  158.2418 H   0  0  0  0  0  0  0  0  0  0  0  0
  150.2668  143.0582  156.3530 H   0  0  0  0  0  0  0  0  0  0  0  0
  151.9876  142.7133  156.1366 H   0  0  0  0  0  0  0  0  0  0  0  0
  151.3699  143.2068  157.7082 H   0  0  0  0  0  0  0  0  0  0  0  0
  151.1892  139.8403  158.8014 H   0  0  0  0  0  0  0  0  0  0  0  0
  150.3545  141.3384  159.1600 H   0  0  0  0  0  0  0  0  0  0  0  0
  152.0920  141.3239  158.8767 H   0  0  0  0  0  0  0  0  0  0  0  0
  151.9967  138.5927  157.6939 H   0  0  0  0  0  0  0  0  0  0  0  0
  151.1267  137.1257  157.3617 H   0  0  0  0  0  0  0  0  0  0  0  0
  153.0387  138.5477  155.5378 H   0  0  0  0  0  0  0  0  0  0  0  0
  152.8327  136.8216  155.8054 H   0  0  0  0  0  0  0  0  0  0  0  0
  151.6020  138.4889  153.7780 H   0  0  0  0  0  0  0  0  0  0  0  0
  151.3241  136.7668  154.0024 H   0  0  0  0  0  0  0  0  0  0  0  0
  149.4358  137.1088  155.3375 H   0  0  0  0  0  0  0  0  0  0  0  0
  149.3205  138.5403  154.3567 H   0  0  0  0  0  0  0  0  0  0  0  0
  148.5632  137.0581  162.1457 H   0  0  0  0  0  0  0  0  0  0  0  0
  146.8769  136.0719  164.0486 H   0  0  0  0  0  0  0  0  0  0  0  0
  145.6857  133.9204  162.7706 H   0  0  0  0  0  0  0  0  0  0  0  0
  1  2  1  0  0  0  0
  1 22  1  0  0  0  0
  1 23  1  0  0  0  0
  1 24  1  0  0  0  0
  2  3  1  0  0  0  0
  2 17  1  0  0  0  0
  2 25  1  0  0  0  0
  3  4  2  0  0  0  0
  3  5  1  0  0  0  0
  5  6  1  0  0  0  0
  5 26  1  0  0  0  0
  6  7  1  0  0  0  0
  6 27  1  0  0  0  0
  6 28  1  0  0  0  0
  7 16  1  0  0  0  0
  7  8  1  0  0  0  0
  7 13  1  0  0  0  0
  8  9  2  0  0  0  0
  8 10  1  0  0  0  0
 10 11  1  0  0  0  0
 10 12  1  0  0  0  0
 11 29  1  0  0  0  0
 11 30  1  0  0  0  0
 11 31  1  0  0  0  0
 12 32  1  0  0  0  0
 12 33  1  0  0  0  0
 12 34  1  0  0  0  0
 13 14  1  0  0  0  0
 13 35  1  0  0  0  0
 13 36  1  0  0  0  0
 14 15  1  0  0  0  0
 14 37  1  0  0  0  0
 14 38  1  0  0  0  0
 15 16  1  0  0  0  0
 15 39  1  0  0  0  0
 15 40  1  0  0  0  0
 16 41  1  0  0  0  0
 16 42  1  0  0  0  0
 17 21  1  0  0  0  0
 17 18  1  0  0  0  0
 18 19  2  0  0  0  0
 18 43  1  0  0  0  0
 19 20  1  0  0  0  0
 19 44  1  0  0  0  0
 20 21  2  0  0  0  0
 20 45  1  0  0  0  0
M  END
> <s_m_source_file>
AV-unprocessed.smi

> <i_m_source_file_index>
783

> <i_lp_mmshare_version>
43012

> <i_f3d_flags>
0

> <s_epik_input>
bjFbY0hdW2NIXVtjSF1uMVtDQEhdKFtDSDNdKUMoPU8pW05IXVtDSDJdQzIoQyg9TylOKFtDSDNdKVtDSDNdKVtDSDJdW0NIMl1bQ0gyXVtDSDJdMg==

> <s_epik_cmdline>
J2VwaWtfcHl0aG9uJywgJy1waCcsICc3LjAnLCAnLXRuJywgJzgnLCAnLW1hJywgJzIwMCcsICctbWV0YWxfYmluZGluZycsICctaW1hZScsICc8aW5maWxlLm1hZT4nLCAnLW9tYWUnLCAnPG91dGZpbGUubWFlPic=

> <r_lp_tautomer_probability>
1

> <r_epik_Ionization_Penalty>
3.31274e-05

> <r_epik_Ionization_Penalty_Charging>
0

> <r_epik_Ionization_Penalty_Neutral>
3.31274e-05

> <r_epik_State_Penalty>
-0

> <r_epik_Charging_Adjusted_Penalty>
0

> <i_epik_Tot_Q>
0

> <i_epik_Tot_abs_Q>
0

> <r_epik_Metal_State_Penalty>
-0

> <b_epik_Metal_Only>
0

> <s_lp_Force_Field>
OPLS_2005

> <r_lp_Energy>
40.1786

> <b_lp_Chiralities_Consistent>
1

> <s_lp_Variant>
AV-unprocessed.smi:783-2

> <Gold.Version>
5.8.1

> <Gold.Id.Protein>
6NUR|6NUR_protein|mol2

> <Gold.PLP.Fitness>
37.8072

> <Gold.PLP.PLP>
-34.0289

> <Gold.PLP.part.hbond>
-2.4192

> <Gold.PLP.part.metal>
0.0000

> <Gold.PLP.part.buried>
-3.8881

> <Gold.PLP.part.nonpolar>
-28.7243

> <Gold.PLP.part.repulsive>
0.2017

> <Gold.PLP.ligand.clash>
0.0000

> <Gold.PLP.ligand.torsion>
0.5919

> <Gold.PLP.Chemscore.Hbond>
1.5520

> <Gold.PLP.Chemscore.CHOScore>
0.0000

> <Gold.PLP.Chemscore.Metal>
0.0000

> <Gold.Chemscore.Hbonds>
donor molecule, donor type, donor heavy atom, donor atom, acceptor molecule, acceptor atom, score
      P1  H  6934  6947       L1     4  0.69
      P1  H  7989  7998       L1     9  0.85

> <Gold.PLP.Chemscore.Internal.Correction>
0.3061

> <Gold.Rescore>
     Score         DG    S(hbond)    S(metal)    S(lipo)     H(rot)  DE(clash)    DE(int)     intcor
     14.56     -15.40       1.70        0.00      76.69       1.84       0.01       0.82       ----

> <Gold.Chemscore.Fitness>
14.5648

> <Gold.Chemscore.DG>
-15.3959

> <Gold.Chemscore.ZeroCoef>
-5.4800

> <Gold.Chemscore.Hbond>
1.6965

> <Gold.Chemscore.Metal>
0.0000

> <Gold.Chemscore.Lipo>
76.6882

> <Gold.Chemscore.Internal_Hbond>
0.0000

> <Gold.Chemscore.DEClash>
0.0081

> <Gold.Chemscore.DEInternal>
0.8230

> <Gold.Chemscore.Rot>
1.8449

> <Gold.Chemscore.Internal.Correction>
   9.000000E+99

> <Gold.Chemscore.Hbonds>
donor molecule, donor type, donor heavy atom, donor atom, acceptor molecule, acceptor atom, score
      P1  H  6934  6947       L1     4  0.70
      P1  H  7989  7998       L1     9  0.83

> <Gold.Chemscore.Hbond.Weighted>
-5.6663

> <Gold.Chemscore.Metal.Weighted>
-0.0000

> <Gold.Chemscore.Lipo.Weighted>
-8.9725

> <Gold.Chemscore.Internal_Hbond.Weighted>
0.0000

> <Gold.Chemscore.DEClash.Weighted>
0.0081

> <Gold.Chemscore.DEInternal.Weighted>
0.8230

> <Gold.Chemscore.Rot.Weighted>
4.7229

> <Gold.Chemscore.Internal.Correction.Weighted>
   9.000000E+99

> <Gold.Protein.RotatedTorsions>
[ 6907 6896 6895 6894 ] final  163.12 input  -60.11 | X-H torsion
[ 7974 7965 7964 7962 ] final -172.00 input  175.53 | X-H torsion
[ 8008 7997 7996 7995 ] final -150.45 input   59.86 | X-H torsion
[ 10167 10162 10161 10158 ] final -131.03 input  -65.29 | X-H torsion
[ 10718 10713 10712 10709 ] final   15.39 input   66.30 | X-H torsion
[ 10763 10752 10751 10750 ] final -123.19 input  -60.55 | X-H torsion
[ 11005 11000 10999 10996 ] final   28.37 input  -57.11 | X-H torsion

> <Gold.Protein.ActiveResidues>
 VAL166  LYS551  ARG553  GLY616  TRP617  ASP618  TYR619  PRO620  LYS621  CYS622 
 ASP623  PHE694  ASN695  SER759  ASP760  ASP761  ALA762  ILE779  LEU786  VAL792 
 PHE793  MET794  SER795  GLU796  ALA797  LYS798  CYS799  TRP800  GLU811  SER814 

> <Gold.Protein.RotatedAtoms>
  151.9300  133.3608  159.3927 H   0  0  0  0  0  0  0  0  0  0  0  0  # atno 6907 bound_to 6896
  150.7019  134.4547  159.5362 H   0  0  0  0  0  0  0  0  0  0  0  0  # atno 6908 bound_to 6896
  152.2186  134.8434  160.0539 H   0  0  0  0  0  0  0  0  0  0  0  0  # atno 6909 bound_to 6896
  144.7151  140.1838  143.6355 H   0  0  0  0  0  0  0  0  0  0  0  0  # atno 7974 bound_to 7965
  155.6237  140.0684  157.2670 H   0  0  0  0  0  0  0  0  0  0  0  0  # atno 8008 bound_to 7997
  154.4223  140.1780  156.1448 H   0  0  0  0  0  0  0  0  0  0  0  0  # atno 8009 bound_to 7997
  155.9988  140.3338  155.6829 H   0  0  0  0  0  0  0  0  0  0  0  0  # atno 8010 bound_to 7997
  139.9231  143.6358  152.2548 H   0  0  0  0  0  0  0  0  0  0  0  0  # atno 10167 bound_to 10162
  157.0528  130.6277  149.5771 H   0  0  0  0  0  0  0  0  0  0  0  0  # atno 10718 bound_to 10713
  154.8703  135.4107  154.2904 H   0  0  0  0  0  0  0  0  0  0  0  0  # atno 10763 bound_to 10752
  153.3781  135.7010  153.6592 H   0  0  0  0  0  0  0  0  0  0  0  0  # atno 10764 bound_to 10752
  153.5426  135.3645  155.2696 H   0  0  0  0  0  0  0  0  0  0  0  0  # atno 10765 bound_to 10752
  140.3163  134.2593  155.7725 H   0  0  0  0  0  0  0  0  0  0  0  0  # atno 11005 bound_to 11000
  145.8832  139.2334  143.1593 LP  0  0  0  0  0  0  0  0  0  0  0  0  # atno 17320 bound_to 7965
  145.9975  140.8549  143.0035 LP  0  0  0  0  0  0  0  0  0  0  0  0  # atno 17321 bound_to 7965
  139.6844  144.7653  151.1550 LP  0  0  0  0  0  0  0  0  0  0  0  0  # atno 17342 bound_to 10162
  140.7657  143.5678  150.9029 LP  0  0  0  0  0  0  0  0  0  0  0  0  # atno 17343 bound_to 10162
  156.0002  130.5080  150.7635 LP  0  0  0  0  0  0  0  0  0  0  0  0  # atno 17370 bound_to 10713
  157.5016  131.0919  151.0307 LP  0  0  0  0  0  0  0  0  0  0  0  0  # atno 17371 bound_to 10713
  141.2097  133.7741  156.9981 LP  0  0  0  0  0  0  0  0  0  0  0  0  # atno 17394 bound_to 11000
  140.0981  134.9552  157.1880 LP  0  0  0  0  0  0  0  0  0  0  0  0  # atno 17395 bound_to 11000

$$$$
