AV-unprocessed.smi:855|AV-procd|sdf|3957|dock10
  -GOLD-   22720 1423D 1   1.00000     0.00000
 Structure written by MMmdl.
 35 36  0  0  0  0  0  0  0  0  3 V2000
  149.2777  140.5564  154.2193 C   0  0  0  0  0  0  0  0  0  0  0  0
  150.1123  139.3327  154.3862 C   0  0  0  0  0  0  0  0  0  0  0  0
  149.8027  138.0069  154.4983 C   0  0  0  0  0  0  0  0  0  0  0  0
  151.0745  137.3873  154.6389 C   0  0  0  0  0  0  0  0  0  0  0  0
  151.3014  136.0712  154.7728 N   0  5  0  0  0  0  0  0  0  0  0  0
  150.3378  135.2624  155.2693 C   0  0  0  0  0  0  0  0  0  0  0  0
  150.3223  134.7399  156.3862 O   0  0  0  0  0  0  0  0  0  0  0  0
  149.3272  135.0423  154.4183 N   0  0  0  0  0  0  0  0  0  0  0  0
  148.1738  134.1986  154.6966 C   0  0  0  0  0  0  0  0  0  0  0  0
  146.8701  134.9422  154.3741 C   0  0  0  0  0  0  0  0  0  0  0  0
  146.5941  134.9639  152.9190 N   0  3  0  0  0  0  0  0  0  0  0  0
  146.2271  133.6625  152.3271 C   0  0  0  0  0  0  0  0  0  0  0  0
  145.5550  133.9969  150.9927 C   0  0  0  0  0  0  0  0  0  0  0  0
  145.0809  135.4497  151.1255 C   0  0  0  0  0  0  0  0  0  0  0  0
  145.5287  135.9017  152.5190 C   0  0  0  0  0  0  0  0  0  0  0  0
  152.0689  138.2583  154.5977 N   0  0  0  0  0  0  0  0  0  0  0  0
  151.4599  139.5094  154.4433 O   0  0  0  0  0  0  0  0  0  0  0  0
  148.5711  140.4323  153.3986 H   0  0  0  0  0  0  0  0  0  0  0  0
  149.8962  141.4277  154.0030 H   0  0  0  0  0  0  0  0  0  0  0  0
  148.7100  140.7617  155.1269 H   0  0  0  0  0  0  0  0  0  0  0  0
  148.8233  137.5527  154.4863 H   0  0  0  0  0  0  0  0  0  0  0  0
  149.3740  135.4851  153.5122 H   0  0  0  0  0  0  0  0  0  0  0  0
  148.2414  133.2866  154.1013 H   0  0  0  0  0  0  0  0  0  0  0  0
  148.1999  133.9048  155.7468 H   0  0  0  0  0  0  0  0  0  0  0  0
  146.0295  134.4949  154.9069 H   0  0  0  0  0  0  0  0  0  0  0  0
  146.9533  135.9717  154.7259 H   0  0  0  0  0  0  0  0  0  0  0  0
  147.0931  133.0123  152.2007 H   0  0  0  0  0  0  0  0  0  0  0  0
  145.5146  133.1529  152.9779 H   0  0  0  0  0  0  0  0  0  0  0  0
  146.2761  133.9177  150.1780 H   0  0  0  0  0  0  0  0  0  0  0  0
  144.7353  133.3123  150.7725 H   0  0  0  0  0  0  0  0  0  0  0  0
  145.5516  136.0646  150.3574 H   0  0  0  0  0  0  0  0  0  0  0  0
  144.0012  135.5422  151.0041 H   0  0  0  0  0  0  0  0  0  0  0  0
  144.6922  135.8199  153.2153 H   0  0  0  0  0  0  0  0  0  0  0  0
  145.8772  136.9349  152.5318 H   0  0  0  0  0  0  0  0  0  0  0  0
  147.4355  135.2724  152.4527 H   0  0  0  0  0  0  0  0  0  0  0  0
  1  2  1  0  0  0  0
  1 18  1  0  0  0  0
  1 19  1  0  0  0  0
  1 20  1  0  0  0  0
  2 17  1  0  0  0  0
  2  3  2  0  0  0  0
  3  4  1  0  0  0  0
  3 21  1  0  0  0  0
  4  5  1  0  0  0  0
  4 16  2  0  0  0  0
  5  6  1  0  0  0  0
  6  7  2  0  0  0  0
  6  8  1  0  0  0  0
  8  9  1  0  0  0  0
  8 22  1  0  0  0  0
  9 10  1  0  0  0  0
  9 23  1  0  0  0  0
  9 24  1  0  0  0  0
 10 11  1  0  0  0  0
 10 25  1  0  0  0  0
 10 26  1  0  0  0  0
 11 15  1  0  0  0  0
 11 12  1  0  0  0  0
 11 35  1  0  0  0  0
 12 13  1  0  0  0  0
 12 27  1  0  0  0  0
 12 28  1  0  0  0  0
 13 14  1  0  0  0  0
 13 29  1  0  0  0  0
 13 30  1  0  0  0  0
 14 15  1  0  0  0  0
 14 31  1  0  0  0  0
 14 32  1  0  0  0  0
 15 33  1  0  0  0  0
 15 34  1  0  0  0  0
 16 17  1  0  0  0  0
M  CHG  1   5  -1
M  CHG  1  11   1
M  END
> <s_m_source_file>
AV-unprocessed.smi

> <i_m_source_file_index>
855

> <i_lp_mmshare_version>
43012

> <i_f3d_flags>
0

> <s_epik_input>
W0NIM11jMVtjSF1jKG5vMSlbTkhdQyg9TylbTkhdW0NIMl1bQ0gyXU4yW0NIMl1bQ0gyXVtDSDJdW0NIMl0y

> <s_epik_cmdline>
J2VwaWtfcHl0aG9uJywgJy1waCcsICc3LjAnLCAnLXRuJywgJzgnLCAnLW1hJywgJzIwMCcsICctbWV0YWxfYmluZGluZycsICctaW1hZScsICc8aW5maWxlLm1hZT4nLCAnLW9tYWUnLCAnPG91dGZpbGUubWFlPic=

> <r_epik_Ionization_Penalty>
6.22372

> <r_epik_Ionization_Penalty_Charging>
6.22363

> <r_epik_Ionization_Penalty_Neutral>
9.36971e-05

> <r_epik_State_Penalty>
6.22291

> <r_epik_Charging_Adjusted_Penalty>
12.4465

> <i_epik_Tot_Q>
0

> <i_epik_Tot_abs_Q>
2

> <r_epik_Metal_State_Penalty>
2.16624

> <b_epik_Metal_Only>
1

> <s_lp_Force_Field>
OPLS_2005

> <r_lp_Energy>
15.2309

> <b_lp_Chiralities_Consistent>
1

> <s_lp_Variant>
AV-unprocessed.smi:855-2

> <Gold.Version>
5.8.1

> <Gold.Id.Protein>
6NUR|6NUR_protein|mol2

> <Gold.PLP.Fitness>
44.8700

> <Gold.PLP.PLP>
-28.8240

> <Gold.PLP.part.hbond>
-4.0000

> <Gold.PLP.part.metal>
0.0000

> <Gold.PLP.part.buried>
-4.4716

> <Gold.PLP.part.nonpolar>
-20.6926

> <Gold.PLP.part.repulsive>
0.3128

> <Gold.PLP.ligand.clash>
0.0000

> <Gold.PLP.ligand.torsion>
0.9946

> <Gold.PLP.Chemscore.Hbond>
6.0000

> <Gold.PLP.Chemscore.CHOScore>
0.0000

> <Gold.PLP.Chemscore.Metal>
0.0000

> <Gold.Chemscore.Hbonds>
donor molecule, donor type, donor heavy atom, donor atom, acceptor molecule, acceptor atom, score
      L1  H     8    22       P1  7948  1.00
      L1  H    11    35       P1  7948  2.00
      P1  H  7989  7998       L1    17  1.00
      P1  H 10752 10763       L1     5  2.00

> <Gold.PLP.Chemscore.Internal.Correction>
0.0352

> <Gold.Rescore>
     Score         DG    S(hbond)    S(metal)    S(lipo)     H(rot)  DE(clash)    DE(int)     intcor
     16.55     -18.83       3.61        0.00      45.61       1.57       0.00       2.28       ----

> <Gold.Chemscore.Fitness>
16.5501

> <Gold.Chemscore.DG>
-18.8334

> <Gold.Chemscore.ZeroCoef>
-5.4800

> <Gold.Chemscore.Hbond>
3.6059

> <Gold.Chemscore.Metal>
0.0000

> <Gold.Chemscore.Lipo>
45.6144

> <Gold.Chemscore.Internal_Hbond>
0.0000

> <Gold.Chemscore.DEClash>
0.0029

> <Gold.Chemscore.DEInternal>
2.2804

> <Gold.Chemscore.Rot>
1.5731

> <Gold.Chemscore.Internal.Correction>
   9.000000E+99

> <Gold.Chemscore.Hbonds>
donor molecule, donor type, donor heavy atom, donor atom, acceptor molecule, acceptor atom, score
      L1  H     8    22       P1  7948  0.26
      L1  H    11    35       P1  7948  1.00
      P1  H  7989  7998       L1    17  0.30
      P1  H 10752 10763       L1     5  0.92

> <Gold.Chemscore.Hbond.Weighted>
-12.0436

> <Gold.Chemscore.Metal.Weighted>
-0.0000

> <Gold.Chemscore.Lipo.Weighted>
-5.3369

> <Gold.Chemscore.Internal_Hbond.Weighted>
0.0000

> <Gold.Chemscore.DEClash.Weighted>
0.0029

> <Gold.Chemscore.DEInternal.Weighted>
2.2804

> <Gold.Chemscore.Rot.Weighted>
4.0271

> <Gold.Chemscore.Internal.Correction.Weighted>
   9.000000E+99

> <Gold.Protein.RotatedTorsions>
[ 6907 6896 6895 6894 ] final  103.53 input  -60.11 | X-H torsion
[ 7974 7965 7964 7962 ] final  -68.78 input  175.53 | X-H torsion
[ 8008 7997 7996 7995 ] final -100.04 input   59.86 | X-H torsion
[ 10167 10162 10161 10158 ] final  -55.83 input  -65.29 | X-H torsion
[ 10718 10713 10712 10709 ] final   50.07 input   66.30 | X-H torsion
[ 10763 10752 10751 10750 ] final   64.18 input  -60.55 | X-H torsion
[ 11005 11000 10999 10996 ] final -143.35 input  -57.11 | X-H torsion

> <Gold.Protein.ActiveResidues>
 VAL166  LYS551  ARG553  GLY616  TRP617  ASP618  TYR619  PRO620  LYS621  CYS622 
 ASP623  PHE694  ASN695  SER759  ASP760  ASP761  ALA762  ILE779  LEU786  VAL792 
 PHE793  MET794  SER795  GLU796  ALA797  LYS798  CYS799  TRP800  GLU811  SER814 

> <Gold.Protein.RotatedAtoms>
  152.5292  133.9812  159.7806 H   0  0  0  0  0  0  0  0  0  0  0  0  # atno 6907 bound_to 6896
  151.0065  133.5998  159.2695 H   0  0  0  0  0  0  0  0  0  0  0  0  # atno 6908 bound_to 6896
  151.3088  135.0795  159.9318 H   0  0  0  0  0  0  0  0  0  0  0  0  # atno 6909 bound_to 6896
  145.7122  140.9073  143.0674 H   0  0  0  0  0  0  0  0  0  0  0  0  # atno 7974 bound_to 7965
  154.8231  140.0443  157.1425 H   0  0  0  0  0  0  0  0  0  0  0  0  # atno 8008 bound_to 7997
  154.9236  140.3030  155.5183 H   0  0  0  0  0  0  0  0  0  0  0  0  # atno 8009 bound_to 7997
  156.2981  140.2336  156.4289 H   0  0  0  0  0  0  0  0  0  0  0  0  # atno 8010 bound_to 7997
  140.6352  143.2479  151.5136 H   0  0  0  0  0  0  0  0  0  0  0  0  # atno 10167 bound_to 10162
  157.4848  130.8338  149.8135 H   0  0  0  0  0  0  0  0  0  0  0  0  # atno 10718 bound_to 10713
  153.0046  135.5402  154.6469 H   0  0  0  0  0  0  0  0  0  0  0  0  # atno 10763 bound_to 10752
  154.5710  135.2841  155.0829 H   0  0  0  0  0  0  0  0  0  0  0  0  # atno 10764 bound_to 10752
  154.1995  135.6486  153.5135 H   0  0  0  0  0  0  0  0  0  0  0  0  # atno 10765 bound_to 10752
  140.8134  134.2718  157.4931 H   0  0  0  0  0  0  0  0  0  0  0  0  # atno 11005 bound_to 11000
  144.6939  139.9090  143.7462 LP  0  0  0  0  0  0  0  0  0  0  0  0  # atno 17320 bound_to 7965
  146.0702  139.3691  143.0527 LP  0  0  0  0  0  0  0  0  0  0  0  0  # atno 17321 bound_to 7965
  139.5563  144.2267  152.1618 LP  0  0  0  0  0  0  0  0  0  0  0  0  # atno 17342 bound_to 10162
  140.1522  144.5104  150.6681 LP  0  0  0  0  0  0  0  0  0  0  0  0  # atno 17343 bound_to 10162
  156.0141  130.3821  150.2168 LP  0  0  0  0  0  0  0  0  0  0  0  0  # atno 17370 bound_to 10713
  157.0355  131.0020  151.3299 LP  0  0  0  0  0  0  0  0  0  0  0  0  # atno 17371 bound_to 10713
  139.8712  134.9495  156.4029 LP  0  0  0  0  0  0  0  0  0  0  0  0  # atno 17394 bound_to 11000
  140.9174  133.7668  155.9865 LP  0  0  0  0  0  0  0  0  0  0  0  0  # atno 17395 bound_to 11000

$$$$
