AV-unprocessed.smi:3218|AV-procd|sdf|12293|dock2
  -GOLD-   2272018133D 1   1.00000     0.00000
 Structure written by MMmdl.
 38 39  0  0  0  0  0  0  0  0  2 V2000
  151.8473  137.3230  154.2972 C   0  0  0  0  0  0  0  0  0  0  0  0
  150.9382  138.4562  154.6777 C   0  0  0  0  0  0  0  0  0  0  0  0
  149.5945  138.6758  154.2609 C   0  0  0  0  0  0  0  0  0  0  0  0
  149.0676  139.7730  154.7804 N   0  0  0  0  0  0  0  0  0  0  0  0
  150.0535  140.2920  155.5426 N   0  0  0  0  0  0  0  0  0  0  0  0
  149.8257  141.5208  156.2813 C   0  0  0  0  0  0  0  0  0  0  0  0
  151.1334  142.1413  156.7986 C   0  0  0  0  0  0  0  0  0  0  0  0
  150.8869  143.3886  157.5503 N   0  3  0  0  0  0  0  0  0  0  0  0
  152.0497  144.2938  157.6135 C   0  0  0  0  0  0  0  0  0  0  0  0
  152.1648  144.9448  159.0008 C   0  0  0  0  0  0  0  0  0  0  0  0
  152.4144  143.9522  160.0427 N   0  0  0  0  0  0  0  0  0  0  0  0
  151.8858  144.1318  161.3845 C   0  0  0  0  0  0  0  0  0  0  0  0
  152.5127  143.0021  162.2143 C   0  0  0  0  0  0  0  0  0  0  0  0
  153.1058  142.0182  161.1998 C   0  0  0  0  0  0  0  0  0  0  0  0
  153.0730  142.7964  159.8955 C   0  0  0  0  0  0  0  0  0  0  0  0
  153.5945  142.3877  158.8593 O   0  0  0  0  0  0  0  0  0  0  0  0
  151.1932  139.5172  155.4996 C   0  0  0  0  0  0  0  0  0  0  0  0
  151.5781  136.8951  153.3313 H   0  0  0  0  0  0  0  0  0  0  0  0
  151.8093  136.5154  155.0283 H   0  0  0  0  0  0  0  0  0  0  0  0
  152.8866  137.6447  154.2260 H   0  0  0  0  0  0  0  0  0  0  0  0
  148.9895  138.0723  153.6002 H   0  0  0  0  0  0  0  0  0  0  0  0
  149.3221  142.2247  155.6177 H   0  0  0  0  0  0  0  0  0  0  0  0
  149.1372  141.3223  157.1042 H   0  0  0  0  0  0  0  0  0  0  0  0
  151.6609  141.4274  157.4329 H   0  0  0  0  0  0  0  0  0  0  0  0
  151.7885  142.3640  155.9557 H   0  0  0  0  0  0  0  0  0  0  0  0
  150.1172  143.8789  157.1177 H   0  0  0  0  0  0  0  0  0  0  0  0
  152.9522  143.7262  157.3834 H   0  0  0  0  0  0  0  0  0  0  0  0
  151.9477  145.0635  156.8475 H   0  0  0  0  0  0  0  0  0  0  0  0
  152.9715  145.6792  159.0021 H   0  0  0  0  0  0  0  0  0  0  0  0
  151.2508  145.4916  159.2386 H   0  0  0  0  0  0  0  0  0  0  0  0
  152.1381  145.1147  161.7845 H   0  0  0  0  0  0  0  0  0  0  0  0
  150.7991  144.0410  161.3596 H   0  0  0  0  0  0  0  0  0  0  0  0
  153.3050  143.3992  162.8501 H   0  0  0  0  0  0  0  0  0  0  0  0
  151.7791  142.5251  162.8649 H   0  0  0  0  0  0  0  0  0  0  0  0
  154.1215  141.7190  161.4606 H   0  0  0  0  0  0  0  0  0  0  0  0
  152.4894  141.1236  161.1048 H   0  0  0  0  0  0  0  0  0  0  0  0
  152.0829  139.7816  156.0524 H   0  0  0  0  0  0  0  0  0  0  0  0
  150.6200  143.1415  158.4933 H   0  0  0  0  0  0  0  0  0  0  0  0
  1  2  1  0  0  0  0
  1 18  1  0  0  0  0
  1 19  1  0  0  0  0
  1 20  1  0  0  0  0
  2 17  2  0  0  0  0
  2  3  1  0  0  0  0
  3  4  2  0  0  0  0
  3 21  1  0  0  0  0
  4  5  1  0  0  0  0
  5  6  1  0  0  0  0
  5 17  1  0  0  0  0
  6  7  1  0  0  0  0
  6 22  1  0  0  0  0
  6 23  1  0  0  0  0
  7  8  1  0  0  0  0
  7 24  1  0  0  0  0
  7 25  1  0  0  0  0
  8  9  1  0  0  0  0
  8 26  1  0  0  0  0
  8 38  1  0  0  0  0
  9 10  1  0  0  0  0
  9 27  1  0  0  0  0
  9 28  1  0  0  0  0
 10 11  1  0  0  0  0
 10 29  1  0  0  0  0
 10 30  1  0  0  0  0
 11 15  1  0  0  0  0
 11 12  1  0  0  0  0
 12 13  1  0  0  0  0
 12 31  1  0  0  0  0
 12 32  1  0  0  0  0
 13 14  1  0  0  0  0
 13 33  1  0  0  0  0
 13 34  1  0  0  0  0
 14 15  1  0  0  0  0
 14 35  1  0  0  0  0
 14 36  1  0  0  0  0
 15 16  2  0  0  0  0
 17 37  1  0  0  0  0
M  CHG  1   8   1
M  END
> <s_m_source_file>
AV-unprocessed.smi

> <i_m_source_file_index>
3218

> <i_lp_mmshare_version>
43012

> <i_f3d_flags>
0

> <s_epik_input>
W0NIM11jMVtjSF1ubihbY0hdMSlbQ0gyXVtDSDJdW05IXVtDSDJdW0NIMl1OMltDSDJdW0NIMl1bQ0gyXUMyPU8=

> <s_epik_cmdline>
J2VwaWtfcHl0aG9uJywgJy1waCcsICc3LjAnLCAnLXRuJywgJzgnLCAnLW1hJywgJzIwMCcsICctbWV0YWxfYmluZGluZycsICctaW1hZScsICc8aW5maWxlLm1hZT4nLCAnLW9tYWUnLCAnPG91dGZpbGUubWFlPic=

> <r_lp_tautomer_probability>
1

> <r_epik_Ionization_Penalty>
0.00826456

> <r_epik_Ionization_Penalty_Charging>
0.00825899

> <r_epik_Ionization_Penalty_Neutral>
5.57245e-06

> <r_epik_State_Penalty>
0.00621436

> <r_epik_Charging_Adjusted_Penalty>
0.0144734

> <i_epik_Tot_Q>
1

> <i_epik_Tot_abs_Q>
1

> <r_epik_Metal_State_Penalty>
0.00623755

> <b_epik_Metal_Only>
0

> <s_lp_Force_Field>
OPLS_2005

> <r_lp_Energy>
17.5309

> <b_lp_Chiralities_Consistent>
1

> <s_lp_Variant>
AV-unprocessed.smi:3218-1

> <Gold.Version>
5.8.1

> <Gold.Id.Protein>
6NUR|6NUR_protein|mol2

> <Gold.PLP.Fitness>
49.8878

> <Gold.PLP.PLP>
-42.7625

> <Gold.PLP.part.hbond>
-1.0000

> <Gold.PLP.part.metal>
0.0000

> <Gold.PLP.part.buried>
3.5110

> <Gold.PLP.part.nonpolar>
-44.4984

> <Gold.PLP.part.repulsive>
0.0978

> <Gold.PLP.ligand.clash>
0.0000

> <Gold.PLP.ligand.torsion>
0.9464

> <Gold.PLP.Chemscore.Hbond>
2.0000

> <Gold.PLP.Chemscore.CHOScore>
0.9891

> <Gold.PLP.Chemscore.Metal>
0.0000

> <Gold.Chemscore.Hbonds>
donor molecule, donor type, donor heavy atom, donor atom, acceptor molecule, acceptor atom, score
      L1  H     8    26       P1  8028  1.82
      L1  C     3    21       P1  7948  1.00

> <Gold.PLP.Chemscore.Internal.Correction>
0.0509

> <Gold.Rescore>
     Score         DG    S(hbond)    S(metal)    S(lipo)     H(rot)  DE(clash)    DE(int)     intcor
     11.63     -16.52       0.99        0.00     110.41       2.03       3.03       1.86       ----

> <Gold.Chemscore.Fitness>
11.6280

> <Gold.Chemscore.DG>
-16.5194

> <Gold.Chemscore.ZeroCoef>
-5.4800

> <Gold.Chemscore.Hbond>
0.9950

> <Gold.Chemscore.Metal>
0.0000

> <Gold.Chemscore.Lipo>
110.4090

> <Gold.Chemscore.Internal_Hbond>
0.0000

> <Gold.Chemscore.DEClash>
3.0270

> <Gold.Chemscore.DEInternal>
1.8644

> <Gold.Chemscore.Rot>
2.0319

> <Gold.Chemscore.Internal.Correction>
   9.000000E+99

> <Gold.Chemscore.Hbonds>
donor molecule, donor type, donor heavy atom, donor atom, acceptor molecule, acceptor atom, score
      L1  H     8    26       P1  8028  0.82

> <Gold.Chemscore.Hbond.Weighted>
-3.3233

> <Gold.Chemscore.Metal.Weighted>
-0.0000

> <Gold.Chemscore.Lipo.Weighted>
-12.9179

> <Gold.Chemscore.Internal_Hbond.Weighted>
0.0000

> <Gold.Chemscore.DEClash.Weighted>
3.0270

> <Gold.Chemscore.DEInternal.Weighted>
1.8644

> <Gold.Chemscore.Rot.Weighted>
5.2017

> <Gold.Chemscore.Internal.Correction.Weighted>
   9.000000E+99

> <Gold.Protein.RotatedTorsions>
[ 6907 6896 6895 6894 ] final -129.61 input  -60.11 | X-H torsion
[ 7974 7965 7964 7962 ] final -179.90 input  175.53 | X-H torsion
[ 8008 7997 7996 7995 ] final  137.16 input   59.86 | X-H torsion
[ 10167 10162 10161 10158 ] final  -16.32 input  -65.29 | X-H torsion
[ 10718 10713 10712 10709 ] final  121.76 input   66.30 | X-H torsion
[ 10763 10752 10751 10750 ] final    7.21 input  -60.55 | X-H torsion
[ 11005 11000 10999 10996 ] final  132.78 input  -57.11 | X-H torsion

> <Gold.Protein.ActiveResidues>
 VAL166  LYS551  ARG553  GLY616  TRP617  ASP618  TYR619  PRO620  LYS621  CYS622 
 ASP623  PHE694  ASN695  SER759  ASP760  ASP761  ALA762  ILE779  LEU786  VAL792 
 PHE793  MET794  SER795  GLU796  ALA797  LYS798  CYS799  TRP800  GLU811  SER814 

> <Gold.Protein.RotatedAtoms>
  150.9306  133.6771  159.2811 H   0  0  0  0  0  0  0  0  0  0  0  0  # atno 6907 bound_to 6896
  151.4194  135.0994  159.9619 H   0  0  0  0  0  0  0  0  0  0  0  0  # atno 6908 bound_to 6896
  152.5024  133.8761  159.7378 H   0  0  0  0  0  0  0  0  0  0  0  0  # atno 6909 bound_to 6896
  144.7140  140.0648  143.6431 H   0  0  0  0  0  0  0  0  0  0  0  0  # atno 7974 bound_to 7965
  156.3003  140.2426  156.3865 H   0  0  0  0  0  0  0  0  0  0  0  0  # atno 8008 bound_to 7997
  154.8653  140.0418  157.1711 H   0  0  0  0  0  0  0  0  0  0  0  0  # atno 8009 bound_to 7997
  154.8852  140.2955  155.5406 H   0  0  0  0  0  0  0  0  0  0  0  0  # atno 8010 bound_to 7997
  140.7232  143.5128  150.9728 H   0  0  0  0  0  0  0  0  0  0  0  0  # atno 10167 bound_to 10162
  157.5793  131.1076  150.8218 H   0  0  0  0  0  0  0  0  0  0  0  0  # atno 10718 bound_to 10713
  153.2389  135.6901  153.7805 H   0  0  0  0  0  0  0  0  0  0  0  0  # atno 10763 bound_to 10752
  153.6942  135.3308  155.3210 H   0  0  0  0  0  0  0  0  0  0  0  0  # atno 10764 bound_to 10752
  154.8347  135.4552  154.1303 H   0  0  0  0  0  0  0  0  0  0  0  0  # atno 10765 bound_to 10752
  139.9811  134.9548  156.9631 H   0  0  0  0  0  0  0  0  0  0  0  0  # atno 11005 bound_to 11000
  145.9833  139.2958  143.1028 LP  0  0  0  0  0  0  0  0  0  0  0  0  # atno 17320 bound_to 7965
  145.8985  140.9258  143.0515 LP  0  0  0  0  0  0  0  0  0  0  0  0  # atno 17321 bound_to 7965
  139.8843  143.7033  152.3153 LP  0  0  0  0  0  0  0  0  0  0  0  0  # atno 17342 bound_to 10162
  139.7326  144.7579  151.0778 LP  0  0  0  0  0  0  0  0  0  0  0  0  # atno 17343 bound_to 10162
  156.8668  130.5132  149.5299 LP  0  0  0  0  0  0  0  0  0  0  0  0  # atno 17370 bound_to 10713
  156.0839  130.5842  150.9612 LP  0  0  0  0  0  0  0  0  0  0  0  0  # atno 17371 bound_to 10713
  140.5095  134.1016  155.7267 LP  0  0  0  0  0  0  0  0  0  0  0  0  # atno 17394 bound_to 11000
  141.1483  133.9015  157.2162 LP  0  0  0  0  0  0  0  0  0  0  0  0  # atno 17395 bound_to 11000

$$$$
