AV-unprocessed.smi:967|AV-procd|sdf|4288|dock7
  -GOLD-   22720 2193D 1   1.00000     0.00000
 Structure written by MMmdl.
 42 43  0  0  0  0  0  0  0  0  1 V2000
  145.5195  143.1748  154.5710 C   0  0  0  0  0  0  0  0  0  0  0  0
  145.7819  142.0481  155.4531 N   0  0  0  0  0  0  0  0  0  0  0  0
  146.6705  142.3063  156.5757 C   0  0  0  0  0  0  0  0  0  0  0  0
  146.1064  140.8736  154.7612 C   0  0  0  0  0  0  0  0  0  0  0  0
  147.1881  140.8308  153.8524 C   0  0  0  0  0  0  0  0  0  0  0  0
  147.4684  139.6213  153.1882 C   0  0  0  0  0  0  0  0  0  0  0  0
  146.6633  138.4898  153.4598 C   0  0  0  0  0  0  0  0  0  0  0  0
  146.8330  137.2219  152.8414 N   0  0  0  0  0  0  0  0  0  0  0  0
  145.9208  136.2513  152.6619 C   0  0  0  0  0  0  0  0  0  0  0  0
  144.7368  136.3206  152.9907 O   0  0  0  0  0  0  0  0  0  0  0  0
  146.4635  135.1880  152.0513 N   0  0  0  0  0  0  0  0  0  0  0  0
  145.7622  133.9611  151.6822 C   0  0  2  0  0  0  0  0  0  0  0  0
  146.5764  133.1967  150.6227 C   0  0  0  0  0  0  0  0  0  0  0  0
  145.8409  131.9304  150.1497 C   0  0  0  0  0  0  0  0  0  0  0  0
  144.4186  132.2368  149.6432 C   0  0  2  0  0  0  0  0  0  0  0  0
  144.4814  132.9437  148.4201 O   0  0  0  0  0  0  0  0  0  0  0  0
  143.6106  133.0419  150.6789 C   0  0  0  0  0  0  0  0  0  0  0  0
  144.3570  134.3018  151.1524 C   0  0  0  0  0  0  0  0  0  0  0  0
  145.5993  138.6452  154.3721 C   0  0  0  0  0  0  0  0  0  0  0  0
  145.3256  139.8009  155.0133 N   0  0  0  0  0  0  0  0  0  0  0  0
  144.8498  142.8859  153.7601 H   0  0  0  0  0  0  0  0  0  0  0  0
  146.4445  143.5554  154.1366 H   0  0  0  0  0  0  0  0  0  0  0  0
  145.0453  143.9842  155.1265 H   0  0  0  0  0  0  0  0  0  0  0  0
  146.8029  141.4088  157.1815 H   0  0  0  0  0  0  0  0  0  0  0  0
  146.2527  143.0848  157.2143 H   0  0  0  0  0  0  0  0  0  0  0  0
  147.6505  142.6380  156.2303 H   0  0  0  0  0  0  0  0  0  0  0  0
  147.7912  141.7064  153.6623 H   0  0  0  0  0  0  0  0  0  0  0  0
  148.2804  139.5910  152.4785 H   0  0  0  0  0  0  0  0  0  0  0  0
  147.7431  137.0561  152.4373 H   0  0  0  0  0  0  0  0  0  0  0  0
  147.4441  135.2317  151.8151 H   0  0  0  0  0  0  0  0  0  0  0  0
  145.6509  133.3123  152.5528 H   0  0  0  0  0  0  0  0  0  0  0  0
  146.7721  133.8447  149.7671 H   0  0  0  0  0  0  0  0  0  0  0  0
  147.5508  132.9222  151.0287 H   0  0  0  0  0  0  0  0  0  0  0  0
  146.4197  131.4277  149.3741 H   0  0  0  0  0  0  0  0  0  0  0  0
  145.7767  131.2286  150.9824 H   0  0  0  0  0  0  0  0  0  0  0  0
  143.9019  131.2981  149.4404 H   0  0  0  0  0  0  0  0  0  0  0  0
  145.1775  133.5803  148.4766 H   0  0  0  0  0  0  0  0  0  0  0  0
  142.6366  133.3140  150.2709 H   0  0  0  0  0  0  0  0  0  0  0  0
  143.4105  132.4070  151.5429 H   0  0  0  0  0  0  0  0  0  0  0  0
  143.7763  134.7994  151.9300 H   0  0  0  0  0  0  0  0  0  0  0  0
  144.4345  135.0103  150.3263 H   0  0  0  0  0  0  0  0  0  0  0  0
  144.9481  137.8142  154.6009 H   0  0  0  0  0  0  0  0  0  0  0  0
  1  2  1  0  0  0  0
  1 21  1  0  0  0  0
  1 22  1  0  0  0  0
  1 23  1  0  0  0  0
  2  3  1  0  0  0  0
  2  4  1  0  0  0  0
  3 24  1  0  0  0  0
  3 25  1  0  0  0  0
  3 26  1  0  0  0  0
  4 20  1  0  0  0  0
  4  5  2  0  0  0  0
  5  6  1  0  0  0  0
  5 27  1  0  0  0  0
  6  7  2  0  0  0  0
  6 28  1  0  0  0  0
  7  8  1  0  0  0  0
  7 19  1  0  0  0  0
  8  9  1  0  0  0  0
  8 29  1  0  0  0  0
  9 10  2  0  0  0  0
  9 11  1  0  0  0  0
 11 12  1  0  0  0  0
 11 30  1  0  0  0  0
 12 18  1  0  0  0  0
 12 13  1  0  0  0  0
 12 31  1  0  0  0  0
 13 14  1  0  0  0  0
 13 32  1  0  0  0  0
 13 33  1  0  0  0  0
 14 15  1  0  0  0  0
 14 34  1  0  0  0  0
 14 35  1  0  0  0  0
 15 16  1  0  0  0  0
 15 17  1  0  0  0  0
 15 36  1  0  0  0  0
 16 37  1  0  0  0  0
 17 18  1  0  0  0  0
 17 38  1  0  0  0  0
 17 39  1  0  0  0  0
 18 40  1  0  0  0  0
 18 41  1  0  0  0  0
 19 20  2  0  0  0  0
 19 42  1  0  0  0  0
M  END
> <s_m_source_file>
AV-unprocessed.smi

> <i_m_source_file_index>
967

> <i_lp_mmshare_version>
43012

> <i_f3d_flags>
0

> <s_epik_input>
W0NIM11OKFtDSDNdKWMxW2NIXVtjSF1jKFtjSF1uMSlbTkhdQyg9TylbTkhdW0NAQEhdMltDSDJdW0NIMl1bQ0BASF0oW09IXSlbQ0gyXVtDSDJdMg==

> <s_epik_cmdline>
J2VwaWtfcHl0aG9uJywgJy1waCcsICc3LjAnLCAnLXRuJywgJzgnLCAnLW1hJywgJzIwMCcsICctbWV0YWxfYmluZGluZycsICctaW1hZScsICc8aW5maWxlLm1hZT4nLCAnLW9tYWUnLCAnPG91dGZpbGUubWFlPic=

> <r_lp_tautomer_probability>
1

> <r_epik_Ionization_Penalty>
0.629464

> <r_epik_Ionization_Penalty_Charging>
0

> <r_epik_Ionization_Penalty_Neutral>
0.629464

> <r_epik_State_Penalty>
0.645019

> <r_epik_Charging_Adjusted_Penalty>
0.645019

> <i_epik_Tot_Q>
0

> <i_epik_Tot_abs_Q>
0

> <r_epik_Metal_State_Penalty>
0.308581

> <b_epik_Metal_Only>
0

> <s_lp_Force_Field>
OPLS_2005

> <r_lp_Energy>
18.5045

> <b_lp_Chiralities_Consistent>
1

> <s_lp_Variant>
AV-unprocessed.smi:967-4

> <Gold.Version>
5.8.1

> <Gold.Id.Protein>
6NUR|6NUR_protein|mol2

> <Gold.PLP.Fitness>
38.8548

> <Gold.PLP.PLP>
-31.2683

> <Gold.PLP.part.hbond>
-3.7637

> <Gold.PLP.part.metal>
0.0000

> <Gold.PLP.part.buried>
-2.6601

> <Gold.PLP.part.nonpolar>
-26.1774

> <Gold.PLP.part.repulsive>
0.5151

> <Gold.PLP.ligand.clash>
0.0000

> <Gold.PLP.ligand.torsion>
0.6412

> <Gold.PLP.Chemscore.Hbond>
2.8880

> <Gold.PLP.Chemscore.CHOScore>
0.0000

> <Gold.PLP.Chemscore.Metal>
0.0000

> <Gold.Chemscore.Hbonds>
donor molecule, donor type, donor heavy atom, donor atom, acceptor molecule, acceptor atom, score
      L1  H     8    29       P1  7948  1.00
      L1  H    11    30       P1  7948  0.94
      L1  H    16    37       P1  7921  0.91

> <Gold.PLP.Chemscore.Internal.Correction>
0.2049

> <Gold.Rescore>
     Score         DG    S(hbond)    S(metal)    S(lipo)     H(rot)  DE(clash)    DE(int)     intcor
     13.91     -17.44       2.32        0.00      73.31       1.71       0.30       3.24       ----

> <Gold.Chemscore.Fitness>
13.9051

> <Gold.Chemscore.DG>
-17.4391

> <Gold.Chemscore.ZeroCoef>
-5.4800

> <Gold.Chemscore.Hbond>
2.3221

> <Gold.Chemscore.Metal>
0.0000

> <Gold.Chemscore.Lipo>
73.3054

> <Gold.Chemscore.Internal_Hbond>
0.0000

> <Gold.Chemscore.DEClash>
0.2975

> <Gold.Chemscore.DEInternal>
3.2365

> <Gold.Chemscore.Rot>
1.7084

> <Gold.Chemscore.Internal.Correction>
   9.000000E+99

> <Gold.Chemscore.Hbonds>
donor molecule, donor type, donor heavy atom, donor atom, acceptor molecule, acceptor atom, score
      L1  H     8    29       P1  7948  0.96
      L1  H    11    30       P1  7948  0.87
      L1  H    16    37       P1  7921  0.58

> <Gold.Chemscore.Hbond.Weighted>
-7.7559

> <Gold.Chemscore.Metal.Weighted>
-0.0000

> <Gold.Chemscore.Lipo.Weighted>
-8.5767

> <Gold.Chemscore.Internal_Hbond.Weighted>
0.0000

> <Gold.Chemscore.DEClash.Weighted>
0.2975

> <Gold.Chemscore.DEInternal.Weighted>
3.2365

> <Gold.Chemscore.Rot.Weighted>
4.3735

> <Gold.Chemscore.Internal.Correction.Weighted>
   9.000000E+99

> <Gold.Protein.RotatedTorsions>
[ 6907 6896 6895 6894 ] final  146.64 input  -60.11 | X-H torsion
[ 7974 7965 7964 7962 ] final  176.97 input  175.53 | X-H torsion
[ 8008 7997 7996 7995 ] final  111.56 input   59.86 | X-H torsion
[ 10167 10162 10161 10158 ] final  -82.18 input  -65.29 | X-H torsion
[ 10718 10713 10712 10709 ] final   52.11 input   66.30 | X-H torsion
[ 10763 10752 10751 10750 ] final  -39.68 input  -60.55 | X-H torsion
[ 11005 11000 10999 10996 ] final   28.39 input  -57.11 | X-H torsion

> <Gold.Protein.ActiveResidues>
 VAL166  LYS551  ARG553  GLY616  TRP617  ASP618  TYR619  PRO620  LYS621  CYS622 
 ASP623  PHE694  ASN695  SER759  ASP760  ASP761  ALA762  ILE779  LEU786  VAL792 
 PHE793  MET794  SER795  GLU796  ALA797  LYS798  CYS799  TRP800  GLU811  SER814 

> <Gold.Protein.RotatedAtoms>
  152.1653  133.4608  159.4881 H   0  0  0  0  0  0  0  0  0  0  0  0  # atno 6907 bound_to 6896
  150.6912  134.2021  159.4335 H   0  0  0  0  0  0  0  0  0  0  0  0  # atno 6908 bound_to 6896
  151.9925  134.9971  160.0612 H   0  0  0  0  0  0  0  0  0  0  0  0  # atno 6909 bound_to 6896
  144.7176  140.0176  143.6440 H   0  0  0  0  0  0  0  0  0  0  0  0  # atno 7974 bound_to 7965
  156.2132  140.3017  155.9780 H   0  0  0  0  0  0  0  0  0  0  0  0  # atno 8008 bound_to 7997
  155.2671  140.0432  157.3020 H   0  0  0  0  0  0  0  0  0  0  0  0  # atno 8009 bound_to 7997
  154.5730  140.2353  155.8173 H   0  0  0  0  0  0  0  0  0  0  0  0  # atno 8010 bound_to 7997
  140.4343  143.2537  151.8715 H   0  0  0  0  0  0  0  0  0  0  0  0  # atno 10167 bound_to 10162
  157.5044  130.8459  149.8357 H   0  0  0  0  0  0  0  0  0  0  0  0  # atno 10718 bound_to 10713
  153.9334  135.6769  153.4745 H   0  0  0  0  0  0  0  0  0  0  0  0  # atno 10763 bound_to 10752
  153.0968  135.4847  154.8790 H   0  0  0  0  0  0  0  0  0  0  0  0  # atno 10764 bound_to 10752
  154.7416  135.3162  154.8676 H   0  0  0  0  0  0  0  0  0  0  0  0  # atno 10765 bound_to 10752
  140.3161  134.2596  155.7725 H   0  0  0  0  0  0  0  0  0  0  0  0  # atno 11005 bound_to 11000
  146.0207  139.3248  143.0814 LP  0  0  0  0  0  0  0  0  0  0  0  0  # atno 17320 bound_to 7965
  145.8571  140.9496  143.0719 LP  0  0  0  0  0  0  0  0  0  0  0  0  # atno 17321 bound_to 7965
  139.4786  144.5300  151.8681 LP  0  0  0  0  0  0  0  0  0  0  0  0  # atno 17342 bound_to 10162
  140.4391  144.2011  150.5890 LP  0  0  0  0  0  0  0  0  0  0  0  0  # atno 17343 bound_to 10162
  156.0249  130.3783  150.1852 LP  0  0  0  0  0  0  0  0  0  0  0  0  # atno 17370 bound_to 10713
  157.0042  130.9931  151.3383 LP  0  0  0  0  0  0  0  0  0  0  0  0  # atno 17371 bound_to 10713
  141.2097  133.7740  156.9978 LP  0  0  0  0  0  0  0  0  0  0  0  0  # atno 17394 bound_to 11000
  140.0983  134.9551  157.1883 LP  0  0  0  0  0  0  0  0  0  0  0  0  # atno 17395 bound_to 11000

$$$$
