AV-unprocessed.smi:897|AV-procd|sdf|4079|dock1
  -GOLD-   22720 1563D 1   1.00000     0.00000
 Structure written by MMmdl.
 35 37  0  0  0  0  0  0  0  0  1 V2000
  151.3425  144.1527  158.7388 C   0  0  0  0  0  0  0  0  0  0  0  0
  152.1080  142.9853  159.3253 C   0  0  0  0  0  0  0  0  0  0  0  0
  152.7049  143.0751  160.5964 C   0  0  0  0  0  0  0  0  0  0  0  0
  153.4074  141.9589  161.0941 C   0  0  0  0  0  0  0  0  0  0  0  0
  154.0616  142.0467  162.4645 C   0  0  0  0  0  0  0  0  0  0  0  0
  153.4809  140.7875  160.2957 C   0  0  0  0  0  0  0  0  0  0  0  0
  154.1951  139.6063  160.7773 C   0  0  0  0  0  0  0  0  0  0  0  0
  154.7600  138.6713  161.1588 N   0  0  0  0  0  0  0  0  0  0  0  0
  152.8421  140.7954  159.0247 C   0  0  0  0  0  0  0  0  0  0  0  0
  152.8895  139.6596  158.1946 N   0  0  0  0  0  0  0  0  0  0  0  0
  151.8164  139.3502  157.2555 C   0  0  2  0  0  0  0  0  0  0  0  0
  152.0830  138.0825  156.4333 C   0  0  0  0  0  0  0  0  0  0  0  0
  151.9783  138.6080  154.9964 C   0  0  1  0  0  0  0  0  0  0  0  0
  150.5425  139.0016  154.6233 C   0  0  0  0  0  0  0  0  0  0  0  0
  150.3580  140.2964  155.4143 C   0  0  0  0  0  0  0  0  0  0  0  0
  151.7004  140.4120  156.1488 C   0  0  2  0  0  0  0  0  0  0  0  0
  152.5678  139.8859  155.1569 O   0  0  0  0  0  0  0  0  0  0  0  0
  152.1746  141.8783  158.5590 N   0  0  0  0  0  0  0  0  0  0  0  0
  151.4180  145.0353  159.3746 H   0  0  0  0  0  0  0  0  0  0  0  0
  150.2876  143.8978  158.6324 H   0  0  0  0  0  0  0  0  0  0  0  0
  151.7356  144.4097  157.7547 H   0  0  0  0  0  0  0  0  0  0  0  0
  152.6260  143.9825  161.1774 H   0  0  0  0  0  0  0  0  0  0  0  0
  153.6362  141.3038  163.1397 H   0  0  0  0  0  0  0  0  0  0  0  0
  153.9153  143.0298  162.9124 H   0  0  0  0  0  0  0  0  0  0  0  0
  155.1350  141.8719  162.3882 H   0  0  0  0  0  0  0  0  0  0  0  0
  153.5726  138.9407  158.3863 H   0  0  0  0  0  0  0  0  0  0  0  0
  150.8732  139.2836  157.7999 H   0  0  0  0  0  0  0  0  0  0  0  0
  153.0836  137.6869  156.6153 H   0  0  0  0  0  0  0  0  0  0  0  0
  151.3640  137.2895  156.6410 H   0  0  0  0  0  0  0  0  0  0  0  0
  152.4716  137.9753  154.2581 H   0  0  0  0  0  0  0  0  0  0  0  0
  150.4561  139.1925  153.5530 H   0  0  0  0  0  0  0  0  0  0  0  0
  149.8193  138.2317  154.8940 H   0  0  0  0  0  0  0  0  0  0  0  0
  150.2140  141.1399  154.7382 H   0  0  0  0  0  0  0  0  0  0  0  0
  149.5094  140.2595  156.0983 H   0  0  0  0  0  0  0  0  0  0  0  0
  151.9361  141.4282  156.4677 H   0  0  0  0  0  0  0  0  0  0  0  0
  1  2  1  0  0  0  0
  1 19  1  0  0  0  0
  1 20  1  0  0  0  0
  1 21  1  0  0  0  0
  2 18  1  0  0  0  0
  2  3  2  0  0  0  0
  3  4  1  0  0  0  0
  3 22  1  0  0  0  0
  4  5  1  0  0  0  0
  4  6  2  0  0  0  0
  5 23  1  0  0  0  0
  5 24  1  0  0  0  0
  5 25  1  0  0  0  0
  6  7  1  0  0  0  0
  6  9  1  0  0  0  0
  7  8  3  0  0  0  0
  9 10  1  0  0  0  0
  9 18  2  0  0  0  0
 10 11  1  0  0  0  0
 10 26  1  0  0  0  0
 11 16  1  0  0  0  0
 11 12  1  0  0  0  0
 11 27  1  0  0  0  0
 12 13  1  0  0  0  0
 12 28  1  0  0  0  0
 12 29  1  0  0  0  0
 13 17  1  0  0  0  0
 13 14  1  0  0  0  0
 13 30  1  0  0  0  0
 14 15  1  0  0  0  0
 14 31  1  0  0  0  0
 14 32  1  0  0  0  0
 15 16  1  0  0  0  0
 15 33  1  0  0  0  0
 15 34  1  0  0  0  0
 16 17  1  0  0  0  0
 16 35  1  0  0  0  0
M  END
> <s_m_source_file>
AV-unprocessed.smi

> <i_m_source_file_index>
897

> <i_lp_mmshare_version>
43012

> <i_f3d_flags>
0

> <s_epik_input>
W0NIM11jMVtjSF1jKFtDSDNdKWMoQyNOKWMobjEpW05IXVtDQEhdKFtDSDJdW0NAQEhdMjMpW0NAQEhdKE8zKVtDSDJdW0NIMl0y

> <s_epik_cmdline>
J2VwaWtfcHl0aG9uJywgJy1waCcsICc3LjAnLCAnLXRuJywgJzgnLCAnLW1hJywgJzIwMCcsICctbWV0YWxfYmluZGluZycsICctaW1hZScsICc8aW5maWxlLm1hZT4nLCAnLW9tYWUnLCAnPG91dGZpbGUubWFlPic=

> <r_lp_tautomer_probability>
1

> <r_epik_Ionization_Penalty>
0.000502654

> <r_epik_Ionization_Penalty_Charging>
0

> <r_epik_Ionization_Penalty_Neutral>
0.000502654

> <r_epik_State_Penalty>
-0

> <r_epik_Charging_Adjusted_Penalty>
0

> <i_epik_Tot_Q>
0

> <i_epik_Tot_abs_Q>
0

> <r_epik_Metal_State_Penalty>
-0

> <b_epik_Metal_Only>
0

> <s_lp_Force_Field>
OPLS_2005

> <r_lp_Energy>
43.6406

> <b_lp_Chiralities_Consistent>
1

> <s_lp_Variant>
AV-unprocessed.smi:897-1

> <Gold.Version>
5.8.1

> <Gold.Id.Protein>
6NUR|6NUR_protein|mol2

> <Gold.PLP.Fitness>
43.1348

> <Gold.PLP.PLP>
-39.5558

> <Gold.PLP.part.hbond>
-2.0000

> <Gold.PLP.part.metal>
0.0000

> <Gold.PLP.part.buried>
-2.3399

> <Gold.PLP.part.nonpolar>
-35.1015

> <Gold.PLP.part.repulsive>
0.1679

> <Gold.PLP.ligand.clash>
0.0000

> <Gold.PLP.ligand.torsion>
0.1982

> <Gold.PLP.Chemscore.Hbond>
1.3175

> <Gold.PLP.Chemscore.CHOScore>
0.0000

> <Gold.PLP.Chemscore.Metal>
0.0000

> <Gold.Chemscore.Hbonds>
donor molecule, donor type, donor heavy atom, donor atom, acceptor molecule, acceptor atom, score
      P1  H  7989  7998       L1    17  0.37
      P1  H  7997  8008       L1    17  0.99

> <Gold.PLP.Chemscore.Internal.Correction>
0.0230

> <Gold.Rescore>
     Score         DG    S(hbond)    S(metal)    S(lipo)     H(rot)  DE(clash)    DE(int)     intcor
     15.86     -17.45       0.73        0.00     103.39       1.00       0.02       1.56       ----

> <Gold.Chemscore.Fitness>
15.8635

> <Gold.Chemscore.DG>
-17.4453

> <Gold.Chemscore.ZeroCoef>
-5.4800

> <Gold.Chemscore.Hbond>
0.7273

> <Gold.Chemscore.Metal>
0.0000

> <Gold.Chemscore.Lipo>
103.3865

> <Gold.Chemscore.Internal_Hbond>
0.0000

> <Gold.Chemscore.DEClash>
0.0231

> <Gold.Chemscore.DEInternal>
1.5586

> <Gold.Chemscore.Rot>
1.0000

> <Gold.Chemscore.Internal.Correction>
   9.000000E+99

> <Gold.Chemscore.Hbonds>
donor molecule, donor type, donor heavy atom, donor atom, acceptor molecule, acceptor atom, score
      P1  H  7989  7998       L1    17  0.01
      P1  H  7997  8008       L1    17  0.36

> <Gold.Chemscore.Hbond.Weighted>
-2.4290

> <Gold.Chemscore.Metal.Weighted>
-0.0000

> <Gold.Chemscore.Lipo.Weighted>
-12.0962

> <Gold.Chemscore.Internal_Hbond.Weighted>
0.0000

> <Gold.Chemscore.DEClash.Weighted>
0.0231

> <Gold.Chemscore.DEInternal.Weighted>
1.5586

> <Gold.Chemscore.Rot.Weighted>
2.5600

> <Gold.Chemscore.Internal.Correction.Weighted>
   9.000000E+99

> <Gold.Protein.RotatedTorsions>
[ 6907 6896 6895 6894 ] final  -72.40 input  -60.11 | X-H torsion
[ 7974 7965 7964 7962 ] final  107.01 input  175.53 | X-H torsion
[ 8008 7997 7996 7995 ] final  -21.19 input   59.86 | X-H torsion
[ 10167 10162 10161 10158 ] final  157.12 input  -65.29 | X-H torsion
[ 10718 10713 10712 10709 ] final  167.61 input   66.30 | X-H torsion
[ 10763 10752 10751 10750 ] final   57.91 input  -60.55 | X-H torsion
[ 11005 11000 10999 10996 ] final   19.82 input  -57.11 | X-H torsion

> <Gold.Protein.ActiveResidues>
 VAL166  LYS551  ARG553  GLY616  TRP617  ASP618  TYR619  PRO620  LYS621  CYS622 
 ASP623  PHE694  ASN695  SER759  ASP760  ASP761  ALA762  ILE779  LEU786  VAL792 
 PHE793  MET794  SER795  GLU796  ALA797  LYS798  CYS799  TRP800  GLU811  SER814 

> <Gold.Protein.RotatedAtoms>
  150.7171  134.5168  159.5633 H   0  0  0  0  0  0  0  0  0  0  0  0  # atno 6907 bound_to 6896
  152.2732  134.7907  160.0419 H   0  0  0  0  0  0  0  0  0  0  0  0  # atno 6908 bound_to 6896
  151.8579  133.3416  159.3731 H   0  0  0  0  0  0  0  0  0  0  0  0  # atno 6909 bound_to 6896
  145.2992  139.2575  143.3823 H   0  0  0  0  0  0  0  0  0  0  0  0  # atno 7974 bound_to 7965
  154.4721  140.2041  155.9969 H   0  0  0  0  0  0  0  0  0  0  0  0  # atno 8008 bound_to 7997
  156.1028  140.3241  155.7936 H   0  0  0  0  0  0  0  0  0  0  0  0  # atno 8009 bound_to 7997
  155.4768  140.0535  157.2963 H   0  0  0  0  0  0  0  0  0  0  0  0  # atno 8010 bound_to 7997
  139.4822  144.4946  151.8258 H   0  0  0  0  0  0  0  0  0  0  0  0  # atno 10167 bound_to 10162
  157.0490  131.0308  151.2687 H   0  0  0  0  0  0  0  0  0  0  0  0  # atno 10718 bound_to 10713
  152.9859  135.5625  154.5467 H   0  0  0  0  0  0  0  0  0  0  0  0  # atno 10763 bound_to 10752
  154.4912  135.2793  155.1497 H   0  0  0  0  0  0  0  0  0  0  0  0  # atno 10764 bound_to 10752
  154.2966  135.6315  153.5460 H   0  0  0  0  0  0  0  0  0  0  0  0  # atno 10765 bound_to 10752
  140.4094  134.1634  155.7666 H   0  0  0  0  0  0  0  0  0  0  0  0  # atno 11005 bound_to 11000
  146.3158  140.3502  142.8655 LP  0  0  0  0  0  0  0  0  0  0  0  0  # atno 17320 bound_to 7965
  144.9108  140.7754  143.5809 LP  0  0  0  0  0  0  0  0  0  0  0  0  # atno 17321 bound_to 7965
  140.4433  144.1956  150.5892 LP  0  0  0  0  0  0  0  0  0  0  0  0  # atno 17342 bound_to 10162
  140.4660  143.2430  151.9154 LP  0  0  0  0  0  0  0  0  0  0  0  0  # atno 17343 bound_to 10162
  157.5045  130.7900  149.7639 LP  0  0  0  0  0  0  0  0  0  0  0  0  # atno 17370 bound_to 10713
  156.0013  130.3878  150.2594 LP  0  0  0  0  0  0  0  0  0  0  0  0  # atno 17371 bound_to 10713
  141.1827  133.8380  157.1201 LP  0  0  0  0  0  0  0  0  0  0  0  0  # atno 17394 bound_to 11000
  140.0278  134.9915  157.0721 LP  0  0  0  0  0  0  0  0  0  0  0  0  # atno 17395 bound_to 11000

$$$$
