AV-unprocessed.smi:73|AV-procd|sdf|759|dock2
  -GOLD-   2262017 93D 1   1.00000     0.00000
 Structure written by MMmdl.
 35 36  0  0  0  0  0  0  0  0  2 V2000
  146.3202  141.7274  157.3482 C   0  0  0  0  0  0  0  0  0  0  0  0
  147.4491  141.9250  156.3259 C   0  0  0  0  0  0  0  0  0  0  0  0
  148.3461  140.7814  156.0402 N   0  0  0  0  0  0  0  0  0  0  0  0
  149.5525  141.3014  155.3695 C   0  0  0  0  0  0  0  0  0  0  0  0
  150.8025  140.5351  155.6696 C   0  0  0  0  0  0  0  0  0  0  0  0
  151.4675  140.4904  156.8265 N   0  0  0  0  0  0  0  0  0  0  0  0
  152.5489  139.6668  156.6043 N   0  0  0  0  0  0  0  0  0  0  0  0
  152.4530  139.2768  155.3309 C   0  0  0  0  0  0  0  0  0  0  0  0
  153.3771  138.3742  154.5877 C   0  0  0  0  0  0  0  0  0  0  0  0
  151.3711  139.7877  154.6885 O   0  0  0  0  0  0  0  0  0  0  0  0
  147.6799  139.7382  155.2196 C   0  0  2  0  0  0  0  0  0  0  0  0
  148.6591  138.7339  154.5507 C   0  0  0  0  0  0  0  0  0  0  0  0
  148.3861  138.6994  153.1050 N   0  3  0  0  0  0  0  0  0  0  0  0
  147.0286  139.2040  152.9140 C   0  0  0  0  0  0  0  0  0  0  0  0
  146.8707  140.2600  154.0020 C   0  0  1  0  0  0  0  0  0  0  0  0
  145.4965  140.4032  154.3034 O   0  0  0  0  0  0  0  0  0  0  0  0
  147.2814  141.2010  153.6322 H   0  0  0  0  0  0  0  0  0  0  0  0
  145.9114  142.6938  157.6440 H   0  0  0  0  0  0  0  0  0  0  0  0
  146.6822  141.2389  158.2533 H   0  0  0  0  0  0  0  0  0  0  0  0
  145.4879  141.1546  156.9426 H   0  0  0  0  0  0  0  0  0  0  0  0
  147.0266  142.3040  155.3941 H   0  0  0  0  0  0  0  0  0  0  0  0
  148.0345  142.7518  156.7267 H   0  0  0  0  0  0  0  0  0  0  0  0
  149.4503  141.2616  154.2874 H   0  0  0  0  0  0  0  0  0  0  0  0
  149.7054  142.3509  155.6259 H   0  0  0  0  0  0  0  0  0  0  0  0
  154.3633  138.3777  155.0523 H   0  0  0  0  0  0  0  0  0  0  0  0
  153.4770  138.7053  153.5538 H   0  0  0  0  0  0  0  0  0  0  0  0
  152.9883  137.3560  154.5951 H   0  0  0  0  0  0  0  0  0  0  0  0
  147.0000  139.1661  155.8538 H   0  0  0  0  0  0  0  0  0  0  0  0
  149.7045  139.0191  154.6526 H   0  0  0  0  0  0  0  0  0  0  0  0
  148.5311  137.7355  154.9700 H   0  0  0  0  0  0  0  0  0  0  0  0
  149.0250  139.3348  152.6482 H   0  0  0  0  0  0  0  0  0  0  0  0
  146.8762  139.5987  151.9090 H   0  0  0  0  0  0  0  0  0  0  0  0
  146.3330  138.3767  153.0668 H   0  0  0  0  0  0  0  0  0  0  0  0
  144.9947  140.2252  153.5225 H   0  0  0  0  0  0  0  0  0  0  0  0
  148.4968  137.7698  152.7257 H   0  0  0  0  0  0  0  0  0  0  0  0
  1  2  1  0  0  0  0
  1 18  1  0  0  0  0
  1 19  1  0  0  0  0
  1 20  1  0  0  0  0
  2  3  1  0  0  0  0
  2 21  1  0  0  0  0
  2 22  1  0  0  0  0
  3  4  1  0  0  0  0
  3 11  1  0  0  0  0
  4  5  1  0  0  0  0
  4 23  1  0  0  0  0
  4 24  1  0  0  0  0
  5 10  1  0  0  0  0
  5  6  2  0  0  0  0
  6  7  1  0  0  0  0
  7  8  2  0  0  0  0
  8  9  1  0  0  0  0
  8 10  1  0  0  0  0
  9 25  1  0  0  0  0
  9 26  1  0  0  0  0
  9 27  1  0  0  0  0
 11 15  1  0  0  0  0
 11 12  1  0  0  0  0
 11 28  1  0  0  0  0
 12 13  1  0  0  0  0
 12 29  1  0  0  0  0
 12 30  1  0  0  0  0
 13 14  1  0  0  0  0
 13 31  1  0  0  0  0
 13 35  1  0  0  0  0
 14 15  1  0  0  0  0
 14 32  1  0  0  0  0
 14 33  1  0  0  0  0
 15 17  1  0  0  0  0
 15 16  1  0  0  0  0
 16 34  1  0  0  0  0
M  CHG  1  13   1
M  END
> <s_m_source_file>
AV-unprocessed.smi

> <i_m_source_file_index>
73

> <i_lp_mmshare_version>
43012

> <i_f3d_flags>
0

> <s_epik_input>
W09IXVtDQEBIXTFbQ0gyXVtOSF1bQ0gyXVtDQEhdMU4oW0NIMl1bQ0gzXSlbQ0gyXWMybm5jKG8yKVtDSDNd

> <s_epik_cmdline>
J2VwaWtfcHl0aG9uJywgJy1waCcsICc3LjAnLCAnLXRuJywgJzgnLCAnLW1hJywgJzIwMCcsICctbWV0YWxfYmluZGluZycsICctaW1hZScsICc8aW5maWxlLm1hZT4nLCAnLW9tYWUnLCAnPG91dGZpbGUubWFlPic=

> <r_lp_tautomer_probability>
1

> <r_epik_Ionization_Penalty>
0.00160433

> <r_epik_Ionization_Penalty_Charging>
0.000122314

> <r_epik_Ionization_Penalty_Neutral>
0.00148202

> <r_epik_State_Penalty>
-0

> <r_epik_Charging_Adjusted_Penalty>
0.000122314

> <i_epik_Tot_Q>
1

> <i_epik_Tot_abs_Q>
1

> <r_epik_Metal_State_Penalty>
-0

> <b_epik_Metal_Only>
0

> <s_lp_Force_Field>
OPLS_2005

> <r_lp_Energy>
42.0904

> <b_lp_Chiralities_Consistent>
1

> <s_lp_Variant>
AV-unprocessed.smi:73-1

> <Gold.Version>
5.8.1

> <Gold.Id.Protein>
6NUR|6NUR_protein|mol2

> <Gold.PLP.Fitness>
41.0517

> <Gold.PLP.PLP>
-24.8441

> <Gold.PLP.part.hbond>
-5.0000

> <Gold.PLP.part.metal>
0.0000

> <Gold.PLP.part.buried>
-2.6303

> <Gold.PLP.part.nonpolar>
-17.8266

> <Gold.PLP.part.repulsive>
0.1915

> <Gold.PLP.ligand.clash>
0.0000

> <Gold.PLP.ligand.torsion>
0.8438

> <Gold.PLP.Chemscore.Hbond>
5.9600

> <Gold.PLP.Chemscore.CHOScore>
0.0000

> <Gold.PLP.Chemscore.Metal>
0.0000

> <Gold.Chemscore.Hbonds>
donor molecule, donor type, donor heavy atom, donor atom, acceptor molecule, acceptor atom, score
      L1  H    13    31       P1  7957  0.94
      L1  H    13    35       P1  7948  2.00
      L1  H    16    34       P1 10175  1.00
      P1  H  7989  7998       L1    10  1.00
      P1  H  7997  8008       L1     7  1.00

> <Gold.PLP.Chemscore.Internal.Correction>
0.0152

> <Gold.Rescore>
     Score         DG    S(hbond)    S(metal)    S(lipo)     H(rot)  DE(clash)    DE(int)     intcor
     15.49     -16.93       4.00        0.00      38.51       2.51       0.08       1.36       ----

> <Gold.Chemscore.Fitness>
15.4869

> <Gold.Chemscore.DG>
-16.9278

> <Gold.Chemscore.ZeroCoef>
-5.4800

> <Gold.Chemscore.Hbond>
3.9985

> <Gold.Chemscore.Metal>
0.0000

> <Gold.Chemscore.Lipo>
38.5115

> <Gold.Chemscore.Internal_Hbond>
0.0000

> <Gold.Chemscore.DEClash>
0.0841

> <Gold.Chemscore.DEInternal>
1.3568

> <Gold.Chemscore.Rot>
2.5051

> <Gold.Chemscore.Internal.Correction>
   9.000000E+99

> <Gold.Chemscore.Hbonds>
donor molecule, donor type, donor heavy atom, donor atom, acceptor molecule, acceptor atom, score
      L1  H    13    31       P1  7957  0.91
      L1  H    13    35       P1  7948  1.00
      L1  H    16    34       P1 10175  0.97
      P1  H  7989  7998       L1    10  0.42
      P1  H  7997  8008       L1     7  0.33

> <Gold.Chemscore.Hbond.Weighted>
-13.3550

> <Gold.Chemscore.Metal.Weighted>
-0.0000

> <Gold.Chemscore.Lipo.Weighted>
-4.5058

> <Gold.Chemscore.Internal_Hbond.Weighted>
0.0000

> <Gold.Chemscore.DEClash.Weighted>
0.0841

> <Gold.Chemscore.DEInternal.Weighted>
1.3568

> <Gold.Chemscore.Rot.Weighted>
6.4131

> <Gold.Chemscore.Internal.Correction.Weighted>
   9.000000E+99

> <Gold.Protein.RotatedTorsions>
[ 6907 6896 6895 6894 ] final  -31.91 input  -60.11 | X-H torsion
[ 7974 7965 7964 7962 ] final  173.45 input  175.53 | X-H torsion
[ 8008 7997 7996 7995 ] final  -68.65 input   59.86 | X-H torsion
[ 10167 10162 10161 10158 ] final   77.88 input  -65.29 | X-H torsion
[ 10718 10713 10712 10709 ] final   58.98 input   66.30 | X-H torsion
[ 10763 10752 10751 10750 ] final  -41.49 input  -60.55 | X-H torsion
[ 11005 11000 10999 10996 ] final  165.21 input  -57.11 | X-H torsion

> <Gold.Protein.ActiveResidues>
 VAL166  LYS551  ARG553  GLY616  TRP617  ASP618  TYR619  PRO620  LYS621  CYS622 
 ASP623  PHE694  ASN695  SER759  ASP760  ASP761  ALA762  ILE779  LEU786  VAL792 
 PHE793  MET794  SER795  GLU796  ALA797  LYS798  CYS799  TRP800  GLU811  SER814 

> <Gold.Protein.RotatedAtoms>
  151.0858  134.9886  159.8378 H   0  0  0  0  0  0  0  0  0  0  0  0  # atno 6907 bound_to 6896
  152.5424  134.2126  159.8766 H   0  0  0  0  0  0  0  0  0  0  0  0  # atno 6908 bound_to 6896
  151.2159  133.4486  159.2633 H   0  0  0  0  0  0  0  0  0  0  0  0  # atno 6909 bound_to 6896
  144.7243  139.9650  143.6435 H   0  0  0  0  0  0  0  0  0  0  0  0  # atno 7974 bound_to 7965
  154.4883  140.0869  156.7536 H   0  0  0  0  0  0  0  0  0  0  0  0  # atno 8008 bound_to 7997
  155.4296  140.3449  155.4260 H   0  0  0  0  0  0  0  0  0  0  0  0  # atno 8009 bound_to 7997
  156.1293  140.1496  156.9078 H   0  0  0  0  0  0  0  0  0  0  0  0  # atno 8010 bound_to 7997
  139.9768  144.5855  150.7936 H   0  0  0  0  0  0  0  0  0  0  0  0  # atno 10167 bound_to 10162
  157.5639  130.8856  149.9156 H   0  0  0  0  0  0  0  0  0  0  0  0  # atno 10718 bound_to 10713
  153.9634  135.6737  153.4745 H   0  0  0  0  0  0  0  0  0  0  0  0  # atno 10763 bound_to 10752
  153.0827  135.4915  154.8532 H   0  0  0  0  0  0  0  0  0  0  0  0  # atno 10764 bound_to 10752
  154.7260  135.3127  154.8931 H   0  0  0  0  0  0  0  0  0  0  0  0  # atno 10765 bound_to 10752
  140.2538  134.7956  157.3526 H   0  0  0  0  0  0  0  0  0  0  0  0  # atno 11005 bound_to 11000
  146.0608  139.3601  143.0583 LP  0  0  0  0  0  0  0  0  0  0  0  0  # atno 17320 bound_to 7965
  145.8095  140.9732  143.0956 LP  0  0  0  0  0  0  0  0  0  0  0  0  # atno 17321 bound_to 7965
  140.7503  143.2953  151.3222 LP  0  0  0  0  0  0  0  0  0  0  0  0  # atno 17342 bound_to 10162
  139.6439  144.0487  152.2576 LP  0  0  0  0  0  0  0  0  0  0  0  0  # atno 17343 bound_to 10162
  156.0689  130.3688  150.0818 LP  0  0  0  0  0  0  0  0  0  0  0  0  # atno 17370 bound_to 10713
  156.8979  130.9610  151.3580 LP  0  0  0  0  0  0  0  0  0  0  0  0  # atno 17371 bound_to 10713
  140.1532  134.4823  155.7946 LP  0  0  0  0  0  0  0  0  0  0  0  0  # atno 17394 bound_to 11000
  141.2198  133.6871  156.7414 LP  0  0  0  0  0  0  0  0  0  0  0  0  # atno 17395 bound_to 11000

$$$$
