AV-unprocessed.smi:2695|AV-procd|sdf|10412|dock1
  -GOLD-   2272014453D 1   1.00000     0.00000
 Structure written by MMmdl.
 42 43  0  0  0  0  0  0  0  0  1 V2000
  148.3362  141.3657  154.6471 C   0  0  0  0  0  0  0  0  0  0  0  0
  149.4211  140.3720  155.0421 C   0  0  0  0  0  0  0  0  0  0  0  0
  150.4385  140.7819  155.8346 C   0  0  0  0  0  0  0  0  0  0  0  0
  151.5241  139.8593  156.2090 C   0  0  0  0  0  0  0  0  0  0  0  0
  152.4419  140.1987  156.9530 O   0  0  0  0  0  0  0  0  0  0  0  0
  151.4445  138.5094  155.6338 C   0  0  0  0  0  0  0  0  0  0  0  0
  150.3915  138.1895  154.8572 C   0  0  0  0  0  0  0  0  0  0  0  0
  150.2840  136.9763  154.2937 O   0  0  0  0  0  0  0  0  0  0  0  0
  149.3228  139.0531  154.5442 N   0  0  0  0  0  0  0  0  0  0  0  0
  148.1687  138.5994  153.7466 C   0  0  0  0  0  0  0  0  0  0  0  0
  147.3036  137.5550  154.4664 C   0  0  0  0  0  0  0  0  0  0  0  0
  146.7582  137.8142  155.5400 O   0  0  0  0  0  0  0  0  0  0  0  0
  147.1979  136.3666  153.8530 N   0  0  0  0  0  0  0  0  0  0  0  0
  146.4318  135.2148  154.3324 C   0  0  1  0  0  0  0  0  0  0  0  0
  145.5448  134.6808  153.1792 C   0  0  0  0  0  0  0  0  0  0  0  0
  146.3214  134.3120  151.9084 C   0  0  0  0  0  0  0  0  0  0  0  0
  145.2556  134.2325  150.8157 C   0  0  0  0  0  0  0  0  0  0  0  0
  144.1732  135.2417  151.2189 C   0  0  0  0  0  0  0  0  0  0  0  0
  144.4911  135.6695  152.6588 C   0  0  0  0  0  0  0  0  0  0  0  0
  147.4075  134.1639  154.9116 C   0  0  0  0  0  0  0  0  0  0  0  0
  147.9476  134.6194  156.0427 F   0  0  0  0  0  0  0  0  0  0  0  0
  146.7724  133.0274  155.1951 F   0  0  0  0  0  0  0  0  0  0  0  0
  148.3878  133.9061  154.0450 F   0  0  0  0  0  0  0  0  0  0  0  0
  148.6589  142.3897  154.8374 H   0  0  0  0  0  0  0  0  0  0  0  0
  147.4300  141.1910  155.2275 H   0  0  0  0  0  0  0  0  0  0  0  0
  148.0951  141.3050  153.5861 H   0  0  0  0  0  0  0  0  0  0  0  0
  150.4869  141.7974  156.2000 H   0  0  0  0  0  0  0  0  0  0  0  0
  152.2375  137.8047  155.8389 H   0  0  0  0  0  0  0  0  0  0  0  0
  147.5411  139.4468  153.4674 H   0  0  0  0  0  0  0  0  0  0  0  0
  148.4847  138.1906  152.7877 H   0  0  0  0  0  0  0  0  0  0  0  0
  147.6885  136.2451  152.9790 H   0  0  0  0  0  0  0  0  0  0  0  0
  145.7673  135.5306  155.1385 H   0  0  0  0  0  0  0  0  0  0  0  0
  145.0247  133.7835  153.5193 H   0  0  0  0  0  0  0  0  0  0  0  0
  147.0360  135.1000  151.6660 H   0  0  0  0  0  0  0  0  0  0  0  0
  146.8781  133.3795  152.0071 H   0  0  0  0  0  0  0  0  0  0  0  0
  145.6649  134.4335  149.8253 H   0  0  0  0  0  0  0  0  0  0  0  0
  144.8284  133.2291  150.7960 H   0  0  0  0  0  0  0  0  0  0  0  0
  144.1744  136.1071  150.5553 H   0  0  0  0  0  0  0  0  0  0  0  0
  143.1856  134.7841  151.1539 H   0  0  0  0  0  0  0  0  0  0  0  0
  143.5968  135.6849  153.2822 H   0  0  0  0  0  0  0  0  0  0  0  0
  144.9012  136.6804  152.6491 H   0  0  0  0  0  0  0  0  0  0  0  0
  149.7990  137.0784  153.4888 H   0  0  0  0  0  0  0  0  0  0  0  0
  1  2  1  0  0  0  0
  1 24  1  0  0  0  0
  1 25  1  0  0  0  0
  1 26  1  0  0  0  0
  2  9  1  0  0  0  0
  2  3  2  0  0  0  0
  3  4  1  0  0  0  0
  3 27  1  0  0  0  0
  4  5  2  0  0  0  0
  4  6  1  0  0  0  0
  6  7  2  0  0  0  0
  6 28  1  0  0  0  0
  7  8  1  0  0  0  0
  7  9  1  0  0  0  0
  8 42  1  0  0  0  0
  9 10  1  0  0  0  0
 10 11  1  0  0  0  0
 10 29  1  0  0  0  0
 10 30  1  0  0  0  0
 11 12  2  0  0  0  0
 11 13  1  0  0  0  0
 13 14  1  0  0  0  0
 13 31  1  0  0  0  0
 14 15  1  0  0  0  0
 14 20  1  0  0  0  0
 14 32  1  0  0  0  0
 15 19  1  0  0  0  0
 15 16  1  0  0  0  0
 15 33  1  0  0  0  0
 16 17  1  0  0  0  0
 16 34  1  0  0  0  0
 16 35  1  0  0  0  0
 17 18  1  0  0  0  0
 17 36  1  0  0  0  0
 17 37  1  0  0  0  0
 18 19  1  0  0  0  0
 18 38  1  0  0  0  0
 18 39  1  0  0  0  0
 19 40  1  0  0  0  0
 19 41  1  0  0  0  0
 20 21  1  0  0  0  0
 20 22  1  0  0  0  0
 20 23  1  0  0  0  0
M  END
> <s_m_source_file>
AV-unprocessed.smi

> <i_m_source_file_index>
2695

> <i_lp_mmshare_version>
43012

> <i_f3d_flags>
0

> <s_epik_input>
W0NIM11jMVtjSF1jKFtPSF0pW2NIXWMoPU8pbjFbQ0gyXUMoPU8pW05IXVtDQEBIXShDKEYpKEYpRilbQ0hdMltDSDJdW0NIMl1bQ0gyXVtDSDJdMg==

> <s_epik_cmdline>
J2VwaWtfcHl0aG9uJywgJy1waCcsICc3LjAnLCAnLXRuJywgJzgnLCAnLW1hJywgJzIwMCcsICctbWV0YWxfYmluZGluZycsICctaW1hZScsICc8aW5maWxlLm1hZT4nLCAnLW9tYWUnLCAnPG91dGZpbGUubWFlPic=

> <r_epik_Ionization_Penalty>
1.35977e-07

> <r_epik_Ionization_Penalty_Charging>
0

> <r_epik_Ionization_Penalty_Neutral>
1.35977e-07

> <r_epik_State_Penalty>
2.53185

> <r_epik_Charging_Adjusted_Penalty>
2.53185

> <i_epik_Tot_Q>
0

> <i_epik_Tot_abs_Q>
0

> <r_epik_Metal_State_Penalty>
2.53184

> <b_epik_Metal_Only>
0

> <s_lp_Force_Field>
OPLS_2005

> <r_lp_Energy>
25.7414

> <b_lp_Chiralities_Consistent>
1

> <s_lp_Variant>
AV-unprocessed.smi:2695-6

> <Gold.Version>
5.8.1

> <Gold.Id.Protein>
6NUR|6NUR_protein|mol2

> <Gold.PLP.Fitness>
40.5807

> <Gold.PLP.PLP>
-31.7726

> <Gold.PLP.part.hbond>
-3.8058

> <Gold.PLP.part.metal>
0.0000

> <Gold.PLP.part.buried>
0.6420

> <Gold.PLP.part.nonpolar>
-28.3830

> <Gold.PLP.part.repulsive>
0.0270

> <Gold.PLP.ligand.clash>
0.0000

> <Gold.PLP.ligand.torsion>
0.3782

> <Gold.PLP.Chemscore.Hbond>
2.9920

> <Gold.PLP.Chemscore.CHOScore>
0.0000

> <Gold.PLP.Chemscore.Metal>
0.0000

> <Gold.Chemscore.Hbonds>
donor molecule, donor type, donor heavy atom, donor atom, acceptor molecule, acceptor atom, score
      L1  H     8    42       P1  7948  0.98
      L1  H    13    31       P1  7948  1.00
      P1  H  7997  8010       L1     5  1.00

> <Gold.PLP.Chemscore.Internal.Correction>
0.5884

> <Gold.Rescore>
     Score         DG    S(hbond)    S(metal)    S(lipo)     H(rot)  DE(clash)    DE(int)     intcor
     13.65     -14.34       2.63        0.00      54.28       2.45       0.07       0.62       ----

> <Gold.Chemscore.Fitness>
13.6520

> <Gold.Chemscore.DG>
-14.3419

> <Gold.Chemscore.ZeroCoef>
-5.4800

> <Gold.Chemscore.Hbond>
2.6308

> <Gold.Chemscore.Metal>
0.0000

> <Gold.Chemscore.Lipo>
54.2754

> <Gold.Chemscore.Internal_Hbond>
0.0000

> <Gold.Chemscore.DEClash>
0.0726

> <Gold.Chemscore.DEInternal>
0.6174

> <Gold.Chemscore.Rot>
2.4512

> <Gold.Chemscore.Internal.Correction>
   9.000000E+99

> <Gold.Chemscore.Hbonds>
donor molecule, donor type, donor heavy atom, donor atom, acceptor molecule, acceptor atom, score
      L1  H     8    42       P1  7948  0.50
      L1  H    13    31       P1  7948  1.00
      P1  H  7997  8010       L1     5  0.96

> <Gold.Chemscore.Hbond.Weighted>
-8.7869

> <Gold.Chemscore.Metal.Weighted>
-0.0000

> <Gold.Chemscore.Lipo.Weighted>
-6.3502

> <Gold.Chemscore.Internal_Hbond.Weighted>
0.0000

> <Gold.Chemscore.DEClash.Weighted>
0.0726

> <Gold.Chemscore.DEInternal.Weighted>
0.6174

> <Gold.Chemscore.Rot.Weighted>
6.2752

> <Gold.Chemscore.Internal.Correction.Weighted>
   9.000000E+99

> <Gold.Protein.RotatedTorsions>
[ 6907 6896 6895 6894 ] final  -38.96 input  -60.11 | X-H torsion
[ 7974 7965 7964 7962 ] final   -0.52 input  175.53 | X-H torsion
[ 8008 7997 7996 7995 ] final   67.16 input   59.86 | X-H torsion
[ 10167 10162 10161 10158 ] final   63.72 input  -65.29 | X-H torsion
[ 10718 10713 10712 10709 ] final   98.62 input   66.30 | X-H torsion
[ 10763 10752 10751 10750 ] final  -69.73 input  -60.55 | X-H torsion
[ 11005 11000 10999 10996 ] final -168.17 input  -57.11 | X-H torsion

> <Gold.Protein.ActiveResidues>
 VAL166  LYS551  ARG553  GLY616  TRP617  ASP618  TYR619  PRO620  LYS621  CYS622 
 ASP623  PHE694  ASN695  SER759  ASP760  ASP761  ALA762  ILE779  LEU786  VAL792 
 PHE793  MET794  SER795  GLU796  ALA797  LYS798  CYS799  TRP800  GLU811  SER814 

> <Gold.Protein.RotatedAtoms>
  150.9962  134.9285  159.7927 H   0  0  0  0  0  0  0  0  0  0  0  0  # atno 6907 bound_to 6896
  152.5265  134.3216  159.9160 H   0  0  0  0  0  0  0  0  0  0  0  0  # atno 6908 bound_to 6896
  151.3221  133.3994  159.2690 H   0  0  0  0  0  0  0  0  0  0  0  0  # atno 6909 bound_to 6896
  146.2426  140.1282  142.8338 H   0  0  0  0  0  0  0  0  0  0  0  0  # atno 7974 bound_to 7965
  155.6885  140.3496  155.4884 H   0  0  0  0  0  0  0  0  0  0  0  0  # atno 8008 bound_to 7997
  155.9545  140.1125  157.0971 H   0  0  0  0  0  0  0  0  0  0  0  0  # atno 8009 bound_to 7997
  154.4129  140.1188  156.5082 H   0  0  0  0  0  0  0  0  0  0  0  0  # atno 8010 bound_to 7997
  140.1300  144.4652  150.6870 H   0  0  0  0  0  0  0  0  0  0  0  0  # atno 10167 bound_to 10162
  157.6892  131.0645  150.4824 H   0  0  0  0  0  0  0  0  0  0  0  0  # atno 10718 bound_to 10713
  154.4075  135.6016  153.5933 H   0  0  0  0  0  0  0  0  0  0  0  0  # atno 10763 bound_to 10752
  152.9789  135.5921  154.4109 H   0  0  0  0  0  0  0  0  0  0  0  0  # atno 10764 bound_to 10752
  154.3917  135.2842  155.2129 H   0  0  0  0  0  0  0  0  0  0  0  0  # atno 10765 bound_to 10752
  140.5450  134.5485  157.5109 H   0  0  0  0  0  0  0  0  0  0  0  0  # atno 11005 bound_to 11000
  145.0348  140.8899  143.5088 LP  0  0  0  0  0  0  0  0  0  0  0  0  # atno 17320 bound_to 7965
  145.1353  139.2606  143.5518 LP  0  0  0  0  0  0  0  0  0  0  0  0  # atno 17321 bound_to 7965
  140.6823  143.2332  151.5353 LP  0  0  0  0  0  0  0  0  0  0  0  0  # atno 17342 bound_to 10162
  139.5525  144.2360  152.1555 LP  0  0  0  0  0  0  0  0  0  0  0  0  # atno 17343 bound_to 10162
  156.5155  130.4149  149.6278 LP  0  0  0  0  0  0  0  0  0  0  0  0  # atno 17370 bound_to 10713
  156.3201  130.7276  151.2186 LP  0  0  0  0  0  0  0  0  0  0  0  0  # atno 17371 bound_to 10713
  139.9484  134.7660  156.0506 LP  0  0  0  0  0  0  0  0  0  0  0  0  # atno 17394 bound_to 11000
  141.1205  133.6614  156.3203 LP  0  0  0  0  0  0  0  0  0  0  0  0  # atno 17395 bound_to 11000

$$$$
