AV-unprocessed.smi:267|AV-procd|sdf|2039|dock3
  -GOLD-   2262021253D 1   1.00000     0.00000
 Structure written by MMmdl.
 51 54  0  0  0  0  0  0  0  0  1 V2000
  155.6606  140.3735  167.2753 C   0  0  0  0  0  0  0  0  0  0  0  0
  155.9815  139.2693  166.4479 O   0  0  0  0  0  0  0  0  0  0  0  0
  155.4640  139.4043  165.1345 C   0  0  0  0  0  0  0  0  0  0  0  0
  155.8293  140.7814  164.5552 C   0  0  0  0  0  0  0  0  0  0  0  0
  154.9957  141.1339  163.3983 N   0  0  0  0  0  0  0  0  0  0  0  0
  154.3227  142.4361  163.5050 C   0  0  0  0  0  0  0  0  0  0  0  0
  153.1192  142.5719  162.5646 C   0  0  0  0  0  0  0  0  0  0  0  0
  153.4973  142.1328  161.2289 N   0  0  0  0  0  0  0  0  0  0  0  0
  152.8065  142.6539  160.1826 C   0  0  0  0  0  0  0  0  0  0  0  0
  152.5785  143.9934  160.1296 N   0  0  0  0  0  0  0  0  0  0  0  0
  151.9048  144.5256  159.1056 C   0  0  0  0  0  0  0  0  0  0  0  0
  151.3710  143.9112  158.0484 N   0  0  0  0  0  0  0  0  0  0  0  0
  151.5827  142.5656  158.1024 C   0  0  0  0  0  0  0  0  0  0  0  0
  152.2831  141.8603  159.1217 C   0  0  0  0  0  0  0  0  0  0  0  0
  152.2778  140.4986  158.8388 N   0  0  0  0  0  0  0  0  0  0  0  0
  151.6247  140.4062  157.7127 C   0  0  0  0  0  0  0  0  0  0  0  0
  151.1751  141.6010  157.1987 N   0  0  0  0  0  0  0  0  0  0  0  0
  150.4224  141.7949  155.9723 C   0  0  0  0  0  0  0  0  0  0  0  0
  149.0053  141.1664  155.9870 C   0  0  0  0  0  0  0  0  0  0  0  0
  148.2669  141.5991  154.7103 C   0  0  0  0  0  0  0  0  0  0  0  0
  149.0986  141.5020  153.5707 O   0  0  0  0  0  0  0  0  0  0  0  0
  148.8477  139.6675  156.3179 C   0  0  0  0  0  0  0  0  0  0  0  0
  147.7934  139.9391  157.2639 O   0  0  0  0  0  0  0  0  0  0  0  0
  148.2009  141.3232  157.2874 C   0  0  0  0  0  0  0  0  0  0  0  0
  154.0345  140.7730  161.1139 C   0  0  0  0  0  0  0  0  0  0  0  0
  154.9161  140.3403  162.3007 C   0  0  0  0  0  0  0  0  0  0  0  0
  155.5226  139.2729  162.2073 O   0  0  0  0  0  0  0  0  0  0  0  0
  156.0761  140.2185  168.2709 H   0  0  0  0  0  0  0  0  0  0  0  0
  154.5808  140.4902  167.3757 H   0  0  0  0  0  0  0  0  0  0  0  0
  156.0781  141.2990  166.8766 H   0  0  0  0  0  0  0  0  0  0  0  0
  155.8421  138.6084  164.4905 H   0  0  0  0  0  0  0  0  0  0  0  0
  154.3780  139.3049  165.1659 H   0  0  0  0  0  0  0  0  0  0  0  0
  155.6978  141.5377  165.3304 H   0  0  0  0  0  0  0  0  0  0  0  0
  156.8903  140.8148  164.3019 H   0  0  0  0  0  0  0  0  0  0  0  0
  153.9980  142.6111  164.5317 H   0  0  0  0  0  0  0  0  0  0  0  0
  155.0540  143.2112  163.2719 H   0  0  0  0  0  0  0  0  0  0  0  0
  152.3024  141.9392  162.9153 H   0  0  0  0  0  0  0  0  0  0  0  0
  152.7457  143.5945  162.5895 H   0  0  0  0  0  0  0  0  0  0  0  0
  151.7749  145.5972  159.1389 H   0  0  0  0  0  0  0  0  0  0  0  0
  151.4540  139.4586  157.2226 H   0  0  0  0  0  0  0  0  0  0  0  0
  150.3601  142.8670  155.7821 H   0  0  0  0  0  0  0  0  0  0  0  0
  151.0365  141.4020  155.1610 H   0  0  0  0  0  0  0  0  0  0  0  0
  147.3731  140.9948  154.5502 H   0  0  0  0  0  0  0  0  0  0  0  0
  147.9297  142.6334  154.7893 H   0  0  0  0  0  0  0  0  0  0  0  0
  148.9104  140.6876  153.1298 H   0  0  0  0  0  0  0  0  0  0  0  0
  148.5115  139.0614  155.4760 H   0  0  0  0  0  0  0  0  0  0  0  0
  149.6967  139.1955  156.8129 H   0  0  0  0  0  0  0  0  0  0  0  0
  148.8108  141.5464  158.1645 H   0  0  0  0  0  0  0  0  0  0  0  0
  147.3585  142.0119  157.2144 H   0  0  0  0  0  0  0  0  0  0  0  0
  153.2137  140.0588  161.0337 H   0  0  0  0  0  0  0  0  0  0  0  0
  154.6243  140.6937  160.1991 H   0  0  0  0  0  0  0  0  0  0  0  0
  1  2  1  0  0  0  0
  1 28  1  0  0  0  0
  1 29  1  0  0  0  0
  1 30  1  0  0  0  0
  2  3  1  0  0  0  0
  3  4  1  0  0  0  0
  3 31  1  0  0  0  0
  3 32  1  0  0  0  0
  4  5  1  0  0  0  0
  4 33  1  0  0  0  0
  4 34  1  0  0  0  0
  5 26  1  0  0  0  0
  5  6  1  0  0  0  0
  6  7  1  0  0  0  0
  6 35  1  0  0  0  0
  6 36  1  0  0  0  0
  7  8  1  0  0  0  0
  7 37  1  0  0  0  0
  7 38  1  0  0  0  0
  8  9  1  0  0  0  0
  8 25  1  0  0  0  0
  9 14  1  0  0  0  0
  9 10  2  0  0  0  0
 10 11  1  0  0  0  0
 11 12  2  0  0  0  0
 11 39  1  0  0  0  0
 12 13  1  0  0  0  0
 13 17  1  0  0  0  0
 13 14  2  0  0  0  0
 14 15  1  0  0  0  0
 15 16  2  0  0  0  0
 16 17  1  0  0  0  0
 16 40  1  0  0  0  0
 17 18  1  0  0  0  0
 18 19  1  0  0  0  0
 18 41  1  0  0  0  0
 18 42  1  0  0  0  0
 19 24  1  0  0  0  0
 19 20  1  0  0  0  0
 19 22  1  0  0  0  0
 20 21  1  0  0  0  0
 20 43  1  0  0  0  0
 20 44  1  0  0  0  0
 21 45  1  0  0  0  0
 22 23  1  0  0  0  0
 22 46  1  0  0  0  0
 22 47  1  0  0  0  0
 23 24  1  0  0  0  0
 24 48  1  0  0  0  0
 24 49  1  0  0  0  0
 25 26  1  0  0  0  0
 25 50  1  0  0  0  0
 25 51  1  0  0  0  0
 26 27  2  0  0  0  0
M  END
> <s_m_source_file>
AV-unprocessed.smi

> <i_m_source_file_index>
267

> <i_lp_mmshare_version>
43012

> <i_f3d_flags>
0

> <s_epik_input>
W0NIM11PW0NIMl1bQ0gyXU4xW0NIMl1bQ0gyXU4oW0NIMl1DMT1PKWMobltjSF1uMiljKGMyMyluW2NIXW4zW0NIMl1DNChbQ0gyXVtPSF0pW0NIMl1PW0NIMl00

> <s_epik_cmdline>
J2VwaWtfcHl0aG9uJywgJy1waCcsICc3LjAnLCAnLXRuJywgJzgnLCAnLW1hJywgJzIwMCcsICctbWV0YWxfYmluZGluZycsICctaW1hZScsICc8aW5maWxlLm1hZT4nLCAnLW9tYWUnLCAnPG91dGZpbGUubWFlPic=

> <r_lp_tautomer_probability>
1

> <r_epik_Ionization_Penalty>
0.000432285

> <r_epik_Ionization_Penalty_Charging>
0

> <r_epik_Ionization_Penalty_Neutral>
0.000432285

> <r_epik_State_Penalty>
0.000191954

> <r_epik_Charging_Adjusted_Penalty>
0.000191954

> <i_epik_Tot_Q>
0

> <i_epik_Tot_abs_Q>
0

> <r_epik_Metal_State_Penalty>
-0

> <b_epik_Metal_Only>
0

> <s_lp_Force_Field>
OPLS_2005

> <r_lp_Energy>
43.2758

> <b_lp_Chiralities_Consistent>
1

> <s_lp_Variant>
AV-unprocessed.smi:267-1

> <Gold.Version>
5.8.1

> <Gold.Id.Protein>
6NUR|6NUR_protein|mol2

> <Gold.PLP.Fitness>
56.7239

> <Gold.PLP.PLP>
-53.5038

> <Gold.PLP.part.hbond>
-3.0000

> <Gold.PLP.part.metal>
0.0000

> <Gold.PLP.part.buried>
-4.2384

> <Gold.PLP.part.nonpolar>
-45.8388

> <Gold.PLP.part.repulsive>
0.2363

> <Gold.PLP.ligand.clash>
0.0000

> <Gold.PLP.ligand.torsion>
0.9849

> <Gold.PLP.Chemscore.Hbond>
1.5068

> <Gold.PLP.Chemscore.CHOScore>
0.0000

> <Gold.PLP.Chemscore.Metal>
0.0000

> <Gold.Chemscore.Hbonds>
donor molecule, donor type, donor heavy atom, donor atom, acceptor molecule, acceptor atom, score
      L1  H    21    45       P1  7957  0.34
      P1  H  8011  8017       L1    21  0.82

> <Gold.PLP.Chemscore.Internal.Correction>
0.6694

> <Gold.Rescore>
     Score         DG    S(hbond)    S(metal)    S(lipo)     H(rot)  DE(clash)    DE(int)     intcor
      8.56     -11.42       1.30        0.00      81.79       3.11       0.45       2.42       ----

> <Gold.Chemscore.Fitness>
8.5557

> <Gold.Chemscore.DG>
-11.4178

> <Gold.Chemscore.ZeroCoef>
-5.4800

> <Gold.Chemscore.Hbond>
1.2959

> <Gold.Chemscore.Metal>
0.0000

> <Gold.Chemscore.Lipo>
81.7901

> <Gold.Chemscore.Internal_Hbond>
0.0000

> <Gold.Chemscore.DEClash>
0.4467

> <Gold.Chemscore.DEInternal>
2.4154

> <Gold.Chemscore.Rot>
3.1093

> <Gold.Chemscore.Internal.Correction>
   9.000000E+99

> <Gold.Chemscore.Hbonds>
donor molecule, donor type, donor heavy atom, donor atom, acceptor molecule, acceptor atom, score
      L1  H    21    45       P1  7957  0.34
      P1  H  8011  8017       L1    21  0.28

> <Gold.Chemscore.Hbond.Weighted>
-4.3282

> <Gold.Chemscore.Metal.Weighted>
-0.0000

> <Gold.Chemscore.Lipo.Weighted>
-9.5694

> <Gold.Chemscore.Internal_Hbond.Weighted>
0.0000

> <Gold.Chemscore.DEClash.Weighted>
0.4467

> <Gold.Chemscore.DEInternal.Weighted>
2.4154

> <Gold.Chemscore.Rot.Weighted>
7.9599

> <Gold.Chemscore.Internal.Correction.Weighted>
   9.000000E+99

> <Gold.Protein.RotatedTorsions>
[ 6907 6896 6895 6894 ] final  -11.61 input  -60.11 | X-H torsion
[ 7974 7965 7964 7962 ] final   51.49 input  175.53 | X-H torsion
[ 8008 7997 7996 7995 ] final  179.58 input   59.86 | X-H torsion
[ 10167 10162 10161 10158 ] final   88.01 input  -65.29 | X-H torsion
[ 10718 10713 10712 10709 ] final  128.49 input   66.30 | X-H torsion
[ 10763 10752 10751 10750 ] final   66.26 input  -60.55 | X-H torsion
[ 11005 11000 10999 10996 ] final -103.95 input  -57.11 | X-H torsion

> <Gold.Protein.ActiveResidues>
 VAL166  LYS551  ARG553  GLY616  TRP617  ASP618  TYR619  PRO620  LYS621  CYS622 
 ASP623  PHE694  ASN695  SER759  ASP760  ASP761  ALA762  ILE779  LEU786  VAL792 
 PHE793  MET794  SER795  GLU796  ALA797  LYS798  CYS799  TRP800  GLU811  SER814 

> <Gold.Protein.RotatedAtoms>
  151.3834  135.0944  159.9503 H   0  0  0  0  0  0  0  0  0  0  0  0  # atno 6907 bound_to 6896
  152.5101  133.9049  159.7470 H   0  0  0  0  0  0  0  0  0  0  0  0  # atno 6908 bound_to 6896
  150.9488  133.6518  159.2805 H   0  0  0  0  0  0  0  0  0  0  0  0  # atno 6909 bound_to 6896
  145.9908  139.4337  143.0075 H   0  0  0  0  0  0  0  0  0  0  0  0  # atno 7974 bound_to 7965
  156.0418  140.1305  157.0147 H   0  0  0  0  0  0  0  0  0  0  0  0  # atno 8008 bound_to 7997
  154.4394  140.1028  156.6319 H   0  0  0  0  0  0  0  0  0  0  0  0  # atno 8009 bound_to 7997
  155.5655  140.3465  155.4504 H   0  0  0  0  0  0  0  0  0  0  0  0  # atno 8010 bound_to 7997
  139.8716  144.6489  150.8943 H   0  0  0  0  0  0  0  0  0  0  0  0  # atno 10167 bound_to 10162
  157.5239  131.1098  150.9112 H   0  0  0  0  0  0  0  0  0  0  0  0  # atno 10718 bound_to 10713
  153.0132  135.5327  154.6797 H   0  0  0  0  0  0  0  0  0  0  0  0  # atno 10763 bound_to 10752
  154.5960  135.2863  155.0588 H   0  0  0  0  0  0  0  0  0  0  0  0  # atno 10764 bound_to 10752
  154.1663  135.6539  153.5051 H   0  0  0  0  0  0  0  0  0  0  0  0  # atno 10765 bound_to 10752
  141.1123  133.8682  157.1550 H   0  0  0  0  0  0  0  0  0  0  0  0  # atno 11005 bound_to 11000
  145.7633  140.9926  143.1188 LP  0  0  0  0  0  0  0  0  0  0  0  0  # atno 17320 bound_to 7965
  144.6888  139.9357  143.7473 LP  0  0  0  0  0  0  0  0  0  0  0  0  # atno 17321 bound_to 7965
  140.7759  143.3659  151.1740 LP  0  0  0  0  0  0  0  0  0  0  0  0  # atno 17342 bound_to 10162
  139.7278  143.9120  152.3009 LP  0  0  0  0  0  0  0  0  0  0  0  0  # atno 17343 bound_to 10162
  156.9713  130.5492  149.5291 LP  0  0  0  0  0  0  0  0  0  0  0  0  # atno 17370 bound_to 10713
  156.0373  130.5459  150.8685 LP  0  0  0  0  0  0  0  0  0  0  0  0  # atno 17371 bound_to 10713
  140.0024  135.0022  157.0218 LP  0  0  0  0  0  0  0  0  0  0  0  0  # atno 17394 bound_to 11000
  140.4742  134.1355  155.7207 LP  0  0  0  0  0  0  0  0  0  0  0  0  # atno 17395 bound_to 11000

$$$$
