AV-unprocessed.smi:72|AV-procd|sdf|700|dock7
  -GOLD-   2262017 23D 1   1.00000     0.00000
 Structure written by MMmdl.
 30 31  0  0  0  0  0  0  0  0  2 V2000
  152.0125  143.9873  158.5745 N   0  0  0  0  0  0  0  0  0  0  0  0
  151.7288  142.7645  158.0026 C   0  0  0  0  0  0  0  0  0  0  0  0
  150.6142  142.6788  157.1879 N   0  3  0  0  0  0  0  0  0  0  0  0
  150.2031  141.5706  156.5565 C   0  0  0  0  0  0  0  0  0  0  0  0
  150.8989  140.4592  156.6950 N   0  0  0  0  0  0  0  0  0  0  0  0
  150.4965  139.1725  156.0117 C   0  0  1  0  0  0  0  0  0  0  0  0
  149.1917  139.3139  155.5388 O   0  0  0  0  0  0  0  0  0  0  0  0
  149.2050  139.5203  154.1301 C   0  0  2  0  0  0  0  0  0  0  0  0
  147.8365  139.1987  153.5062 C   0  0  0  0  0  0  0  0  0  0  0  0
  147.8913  139.3920  152.1089 O   0  0  0  0  0  0  0  0  0  0  0  0
  150.3685  138.6323  153.6764 C   0  0  2  0  0  0  0  0  0  0  0  0
  149.9708  137.2759  153.5897 O   0  0  0  0  0  0  0  0  0  0  0  0
  151.3885  138.8175  154.7933 C   0  0  1  0  0  0  0  0  0  0  0  0
  152.3056  139.8360  154.4294 O   0  0  0  0  0  0  0  0  0  0  0  0
  152.0516  140.4467  157.5222 C   0  0  0  0  0  0  0  0  0  0  0  0
  152.7040  139.4127  157.6614 O   0  0  0  0  0  0  0  0  0  0  0  0
  152.4001  141.6551  158.1428 N   0  0  0  0  0  0  0  0  0  0  0  0
  150.4974  138.4108  156.7934 H   0  0  0  0  0  0  0  0  0  0  0  0
  149.4751  140.5563  153.9181 H   0  0  0  0  0  0  0  0  0  0  0  0
  150.7524  138.9321  152.7000 H   0  0  0  0  0  0  0  0  0  0  0  0
  151.9491  137.9039  154.9965 H   0  0  0  0  0  0  0  0  0  0  0  0
  152.8039  144.1421  159.1830 H   0  0  0  0  0  0  0  0  0  0  0  0
  151.4606  144.8207  158.4305 H   0  0  0  0  0  0  0  0  0  0  0  0
  149.3074  141.6149  155.9521 H   0  0  0  0  0  0  0  0  0  0  0  0
  147.5800  138.1535  153.6821 H   0  0  0  0  0  0  0  0  0  0  0  0
  147.0442  139.8084  153.9416 H   0  0  0  0  0  0  0  0  0  0  0  0
  148.2543  138.6145  151.7121 H   0  0  0  0  0  0  0  0  0  0  0  0
  150.3424  136.9021  152.8052 H   0  0  0  0  0  0  0  0  0  0  0  0
  151.9017  140.3827  153.7721 H   0  0  0  0  0  0  0  0  0  0  0  0
  150.0683  143.5191  157.0619 H   0  0  0  0  0  0  0  0  0  0  0  0
  1  2  1  0  0  0  0
  1 22  1  0  0  0  0
  1 23  1  0  0  0  0
  2 17  2  0  0  0  0
  2  3  1  0  0  0  0
  3  4  2  0  0  0  0
  3 30  1  0  0  0  0
  4  5  1  0  0  0  0
  4 24  1  0  0  0  0
  5  6  1  0  0  0  0
  5 15  1  0  0  0  0
  6 18  1  0  0  0  0
  6 13  1  0  0  0  0
  6  7  1  0  0  0  0
  7  8  1  0  0  0  0
  8 19  1  0  0  0  0
  8  9  1  0  0  0  0
  8 11  1  0  0  0  0
  9 10  1  0  0  0  0
  9 25  1  0  0  0  0
  9 26  1  0  0  0  0
 10 27  1  0  0  0  0
 11 20  1  0  0  0  0
 11 12  1  0  0  0  0
 11 13  1  0  0  0  0
 12 28  1  0  0  0  0
 13 21  1  0  0  0  0
 13 14  1  0  0  0  0
 14 29  1  0  0  0  0
 15 16  2  0  0  0  0
 15 17  1  0  0  0  0
M  CHG  1   3   1
M  END
> <s_m_source_file>
AV-unprocessed.smi

> <i_m_source_file_index>
72

> <i_lp_mmshare_version>
43012

> <i_f3d_flags>
0

> <s_epik_input>
W05IMl1jMW5bY0hdbihjKD1PKW4xKVtDQEBIXTJPW0NASF0oW0NIMl1bT0hdKVtDQEBIXShbT0hdKVtDQEhdMltPSF0=

> <s_epik_cmdline>
J2VwaWtfcHl0aG9uJywgJy1waCcsICc3LjAnLCAnLXRuJywgJzgnLCAnLW1hJywgJzIwMCcsICctbWV0YWxfYmluZGluZycsICctaW1hZScsICc8aW5maWxlLm1hZT4nLCAnLW9tYWUnLCAnPG91dGZpbGUubWFlPic=

> <r_lp_tautomer_probability>
4.77166e-05

> <r_epik_Ionization_Penalty>
0.104979

> <r_epik_Ionization_Penalty_Charging>
0.0999619

> <r_epik_Ionization_Penalty_Neutral>
0.00501745

> <r_epik_State_Penalty>
2.51541

> <r_epik_Charging_Adjusted_Penalty>
2.61537

> <i_epik_Tot_Q>
1

> <i_epik_Tot_abs_Q>
1

> <r_epik_Metal_State_Penalty>
3.53763

> <b_epik_Metal_Only>
0

> <s_epik_Chemistry_Notes>
This compound contains an acetal/aminal-like group ( X-CH(R)-Y where X, Y are N, S, or O) that may be acid/base labile, releasing an aldehyde.

> <s_lp_Force_Field>
OPLS_2005

> <r_lp_Energy>
34.8878

> <b_lp_Chiralities_Consistent>
1

> <s_lp_Variant>
AV-unprocessed.smi:72-38

> <Gold.Version>
5.8.1

> <Gold.Id.Protein>
6NUR|6NUR_protein|mol2

> <Gold.PLP.Fitness>
38.9981

> <Gold.PLP.PLP>
-26.0763

> <Gold.PLP.part.hbond>
-6.5234

> <Gold.PLP.part.metal>
0.0000

> <Gold.PLP.part.buried>
-2.1204

> <Gold.PLP.part.nonpolar>
-16.0793

> <Gold.PLP.part.repulsive>
0.0682

> <Gold.PLP.ligand.clash>
0.0000

> <Gold.PLP.ligand.torsion>
0.3628

> <Gold.PLP.Chemscore.Hbond>
4.5113

> <Gold.PLP.Chemscore.CHOScore>
0.0000

> <Gold.PLP.Chemscore.Metal>
0.0000

> <Gold.Chemscore.Hbonds>
donor molecule, donor type, donor heavy atom, donor atom, acceptor molecule, acceptor atom, score
      L1  H     3    30       P1  8028  1.15
      L1  H    12    28       P1  7948  0.01

> <Gold.PLP.Chemscore.Internal.Correction>
0.1136

> <Gold.Rescore>
     Score         DG    S(hbond)    S(metal)    S(lipo)     H(rot)  DE(clash)    DE(int)     intcor
      7.46      -7.94       2.99        0.00      24.91       4.08       0.01       0.47       ----

> <Gold.Chemscore.Fitness>
7.4572

> <Gold.Chemscore.DG>
-7.9367

> <Gold.Chemscore.ZeroCoef>
-5.4800

> <Gold.Chemscore.Hbond>
2.9887

> <Gold.Chemscore.Metal>
0.0000

> <Gold.Chemscore.Lipo>
24.9144

> <Gold.Chemscore.Internal_Hbond>
0.0000

> <Gold.Chemscore.DEClash>
0.0133

> <Gold.Chemscore.DEInternal>
0.4663

> <Gold.Chemscore.Rot>
4.0783

> <Gold.Chemscore.Internal.Correction>
   9.000000E+99

> <Gold.Chemscore.Hbonds>
donor molecule, donor type, donor heavy atom, donor atom, acceptor molecule, acceptor atom, score
      L1  H     3    30       P1  8028  0.56
      L1  H    10    27       P1  7948  0.05

> <Gold.Chemscore.Hbond.Weighted>
-9.9822

> <Gold.Chemscore.Metal.Weighted>
-0.0000

> <Gold.Chemscore.Lipo.Weighted>
-2.9150

> <Gold.Chemscore.Internal_Hbond.Weighted>
0.0000

> <Gold.Chemscore.DEClash.Weighted>
0.0133

> <Gold.Chemscore.DEInternal.Weighted>
0.4663

> <Gold.Chemscore.Rot.Weighted>
10.4404

> <Gold.Chemscore.Internal.Correction.Weighted>
   9.000000E+99

> <Gold.Protein.RotatedTorsions>
[ 6907 6896 6895 6894 ] final  -44.52 input  -60.11 | X-H torsion
[ 7974 7965 7964 7962 ] final   38.04 input  175.53 | X-H torsion
[ 8008 7997 7996 7995 ] final  -24.08 input   59.86 | X-H torsion
[ 10167 10162 10161 10158 ] final  -78.62 input  -65.29 | X-H torsion
[ 10718 10713 10712 10709 ] final -116.09 input   66.30 | X-H torsion
[ 10763 10752 10751 10750 ] final   -6.67 input  -60.55 | X-H torsion
[ 11005 11000 10999 10996 ] final  -65.90 input  -57.11 | X-H torsion

> <Gold.Protein.ActiveResidues>
 VAL166  LYS551  ARG553  GLY616  TRP617  ASP618  TYR619  PRO620  LYS621  CYS622 
 ASP623  PHE694  ASN695  SER759  ASP760  ASP761  ALA762  ILE779  LEU786  VAL792 
 PHE793  MET794  SER795  GLU796  ALA797  LYS798  CYS799  TRP800  GLU811  SER814 

> <Gold.Protein.RotatedAtoms>
  150.9319  134.8733  159.7556 H   0  0  0  0  0  0  0  0  0  0  0  0  # atno 6907 bound_to 6896
  152.5041  134.4067  159.9445 H   0  0  0  0  0  0  0  0  0  0  0  0  # atno 6908 bound_to 6896
  151.4093  133.3692  159.2777 H   0  0  0  0  0  0  0  0  0  0  0  0  # atno 6909 bound_to 6896
  146.1092  139.5821  142.9363 H   0  0  0  0  0  0  0  0  0  0  0  0  # atno 7974 bound_to 7965
  154.4549  140.1963  156.0409 H   0  0  0  0  0  0  0  0  0  0  0  0  # atno 8008 bound_to 7997
  156.0725  140.3282  155.7565 H   0  0  0  0  0  0  0  0  0  0  0  0  # atno 8009 bound_to 7997
  155.5241  140.0572  157.2892 H   0  0  0  0  0  0  0  0  0  0  0  0  # atno 8010 bound_to 7997
  140.4666  143.2438  151.8269 H   0  0  0  0  0  0  0  0  0  0  0  0  # atno 10167 bound_to 10162
  156.0939  130.6116  150.8990 H   0  0  0  0  0  0  0  0  0  0  0  0  # atno 10718 bound_to 10713
  153.4157  135.7009  153.6329 H   0  0  0  0  0  0  0  0  0  0  0  0  # atno 10763 bound_to 10752
  153.4804  135.3695  155.2439 H   0  0  0  0  0  0  0  0  0  0  0  0  # atno 10764 bound_to 10752
  154.8719  135.4064  154.3516 H   0  0  0  0  0  0  0  0  0  0  0  0  # atno 10765 bound_to 10752
  141.1467  133.6689  156.6057 H   0  0  0  0  0  0  0  0  0  0  0  0  # atno 11005 bound_to 11000
  145.5698  141.0395  143.2180 LP  0  0  0  0  0  0  0  0  0  0  0  0  # atno 17320 bound_to 7965
  144.7497  139.7226  143.7278 LP  0  0  0  0  0  0  0  0  0  0  0  0  # atno 17321 bound_to 7965
  139.4813  144.4943  151.9144 LP  0  0  0  0  0  0  0  0  0  0  0  0  # atno 17342 bound_to 10162
  140.4028  144.2470  150.5892 LP  0  0  0  0  0  0  0  0  0  0  0  0  # atno 17343 bound_to 10162
  157.6096  131.0937  150.8819 LP  0  0  0  0  0  0  0  0  0  0  0  0  # atno 17370 bound_to 10713
  156.8961  130.5230  149.5284 LP  0  0  0  0  0  0  0  0  0  0  0  0  # atno 17371 bound_to 10713
  140.3653  134.7652  157.4562 LP  0  0  0  0  0  0  0  0  0  0  0  0  # atno 17394 bound_to 11000
  140.0752  134.5807  155.8598 LP  0  0  0  0  0  0  0  0  0  0  0  0  # atno 17395 bound_to 11000

$$$$
