AV-unprocessed.smi:3331|AV-procd|sdf|12823|dock10
  -GOLD-   2272019203D 1   1.00000     0.00000
 Structure written by MMmdl.
 46 47  0  0  0  0  0  0  0  0  1 V2000
  148.7266  140.1654  154.7959 C   0  0  0  0  0  0  0  0  0  0  0  0
  150.0193  139.5344  155.3315 C   0  0  2  0  0  0  0  0  0  0  0  0
  150.5794  138.4745  154.3541 C   0  0  0  0  0  0  0  0  0  0  0  0
  151.8006  137.7145  154.9209 C   0  0  1  0  0  0  0  0  0  0  0  0
  153.0896  138.5521  154.8478 C   0  0  0  0  0  0  0  0  0  0  0  0
  151.4893  137.2139  156.3486 C   0  0  0  0  0  0  0  0  0  0  0  0
  151.0863  138.3477  157.1926 N   0  0  0  0  0  0  0  0  0  0  0  0
  151.7992  138.8921  158.2117 C   0  0  0  0  0  0  0  0  0  0  0  0
  151.3602  139.8278  158.8839 O   0  0  0  0  0  0  0  0  0  0  0  0
  153.2070  138.3524  158.5598 C   0  0  2  0  0  0  0  0  0  0  0  0
  153.1764  137.6510  159.9267 C   0  0  0  0  0  0  0  0  0  0  0  0
  154.2476  139.3978  158.5646 N   0  0  0  0  0  0  0  0  0  0  0  0
  154.1156  140.3457  159.6662 C   0  0  0  0  0  0  0  0  0  0  0  0
  153.4264  141.6209  159.1630 C   0  0  0  0  0  0  0  0  0  0  0  0
  153.1952  142.5595  160.2434 N   0  0  0  0  0  0  0  0  0  0  0  0
  152.5574  143.7809  160.1945 C   0  0  0  0  0  0  0  0  0  0  0  0
  152.5903  144.3068  161.4542 C   0  0  0  0  0  0  0  0  0  0  0  0
  153.2804  143.3209  162.2138 C   0  0  0  0  0  0  0  0  0  0  0  0
  153.6422  142.2764  161.4859 N   0  0  0  0  0  0  0  0  0  0  0  0
  149.8129  138.9178  156.7315 C   0  0  0  0  0  0  0  0  0  0  0  0
  147.9364  139.4217  154.6885 H   0  0  0  0  0  0  0  0  0  0  0  0
  148.8889  140.6228  153.8195 H   0  0  0  0  0  0  0  0  0  0  0  0
  148.3619  140.9434  155.4671 H   0  0  0  0  0  0  0  0  0  0  0  0
  150.7554  140.3344  155.4236 H   0  0  0  0  0  0  0  0  0  0  0  0
  149.7932  137.7493  154.1385 H   0  0  0  0  0  0  0  0  0  0  0  0
  150.8309  138.9348  153.3978 H   0  0  0  0  0  0  0  0  0  0  0  0
  151.9630  136.8381  154.2923 H   0  0  0  0  0  0  0  0  0  0  0  0
  153.0162  139.4664  155.4362 H   0  0  0  0  0  0  0  0  0  0  0  0
  153.3105  138.8404  153.8202 H   0  0  0  0  0  0  0  0  0  0  0  0
  153.9450  137.9872  155.2188 H   0  0  0  0  0  0  0  0  0  0  0  0
  150.6610  136.5051  156.3069 H   0  0  0  0  0  0  0  0  0  0  0  0
  152.3170  136.6315  156.7479 H   0  0  0  0  0  0  0  0  0  0  0  0
  153.5226  137.6248  157.8152 H   0  0  0  0  0  0  0  0  0  0  0  0
  152.4495  136.8381  159.9420 H   0  0  0  0  0  0  0  0  0  0  0  0
  152.9158  138.3449  160.7269 H   0  0  0  0  0  0  0  0  0  0  0  0
  154.1492  137.2204  160.1663 H   0  0  0  0  0  0  0  0  0  0  0  0
  155.1747  138.9966  158.5624 H   0  0  0  0  0  0  0  0  0  0  0  0
  153.5285  139.8961  160.4684 H   0  0  0  0  0  0  0  0  0  0  0  0
  155.0911  140.6018  160.0805 H   0  0  0  0  0  0  0  0  0  0  0  0
  154.0392  142.1127  158.4060 H   0  0  0  0  0  0  0  0  0  0  0  0
  152.4704  141.3838  158.6931 H   0  0  0  0  0  0  0  0  0  0  0  0
  152.1399  144.1700  159.2776 H   0  0  0  0  0  0  0  0  0  0  0  0
  152.1848  145.2520  161.7826 H   0  0  0  0  0  0  0  0  0  0  0  0
  153.5279  143.3333  163.2650 H   0  0  0  0  0  0  0  0  0  0  0  0
  149.4157  139.6718  157.4126 H   0  0  0  0  0  0  0  0  0  0  0  0
  149.0564  138.1327  156.6923 H   0  0  0  0  0  0  0  0  0  0  0  0
  1  2  1  0  0  0  0
  1 21  1  0  0  0  0
  1 22  1  0  0  0  0
  1 23  1  0  0  0  0
  2 20  1  0  0  0  0
  2  3  1  0  0  0  0
  2 24  1  0  0  0  0
  3  4  1  0  0  0  0
  3 25  1  0  0  0  0
  3 26  1  0  0  0  0
  4  5  1  0  0  0  0
  4  6  1  0  0  0  0
  4 27  1  0  0  0  0
  5 28  1  0  0  0  0
  5 29  1  0  0  0  0
  5 30  1  0  0  0  0
  6  7  1  0  0  0  0
  6 31  1  0  0  0  0
  6 32  1  0  0  0  0
  7  8  1  0  0  0  0
  7 20  1  0  0  0  0
  8  9  2  0  0  0  0
  8 10  1  0  0  0  0
 10 11  1  0  0  0  0
 10 12  1  0  0  0  0
 10 33  1  0  0  0  0
 11 34  1  0  0  0  0
 11 35  1  0  0  0  0
 11 36  1  0  0  0  0
 12 13  1  0  0  0  0
 12 37  1  0  0  0  0
 13 14  1  0  0  0  0
 13 38  1  0  0  0  0
 13 39  1  0  0  0  0
 14 15  1  0  0  0  0
 14 40  1  0  0  0  0
 14 41  1  0  0  0  0
 15 19  1  0  0  0  0
 15 16  1  0  0  0  0
 16 17  2  0  0  0  0
 16 42  1  0  0  0  0
 17 18  1  0  0  0  0
 17 43  1  0  0  0  0
 18 19  2  0  0  0  0
 18 44  1  0  0  0  0
 20 45  1  0  0  0  0
 20 46  1  0  0  0  0
M  END
> <s_m_source_file>
AV-unprocessed.smi

> <i_m_source_file_index>
3331

> <i_lp_mmshare_version>
43012

> <i_f3d_flags>
0

> <s_epik_input>
W0NIM11bQ0BASF0xW0NIMl1bQ0BASF0oW0NIM10pW0NIMl1OKFtDSDJdMSlDKD1PKVtDQEhdKFtDSDNdKVtOSF1bQ0gyXVtDSDJdbjJbY0hdW2NIXVtjSF1uMg==

> <s_epik_cmdline>
J2VwaWtfcHl0aG9uJywgJy1waCcsICc3LjAnLCAnLXRuJywgJzgnLCAnLW1hJywgJzIwMCcsICctbWV0YWxfYmluZGluZycsICctaW1hZScsICc8aW5maWxlLm1hZT4nLCAnLW9tYWUnLCAnPG91dGZpbGUubWFlPic=

> <r_lp_tautomer_probability>
1

> <r_epik_Ionization_Penalty>
0.767994

> <r_epik_Ionization_Penalty_Charging>
0

> <r_epik_Ionization_Penalty_Neutral>
0.767994

> <r_epik_State_Penalty>
0.795453

> <r_epik_Charging_Adjusted_Penalty>
0.795453

> <i_epik_Tot_Q>
0

> <i_epik_Tot_abs_Q>
0

> <r_epik_Metal_State_Penalty>
0.794784

> <b_epik_Metal_Only>
0

> <s_lp_Force_Field>
OPLS_2005

> <r_lp_Energy>
29.1229

> <b_lp_Chiralities_Consistent>
1

> <s_lp_Variant>
AV-unprocessed.smi:3331-7

> <Gold.Version>
5.8.1

> <Gold.Id.Protein>
6NUR|6NUR_protein|mol2

> <Gold.PLP.Fitness>
42.7076

> <Gold.PLP.PLP>
-42.6469

> <Gold.PLP.part.hbond>
-1.0000

> <Gold.PLP.part.metal>
0.0000

> <Gold.PLP.part.buried>
-6.2331

> <Gold.PLP.part.nonpolar>
-35.5360

> <Gold.PLP.part.repulsive>
0.0310

> <Gold.PLP.ligand.clash>
0.0000

> <Gold.PLP.ligand.torsion>
0.4252

> <Gold.PLP.Chemscore.Hbond>
0.2880

> <Gold.PLP.Chemscore.CHOScore>
0.0000

> <Gold.PLP.Chemscore.Metal>
0.0000

> <Gold.Chemscore.Hbonds>
donor molecule, donor type, donor heavy atom, donor atom, acceptor molecule, acceptor atom, score
      P1  H  7997  8008       L1    12  0.28

> <Gold.PLP.Chemscore.Internal.Correction>
0.0470

> <Gold.Rescore>
     Score         DG    S(hbond)    S(metal)    S(lipo)     H(rot)  DE(clash)    DE(int)     intcor
     12.61     -14.27       0.00        0.00     111.55       1.66       0.02       1.64       ----

> <Gold.Chemscore.Fitness>
12.6141

> <Gold.Chemscore.DG>
-14.2691

> <Gold.Chemscore.ZeroCoef>
-5.4800

> <Gold.Chemscore.Hbond>
0.0000

> <Gold.Chemscore.Metal>
0.0000

> <Gold.Chemscore.Lipo>
111.5487

> <Gold.Chemscore.Internal_Hbond>
0.0000

> <Gold.Chemscore.DEClash>
0.0164

> <Gold.Chemscore.DEInternal>
1.6386

> <Gold.Chemscore.Rot>
1.6649

> <Gold.Chemscore.Internal.Correction>
   9.000000E+99

> <Gold.Chemscore.Hbonds>
donor molecule, donor type, donor heavy atom, donor atom, acceptor molecule, acceptor atom, score
      P1  H  7997  8008       L1    12  0.01

> <Gold.Chemscore.Hbond.Weighted>
-0.0000

> <Gold.Chemscore.Metal.Weighted>
-0.0000

> <Gold.Chemscore.Lipo.Weighted>
-13.0512

> <Gold.Chemscore.Internal_Hbond.Weighted>
0.0000

> <Gold.Chemscore.DEClash.Weighted>
0.0164

> <Gold.Chemscore.DEInternal.Weighted>
1.6386

> <Gold.Chemscore.Rot.Weighted>
4.2621

> <Gold.Chemscore.Internal.Correction.Weighted>
   9.000000E+99

> <Gold.Protein.RotatedTorsions>
[ 6907 6896 6895 6894 ] final  138.66 input  -60.11 | X-H torsion
[ 7974 7965 7964 7962 ] final   60.64 input  175.53 | X-H torsion
[ 8008 7997 7996 7995 ] final  -67.41 input   59.86 | X-H torsion
[ 10167 10162 10161 10158 ] final  168.09 input  -65.29 | X-H torsion
[ 10718 10713 10712 10709 ] final   -1.41 input   66.30 | X-H torsion
[ 10763 10752 10751 10750 ] final   67.05 input  -60.55 | X-H torsion
[ 11005 11000 10999 10996 ] final   -3.78 input  -57.11 | X-H torsion

> <Gold.Protein.ActiveResidues>
 VAL166  LYS551  ARG553  GLY616  TRP617  ASP618  TYR619  PRO620  LYS621  CYS622 
 ASP623  PHE694  ASN695  SER759  ASP760  ASP761  ALA762  ILE779  LEU786  VAL792 
 PHE793  MET794  SER795  GLU796  ALA797  LYS798  CYS799  TRP800  GLU811  SER814 

> <Gold.Protein.RotatedAtoms>
  152.2639  133.5322  159.5398 H   0  0  0  0  0  0  0  0  0  0  0  0  # atno 6907 bound_to 6896
  150.7135  134.0791  159.3900 H   0  0  0  0  0  0  0  0  0  0  0  0  # atno 6908 bound_to 6896
  151.8708  135.0490  160.0530 H   0  0  0  0  0  0  0  0  0  0  0  0  # atno 6909 bound_to 6896
  145.8937  139.3530  143.0634 H   0  0  0  0  0  0  0  0  0  0  0  0  # atno 7974 bound_to 7965
  154.4798  140.0893  156.7349 H   0  0  0  0  0  0  0  0  0  0  0  0  # atno 8008 bound_to 7997
  155.4501  140.3457  155.4281 H   0  0  0  0  0  0  0  0  0  0  0  0  # atno 8009 bound_to 7997
  156.1173  140.1464  156.9243 H   0  0  0  0  0  0  0  0  0  0  0  0  # atno 8010 bound_to 7997
  139.4960  144.3852  151.9579 H   0  0  0  0  0  0  0  0  0  0  0  0  # atno 10167 bound_to 10162
  156.8060  130.5408  149.5715 H   0  0  0  0  0  0  0  0  0  0  0  0  # atno 10718 bound_to 10713
  153.0168  135.5298  154.6919 H   0  0  0  0  0  0  0  0  0  0  0  0  # atno 10763 bound_to 10752
  154.6051  135.2872  155.0495 H   0  0  0  0  0  0  0  0  0  0  0  0  # atno 10764 bound_to 10752
  154.1538  135.6558  153.5022 H   0  0  0  0  0  0  0  0  0  0  0  0  # atno 10765 bound_to 10752
  140.6731  133.9219  155.8507 H   0  0  0  0  0  0  0  0  0  0  0  0  # atno 11005 bound_to 11000
  145.8876  140.9324  143.0568 LP  0  0  0  0  0  0  0  0  0  0  0  0  # atno 17320 bound_to 7965
  144.6732  140.0863  143.7467 LP  0  0  0  0  0  0  0  0  0  0  0  0  # atno 17321 bound_to 7965
  140.3289  144.3340  150.5992 LP  0  0  0  0  0  0  0  0  0  0  0  0  # atno 17342 bound_to 10162
  140.5662  143.2186  151.7680 LP  0  0  0  0  0  0  0  0  0  0  0  0  # atno 17343 bound_to 10162
  156.1073  130.6014  150.9991 LP  0  0  0  0  0  0  0  0  0  0  0  0  # atno 17370 bound_to 10713
  157.6530  131.0894  150.8009 LP  0  0  0  0  0  0  0  0  0  0  0  0  # atno 17371 bound_to 10713
  141.0376  134.0667  157.3940 LP  0  0  0  0  0  0  0  0  0  0  0  0  # atno 17394 bound_to 11000
  139.8975  135.0150  156.7104 LP  0  0  0  0  0  0  0  0  0  0  0  0  # atno 17395 bound_to 11000

$$$$
