AV-unprocessed.smi:849|AV-procd|sdf|3944|dock1
  -GOLD-   22720 1413D 1   1.00000     0.00000
 Structure written by MMmdl.
 36 38  0  0  0  0  0  0  0  0  1 V2000
  151.8847  139.3549  154.7089 O   0  0  0  0  0  0  0  0  0  0  0  0
  151.7113  139.0157  156.0699 C   0  0  0  0  0  0  0  0  0  0  0  0
  151.9273  140.1609  157.0186 C   0  0  0  0  0  0  0  0  0  0  0  0
  152.7989  140.1102  158.0289 N   0  0  0  0  0  0  0  0  0  0  0  0
  152.6680  141.3545  158.6115 C   0  0  0  0  0  0  0  0  0  0  0  0
  153.3217  141.9182  159.7304 C   0  0  0  0  0  0  0  0  0  0  0  0
  153.0177  143.2305  160.1480 C   0  0  0  0  0  0  0  0  0  0  0  0
  152.0592  143.9964  159.4535 C   0  0  0  0  0  0  0  0  0  0  0  0
  151.3972  143.4537  158.3355 C   0  0  0  0  0  0  0  0  0  0  0  0
  151.7032  142.1426  157.9241 C   0  0  0  0  0  0  0  0  0  0  0  0
  151.2392  141.3254  156.8977 N   0  0  0  0  0  0  0  0  0  0  0  0
  150.2263  141.6862  155.9145 C   0  0  0  0  0  0  0  0  0  0  0  0
  148.8220  141.1682  156.2912 C   0  0  1  0  0  0  0  0  0  0  0  0
  148.0853  142.2538  156.8182 O   0  0  0  0  0  0  0  0  0  0  0  0
  148.1076  140.5007  155.1163 C   0  0  0  0  0  0  0  0  0  0  0  0
  147.7498  141.2824  153.9931 C   0  0  0  0  0  0  0  0  0  0  0  0
  147.1076  140.6988  152.8851 C   0  0  0  0  0  0  0  0  0  0  0  0
  146.8162  139.3234  152.8869 C   0  0  0  0  0  0  0  0  0  0  0  0
  147.1688  138.5345  153.9969 C   0  0  0  0  0  0  0  0  0  0  0  0
  147.8120  139.1124  155.1099 C   0  0  0  0  0  0  0  0  0  0  0  0
  148.2247  138.0824  156.4361 Cl  0  0  0  0  0  0  0  0  0  0  0  0
  151.6397  138.6118  154.1796 H   0  0  0  0  0  0  0  0  0  0  0  0
  150.7015  138.6272  156.2025 H   0  0  0  0  0  0  0  0  0  0  0  0
  152.4072  138.2134  156.3101 H   0  0  0  0  0  0  0  0  0  0  0  0
  154.0573  141.3390  160.2684 H   0  0  0  0  0  0  0  0  0  0  0  0
  153.5222  143.6510  161.0055 H   0  0  0  0  0  0  0  0  0  0  0  0
  151.8315  145.0004  159.7803 H   0  0  0  0  0  0  0  0  0  0  0  0
  150.6602  144.0365  157.8032 H   0  0  0  0  0  0  0  0  0  0  0  0
  150.2121  142.7756  155.8536 H   0  0  0  0  0  0  0  0  0  0  0  0
  150.5194  141.3346  154.9254 H   0  0  0  0  0  0  0  0  0  0  0  0
  148.9100  140.4653  157.1182 H   0  0  0  0  0  0  0  0  0  0  0  0
  148.2530  143.0170  156.2870 H   0  0  0  0  0  0  0  0  0  0  0  0
  147.9745  142.3385  153.9715 H   0  0  0  0  0  0  0  0  0  0  0  0
  146.8406  141.3066  152.0330 H   0  0  0  0  0  0  0  0  0  0  0  0
  146.3239  138.8727  152.0377 H   0  0  0  0  0  0  0  0  0  0  0  0
  146.9448  137.4777  153.9932 H   0  0  0  0  0  0  0  0  0  0  0  0
  1  2  1  0  0  0  0
  1 22  1  0  0  0  0
  2  3  1  0  0  0  0
  2 23  1  0  0  0  0
  2 24  1  0  0  0  0
  3 11  1  0  0  0  0
  3  4  2  0  0  0  0
  4  5  1  0  0  0  0
  5 10  2  0  0  0  0
  5  6  1  0  0  0  0
  6  7  2  0  0  0  0
  6 25  1  0  0  0  0
  7  8  1  0  0  0  0
  7 26  1  0  0  0  0
  8  9  2  0  0  0  0
  8 27  1  0  0  0  0
  9 10  1  0  0  0  0
  9 28  1  0  0  0  0
 10 11  1  0  0  0  0
 11 12  1  0  0  0  0
 12 13  1  0  0  0  0
 12 29  1  0  0  0  0
 12 30  1  0  0  0  0
 13 14  1  0  0  0  0
 13 15  1  0  0  0  0
 13 31  1  0  0  0  0
 14 32  1  0  0  0  0
 15 20  1  0  0  0  0
 15 16  2  0  0  0  0
 16 17  1  0  0  0  0
 16 33  1  0  0  0  0
 17 18  2  0  0  0  0
 17 34  1  0  0  0  0
 18 19  1  0  0  0  0
 18 35  1  0  0  0  0
 19 20  2  0  0  0  0
 19 36  1  0  0  0  0
 20 21  1  0  0  0  0
M  END
> <s_m_source_file>
AV-unprocessed.smi

> <i_m_source_file_index>
849

> <i_lp_mmshare_version>
43012

> <i_f3d_flags>
0

> <s_epik_input>
W2NIXTFbY0hdW2NIXVtjSF1jKGMxMiluKGMobjIpW0NIMl1bT0hdKVtDSDJdW0NASF0oW09IXSljM1tjSF1bY0hdW2NIXVtjSF1jM0Ns

> <s_epik_cmdline>
J2VwaWtfcHl0aG9uJywgJy1waCcsICc3LjAnLCAnLXRuJywgJzgnLCAnLW1hJywgJzIwMCcsICctbWV0YWxfYmluZGluZycsICctaW1hZScsICc8aW5maWxlLm1hZT4nLCAnLW9tYWUnLCAnPG91dGZpbGUubWFlPic=

> <r_epik_Ionization_Penalty>
0.0634742

> <r_epik_Ionization_Penalty_Charging>
0

> <r_epik_Ionization_Penalty_Neutral>
0.0634742

> <r_epik_State_Penalty>
0.0551572

> <r_epik_Charging_Adjusted_Penalty>
0.0551572

> <i_epik_Tot_Q>
0

> <i_epik_Tot_abs_Q>
0

> <r_epik_Metal_State_Penalty>
5.78034e-05

> <b_epik_Metal_Only>
0

> <s_lp_Force_Field>
OPLS_2005

> <r_lp_Energy>
13.628

> <b_lp_Chiralities_Consistent>
1

> <s_lp_Variant>
AV-unprocessed.smi:849-2

> <Gold.Version>
5.8.1

> <Gold.Id.Protein>
6NUR|6NUR_protein|mol2

> <Gold.PLP.Fitness>
46.7295

> <Gold.PLP.PLP>
-39.7572

> <Gold.PLP.part.hbond>
-3.0000

> <Gold.PLP.part.metal>
0.0000

> <Gold.PLP.part.buried>
-4.9735

> <Gold.PLP.part.nonpolar>
-31.7441

> <Gold.PLP.part.repulsive>
0.0000

> <Gold.PLP.ligand.clash>
0.0000

> <Gold.PLP.ligand.torsion>
1.0225

> <Gold.PLP.Chemscore.Hbond>
2.9833

> <Gold.PLP.Chemscore.CHOScore>
0.0000

> <Gold.PLP.Chemscore.Metal>
0.0000

> <Gold.Chemscore.Hbonds>
donor molecule, donor type, donor heavy atom, donor atom, acceptor molecule, acceptor atom, score
      L1  H    14    32       P1  8028  1.00
      P1  H  7989  7998       L1     1  0.99
      P1  H  7997  8008       L1     4  0.98

> <Gold.PLP.Chemscore.Internal.Correction>
0.0675

> <Gold.Rescore>
     Score         DG    S(hbond)    S(metal)    S(lipo)     H(rot)  DE(clash)    DE(int)     intcor
     17.92     -19.13       1.98        0.00     117.48       2.62       0.22       0.99       ----

> <Gold.Chemscore.Fitness>
17.9223

> <Gold.Chemscore.DG>
-19.1345

> <Gold.Chemscore.ZeroCoef>
-5.4800

> <Gold.Chemscore.Hbond>
1.9834

> <Gold.Chemscore.Metal>
0.0000

> <Gold.Chemscore.Lipo>
117.4830

> <Gold.Chemscore.Internal_Hbond>
0.0000

> <Gold.Chemscore.DEClash>
0.2185

> <Gold.Chemscore.DEInternal>
0.9937

> <Gold.Chemscore.Rot>
2.6232

> <Gold.Chemscore.Internal.Correction>
   9.000000E+99

> <Gold.Chemscore.Hbonds>
donor molecule, donor type, donor heavy atom, donor atom, acceptor molecule, acceptor atom, score
      L1  H    14    32       P1  8028  0.70
      P1  H  7989  7998       L1     1  0.37
      P1  H  7997  8008       L1     4  0.16

> <Gold.Chemscore.Hbond.Weighted>
-6.6244

> <Gold.Chemscore.Metal.Weighted>
-0.0000

> <Gold.Chemscore.Lipo.Weighted>
-13.7455

> <Gold.Chemscore.Internal_Hbond.Weighted>
0.0000

> <Gold.Chemscore.DEClash.Weighted>
0.2185

> <Gold.Chemscore.DEInternal.Weighted>
0.9937

> <Gold.Chemscore.Rot.Weighted>
6.7154

> <Gold.Chemscore.Internal.Correction.Weighted>
   9.000000E+99

> <Gold.Protein.RotatedTorsions>
[ 6907 6896 6895 6894 ] final  163.09 input  -60.11 | X-H torsion
[ 7974 7965 7964 7962 ] final   27.90 input  175.53 | X-H torsion
[ 8008 7997 7996 7995 ] final  -82.00 input   59.86 | X-H torsion
[ 10167 10162 10161 10158 ] final  -68.30 input  -65.29 | X-H torsion
[ 10718 10713 10712 10709 ] final  -10.44 input   66.30 | X-H torsion
[ 10763 10752 10751 10750 ] final  133.92 input  -60.55 | X-H torsion
[ 11005 11000 10999 10996 ] final  175.31 input  -57.11 | X-H torsion

> <Gold.Protein.ActiveResidues>
 VAL166  LYS551  ARG553  GLY616  TRP617  ASP618  TYR619  PRO620  LYS621  CYS622 
 ASP623  PHE694  ASN695  SER759  ASP760  ASP761  ALA762  ILE779  LEU786  VAL792 
 PHE793  MET794  SER795  GLU796  ALA797  LYS798  CYS799  TRP800  GLU811  SER814 

> <Gold.Protein.RotatedAtoms>
  151.9305  133.3610  159.3928 H   0  0  0  0  0  0  0  0  0  0  0  0  # atno 6907 bound_to 6896
  150.7018  134.4542  159.5359 H   0  0  0  0  0  0  0  0  0  0  0  0  # atno 6908 bound_to 6896
  152.2181  134.8438  160.0540 H   0  0  0  0  0  0  0  0  0  0  0  0  # atno 6909 bound_to 6896
  146.1759  139.7129  142.8935 H   0  0  0  0  0  0  0  0  0  0  0  0  # atno 7974 bound_to 7965
  154.6041  140.0639  156.9407 H   0  0  0  0  0  0  0  0  0  0  0  0  # atno 8008 bound_to 7997
  155.2083  140.3320  155.4314 H   0  0  0  0  0  0  0  0  0  0  0  0  # atno 8009 bound_to 7997
  156.2336  140.1852  156.7161 H   0  0  0  0  0  0  0  0  0  0  0  0  # atno 8010 bound_to 7997
  140.5518  143.2312  151.6897 H   0  0  0  0  0  0  0  0  0  0  0  0  # atno 10167 bound_to 10162
  156.6734  130.5016  149.5993 H   0  0  0  0  0  0  0  0  0  0  0  0  # atno 10718 bound_to 10713
  153.8151  135.3124  155.3404 H   0  0  0  0  0  0  0  0  0  0  0  0  # atno 10763 bound_to 10752
  154.8035  135.4712  154.0338 H   0  0  0  0  0  0  0  0  0  0  0  0  # atno 10764 bound_to 10752
  153.1729  135.6881  153.8672 H   0  0  0  0  0  0  0  0  0  0  0  0  # atno 10765 bound_to 10752
  140.3608  134.7114  157.4330 H   0  0  0  0  0  0  0  0  0  0  0  0  # atno 11005 bound_to 11000
  145.4213  141.0407  143.2962 LP  0  0  0  0  0  0  0  0  0  0  0  0  # atno 17320 bound_to 7965
  144.8235  139.5750  143.6976 LP  0  0  0  0  0  0  0  0  0  0  0  0  # atno 17321 bound_to 7965
  139.5030  144.3806  152.0380 LP  0  0  0  0  0  0  0  0  0  0  0  0  # atno 17342 bound_to 10162
  140.2924  144.3739  150.6085 LP  0  0  0  0  0  0  0  0  0  0  0  0  # atno 17343 bound_to 10162
  156.1921  130.6566  151.1073 LP  0  0  0  0  0  0  0  0  0  0  0  0  # atno 17370 bound_to 10713
  157.7069  131.0752  150.6636 LP  0  0  0  0  0  0  0  0  0  0  0  0  # atno 17371 bound_to 10713
  140.0628  134.5972  155.8729 LP  0  0  0  0  0  0  0  0  0  0  0  0  # atno 17394 bound_to 11000
  141.1984  133.6601  156.5793 LP  0  0  0  0  0  0  0  0  0  0  0  0  # atno 17395 bound_to 11000

$$$$
