AV-unprocessed.smi:832|AV-procd|sdf|3878|dock2
  -GOLD-   22720 1333D 1   1.00000     0.00000
 Structure written by MMmdl.
 42 43  0  0  0  0  0  0  0  0  2 V2000
  150.6826  141.5305  156.5507 C   0  0  0  0  0  0  0  0  0  0  0  0
  150.8016  140.2591  155.7823 C   0  0  0  0  0  0  0  0  0  0  0  0
  149.9803  139.1758  155.6435 C   0  0  0  0  0  0  0  0  0  0  0  0
  150.7095  138.3327  154.7633 C   0  0  0  0  0  0  0  0  0  0  0  0
  150.1852  137.0801  154.3539 N   0  0  0  0  0  0  0  0  0  0  0  0
  150.4868  135.8665  154.8464 C   0  0  0  0  0  0  0  0  0  0  0  0
  151.2708  135.6512  155.7712 O   0  0  0  0  0  0  0  0  0  0  0  0
  149.8203  134.8980  154.2006 N   0  0  0  0  0  0  0  0  0  0  0  0
  149.9448  133.4672  154.4629 C   0  0  0  0  0  0  0  0  0  0  0  0
  148.6129  132.7199  154.2577 C   0  0  2  0  0  0  0  0  0  0  0  0
  148.7162  131.1962  154.2203 C   0  0  0  0  0  0  0  0  0  0  0  0
  147.4471  130.7952  153.4780 C   0  0  0  0  0  0  0  0  0  0  0  0
  147.2740  131.8239  152.4287 N   0  3  1  0  0  0  0  0  0  0  0  0
  145.8888  131.9848  151.9023 C   0  0  0  0  0  0  0  0  0  0  0  0
  145.2897  130.6395  151.4486 C   0  0  0  0  0  0  0  0  0  0  0  0
  145.8542  132.9809  150.7274 C   0  0  0  0  0  0  0  0  0  0  0  0
  147.9096  133.0679  152.9352 C   0  0  0  0  0  0  0  0  0  0  0  0
  151.8728  138.8520  154.4016 N   0  0  0  0  0  0  0  0  0  0  0  0
  151.9376  140.0895  155.0528 O   0  0  0  0  0  0  0  0  0  0  0  0
  149.7073  141.6054  157.0319 H   0  0  0  0  0  0  0  0  0  0  0  0
  150.8019  142.3920  155.8934 H   0  0  0  0  0  0  0  0  0  0  0  0
  151.4475  141.5862  157.3252 H   0  0  0  0  0  0  0  0  0  0  0  0
  149.0132  139.0173  156.0970 H   0  0  0  0  0  0  0  0  0  0  0  0
  149.5228  137.1115  153.5930 H   0  0  0  0  0  0  0  0  0  0  0  0
  149.1950  135.1693  153.4557 H   0  0  0  0  0  0  0  0  0  0  0  0
  150.6928  133.0714  153.7754 H   0  0  0  0  0  0  0  0  0  0  0  0
  150.3340  133.2898  155.4672 H   0  0  0  0  0  0  0  0  0  0  0  0
  147.9354  132.9844  155.0717 H   0  0  0  0  0  0  0  0  0  0  0  0
  149.5926  130.8867  153.6489 H   0  0  0  0  0  0  0  0  0  0  0  0
  148.7836  130.7493  155.2128 H   0  0  0  0  0  0  0  0  0  0  0  0
  147.5170  129.7920  153.0567 H   0  0  0  0  0  0  0  0  0  0  0  0
  146.5989  130.8196  154.1644 H   0  0  0  0  0  0  0  0  0  0  0  0
  145.2644  132.3782  152.7062 H   0  0  0  0  0  0  0  0  0  0  0  0
  144.2952  130.7799  151.0237 H   0  0  0  0  0  0  0  0  0  0  0  0
  145.1809  129.9382  152.2759 H   0  0  0  0  0  0  0  0  0  0  0  0
  145.9088  130.1658  150.6859 H   0  0  0  0  0  0  0  0  0  0  0  0
  144.8438  133.0797  150.3293 H   0  0  0  0  0  0  0  0  0  0  0  0
  146.4985  132.6521  149.9112 H   0  0  0  0  0  0  0  0  0  0  0  0
  146.1755  133.9795  151.0222 H   0  0  0  0  0  0  0  0  0  0  0  0
  147.1850  133.8657  153.1033 H   0  0  0  0  0  0  0  0  0  0  0  0
  148.6175  133.4190  152.1833 H   0  0  0  0  0  0  0  0  0  0  0  0
  147.8469  131.5202  151.6541 H   0  0  0  0  0  0  0  0  0  0  0  0
  1  2  1  0  0  0  0
  1 20  1  0  0  0  0
  1 21  1  0  0  0  0
  1 22  1  0  0  0  0
  2 19  1  0  0  0  0
  2  3  2  0  0  0  0
  3  4  1  0  0  0  0
  3 23  1  0  0  0  0
  4  5  1  0  0  0  0
  4 18  2  0  0  0  0
  5  6  1  0  0  0  0
  5 24  1  0  0  0  0
  6  7  2  0  0  0  0
  6  8  1  0  0  0  0
  8  9  1  0  0  0  0
  8 25  1  0  0  0  0
  9 10  1  0  0  0  0
  9 26  1  0  0  0  0
  9 27  1  0  0  0  0
 10 17  1  0  0  0  0
 10 11  1  0  0  0  0
 10 28  1  0  0  0  0
 11 12  1  0  0  0  0
 11 29  1  0  0  0  0
 11 30  1  0  0  0  0
 12 13  1  0  0  0  0
 12 31  1  0  0  0  0
 12 32  1  0  0  0  0
 13 14  1  0  0  0  0
 13 17  1  0  0  0  0
 13 42  1  0  0  0  0
 14 15  1  0  0  0  0
 14 16  1  0  0  0  0
 14 33  1  0  0  0  0
 15 34  1  0  0  0  0
 15 35  1  0  0  0  0
 15 36  1  0  0  0  0
 16 37  1  0  0  0  0
 16 38  1  0  0  0  0
 16 39  1  0  0  0  0
 17 40  1  0  0  0  0
 17 41  1  0  0  0  0
 18 19  1  0  0  0  0
M  CHG  1  13   1
M  END
> <s_m_source_file>
AV-unprocessed.smi

> <i_m_source_file_index>
832

> <i_lp_mmshare_version>
43012

> <i_f3d_flags>
0

> <s_epik_input>
W0NIM11jMVtjSF1jKG5vMSlbTkhdQyg9TylbTkhdW0NIMl1bQ0BASF0yW0NIMl1bQ0gyXU4oW0NIMl0yKVtDSF0oW0NIM10pW0NIM10=

> <s_epik_cmdline>
J2VwaWtfcHl0aG9uJywgJy1waCcsICc3LjAnLCAnLXRuJywgJzgnLCAnLW1hJywgJzIwMCcsICctbWV0YWxfYmluZGluZycsICctaW1hZScsICc8aW5maWxlLm1hZT4nLCAnLW9tYWUnLCAnPG91dGZpbGUubWFlPic=

> <r_lp_tautomer_probability>
1

> <r_epik_Ionization_Penalty>
0.000242791

> <r_epik_Ionization_Penalty_Charging>
0.000220876

> <r_epik_Ionization_Penalty_Neutral>
2.19143e-05

> <r_epik_State_Penalty>
-0

> <r_epik_Charging_Adjusted_Penalty>
0.000220876

> <i_epik_Tot_Q>
1

> <i_epik_Tot_abs_Q>
1

> <r_epik_Metal_State_Penalty>
-0

> <b_epik_Metal_Only>
0

> <s_lp_Force_Field>
OPLS_2005

> <r_lp_Energy>
27.9623

> <b_lp_Chiralities_Consistent>
1

> <s_lp_Variant>
AV-unprocessed.smi:832-3

> <Gold.Version>
5.8.1

> <Gold.Id.Protein>
6NUR|6NUR_protein|mol2

> <Gold.PLP.Fitness>
46.0383

> <Gold.PLP.PLP>
-34.8848

> <Gold.PLP.part.hbond>
-6.4933

> <Gold.PLP.part.metal>
0.0000

> <Gold.PLP.part.buried>
-4.2675

> <Gold.PLP.part.nonpolar>
-26.2182

> <Gold.PLP.part.repulsive>
0.3221

> <Gold.PLP.ligand.clash>
0.0000

> <Gold.PLP.ligand.torsion>
1.0076

> <Gold.PLP.Chemscore.Hbond>
4.3793

> <Gold.PLP.Chemscore.CHOScore>
0.0000

> <Gold.PLP.Chemscore.Metal>
0.0000

> <Gold.Chemscore.Hbonds>
donor molecule, donor type, donor heavy atom, donor atom, acceptor molecule, acceptor atom, score
      L1  H     5    24       P1  7948  0.88
      L1  H     8    25       P1  7948  0.87
      L1  H    13    42       P1 10747  1.00
      P1  H  7989  7998       L1    19  0.38
      P1  H 10752 10765       L1     7  1.00

> <Gold.PLP.Chemscore.Internal.Correction>
0.0308

> <Gold.Rescore>
     Score         DG    S(hbond)    S(metal)    S(lipo)     H(rot)  DE(clash)    DE(int)     intcor
     16.52     -17.63       2.43        0.00      67.64       1.51       0.10       1.01       ----

> <Gold.Chemscore.Fitness>
16.5198

> <Gold.Chemscore.DG>
-17.6304

> <Gold.Chemscore.ZeroCoef>
-5.4800

> <Gold.Chemscore.Hbond>
2.4294

> <Gold.Chemscore.Metal>
0.0000

> <Gold.Chemscore.Lipo>
67.6368

> <Gold.Chemscore.Internal_Hbond>
0.0000

> <Gold.Chemscore.DEClash>
0.0970

> <Gold.Chemscore.DEInternal>
1.0137

> <Gold.Chemscore.Rot>
1.5146

> <Gold.Chemscore.Internal.Correction>
   9.000000E+99

> <Gold.Chemscore.Hbonds>
donor molecule, donor type, donor heavy atom, donor atom, acceptor molecule, acceptor atom, score
      L1  H     5    24       P1  7948  0.74
      L1  H     8    25       P1  7948  0.19
      L1  H    13    42       P1 10747  1.00
      P1  H  7989  7998       L1    19  0.01
      P1  H 10752 10765       L1     7  0.70

> <Gold.Chemscore.Hbond.Weighted>
-8.1143

> <Gold.Chemscore.Metal.Weighted>
-0.0000

> <Gold.Chemscore.Lipo.Weighted>
-7.9135

> <Gold.Chemscore.Internal_Hbond.Weighted>
0.0000

> <Gold.Chemscore.DEClash.Weighted>
0.0970

> <Gold.Chemscore.DEInternal.Weighted>
1.0137

> <Gold.Chemscore.Rot.Weighted>
3.8774

> <Gold.Chemscore.Internal.Correction.Weighted>
   9.000000E+99

> <Gold.Protein.RotatedTorsions>
[ 6907 6896 6895 6894 ] final -138.73 input  -60.11 | X-H torsion
[ 7974 7965 7964 7962 ] final   38.01 input  175.53 | X-H torsion
[ 8008 7997 7996 7995 ] final -158.97 input   59.86 | X-H torsion
[ 10167 10162 10161 10158 ] final -161.80 input  -65.29 | X-H torsion
[ 10718 10713 10712 10709 ] final   63.46 input   66.30 | X-H torsion
[ 10763 10752 10751 10750 ] final -149.55 input  -60.55 | X-H torsion
[ 11005 11000 10999 10996 ] final  -75.55 input  -57.11 | X-H torsion

> <Gold.Protein.ActiveResidues>
 VAL166  LYS551  ARG553  GLY616  TRP617  ASP618  TYR619  PRO620  LYS621  CYS622 
 ASP623  PHE694  ASN695  SER759  ASP760  ASP761  ALA762  ILE779  LEU786  VAL792 
 PHE793  MET794  SER795  GLU796  ALA797  LYS798  CYS799  TRP800  GLU811  SER814 

> <Gold.Protein.RotatedAtoms>
  151.0387  133.5725  159.2653 H   0  0  0  0  0  0  0  0  0  0  0  0  # atno 6907 bound_to 6896
  151.2779  135.0704  159.9168 H   0  0  0  0  0  0  0  0  0  0  0  0  # atno 6908 bound_to 6896
  152.5360  134.0107  159.7991 H   0  0  0  0  0  0  0  0  0  0  0  0  # atno 6909 bound_to 6896
  146.1094  139.5824  142.9362 H   0  0  0  0  0  0  0  0  0  0  0  0  # atno 7974 bound_to 7965
  155.7556  140.0832  157.2180 H   0  0  0  0  0  0  0  0  0  0  0  0  # atno 8008 bound_to 7997
  154.4008  140.1552  156.2829 H   0  0  0  0  0  0  0  0  0  0  0  0  # atno 8009 bound_to 7997
  155.8889  140.3416  155.5944 H   0  0  0  0  0  0  0  0  0  0  0  0  # atno 8010 bound_to 7997
  139.6438  144.0210  152.2112 H   0  0  0  0  0  0  0  0  0  0  0  0  # atno 10167 bound_to 10162
  157.5972  130.9106  149.9718 H   0  0  0  0  0  0  0  0  0  0  0  0  # atno 10718 bound_to 10713
  154.8170  135.3306  154.7146 H   0  0  0  0  0  0  0  0  0  0  0  0  # atno 10763 bound_to 10752
  153.7785  135.6920  153.4897 H   0  0  0  0  0  0  0  0  0  0  0  0  # atno 10764 bound_to 10752
  153.1996  135.4521  155.0198 H   0  0  0  0  0  0  0  0  0  0  0  0  # atno 10765 bound_to 10752
  141.1646  133.6951  156.7534 H   0  0  0  0  0  0  0  0  0  0  0  0  # atno 11005 bound_to 11000
  145.5694  141.0396  143.2182 LP  0  0  0  0  0  0  0  0  0  0  0  0  # atno 17320 bound_to 7965
  144.7498  139.7223  143.7277 LP  0  0  0  0  0  0  0  0  0  0  0  0  # atno 17321 bound_to 7965
  139.9906  144.6364  150.7818 LP  0  0  0  0  0  0  0  0  0  0  0  0  # atno 17342 bound_to 10162
  140.7504  143.2955  151.3215 LP  0  0  0  0  0  0  0  0  0  0  0  0  # atno 17343 bound_to 10162
  156.1038  130.3654  150.0171 LP  0  0  0  0  0  0  0  0  0  0  0  0  # atno 17370 bound_to 10713
  156.8282  130.9383  151.3638 LP  0  0  0  0  0  0  0  0  0  0  0  0  # atno 17371 bound_to 10713
  140.2587  134.8484  157.3737 LP  0  0  0  0  0  0  0  0  0  0  0  0  # atno 17394 bound_to 11000
  140.1632  134.4702  155.7880 LP  0  0  0  0  0  0  0  0  0  0  0  0  # atno 17395 bound_to 11000

$$$$
