AV-unprocessed.smi:3354|AV-procd|sdf|12957|dock5
  -GOLD-   2272019393D 1   1.00000     0.00000
 Structure written by MMmdl.
 38 40  0  0  0  0  0  0  0  0  1 V2000
  152.1149  138.3717  154.6543 C   0  0  0  0  0  0  0  0  0  0  0  0
  151.3940  138.9968  155.8329 C   0  0  2  0  0  0  0  0  0  0  0  0
  151.6479  138.5093  157.2403 C   0  0  0  0  0  0  0  0  0  0  0  0
  150.2992  138.2694  156.5891 C   0  0  2  0  0  0  0  0  0  0  0  0
  149.9034  136.9551  156.1708 N   0  0  0  0  0  0  0  0  0  0  0  0
  148.6179  136.6980  155.5352 C   0  0  0  0  0  0  0  0  0  0  0  0
  148.6076  135.1930  155.2139 C   0  0  1  0  0  0  0  0  0  0  0  0
  148.1424  134.9517  153.8505 N   0  0  0  0  0  0  0  0  0  0  0  0
  147.0614  134.2275  153.5293 C   0  0  0  0  0  0  0  0  0  0  0  0
  146.3380  133.6844  154.3640 O   0  0  0  0  0  0  0  0  0  0  0  0
  146.8974  134.1626  152.1967 N   0  0  0  0  0  0  0  0  0  0  0  0
  145.8753  133.5022  151.4626 C   0  0  0  0  0  0  0  0  0  0  0  0
  146.0956  132.7707  150.2701 C   0  0  0  0  0  0  0  0  0  0  0  0
  145.0002  132.1452  149.6447 C   0  0  0  0  0  0  0  0  0  0  0  0
  143.7278  132.2669  150.2360 C   0  0  0  0  0  0  0  0  0  0  0  0
  143.5056  132.9489  151.3793 N   0  0  0  0  0  0  0  0  0  0  0  0
  144.5609  133.5453  151.9739 C   0  0  0  0  0  0  0  0  0  0  0  0
  150.0504  134.7136  155.4363 C   0  0  0  0  0  0  0  0  0  0  0  0
  150.7339  135.9109  156.0726 C   0  0  0  0  0  0  0  0  0  0  0  0
  151.9104  135.8882  156.4318 O   0  0  0  0  0  0  0  0  0  0  0  0
  152.3202  137.3158  154.8315 H   0  0  0  0  0  0  0  0  0  0  0  0
  153.0629  138.8825  154.4841 H   0  0  0  0  0  0  0  0  0  0  0  0
  151.5055  138.4618  153.7548 H   0  0  0  0  0  0  0  0  0  0  0  0
  151.2438  140.0689  155.7201 H   0  0  0  0  0  0  0  0  0  0  0  0
  152.3407  137.6796  157.3606 H   0  0  0  0  0  0  0  0  0  0  0  0
  151.6968  139.2618  158.0246 H   0  0  0  0  0  0  0  0  0  0  0  0
  149.4916  138.8949  156.9663 H   0  0  0  0  0  0  0  0  0  0  0  0
  147.7876  136.9521  156.1942 H   0  0  0  0  0  0  0  0  0  0  0  0
  148.5367  137.3116  154.6362 H   0  0  0  0  0  0  0  0  0  0  0  0
  147.9486  134.6884  155.9235 H   0  0  0  0  0  0  0  0  0  0  0  0
  148.6855  135.3581  153.1029 H   0  0  0  0  0  0  0  0  0  0  0  0
  147.6218  134.5906  151.6388 H   0  0  0  0  0  0  0  0  0  0  0  0
  147.0759  132.6645  149.8327 H   0  0  0  0  0  0  0  0  0  0  0  0
  145.1336  131.5807  148.7337 H   0  0  0  0  0  0  0  0  0  0  0  0
  142.8672  131.7984  149.7822 H   0  0  0  0  0  0  0  0  0  0  0  0
  144.3456  134.0793  152.8882 H   0  0  0  0  0  0  0  0  0  0  0  0
  150.0930  133.8449  156.0940 H   0  0  0  0  0  0  0  0  0  0  0  0
  150.5566  134.4657  154.5023 H   0  0  0  0  0  0  0  0  0  0  0  0
  1  2  1  0  0  0  0
  1 21  1  0  0  0  0
  1 22  1  0  0  0  0
  1 23  1  0  0  0  0
  2  4  1  0  0  0  0
  2  3  1  0  0  0  0
  2 24  1  0  0  0  0
  3  4  1  0  0  0  0
  3 25  1  0  0  0  0
  3 26  1  0  0  0  0
  4  5  1  0  0  0  0
  4 27  1  0  0  0  0
  5 19  1  0  0  0  0
  5  6  1  0  0  0  0
  6  7  1  0  0  0  0
  6 28  1  0  0  0  0
  6 29  1  0  0  0  0
  7  8  1  0  0  0  0
  7 18  1  0  0  0  0
  7 30  1  0  0  0  0
  8  9  1  0  0  0  0
  8 31  1  0  0  0  0
  9 10  2  0  0  0  0
  9 11  1  0  0  0  0
 11 12  1  0  0  0  0
 11 32  1  0  0  0  0
 12 17  1  0  0  0  0
 12 13  2  0  0  0  0
 13 14  1  0  0  0  0
 13 33  1  0  0  0  0
 14 15  2  0  0  0  0
 14 34  1  0  0  0  0
 15 16  1  0  0  0  0
 15 35  1  0  0  0  0
 16 17  2  0  0  0  0
 17 36  1  0  0  0  0
 18 19  1  0  0  0  0
 18 37  1  0  0  0  0
 18 38  1  0  0  0  0
 19 20  2  0  0  0  0
M  END
> <s_m_source_file>
AV-unprocessed.smi

> <i_m_source_file_index>
3354

> <i_lp_mmshare_version>
43012

> <i_f3d_flags>
0

> <s_epik_input>
W0NIM11bQ0BASF0xW0NIMl1bQ0BIXTFOMltDSDJdW0NASF0oW0NIMl1DMj1PKVtOSF1DKD1PKVtOSF1jM1tjSF1bY0hdW2NIXW5bY0hdMw==

> <s_epik_cmdline>
J2VwaWtfcHl0aG9uJywgJy1waCcsICc3LjAnLCAnLXRuJywgJzgnLCAnLW1hJywgJzIwMCcsICctbWV0YWxfYmluZGluZycsICctaW1hZScsICc8aW5maWxlLm1hZT4nLCAnLW9tYWUnLCAnPG91dGZpbGUubWFlPic=

> <r_epik_Ionization_Penalty>
0.00456191

> <r_epik_Ionization_Penalty_Charging>
0

> <r_epik_Ionization_Penalty_Neutral>
0.00456191

> <r_epik_State_Penalty>
0.00327094

> <r_epik_Charging_Adjusted_Penalty>
0.00327094

> <i_epik_Tot_Q>
0

> <i_epik_Tot_abs_Q>
0

> <r_epik_Metal_State_Penalty>
-0

> <b_epik_Metal_Only>
0

> <s_lp_Force_Field>
OPLS_2005

> <r_lp_Energy>
41.3899

> <b_lp_Chiralities_Consistent>
1

> <s_lp_Variant>
AV-unprocessed.smi:3354-3

> <Gold.Version>
5.8.1

> <Gold.Id.Protein>
6NUR|6NUR_protein|mol2

> <Gold.PLP.Fitness>
39.9442

> <Gold.PLP.PLP>
-29.3730

> <Gold.PLP.part.hbond>
-2.8787

> <Gold.PLP.part.metal>
0.0000

> <Gold.PLP.part.buried>
-5.3948

> <Gold.PLP.part.nonpolar>
-21.7842

> <Gold.PLP.part.repulsive>
0.3030

> <Gold.PLP.ligand.clash>
0.0000

> <Gold.PLP.ligand.torsion>
0.4433

> <Gold.PLP.Chemscore.Hbond>
2.7302

> <Gold.PLP.Chemscore.CHOScore>
0.9994

> <Gold.PLP.Chemscore.Metal>
0.0000

> <Gold.Chemscore.Hbonds>
donor molecule, donor type, donor heavy atom, donor atom, acceptor molecule, acceptor atom, score
      L1  H     8    31       P1  7948  0.96
      L1  H    11    32       P1  7948  0.68
      P1  H 10752 10763       L1    20  1.00
      L1  C    15    35       P1 10952  1.00

> <Gold.PLP.Chemscore.Internal.Correction>
0.2693

> <Gold.Rescore>
     Score         DG    S(hbond)    S(metal)    S(lipo)     H(rot)  DE(clash)    DE(int)     intcor
     16.34     -19.35       2.72        0.00      67.88       1.24       0.00       3.01       ----

> <Gold.Chemscore.Fitness>
16.3411

> <Gold.Chemscore.DG>
-19.3517

> <Gold.Chemscore.ZeroCoef>
-5.4800

> <Gold.Chemscore.Hbond>
2.7227

> <Gold.Chemscore.Metal>
0.0000

> <Gold.Chemscore.Lipo>
67.8826

> <Gold.Chemscore.Internal_Hbond>
0.0000

> <Gold.Chemscore.DEClash>
0.0029

> <Gold.Chemscore.DEInternal>
3.0077

> <Gold.Chemscore.Rot>
1.2361

> <Gold.Chemscore.Internal.Correction>
   9.000000E+99

> <Gold.Chemscore.Hbonds>
donor molecule, donor type, donor heavy atom, donor atom, acceptor molecule, acceptor atom, score
      L1  H     8    31       P1  7948  0.74
      L1  H    11    32       P1  7948  0.17
      P1  H 10752 10763       L1    20  0.85

> <Gold.Chemscore.Hbond.Weighted>
-9.0937

> <Gold.Chemscore.Metal.Weighted>
-0.0000

> <Gold.Chemscore.Lipo.Weighted>
-7.9423

> <Gold.Chemscore.Internal_Hbond.Weighted>
0.0000

> <Gold.Chemscore.DEClash.Weighted>
0.0029

> <Gold.Chemscore.DEInternal.Weighted>
3.0077

> <Gold.Chemscore.Rot.Weighted>
3.1643

> <Gold.Chemscore.Internal.Correction.Weighted>
   9.000000E+99

> <Gold.Protein.RotatedTorsions>
[ 6907 6896 6895 6894 ] final  167.36 input  -60.11 | X-H torsion
[ 7974 7965 7964 7962 ] final  178.39 input  175.53 | X-H torsion
[ 8008 7997 7996 7995 ] final  -36.39 input   59.86 | X-H torsion
[ 10167 10162 10161 10158 ] final   34.28 input  -65.29 | X-H torsion
[ 10718 10713 10712 10709 ] final  -84.32 input   66.30 | X-H torsion
[ 10763 10752 10751 10750 ] final   86.10 input  -60.55 | X-H torsion
[ 11005 11000 10999 10996 ] final   85.03 input  -57.11 | X-H torsion

> <Gold.Protein.ActiveResidues>
 VAL166  LYS551  ARG553  GLY616  TRP617  ASP618  TYR619  PRO620  LYS621  CYS622 
 ASP623  PHE694  ASN695  SER759  ASP760  ASP761  ALA762  ILE779  LEU786  VAL792 
 PHE793  MET794  SER795  GLU796  ALA797  LYS798  CYS799  TRP800  GLU811  SER814 

> <Gold.Protein.RotatedAtoms>
  151.8645  133.3463  159.3714 H   0  0  0  0  0  0  0  0  0  0  0  0  # atno 6907 bound_to 6896
  150.7169  134.5173  159.5646 H   0  0  0  0  0  0  0  0  0  0  0  0  # atno 6908 bound_to 6896
  152.2693  134.7950  160.0468 H   0  0  0  0  0  0  0  0  0  0  0  0  # atno 6909 bound_to 6896
  144.7157  140.0390  143.6437 H   0  0  0  0  0  0  0  0  0  0  0  0  # atno 7974 bound_to 7965
  154.4074  140.1632  156.2367 H   0  0  0  0  0  0  0  0  0  0  0  0  # atno 8008 bound_to 7997
  155.9236  140.3419  155.6170 H   0  0  0  0  0  0  0  0  0  0  0  0  # atno 8009 bound_to 7997
  155.7192  140.0766  157.2329 H   0  0  0  0  0  0  0  0  0  0  0  0  # atno 8010 bound_to 7997
  140.4329  144.1298  150.6162 H   0  0  0  0  0  0  0  0  0  0  0  0  # atno 10167 bound_to 10162
  156.0007  130.4694  150.4391 H   0  0  0  0  0  0  0  0  0  0  0  0  # atno 10718 bound_to 10713
  153.1538  135.4593  154.9675 H   0  0  0  0  0  0  0  0  0  0  0  0  # atno 10763 bound_to 10752
  154.7845  135.3199  154.7918 H   0  0  0  0  0  0  0  0  0  0  0  0  # atno 10764 bound_to 10752
  153.8419  135.6929  153.4856 H   0  0  0  0  0  0  0  0  0  0  0  0  # atno 10765 bound_to 10752
  139.8983  134.8258  156.2526 H   0  0  0  0  0  0  0  0  0  0  0  0  # atno 11005 bound_to 11000
  146.0039  139.3113  143.0911 LP  0  0  0  0  0  0  0  0  0  0  0  0  # atno 17320 bound_to 7965
  145.8761  140.9391  143.0625 LP  0  0  0  0  0  0  0  0  0  0  0  0  # atno 17321 bound_to 7965
  140.4406  143.2528  151.9478 LP  0  0  0  0  0  0  0  0  0  0  0  0  # atno 17342 bound_to 10162
  139.4785  144.5658  151.8168 LP  0  0  0  0  0  0  0  0  0  0  0  0  # atno 17343 bound_to 10162
  157.2434  131.0530  151.2423 LP  0  0  0  0  0  0  0  0  0  0  0  0  # atno 17370 bound_to 10713
  157.3598  130.7125  149.6494 LP  0  0  0  0  0  0  0  0  0  0  0  0  # atno 17371 bound_to 10713
  141.0214  133.7039  156.1274 LP  0  0  0  0  0  0  0  0  0  0  0  0  # atno 17394 bound_to 11000
  140.7228  134.4339  157.5573 LP  0  0  0  0  0  0  0  0  0  0  0  0  # atno 17395 bound_to 11000

$$$$
