AV-unprocessed.smi:1025|AV-procd|sdf|4467|dock3
  -GOLD-   22720 2443D 1   1.00000     0.00000
 Structure written by MMmdl.
 51 52  0  0  0  0  0  0  0  0  1 V2000
  146.1746  130.4810  152.2925 C   0  0  0  0  0  0  0  0  0  0  0  0
  145.1505  131.3539  151.7397 N   0  0  0  0  0  0  0  0  0  0  0  0
  145.0838  132.6756  151.9575 C   0  0  0  0  0  0  0  0  0  0  0  0
  145.8997  133.2762  152.6566 O   0  0  0  0  0  0  0  0  0  0  0  0
  143.9176  133.4210  151.2807 C   0  0  2  0  0  0  0  0  0  0  0  0
  144.3955  134.4179  150.1994 C   0  0  0  0  0  0  0  0  0  0  0  0
  144.9676  135.7268  150.7750 C   0  0  0  0  0  0  0  0  0  0  0  0
  143.9738  136.3986  151.7422 C   0  0  2  0  0  0  0  0  0  0  0  0
  144.5580  137.6025  152.3253 N   0  0  0  0  0  0  0  0  0  0  0  0
  145.7097  137.6520  153.0092 C   0  0  0  0  0  0  0  0  0  0  0  0
  146.4102  136.6650  153.2297 O   0  0  0  0  0  0  0  0  0  0  0  0
  145.9841  138.9079  153.4009 N   0  0  0  0  0  0  0  0  0  0  0  0
  147.1140  139.3938  154.1131 C   0  0  0  0  0  0  0  0  0  0  0  0
  147.0870  140.3765  155.1320 C   0  0  0  0  0  0  0  0  0  0  0  0
  148.2140  140.7799  155.7564 N   0  0  0  0  0  0  0  0  0  0  0  0
  149.3765  140.2476  155.3574 C   0  0  0  0  0  0  0  0  0  0  0  0
  150.6289  140.5950  156.1813 C   0  0  0  0  0  0  0  0  0  0  0  0
  150.5106  140.0566  157.6265 C   0  0  0  0  0  0  0  0  0  0  0  0
  150.8135  142.1234  156.2130 C   0  0  0  0  0  0  0  0  0  0  0  0
  151.8928  139.9352  155.5811 C   0  0  0  0  0  0  0  0  0  0  0  0
  149.5048  139.2922  154.4275 N   0  0  0  0  0  0  0  0  0  0  0  0
  148.3868  138.8800  153.7945 C   0  0  0  0  0  0  0  0  0  0  0  0
  143.5612  135.4303  152.8647 C   0  0  0  0  0  0  0  0  0  0  0  0
  142.9844  134.1200  152.2969 C   0  0  0  0  0  0  0  0  0  0  0  0
  146.0086  129.4564  151.9596 H   0  0  0  0  0  0  0  0  0  0  0  0
  146.1483  130.4937  153.3829 H   0  0  0  0  0  0  0  0  0  0  0  0
  147.1680  130.7896  151.9639 H   0  0  0  0  0  0  0  0  0  0  0  0
  144.4470  130.9279  151.1538 H   0  0  0  0  0  0  0  0  0  0  0  0
  143.3194  132.6634  150.7712 H   0  0  0  0  0  0  0  0  0  0  0  0
  145.1382  133.9472  149.5537 H   0  0  0  0  0  0  0  0  0  0  0  0
  143.5528  134.6609  149.5511 H   0  0  0  0  0  0  0  0  0  0  0  0
  145.9112  135.5322  151.2852 H   0  0  0  0  0  0  0  0  0  0  0  0
  145.2050  136.4048  149.9545 H   0  0  0  0  0  0  0  0  0  0  0  0
  143.0740  136.6718  151.1875 H   0  0  0  0  0  0  0  0  0  0  0  0
  144.0473  138.4631  152.1925 H   0  0  0  0  0  0  0  0  0  0  0  0
  145.3219  139.6133  153.1130 H   0  0  0  0  0  0  0  0  0  0  0  0
  146.1815  140.8579  155.4642 H   0  0  0  0  0  0  0  0  0  0  0  0
  151.4149  140.2605  158.2010 H   0  0  0  0  0  0  0  0  0  0  0  0
  150.3525  138.9773  157.6367 H   0  0  0  0  0  0  0  0  0  0  0  0
  149.6839  140.5172  158.1682 H   0  0  0  0  0  0  0  0  0  0  0  0
  149.9510  142.6170  156.6621 H   0  0  0  0  0  0  0  0  0  0  0  0
  150.9367  142.5281  155.2078 H   0  0  0  0  0  0  0  0  0  0  0  0
  151.6927  142.4068  156.7922 H   0  0  0  0  0  0  0  0  0  0  0  0
  152.7752  140.1424  156.1874 H   0  0  0  0  0  0  0  0  0  0  0  0
  152.1088  140.3032  154.5775 H   0  0  0  0  0  0  0  0  0  0  0  0
  151.7844  138.8516  155.5203 H   0  0  0  0  0  0  0  0  0  0  0  0
  148.5110  138.1231  153.0339 H   0  0  0  0  0  0  0  0  0  0  0  0
  144.4159  135.2162  153.5067 H   0  0  0  0  0  0  0  0  0  0  0  0
  142.8163  135.9037  153.5057 H   0  0  0  0  0  0  0  0  0  0  0  0
  142.0350  134.3394  151.8065 H   0  0  0  0  0  0  0  0  0  0  0  0
  142.7430  133.4416  153.1163 H   0  0  0  0  0  0  0  0  0  0  0  0
  1  2  1  0  0  0  0
  1 25  1  0  0  0  0
  1 26  1  0  0  0  0
  1 27  1  0  0  0  0
  2  3  1  0  0  0  0
  2 28  1  0  0  0  0
  3  4  2  0  0  0  0
  3  5  1  0  0  0  0
  5 24  1  0  0  0  0
  5  6  1  0  0  0  0
  5 29  1  0  0  0  0
  6  7  1  0  0  0  0
  6 30  1  0  0  0  0
  6 31  1  0  0  0  0
  7  8  1  0  0  0  0
  7 32  1  0  0  0  0
  7 33  1  0  0  0  0
  8  9  1  0  0  0  0
  8 23  1  0  0  0  0
  8 34  1  0  0  0  0
  9 10  1  0  0  0  0
  9 35  1  0  0  0  0
 10 11  2  0  0  0  0
 10 12  1  0  0  0  0
 12 13  1  0  0  0  0
 12 36  1  0  0  0  0
 13 22  1  0  0  0  0
 13 14  2  0  0  0  0
 14 15  1  0  0  0  0
 14 37  1  0  0  0  0
 15 16  2  0  0  0  0
 16 17  1  0  0  0  0
 16 21  1  0  0  0  0
 17 18  1  0  0  0  0
 17 19  1  0  0  0  0
 17 20  1  0  0  0  0
 18 38  1  0  0  0  0
 18 39  1  0  0  0  0
 18 40  1  0  0  0  0
 19 41  1  0  0  0  0
 19 42  1  0  0  0  0
 19 43  1  0  0  0  0
 20 44  1  0  0  0  0
 20 45  1  0  0  0  0
 20 46  1  0  0  0  0
 21 22  2  0  0  0  0
 22 47  1  0  0  0  0
 23 24  1  0  0  0  0
 23 48  1  0  0  0  0
 23 49  1  0  0  0  0
 24 50  1  0  0  0  0
 24 51  1  0  0  0  0
M  END
> <s_m_source_file>
AV-unprocessed.smi

> <i_m_source_file_index>
1025

> <i_lp_mmshare_version>
43012

> <i_f3d_flags>
0

> <s_epik_input>
W0NIM11bTkhdQyg9TylbQ0BASF0xW0NIMl1bQ0gyXVtDQEhdKFtDSDJdW0NIMl0xKVtOSF1DKD1PKVtOSF1jMltjSF1uYyhDKFtDSDNdKShbQ0gzXSlbQ0gzXSluW2NIXTI=

> <s_epik_cmdline>
J2VwaWtfcHl0aG9uJywgJy1waCcsICc3LjAnLCAnLXRuJywgJzgnLCAnLW1hJywgJzIwMCcsICctbWV0YWxfYmluZGluZycsICctaW1hZScsICc8aW5maWxlLm1hZT4nLCAnLW9tYWUnLCAnPG91dGZpbGUubWFlPic=

> <r_lp_tautomer_probability>
1

> <r_epik_Ionization_Penalty>
2.76239e-05

> <r_epik_Ionization_Penalty_Charging>
0

> <r_epik_Ionization_Penalty_Neutral>
2.76239e-05

> <r_epik_State_Penalty>
-0

> <r_epik_Charging_Adjusted_Penalty>
0

> <i_epik_Tot_Q>
0

> <i_epik_Tot_abs_Q>
0

> <r_epik_Metal_State_Penalty>
-0

> <b_epik_Metal_Only>
0

> <s_lp_Force_Field>
OPLS_2005

> <r_lp_Energy>
4.91063

> <b_lp_Chiralities_Consistent>
1

> <s_lp_Variant>
AV-unprocessed.smi:1025-2

> <Gold.Version>
5.8.1

> <Gold.Id.Protein>
6NUR|6NUR_protein|mol2

> <Gold.PLP.Fitness>
41.8394

> <Gold.PLP.PLP>
-33.7260

> <Gold.PLP.part.hbond>
-3.0000

> <Gold.PLP.part.metal>
0.0000

> <Gold.PLP.part.buried>
-2.0524

> <Gold.PLP.part.nonpolar>
-28.9073

> <Gold.PLP.part.repulsive>
1.7837

> <Gold.PLP.ligand.clash>
0.0000

> <Gold.PLP.ligand.torsion>
0.5648

> <Gold.PLP.Chemscore.Hbond>
2.0000

> <Gold.PLP.Chemscore.CHOScore>
1.0190

> <Gold.PLP.Chemscore.Metal>
0.0000

> <Gold.Chemscore.Hbonds>
donor molecule, donor type, donor heavy atom, donor atom, acceptor molecule, acceptor atom, score
      L1  H     9    35       P1 10175  1.00
      L1  H    12    36       P1 10175  1.00
      L1  C    22    47       P1  7948  1.00
      L1  C    22    47       P1  7957  0.03

> <Gold.PLP.Chemscore.Internal.Correction>
0.1859

> <Gold.Rescore>
     Score         DG    S(hbond)    S(metal)    S(lipo)     H(rot)  DE(clash)    DE(int)     intcor
     14.26     -16.94       1.97        0.00      75.02       1.52       0.26       2.42       ----

> <Gold.Chemscore.Fitness>
14.2640

> <Gold.Chemscore.DG>
-16.9397

> <Gold.Chemscore.ZeroCoef>
-5.4800

> <Gold.Chemscore.Hbond>
1.9660

> <Gold.Chemscore.Metal>
0.0000

> <Gold.Chemscore.Lipo>
75.0183

> <Gold.Chemscore.Internal_Hbond>
0.0000

> <Gold.Chemscore.DEClash>
0.2560

> <Gold.Chemscore.DEInternal>
2.4197

> <Gold.Chemscore.Rot>
1.5171

> <Gold.Chemscore.Internal.Correction>
   9.000000E+99

> <Gold.Chemscore.Hbonds>
donor molecule, donor type, donor heavy atom, donor atom, acceptor molecule, acceptor atom, score
      L1  H     9    35       P1 10175  0.92
      L1  H    12    36       P1 10175  0.98

> <Gold.Chemscore.Hbond.Weighted>
-6.5664

> <Gold.Chemscore.Metal.Weighted>
-0.0000

> <Gold.Chemscore.Lipo.Weighted>
-8.7771

> <Gold.Chemscore.Internal_Hbond.Weighted>
0.0000

> <Gold.Chemscore.DEClash.Weighted>
0.2560

> <Gold.Chemscore.DEInternal.Weighted>
2.4197

> <Gold.Chemscore.Rot.Weighted>
3.8839

> <Gold.Chemscore.Internal.Correction.Weighted>
   9.000000E+99

> <Gold.Protein.RotatedTorsions>
[ 6907 6896 6895 6894 ] final -172.18 input  -60.11 | X-H torsion
[ 7974 7965 7964 7962 ] final  -43.98 input  175.53 | X-H torsion
[ 8008 7997 7996 7995 ] final -118.18 input   59.86 | X-H torsion
[ 10167 10162 10161 10158 ] final  -41.47 input  -65.29 | X-H torsion
[ 10718 10713 10712 10709 ] final   82.47 input   66.30 | X-H torsion
[ 10763 10752 10751 10750 ] final  -56.36 input  -60.55 | X-H torsion
[ 11005 11000 10999 10996 ] final  -13.28 input  -57.11 | X-H torsion

> <Gold.Protein.ActiveResidues>
 VAL166  LYS551  ARG553  GLY616  TRP617  ASP618  TYR619  PRO620  LYS621  CYS622 
 ASP623  PHE694  ASN695  SER759  ASP760  ASP761  ALA762  ILE779  LEU786  VAL792 
 PHE793  MET794  SER795  GLU796  ALA797  LYS798  CYS799  TRP800  GLU811  SER814 

> <Gold.Protein.RotatedAtoms>
  151.5357  133.3441  159.2926 H   0  0  0  0  0  0  0  0  0  0  0  0  # atno 6907 bound_to 6896
  150.8566  134.7909  159.7061 H   0  0  0  0  0  0  0  0  0  0  0  0  # atno 6908 bound_to 6896
  152.4598  134.5219  159.9837 H   0  0  0  0  0  0  0  0  0  0  0  0  # atno 6909 bound_to 6896
  145.9965  140.7122  142.9291 H   0  0  0  0  0  0  0  0  0  0  0  0  # atno 7974 bound_to 7965
  155.0955  140.0395  157.2681 H   0  0  0  0  0  0  0  0  0  0  0  0  # atno 8008 bound_to 7997
  154.6798  140.2630  155.6895 H   0  0  0  0  0  0  0  0  0  0  0  0  # atno 8009 bound_to 7997
  156.2690  140.2781  156.1338 H   0  0  0  0  0  0  0  0  0  0  0  0  # atno 8010 bound_to 7997
  140.7001  143.3093  151.3071 H   0  0  0  0  0  0  0  0  0  0  0  0  # atno 10167 bound_to 10162
  157.6858  131.0049  150.2380 H   0  0  0  0  0  0  0  0  0  0  0  0  # atno 10718 bound_to 10713
  154.2054  135.6403  153.5099 H   0  0  0  0  0  0  0  0  0  0  0  0  # atno 10763 bound_to 10752
  153.0002  135.5461  154.6271 H   0  0  0  0  0  0  0  0  0  0  0  0  # atno 10764 bound_to 10752
  154.5694  135.2915  155.0815 H   0  0  0  0  0  0  0  0  0  0  0  0  # atno 10765 bound_to 10752
  140.7744  133.8412  155.9236 H   0  0  0  0  0  0  0  0  0  0  0  0  # atno 11005 bound_to 11000
  144.6905  140.3160  143.7240 LP  0  0  0  0  0  0  0  0  0  0  0  0  # atno 17320 bound_to 7965
  145.7551  139.1806  143.2299 LP  0  0  0  0  0  0  0  0  0  0  0  0  # atno 17321 bound_to 7965
  139.6510  144.0363  152.2626 LP  0  0  0  0  0  0  0  0  0  0  0  0  # atno 17342 bound_to 10162
  139.9899  144.6369  150.7824 LP  0  0  0  0  0  0  0  0  0  0  0  0  # atno 17343 bound_to 10162
  156.3000  130.3757  149.7760 LP  0  0  0  0  0  0  0  0  0  0  0  0  # atno 17370 bound_to 10713
  156.5393  130.8292  151.3263 LP  0  0  0  0  0  0  0  0  0  0  0  0  # atno 17371 bound_to 10713
  140.9542  134.1739  157.4704 LP  0  0  0  0  0  0  0  0  0  0  0  0  # atno 17394 bound_to 11000
  139.8751  134.9921  156.5579 LP  0  0  0  0  0  0  0  0  0  0  0  0  # atno 17395 bound_to 11000

$$$$
