AV-unprocessed.smi:858|AV-procd|sdf|3962|dock4
  -GOLD-   22720 1433D 1   1.00000     0.00000
 Structure written by MMmdl.
 44 45  0  0  0  0  0  0  0  0  1 V2000
  151.0378  131.4294  155.8510 C   0  0  0  0  0  0  0  0  0  0  0  0
  150.6238  132.8841  156.0922 C   0  0  0  0  0  0  0  0  0  0  0  0
  150.9682  133.4175  157.1475 O   0  0  0  0  0  0  0  0  0  0  0  0
  149.8979  133.5344  155.1499 N   0  0  0  0  0  0  0  0  0  0  0  0
  149.5032  132.8362  153.9230 C   0  0  0  0  0  0  0  0  0  0  0  0
  149.4617  134.9353  155.2713 C   0  0  0  0  0  0  0  0  0  0  0  0
  150.6122  135.9460  155.1633 C   0  0  0  0  0  0  0  0  0  0  0  0
  151.5310  135.9485  155.9836 O   0  0  0  0  0  0  0  0  0  0  0  0
  150.5354  136.8141  154.1431 N   0  0  0  0  0  0  0  0  0  0  0  0
  151.4971  137.8754  153.8688 C   0  0  0  0  0  0  0  0  0  0  0  0
  151.5976  138.8722  155.0085 C   0  0  0  0  0  0  0  0  0  0  0  0
  150.5328  139.7455  155.3030 C   0  0  0  0  0  0  0  0  0  0  0  0
  150.6651  140.6423  156.3802 C   0  0  0  0  0  0  0  0  0  0  0  0
  151.8604  140.6395  157.1382 C   0  0  0  0  0  0  0  0  0  0  0  0
  152.0108  141.5263  158.2256 N   0  0  0  0  0  0  0  0  0  0  0  0
  152.3926  140.9104  159.4937 C   0  0  0  0  0  0  0  0  0  0  0  0
  152.8223  141.9882  160.5041 C   0  0  0  0  0  0  0  0  0  0  0  0
  151.7885  142.9570  160.6468 O   0  0  0  0  0  0  0  0  0  0  0  0
  151.5126  143.6222  159.4186 C   0  0  0  0  0  0  0  0  0  0  0  0
  151.0314  142.6010  158.3741 C   0  0  0  0  0  0  0  0  0  0  0  0
  152.8799  139.7914  156.8537 N   0  0  0  0  0  0  0  0  0  0  0  0
  152.7497  138.9367  155.8173 C   0  0  0  0  0  0  0  0  0  0  0  0
  150.1643  130.7781  155.8194 H   0  0  0  0  0  0  0  0  0  0  0  0
  151.6838  131.0775  156.6564 H   0  0  0  0  0  0  0  0  0  0  0  0
  151.5898  131.3269  154.9168 H   0  0  0  0  0  0  0  0  0  0  0  0
  150.3694  132.6808  153.2785 H   0  0  0  0  0  0  0  0  0  0  0  0
  148.7590  133.3953  153.3545 H   0  0  0  0  0  0  0  0  0  0  0  0
  149.0636  131.8625  154.1469 H   0  0  0  0  0  0  0  0  0  0  0  0
  148.6958  135.1714  154.5317 H   0  0  0  0  0  0  0  0  0  0  0  0
  148.9734  135.0852  156.2351 H   0  0  0  0  0  0  0  0  0  0  0  0
  149.7455  136.7428  153.5181 H   0  0  0  0  0  0  0  0  0  0  0  0
  152.4830  137.4594  153.6532 H   0  0  0  0  0  0  0  0  0  0  0  0
  151.1833  138.3964  152.9638 H   0  0  0  0  0  0  0  0  0  0  0  0
  149.6253  139.7267  154.7176 H   0  0  0  0  0  0  0  0  0  0  0  0
  149.8479  141.3051  156.6225 H   0  0  0  0  0  0  0  0  0  0  0  0
  151.5397  140.3533  159.8837 H   0  0  0  0  0  0  0  0  0  0  0  0
  153.2058  140.1970  159.3673 H   0  0  0  0  0  0  0  0  0  0  0  0
  153.0185  141.5343  161.4755 H   0  0  0  0  0  0  0  0  0  0  0  0
  153.7473  142.4719  160.1864 H   0  0  0  0  0  0  0  0  0  0  0  0
  150.7443  144.3767  159.5876 H   0  0  0  0  0  0  0  0  0  0  0  0
  152.4030  144.1469  159.0682 H   0  0  0  0  0  0  0  0  0  0  0  0
  150.8771  143.1051  157.4194 H   0  0  0  0  0  0  0  0  0  0  0  0
  150.0734  142.1780  158.6796 H   0  0  0  0  0  0  0  0  0  0  0  0
  153.5883  138.2814  155.6334 H   0  0  0  0  0  0  0  0  0  0  0  0
  1  2  1  0  0  0  0
  1 23  1  0  0  0  0
  1 24  1  0  0  0  0
  1 25  1  0  0  0  0
  2  3  2  0  0  0  0
  2  4  1  0  0  0  0
  4  5  1  0  0  0  0
  4  6  1  0  0  0  0
  5 26  1  0  0  0  0
  5 27  1  0  0  0  0
  5 28  1  0  0  0  0
  6  7  1  0  0  0  0
  6 29  1  0  0  0  0
  6 30  1  0  0  0  0
  7  8  2  0  0  0  0
  7  9  1  0  0  0  0
  9 10  1  0  0  0  0
  9 31  1  0  0  0  0
 10 11  1  0  0  0  0
 10 32  1  0  0  0  0
 10 33  1  0  0  0  0
 11 22  1  0  0  0  0
 11 12  2  0  0  0  0
 12 13  1  0  0  0  0
 12 34  1  0  0  0  0
 13 14  2  0  0  0  0
 13 35  1  0  0  0  0
 14 15  1  0  0  0  0
 14 21  1  0  0  0  0
 15 20  1  0  0  0  0
 15 16  1  0  0  0  0
 16 17  1  0  0  0  0
 16 36  1  0  0  0  0
 16 37  1  0  0  0  0
 17 18  1  0  0  0  0
 17 38  1  0  0  0  0
 17 39  1  0  0  0  0
 18 19  1  0  0  0  0
 19 20  1  0  0  0  0
 19 40  1  0  0  0  0
 19 41  1  0  0  0  0
 20 42  1  0  0  0  0
 20 43  1  0  0  0  0
 21 22  2  0  0  0  0
 22 44  1  0  0  0  0
M  END
> <s_m_source_file>
AV-unprocessed.smi

> <i_m_source_file_index>
858

> <i_lp_mmshare_version>
43012

> <i_f3d_flags>
0

> <s_epik_input>
W0NIM11DKD1PKU4oW0NIM10pW0NIMl1DKD1PKVtOSF1bQ0gyXWMxW2NIXVtjSF1jKG5bY0hdMSlOMltDSDJdW0NIMl1PW0NIMl1bQ0gyXTI=

> <s_epik_cmdline>
J2VwaWtfcHl0aG9uJywgJy1waCcsICc3LjAnLCAnLXRuJywgJzgnLCAnLW1hJywgJzIwMCcsICctbWV0YWxfYmluZGluZycsICctaW1hZScsICc8aW5maWxlLm1hZT4nLCAnLW9tYWUnLCAnPG91dGZpbGUubWFlPic=

> <r_lp_tautomer_probability>
1

> <r_epik_Ionization_Penalty>
0.00462928

> <r_epik_Ionization_Penalty_Charging>
0

> <r_epik_Ionization_Penalty_Neutral>
0.00462928

> <r_epik_State_Penalty>
0.00334737

> <r_epik_Charging_Adjusted_Penalty>
0.00334737

> <i_epik_Tot_Q>
0

> <i_epik_Tot_abs_Q>
0

> <r_epik_Metal_State_Penalty>
-0

> <b_epik_Metal_Only>
0

> <s_lp_Force_Field>
OPLS_2005

> <r_lp_Energy>
20.1823

> <b_lp_Chiralities_Consistent>
1

> <s_lp_Variant>
AV-unprocessed.smi:858-1

> <Gold.Version>
5.8.1

> <Gold.Id.Protein>
6NUR|6NUR_protein|mol2

> <Gold.PLP.Fitness>
52.1003

> <Gold.PLP.PLP>
-41.1721

> <Gold.PLP.part.hbond>
-5.4447

> <Gold.PLP.part.metal>
0.0000

> <Gold.PLP.part.buried>
-1.6802

> <Gold.PLP.part.nonpolar>
-33.5203

> <Gold.PLP.part.repulsive>
0.1614

> <Gold.PLP.ligand.clash>
0.0000

> <Gold.PLP.ligand.torsion>
0.3607

> <Gold.PLP.Chemscore.Hbond>
3.7600

> <Gold.PLP.Chemscore.CHOScore>
0.0000

> <Gold.PLP.Chemscore.Metal>
0.0000

> <Gold.Chemscore.Hbonds>
donor molecule, donor type, donor heavy atom, donor atom, acceptor molecule, acceptor atom, score
      L1  H     9    31       P1  7948  1.00
      P1  H  6896  6909       L1     3  0.72
      P1  H  7997  8008       L1    21  1.00
      P1  H 10752 10763       L1     8  1.00

> <Gold.PLP.Chemscore.Internal.Correction>
0.3697

> <Gold.Rescore>
     Score         DG    S(hbond)    S(metal)    S(lipo)     H(rot)  DE(clash)    DE(int)     intcor
     19.34     -21.25       3.13        0.00      89.15       2.00       0.19       1.73       ----

> <Gold.Chemscore.Fitness>
19.3373

> <Gold.Chemscore.DG>
-21.2524

> <Gold.Chemscore.ZeroCoef>
-5.4800

> <Gold.Chemscore.Hbond>
3.1290

> <Gold.Chemscore.Metal>
0.0000

> <Gold.Chemscore.Lipo>
89.1460

> <Gold.Chemscore.Internal_Hbond>
0.0000

> <Gold.Chemscore.DEClash>
0.1887

> <Gold.Chemscore.DEInternal>
1.7263

> <Gold.Chemscore.Rot>
1.9956

> <Gold.Chemscore.Internal.Correction>
   9.000000E+99

> <Gold.Chemscore.Hbonds>
donor molecule, donor type, donor heavy atom, donor atom, acceptor molecule, acceptor atom, score
      L1  H     9    31       P1  7948  0.47
      P1  H  6896  6909       L1     3  0.68
      P1  H  7997  8008       L1    21  0.24
      P1  H 10752 10763       L1     8  0.73

> <Gold.Chemscore.Hbond.Weighted>
-10.4509

> <Gold.Chemscore.Metal.Weighted>
-0.0000

> <Gold.Chemscore.Lipo.Weighted>
-10.4301

> <Gold.Chemscore.Internal_Hbond.Weighted>
0.0000

> <Gold.Chemscore.DEClash.Weighted>
0.1887

> <Gold.Chemscore.DEInternal.Weighted>
1.7263

> <Gold.Chemscore.Rot.Weighted>
5.1087

> <Gold.Chemscore.Internal.Correction.Weighted>
   9.000000E+99

> <Gold.Protein.RotatedTorsions>
[ 6907 6896 6895 6894 ] final  -29.03 input  -60.11 | X-H torsion
[ 7974 7965 7964 7962 ] final   24.62 input  175.53 | X-H torsion
[ 8008 7997 7996 7995 ] final  -71.14 input   59.86 | X-H torsion
[ 10167 10162 10161 10158 ] final  143.78 input  -65.29 | X-H torsion
[ 10718 10713 10712 10709 ] final  151.93 input   66.30 | X-H torsion
[ 10763 10752 10751 10750 ] final   96.17 input  -60.55 | X-H torsion
[ 11005 11000 10999 10996 ] final -155.86 input  -57.11 | X-H torsion

> <Gold.Protein.ActiveResidues>
 VAL166  LYS551  ARG553  GLY616  TRP617  ASP618  TYR619  PRO620  LYS621  CYS622 
 ASP623  PHE694  ASN695  SER759  ASP760  ASP761  ALA762  ILE779  LEU786  VAL792 
 PHE793  MET794  SER795  GLU796  ALA797  LYS798  CYS799  TRP800  GLU811  SER814 

> <Gold.Protein.RotatedAtoms>
  151.1248  135.0099  159.8555 H   0  0  0  0  0  0  0  0  0  0  0  0  # atno 6907 bound_to 6896
  152.5449  134.1679  159.8595 H   0  0  0  0  0  0  0  0  0  0  0  0  # atno 6908 bound_to 6896
  151.1741  133.4721  159.2627 H   0  0  0  0  0  0  0  0  0  0  0  0  # atno 6909 bound_to 6896
  146.1929  139.7579  142.8819 H   0  0  0  0  0  0  0  0  0  0  0  0  # atno 7974 bound_to 7965
  154.5065  140.0821  156.7904 H   0  0  0  0  0  0  0  0  0  0  0  0  # atno 8008 bound_to 7997
  155.3882  140.3431  155.4232 H   0  0  0  0  0  0  0  0  0  0  0  0  # atno 8009 bound_to 7997
  156.1521  140.1562  156.8739 H   0  0  0  0  0  0  0  0  0  0  0  0  # atno 8010 bound_to 7997
  139.4962  144.6017  151.6467 H   0  0  0  0  0  0  0  0  0  0  0  0  # atno 10167 bound_to 10162
  157.2644  131.0804  151.1643 H   0  0  0  0  0  0  0  0  0  0  0  0  # atno 10718 bound_to 10713
  153.2618  135.4228  155.0901 H   0  0  0  0  0  0  0  0  0  0  0  0  # atno 10763 bound_to 10752
  154.8423  135.3451  154.6367 H   0  0  0  0  0  0  0  0  0  0  0  0  # atno 10764 bound_to 10752
  153.6787  135.7040  153.5182 H   0  0  0  0  0  0  0  0  0  0  0  0  # atno 10765 bound_to 10752
  140.6819  134.4135  157.5226 H   0  0  0  0  0  0  0  0  0  0  0  0  # atno 11005 bound_to 11000
  145.3737  141.0347  143.3216 LP  0  0  0  0  0  0  0  0  0  0  0  0  # atno 17320 bound_to 7965
  144.8521  139.5305  143.6851 LP  0  0  0  0  0  0  0  0  0  0  0  0  # atno 17321 bound_to 7965
  140.5668  144.0176  150.6196 LP  0  0  0  0  0  0  0  0  0  0  0  0  # atno 17342 bound_to 10162
  140.3280  143.3095  152.0716 LP  0  0  0  0  0  0  0  0  0  0  0  0  # atno 17343 bound_to 10162
  157.3140  130.6904  149.6232 LP  0  0  0  0  0  0  0  0  0  0  0  0  # atno 17370 bound_to 10713
  155.9663  130.4355  150.5094 LP  0  0  0  0  0  0  0  0  0  0  0  0  # atno 17371 bound_to 10713
  139.8949  134.8695  156.2156 LP  0  0  0  0  0  0  0  0  0  0  0  0  # atno 17394 bound_to 11000
  141.0311  133.6988  156.1431 LP  0  0  0  0  0  0  0  0  0  0  0  0  # atno 17395 bound_to 11000

$$$$
