AV-unprocessed.smi:100|AV-procd|sdf|902|dock10
  -GOLD-   2262017403D 1   1.00000     0.00000
 Structure written by MMmdl.
 31 33  0  0  0  0  0  0  0  0  1 V2000
  150.6668  144.6660  157.9526 N   0  0  0  0  0  0  0  0  0  0  0  0
  151.2220  143.4749  158.2153 C   0  0  0  0  0  0  0  0  0  0  0  0
  152.0328  143.3676  159.2935 N   0  0  0  0  0  0  0  0  0  0  0  0
  152.6004  142.1905  159.5745 C   0  0  0  0  0  0  0  0  0  0  0  0
  152.4878  141.0319  158.9202 N   0  0  0  0  0  0  0  0  0  0  0  0
  151.6661  141.1385  157.8342 C   0  0  0  0  0  0  0  0  0  0  0  0
  151.0000  142.3247  157.4163 C   0  0  0  0  0  0  0  0  0  0  0  0
  150.2553  142.0735  156.2723 N   0  0  0  0  0  0  0  0  0  0  0  0
  150.4715  140.8088  156.0307 C   0  0  0  0  0  0  0  0  0  0  0  0
  151.3035  140.1654  156.9215 N   0  0  0  0  0  0  0  0  0  0  0  0
  151.7155  138.7227  156.8932 C   0  0  1  0  0  0  0  0  0  0  0  0
  150.5679  137.9263  156.8912 O   0  0  0  0  0  0  0  0  0  0  0  0
  150.7054  136.9004  155.9136 C   0  0  1  0  0  0  0  0  0  0  0  0
  149.3297  136.3731  155.4765 C   0  0  0  0  0  0  0  0  0  0  0  0
  149.4750  135.4449  154.4228 O   0  0  0  0  0  0  0  0  0  0  0  0
  151.5457  137.5536  154.8128 C   0  0  1  0  0  0  0  0  0  0  0  0
  150.7794  138.3522  154.0664 F   0  0  0  0  0  0  0  0  0  0  0  0
  152.5358  138.3603  155.6364 C   0  0  1  0  0  0  0  0  0  0  0  0
  153.0802  139.4500  154.9128 O   0  0  0  0  0  0  0  0  0  0  0  0
  150.0588  144.7714  157.1534 H   0  0  0  0  0  0  0  0  0  0  0  0
  150.8557  145.4540  158.5549 H   0  0  0  0  0  0  0  0  0  0  0  0
  153.2353  142.1734  160.4479 H   0  0  0  0  0  0  0  0  0  0  0  0
  150.0201  140.3026  155.1898 H   0  0  0  0  0  0  0  0  0  0  0  0
  152.2753  138.5840  157.8192 H   0  0  0  0  0  0  0  0  0  0  0  0
  151.2787  136.0921  156.3716 H   0  0  0  0  0  0  0  0  0  0  0  0
  148.8410  135.8702  156.3113 H   0  0  0  0  0  0  0  0  0  0  0  0
  148.6722  137.1852  155.1649 H   0  0  0  0  0  0  0  0  0  0  0  0
  149.3324  135.8959  153.6047 H   0  0  0  0  0  0  0  0  0  0  0  0
  152.0216  136.8337  154.1465 H   0  0  0  0  0  0  0  0  0  0  0  0
  153.3499  137.7079  155.9549 H   0  0  0  0  0  0  0  0  0  0  0  0
  152.3949  139.8370  154.3900 H   0  0  0  0  0  0  0  0  0  0  0  0
  1  2  1  0  0  0  0
  1 20  1  0  0  0  0
  1 21  1  0  0  0  0
  2  7  1  0  0  0  0
  2  3  2  0  0  0  0
  3  4  1  0  0  0  0
  4  5  2  0  0  0  0
  4 22  1  0  0  0  0
  5  6  1  0  0  0  0
  6 10  1  0  0  0  0
  6  7  2  0  0  0  0
  7  8  1  0  0  0  0
  8  9  2  0  0  0  0
  9 10  1  0  0  0  0
  9 23  1  0  0  0  0
 10 11  1  0  0  0  0
 11 18  1  0  0  0  0
 11 12  1  0  0  0  0
 11 24  1  0  0  0  0
 12 13  1  0  0  0  0
 13 14  1  0  0  0  0
 13 16  1  0  0  0  0
 13 25  1  0  0  0  0
 14 15  1  0  0  0  0
 14 26  1  0  0  0  0
 14 27  1  0  0  0  0
 15 28  1  0  0  0  0
 16 17  1  0  0  0  0
 16 18  1  0  0  0  0
 16 29  1  0  0  0  0
 18 19  1  0  0  0  0
 18 30  1  0  0  0  0
 19 31  1  0  0  0  0
M  END
> <s_m_source_file>
AV-unprocessed.smi

> <i_m_source_file_index>
100

> <i_lp_mmshare_version>
43012

> <i_f3d_flags>
0

> <s_epik_input>
bjFbY0hdbmMoW05IMl0pYyhjMTIpbltjSF1uMltDQEBIXTNPW0NAQEhdKFtDSDJdW09IXSlbQ0BIXShGKVtDQEhdM1tPSF0=

> <s_epik_cmdline>
J2VwaWtfcHl0aG9uJywgJy1waCcsICc3LjAnLCAnLXRuJywgJzgnLCAnLW1hJywgJzIwMCcsICctbWV0YWxfYmluZGluZycsICctaW1hZScsICc8aW5maWxlLm1hZT4nLCAnLW9tYWUnLCAnPG91dGZpbGUubWFlPic=

> <r_lp_tautomer_probability>
1

> <r_epik_Ionization_Penalty>
0.000750324

> <r_epik_Ionization_Penalty_Charging>
0

> <r_epik_Ionization_Penalty_Neutral>
0.000750324

> <r_epik_State_Penalty>
-0

> <r_epik_Charging_Adjusted_Penalty>
0

> <i_epik_Tot_Q>
0

> <i_epik_Tot_abs_Q>
0

> <r_epik_Metal_State_Penalty>
-0

> <b_epik_Metal_Only>
0

> <s_epik_Chemistry_Notes>
This compound contains an acetal/aminal-like group ( X-CH(R)-Y where X, Y are N, S, or O) that may be acid/base labile, releasing an aldehyde.

> <s_lp_Force_Field>
OPLS_2005

> <r_lp_Energy>
37.3061

> <b_lp_Chiralities_Consistent>
1

> <s_lp_Variant>
AV-unprocessed.smi:100-6

> <Gold.Version>
5.8.1

> <Gold.Id.Protein>
6NUR|6NUR_protein|mol2

> <Gold.PLP.Fitness>
41.0096

> <Gold.PLP.PLP>
-32.0895

> <Gold.PLP.part.hbond>
-4.6275

> <Gold.PLP.part.metal>
0.0000

> <Gold.PLP.part.buried>
-7.2266

> <Gold.PLP.part.nonpolar>
-22.8399

> <Gold.PLP.part.repulsive>
0.5837

> <Gold.PLP.ligand.clash>
0.0000

> <Gold.PLP.ligand.torsion>
0.0412

> <Gold.PLP.Chemscore.Hbond>
3.0000

> <Gold.PLP.Chemscore.CHOScore>
0.0000

> <Gold.PLP.Chemscore.Metal>
0.0000

> <Gold.Chemscore.Hbonds>
donor molecule, donor type, donor heavy atom, donor atom, acceptor molecule, acceptor atom, score
      L1  H     1    20       P1  8028  0.95
      L1  H    15    28       P1  7948  1.00
      P1  H  7997  8009       L1    19  1.00

> <Gold.PLP.Chemscore.Internal.Correction>
0.0024

> <Gold.Rescore>
     Score         DG    S(hbond)    S(metal)    S(lipo)     H(rot)  DE(clash)    DE(int)     intcor
      9.54      -9.66       2.75        0.00      27.04       3.19       0.01       0.11       ----

> <Gold.Chemscore.Fitness>
9.5431

> <Gold.Chemscore.DG>
-9.6648

> <Gold.Chemscore.ZeroCoef>
-5.4800

> <Gold.Chemscore.Hbond>
2.7508

> <Gold.Chemscore.Metal>
0.0000

> <Gold.Chemscore.Lipo>
27.0418

> <Gold.Chemscore.Internal_Hbond>
0.0000

> <Gold.Chemscore.DEClash>
0.0147

> <Gold.Chemscore.DEInternal>
0.1070

> <Gold.Chemscore.Rot>
3.1901

> <Gold.Chemscore.Internal.Correction>
   9.000000E+99

> <Gold.Chemscore.Hbonds>
donor molecule, donor type, donor heavy atom, donor atom, acceptor molecule, acceptor atom, score
      L1  H     1    20       P1  8028  0.22
      L1  H    15    28       P1  7948  0.60
      P1  H  7997  8009       L1    19  0.50

> <Gold.Chemscore.Hbond.Weighted>
-9.1876

> <Gold.Chemscore.Metal.Weighted>
-0.0000

> <Gold.Chemscore.Lipo.Weighted>
-3.1639

> <Gold.Chemscore.Internal_Hbond.Weighted>
0.0000

> <Gold.Chemscore.DEClash.Weighted>
0.0147

> <Gold.Chemscore.DEInternal.Weighted>
0.1070

> <Gold.Chemscore.Rot.Weighted>
8.1667

> <Gold.Chemscore.Internal.Correction.Weighted>
   9.000000E+99

> <Gold.Protein.RotatedTorsions>
[ 6907 6896 6895 6894 ] final  125.39 input  -60.11 | X-H torsion
[ 7974 7965 7964 7962 ] final   85.56 input  175.53 | X-H torsion
[ 8008 7997 7996 7995 ] final -145.02 input   59.86 | X-H torsion
[ 10167 10162 10161 10158 ] final  -76.78 input  -65.29 | X-H torsion
[ 10718 10713 10712 10709 ] final  114.90 input   66.30 | X-H torsion
[ 10763 10752 10751 10750 ] final  112.02 input  -60.55 | X-H torsion
[ 11005 11000 10999 10996 ] final -115.25 input  -57.11 | X-H torsion

> <Gold.Protein.ActiveResidues>
 VAL166  LYS551  ARG553  GLY616  TRP617  ASP618  TYR619  PRO620  LYS621  CYS622 
 ASP623  PHE694  ASN695  SER759  ASP760  ASP761  ALA762  ILE779  LEU786  VAL792 
 PHE793  MET794  SER795  GLU796  ALA797  LYS798  CYS799  TRP800  GLU811  SER814 

> <Gold.Protein.RotatedAtoms>
  152.3995  133.6797  159.6304 H   0  0  0  0  0  0  0  0  0  0  0  0  # atno 6907 bound_to 6896
  150.7889  133.8815  159.3296 H   0  0  0  0  0  0  0  0  0  0  0  0  # atno 6908 bound_to 6896
  151.6584  135.0994  160.0226 H   0  0  0  0  0  0  0  0  0  0  0  0  # atno 6909 bound_to 6896
  145.5839  139.2329  143.2337 H   0  0  0  0  0  0  0  0  0  0  0  0  # atno 7974 bound_to 7965
  155.5364  140.0604  157.2879 H   0  0  0  0  0  0  0  0  0  0  0  0  # atno 8008 bound_to 7997
  154.4467  140.1927  156.0591 H   0  0  0  0  0  0  0  0  0  0  0  0  # atno 8009 bound_to 7997
  156.0615  140.3272  155.7472 H   0  0  0  0  0  0  0  0  0  0  0  0  # atno 8010 bound_to 7997
  140.4827  143.2398  151.8032 H   0  0  0  0  0  0  0  0  0  0  0  0  # atno 10167 bound_to 10162
  157.6254  131.1005  150.7252 H   0  0  0  0  0  0  0  0  0  0  0  0  # atno 10718 bound_to 10713
  153.4718  135.3699  155.2395 H   0  0  0  0  0  0  0  0  0  0  0  0  # atno 10763 bound_to 10752
  154.8757  135.3933  154.3803 H   0  0  0  0  0  0  0  0  0  0  0  0  # atno 10764 bound_to 10752
  153.4392  135.7084  153.6244 H   0  0  0  0  0  0  0  0  0  0  0  0  # atno 10765 bound_to 10752
  141.0500  133.9702  157.2853 H   0  0  0  0  0  0  0  0  0  0  0  0  # atno 11005 bound_to 11000
  146.1696  140.6666  142.9239 LP  0  0  0  0  0  0  0  0  0  0  0  0  # atno 17320 bound_to 7965
  144.7381  140.4866  143.6889 LP  0  0  0  0  0  0  0  0  0  0  0  0  # atno 17321 bound_to 7965
  139.4836  144.4751  151.9377 LP  0  0  0  0  0  0  0  0  0  0  0  0  # atno 17342 bound_to 10162
  140.3837  144.2704  150.5906 LP  0  0  0  0  0  0  0  0  0  0  0  0  # atno 17343 bound_to 10162
  156.7601  130.4796  149.5438 LP  0  0  0  0  0  0  0  0  0  0  0  0  # atno 17370 bound_to 10713
  156.1423  130.6253  151.0484 LP  0  0  0  0  0  0  0  0  0  0  0  0  # atno 17371 bound_to 10713
  139.9342  135.0198  156.8502 LP  0  0  0  0  0  0  0  0  0  0  0  0  # atno 17394 bound_to 11000
  140.6074  134.0115  155.7562 LP  0  0  0  0  0  0  0  0  0  0  0  0  # atno 17395 bound_to 11000

$$$$
