AV-unprocessed.smi:2202|AV-procd|sdf|8934|dock8
  -GOLD-   2272012153D 1   1.00000     0.00000
 Structure written by MMmdl.
 43 45  0  0  0  0  0  0  0  0  2 V2000
  150.4178  135.7469  156.3677 O   0  0  0  0  0  0  0  0  0  0  0  0
  150.1790  136.2750  155.2803 C   0  0  0  0  0  0  0  0  0  0  0  0
  151.0747  137.3924  154.7265 C   0  0  0  0  0  0  0  0  0  0  0  0
  151.1728  138.5571  155.6155 N   0  0  0  0  0  0  0  0  0  0  0  0
  151.6638  138.5157  156.8699 C   0  0  0  0  0  0  0  0  0  0  0  0
  152.1712  137.5499  157.4391 O   0  0  0  0  0  0  0  0  0  0  0  0
  151.4289  139.8629  157.5364 C   0  0  1  0  0  0  0  0  0  0  0  0
  152.4163  140.4779  158.5356 C   0  0  0  0  0  0  0  0  0  0  0  0
  151.9914  141.9279  158.7912 C   0  0  0  0  0  0  0  0  0  0  0  0
  151.1237  142.6082  158.0023 C   0  0  0  0  0  0  0  0  0  0  0  0
  150.4917  142.0261  156.7336 C   0  0  0  0  0  0  0  0  0  0  0  0
  151.2889  140.7779  156.3361 C   0  0  2  0  0  0  0  0  0  0  0  0
  150.8190  139.8087  155.2620 C   0  0  0  0  0  0  0  0  0  0  0  0
  150.2711  140.1592  154.2174 O   0  0  0  0  0  0  0  0  0  0  0  0
  149.1364  135.9260  154.5115 N   0  0  0  0  0  0  0  0  0  0  0  0
  148.1655  134.8902  154.8439 C   0  0  0  0  0  0  0  0  0  0  0  0
  148.2946  133.6737  153.9115 C   0  0  0  0  0  0  0  0  0  0  0  0
  147.0627  133.4797  153.0496 C   0  0  0  0  0  0  0  0  0  0  0  0
  146.3321  132.2718  153.0409 C   0  0  0  0  0  0  0  0  0  0  0  0
  145.1986  132.1588  152.2087 C   0  0  0  0  0  0  0  0  0  0  0  0
  144.8212  133.2536  151.4035 C   0  0  0  0  0  0  0  0  0  0  0  0
  145.5884  134.4354  151.4501 C   0  0  0  0  0  0  0  0  0  0  0  0
  146.6673  134.5050  152.2604 N   0  3  0  0  0  0  0  0  0  0  0  0
  152.0720  136.9898  154.5399 H   0  0  0  0  0  0  0  0  0  0  0  0
  150.6887  137.6945  153.7513 H   0  0  0  0  0  0  0  0  0  0  0  0
  150.4627  139.7723  158.0388 H   0  0  0  0  0  0  0  0  0  0  0  0
  152.3971  139.9241  159.4745 H   0  0  0  0  0  0  0  0  0  0  0  0
  153.4394  140.4550  158.1589 H   0  0  0  0  0  0  0  0  0  0  0  0
  152.4180  142.4119  159.6575 H   0  0  0  0  0  0  0  0  0  0  0  0
  150.8503  143.6214  158.2579 H   0  0  0  0  0  0  0  0  0  0  0  0
  149.4424  141.7936  156.9184 H   0  0  0  0  0  0  0  0  0  0  0  0
  150.5306  142.7683  155.9358 H   0  0  0  0  0  0  0  0  0  0  0  0
  152.2794  141.1076  156.0132 H   0  0  0  0  0  0  0  0  0  0  0  0
  149.0081  136.4120  153.6355 H   0  0  0  0  0  0  0  0  0  0  0  0
  148.2858  134.5910  155.8868 H   0  0  0  0  0  0  0  0  0  0  0  0
  147.1668  135.3195  154.7576 H   0  0  0  0  0  0  0  0  0  0  0  0
  149.1684  133.7876  153.2681 H   0  0  0  0  0  0  0  0  0  0  0  0
  148.4578  132.7646  154.4923 H   0  0  0  0  0  0  0  0  0  0  0  0
  146.6351  131.4414  153.6622 H   0  0  0  0  0  0  0  0  0  0  0  0
  144.6256  131.2432  152.1878 H   0  0  0  0  0  0  0  0  0  0  0  0
  143.9566  133.1872  150.7591 H   0  0  0  0  0  0  0  0  0  0  0  0
  145.3738  135.3201  150.8686 H   0  0  0  0  0  0  0  0  0  0  0  0
  147.2084  135.3701  152.2787 H   0  0  0  0  0  0  0  0  0  0  0  0
  1  2  2  0  0  0  0
  2  3  1  0  0  0  0
  2 15  1  0  0  0  0
  3  4  1  0  0  0  0
  3 24  1  0  0  0  0
  3 25  1  0  0  0  0
  4 13  1  0  0  0  0
  4  5  1  0  0  0  0
  5  6  2  0  0  0  0
  5  7  1  0  0  0  0
  7 12  1  0  0  0  0
  7  8  1  0  0  0  0
  7 26  1  0  0  0  0
  8  9  1  0  0  0  0
  8 27  1  0  0  0  0
  8 28  1  0  0  0  0
  9 10  2  0  0  0  0
  9 29  1  0  0  0  0
 10 11  1  0  0  0  0
 10 30  1  0  0  0  0
 11 12  1  0  0  0  0
 11 31  1  0  0  0  0
 11 32  1  0  0  0  0
 12 13  1  0  0  0  0
 12 33  1  0  0  0  0
 13 14  2  0  0  0  0
 15 16  1  0  0  0  0
 15 34  1  0  0  0  0
 16 17  1  0  0  0  0
 16 35  1  0  0  0  0
 16 36  1  0  0  0  0
 17 18  1  0  0  0  0
 17 37  1  0  0  0  0
 17 38  1  0  0  0  0
 18 23  1  0  0  0  0
 18 19  2  0  0  0  0
 19 20  1  0  0  0  0
 19 39  1  0  0  0  0
 20 21  2  0  0  0  0
 20 40  1  0  0  0  0
 21 22  1  0  0  0  0
 21 41  1  0  0  0  0
 22 23  2  0  0  0  0
 22 42  1  0  0  0  0
 23 43  1  0  0  0  0
M  CHG  1  23   1
M  END
> <s_m_source_file>
AV-unprocessed.smi

> <i_m_source_file_index>
2202

> <i_lp_mmshare_version>
43012

> <i_f3d_flags>
0

> <s_epik_input>
W0NIMl0xW0NIXT1bQ0hdW0NIMl1bQ0BIXShbQ0BIXTEyKUMoPU8pTihDMj1PKVtDSDJdQyg9TylbTkhdW0NIMl1bQ0gyXWMzW2NIXVtjSF1bY0hdW2NIXW4z

> <s_epik_cmdline>
J2VwaWtfcHl0aG9uJywgJy1waCcsICc3LjAnLCAnLXRuJywgJzgnLCAnLW1hJywgJzIwMCcsICctbWV0YWxfYmluZGluZycsICctaW1hZScsICc8aW5maWxlLm1hZT4nLCAnLW9tYWUnLCAnPG91dGZpbGUubWFlPic=

> <r_lp_tautomer_probability>
1

> <r_epik_Ionization_Penalty>
1.90039

> <r_epik_Ionization_Penalty_Charging>
1.90039

> <r_epik_Ionization_Penalty_Neutral>
1.50224e-07

> <r_epik_State_Penalty>
2.02162

> <r_epik_Charging_Adjusted_Penalty>
3.922

> <i_epik_Tot_Q>
1

> <i_epik_Tot_abs_Q>
1

> <r_epik_Metal_State_Penalty>
2.04542

> <b_epik_Metal_Only>
0

> <s_lp_Force_Field>
OPLS_2005

> <r_lp_Energy>
26.7025

> <b_lp_Chiralities_Consistent>
1

> <s_lp_Variant>
AV-unprocessed.smi:2202-6

> <Gold.Version>
5.8.1

> <Gold.Id.Protein>
6NUR|6NUR_protein|mol2

> <Gold.PLP.Fitness>
51.2424

> <Gold.PLP.PLP>
-40.0338

> <Gold.PLP.part.hbond>
-3.0164

> <Gold.PLP.part.metal>
0.0000

> <Gold.PLP.part.buried>
-3.0888

> <Gold.PLP.part.nonpolar>
-34.0467

> <Gold.PLP.part.repulsive>
0.5765

> <Gold.PLP.ligand.clash>
0.0000

> <Gold.PLP.ligand.torsion>
0.4220

> <Gold.PLP.Chemscore.Hbond>
4.0000

> <Gold.PLP.Chemscore.CHOScore>
0.0000

> <Gold.PLP.Chemscore.Metal>
0.0000

> <Gold.Chemscore.Hbonds>
donor molecule, donor type, donor heavy atom, donor atom, acceptor molecule, acceptor atom, score
      L1  H    15    34       P1  7948  0.88
      L1  H    23    43       P1  7948  1.79
      P1  H  7989  7998       L1    14  0.90

> <Gold.PLP.Chemscore.Internal.Correction>
0.0525

> <Gold.Rescore>
     Score         DG    S(hbond)    S(metal)    S(lipo)     H(rot)  DE(clash)    DE(int)     intcor
     16.92     -19.08       2.64        0.00      83.71       1.96       0.34       1.82       ----

> <Gold.Chemscore.Fitness>
16.9203

> <Gold.Chemscore.DG>
-19.0773

> <Gold.Chemscore.ZeroCoef>
-5.4800

> <Gold.Chemscore.Hbond>
2.6430

> <Gold.Chemscore.Metal>
0.0000

> <Gold.Chemscore.Lipo>
83.7051

> <Gold.Chemscore.Internal_Hbond>
0.0000

> <Gold.Chemscore.DEClash>
0.3368

> <Gold.Chemscore.DEInternal>
1.8203

> <Gold.Chemscore.Rot>
1.9625

> <Gold.Chemscore.Internal.Correction>
   9.000000E+99

> <Gold.Chemscore.Hbonds>
donor molecule, donor type, donor heavy atom, donor atom, acceptor molecule, acceptor atom, score
      L1  H    15    34       P1  7948  0.86
      L1  H    23    43       P1  7948  0.87
      P1  H  7989  7998       L1    14  0.17

> <Gold.Chemscore.Hbond.Weighted>
-8.8278

> <Gold.Chemscore.Metal.Weighted>
-0.0000

> <Gold.Chemscore.Lipo.Weighted>
-9.7935

> <Gold.Chemscore.Internal_Hbond.Weighted>
0.0000

> <Gold.Chemscore.DEClash.Weighted>
0.3368

> <Gold.Chemscore.DEInternal.Weighted>
1.8203

> <Gold.Chemscore.Rot.Weighted>
5.0240

> <Gold.Chemscore.Internal.Correction.Weighted>
   9.000000E+99

> <Gold.Protein.RotatedTorsions>
[ 6907 6896 6895 6894 ] final  112.49 input  -60.11 | X-H torsion
[ 7974 7965 7964 7962 ] final   -6.44 input  175.53 | X-H torsion
[ 8008 7997 7996 7995 ] final  -33.10 input   59.86 | X-H torsion
[ 10167 10162 10161 10158 ] final -128.71 input  -65.29 | X-H torsion
[ 10718 10713 10712 10709 ] final   47.82 input   66.30 | X-H torsion
[ 10763 10752 10751 10750 ] final  -91.81 input  -60.55 | X-H torsion
[ 11005 11000 10999 10996 ] final  152.81 input  -57.11 | X-H torsion

> <Gold.Protein.ActiveResidues>
 VAL166  LYS551  ARG553  GLY616  TRP617  ASP618  TYR619  PRO620  LYS621  CYS622 
 ASP623  PHE694  ASN695  SER759  ASP760  ASP761  ALA762  ILE779  LEU786  VAL792 
 PHE793  MET794  SER795  GLU796  ALA797  LYS798  CYS799  TRP800  GLU811  SER814 

> <Gold.Protein.RotatedAtoms>
  152.4913  133.8509  159.7200 H   0  0  0  0  0  0  0  0  0  0  0  0  # atno 6907 bound_to 6896
  150.9046  133.7065  159.2877 H   0  0  0  0  0  0  0  0  0  0  0  0  # atno 6908 bound_to 6896
  151.4495  135.1032  159.9746 H   0  0  0  0  0  0  0  0  0  0  0  0  # atno 6909 bound_to 6896
  146.2331  140.2171  142.8336 H   0  0  0  0  0  0  0  0  0  0  0  0  # atno 7974 bound_to 7965
  154.4159  140.1719  156.1834 H   0  0  0  0  0  0  0  0  0  0  0  0  # atno 8008 bound_to 7997
  155.9663  140.3389  155.6511 H   0  0  0  0  0  0  0  0  0  0  0  0  # atno 8009 bound_to 7997
  155.6683  140.0709  157.2520 H   0  0  0  0  0  0  0  0  0  0  0  0  # atno 8010 bound_to 7997
  139.9475  143.6094  152.2485 H   0  0  0  0  0  0  0  0  0  0  0  0  # atno 10167 bound_to 10162
  157.4623  130.8204  149.7900 H   0  0  0  0  0  0  0  0  0  0  0  0  # atno 10718 bound_to 10713
  154.6798  135.5254  153.8247 H   0  0  0  0  0  0  0  0  0  0  0  0  # atno 10763 bound_to 10752
  153.0557  135.6549  154.0594 H   0  0  0  0  0  0  0  0  0  0  0  0  # atno 10764 bound_to 10752
  154.0483  135.2971  155.3324 H   0  0  0  0  0  0  0  0  0  0  0  0  # atno 10765 bound_to 10752
  140.1341  134.8782  157.2243 H   0  0  0  0  0  0  0  0  0  0  0  0  # atno 11005 bound_to 11000
  144.9661  140.8323  143.5484 LP  0  0  0  0  0  0  0  0  0  0  0  0  # atno 17320 bound_to 7965
  145.2147  139.2187  143.5124 LP  0  0  0  0  0  0  0  0  0  0  0  0  # atno 17321 bound_to 7965
  139.6655  144.7662  151.1881 LP  0  0  0  0  0  0  0  0  0  0  0  0  # atno 17342 bound_to 10162
  140.7593  143.5944  150.8763 LP  0  0  0  0  0  0  0  0  0  0  0  0  # atno 17343 bound_to 10162
  156.0034  130.3868  150.2519 LP  0  0  0  0  0  0  0  0  0  0  0  0  # atno 17370 bound_to 10713
  157.0697  131.0113  151.3194 LP  0  0  0  0  0  0  0  0  0  0  0  0  # atno 17371 bound_to 10713
  140.2805  134.3356  155.7345 LP  0  0  0  0  0  0  0  0  0  0  0  0  # atno 17394 bound_to 11000
  141.2175  133.7475  156.9356 LP  0  0  0  0  0  0  0  0  0  0  0  0  # atno 17395 bound_to 11000

$$$$
