AV-unprocessed.smi:1941|AV-procd|sdf|7845|dock10
  -GOLD-   22720 9593D 1   1.00000     0.00000
 Structure written by MMmdl.
 40 41  0  0  0  0  0  0  0  0  1 V2000
  144.8463  135.1551  154.2187 C   0  0  0  0  0  0  0  0  0  0  0  0
  146.0159  134.3971  153.6917 C   0  0  0  0  0  0  0  0  0  0  0  0
  147.0283  133.9765  154.4544 N   0  0  0  0  0  0  0  0  0  0  0  0
  148.0042  133.2907  153.7244 C   0  0  0  0  0  0  0  0  0  0  0  0
  149.2149  132.7477  154.4208 C   0  0  0  0  0  0  0  0  0  0  0  0
  149.9494  133.8244  155.2364 C   0  0  0  0  0  0  0  0  0  0  0  0
  149.9886  135.0986  154.5281 N   0  0  0  0  0  0  0  0  0  0  0  0
  150.7215  136.1587  154.8954 C   0  0  0  0  0  0  0  0  0  0  0  0
  151.4682  136.1739  155.8739 O   0  0  0  0  0  0  0  0  0  0  0  0
  150.5372  137.1975  154.0679 N   0  0  0  0  0  0  0  0  0  0  0  0
  151.1728  138.5089  154.1840 C   0  0  2  0  0  0  0  0  0  0  0  0
  152.6400  138.3185  154.5945 C   0  0  0  0  0  0  0  0  0  0  0  0
  150.4018  139.3830  155.1921 C   0  0  2  0  0  0  0  0  0  0  0  0
  148.9461  139.6649  154.8177 C   0  0  0  0  0  0  0  0  0  0  0  0
  148.6335  140.9555  155.5579 C   0  0  0  0  0  0  0  0  0  0  0  0
  150.0102  141.5220  155.9189 C   0  0  0  0  0  0  0  0  0  0  0  0
  150.9469  140.6920  155.2460 O   0  0  0  0  0  0  0  0  0  0  0  0
  147.7104  133.1940  152.3869 C   0  0  0  0  0  0  0  0  0  0  0  0
  146.1967  133.9630  151.9965 S   0  0  0  0  0  0  0  0  0  0  0  0
  145.0507  135.5258  155.2237 H   0  0  0  0  0  0  0  0  0  0  0  0
  143.9699  134.5082  154.2553 H   0  0  0  0  0  0  0  0  0  0  0  0
  144.6294  136.0048  153.5712 H   0  0  0  0  0  0  0  0  0  0  0  0
  148.9260  131.9285  155.0804 H   0  0  0  0  0  0  0  0  0  0  0  0
  149.8954  132.3131  153.6873 H   0  0  0  0  0  0  0  0  0  0  0  0
  149.4815  133.9523  156.2143 H   0  0  0  0  0  0  0  0  0  0  0  0
  150.9769  133.5106  155.4229 H   0  0  0  0  0  0  0  0  0  0  0  0
  149.4082  135.1814  153.7063 H   0  0  0  0  0  0  0  0  0  0  0  0
  149.9023  137.0743  153.2930 H   0  0  0  0  0  0  0  0  0  0  0  0
  151.1643  139.0173  153.2182 H   0  0  0  0  0  0  0  0  0  0  0  0
  153.1540  139.2767  154.6722 H   0  0  0  0  0  0  0  0  0  0  0  0
  153.1778  137.7182  153.8598 H   0  0  0  0  0  0  0  0  0  0  0  0
  152.7222  137.8179  155.5597 H   0  0  0  0  0  0  0  0  0  0  0  0
  150.4467  138.9419  156.1900 H   0  0  0  0  0  0  0  0  0  0  0  0
  148.8608  139.8310  153.7428 H   0  0  0  0  0  0  0  0  0  0  0  0
  148.2746  138.8487  155.0855 H   0  0  0  0  0  0  0  0  0  0  0  0
  148.0639  141.6399  154.9286 H   0  0  0  0  0  0  0  0  0  0  0  0
  148.0516  140.7645  156.4602 H   0  0  0  0  0  0  0  0  0  0  0  0
  150.1258  142.5635  155.6180 H   0  0  0  0  0  0  0  0  0  0  0  0
  150.1816  141.4582  156.9942 H   0  0  0  0  0  0  0  0  0  0  0  0
  148.2904  132.7186  151.6099 H   0  0  0  0  0  0  0  0  0  0  0  0
  1  2  1  0  0  0  0
  1 20  1  0  0  0  0
  1 21  1  0  0  0  0
  1 22  1  0  0  0  0
  2 19  1  0  0  0  0
  2  3  2  0  0  0  0
  3  4  1  0  0  0  0
  4  5  1  0  0  0  0
  4 18  2  0  0  0  0
  5  6  1  0  0  0  0
  5 23  1  0  0  0  0
  5 24  1  0  0  0  0
  6  7  1  0  0  0  0
  6 25  1  0  0  0  0
  6 26  1  0  0  0  0
  7  8  1  0  0  0  0
  7 27  1  0  0  0  0
  8  9  2  0  0  0  0
  8 10  1  0  0  0  0
 10 11  1  0  0  0  0
 10 28  1  0  0  0  0
 11 12  1  0  0  0  0
 11 13  1  0  0  0  0
 11 29  1  0  0  0  0
 12 30  1  0  0  0  0
 12 31  1  0  0  0  0
 12 32  1  0  0  0  0
 13 17  1  0  0  0  0
 13 14  1  0  0  0  0
 13 33  1  0  0  0  0
 14 15  1  0  0  0  0
 14 34  1  0  0  0  0
 14 35  1  0  0  0  0
 15 16  1  0  0  0  0
 15 36  1  0  0  0  0
 15 37  1  0  0  0  0
 16 17  1  0  0  0  0
 16 38  1  0  0  0  0
 16 39  1  0  0  0  0
 18 19  1  0  0  0  0
 18 40  1  0  0  0  0
M  END
> <s_m_source_file>
AV-unprocessed.smi

> <i_m_source_file_index>
1941

> <i_lp_mmshare_version>
43012

> <i_f3d_flags>
0

> <s_epik_input>
W0NIM11jMW5jKFtjSF1zMSlbQ0gyXVtDSDJdW05IXUMoPU8pW05IXVtDQEhdKFtDSDNdKVtDQEBIXTJbQ0gyXVtDSDJdW0NIMl1PMg==

> <s_epik_cmdline>
J2VwaWtfcHl0aG9uJywgJy1waCcsICc3LjAnLCAnLXRuJywgJzgnLCAnLW1hJywgJzIwMCcsICctbWV0YWxfYmluZGluZycsICctaW1hZScsICc8aW5maWxlLm1hZT4nLCAnLW9tYWUnLCAnPG91dGZpbGUubWFlPic=

> <r_epik_Ionization_Penalty>
0.00195486

> <r_epik_Ionization_Penalty_Charging>
0

> <r_epik_Ionization_Penalty_Neutral>
0.00195486

> <r_epik_State_Penalty>
0.00129472

> <r_epik_Charging_Adjusted_Penalty>
0.00129472

> <i_epik_Tot_Q>
0

> <i_epik_Tot_abs_Q>
0

> <r_epik_Metal_State_Penalty>
-0

> <b_epik_Metal_Only>
0

> <s_lp_Force_Field>
OPLS_2005

> <r_lp_Energy>
10.4909

> <b_lp_Chiralities_Consistent>
1

> <s_lp_Variant>
AV-unprocessed.smi:1941-1

> <Gold.Version>
5.8.1

> <Gold.Id.Protein>
6NUR|6NUR_protein|mol2

> <Gold.PLP.Fitness>
45.2340

> <Gold.PLP.PLP>
-32.2838

> <Gold.PLP.part.hbond>
-5.3113

> <Gold.PLP.part.metal>
0.0000

> <Gold.PLP.part.buried>
-2.9071

> <Gold.PLP.part.nonpolar>
-24.0051

> <Gold.PLP.part.repulsive>
0.3052

> <Gold.PLP.ligand.clash>
0.0000

> <Gold.PLP.ligand.torsion>
0.4927

> <Gold.PLP.Chemscore.Hbond>
3.6296

> <Gold.PLP.Chemscore.CHOScore>
1.0000

> <Gold.PLP.Chemscore.Metal>
0.0000

> <Gold.Chemscore.Hbonds>
donor molecule, donor type, donor heavy atom, donor atom, acceptor molecule, acceptor atom, score
      L1  H     7    27       P1  7948  0.65
      L1  H    10    28       P1  7948  1.00
      P1  H  7989  7998       L1    17  0.88
      P1  H 10752 10763       L1     9  0.65
      L1  C    18    40       P1 10747  1.00

> <Gold.PLP.Chemscore.Internal.Correction>
0.0466

> <Gold.Rescore>
     Score         DG    S(hbond)    S(metal)    S(lipo)     H(rot)  DE(clash)    DE(int)     intcor
     13.72     -15.64       2.04        0.00      65.60       1.69       0.11       1.80       ----

> <Gold.Chemscore.Fitness>
13.7241

> <Gold.Chemscore.DG>
-15.6362

> <Gold.Chemscore.ZeroCoef>
-5.4800

> <Gold.Chemscore.Hbond>
2.0400

> <Gold.Chemscore.Metal>
0.0000

> <Gold.Chemscore.Lipo>
65.5971

> <Gold.Chemscore.Internal_Hbond>
0.0000

> <Gold.Chemscore.DEClash>
0.1112

> <Gold.Chemscore.DEInternal>
1.8008

> <Gold.Chemscore.Rot>
1.6923

> <Gold.Chemscore.Internal.Correction>
   9.000000E+99

> <Gold.Chemscore.Hbonds>
donor molecule, donor type, donor heavy atom, donor atom, acceptor molecule, acceptor atom, score
      L1  H     7    27       P1  7948  0.12
      L1  H    10    28       P1  7948  0.30
      P1  H  7989  7998       L1    17  0.30
      P1  H 10752 10763       L1     9  0.06

> <Gold.Chemscore.Hbond.Weighted>
-6.8136

> <Gold.Chemscore.Metal.Weighted>
-0.0000

> <Gold.Chemscore.Lipo.Weighted>
-7.6749

> <Gold.Chemscore.Internal_Hbond.Weighted>
0.0000

> <Gold.Chemscore.DEClash.Weighted>
0.1112

> <Gold.Chemscore.DEInternal.Weighted>
1.8008

> <Gold.Chemscore.Rot.Weighted>
4.3323

> <Gold.Chemscore.Internal.Correction.Weighted>
   9.000000E+99

> <Gold.Protein.RotatedTorsions>
[ 6907 6896 6895 6894 ] final   91.98 input  -60.11 | X-H torsion
[ 7974 7965 7964 7962 ] final  -46.83 input  175.53 | X-H torsion
[ 8008 7997 7996 7995 ] final   18.70 input   59.86 | X-H torsion
[ 10167 10162 10161 10158 ] final  157.93 input  -65.29 | X-H torsion
[ 10718 10713 10712 10709 ] final  106.00 input   66.30 | X-H torsion
[ 10763 10752 10751 10750 ] final   73.58 input  -60.55 | X-H torsion
[ 11005 11000 10999 10996 ] final  -15.51 input  -57.11 | X-H torsion

> <Gold.Protein.ActiveResidues>
 VAL166  LYS551  ARG553  GLY616  TRP617  ASP618  TYR619  PRO620  LYS621  CYS622 
 ASP623  PHE694  ASN695  SER759  ASP760  ASP761  ALA762  ILE779  LEU786  VAL792 
 PHE793  MET794  SER795  GLU796  ALA797  LYS798  CYS799  TRP800  GLU811  SER814 

> <Gold.Protein.RotatedAtoms>
  152.5452  134.1573  159.8542 H   0  0  0  0  0  0  0  0  0  0  0  0  # atno 6907 bound_to 6896
  151.1594  133.4848  159.2602 H   0  0  0  0  0  0  0  0  0  0  0  0  # atno 6908 bound_to 6896
  151.1388  135.0180  159.8671 H   0  0  0  0  0  0  0  0  0  0  0  0  # atno 6909 bound_to 6896
  145.9679  140.7413  142.9425 H   0  0  0  0  0  0  0  0  0  0  0  0  # atno 7974 bound_to 7965
  154.9098  140.3012  155.5272 H   0  0  0  0  0  0  0  0  0  0  0  0  # atno 8008 bound_to 7997
  156.3015  140.2391  156.4071 H   0  0  0  0  0  0  0  0  0  0  0  0  # atno 8009 bound_to 7997
  154.8437  140.0412  157.1547 H   0  0  0  0  0  0  0  0  0  0  0  0  # atno 8010 bound_to 7997
  139.4825  144.4871  151.8361 H   0  0  0  0  0  0  0  0  0  0  0  0  # atno 10167 bound_to 10162
  157.6684  131.0841  150.5942 H   0  0  0  0  0  0  0  0  0  0  0  0  # atno 10718 bound_to 10713
  153.0531  135.5057  154.7915 H   0  0  0  0  0  0  0  0  0  0  0  0  # atno 10763 bound_to 10752
  154.6762  135.2961  154.9677 H   0  0  0  0  0  0  0  0  0  0  0  0  # atno 10764 bound_to 10752
  154.0479  135.6708  153.4850 H   0  0  0  0  0  0  0  0  0  0  0  0  # atno 10765 bound_to 10752
  140.7973  133.8241  155.9436 H   0  0  0  0  0  0  0  0  0  0  0  0  # atno 11005 bound_to 11000
  144.6830  140.2699  143.7307 LP  0  0  0  0  0  0  0  0  0  0  0  0  # atno 17320 bound_to 7965
  145.7948  139.1941  143.2082 LP  0  0  0  0  0  0  0  0  0  0  0  0  # atno 17321 bound_to 7965
  140.4352  144.2061  150.5889 LP  0  0  0  0  0  0  0  0  0  0  0  0  # atno 17342 bound_to 10162
  140.4739  143.2403  151.9051 LP  0  0  0  0  0  0  0  0  0  0  0  0  # atno 17343 bound_to 10162
  156.6242  130.4414  149.5811 LP  0  0  0  0  0  0  0  0  0  0  0  0  # atno 17370 bound_to 10713
  156.2332  130.6807  151.1484 LP  0  0  0  0  0  0  0  0  0  0  0  0  # atno 17371 bound_to 10713
  140.9330  134.1998  157.4851 LP  0  0  0  0  0  0  0  0  0  0  0  0  # atno 17394 bound_to 11000
  139.8725  134.9840  156.5223 LP  0  0  0  0  0  0  0  0  0  0  0  0  # atno 17395 bound_to 11000

$$$$
