AV-unprocessed.smi:496|AV-procd|sdf|2719|dock1
  -GOLD-   2262023163D 1   1.00000     0.00000
 Structure written by MMmdl.
 43 45  0  0  0  0  0  0  0  0  2 V2000
  150.3057  139.0283  154.3722 C   0  0  0  0  0  0  0  0  0  0  0  0
  150.9365  140.2174  154.8142 O   0  0  0  0  0  0  0  0  0  0  0  0
  150.0062  141.2153  155.1959 C   0  0  0  0  0  0  0  0  0  0  0  0
  149.3055  140.7675  156.4837 C   0  0  0  0  0  0  0  0  0  0  0  0
  150.2620  140.5326  157.5737 N   0  0  0  0  0  0  0  0  0  0  0  0
  150.5910  139.3801  158.2266 C   0  0  0  0  0  0  0  0  0  0  0  0
  150.0034  138.0224  157.9839 C   0  0  1  0  0  0  0  0  0  0  0  0
  151.0765  136.9712  157.6573 C   0  0  0  0  0  0  0  0  0  0  0  0
  149.2245  137.5927  159.1411 N   0  0  0  0  0  0  0  0  0  0  0  0
  148.7962  136.3437  159.3828 C   0  0  0  0  0  0  0  0  0  0  0  0
  149.0471  135.3832  158.6555 O   0  0  0  0  0  0  0  0  0  0  0  0
  147.9810  136.1725  160.5998 C   0  0  0  0  0  0  0  0  0  0  0  0
  147.4858  135.0388  161.1861 C   0  0  0  0  0  0  0  0  0  0  0  0
  146.7635  135.4580  162.3374 C   0  0  0  0  0  0  0  0  0  0  0  0
  146.8687  136.8188  162.3722 C   0  0  0  0  0  0  0  0  0  0  0  0
  147.6073  137.2703  161.3221 O   0  0  0  0  0  0  0  0  0  0  0  0
  151.5187  139.7089  159.1722 N   0  3  0  0  0  0  0  0  0  0  0  0
  151.8051  141.0727  159.1029 C   0  0  0  0  0  0  0  0  0  0  0  0
  152.6827  141.8587  159.8433 C   0  0  0  0  0  0  0  0  0  0  0  0
  152.7366  143.2290  159.5134 C   0  0  0  0  0  0  0  0  0  0  0  0
  151.9380  143.7684  158.4839 C   0  0  0  0  0  0  0  0  0  0  0  0
  151.0508  142.9614  157.7414 C   0  0  0  0  0  0  0  0  0  0  0  0
  151.0031  141.6081  158.0751 C   0  0  0  0  0  0  0  0  0  0  0  0
  151.0619  138.2963  154.0888 H   0  0  0  0  0  0  0  0  0  0  0  0
  149.6762  139.2162  153.5014 H   0  0  0  0  0  0  0  0  0  0  0  0
  149.6918  138.5904  155.1604 H   0  0  0  0  0  0  0  0  0  0  0  0
  150.5214  142.1632  155.3606 H   0  0  0  0  0  0  0  0  0  0  0  0
  149.2755  141.3688  154.4002 H   0  0  0  0  0  0  0  0  0  0  0  0
  148.5673  141.5016  156.8077 H   0  0  0  0  0  0  0  0  0  0  0  0
  148.7589  139.8406  156.3104 H   0  0  0  0  0  0  0  0  0  0  0  0
  149.3588  138.1085  157.1076 H   0  0  0  0  0  0  0  0  0  0  0  0
  151.6589  137.2637  156.7828 H   0  0  0  0  0  0  0  0  0  0  0  0
  150.6204  136.0054  157.4374 H   0  0  0  0  0  0  0  0  0  0  0  0
  151.7678  136.8270  158.4884 H   0  0  0  0  0  0  0  0  0  0  0  0
  148.9660  138.3083  159.8050 H   0  0  0  0  0  0  0  0  0  0  0  0
  147.6267  134.0289  160.8289 H   0  0  0  0  0  0  0  0  0  0  0  0
  146.2340  134.8419  163.0492 H   0  0  0  0  0  0  0  0  0  0  0  0
  146.4988  137.5831  163.0396 H   0  0  0  0  0  0  0  0  0  0  0  0
  153.2964  141.4478  160.6315 H   0  0  0  0  0  0  0  0  0  0  0  0
  153.4046  143.8789  160.0600 H   0  0  0  0  0  0  0  0  0  0  0  0
  152.0070  144.8231  158.2587 H   0  0  0  0  0  0  0  0  0  0  0  0
  150.4453  143.3840  156.9532 H   0  0  0  0  0  0  0  0  0  0  0  0
  151.9296  139.0427  159.8131 H   0  0  0  0  0  0  0  0  0  0  0  0
  1  2  1  0  0  0  0
  1 24  1  0  0  0  0
  1 25  1  0  0  0  0
  1 26  1  0  0  0  0
  2  3  1  0  0  0  0
  3  4  1  0  0  0  0
  3 27  1  0  0  0  0
  3 28  1  0  0  0  0
  4  5  1  0  0  0  0
  4 29  1  0  0  0  0
  4 30  1  0  0  0  0
  5 23  1  0  0  0  0
  5  6  1  0  0  0  0
  6  7  1  0  0  0  0
  6 17  2  0  0  0  0
  7  8  1  0  0  0  0
  7  9  1  0  0  0  0
  7 31  1  0  0  0  0
  8 32  1  0  0  0  0
  8 33  1  0  0  0  0
  8 34  1  0  0  0  0
  9 10  1  0  0  0  0
  9 35  1  0  0  0  0
 10 11  2  0  0  0  0
 10 12  1  0  0  0  0
 12 16  1  0  0  0  0
 12 13  2  0  0  0  0
 13 14  1  0  0  0  0
 13 36  1  0  0  0  0
 14 15  2  0  0  0  0
 14 37  1  0  0  0  0
 15 16  1  0  0  0  0
 15 38  1  0  0  0  0
 17 18  1  0  0  0  0
 17 43  1  0  0  0  0
 18 23  2  0  0  0  0
 18 19  1  0  0  0  0
 19 20  2  0  0  0  0
 19 39  1  0  0  0  0
 20 21  1  0  0  0  0
 20 40  1  0  0  0  0
 21 22  2  0  0  0  0
 21 41  1  0  0  0  0
 22 23  1  0  0  0  0
 22 42  1  0  0  0  0
M  CHG  1  17   1
M  END
> <s_m_source_file>
AV-unprocessed.smi

> <i_m_source_file_index>
496

> <i_lp_mmshare_version>
43012

> <i_f3d_flags>
0

> <s_epik_input>
W2NIXTFbY0hdW2NIXVtjSF1jKGMxMiluKFtDSDJdW0NIMl1PW0NIM10pYyhuMilbQ0BIXShbQ0gzXSlbTkhdQyg9TyljM1tjSF1bY0hdW2NIXW8z

> <s_epik_cmdline>
J2VwaWtfcHl0aG9uJywgJy1waCcsICc3LjAnLCAnLXRuJywgJzgnLCAnLW1hJywgJzIwMCcsICctbWV0YWxfYmluZGluZycsICctaW1hZScsICc8aW5maWxlLm1hZT4nLCAnLW9tYWUnLCAnPG91dGZpbGUubWFlPic=

> <r_epik_Ionization_Penalty>
1.02088

> <r_epik_Ionization_Penalty_Charging>
1.02086

> <r_epik_Ionization_Penalty_Neutral>
2.09263e-05

> <r_epik_State_Penalty>
1.07114

> <r_epik_Charging_Adjusted_Penalty>
2.092

> <i_epik_Tot_Q>
1

> <i_epik_Tot_abs_Q>
1

> <r_epik_Metal_State_Penalty>
1.19829

> <b_epik_Metal_Only>
0

> <s_lp_Force_Field>
OPLS_2005

> <r_lp_Energy>
14.6869

> <b_lp_Chiralities_Consistent>
1

> <s_lp_Variant>
AV-unprocessed.smi:496-4

> <Gold.Version>
5.8.1

> <Gold.Id.Protein>
6NUR|6NUR_protein|mol2

> <Gold.PLP.Fitness>
58.3541

> <Gold.PLP.PLP>
-47.5270

> <Gold.PLP.part.hbond>
-4.0000

> <Gold.PLP.part.metal>
0.0000

> <Gold.PLP.part.buried>
-6.0967

> <Gold.PLP.part.nonpolar>
-38.0214

> <Gold.PLP.part.repulsive>
0.4740

> <Gold.PLP.ligand.clash>
0.0000

> <Gold.PLP.ligand.torsion>
0.3274

> <Gold.PLP.Chemscore.Hbond>
3.7520

> <Gold.PLP.Chemscore.CHOScore>
0.0000

> <Gold.PLP.Chemscore.Metal>
0.0000

> <Gold.Chemscore.Hbonds>
donor molecule, donor type, donor heavy atom, donor atom, acceptor molecule, acceptor atom, score
      P1  H  6896  6907       L1    11  1.00
      P1  H  6931  6943       L1    16  0.91
      P1  H  6934  6947       L1    16  0.85
      P1  H  7989  7998       L1     2  1.00

> <Gold.PLP.Chemscore.Internal.Correction>
0.2258

> <Gold.Rescore>
     Score         DG    S(hbond)    S(metal)    S(lipo)     H(rot)  DE(clash)    DE(int)     intcor
     22.13     -24.28       3.18        0.00     111.54       1.90       0.17       1.98       ----

> <Gold.Chemscore.Fitness>
22.1341

> <Gold.Chemscore.DG>
-24.2770

> <Gold.Chemscore.ZeroCoef>
-5.4800

> <Gold.Chemscore.Hbond>
3.1758

> <Gold.Chemscore.Metal>
0.0000

> <Gold.Chemscore.Lipo>
111.5441

> <Gold.Chemscore.Internal_Hbond>
0.0000

> <Gold.Chemscore.DEClash>
0.1676

> <Gold.Chemscore.DEInternal>
1.9752

> <Gold.Chemscore.Rot>
1.8988

> <Gold.Chemscore.Internal.Correction>
   9.000000E+99

> <Gold.Chemscore.Hbonds>
donor molecule, donor type, donor heavy atom, donor atom, acceptor molecule, acceptor atom, score
      P1  H  6896  6907       L1    11  0.42
      P1  H  6931  6943       L1    16  0.59
      P1  H  6934  6947       L1    16  0.67
      P1  H  7989  7998       L1     2  0.19

> <Gold.Chemscore.Hbond.Weighted>
-10.6071

> <Gold.Chemscore.Metal.Weighted>
-0.0000

> <Gold.Chemscore.Lipo.Weighted>
-13.0507

> <Gold.Chemscore.Internal_Hbond.Weighted>
0.0000

> <Gold.Chemscore.DEClash.Weighted>
0.1676

> <Gold.Chemscore.DEInternal.Weighted>
1.9752

> <Gold.Chemscore.Rot.Weighted>
4.8608

> <Gold.Chemscore.Internal.Correction.Weighted>
   9.000000E+99

> <Gold.Protein.RotatedTorsions>
[ 6907 6896 6895 6894 ] final  -75.16 input  -60.11 | X-H torsion
[ 7974 7965 7964 7962 ] final   78.83 input  175.53 | X-H torsion
[ 8008 7997 7996 7995 ] final  141.79 input   59.86 | X-H torsion
[ 10167 10162 10161 10158 ] final   82.95 input  -65.29 | X-H torsion
[ 10718 10713 10712 10709 ] final    1.88 input   66.30 | X-H torsion
[ 10763 10752 10751 10750 ] final  -66.71 input  -60.55 | X-H torsion
[ 11005 11000 10999 10996 ] final  125.23 input  -57.11 | X-H torsion

> <Gold.Protein.ActiveResidues>
 VAL166  LYS551  ARG553  GLY616  TRP617  ASP618  TYR619  PRO620  LYS621  CYS622 
 ASP623  PHE694  ASN695  SER759  ASP760  ASP761  ALA762  ILE779  LEU786  VAL792 
 PHE793  MET794  SER795  GLU796  ALA797  LYS798  CYS799  TRP800  GLU811  SER814 

> <Gold.Protein.RotatedAtoms>
  150.7068  134.4762  159.5448 H   0  0  0  0  0  0  0  0  0  0  0  0  # atno 6907 bound_to 6896
  152.2408  134.8227  160.0469 H   0  0  0  0  0  0  0  0  0  0  0  0  # atno 6908 bound_to 6896
  151.9009  133.3503  159.3867 H   0  0  0  0  0  0  0  0  0  0  0  0  # atno 6909 bound_to 6896
  145.6721  139.2500  143.1862 H   0  0  0  0  0  0  0  0  0  0  0  0  # atno 7974 bound_to 7965
  156.2960  140.2306  156.4623 H   0  0  0  0  0  0  0  0  0  0  0  0  # atno 8008 bound_to 7997
  154.8008  140.0448  157.1292 H   0  0  0  0  0  0  0  0  0  0  0  0  # atno 8009 bound_to 7997
  154.9536  140.3045  155.5067 H   0  0  0  0  0  0  0  0  0  0  0  0  # atno 8010 bound_to 7997
  139.9235  144.6198  150.8416 H   0  0  0  0  0  0  0  0  0  0  0  0  # atno 10167 bound_to 10162
  156.8547  130.5566  149.5667 H   0  0  0  0  0  0  0  0  0  0  0  0  # atno 10718 bound_to 10713
  154.3638  135.6110  153.5704 H   0  0  0  0  0  0  0  0  0  0  0  0  # atno 10763 bound_to 10752
  152.9792  135.5821  154.4602 H   0  0  0  0  0  0  0  0  0  0  0  0  # atno 10764 bound_to 10752
  154.4344  135.2848  155.1868 H   0  0  0  0  0  0  0  0  0  0  0  0  # atno 10765 bound_to 10752
  139.9396  134.9636  156.8527 H   0  0  0  0  0  0  0  0  0  0  0  0  # atno 11005 bound_to 11000
  146.1036  140.7514  142.9537 LP  0  0  0  0  0  0  0  0  0  0  0  0  # atno 17320 bound_to 7965
  144.7053  140.3827  143.7123 LP  0  0  0  0  0  0  0  0  0  0  0  0  # atno 17321 bound_to 7965
  140.7656  143.3280  151.2473 LP  0  0  0  0  0  0  0  0  0  0  0  0  # atno 17342 bound_to 10162
  139.6842  143.9803  152.2825 LP  0  0  0  0  0  0  0  0  0  0  0  0  # atno 17343 bound_to 10162
  156.0809  130.5819  150.9561 LP  0  0  0  0  0  0  0  0  0  0  0  0  # atno 17370 bound_to 10713
  157.6284  131.0923  150.8490 LP  0  0  0  0  0  0  0  0  0  0  0  0  # atno 17371 bound_to 10713
  140.5985  134.0194  155.7528 LP  0  0  0  0  0  0  0  0  0  0  0  0  # atno 17394 bound_to 11000
  141.1025  133.9745  157.3054 LP  0  0  0  0  0  0  0  0  0  0  0  0  # atno 17395 bound_to 11000

$$$$
