AV-unprocessed.smi:2834|AV-procd|sdf|10916|dock4
  -GOLD-   2272015363D 1   1.00000     0.00000
 Structure written by MMmdl.
 35 36  0  0  0  0  0  0  0  0  1 V2000
  146.0721  140.5130  156.8944 C   0  0  0  0  0  0  0  0  0  0  0  0
  146.2570  140.9992  155.4417 C   0  0  1  0  0  0  0  0  0  0  0  0
  145.6571  140.0471  154.4971 N   0  0  0  0  0  0  0  0  0  0  0  0
  145.9008  138.7311  154.3853 C   0  0  0  0  0  0  0  0  0  0  0  0
  146.7003  138.1159  155.0907 O   0  0  0  0  0  0  0  0  0  0  0  0
  145.1582  138.1842  153.4090 N   0  0  0  0  0  0  0  0  0  0  0  0
  145.1339  136.8258  153.0038 C   0  0  0  0  0  0  0  0  0  0  0  0
  145.9039  135.7912  153.5958 C   0  0  0  0  0  0  0  0  0  0  0  0
  145.6731  134.6268  153.0088 N   0  0  0  0  0  0  0  0  0  0  0  0
  144.7600  134.8945  152.0424 N   0  0  0  0  0  0  0  0  0  0  0  0
  144.2724  133.8199  151.1970 C   0  0  0  0  0  0  0  0  0  0  0  0
  145.3001  132.6872  151.0379 C   0  0  0  0  0  0  0  0  0  0  0  0
  144.8245  131.7828  150.1826 F   0  0  0  0  0  0  0  0  0  0  0  0
  146.4520  133.1601  150.5611 F   0  0  0  0  0  0  0  0  0  0  0  0
  145.5212  132.0905  152.2097 F   0  0  0  0  0  0  0  0  0  0  0  0
  144.4087  136.2296  152.0112 C   0  0  0  0  0  0  0  0  0  0  0  0
  145.7589  142.4249  155.2192 C   0  0  0  0  0  0  0  0  0  0  0  0
  146.5775  142.8887  154.0196 C   0  0  0  0  0  0  0  0  0  0  0  0
  147.8328  142.2320  154.1424 O   0  0  0  0  0  0  0  0  0  0  0  0
  147.7421  141.1663  155.0850 C   0  0  0  0  0  0  0  0  0  0  0  0
  146.5804  141.1703  157.6005 H   0  0  0  0  0  0  0  0  0  0  0  0
  146.4806  139.5109  157.0290 H   0  0  0  0  0  0  0  0  0  0  0  0
  145.0219  140.4855  157.1845 H   0  0  0  0  0  0  0  0  0  0  0  0
  144.9767  140.4386  153.8623 H   0  0  0  0  0  0  0  0  0  0  0  0
  144.5424  138.8045  152.9040 H   0  0  0  0  0  0  0  0  0  0  0  0
  146.6077  135.8443  154.4135 H   0  0  0  0  0  0  0  0  0  0  0  0
  143.3505  133.4325  151.6330 H   0  0  0  0  0  0  0  0  0  0  0  0
  144.0079  134.2312  150.2216 H   0  0  0  0  0  0  0  0  0  0  0  0
  143.6911  136.6167  151.3029 H   0  0  0  0  0  0  0  0  0  0  0  0
  144.6850  142.5129  155.0559 H   0  0  0  0  0  0  0  0  0  0  0  0
  146.0071  143.0446  156.0821 H   0  0  0  0  0  0  0  0  0  0  0  0
  146.1048  142.5689  153.0901 H   0  0  0  0  0  0  0  0  0  0  0  0
  146.6938  143.9721  153.9853 H   0  0  0  0  0  0  0  0  0  0  0  0
  148.3196  141.4609  155.9622 H   0  0  0  0  0  0  0  0  0  0  0  0
  148.1935  140.2536  154.6941 H   0  0  0  0  0  0  0  0  0  0  0  0
  1  2  1  0  0  0  0
  1 21  1  0  0  0  0
  1 22  1  0  0  0  0
  1 23  1  0  0  0  0
  2 20  1  0  0  0  0
  2  3  1  0  0  0  0
  2 17  1  0  0  0  0
  3  4  1  0  0  0  0
  3 24  1  0  0  0  0
  4  5  2  0  0  0  0
  4  6  1  0  0  0  0
  6  7  1  0  0  0  0
  6 25  1  0  0  0  0
  7 16  2  0  0  0  0
  7  8  1  0  0  0  0
  8  9  2  0  0  0  0
  8 26  1  0  0  0  0
  9 10  1  0  0  0  0
 10 11  1  0  0  0  0
 10 16  1  0  0  0  0
 11 12  1  0  0  0  0
 11 27  1  0  0  0  0
 11 28  1  0  0  0  0
 12 13  1  0  0  0  0
 12 14  1  0  0  0  0
 12 15  1  0  0  0  0
 16 29  1  0  0  0  0
 17 18  1  0  0  0  0
 17 30  1  0  0  0  0
 17 31  1  0  0  0  0
 18 19  1  0  0  0  0
 18 32  1  0  0  0  0
 18 33  1  0  0  0  0
 19 20  1  0  0  0  0
 20 34  1  0  0  0  0
 20 35  1  0  0  0  0
M  END
> <s_m_source_file>
AV-unprocessed.smi

> <i_m_source_file_index>
2834

> <i_lp_mmshare_version>
43012

> <i_f3d_flags>
0

> <s_epik_input>
W0NIMl0xT1tDSDJdW0NIMl1bQ0BAXTEoW0NIM10pW05IXUMoPU8pW05IXWMyW2NIXW5uKFtjSF0yKVtDSDJdQyhGKShGKUY=

> <s_epik_cmdline>
J2VwaWtfcHl0aG9uJywgJy1waCcsICc3LjAnLCAnLXRuJywgJzgnLCAnLW1hJywgJzIwMCcsICctbWV0YWxfYmluZGluZycsICctaW1hZScsICc8aW5maWxlLm1hZT4nLCAnLW9tYWUnLCAnPG91dGZpbGUubWFlPic=

> <r_lp_tautomer_probability>
1

> <r_epik_Ionization_Penalty>
3.3002e-05

> <r_epik_Ionization_Penalty_Charging>
0

> <r_epik_Ionization_Penalty_Neutral>
3.3002e-05

> <r_epik_State_Penalty>
-0

> <r_epik_Charging_Adjusted_Penalty>
0

> <i_epik_Tot_Q>
0

> <i_epik_Tot_abs_Q>
0

> <r_epik_Metal_State_Penalty>
-0

> <b_epik_Metal_Only>
0

> <s_lp_Force_Field>
OPLS_2005

> <r_lp_Energy>
24.6434

> <b_lp_Chiralities_Consistent>
1

> <s_lp_Variant>
AV-unprocessed.smi:2834-1

> <Gold.Version>
5.8.1

> <Gold.Id.Protein>
6NUR|6NUR_protein|mol2

> <Gold.PLP.Fitness>
36.8471

> <Gold.PLP.PLP>
-28.6895

> <Gold.PLP.part.hbond>
-2.5083

> <Gold.PLP.part.metal>
0.0000

> <Gold.PLP.part.buried>
-5.8459

> <Gold.PLP.part.nonpolar>
-21.2824

> <Gold.PLP.part.repulsive>
0.8027

> <Gold.PLP.ligand.clash>
0.0000

> <Gold.PLP.ligand.torsion>
0.4291

> <Gold.PLP.Chemscore.Hbond>
2.0000

> <Gold.PLP.Chemscore.CHOScore>
0.9857

> <Gold.PLP.Chemscore.Metal>
0.0000

> <Gold.Chemscore.Hbonds>
donor molecule, donor type, donor heavy atom, donor atom, acceptor molecule, acceptor atom, score
      L1  H     3    24       P1 10175  1.00
      L1  H     6    25       P1 10175  1.00
      L1  C    16    29       P1 10171  1.00

> <Gold.PLP.Chemscore.Internal.Correction>
0.0588

> <Gold.Rescore>
     Score         DG    S(hbond)    S(metal)    S(lipo)     H(rot)  DE(clash)    DE(int)     intcor
      9.27     -13.66       1.99        0.00      42.49       1.34       0.00       4.39       ----

> <Gold.Chemscore.Fitness>
9.2674

> <Gold.Chemscore.DG>
-13.6568

> <Gold.Chemscore.ZeroCoef>
-5.4800

> <Gold.Chemscore.Hbond>
1.9881

> <Gold.Chemscore.Metal>
0.0000

> <Gold.Chemscore.Lipo>
42.4886

> <Gold.Chemscore.Internal_Hbond>
0.0000

> <Gold.Chemscore.DEClash>
0.0033

> <Gold.Chemscore.DEInternal>
4.3861

> <Gold.Chemscore.Rot>
1.3417

> <Gold.Chemscore.Internal.Correction>
   9.000000E+99

> <Gold.Chemscore.Hbonds>
donor molecule, donor type, donor heavy atom, donor atom, acceptor molecule, acceptor atom, score
      L1  H     3    24       P1 10175  0.99
      L1  H     6    25       P1 10175  0.99

> <Gold.Chemscore.Hbond.Weighted>
-6.6403

> <Gold.Chemscore.Metal.Weighted>
-0.0000

> <Gold.Chemscore.Lipo.Weighted>
-4.9712

> <Gold.Chemscore.Internal_Hbond.Weighted>
0.0000

> <Gold.Chemscore.DEClash.Weighted>
0.0033

> <Gold.Chemscore.DEInternal.Weighted>
4.3861

> <Gold.Chemscore.Rot.Weighted>
3.4347

> <Gold.Chemscore.Internal.Correction.Weighted>
   9.000000E+99

> <Gold.Protein.RotatedTorsions>
[ 6907 6896 6895 6894 ] final   93.13 input  -60.11 | X-H torsion
[ 7974 7965 7964 7962 ] final   69.69 input  175.53 | X-H torsion
[ 8008 7997 7996 7995 ] final  143.78 input   59.86 | X-H torsion
[ 10167 10162 10161 10158 ] final  105.32 input  -65.29 | X-H torsion
[ 10718 10713 10712 10709 ] final  -94.76 input   66.30 | X-H torsion
[ 10763 10752 10751 10750 ] final  172.37 input  -60.55 | X-H torsion
[ 11005 11000 10999 10996 ] final   50.65 input  -57.11 | X-H torsion

> <Gold.Protein.ActiveResidues>
 VAL166  LYS551  ARG553  GLY616  TRP617  ASP618  TYR619  PRO620  LYS621  CYS622 
 ASP623  PHE694  ASN695  SER759  ASP760  ASP761  ALA762  ILE779  LEU786  VAL792 
 PHE793  MET794  SER795  GLU796  ALA797  LYS798  CYS799  TRP800  GLU811  SER814 

> <Gold.Protein.RotatedAtoms>
  152.5453  134.1396  159.8472 H   0  0  0  0  0  0  0  0  0  0  0  0  # atno 6907 bound_to 6896
  151.1433  133.4949  159.2604 H   0  0  0  0  0  0  0  0  0  0  0  0  # atno 6908 bound_to 6896
  151.1550  135.0256  159.8740 H   0  0  0  0  0  0  0  0  0  0  0  0  # atno 6909 bound_to 6896
  145.7873  139.2917  143.1230 H   0  0  0  0  0  0  0  0  0  0  0  0  # atno 7974 bound_to 7965
  156.2923  140.2253  156.4947 H   0  0  0  0  0  0  0  0  0  0  0  0  # atno 8008 bound_to 7997
  154.7741  140.0464  157.1096 H   0  0  0  0  0  0  0  0  0  0  0  0  # atno 8009 bound_to 7997
  154.9838  140.3081  155.4938 H   0  0  0  0  0  0  0  0  0  0  0  0  # atno 8010 bound_to 7997
  139.7103  144.7079  151.1039 H   0  0  0  0  0  0  0  0  0  0  0  0  # atno 10167 bound_to 10162
  156.0032  130.5081  150.5974 H   0  0  0  0  0  0  0  0  0  0  0  0  # atno 10718 bound_to 10713
  154.4251  135.2758  155.1950 H   0  0  0  0  0  0  0  0  0  0  0  0  # atno 10763 bound_to 10752
  154.3879  135.6073  153.5830 H   0  0  0  0  0  0  0  0  0  0  0  0  # atno 10764 bound_to 10752
  152.9834  135.5896  154.4553 H   0  0  0  0  0  0  0  0  0  0  0  0  # atno 10765 bound_to 10752
  140.0999  134.5095  155.8772 H   0  0  0  0  0  0  0  0  0  0  0  0  # atno 11005 bound_to 11000
  146.0012  140.8518  143.0017 LP  0  0  0  0  0  0  0  0  0  0  0  0  # atno 17320 bound_to 7965
  144.6787  140.2355  143.7350 LP  0  0  0  0  0  0  0  0  0  0  0  0  # atno 17321 bound_to 7965
  140.7731  143.5303  150.9432 LP  0  0  0  0  0  0  0  0  0  0  0  0  # atno 17342 bound_to 10162
  139.8987  143.6863  152.3134 LP  0  0  0  0  0  0  0  0  0  0  0  0  # atno 17343 bound_to 10162
  157.3829  131.0783  151.1461 LP  0  0  0  0  0  0  0  0  0  0  0  0  # atno 17370 bound_to 10713
  157.2178  130.6467  149.5799 LP  0  0  0  0  0  0  0  0  0  0  0  0  # atno 17371 bound_to 10713
  141.2103  133.6693  156.6497 LP  0  0  0  0  0  0  0  0  0  0  0  0  # atno 17394 bound_to 11000
  140.3234  134.7989  157.4270 LP  0  0  0  0  0  0  0  0  0  0  0  0  # atno 17395 bound_to 11000

$$$$
