AV-unprocessed.smi:3156|AV-procd|sdf|12032|dock2
  -GOLD-   2272017453D 1   1.00000     0.00000
 Structure written by MMmdl.
 41 42  0  0  0  0  0  0  0  0  2 V2000
  148.8475  141.0504  156.0772 C   0  0  0  0  0  0  0  0  0  0  0  0
  150.2857  141.4530  155.7043 C   0  0  1  0  0  0  0  0  0  0  0  0
  150.7359  142.5134  156.6333 N   0  3  0  0  0  0  0  0  0  0  0  0
  150.6655  142.1594  158.0666 C   0  0  0  0  0  0  0  0  0  0  0  0
  151.5704  143.0665  158.9134 C   0  0  1  0  0  0  0  0  0  0  0  0
  150.9981  144.4909  159.0712 C   0  0  0  0  0  0  0  0  0  0  0  0
  151.8802  145.3274  160.0052 C   0  0  0  0  0  0  0  0  0  0  0  0
  152.0837  144.5824  161.3285 C   0  0  0  0  0  0  0  0  0  0  0  0
  152.5933  143.1568  161.0651 C   0  0  0  0  0  0  0  0  0  0  0  0
  151.6911  142.4699  160.2024 O   0  0  0  0  0  0  0  0  0  0  0  0
  151.2740  140.2547  155.7257 C   0  0  2  0  0  0  0  0  0  0  0  0
  150.8706  139.1210  154.7634 C   0  0  0  0  0  0  0  0  0  0  0  0
  151.4582  139.7210  157.0693 N   0  0  0  0  0  0  0  0  0  0  0  0
  150.5143  139.1528  157.9003 C   0  0  0  0  0  0  0  0  0  0  0  0
  151.1462  138.8084  159.0607 C   0  0  0  0  0  0  0  0  0  0  0  0
  152.4930  139.2125  158.8455 C   0  0  0  0  0  0  0  0  0  0  0  0
  152.6767  139.7591  157.6547 N   0  0  0  0  0  0  0  0  0  0  0  0
  148.4236  140.3454  155.3619 H   0  0  0  0  0  0  0  0  0  0  0  0
  148.1907  141.9207  156.0926 H   0  0  0  0  0  0  0  0  0  0  0  0
  148.8091  140.5875  157.0639 H   0  0  0  0  0  0  0  0  0  0  0  0
  150.2500  141.8599  154.6918 H   0  0  0  0  0  0  0  0  0  0  0  0
  151.6974  142.7344  156.4166 H   0  0  0  0  0  0  0  0  0  0  0  0
  149.6364  142.2172  158.4226 H   0  0  0  0  0  0  0  0  0  0  0  0
  150.9812  141.1210  158.1763 H   0  0  0  0  0  0  0  0  0  0  0  0
  152.5600  143.1090  158.4545 H   0  0  0  0  0  0  0  0  0  0  0  0
  150.9183  144.9826  158.1013 H   0  0  0  0  0  0  0  0  0  0  0  0
  149.9871  144.4384  159.4778 H   0  0  0  0  0  0  0  0  0  0  0  0
  152.8470  145.5091  159.5337 H   0  0  0  0  0  0  0  0  0  0  0  0
  151.4287  146.3039  160.1833 H   0  0  0  0  0  0  0  0  0  0  0  0
  152.7858  145.1240  161.9630 H   0  0  0  0  0  0  0  0  0  0  0  0
  151.1402  144.5373  161.8737 H   0  0  0  0  0  0  0  0  0  0  0  0
  153.5917  143.1753  160.6253 H   0  0  0  0  0  0  0  0  0  0  0  0
  152.6703  142.6074  162.0036 H   0  0  0  0  0  0  0  0  0  0  0  0
  152.2496  140.6222  155.4030 H   0  0  0  0  0  0  0  0  0  0  0  0
  150.8815  139.4530  153.7252 H   0  0  0  0  0  0  0  0  0  0  0  0
  149.8702  138.7465  154.9830 H   0  0  0  0  0  0  0  0  0  0  0  0
  151.5621  138.2810  154.8383 H   0  0  0  0  0  0  0  0  0  0  0  0
  149.4824  139.0420  157.6009 H   0  0  0  0  0  0  0  0  0  0  0  0
  150.7119  138.3411  159.9323 H   0  0  0  0  0  0  0  0  0  0  0  0
  153.3366  139.1274  159.5145 H   0  0  0  0  0  0  0  0  0  0  0  0
  150.1736  143.3366  156.4715 H   0  0  0  0  0  0  0  0  0  0  0  0
  1  2  1  0  0  0  0
  1 18  1  0  0  0  0
  1 19  1  0  0  0  0
  1 20  1  0  0  0  0
  2  3  1  0  0  0  0
  2 11  1  0  0  0  0
  2 21  1  0  0  0  0
  3  4  1  0  0  0  0
  3 22  1  0  0  0  0
  3 41  1  0  0  0  0
  4  5  1  0  0  0  0
  4 23  1  0  0  0  0
  4 24  1  0  0  0  0
  5 10  1  0  0  0  0
  5  6  1  0  0  0  0
  5 25  1  0  0  0  0
  6  7  1  0  0  0  0
  6 26  1  0  0  0  0
  6 27  1  0  0  0  0
  7  8  1  0  0  0  0
  7 28  1  0  0  0  0
  7 29  1  0  0  0  0
  8  9  1  0  0  0  0
  8 30  1  0  0  0  0
  8 31  1  0  0  0  0
  9 10  1  0  0  0  0
  9 32  1  0  0  0  0
  9 33  1  0  0  0  0
 11 12  1  0  0  0  0
 11 13  1  0  0  0  0
 11 34  1  0  0  0  0
 12 35  1  0  0  0  0
 12 36  1  0  0  0  0
 12 37  1  0  0  0  0
 13 17  1  0  0  0  0
 13 14  1  0  0  0  0
 14 15  2  0  0  0  0
 14 38  1  0  0  0  0
 15 16  1  0  0  0  0
 15 39  1  0  0  0  0
 16 17  2  0  0  0  0
 16 40  1  0  0  0  0
M  CHG  1   3   1
M  END
> <s_m_source_file>
AV-unprocessed.smi

> <i_m_source_file_index>
3156

> <i_lp_mmshare_version>
43012

> <i_f3d_flags>
0

> <s_epik_input>
bjFbY0hdW2NIXVtjSF1uMVtDQEBIXShbQ0gzXSlbQ0BIXShbQ0gzXSlbTkhdW0NIMl1bQ0BASF0yW0NIMl1bQ0gyXVtDSDJdW0NIMl1PMg==

> <s_epik_cmdline>
J2VwaWtfcHl0aG9uJywgJy1waCcsICc3LjAnLCAnLXRuJywgJzgnLCAnLW1hJywgJzIwMCcsICctbWV0YWxfYmluZGluZycsICctaW1hZScsICc8aW5maWxlLm1hZT4nLCAnLW9tYWUnLCAnPG91dGZpbGUubWFlPic=

> <r_lp_tautomer_probability>
1

> <r_epik_Ionization_Penalty>
0.00658015

> <r_epik_Ionization_Penalty_Charging>
0.00656881

> <r_epik_Ionization_Penalty_Neutral>
1.13431e-05

> <r_epik_State_Penalty>
0.0048654

> <r_epik_Charging_Adjusted_Penalty>
0.0114342

> <i_epik_Tot_Q>
1

> <i_epik_Tot_abs_Q>
1

> <r_epik_Metal_State_Penalty>
-0

> <b_epik_Metal_Only>
0

> <s_lp_Force_Field>
OPLS_2005

> <r_lp_Energy>
19.0125

> <b_lp_Chiralities_Consistent>
1

> <s_lp_Variant>
AV-unprocessed.smi:3156-4

> <Gold.Version>
5.8.1

> <Gold.Id.Protein>
6NUR|6NUR_protein|mol2

> <Gold.PLP.Fitness>
45.9699

> <Gold.PLP.PLP>
-37.3658

> <Gold.PLP.part.hbond>
-2.3652

> <Gold.PLP.part.metal>
0.0000

> <Gold.PLP.part.buried>
-3.3989

> <Gold.PLP.part.nonpolar>
-30.0472

> <Gold.PLP.part.repulsive>
0.0756

> <Gold.PLP.ligand.clash>
0.0000

> <Gold.PLP.ligand.torsion>
0.2405

> <Gold.PLP.Chemscore.Hbond>
3.0000

> <Gold.PLP.Chemscore.CHOScore>
0.0000

> <Gold.PLP.Chemscore.Metal>
0.0000

> <Gold.Chemscore.Hbonds>
donor molecule, donor type, donor heavy atom, donor atom, acceptor molecule, acceptor atom, score
      L1  H     3    41       P1  8028  1.89
      P1  H  7997  8008       L1    17  1.00

> <Gold.PLP.Chemscore.Internal.Correction>
0.0850

> <Gold.Rescore>
     Score         DG    S(hbond)    S(metal)    S(lipo)     H(rot)  DE(clash)    DE(int)     intcor
     18.05     -19.74       1.83        0.00     104.50       1.59       0.13       1.57       ----

> <Gold.Chemscore.Fitness>
18.0461

> <Gold.Chemscore.DG>
-19.7398

> <Gold.Chemscore.ZeroCoef>
-5.4800

> <Gold.Chemscore.Hbond>
1.8305

> <Gold.Chemscore.Metal>
0.0000

> <Gold.Chemscore.Lipo>
104.4987

> <Gold.Chemscore.Internal_Hbond>
0.0000

> <Gold.Chemscore.DEClash>
0.1267

> <Gold.Chemscore.DEInternal>
1.5670

> <Gold.Chemscore.Rot>
1.5938

> <Gold.Chemscore.Internal.Correction>
   9.000000E+99

> <Gold.Chemscore.Hbonds>
donor molecule, donor type, donor heavy atom, donor atom, acceptor molecule, acceptor atom, score
      L1  H     3    41       P1  8028  0.90
      P1  H  7997  8008       L1    17  0.97

> <Gold.Chemscore.Hbond.Weighted>
-6.1137

> <Gold.Chemscore.Metal.Weighted>
-0.0000

> <Gold.Chemscore.Lipo.Weighted>
-12.2263

> <Gold.Chemscore.Internal_Hbond.Weighted>
0.0000

> <Gold.Chemscore.DEClash.Weighted>
0.1267

> <Gold.Chemscore.DEInternal.Weighted>
1.5670

> <Gold.Chemscore.Rot.Weighted>
4.0802

> <Gold.Chemscore.Internal.Correction.Weighted>
   9.000000E+99

> <Gold.Protein.RotatedTorsions>
[ 6907 6896 6895 6894 ] final -136.01 input  -60.11 | X-H torsion
[ 7974 7965 7964 7962 ] final   62.68 input  175.53 | X-H torsion
[ 8008 7997 7996 7995 ] final  -72.51 input   59.86 | X-H torsion
[ 10167 10162 10161 10158 ] final   15.71 input  -65.29 | X-H torsion
[ 10718 10713 10712 10709 ] final -156.33 input   66.30 | X-H torsion
[ 10763 10752 10751 10750 ] final -151.32 input  -60.55 | X-H torsion
[ 11005 11000 10999 10996 ] final   41.53 input  -57.11 | X-H torsion

> <Gold.Protein.ActiveResidues>
 VAL166  LYS551  ARG553  GLY616  TRP617  ASP618  TYR619  PRO620  LYS621  CYS622 
 ASP623  PHE694  ASN695  SER759  ASP760  ASP761  ALA762  ILE779  LEU786  VAL792 
 PHE793  MET794  SER795  GLU796  ALA797  LYS798  CYS799  TRP800  GLU811  SER814 

> <Gold.Protein.RotatedAtoms>
  151.0048  133.6021  159.2690 H   0  0  0  0  0  0  0  0  0  0  0  0  # atno 6907 bound_to 6896
  151.3195  135.0814  159.9310 H   0  0  0  0  0  0  0  0  0  0  0  0  # atno 6908 bound_to 6896
  152.5284  133.9698  159.7811 H   0  0  0  0  0  0  0  0  0  0  0  0  # atno 6909 bound_to 6896
  145.8706  139.3375  143.0765 H   0  0  0  0  0  0  0  0  0  0  0  0  # atno 7974 bound_to 7965
  154.5172  140.0796  156.8103 H   0  0  0  0  0  0  0  0  0  0  0  0  # atno 8008 bound_to 7997
  155.3655  140.3420  155.4223 H   0  0  0  0  0  0  0  0  0  0  0  0  # atno 8009 bound_to 7997
  156.1641  140.1598  156.8550 H   0  0  0  0  0  0  0  0  0  0  0  0  # atno 8010 bound_to 7997
  140.5848  143.8910  150.6821 H   0  0  0  0  0  0  0  0  0  0  0  0  # atno 10167 bound_to 10162
  156.5250  130.8495  151.2696 H   0  0  0  0  0  0  0  0  0  0  0  0  # atno 10718 bound_to 10713
  154.8065  135.3263  154.7418 H   0  0  0  0  0  0  0  0  0  0  0  0  # atno 10763 bound_to 10752
  153.8075  135.6898  153.4850 H   0  0  0  0  0  0  0  0  0  0  0  0  # atno 10764 bound_to 10752
  153.1814  135.4585  154.9977 H   0  0  0  0  0  0  0  0  0  0  0  0  # atno 10765 bound_to 10752
  140.1825  134.4086  155.8192 H   0  0  0  0  0  0  0  0  0  0  0  0  # atno 11005 bound_to 11000
  145.9141  140.9160  143.0438 LP  0  0  0  0  0  0  0  0  0  0  0  0  # atno 17320 bound_to 7965
  144.6726  140.1200  143.7450 LP  0  0  0  0  0  0  0  0  0  0  0  0  # atno 17321 bound_to 7965
  140.2418  143.3658  152.1480 LP  0  0  0  0  0  0  0  0  0  0  0  0  # atno 17342 bound_to 10162
  139.5191  144.7015  151.5479 LP  0  0  0  0  0  0  0  0  0  0  0  0  # atno 17343 bound_to 10162
  157.7431  130.9904  150.2565 LP  0  0  0  0  0  0  0  0  0  0  0  0  # atno 17370 bound_to 10713
  156.3113  130.3772  149.7659 LP  0  0  0  0  0  0  0  0  0  0  0  0  # atno 17371 bound_to 10713
  141.2223  133.7007  156.7956 LP  0  0  0  0  0  0  0  0  0  0  0  0  # atno 17394 bound_to 11000
  140.2251  134.8728  157.3418 LP  0  0  0  0  0  0  0  0  0  0  0  0  # atno 17395 bound_to 11000

$$$$
