AV-unprocessed.smi:249|AV-procd|sdf|1898|dock5
  -GOLD-   2262020573D 1   1.00000     0.00000
 Structure written by MMmdl.
 64 67  0  0  0  0  0  0  0  0  2 V2000
  144.3276  135.3347  150.8346 C   0  0  0  0  0  0  0  0  0  0  0  0
  145.6936  136.0402  150.8178 C   0  0  0  0  0  0  0  0  0  0  0  0
  146.4608  135.8817  152.0875 N   0  3  2  0  0  0  0  0  0  0  0  0
  146.3177  134.5095  152.6543 C   0  0  0  0  0  0  0  0  0  0  0  0
  147.2082  134.2955  153.8853 C   0  0  0  0  0  0  0  0  0  0  0  0
  146.8833  135.3301  154.9747 C   0  0  1  0  0  0  0  0  0  0  0  0
  147.6433  135.1293  156.2161 N   0  0  0  0  0  0  0  0  0  0  0  0
  147.6293  133.7924  156.7994 C   0  0  0  0  0  0  0  0  0  0  0  0
  148.8379  135.7581  156.3265 C   0  0  0  0  0  0  0  0  0  0  0  0
  149.9563  135.1813  155.8132 N   0  0  0  0  0  0  0  0  0  0  0  0
  151.1352  135.8032  155.9136 C   0  0  0  0  0  0  0  0  0  0  0  0
  151.4121  136.9812  156.4765 N   0  0  0  0  0  0  0  0  0  0  0  0
  150.2921  137.5567  157.0007 C   0  0  0  0  0  0  0  0  0  0  0  0
  148.9766  137.0161  156.9716 C   0  0  0  0  0  0  0  0  0  0  0  0
  148.0917  137.8785  157.6066 N   0  0  0  0  0  0  0  0  0  0  0  0
  148.8419  138.8763  157.9884 C   0  0  0  0  0  0  0  0  0  0  0  0
  150.1740  138.7688  157.6578 N   0  0  0  0  0  0  0  0  0  0  0  0
  151.2199  139.7315  157.9563 C   0  0  0  0  0  0  0  0  0  0  0  0
  150.8518  141.1797  157.5486 C   0  0  2  0  0  0  0  0  0  0  0  0
  150.5754  141.3253  156.0318 C   0  0  0  0  0  0  0  0  0  0  0  0
  151.3290  140.3989  155.2769 O   0  0  0  0  0  0  0  0  0  0  0  0
  151.9053  142.1985  158.0522 C   0  0  2  0  0  0  0  0  0  0  0  0
  152.1110  142.2140  159.5567 C   0  0  0  0  0  0  0  0  0  0  0  0
  152.7958  143.5588  159.7696 C   0  0  0  0  0  0  0  0  0  0  0  0
  152.2329  144.4278  158.7944 O   0  0  0  0  0  0  0  0  0  0  0  0
  151.5468  143.6683  157.8035 C   0  0  0  0  0  0  0  0  0  0  0  0
  147.0384  136.7371  154.3700 C   0  0  0  0  0  0  0  0  0  0  0  0
  146.1607  136.9322  153.1151 C   0  0  1  0  0  0  0  0  0  0  0  0
  146.3633  138.3710  152.5957 C   0  0  0  0  0  0  0  0  0  0  0  0
  143.8872  135.3376  149.8372 H   0  0  0  0  0  0  0  0  0  0  0  0
  143.6126  135.8266  151.4933 H   0  0  0  0  0  0  0  0  0  0  0  0
  144.4229  134.2946  151.1479 H   0  0  0  0  0  0  0  0  0  0  0  0
  146.2403  135.6000  149.9872 H   0  0  0  0  0  0  0  0  0  0  0  0
  145.5728  137.0989  150.5845 H   0  0  0  0  0  0  0  0  0  0  0  0
  145.2728  134.3290  152.9127 H   0  0  0  0  0  0  0  0  0  0  0  0
  146.5931  133.7565  151.9180 H   0  0  0  0  0  0  0  0  0  0  0  0
  147.0591  133.2835  154.2619 H   0  0  0  0  0  0  0  0  0  0  0  0
  148.2551  134.3672  153.5880 H   0  0  0  0  0  0  0  0  0  0  0  0
  145.8336  135.2089  155.2459 H   0  0  0  0  0  0  0  0  0  0  0  0
  148.0333  133.8104  157.8124 H   0  0  0  0  0  0  0  0  0  0  0  0
  148.2202  133.0923  156.2081 H   0  0  0  0  0  0  0  0  0  0  0  0
  146.6087  133.4132  156.8549 H   0  0  0  0  0  0  0  0  0  0  0  0
  151.9774  135.2828  155.4818 H   0  0  0  0  0  0  0  0  0  0  0  0
  148.4419  139.7269  158.5213 H   0  0  0  0  0  0  0  0  0  0  0  0
  151.4210  139.6738  159.0262 H   0  0  0  0  0  0  0  0  0  0  0  0
  152.1369  139.4194  157.4550 H   0  0  0  0  0  0  0  0  0  0  0  0
  149.9131  141.4169  158.0518 H   0  0  0  0  0  0  0  0  0  0  0  0
  149.5181  141.1815  155.8090 H   0  0  0  0  0  0  0  0  0  0  0  0
  150.8179  142.3311  155.6889 H   0  0  0  0  0  0  0  0  0  0  0  0
  151.9680  139.9956  155.8444 H   0  0  0  0  0  0  0  0  0  0  0  0
  152.8676  141.9919  157.5806 H   0  0  0  0  0  0  0  0  0  0  0  0
  151.1511  142.1955  160.0752 H   0  0  0  0  0  0  0  0  0  0  0  0
  152.7122  141.3796  159.9195 H   0  0  0  0  0  0  0  0  0  0  0  0
  152.6565  143.9454  160.7793 H   0  0  0  0  0  0  0  0  0  0  0  0
  153.8671  143.4735  159.5827 H   0  0  0  0  0  0  0  0  0  0  0  0
  151.8200  143.9975  156.8007 H   0  0  0  0  0  0  0  0  0  0  0  0
  150.4762  143.8336  157.9317 H   0  0  0  0  0  0  0  0  0  0  0  0
  146.7704  137.4817  155.1205 H   0  0  0  0  0  0  0  0  0  0  0  0
  148.0800  136.9233  154.1034 H   0  0  0  0  0  0  0  0  0  0  0  0
  145.1156  136.8240  153.4105 H   0  0  0  0  0  0  0  0  0  0  0  0
  146.2943  139.0921  153.4111 H   0  0  0  0  0  0  0  0  0  0  0  0
  145.6025  138.6641  151.8733 H   0  0  0  0  0  0  0  0  0  0  0  0
  147.3435  138.4943  152.1337 H   0  0  0  0  0  0  0  0  0  0  0  0
  147.4350  135.9944  151.8458 H   0  0  0  0  0  0  0  0  0  0  0  0
  1  2  1  0  0  0  0
  1 30  1  0  0  0  0
  1 31  1  0  0  0  0
  1 32  1  0  0  0  0
  2  3  1  0  0  0  0
  2 33  1  0  0  0  0
  2 34  1  0  0  0  0
  3 28  1  0  0  0  0
  3  4  1  0  0  0  0
  3 64  1  0  0  0  0
  4  5  1  0  0  0  0
  4 35  1  0  0  0  0
  4 36  1  0  0  0  0
  5  6  1  0  0  0  0
  5 37  1  0  0  0  0
  5 38  1  0  0  0  0
  6  7  1  0  0  0  0
  6 27  1  0  0  0  0
  6 39  1  0  0  0  0
  7  8  1  0  0  0  0
  7  9  1  0  0  0  0
  8 40  1  0  0  0  0
  8 41  1  0  0  0  0
  8 42  1  0  0  0  0
  9 14  1  0  0  0  0
  9 10  2  0  0  0  0
 10 11  1  0  0  0  0
 11 12  2  0  0  0  0
 11 43  1  0  0  0  0
 12 13  1  0  0  0  0
 13 17  1  0  0  0  0
 13 14  2  0  0  0  0
 14 15  1  0  0  0  0
 15 16  2  0  0  0  0
 16 17  1  0  0  0  0
 16 44  1  0  0  0  0
 17 18  1  0  0  0  0
 18 19  1  0  0  0  0
 18 45  1  0  0  0  0
 18 46  1  0  0  0  0
 19 20  1  0  0  0  0
 19 22  1  0  0  0  0
 19 47  1  0  0  0  0
 20 21  1  0  0  0  0
 20 48  1  0  0  0  0
 20 49  1  0  0  0  0
 21 50  1  0  0  0  0
 22 26  1  0  0  0  0
 22 23  1  0  0  0  0
 22 51  1  0  0  0  0
 23 24  1  0  0  0  0
 23 52  1  0  0  0  0
 23 53  1  0  0  0  0
 24 25  1  0  0  0  0
 24 54  1  0  0  0  0
 24 55  1  0  0  0  0
 25 26  1  0  0  0  0
 26 56  1  0  0  0  0
 26 57  1  0  0  0  0
 27 28  1  0  0  0  0
 27 58  1  0  0  0  0
 27 59  1  0  0  0  0
 28 29  1  0  0  0  0
 28 60  1  0  0  0  0
 29 61  1  0  0  0  0
 29 62  1  0  0  0  0
 29 63  1  0  0  0  0
M  CHG  1   3   1
M  END
> <s_m_source_file>
AV-unprocessed.smi

> <i_m_source_file_index>
249

> <i_lp_mmshare_version>
43012

> <i_f3d_flags>
0

> <s_epik_input>
W0NIM11bQ0gyXU4xW0NIMl1bQ0gyXVtDQEhdKFtDSDJdW0NASF0xW0NIM10pTihbQ0gzXSljKG5bY0hdbjIpYyhjMjMpbltjSF1uM1tDSDJdW0NASF0oW0NIMl1bT0hdKVtDQEBIXTRbQ0gyXVtDSDJdT1tDSDJdNA==

> <s_epik_cmdline>
J2VwaWtfcHl0aG9uJywgJy1waCcsICc3LjAnLCAnLXRuJywgJzgnLCAnLW1hJywgJzIwMCcsICctbWV0YWxfYmluZGluZycsICctaW1hZScsICc8aW5maWxlLm1hZT4nLCAnLW9tYWUnLCAnPG91dGZpbGUubWFlPic=

> <r_lp_tautomer_probability>
1

> <r_epik_Ionization_Penalty>
0.00294688

> <r_epik_Ionization_Penalty_Charging>
0.00169971

> <r_epik_Ionization_Penalty_Neutral>
0.00124717

> <r_epik_State_Penalty>
-0

> <r_epik_Charging_Adjusted_Penalty>
0.00169971

> <i_epik_Tot_Q>
1

> <i_epik_Tot_abs_Q>
1

> <r_epik_Metal_State_Penalty>
-0

> <b_epik_Metal_Only>
0

> <s_lp_Force_Field>
OPLS_2005

> <r_lp_Energy>
53.6814

> <b_lp_Chiralities_Consistent>
1

> <s_lp_Variant>
AV-unprocessed.smi:249-1

> <Gold.Version>
5.8.1

> <Gold.Id.Protein>
6NUR|6NUR_protein|mol2

> <Gold.PLP.Fitness>
43.9822

> <Gold.PLP.PLP>
-36.8551

> <Gold.PLP.part.hbond>
-2.0000

> <Gold.PLP.part.metal>
0.0000

> <Gold.PLP.part.buried>
-7.1527

> <Gold.PLP.part.nonpolar>
-28.7091

> <Gold.PLP.part.repulsive>
0.1146

> <Gold.PLP.ligand.clash>
0.0000

> <Gold.PLP.ligand.torsion>
1.5548

> <Gold.PLP.Chemscore.Hbond>
2.9920

> <Gold.PLP.Chemscore.CHOScore>
0.0000

> <Gold.PLP.Chemscore.Metal>
0.0000

> <Gold.Chemscore.Hbonds>
donor molecule, donor type, donor heavy atom, donor atom, acceptor molecule, acceptor atom, score
      L1  H     3    64       P1  7948  1.89
      P1  H  7989  7998       L1    21  0.94

> <Gold.PLP.Chemscore.Internal.Correction>
1.2608

> <Gold.Rescore>
     Score         DG    S(hbond)    S(metal)    S(lipo)     H(rot)  DE(clash)    DE(int)     intcor
     13.41     -15.32       1.84        0.00      94.96       2.90       0.17       1.74       ----

> <Gold.Chemscore.Fitness>
13.4122

> <Gold.Chemscore.DG>
-15.3221

> <Gold.Chemscore.ZeroCoef>
-5.4800

> <Gold.Chemscore.Hbond>
1.8434

> <Gold.Chemscore.Metal>
0.0000

> <Gold.Chemscore.Lipo>
94.9636

> <Gold.Chemscore.Internal_Hbond>
0.0000

> <Gold.Chemscore.DEClash>
0.1661

> <Gold.Chemscore.DEInternal>
1.7438

> <Gold.Chemscore.Rot>
2.9006

> <Gold.Chemscore.Internal.Correction>
   9.000000E+99

> <Gold.Chemscore.Hbonds>
donor molecule, donor type, donor heavy atom, donor atom, acceptor molecule, acceptor atom, score
      L1  H     3    64       P1  7948  0.90
      P1  H  7989  7998       L1    21  0.83

> <Gold.Chemscore.Hbond.Weighted>
-6.1569

> <Gold.Chemscore.Metal.Weighted>
-0.0000

> <Gold.Chemscore.Lipo.Weighted>
-11.1107

> <Gold.Chemscore.Internal_Hbond.Weighted>
0.0000

> <Gold.Chemscore.DEClash.Weighted>
0.1661

> <Gold.Chemscore.DEInternal.Weighted>
1.7438

> <Gold.Chemscore.Rot.Weighted>
7.4256

> <Gold.Chemscore.Internal.Correction.Weighted>
   9.000000E+99

> <Gold.Protein.RotatedTorsions>
[ 6907 6896 6895 6894 ] final -140.55 input  -60.11 | X-H torsion
[ 7974 7965 7964 7962 ] final  134.14 input  175.53 | X-H torsion
[ 8008 7997 7996 7995 ] final  122.77 input   59.86 | X-H torsion
[ 10167 10162 10161 10158 ] final -173.73 input  -65.29 | X-H torsion
[ 10718 10713 10712 10709 ] final   62.42 input   66.30 | X-H torsion
[ 10763 10752 10751 10750 ] final  -72.35 input  -60.55 | X-H torsion
[ 11005 11000 10999 10996 ] final   -4.87 input  -57.11 | X-H torsion

> <Gold.Protein.ActiveResidues>
 VAL166  LYS551  ARG553  GLY616  TRP617  ASP618  TYR619  PRO620  LYS621  CYS622 
 ASP623  PHE694  ASN695  SER759  ASP760  ASP761  ALA762  ILE779  LEU786  VAL792 
 PHE793  MET794  SER795  GLU796  ALA797  LYS798  CYS799  TRP800  GLU811  SER814 

> <Gold.Protein.RotatedAtoms>
  151.0622  133.5534  159.2633 H   0  0  0  0  0  0  0  0  0  0  0  0  # atno 6907 bound_to 6896
  151.2505  135.0620  159.9070 H   0  0  0  0  0  0  0  0  0  0  0  0  # atno 6908 bound_to 6896
  152.5399  134.0383  159.8110 H   0  0  0  0  0  0  0  0  0  0  0  0  # atno 6909 bound_to 6896
  144.9793  139.4521  143.5394 H   0  0  0  0  0  0  0  0  0  0  0  0  # atno 7974 bound_to 7965
  156.2740  140.2778  156.1521 H   0  0  0  0  0  0  0  0  0  0  0  0  # atno 8008 bound_to 7997
  155.0842  140.0388  157.2666 H   0  0  0  0  0  0  0  0  0  0  0  0  # atno 8009 bound_to 7997
  154.6940  140.2635  155.6790 H   0  0  0  0  0  0  0  0  0  0  0  0  # atno 8010 bound_to 7997
  139.5672  144.1727  152.1330 H   0  0  0  0  0  0  0  0  0  0  0  0  # atno 10167 bound_to 10162
  157.5900  130.9049  149.9586 H   0  0  0  0  0  0  0  0  0  0  0  0  # atno 10718 bound_to 10713
  154.4445  135.5933  153.6150 H   0  0  0  0  0  0  0  0  0  0  0  0  # atno 10763 bound_to 10752
  152.9808  135.6006  154.3682 H   0  0  0  0  0  0  0  0  0  0  0  0  # atno 10764 bound_to 10752
  154.3536  135.2841  155.2337 H   0  0  0  0  0  0  0  0  0  0  0  0  # atno 10765 bound_to 10752
  140.6850  133.9120  155.8580 H   0  0  0  0  0  0  0  0  0  0  0  0  # atno 11005 bound_to 11000
  146.3404  139.9056  142.8788 LP  0  0  0  0  0  0  0  0  0  0  0  0  # atno 17320 bound_to 7965
  145.2444  141.0021  143.3917 LP  0  0  0  0  0  0  0  0  0  0  0  0  # atno 17321 bound_to 7965
  140.1252  144.5337  150.6837 LP  0  0  0  0  0  0  0  0  0  0  0  0  # atno 17342 bound_to 10162
  140.6956  143.2402  151.5010 LP  0  0  0  0  0  0  0  0  0  0  0  0  # atno 17343 bound_to 10162
  156.0953  130.3660  150.0318 LP  0  0  0  0  0  0  0  0  0  0  0  0  # atno 17370 bound_to 10713
  156.8442  130.9436  151.3630 LP  0  0  0  0  0  0  0  0  0  0  0  0  # atno 17371 bound_to 10713
  141.0287  134.0787  157.4039 LP  0  0  0  0  0  0  0  0  0  0  0  0  # atno 17394 bound_to 11000
  139.8940  135.0133  156.6929 LP  0  0  0  0  0  0  0  0  0  0  0  0  # atno 17395 bound_to 11000

$$$$
