AV-unprocessed.smi:2061|AV-procd|sdf|8379|dock1
  -GOLD-   2272011 53D 1   1.00000     0.00000
 Structure written by MMmdl.
 44 45  0  0  0  0  0  0  0  0  2 V2000
  144.7684  134.8307  162.9852 C   0  0  0  0  0  0  0  0  0  0  0  0
  145.8798  135.3465  162.1367 C   0  0  0  0  0  0  0  0  0  0  0  0
  146.4154  136.5916  161.9665 C   0  0  0  0  0  0  0  0  0  0  0  0
  147.4512  136.3726  161.0175 C   0  0  0  0  0  0  0  0  0  0  0  0
  148.2691  137.3096  160.5137 N   0  5  0  0  0  0  0  0  0  0  0  0
  149.1385  136.9950  159.5256 C   0  0  0  0  0  0  0  0  0  0  0  0
  149.4397  135.8588  159.1533 O   0  0  0  0  0  0  0  0  0  0  0  0
  149.6976  138.0653  158.9419 N   0  0  0  0  0  0  0  0  0  0  0  0
  150.6698  138.0543  157.8497 C   0  0  0  0  0  0  0  0  0  0  0  0
  150.7242  139.3977  157.0669 C   0  0  1  0  0  0  0  0  0  0  0  0
  149.4572  139.5203  156.1821 C   0  0  0  0  0  0  0  0  0  0  0  0
  150.9249  140.5786  157.9415 N   0  0  0  0  0  0  0  0  0  0  0  0
  150.9934  141.8338  157.1837 C   0  0  0  0  0  0  0  0  0  0  0  0
  151.2266  143.0780  158.0638 C   0  0  1  0  0  0  0  0  0  0  0  0
  149.9843  143.4966  158.8692 C   0  0  0  0  0  0  0  0  0  0  0  0
  152.3650  142.8886  158.9006 O   0  0  0  0  0  0  0  0  0  0  0  0
  152.3365  141.6994  159.6818 C   0  0  2  0  0  0  0  0  0  0  0  0
  153.6499  141.6168  160.4671 C   0  0  0  0  0  0  0  0  0  0  0  0
  152.1356  140.4814  158.7622 C   0  0  0  0  0  0  0  0  0  0  0  0
  147.5251  135.1098  160.6318 N   0  0  0  0  0  0  0  0  0  0  0  0
  146.5246  134.4437  161.3497 O   0  0  0  0  0  0  0  0  0  0  0  0
  143.8047  135.1680  162.6039 H   0  0  0  0  0  0  0  0  0  0  0  0
  144.8700  135.1859  164.0107 H   0  0  0  0  0  0  0  0  0  0  0  0
  144.7618  133.7407  163.0054 H   0  0  0  0  0  0  0  0  0  0  0  0
  146.1185  137.5119  162.4466 H   0  0  0  0  0  0  0  0  0  0  0  0
  149.4184  138.9717  159.2872 H   0  0  0  0  0  0  0  0  0  0  0  0
  151.6674  137.7819  158.1977 H   0  0  0  0  0  0  0  0  0  0  0  0
  150.3377  137.2393  157.2100 H   0  0  0  0  0  0  0  0  0  0  0  0
  151.5777  139.3332  156.3903 H   0  0  0  0  0  0  0  0  0  0  0  0
  149.2978  138.6407  155.5604 H   0  0  0  0  0  0  0  0  0  0  0  0
  149.5170  140.3489  155.4788 H   0  0  0  0  0  0  0  0  0  0  0  0
  148.5633  139.6565  156.7916 H   0  0  0  0  0  0  0  0  0  0  0  0
  151.7965  141.7664  156.4483 H   0  0  0  0  0  0  0  0  0  0  0  0
  150.0745  142.0030  156.6258 H   0  0  0  0  0  0  0  0  0  0  0  0
  151.4706  143.9113  157.4046 H   0  0  0  0  0  0  0  0  0  0  0  0
  149.1643  143.7655  158.2030 H   0  0  0  0  0  0  0  0  0  0  0  0
  150.1997  144.3629  159.4946 H   0  0  0  0  0  0  0  0  0  0  0  0
  149.6263  142.6962  159.5166 H   0  0  0  0  0  0  0  0  0  0  0  0
  151.5154  141.7535  160.3972 H   0  0  0  0  0  0  0  0  0  0  0  0
  153.6759  140.7267  161.0963 H   0  0  0  0  0  0  0  0  0  0  0  0
  153.7714  142.4851  161.1153 H   0  0  0  0  0  0  0  0  0  0  0  0
  154.5091  141.5784  159.7967 H   0  0  0  0  0  0  0  0  0  0  0  0
  152.0908  139.6093  159.4109 H   0  0  0  0  0  0  0  0  0  0  0  0
  153.0080  140.3562  158.1192 H   0  0  0  0  0  0  0  0  0  0  0  0
  1  2  1  0  0  0  0
  1 22  1  0  0  0  0
  1 23  1  0  0  0  0
  1 24  1  0  0  0  0
  2 21  1  0  0  0  0
  2  3  2  0  0  0  0
  3  4  1  0  0  0  0
  3 25  1  0  0  0  0
  4  5  1  0  0  0  0
  4 20  2  0  0  0  0
  5  6  1  0  0  0  0
  6  7  2  0  0  0  0
  6  8  1  0  0  0  0
  8  9  1  0  0  0  0
  8 26  1  0  0  0  0
  9 10  1  0  0  0  0
  9 27  1  0  0  0  0
  9 28  1  0  0  0  0
 10 11  1  0  0  0  0
 10 12  1  0  0  0  0
 10 29  1  0  0  0  0
 11 30  1  0  0  0  0
 11 31  1  0  0  0  0
 11 32  1  0  0  0  0
 12 19  1  0  0  0  0
 12 13  1  0  0  0  0
 13 14  1  0  0  0  0
 13 33  1  0  0  0  0
 13 34  1  0  0  0  0
 14 15  1  0  0  0  0
 14 16  1  0  0  0  0
 14 35  1  0  0  0  0
 15 36  1  0  0  0  0
 15 37  1  0  0  0  0
 15 38  1  0  0  0  0
 16 17  1  0  0  0  0
 17 18  1  0  0  0  0
 17 19  1  0  0  0  0
 17 39  1  0  0  0  0
 18 40  1  0  0  0  0
 18 41  1  0  0  0  0
 18 42  1  0  0  0  0
 19 43  1  0  0  0  0
 19 44  1  0  0  0  0
 20 21  1  0  0  0  0
M  CHG  1   5  -1
M  END
> <s_m_source_file>
AV-unprocessed.smi

> <i_m_source_file_index>
2061

> <i_lp_mmshare_version>
43012

> <i_f3d_flags>
0

> <s_epik_input>
W0NIM11jMVtjSF1jKG5vMSlbTkhdQyg9TylbTkhdW0NIMl1bQ0BIXShbQ0gzXSlOMltDSDJdW0NAQEhdKFtDSDNdKU9bQ0BASF0oW0NIM10pW0NIMl0y

> <s_epik_cmdline>
J2VwaWtfcHl0aG9uJywgJy1waCcsICc3LjAnLCAnLXRuJywgJzgnLCAnLW1hJywgJzIwMCcsICctbWV0YWxfYmluZGluZycsICctaW1hZScsICc8aW5maWxlLm1hZT4nLCAnLW9tYWUnLCAnPG91dGZpbGUubWFlPic=

> <r_epik_Ionization_Penalty>
6.88367

> <r_epik_Ionization_Penalty_Charging>
6.57198

> <r_epik_Ionization_Penalty_Neutral>
0.311681

> <r_epik_State_Penalty>
6.77619

> <r_epik_Charging_Adjusted_Penalty>
13.3482

> <i_epik_Tot_Q>
-1

> <i_epik_Tot_abs_Q>
1

> <r_epik_Metal_State_Penalty>
2.70524

> <b_epik_Metal_Only>
1

> <s_lp_Force_Field>
OPLS_2005

> <r_lp_Energy>
24.642

> <b_lp_Chiralities_Consistent>
1

> <s_lp_Variant>
AV-unprocessed.smi:2061-20

> <Gold.Version>
5.8.1

> <Gold.Id.Protein>
6NUR|6NUR_protein|mol2

> <Gold.PLP.Fitness>
41.5301

> <Gold.PLP.PLP>
-31.7006

> <Gold.PLP.part.hbond>
-3.0000

> <Gold.PLP.part.metal>
0.0000

> <Gold.PLP.part.buried>
-6.4341

> <Gold.PLP.part.nonpolar>
-23.5336

> <Gold.PLP.part.repulsive>
0.2173

> <Gold.PLP.ligand.clash>
0.0000

> <Gold.PLP.ligand.torsion>
0.2564

> <Gold.PLP.Chemscore.Hbond>
3.3440

> <Gold.PLP.Chemscore.CHOScore>
0.0000

> <Gold.PLP.Chemscore.Metal>
0.0000

> <Gold.Chemscore.Hbonds>
donor molecule, donor type, donor heavy atom, donor atom, acceptor molecule, acceptor atom, score
      P1  H  6896  6908       L1     7  1.00
      P1  H  6931  6943       L1     5  1.41
      P1  H  6934  6947       L1     5  1.13

> <Gold.PLP.Chemscore.Internal.Correction>
0.3102

> <Gold.Rescore>
     Score         DG    S(hbond)    S(metal)    S(lipo)     H(rot)  DE(clash)    DE(int)     intcor
     15.06     -17.08       1.84        0.00      79.84       1.52       0.01       2.01       ----

> <Gold.Chemscore.Fitness>
15.0639

> <Gold.Chemscore.DG>
-17.0781

> <Gold.Chemscore.ZeroCoef>
-5.4800

> <Gold.Chemscore.Hbond>
1.8398

> <Gold.Chemscore.Metal>
0.0000

> <Gold.Chemscore.Lipo>
79.8448

> <Gold.Chemscore.Internal_Hbond>
0.0000

> <Gold.Chemscore.DEClash>
0.0089

> <Gold.Chemscore.DEInternal>
2.0054

> <Gold.Chemscore.Rot>
1.5190

> <Gold.Chemscore.Internal.Correction>
   9.000000E+99

> <Gold.Chemscore.Hbonds>
donor molecule, donor type, donor heavy atom, donor atom, acceptor molecule, acceptor atom, score
      P1  H  6896  6908       L1     7  0.94
      P1  H  6931  6943       L1     5  0.44
      P1  H  6934  6947       L1     5  0.16

> <Gold.Chemscore.Hbond.Weighted>
-6.1449

> <Gold.Chemscore.Metal.Weighted>
-0.0000

> <Gold.Chemscore.Lipo.Weighted>
-9.3418

> <Gold.Chemscore.Internal_Hbond.Weighted>
0.0000

> <Gold.Chemscore.DEClash.Weighted>
0.0089

> <Gold.Chemscore.DEInternal.Weighted>
2.0054

> <Gold.Chemscore.Rot.Weighted>
3.8886

> <Gold.Chemscore.Internal.Correction.Weighted>
   9.000000E+99

> <Gold.Protein.RotatedTorsions>
[ 6907 6896 6895 6894 ] final  161.36 input  -60.11 | X-H torsion
[ 7974 7965 7964 7962 ] final  -59.20 input  175.53 | X-H torsion
[ 8008 7997 7996 7995 ] final   77.77 input   59.86 | X-H torsion
[ 10167 10162 10161 10158 ] final  -36.15 input  -65.29 | X-H torsion
[ 10718 10713 10712 10709 ] final  -98.46 input   66.30 | X-H torsion
[ 10763 10752 10751 10750 ] final   79.38 input  -60.55 | X-H torsion
[ 11005 11000 10999 10996 ] final  123.30 input  -57.11 | X-H torsion

> <Gold.Protein.ActiveResidues>
 VAL166  LYS551  ARG553  GLY616  TRP617  ASP618  TYR619  PRO620  LYS621  CYS622 
 ASP623  PHE694  ASN695  SER759  ASP760  ASP761  ALA762  ILE779  LEU786  VAL792 
 PHE793  MET794  SER795  GLU796  ALA797  LYS798  CYS799  TRP800  GLU811  SER814 

> <Gold.Protein.RotatedAtoms>
  151.9568  133.3683  159.4020 H   0  0  0  0  0  0  0  0  0  0  0  0  # atno 6907 bound_to 6896
  150.6971  134.4282  159.5245 H   0  0  0  0  0  0  0  0  0  0  0  0  # atno 6908 bound_to 6896
  152.1964  134.8626  160.0563 H   0  0  0  0  0  0  0  0  0  0  0  0  # atno 6909 bound_to 6896
  145.8303  140.8484  143.0087 H   0  0  0  0  0  0  0  0  0  0  0  0  # atno 7974 bound_to 7965
  155.8464  140.3460  155.5665 H   0  0  0  0  0  0  0  0  0  0  0  0  # atno 8008 bound_to 7997
  155.8085  140.0895  157.1936 H   0  0  0  0  0  0  0  0  0  0  0  0  # atno 8009 bound_to 7997
  154.4006  140.1452  156.3346 H   0  0  0  0  0  0  0  0  0  0  0  0  # atno 8010 bound_to 7997
  140.7149  143.3428  151.2321 H   0  0  0  0  0  0  0  0  0  0  0  0  # atno 10167 bound_to 10162
  156.0108  130.5239  150.6525 H   0  0  0  0  0  0  0  0  0  0  0  0  # atno 10718 bound_to 10713
  153.0948  135.4842  154.8758 H   0  0  0  0  0  0  0  0  0  0  0  0  # atno 10763 bound_to 10752
  154.7312  135.3060  154.8891 H   0  0  0  0  0  0  0  0  0  0  0  0  # atno 10764 bound_to 10752
  153.9526  135.6821  153.4797 H   0  0  0  0  0  0  0  0  0  0  0  0  # atno 10765 bound_to 10752
  139.9307  134.9641  156.8239 H   0  0  0  0  0  0  0  0  0  0  0  0  # atno 11005 bound_to 11000
  144.6740  140.0662  143.7474 LP  0  0  0  0  0  0  0  0  0  0  0  0  # atno 17320 bound_to 7965
  145.9578  139.2779  143.1173 LP  0  0  0  0  0  0  0  0  0  0  0  0  # atno 17321 bound_to 7965
  139.6940  143.9645  152.2873 LP  0  0  0  0  0  0  0  0  0  0  0  0  # atno 17342 bound_to 10162
  139.9315  144.6738  150.8358 LP  0  0  0  0  0  0  0  0  0  0  0  0  # atno 17343 bound_to 10162
  157.4284  131.0846  151.1063 LP  0  0  0  0  0  0  0  0  0  0  0  0  # atno 17370 bound_to 10713
  157.1643  130.6239  149.5620 LP  0  0  0  0  0  0  0  0  0  0  0  0  # atno 17371 bound_to 10713
  140.6211  133.9993  155.7619 LP  0  0  0  0  0  0  0  0  0  0  0  0  # atno 17394 bound_to 11000
  141.0893  133.9942  157.3263 LP  0  0  0  0  0  0  0  0  0  0  0  0  # atno 17395 bound_to 11000

$$$$
