AV-unprocessed.smi:1889|AV-procd|sdf|7661|dock9
  -GOLD-   22720 9393D 1   1.00000     0.00000
 Structure written by MMmdl.
 35 36  0  0  0  0  0  0  0  0  2 V2000
  150.4132  142.9429  158.2199 C   0  0  0  0  0  0  0  0  0  0  0  0
  150.7931  141.5518  157.7011 C   0  0  0  0  0  0  0  0  0  0  0  0
  151.0686  141.5416  156.1908 C   0  0  0  0  0  0  0  0  0  0  0  0
  151.4206  140.1841  155.6808 C   0  0  0  0  0  0  0  0  0  0  0  0
  152.5925  139.9076  155.1025 N   0  0  0  0  0  0  0  0  0  0  0  0
  152.6726  138.5858  154.6890 N   0  0  0  0  0  0  0  0  0  0  0  0
  151.5607  137.8844  154.9513 C   0  0  0  0  0  0  0  0  0  0  0  0
  151.4316  136.5881  154.6238 N   0  5  0  0  0  0  0  0  0  0  0  0
  150.6115  135.7882  155.3428 C   0  0  0  0  0  0  0  0  0  0  0  0
  150.8676  135.2724  156.4332 O   0  0  0  0  0  0  0  0  0  0  0  0
  149.4192  135.5803  154.7653 N   0  0  0  0  0  0  0  0  0  0  0  0
  148.3249  134.7768  155.3039 C   0  0  0  0  0  0  0  0  0  0  0  0
  148.4637  133.2899  154.9256 C   0  0  2  0  0  0  0  0  0  0  0  0
  149.8357  132.6864  155.1579 C   0  0  0  0  0  0  0  0  0  0  0  0
  149.7944  131.4463  154.2698 C   0  0  0  0  0  0  0  0  0  0  0  0
  148.9148  131.7618  153.1936 O   0  0  0  0  0  0  0  0  0  0  0  0
  148.2801  133.0139  153.4342 C   0  0  0  0  0  0  0  0  0  0  0  0
  150.2974  138.8358  155.7315 S   0  0  0  0  0  0  0  0  0  0  0  0
  150.2234  142.9182  159.2931 H   0  0  0  0  0  0  0  0  0  0  0  0
  149.5116  143.3127  157.7307 H   0  0  0  0  0  0  0  0  0  0  0  0
  151.2126  143.6622  158.0398 H   0  0  0  0  0  0  0  0  0  0  0  0
  151.6763  141.1990  158.2350 H   0  0  0  0  0  0  0  0  0  0  0  0
  149.9910  140.8498  157.9315 H   0  0  0  0  0  0  0  0  0  0  0  0
  150.1953  141.9047  155.6472 H   0  0  0  0  0  0  0  0  0  0  0  0
  151.8875  142.2219  155.9551 H   0  0  0  0  0  0  0  0  0  0  0  0
  149.2583  136.0237  153.8727 H   0  0  0  0  0  0  0  0  0  0  0  0
  148.3485  134.8772  156.3891 H   0  0  0  0  0  0  0  0  0  0  0  0
  147.3577  135.1694  154.9852 H   0  0  0  0  0  0  0  0  0  0  0  0
  147.7269  132.7048  155.4790 H   0  0  0  0  0  0  0  0  0  0  0  0
  150.6138  133.3678  154.8104 H   0  0  0  0  0  0  0  0  0  0  0  0
  150.0317  132.4511  156.2045 H   0  0  0  0  0  0  0  0  0  0  0  0
  150.7828  131.1642  153.9063 H   0  0  0  0  0  0  0  0  0  0  0  0
  149.3806  130.5988  154.8177 H   0  0  0  0  0  0  0  0  0  0  0  0
  147.2309  132.9915  153.1387 H   0  0  0  0  0  0  0  0  0  0  0  0
  148.7832  133.7749  152.8358 H   0  0  0  0  0  0  0  0  0  0  0  0
  1  2  1  0  0  0  0
  1 19  1  0  0  0  0
  1 20  1  0  0  0  0
  1 21  1  0  0  0  0
  2  3  1  0  0  0  0
  2 22  1  0  0  0  0
  2 23  1  0  0  0  0
  3  4  1  0  0  0  0
  3 24  1  0  0  0  0
  3 25  1  0  0  0  0
  4 18  1  0  0  0  0
  4  5  2  0  0  0  0
  5  6  1  0  0  0  0
  6  7  2  0  0  0  0
  7  8  1  0  0  0  0
  7 18  1  0  0  0  0
  8  9  1  0  0  0  0
  9 10  2  0  0  0  0
  9 11  1  0  0  0  0
 11 12  1  0  0  0  0
 11 26  1  0  0  0  0
 12 13  1  0  0  0  0
 12 27  1  0  0  0  0
 12 28  1  0  0  0  0
 13 17  1  0  0  0  0
 13 14  1  0  0  0  0
 13 29  1  0  0  0  0
 14 15  1  0  0  0  0
 14 30  1  0  0  0  0
 14 31  1  0  0  0  0
 15 16  1  0  0  0  0
 15 32  1  0  0  0  0
 15 33  1  0  0  0  0
 16 17  1  0  0  0  0
 17 34  1  0  0  0  0
 17 35  1  0  0  0  0
M  CHG  1   8  -1
M  END
> <s_m_source_file>
AV-unprocessed.smi

> <i_m_source_file_index>
1889

> <i_lp_mmshare_version>
43012

> <i_f3d_flags>
0

> <s_epik_input>
W0NIM11bQ0gyXVtDSDJdYzFubmMoczEpW05IXUMoPU8pW05IXVtDSDJdW0NAQEhdMltDSDJdW0NIMl1PW0NIMl0y

> <s_epik_cmdline>
J2VwaWtfcHl0aG9uJywgJy1waCcsICc3LjAnLCAnLXRuJywgJzgnLCAnLW1hJywgJzIwMCcsICctbWV0YWxfYmluZGluZycsICctaW1hZScsICc8aW5maWxlLm1hZT4nLCAnLW9tYWUnLCAnPG91dGZpbGUubWFlPic=

> <r_lp_tautomer_probability>
1

> <r_epik_Ionization_Penalty>
4.29669

> <r_epik_Ionization_Penalty_Charging>
4.28522

> <r_epik_Ionization_Penalty_Neutral>
0.0114689

> <r_epik_State_Penalty>
4.28479

> <r_epik_Charging_Adjusted_Penalty>
8.57002

> <i_epik_Tot_Q>
-1

> <i_epik_Tot_abs_Q>
1

> <r_epik_Metal_State_Penalty>
0.72177

> <b_epik_Metal_Only>
1

> <s_lp_Force_Field>
OPLS_2005

> <r_lp_Energy>
11.5011

> <b_lp_Chiralities_Consistent>
1

> <s_lp_Variant>
AV-unprocessed.smi:1889-3

> <Gold.Version>
5.8.1

> <Gold.Id.Protein>
6NUR|6NUR_protein|mol2

> <Gold.PLP.Fitness>
38.2542

> <Gold.PLP.PLP>
-28.3575

> <Gold.PLP.part.hbond>
-4.0000

> <Gold.PLP.part.metal>
0.0000

> <Gold.PLP.part.buried>
-4.1855

> <Gold.PLP.part.nonpolar>
-20.1378

> <Gold.PLP.part.repulsive>
0.9400

> <Gold.PLP.ligand.clash>
0.0000

> <Gold.PLP.ligand.torsion>
1.1321

> <Gold.PLP.Chemscore.Hbond>
4.0395

> <Gold.PLP.Chemscore.CHOScore>
0.0000

> <Gold.PLP.Chemscore.Metal>
0.0000

> <Gold.Chemscore.Hbonds>
donor molecule, donor type, donor heavy atom, donor atom, acceptor molecule, acceptor atom, score
      L1  H    11    26       P1  7948  1.00
      P1  H  7989  7998       L1     5  0.05
      P1  H  7997  8010       L1     5  0.96
      P1  H 10752 10763       L1     8  2.00

> <Gold.PLP.Chemscore.Internal.Correction>
0.0425

> <Gold.Rescore>
     Score         DG    S(hbond)    S(metal)    S(lipo)     H(rot)  DE(clash)    DE(int)     intcor
     14.07     -16.40       2.51        0.00      56.45       1.59       1.20       1.13       ----

> <Gold.Chemscore.Fitness>
14.0675

> <Gold.Chemscore.DG>
-16.3974

> <Gold.Chemscore.ZeroCoef>
-5.4800

> <Gold.Chemscore.Hbond>
2.5116

> <Gold.Chemscore.Metal>
0.0000

> <Gold.Chemscore.Lipo>
56.4512

> <Gold.Chemscore.Internal_Hbond>
0.0000

> <Gold.Chemscore.DEClash>
1.2003

> <Gold.Chemscore.DEInternal>
1.1296

> <Gold.Chemscore.Rot>
1.5922

> <Gold.Chemscore.Internal.Correction>
   9.000000E+99

> <Gold.Chemscore.Hbonds>
donor molecule, donor type, donor heavy atom, donor atom, acceptor molecule, acceptor atom, score
      L1  H    11    26       P1  7948  0.77
      P1  H  7997  8010       L1     5  0.31
      P1  H 10752 10763       L1     8  0.53

> <Gold.Chemscore.Hbond.Weighted>
-8.3887

> <Gold.Chemscore.Metal.Weighted>
-0.0000

> <Gold.Chemscore.Lipo.Weighted>
-6.6048

> <Gold.Chemscore.Internal_Hbond.Weighted>
0.0000

> <Gold.Chemscore.DEClash.Weighted>
1.2003

> <Gold.Chemscore.DEInternal.Weighted>
1.1296

> <Gold.Chemscore.Rot.Weighted>
4.0761

> <Gold.Chemscore.Internal.Correction.Weighted>
   9.000000E+99

> <Gold.Protein.RotatedTorsions>
[ 6907 6896 6895 6894 ] final  163.22 input  -60.11 | X-H torsion
[ 7974 7965 7964 7962 ] final  177.37 input  175.53 | X-H torsion
[ 8008 7997 7996 7995 ] final   92.56 input   59.86 | X-H torsion
[ 10167 10162 10161 10158 ] final   48.11 input  -65.29 | X-H torsion
[ 10718 10713 10712 10709 ] final  121.14 input   66.30 | X-H torsion
[ 10763 10752 10751 10750 ] final   46.05 input  -60.55 | X-H torsion
[ 11005 11000 10999 10996 ] final -168.86 input  -57.11 | X-H torsion

> <Gold.Protein.ActiveResidues>
 VAL166  LYS551  ARG553  GLY616  TRP617  ASP618  TYR619  PRO620  LYS621  CYS622 
 ASP623  PHE694  ASN695  SER759  ASP760  ASP761  ALA762  ILE779  LEU786  VAL792 
 PHE793  MET794  SER795  GLU796  ALA797  LYS798  CYS799  TRP800  GLU811  SER814 

> <Gold.Protein.RotatedAtoms>
  151.9285  133.3605  159.3922 H   0  0  0  0  0  0  0  0  0  0  0  0  # atno 6907 bound_to 6896
  150.7022  134.4561  159.5368 H   0  0  0  0  0  0  0  0  0  0  0  0  # atno 6908 bound_to 6896
  152.2198  134.8424  160.0538 H   0  0  0  0  0  0  0  0  0  0  0  0  # atno 6909 bound_to 6896
  144.7170  140.0237  143.6440 H   0  0  0  0  0  0  0  0  0  0  0  0  # atno 7974 bound_to 7965
  156.0368  140.3324  155.7199 H   0  0  0  0  0  0  0  0  0  0  0  0  # atno 8008 bound_to 7997
  155.5804  140.0636  157.2802 H   0  0  0  0  0  0  0  0  0  0  0  0  # atno 8009 bound_to 7997
  154.4376  140.1845  156.0959 H   0  0  0  0  0  0  0  0  0  0  0  0  # atno 8010 bound_to 7997
  140.2966  144.2983  150.6228 H   0  0  0  0  0  0  0  0  0  0  0  0  # atno 10167 bound_to 10162
  157.5840  131.1072  150.8132 H   0  0  0  0  0  0  0  0  0  0  0  0  # atno 10718 bound_to 10713
  152.9816  135.6020  154.3537 H   0  0  0  0  0  0  0  0  0  0  0  0  # atno 10763 bound_to 10752
  154.3225  135.2769  155.2514 H   0  0  0  0  0  0  0  0  0  0  0  0  # atno 10764 bound_to 10752
  154.4675  135.5950  153.6354 H   0  0  0  0  0  0  0  0  0  0  0  0  # atno 10765 bound_to 10752
  140.5372  134.5558  157.5090 H   0  0  0  0  0  0  0  0  0  0  0  0  # atno 11005 bound_to 11000
  146.0159  139.3209  143.0842 LP  0  0  0  0  0  0  0  0  0  0  0  0  # atno 17320 bound_to 7965
  145.8626  140.9466  143.0692 LP  0  0  0  0  0  0  0  0  0  0  0  0  # atno 17321 bound_to 7965
  140.5687  143.2183  151.7638 LP  0  0  0  0  0  0  0  0  0  0  0  0  # atno 17342 bound_to 10162
  139.4925  144.4248  151.9938 LP  0  0  0  0  0  0  0  0  0  0  0  0  # atno 17343 bound_to 10162
  156.8571  130.5100  149.5307 LP  0  0  0  0  0  0  0  0  0  0  0  0  # atno 17370 bound_to 10713
  156.0887  130.5879  150.9695 LP  0  0  0  0  0  0  0  0  0  0  0  0  # atno 17371 bound_to 10713
  139.9523  134.7596  156.0421 LP  0  0  0  0  0  0  0  0  0  0  0  0  # atno 17394 bound_to 11000
  141.1248  133.6602  156.3307 LP  0  0  0  0  0  0  0  0  0  0  0  0  # atno 17395 bound_to 11000

$$$$
