AV-unprocessed.smi:2271|AV-procd|sdf|9160|dock8
  -GOLD-   2272012373D 1   1.00000     0.00000
 Structure written by MMmdl.
 46 47  0  0  0  0  0  0  0  0  2 V2000
  153.2605  140.1111  159.4980 C   0  0  0  0  0  0  0  0  0  0  0  0
  152.7241  141.4351  158.9955 C   0  0  0  0  0  0  0  0  0  0  0  0
  153.1548  142.6530  159.5572 C   0  0  0  0  0  0  0  0  0  0  0  0
  152.6192  143.8468  159.0415 C   0  0  0  0  0  0  0  0  0  0  0  0
  151.6824  143.7745  157.9925 C   0  0  0  0  0  0  0  0  0  0  0  0
  151.3041  142.5111  157.4849 C   0  0  0  0  0  0  0  0  0  0  0  0
  150.3490  142.5448  156.4340 N   0  0  0  0  0  0  0  0  0  0  0  0
  150.1345  141.6235  155.4783 C   0  0  0  0  0  0  0  0  0  0  0  0
  150.7891  140.5920  155.3234 O   0  0  0  0  0  0  0  0  0  0  0  0
  149.0961  141.9627  154.6997 N   0  0  0  0  0  0  0  0  0  0  0  0
  148.5963  141.1829  153.5706 C   0  0  0  0  0  0  0  0  0  0  0  0
  147.7165  139.9930  154.0114 C   0  0  2  0  0  0  0  0  0  0  0  0
  147.1013  139.2180  152.8281 C   0  0  0  0  0  0  0  0  0  0  0  0
  146.1816  138.0835  153.3068 C   0  0  0  0  0  0  0  0  0  0  0  0
  145.1102  138.5995  154.1948 N   0  3  1  0  0  0  0  0  0  0  0  0
  144.1200  137.5525  154.5535 C   0  0  0  0  0  0  0  0  0  0  0  0
  143.3601  137.0188  153.3278 C   0  0  0  0  0  0  0  0  0  0  0  0
  142.8241  138.0953  152.5883 O   0  0  0  0  0  0  0  0  0  0  0  0
  145.6780  139.3039  155.3736 C   0  0  0  0  0  0  0  0  0  0  0  0
  146.5822  140.4683  154.9371 C   0  0  0  0  0  0  0  0  0  0  0  0
  151.8258  141.3653  157.9898 N   0  0  0  0  0  0  0  0  0  0  0  0
  153.8758  140.2454  160.3879 H   0  0  0  0  0  0  0  0  0  0  0  0
  153.8706  139.6359  158.7293 H   0  0  0  0  0  0  0  0  0  0  0  0
  152.4406  139.4381  159.7511 H   0  0  0  0  0  0  0  0  0  0  0  0
  153.8758  142.6750  160.3613 H   0  0  0  0  0  0  0  0  0  0  0  0
  152.9211  144.8029  159.4429 H   0  0  0  0  0  0  0  0  0  0  0  0
  151.2615  144.6824  157.5853 H   0  0  0  0  0  0  0  0  0  0  0  0
  149.7471  143.3546  156.4214 H   0  0  0  0  0  0  0  0  0  0  0  0
  148.6171  142.8286  154.8995 H   0  0  0  0  0  0  0  0  0  0  0  0
  148.0095  141.8588  152.9477 H   0  0  0  0  0  0  0  0  0  0  0  0
  149.4196  140.8368  152.9431 H   0  0  0  0  0  0  0  0  0  0  0  0
  148.3444  139.3027  154.5774 H   0  0  0  0  0  0  0  0  0  0  0  0
  146.5379  139.9020  152.1917 H   0  0  0  0  0  0  0  0  0  0  0  0
  147.8847  138.7896  152.2032 H   0  0  0  0  0  0  0  0  0  0  0  0
  145.7379  137.5969  152.4373 H   0  0  0  0  0  0  0  0  0  0  0  0
  146.7612  137.3245  153.8346 H   0  0  0  0  0  0  0  0  0  0  0  0
  144.6237  136.7126  155.0346 H   0  0  0  0  0  0  0  0  0  0  0  0
  143.4211  137.9497  155.2908 H   0  0  0  0  0  0  0  0  0  0  0  0
  144.0437  136.4680  152.6814 H   0  0  0  0  0  0  0  0  0  0  0  0
  142.5635  136.3291  153.6041 H   0  0  0  0  0  0  0  0  0  0  0  0
  143.3972  138.8414  152.6824 H   0  0  0  0  0  0  0  0  0  0  0  0
  144.8799  139.6948  156.0034 H   0  0  0  0  0  0  0  0  0  0  0  0
  146.2434  138.5981  155.9844 H   0  0  0  0  0  0  0  0  0  0  0  0
  147.0007  140.9544  155.8191 H   0  0  0  0  0  0  0  0  0  0  0  0
  145.9804  141.2222  154.4271 H   0  0  0  0  0  0  0  0  0  0  0  0
  144.6051  139.2868  153.6530 H   0  0  0  0  0  0  0  0  0  0  0  0
  1  2  1  0  0  0  0
  1 22  1  0  0  0  0
  1 23  1  0  0  0  0
  1 24  1  0  0  0  0
  2 21  1  0  0  0  0
  2  3  2  0  0  0  0
  3  4  1  0  0  0  0
  3 25  1  0  0  0  0
  4  5  2  0  0  0  0
  4 26  1  0  0  0  0
  5  6  1  0  0  0  0
  5 27  1  0  0  0  0
  6  7  1  0  0  0  0
  6 21  2  0  0  0  0
  7  8  1  0  0  0  0
  7 28  1  0  0  0  0
  8  9  2  0  0  0  0
  8 10  1  0  0  0  0
 10 11  1  0  0  0  0
 10 29  1  0  0  0  0
 11 12  1  0  0  0  0
 11 30  1  0  0  0  0
 11 31  1  0  0  0  0
 12 20  1  0  0  0  0
 12 13  1  0  0  0  0
 12 32  1  0  0  0  0
 13 14  1  0  0  0  0
 13 33  1  0  0  0  0
 13 34  1  0  0  0  0
 14 15  1  0  0  0  0
 14 35  1  0  0  0  0
 14 36  1  0  0  0  0
 15 16  1  0  0  0  0
 15 19  1  0  0  0  0
 15 46  1  0  0  0  0
 16 17  1  0  0  0  0
 16 37  1  0  0  0  0
 16 38  1  0  0  0  0
 17 18  1  0  0  0  0
 17 39  1  0  0  0  0
 17 40  1  0  0  0  0
 18 41  1  0  0  0  0
 19 20  1  0  0  0  0
 19 42  1  0  0  0  0
 19 43  1  0  0  0  0
 20 44  1  0  0  0  0
 20 45  1  0  0  0  0
M  CHG  1  15   1
M  END
> <s_m_source_file>
AV-unprocessed.smi

> <i_m_source_file_index>
2271

> <i_lp_mmshare_version>
43012

> <i_f3d_flags>
0

> <s_epik_input>
W0NIM11jMVtjSF1bY0hdW2NIXWMobjEpW05IXUMoPU8pW05IXVtDSDJdW0NIXTJbQ0gyXVtDSDJdTihbQ0gyXVtDSDJdMilbQ0gyXVtDSDJdW09IXQ==

> <s_epik_cmdline>
J2VwaWtfcHl0aG9uJywgJy1waCcsICc3LjAnLCAnLXRuJywgJzgnLCAnLW1hJywgJzIwMCcsICctbWV0YWxfYmluZGluZycsICctaW1hZScsICc8aW5maWxlLm1hZT4nLCAnLW9tYWUnLCAnPG91dGZpbGUubWFlPic=

> <r_epik_Ionization_Penalty>
0.00184663

> <r_epik_Ionization_Penalty_Charging>
0.00177223

> <r_epik_Ionization_Penalty_Neutral>
7.44064e-05

> <r_epik_State_Penalty>
0.00120075

> <r_epik_Charging_Adjusted_Penalty>
0.00297297

> <i_epik_Tot_Q>
1

> <i_epik_Tot_abs_Q>
1

> <r_epik_Metal_State_Penalty>
-0

> <b_epik_Metal_Only>
0

> <s_lp_Force_Field>
OPLS_2005

> <r_lp_Energy>
18.6881

> <b_lp_Chiralities_Consistent>
1

> <s_lp_Variant>
AV-unprocessed.smi:2271-1

> <Gold.Version>
5.8.1

> <Gold.Id.Protein>
6NUR|6NUR_protein|mol2

> <Gold.PLP.Fitness>
54.0688

> <Gold.PLP.PLP>
-37.5196

> <Gold.PLP.part.hbond>
-5.8515

> <Gold.PLP.part.metal>
0.0000

> <Gold.PLP.part.buried>
-1.1574

> <Gold.PLP.part.nonpolar>
-29.6880

> <Gold.PLP.part.repulsive>
0.6169

> <Gold.PLP.ligand.clash>
0.0000

> <Gold.PLP.ligand.torsion>
0.3265

> <Gold.PLP.Chemscore.Hbond>
5.7200

> <Gold.PLP.Chemscore.CHOScore>
0.0000

> <Gold.PLP.Chemscore.Metal>
0.0000

> <Gold.Chemscore.Hbonds>
donor molecule, donor type, donor heavy atom, donor atom, acceptor molecule, acceptor atom, score
      L1  H     7    28       P1  8028  1.00
      L1  H    10    29       P1  8028  0.87
      L1  H    15    46       P1 10175  2.00
      L1  H    18    41       P1 10175  0.94
      P1  H  7989  7998       L1     9  0.93

> <Gold.PLP.Chemscore.Internal.Correction>
0.0422

> <Gold.Rescore>
     Score         DG    S(hbond)    S(metal)    S(lipo)     H(rot)  DE(clash)    DE(int)     intcor
     21.63     -24.56       4.45        0.00      88.25       2.39       1.53       1.40       ----

> <Gold.Chemscore.Fitness>
21.6257

> <Gold.Chemscore.DG>
-24.5561

> <Gold.Chemscore.ZeroCoef>
-5.4800

> <Gold.Chemscore.Hbond>
4.4545

> <Gold.Chemscore.Metal>
0.0000

> <Gold.Chemscore.Lipo>
88.2537

> <Gold.Chemscore.Internal_Hbond>
0.0000

> <Gold.Chemscore.DEClash>
1.5295

> <Gold.Chemscore.DEInternal>
1.4009

> <Gold.Chemscore.Rot>
2.3935

> <Gold.Chemscore.Internal.Correction>
   9.000000E+99

> <Gold.Chemscore.Hbonds>
donor molecule, donor type, donor heavy atom, donor atom, acceptor molecule, acceptor atom, score
      L1  H     7    28       P1  8028  0.98
      L1  H    10    29       P1  8028  0.80
      L1  H    15    46       P1 10175  1.00
      L1  H    18    41       P1 10175  0.90
      P1  H  7989  7998       L1     9  0.29

> <Gold.Chemscore.Hbond.Weighted>
-14.8779

> <Gold.Chemscore.Metal.Weighted>
-0.0000

> <Gold.Chemscore.Lipo.Weighted>
-10.3257

> <Gold.Chemscore.Internal_Hbond.Weighted>
0.0000

> <Gold.Chemscore.DEClash.Weighted>
1.5295

> <Gold.Chemscore.DEInternal.Weighted>
1.4009

> <Gold.Chemscore.Rot.Weighted>
6.1274

> <Gold.Chemscore.Internal.Correction.Weighted>
   9.000000E+99

> <Gold.Protein.RotatedTorsions>
[ 6907 6896 6895 6894 ] final  148.24 input  -60.11 | X-H torsion
[ 7974 7965 7964 7962 ] final  150.13 input  175.53 | X-H torsion
[ 8008 7997 7996 7995 ] final  -67.63 input   59.86 | X-H torsion
[ 10167 10162 10161 10158 ] final  -48.03 input  -65.29 | X-H torsion
[ 10718 10713 10712 10709 ] final   77.52 input   66.30 | X-H torsion
[ 10763 10752 10751 10750 ] final  127.32 input  -60.55 | X-H torsion
[ 11005 11000 10999 10996 ] final   61.55 input  -57.11 | X-H torsion

> <Gold.Protein.ActiveResidues>
 VAL166  LYS551  ARG553  GLY616  TRP617  ASP618  TYR619  PRO620  LYS621  CYS622 
 ASP623  PHE694  ASN695  SER759  ASP760  ASP761  ALA762  ILE779  LEU786  VAL792 
 PHE793  MET794  SER795  GLU796  ALA797  LYS798  CYS799  TRP800  GLU811  SER814 

> <Gold.Protein.RotatedAtoms>
  152.1442  133.4482  159.4781 H   0  0  0  0  0  0  0  0  0  0  0  0  # atno 6907 bound_to 6896
  150.6889  134.2268  159.4428 H   0  0  0  0  0  0  0  0  0  0  0  0  # atno 6908 bound_to 6896
  152.0161  134.9848  160.0620 H   0  0  0  0  0  0  0  0  0  0  0  0  # atno 6909 bound_to 6896
  144.8387  139.6368  143.6026 H   0  0  0  0  0  0  0  0  0  0  0  0  # atno 7974 bound_to 7965
  154.4813  140.0889  156.7384 H   0  0  0  0  0  0  0  0  0  0  0  0  # atno 8008 bound_to 7997
  155.4463  140.3455  155.4277 H   0  0  0  0  0  0  0  0  0  0  0  0  # atno 8009 bound_to 7997
  156.1195  140.1470  156.9213 H   0  0  0  0  0  0  0  0  0  0  0  0  # atno 8010 bound_to 7997
  140.6749  143.2758  151.4012 H   0  0  0  0  0  0  0  0  0  0  0  0  # atno 10167 bound_to 10162
  157.6713  130.9825  150.1654 H   0  0  0  0  0  0  0  0  0  0  0  0  # atno 10718 bound_to 10713
  153.7075  135.3273  155.3239 H   0  0  0  0  0  0  0  0  0  0  0  0  # atno 10763 bound_to 10752
  154.8395  135.4469  154.1348 H   0  0  0  0  0  0  0  0  0  0  0  0  # atno 10764 bound_to 10752
  153.2432  135.6973  153.7839 H   0  0  0  0  0  0  0  0  0  0  0  0  # atno 10765 bound_to 10752
  140.0153  134.6234  155.9719 H   0  0  0  0  0  0  0  0  0  0  0  0  # atno 11005 bound_to 11000
  146.2682  139.6572  142.9314 LP  0  0  0  0  0  0  0  0  0  0  0  0  # atno 17320 bound_to 7965
  145.4740  141.0436  143.2683 LP  0  0  0  0  0  0  0  0  0  0  0  0  # atno 17321 bound_to 7965
  139.6036  144.1243  152.2225 LP  0  0  0  0  0  0  0  0  0  0  0  0  # atno 17342 bound_to 10162
  140.0635  144.5837  150.7245 LP  0  0  0  0  0  0  0  0  0  0  0  0  # atno 17343 bound_to 10162
  156.2420  130.3692  149.8326 LP  0  0  0  0  0  0  0  0  0  0  0  0  # atno 17370 bound_to 10713
  156.6123  130.8592  151.3457 LP  0  0  0  0  0  0  0  0  0  0  0  0  # atno 17371 bound_to 10713
  141.1738  133.6539  156.4752 LP  0  0  0  0  0  0  0  0  0  0  0  0  # atno 17394 bound_to 11000
  140.4482  134.6953  157.5026 LP  0  0  0  0  0  0  0  0  0  0  0  0  # atno 17395 bound_to 11000

$$$$
