AV-unprocessed.smi:213|AV-procd|sdf|1642|dock10
  -GOLD-   2262020 13D 1   1.00000     0.00000
 Structure written by MMmdl.
 58 61  0  0  0  0  0  0  0  0  1 V2000
  152.6074  140.3778  158.2994 C   0  0  0  0  0  0  0  0  0  0  0  0
  151.3723  141.0954  157.7246 C   0  0  1  0  0  0  0  0  0  0  0  0
  151.4670  142.6404  157.6868 C   0  0  0  0  0  0  0  0  0  0  0  0
  152.1353  143.2808  158.8232 N   0  0  0  0  0  0  0  0  0  0  0  0
  151.7539  142.6380  160.0782 C   0  0  0  0  0  0  0  0  0  0  0  0
  152.4424  143.2838  161.2931 C   0  0  0  0  0  0  0  0  0  0  0  0
  152.1291  144.6714  161.3357 O   0  0  0  0  0  0  0  0  0  0  0  0
  152.5158  145.3542  160.1485 C   0  0  0  0  0  0  0  0  0  0  0  0
  151.8293  144.7071  158.9326 C   0  0  0  0  0  0  0  0  0  0  0  0
  151.0884  140.5808  156.3825 N   0  0  0  0  0  0  0  0  0  0  0  0
  151.9977  139.6513  155.7173 C   0  0  0  0  0  0  0  0  0  0  0  0
  149.9162  140.8865  155.7699 C   0  0  0  0  0  0  0  0  0  0  0  0
  149.7306  140.4725  154.4886 N   0  0  0  0  0  0  0  0  0  0  0  0
  148.5887  140.7405  153.8489 C   0  0  0  0  0  0  0  0  0  0  0  0
  147.5212  141.4068  154.2916 N   0  0  0  0  0  0  0  0  0  0  0  0
  147.7071  141.8424  155.5700 C   0  0  0  0  0  0  0  0  0  0  0  0
  148.8611  141.6293  156.3772 C   0  0  0  0  0  0  0  0  0  0  0  0
  148.6846  142.2399  157.6149 N   0  0  0  0  0  0  0  0  0  0  0  0
  147.4955  142.7727  157.5457 C   0  0  0  0  0  0  0  0  0  0  0  0
  146.8388  142.5825  156.3518 N   0  0  0  0  0  0  0  0  0  0  0  0
  145.5165  143.0657  155.9962 C   0  0  0  0  0  0  0  0  0  0  0  0
  145.4488  144.6045  155.9465 C   0  0  2  0  0  0  0  0  0  0  0  0
  145.5917  145.1521  157.2436 O   0  0  0  0  0  0  0  0  0  0  0  0
  144.1602  145.1255  155.2795 C   0  0  2  0  0  0  0  0  0  0  0  0
  144.1655  146.5938  154.8444 C   0  0  0  0  0  0  0  0  0  0  0  0
  142.6860  146.9060  154.8360 C   0  0  0  0  0  0  0  0  0  0  0  0
  142.1972  146.1215  156.0507 C   0  0  0  0  0  0  0  0  0  0  0  0
  143.0214  144.9610  156.1220 O   0  0  0  0  0  0  0  0  0  0  0  0
  152.6675  140.4774  159.3809 H   0  0  0  0  0  0  0  0  0  0  0  0
  153.5339  140.7540  157.8654 H   0  0  0  0  0  0  0  0  0  0  0  0
  152.5589  139.3066  158.1002 H   0  0  0  0  0  0  0  0  0  0  0  0
  150.5415  140.8262  158.3760 H   0  0  0  0  0  0  0  0  0  0  0  0
  151.9071  142.9793  156.7482 H   0  0  0  0  0  0  0  0  0  0  0  0
  150.4376  143.0014  157.6602 H   0  0  0  0  0  0  0  0  0  0  0  0
  150.6715  142.6880  160.2066 H   0  0  0  0  0  0  0  0  0  0  0  0
  152.0150  141.5795  160.0463 H   0  0  0  0  0  0  0  0  0  0  0  0
  152.1041  142.8135  162.2164 H   0  0  0  0  0  0  0  0  0  0  0  0
  153.5239  143.1489  161.2410 H   0  0  0  0  0  0  0  0  0  0  0  0
  152.2298  146.4029  160.2316 H   0  0  0  0  0  0  0  0  0  0  0  0
  153.6013  145.3248  160.0400 H   0  0  0  0  0  0  0  0  0  0  0  0
  152.1418  145.2428  158.0425 H   0  0  0  0  0  0  0  0  0  0  0  0
  150.7505  144.8486  159.0147 H   0  0  0  0  0  0  0  0  0  0  0  0
  152.0425  139.8517  154.6462 H   0  0  0  0  0  0  0  0  0  0  0  0
  151.6654  138.6231  155.8628 H   0  0  0  0  0  0  0  0  0  0  0  0
  153.0089  139.7392  156.1140 H   0  0  0  0  0  0  0  0  0  0  0  0
  148.5210  140.3669  152.8378 H   0  0  0  0  0  0  0  0  0  0  0  0
  147.0652  143.3278  158.3664 H   0  0  0  0  0  0  0  0  0  0  0  0
  145.2507  142.6448  155.0257 H   0  0  0  0  0  0  0  0  0  0  0  0
  144.7971  142.6716  156.7151 H   0  0  0  0  0  0  0  0  0  0  0  0
  146.2948  144.9688  155.3626 H   0  0  0  0  0  0  0  0  0  0  0  0
  146.3345  145.7363  157.2387 H   0  0  0  0  0  0  0  0  0  0  0  0
  143.9643  144.5190  154.3938 H   0  0  0  0  0  0  0  0  0  0  0  0
  144.6672  147.2295  155.5745 H   0  0  0  0  0  0  0  0  0  0  0  0
  144.6416  146.7477  153.8757 H   0  0  0  0  0  0  0  0  0  0  0  0
  142.4714  147.9729  154.9020 H   0  0  0  0  0  0  0  0  0  0  0  0
  142.2253  146.5186  153.9262 H   0  0  0  0  0  0  0  0  0  0  0  0
  142.3428  146.7041  156.9612 H   0  0  0  0  0  0  0  0  0  0  0  0
  141.1415  145.8585  155.9826 H   0  0  0  0  0  0  0  0  0  0  0  0
  1  2  1  0  0  0  0
  1 29  1  0  0  0  0
  1 30  1  0  0  0  0
  1 31  1  0  0  0  0
  2  3  1  0  0  0  0
  2 10  1  0  0  0  0
  2 32  1  0  0  0  0
  3  4  1  0  0  0  0
  3 33  1  0  0  0  0
  3 34  1  0  0  0  0
  4  9  1  0  0  0  0
  4  5  1  0  0  0  0
  5  6  1  0  0  0  0
  5 35  1  0  0  0  0
  5 36  1  0  0  0  0
  6  7  1  0  0  0  0
  6 37  1  0  0  0  0
  6 38  1  0  0  0  0
  7  8  1  0  0  0  0
  8  9  1  0  0  0  0
  8 39  1  0  0  0  0
  8 40  1  0  0  0  0
  9 41  1  0  0  0  0
  9 42  1  0  0  0  0
 10 11  1  0  0  0  0
 10 12  1  0  0  0  0
 11 43  1  0  0  0  0
 11 44  1  0  0  0  0
 11 45  1  0  0  0  0
 12 17  1  0  0  0  0
 12 13  2  0  0  0  0
 13 14  1  0  0  0  0
 14 15  2  0  0  0  0
 14 46  1  0  0  0  0
 15 16  1  0  0  0  0
 16 20  1  0  0  0  0
 16 17  2  0  0  0  0
 17 18  1  0  0  0  0
 18 19  2  0  0  0  0
 19 20  1  0  0  0  0
 19 47  1  0  0  0  0
 20 21  1  0  0  0  0
 21 22  1  0  0  0  0
 21 48  1  0  0  0  0
 21 49  1  0  0  0  0
 22 23  1  0  0  0  0
 22 24  1  0  0  0  0
 22 50  1  0  0  0  0
 23 51  1  0  0  0  0
 24 28  1  0  0  0  0
 24 25  1  0  0  0  0
 24 52  1  0  0  0  0
 25 26  1  0  0  0  0
 25 53  1  0  0  0  0
 25 54  1  0  0  0  0
 26 27  1  0  0  0  0
 26 55  1  0  0  0  0
 26 56  1  0  0  0  0
 27 28  1  0  0  0  0
 27 57  1  0  0  0  0
 27 58  1  0  0  0  0
M  END
> <s_m_source_file>
AV-unprocessed.smi

> <i_m_source_file_index>
213

> <i_lp_mmshare_version>
43012

> <i_f3d_flags>
0

> <s_epik_input>
W0NIMl0xW0NIMl1PW0NIMl1bQ0gyXU4xW0NIMl1bQ0BASF0oW0NIM10pTihbQ0gzXSljKG5bY0hdbjIpYyhjMjMpbltjSF1uM1tDSDJdW0NASF0oW09IXSlbQ0BASF00W0NIMl1bQ0gyXVtDSDJdTzQ=

> <s_epik_cmdline>
J2VwaWtfcHl0aG9uJywgJy1waCcsICc3LjAnLCAnLXRuJywgJzgnLCAnLW1hJywgJzIwMCcsICctbWV0YWxfYmluZGluZycsICctaW1hZScsICc8aW5maWxlLm1hZT4nLCAnLW9tYWUnLCAnPG91dGZpbGUubWFlPic=

> <r_lp_tautomer_probability>
1

> <r_epik_Ionization_Penalty>
0.423322

> <r_epik_Ionization_Penalty_Charging>
0

> <r_epik_Ionization_Penalty_Neutral>
0.423322

> <r_epik_State_Penalty>
0.569486

> <r_epik_Charging_Adjusted_Penalty>
0.569486

> <i_epik_Tot_Q>
0

> <i_epik_Tot_abs_Q>
0

> <r_epik_Metal_State_Penalty>
0.568671

> <b_epik_Metal_Only>
0

> <s_lp_Force_Field>
OPLS_2005

> <r_lp_Energy>
55.7593

> <b_lp_Chiralities_Consistent>
1

> <s_lp_Variant>
AV-unprocessed.smi:213-10

> <Gold.Version>
5.8.1

> <Gold.Id.Protein>
6NUR|6NUR_protein|mol2

> <Gold.PLP.Fitness>
48.3591

> <Gold.PLP.PLP>
-41.8513

> <Gold.PLP.part.hbond>
-2.0000

> <Gold.PLP.part.metal>
0.0000

> <Gold.PLP.part.buried>
-4.5572

> <Gold.PLP.part.nonpolar>
-36.6179

> <Gold.PLP.part.repulsive>
1.6252

> <Gold.PLP.ligand.clash>
0.0000

> <Gold.PLP.ligand.torsion>
0.7042

> <Gold.PLP.Chemscore.Hbond>
1.5720

> <Gold.PLP.Chemscore.CHOScore>
0.9598

> <Gold.PLP.Chemscore.Metal>
0.0000

> <Gold.Chemscore.Hbonds>
donor molecule, donor type, donor heavy atom, donor atom, acceptor molecule, acceptor atom, score
      L1  H    23    51       P1  8029  0.76
      P1  H  7989  7998       L1    13  0.53
      L1  C    14    46       P1  7957  0.98

> <Gold.PLP.Chemscore.Internal.Correction>
0.3209

> <Gold.Rescore>
     Score         DG    S(hbond)    S(metal)    S(lipo)     H(rot)  DE(clash)    DE(int)     intcor
      7.15     -14.29       1.00        0.00     106.65       2.74       1.64       5.50       ----

> <Gold.Chemscore.Fitness>
7.1473

> <Gold.Chemscore.DG>
-14.2853

> <Gold.Chemscore.ZeroCoef>
-5.4800

> <Gold.Chemscore.Hbond>
0.9988

> <Gold.Chemscore.Metal>
0.0000

> <Gold.Chemscore.Lipo>
106.6482

> <Gold.Chemscore.Internal_Hbond>
0.0000

> <Gold.Chemscore.DEClash>
1.6392

> <Gold.Chemscore.DEInternal>
5.4988

> <Gold.Chemscore.Rot>
2.7378

> <Gold.Chemscore.Internal.Correction>
   9.000000E+99

> <Gold.Chemscore.Hbonds>
donor molecule, donor type, donor heavy atom, donor atom, acceptor molecule, acceptor atom, score
      L1  H    23    51       P1  8029  0.12
      P1  H  7989  7998       L1    13  0.25

> <Gold.Chemscore.Hbond.Weighted>
-3.3361

> <Gold.Chemscore.Metal.Weighted>
-0.0000

> <Gold.Chemscore.Lipo.Weighted>
-12.4778

> <Gold.Chemscore.Internal_Hbond.Weighted>
0.0000

> <Gold.Chemscore.DEClash.Weighted>
1.6392

> <Gold.Chemscore.DEInternal.Weighted>
5.4988

> <Gold.Chemscore.Rot.Weighted>
7.0087

> <Gold.Chemscore.Internal.Correction.Weighted>
   9.000000E+99

> <Gold.Protein.RotatedTorsions>
[ 6907 6896 6895 6894 ] final  -54.35 input  -60.11 | X-H torsion
[ 7974 7965 7964 7962 ] final  -45.32 input  175.53 | X-H torsion
[ 8008 7997 7996 7995 ] final  -99.80 input   59.86 | X-H torsion
[ 10167 10162 10161 10158 ] final  141.74 input  -65.29 | X-H torsion
[ 10718 10713 10712 10709 ] final  116.35 input   66.30 | X-H torsion
[ 10763 10752 10751 10750 ] final -159.60 input  -60.55 | X-H torsion
[ 11005 11000 10999 10996 ] final  100.25 input  -57.11 | X-H torsion

> <Gold.Protein.ActiveResidues>
 VAL166  LYS551  ARG553  GLY616  TRP617  ASP618  TYR619  PRO620  LYS621  CYS622 
 ASP623  PHE694  ASN695  SER759  ASP760  ASP761  ALA762  ILE779  LEU786  VAL792 
 PHE793  MET794  SER795  GLU796  ALA797  LYS798  CYS799  TRP800  GLU811  SER814 

> <Gold.Protein.RotatedAtoms>
  150.8346  134.7614  159.6881 H   0  0  0  0  0  0  0  0  0  0  0  0  # atno 6907 bound_to 6896
  152.4445  134.5520  159.9879 H   0  0  0  0  0  0  0  0  0  0  0  0  # atno 6908 bound_to 6896
  151.5673  133.3357  159.3018 H   0  0  0  0  0  0  0  0  0  0  0  0  # atno 6909 bound_to 6896
  145.9832  140.7261  142.9353 H   0  0  0  0  0  0  0  0  0  0  0  0  # atno 7974 bound_to 7965
  154.8199  140.0445  157.1403 H   0  0  0  0  0  0  0  0  0  0  0  0  # atno 8008 bound_to 7997
  154.9272  140.3035  155.5166 H   0  0  0  0  0  0  0  0  0  0  0  0  # atno 8009 bound_to 7997
  156.2979  140.2330  156.4328 H   0  0  0  0  0  0  0  0  0  0  0  0  # atno 8010 bound_to 7997
  139.5012  144.6152  151.6181 H   0  0  0  0  0  0  0  0  0  0  0  0  # atno 10167 bound_to 10162
  157.6166  131.1024  150.7460 H   0  0  0  0  0  0  0  0  0  0  0  0  # atno 10718 bound_to 10713
  154.7461  135.3080  154.8641 H   0  0  0  0  0  0  0  0  0  0  0  0  # atno 10763 bound_to 10752
  153.9442  135.6771  153.4748 H   0  0  0  0  0  0  0  0  0  0  0  0  # atno 10764 bound_to 10752
  153.1058  135.4890  154.8875 H   0  0  0  0  0  0  0  0  0  0  0  0  # atno 10765 bound_to 10752
  139.8771  134.9132  156.4727 H   0  0  0  0  0  0  0  0  0  0  0  0  # atno 11005 bound_to 11000
  144.6867  140.2944  143.7273 LP  0  0  0  0  0  0  0  0  0  0  0  0  # atno 17320 bound_to 7965
  145.7738  139.1867  143.2197 LP  0  0  0  0  0  0  0  0  0  0  0  0  # atno 17321 bound_to 7965
  140.5838  143.9900  150.6283 LP  0  0  0  0  0  0  0  0  0  0  0  0  # atno 17342 bound_to 10162
  140.3058  143.3230  152.0927 LP  0  0  0  0  0  0  0  0  0  0  0  0  # atno 17343 bound_to 10162
  156.7827  130.4864  149.5398 LP  0  0  0  0  0  0  0  0  0  0  0  0  # atno 17370 bound_to 10713
  156.1290  130.6165  151.0306 LP  0  0  0  0  0  0  0  0  0  0  0  0  # atno 17371 bound_to 10713
  140.8784  133.7936  155.9439 LP  0  0  0  0  0  0  0  0  0  0  0  0  # atno 17394 bound_to 11000
  140.8880  134.2530  157.5109 LP  0  0  0  0  0  0  0  0  0  0  0  0  # atno 17395 bound_to 11000

$$$$
