AV-unprocessed.smi:103|AV-procd|sdf|984|dock10
  -GOLD-   2262017553D 1   1.00000     0.00000
 Structure written by MMmdl.
 53 55  0  0  0  0  0  0  0  0  1 V2000
  152.9812  137.5566  159.2312 C   0  0  0  0  0  0  0  0  0  0  0  0
  152.9685  138.3301  157.9195 C   0  0  0  0  0  0  0  0  0  0  0  0
  153.2666  139.5237  157.8720 O   0  0  0  0  0  0  0  0  0  0  0  0
  152.6094  137.5641  156.8788 O   0  0  0  0  0  0  0  0  0  0  0  0
  152.4540  138.1481  155.5948 C   0  0  0  0  0  0  0  0  0  0  0  0
  151.2346  137.5314  154.8819 C   0  0  1  0  0  0  0  0  0  0  0  0
  151.4207  136.1253  154.8152 O   0  0  0  0  0  0  0  0  0  0  0  0
  150.9557  135.5459  155.9941 C   0  0  2  0  0  0  0  0  0  0  0  0
  150.3994  134.1923  155.6658 N   0  0  0  0  0  0  0  0  0  0  0  0
  150.8201  132.9443  156.0794 C   0  0  0  0  0  0  0  0  0  0  0  0
  152.2380  132.5847  157.1088 S   0  0  0  0  0  0  0  0  0  0  0  0
  153.1167  131.3187  156.1071 C   0  0  0  0  0  0  0  0  0  0  0  0
  153.0566  133.8050  157.1706 O   0  0  0  0  0  0  0  0  0  0  0  0
  151.7263  131.9650  158.3412 O   0  0  0  0  0  0  0  0  0  0  0  0
  150.1800  131.9182  155.5876 N   0  0  0  0  0  0  0  0  0  0  0  0
  149.1773  132.5071  154.8303 C   0  0  0  0  0  0  0  0  0  0  0  0
  148.1068  132.0023  154.0499 C   0  0  0  0  0  0  0  0  0  0  0  0
  147.8666  130.6926  153.8971 N   0  0  0  0  0  0  0  0  0  0  0  0
  147.2867  132.8828  153.4305 N   0  0  0  0  0  0  0  0  0  0  0  0
  147.5047  134.1946  153.5670 C   0  0  0  0  0  0  0  0  0  0  0  0
  148.4659  134.8148  154.2566 N   0  0  0  0  0  0  0  0  0  0  0  0
  149.2946  133.9259  154.8801 C   0  0  0  0  0  0  0  0  0  0  0  0
  149.9042  136.5006  156.6022 C   0  0  2  0  0  0  0  0  0  0  0  0
  148.6030  135.9232  156.6685 O   0  0  0  0  0  0  0  0  0  0  0  0
  148.2757  135.0799  157.6609 C   0  0  0  0  0  0  0  0  0  0  0  0
  146.8580  134.5453  157.5166 C   0  0  0  0  0  0  0  0  0  0  0  0
  148.9998  134.7390  158.5956 O   0  0  0  0  0  0  0  0  0  0  0  0
  149.8994  137.6703  155.6251 C   0  0  1  0  0  0  0  0  0  0  0  0
  149.7912  138.9165  156.3031 O   0  0  0  0  0  0  0  0  0  0  0  0
  150.0250  140.0699  155.6561 C   0  0  0  0  0  0  0  0  0  0  0  0
  149.6390  141.2856  156.4876 C   0  0  0  0  0  0  0  0  0  0  0  0
  150.4918  140.1866  154.5231 O   0  0  0  0  0  0  0  0  0  0  0  0
  153.6764  136.7194  159.1681 H   0  0  0  0  0  0  0  0  0  0  0  0
  151.9872  137.1671  159.4514 H   0  0  0  0  0  0  0  0  0  0  0  0
  153.2905  138.2012  160.0540 H   0  0  0  0  0  0  0  0  0  0  0  0
  152.3026  139.2205  155.7248 H   0  0  0  0  0  0  0  0  0  0  0  0
  153.3548  138.0185  154.9930 H   0  0  0  0  0  0  0  0  0  0  0  0
  151.1644  137.9289  153.8689 H   0  0  0  0  0  0  0  0  0  0  0  0
  151.8029  135.3663  156.6535 H   0  0  0  0  0  0  0  0  0  0  0  0
  154.0150  130.9986  156.6341 H   0  0  0  0  0  0  0  0  0  0  0  0
  153.3920  131.7431  155.1420 H   0  0  0  0  0  0  0  0  0  0  0  0
  152.4618  130.4614  155.9530 H   0  0  0  0  0  0  0  0  0  0  0  0
  148.4633  130.0150  154.3498 H   0  0  0  0  0  0  0  0  0  0  0  0
  147.0903  130.3857  153.3292 H   0  0  0  0  0  0  0  0  0  0  0  0
  146.8119  134.8399  153.0469 H   0  0  0  0  0  0  0  0  0  0  0  0
  150.2735  136.8272  157.5758 H   0  0  0  0  0  0  0  0  0  0  0  0
  146.7629  133.9746  156.5927 H   0  0  0  0  0  0  0  0  0  0  0  0
  146.1443  135.3686  157.4912 H   0  0  0  0  0  0  0  0  0  0  0  0
  146.6059  133.8940  158.3536 H   0  0  0  0  0  0  0  0  0  0  0  0
  149.0954  137.5435  154.8978 H   0  0  0  0  0  0  0  0  0  0  0  0
  150.2144  141.3089  157.4131 H   0  0  0  0  0  0  0  0  0  0  0  0
  148.5790  141.2514  156.7393 H   0  0  0  0  0  0  0  0  0  0  0  0
  149.8334  142.2053  155.9356 H   0  0  0  0  0  0  0  0  0  0  0  0
  1  2  1  0  0  0  0
  1 33  1  0  0  0  0
  1 34  1  0  0  0  0
  1 35  1  0  0  0  0
  2  3  2  0  0  0  0
  2  4  1  0  0  0  0
  4  5  1  0  0  0  0
  5  6  1  0  0  0  0
  5 36  1  0  0  0  0
  5 37  1  0  0  0  0
  6 28  1  0  0  0  0
  6  7  1  0  0  0  0
  6 38  1  0  0  0  0
  7  8  1  0  0  0  0
  8  9  1  0  0  0  0
  8 23  1  0  0  0  0
  8 39  1  0  0  0  0
  9 22  1  0  0  0  0
  9 10  1  0  0  0  0
 10 11  1  0  0  0  0
 10 15  2  0  0  0  0
 11 12  1  0  0  0  0
 11 13  2  0  0  0  0
 11 14  2  0  0  0  0
 12 40  1  0  0  0  0
 12 41  1  0  0  0  0
 12 42  1  0  0  0  0
 15 16  1  0  0  0  0
 16 22  2  0  0  0  0
 16 17  1  0  0  0  0
 17 18  1  0  0  0  0
 17 19  2  0  0  0  0
 18 43  1  0  0  0  0
 18 44  1  0  0  0  0
 19 20  1  0  0  0  0
 20 21  2  0  0  0  0
 20 45  1  0  0  0  0
 21 22  1  0  0  0  0
 23 24  1  0  0  0  0
 23 28  1  0  0  0  0
 23 46  1  0  0  0  0
 24 25  1  0  0  0  0
 25 26  1  0  0  0  0
 25 27  2  0  0  0  0
 26 47  1  0  0  0  0
 26 48  1  0  0  0  0
 26 49  1  0  0  0  0
 28 29  1  0  0  0  0
 28 50  1  0  0  0  0
 29 30  1  0  0  0  0
 30 31  1  0  0  0  0
 30 32  2  0  0  0  0
 31 51  1  0  0  0  0
 31 52  1  0  0  0  0
 31 53  1  0  0  0  0
M  END
> <s_m_source_file>
AV-unprocessed.smi

> <i_m_source_file_index>
103

> <i_lp_mmshare_version>
43012

> <i_f3d_flags>
0

> <s_epik_input>
W0NIM11DKD1PKU9bQ0gyXVtDQEBIXTFPW0NASF0oW0NAQEhdKE9DKD1PKVtDSDNdKVtDQEhdMU9DKD1PKVtDSDNdKW4oYyhuMilTKD1PKSg9TylbQ0gzXSljKGMyMyluW2NIXW5jM1tOSDJd

> <s_epik_cmdline>
J2VwaWtfcHl0aG9uJywgJy1waCcsICc3LjAnLCAnLXRuJywgJzgnLCAnLW1hJywgJzIwMCcsICctbWV0YWxfYmluZGluZycsICctaW1hZScsICc8aW5maWxlLm1hZT4nLCAnLW9tYWUnLCAnPG91dGZpbGUubWFlPic=

> <r_lp_tautomer_probability>
1

> <r_epik_Ionization_Penalty>
1.51338e-05

> <r_epik_Ionization_Penalty_Charging>
0

> <r_epik_Ionization_Penalty_Neutral>
1.51338e-05

> <r_epik_State_Penalty>
-0

> <r_epik_Charging_Adjusted_Penalty>
0

> <i_epik_Tot_Q>
0

> <i_epik_Tot_abs_Q>
0

> <r_epik_Metal_State_Penalty>
-0

> <b_epik_Metal_Only>
0

> <s_epik_Chemistry_Notes>
This compound has an ester and may undergo hydrolysis at high or low pH. This compound contains an acetal/aminal-like group ( X-CH(R)-Y where X, Y are N, S, or O) that may be acid/base labile, releasing an aldehyde.

> <s_lp_Force_Field>
OPLS_2005

> <r_lp_Energy>
18.7929

> <b_lp_Chiralities_Consistent>
1

> <s_lp_Variant>
AV-unprocessed.smi:103-8

> <Gold.Version>
5.8.1

> <Gold.Id.Protein>
6NUR|6NUR_protein|mol2

> <Gold.PLP.Fitness>
43.8408

> <Gold.PLP.PLP>
-30.0808

> <Gold.PLP.part.hbond>
-6.0609

> <Gold.PLP.part.metal>
0.0000

> <Gold.PLP.part.buried>
-3.4198

> <Gold.PLP.part.nonpolar>
-22.6054

> <Gold.PLP.part.repulsive>
2.5554

> <Gold.PLP.ligand.clash>
0.0000

> <Gold.PLP.ligand.torsion>
1.7536

> <Gold.PLP.Chemscore.Hbond>
4.9420

> <Gold.PLP.Chemscore.CHOScore>
0.0689

> <Gold.PLP.Chemscore.Metal>
0.0000

> <Gold.Chemscore.Hbonds>
donor molecule, donor type, donor heavy atom, donor atom, acceptor molecule, acceptor atom, score
      P1  H  6896  6907       L1    14  0.90
      P1  H  6896  6908       L1    27  1.00
      P1  H  7989  7998       L1    32  1.00
      P1  H  7997  8009       L1     3  0.94
      P1  H 10752 10763       L1     7  1.00
      L1  C    20    45       P1  7948  0.07

> <Gold.PLP.Chemscore.Internal.Correction>
2.2346

> <Gold.Rescore>
     Score         DG    S(hbond)    S(metal)    S(lipo)     H(rot)  DE(clash)    DE(int)     intcor
      0.98     -12.59       4.02        0.00      39.02       4.25       0.86      10.75       ----

> <Gold.Chemscore.Fitness>
0.9752

> <Gold.Chemscore.DG>
-12.5917

> <Gold.Chemscore.ZeroCoef>
-5.4800

> <Gold.Chemscore.Hbond>
4.0166

> <Gold.Chemscore.Metal>
0.0000

> <Gold.Chemscore.Lipo>
39.0161

> <Gold.Chemscore.Internal_Hbond>
0.0000

> <Gold.Chemscore.DEClash>
0.8616

> <Gold.Chemscore.DEInternal>
10.7549

> <Gold.Chemscore.Rot>
4.2456

> <Gold.Chemscore.Internal.Correction>
   9.000000E+99

> <Gold.Chemscore.Hbonds>
donor molecule, donor type, donor heavy atom, donor atom, acceptor molecule, acceptor atom, score
      P1  H  6896  6907       L1    14  0.18
      P1  H  6896  6908       L1    27  0.98
      P1  H  7989  7998       L1    32  0.99
      P1  H  7997  8009       L1     3  0.89
      P1  H 10752 10763       L1     7  0.56

> <Gold.Chemscore.Hbond.Weighted>
-13.4155

> <Gold.Chemscore.Metal.Weighted>
-0.0000

> <Gold.Chemscore.Lipo.Weighted>
-4.5649

> <Gold.Chemscore.Internal_Hbond.Weighted>
0.0000

> <Gold.Chemscore.DEClash.Weighted>
0.8616

> <Gold.Chemscore.DEInternal.Weighted>
10.7549

> <Gold.Chemscore.Rot.Weighted>
10.8687

> <Gold.Chemscore.Internal.Correction.Weighted>
   9.000000E+99

> <Gold.Protein.RotatedTorsions>
[ 6907 6896 6895 6894 ] final  170.46 input  -60.11 | X-H torsion
[ 7974 7965 7964 7962 ] final   92.30 input  175.53 | X-H torsion
[ 8008 7997 7996 7995 ] final  137.85 input   59.86 | X-H torsion
[ 10167 10162 10161 10158 ] final   99.65 input  -65.29 | X-H torsion
[ 10718 10713 10712 10709 ] final   -9.02 input   66.30 | X-H torsion
[ 10763 10752 10751 10750 ] final   58.53 input  -60.55 | X-H torsion
[ 11005 11000 10999 10996 ] final   11.94 input  -57.11 | X-H torsion

> <Gold.Protein.ActiveResidues>
 VAL166  LYS551  ARG553  GLY616  TRP617  ASP618  TYR619  PRO620  LYS621  CYS622 
 ASP623  PHE694  ASN695  SER759  ASP760  ASP761  ALA762  ILE779  LEU786  VAL792 
 PHE793  MET794  SER795  GLU796  ALA797  LYS798  CYS799  TRP800  GLU811  SER814 

> <Gold.Protein.RotatedAtoms>
  151.8158  133.3388  159.3568 H   0  0  0  0  0  0  0  0  0  0  0  0  # atno 6907 bound_to 6896
  150.7311  134.5621  159.5857 H   0  0  0  0  0  0  0  0  0  0  0  0  # atno 6908 bound_to 6896
  152.3042  134.7576  160.0402 H   0  0  0  0  0  0  0  0  0  0  0  0  # atno 6909 bound_to 6896
  145.4942  139.2276  143.2813 H   0  0  0  0  0  0  0  0  0  0  0  0  # atno 7974 bound_to 7965
  156.3000  140.2409  156.3977 H   0  0  0  0  0  0  0  0  0  0  0  0  # atno 8008 bound_to 7997
  154.8556  140.0422  157.1652 H   0  0  0  0  0  0  0  0  0  0  0  0  # atno 8009 bound_to 7997
  154.8952  140.2969  155.5352 H   0  0  0  0  0  0  0  0  0  0  0  0  # atno 8010 bound_to 7997
  139.7598  144.6958  151.0309 H   0  0  0  0  0  0  0  0  0  0  0  0  # atno 10167 bound_to 10162
  156.6940  130.5073  149.5935 H   0  0  0  0  0  0  0  0  0  0  0  0  # atno 10718 bound_to 10713
  152.9873  135.5603  154.5568 H   0  0  0  0  0  0  0  0  0  0  0  0  # atno 10763 bound_to 10752
  154.4994  135.2796  155.1435 H   0  0  0  0  0  0  0  0  0  0  0  0  # atno 10764 bound_to 10752
  154.2871  135.6333  153.5423 H   0  0  0  0  0  0  0  0  0  0  0  0  # atno 10765 bound_to 10752
  140.4976  134.0778  155.7786 H   0  0  0  0  0  0  0  0  0  0  0  0  # atno 11005 bound_to 11000
  146.2266  140.5738  142.8994 LP  0  0  0  0  0  0  0  0  0  0  0  0  # atno 17320 bound_to 7965
  144.7816  140.5853  143.6601 LP  0  0  0  0  0  0  0  0  0  0  0  0  # atno 17321 bound_to 7965
  140.7806  143.4711  151.0146 LP  0  0  0  0  0  0  0  0  0  0  0  0  # atno 17342 bound_to 10162
  139.8397  143.7580  152.3180 LP  0  0  0  0  0  0  0  0  0  0  0  0  # atno 17343 bound_to 10162
  156.1776  130.6478  151.0913 LP  0  0  0  0  0  0  0  0  0  0  0  0  # atno 17370 bound_to 10713
  157.6998  131.0780  150.6856 LP  0  0  0  0  0  0  0  0  0  0  0  0  # atno 17371 bound_to 10713
  141.1452  133.9067  157.2232 LP  0  0  0  0  0  0  0  0  0  0  0  0  # atno 17394 bound_to 11000
  139.9732  135.0122  156.9565 LP  0  0  0  0  0  0  0  0  0  0  0  0  # atno 17395 bound_to 11000

$$$$
