AV-unprocessed.smi:3068|AV-procd|sdf|11699|dock1
  -GOLD-   2272017103D 1   1.00000     0.00000
 Structure written by MMmdl.
 40 42  0  0  0  0  0  0  0  0  2 V2000
  149.7950  136.3643  159.0005 N   0  0  0  0  0  0  0  0  0  0  0  0
  149.9130  136.9549  158.0123 C   0  0  0  0  0  0  0  0  0  0  0  0
  150.0610  137.7002  156.7688 C   0  0  0  0  0  0  0  0  0  0  0  0
  150.2737  136.9749  155.6466 N   0  0  0  0  0  0  0  0  0  0  0  0
  150.4082  137.6540  154.4875 C   0  0  0  0  0  0  0  0  0  0  0  0
  150.3310  139.0596  154.4429 C   0  0  0  0  0  0  0  0  0  0  0  0
  150.1194  139.7918  155.5575 N   0  0  0  0  0  0  0  0  0  0  0  0
  149.9821  139.1212  156.7287 C   0  0  0  0  0  0  0  0  0  0  0  0
  149.7589  139.8718  157.8966 N   0  0  0  0  0  0  0  0  0  0  0  0
  150.7500  139.9164  158.9622 C   0  0  0  0  0  0  0  0  0  0  0  0
  152.0696  140.5514  158.4807 C   0  0  1  0  0  0  0  0  0  0  0  0
  151.8704  141.9248  157.8125 C   0  0  0  0  0  0  0  0  0  0  0  0
  151.5135  142.9634  158.8078 N   0  3  2  0  0  0  0  0  0  0  0  0
  151.2808  144.2875  158.1763 C   0  0  0  0  0  0  0  0  0  0  0  0
  150.8280  145.3267  159.2141 C   0  0  0  0  0  0  0  0  0  0  0  0
  151.8460  145.4349  160.3560 C   0  0  0  0  0  0  0  0  0  0  0  0
  152.0857  144.0519  160.9756 C   0  0  0  0  0  0  0  0  0  0  0  0
  152.5126  143.0233  159.9090 C   0  0  1  0  0  0  0  0  0  0  0  0
  152.6974  141.6264  160.5319 C   0  0  0  0  0  0  0  0  0  0  0  0
  153.0323  140.6738  159.5283 O   0  0  0  0  0  0  0  0  0  0  0  0
  150.5771  137.0735  153.5926 H   0  0  0  0  0  0  0  0  0  0  0  0
  150.4382  139.5970  153.5124 H   0  0  0  0  0  0  0  0  0  0  0  0
  148.9534  140.4792  157.9549 H   0  0  0  0  0  0  0  0  0  0  0  0
  150.3418  140.5088  159.7820 H   0  0  0  0  0  0  0  0  0  0  0  0
  150.9187  138.9146  159.3572 H   0  0  0  0  0  0  0  0  0  0  0  0
  152.5026  139.8825  157.7358 H   0  0  0  0  0  0  0  0  0  0  0  0
  152.7905  142.2198  157.3057 H   0  0  0  0  0  0  0  0  0  0  0  0
  151.0961  141.8606  157.0469 H   0  0  0  0  0  0  0  0  0  0  0  0
  152.1953  144.6241  157.6847 H   0  0  0  0  0  0  0  0  0  0  0  0
  150.5202  144.1932  157.4003 H   0  0  0  0  0  0  0  0  0  0  0  0
  150.6995  146.2986  158.7367 H   0  0  0  0  0  0  0  0  0  0  0  0
  149.8529  145.0461  159.6148 H   0  0  0  0  0  0  0  0  0  0  0  0
  152.7859  145.8391  159.9777 H   0  0  0  0  0  0  0  0  0  0  0  0
  151.4888  146.1316  161.1152 H   0  0  0  0  0  0  0  0  0  0  0  0
  152.8483  144.1249  161.7517 H   0  0  0  0  0  0  0  0  0  0  0  0
  151.1736  143.7147  161.4704 H   0  0  0  0  0  0  0  0  0  0  0  0
  153.4669  143.3377  159.4820 H   0  0  0  0  0  0  0  0  0  0  0  0
  153.5057  141.6490  161.2632 H   0  0  0  0  0  0  0  0  0  0  0  0
  151.8051  141.3132  161.0743 H   0  0  0  0  0  0  0  0  0  0  0  0
  150.6376  142.6810  159.2242 H   0  0  0  0  0  0  0  0  0  0  0  0
  1  2  3  0  0  0  0
  2  3  1  0  0  0  0
  3  8  1  0  0  0  0
  3  4  2  0  0  0  0
  4  5  1  0  0  0  0
  5  6  2  0  0  0  0
  5 21  1  0  0  0  0
  6  7  1  0  0  0  0
  6 22  1  0  0  0  0
  7  8  2  0  0  0  0
  8  9  1  0  0  0  0
  9 10  1  0  0  0  0
  9 23  1  0  0  0  0
 10 11  1  0  0  0  0
 10 24  1  0  0  0  0
 10 25  1  0  0  0  0
 11 20  1  0  0  0  0
 11 12  1  0  0  0  0
 11 26  1  0  0  0  0
 12 13  1  0  0  0  0
 12 27  1  0  0  0  0
 12 28  1  0  0  0  0
 13 18  1  0  0  0  0
 13 14  1  0  0  0  0
 13 40  1  0  0  0  0
 14 15  1  0  0  0  0
 14 29  1  0  0  0  0
 14 30  1  0  0  0  0
 15 16  1  0  0  0  0
 15 31  1  0  0  0  0
 15 32  1  0  0  0  0
 16 17  1  0  0  0  0
 16 33  1  0  0  0  0
 16 34  1  0  0  0  0
 17 18  1  0  0  0  0
 17 35  1  0  0  0  0
 17 36  1  0  0  0  0
 18 19  1  0  0  0  0
 18 37  1  0  0  0  0
 19 20  1  0  0  0  0
 19 38  1  0  0  0  0
 19 39  1  0  0  0  0
M  CHG  1  13   1
M  END
> <s_m_source_file>
AV-unprocessed.smi

> <i_m_source_file_index>
3068

> <i_lp_mmshare_version>
43012

> <i_f3d_flags>
0

> <s_epik_input>
TiNDYzFuW2NIXVtjSF1uYzFbTkhdW0NIMl1bQ0BIXShbQ0gyXTIpT1tDSDJdW0NAQEhdKE4yMylbQ0gyXVtDSDJdW0NIMl1bQ0gyXTM=

> <s_epik_cmdline>
J2VwaWtfcHl0aG9uJywgJy1waCcsICc3LjAnLCAnLXRuJywgJzgnLCAnLW1hJywgJzIwMCcsICctbWV0YWxfYmluZGluZycsICctaW1hZScsICc8aW5maWxlLm1hZT4nLCAnLW9tYWUnLCAnPG91dGZpbGUubWFlPic=

> <r_epik_Ionization_Penalty>
0.0804321

> <r_epik_Ionization_Penalty_Charging>
0.0803403

> <r_epik_Ionization_Penalty_Neutral>
9.17277e-05

> <r_epik_State_Penalty>
0.0711481

> <r_epik_Charging_Adjusted_Penalty>
0.151488

> <i_epik_Tot_Q>
1

> <i_epik_Tot_abs_Q>
1

> <r_epik_Metal_State_Penalty>
0.0711481

> <b_epik_Metal_Only>
0

> <s_lp_Force_Field>
OPLS_2005

> <r_lp_Energy>
40.024

> <b_lp_Chiralities_Consistent>
1

> <s_lp_Variant>
AV-unprocessed.smi:3068-2

> <Gold.Version>
5.8.1

> <Gold.Id.Protein>
6NUR|6NUR_protein|mol2

> <Gold.PLP.Fitness>
43.4258

> <Gold.PLP.PLP>
-35.3546

> <Gold.PLP.part.hbond>
-1.0000

> <Gold.PLP.part.metal>
0.0000

> <Gold.PLP.part.buried>
-6.1369

> <Gold.PLP.part.nonpolar>
-28.7675

> <Gold.PLP.part.repulsive>
0.3001

> <Gold.PLP.ligand.clash>
0.0000

> <Gold.PLP.ligand.torsion>
0.6495

> <Gold.PLP.Chemscore.Hbond>
1.0000

> <Gold.PLP.Chemscore.CHOScore>
2.1198

> <Gold.PLP.Chemscore.Metal>
0.0000

> <Gold.Chemscore.Hbonds>
donor molecule, donor type, donor heavy atom, donor atom, acceptor molecule, acceptor atom, score
      P1  H  6896  6908       L1     1  1.00
      L1  C     5    21       P1  7948  0.52
      L1  C     5    21       P1  7949  0.58
      L1  C     6    22       P1  7957  1.00

> <Gold.PLP.Chemscore.Internal.Correction>
0.0108

> <Gold.Rescore>
     Score         DG    S(hbond)    S(metal)    S(lipo)     H(rot)  DE(clash)    DE(int)     intcor
     17.08     -17.81       0.98        0.00     106.17       1.32       0.11       0.62       ----

> <Gold.Chemscore.Fitness>
17.0839

> <Gold.Chemscore.DG>
-17.8112

> <Gold.Chemscore.ZeroCoef>
-5.4800

> <Gold.Chemscore.Hbond>
0.9839

> <Gold.Chemscore.Metal>
0.0000

> <Gold.Chemscore.Lipo>
106.1741

> <Gold.Chemscore.Internal_Hbond>
0.0000

> <Gold.Chemscore.DEClash>
0.1103

> <Gold.Chemscore.DEInternal>
0.6171

> <Gold.Chemscore.Rot>
1.3193

> <Gold.Chemscore.Internal.Correction>
   9.000000E+99

> <Gold.Chemscore.Hbonds>
donor molecule, donor type, donor heavy atom, donor atom, acceptor molecule, acceptor atom, score
      P1  H  6896  6908       L1     1  0.98

> <Gold.Chemscore.Hbond.Weighted>
-3.2862

> <Gold.Chemscore.Metal.Weighted>
-0.0000

> <Gold.Chemscore.Lipo.Weighted>
-12.4224

> <Gold.Chemscore.Internal_Hbond.Weighted>
0.0000

> <Gold.Chemscore.DEClash.Weighted>
0.1103

> <Gold.Chemscore.DEInternal.Weighted>
0.6171

> <Gold.Chemscore.Rot.Weighted>
3.3774

> <Gold.Chemscore.Internal.Correction.Weighted>
   9.000000E+99

> <Gold.Protein.RotatedTorsions>
[ 6907 6896 6895 6894 ] final -155.41 input  -60.11 | X-H torsion
[ 7974 7965 7964 7962 ] final -100.03 input  175.53 | X-H torsion
[ 8008 7997 7996 7995 ] final  149.08 input   59.86 | X-H torsion
[ 10167 10162 10161 10158 ] final    0.96 input  -65.29 | X-H torsion
[ 10718 10713 10712 10709 ] final   86.78 input   66.30 | X-H torsion
[ 10763 10752 10751 10750 ] final -104.09 input  -60.55 | X-H torsion
[ 11005 11000 10999 10996 ] final  102.51 input  -57.11 | X-H torsion

> <Gold.Protein.ActiveResidues>
 VAL166  LYS551  ARG553  GLY616  TRP617  ASP618  TYR619  PRO620  LYS621  CYS622 
 ASP623  PHE694  ASN695  SER759  ASP760  ASP761  ALA762  ILE779  LEU786  VAL792 
 PHE793  MET794  SER795  GLU796  ALA797  LYS798  CYS799  TRP800  GLU811  SER814 

> <Gold.Protein.RotatedAtoms>
  151.2721  133.4250  159.2621 H   0  0  0  0  0  0  0  0  0  0  0  0  # atno 6907 bound_to 6896
  151.0436  134.9625  159.8185 H   0  0  0  0  0  0  0  0  0  0  0  0  # atno 6908 bound_to 6896
  152.5370  134.2678  159.9012 H   0  0  0  0  0  0  0  0  0  0  0  0  # atno 6909 bound_to 6896
  145.2998  140.9374  143.2830 H   0  0  0  0  0  0  0  0  0  0  0  0  # atno 7974 bound_to 7965
  156.2768  140.2111  156.5801 H   0  0  0  0  0  0  0  0  0  0  0  0  # atno 8008 bound_to 7997
  154.7066  140.0516  157.0533 H   0  0  0  0  0  0  0  0  0  0  0  0  # atno 8009 bound_to 7997
  155.0663  140.3172  155.4647 H   0  0  0  0  0  0  0  0  0  0  0  0  # atno 8010 bound_to 7997
  140.6705  143.7062  150.7913 H   0  0  0  0  0  0  0  0  0  0  0  0  # atno 10167 bound_to 10162
  157.6933  131.0229  150.3024 H   0  0  0  0  0  0  0  0  0  0  0  0  # atno 10718 bound_to 10713
  154.7854  135.4799  153.9934 H   0  0  0  0  0  0  0  0  0  0  0  0  # atno 10763 bound_to 10752
  153.1552  135.6798  153.8830 H   0  0  0  0  0  0  0  0  0  0  0  0  # atno 10764 bound_to 10752
  153.8461  135.3173  155.3407 H   0  0  0  0  0  0  0  0  0  0  0  0  # atno 10765 bound_to 10752
  139.8778  134.9227  156.5069 H   0  0  0  0  0  0  0  0  0  0  0  0  # atno 11005 bound_to 11000
  144.9103  139.4537  143.6590 LP  0  0  0  0  0  0  0  0  0  0  0  0  # atno 17320 bound_to 7965
  146.3156  139.7907  142.8986 LP  0  0  0  0  0  0  0  0  0  0  0  0  # atno 17321 bound_to 7965
  140.0747  143.5027  152.2562 LP  0  0  0  0  0  0  0  0  0  0  0  0  # atno 17342 bound_to 10162
  139.5971  144.7570  151.3260 LP  0  0  0  0  0  0  0  0  0  0  0  0  # atno 17343 bound_to 10162
  156.3538  130.3835  149.7307 LP  0  0  0  0  0  0  0  0  0  0  0  0  # atno 17370 bound_to 10713
  156.4776  130.8026  151.3042 LP  0  0  0  0  0  0  0  0  0  0  0  0  # atno 17371 bound_to 10713
  140.8549  133.8104  155.9206 LP  0  0  0  0  0  0  0  0  0  0  0  0  # atno 17394 bound_to 11000
  140.9108  134.2263  157.4987 LP  0  0  0  0  0  0  0  0  0  0  0  0  # atno 17395 bound_to 11000

$$$$
