AV-unprocessed.smi:672|AV-procd|sdf|3295|dock4
  -GOLD-   22720 0253D 1   1.00000     0.00000
 Structure written by MMmdl.
 35 36  0  0  0  0  0  0  0  0  2 V2000
  144.3445  134.9076  162.3297 C   0  0  0  0  0  0  0  0  0  0  0  0
  145.7642  134.3655  162.5268 C   0  0  0  0  0  0  0  0  0  0  0  0
  146.7849  135.1423  161.7644 C   0  0  0  0  0  0  0  0  0  0  0  0
  146.9225  136.4661  161.8771 N   0  0  0  0  0  0  0  0  0  0  0  0
  147.9187  136.9605  161.0481 N   0  0  0  0  0  0  0  0  0  0  0  0
  148.4990  136.0113  160.3000 C   0  0  0  0  0  0  0  0  0  0  0  0
  149.4838  136.2800  159.4271 N   0  5  0  0  0  0  0  0  0  0  0  0
  149.1823  136.6041  158.1490 C   0  0  0  0  0  0  0  0  0  0  0  0
  148.0556  136.6282  157.6478 O   0  0  0  0  0  0  0  0  0  0  0  0
  150.2525  136.9149  157.4037 N   0  0  0  0  0  0  0  0  0  0  0  0
  150.2306  137.3120  155.9975 C   0  0  2  0  0  0  0  0  0  0  0  0
  151.6437  137.6384  155.4719 C   0  0  0  0  0  0  0  0  0  0  0  0
  151.6756  139.1520  155.2613 C   0  0  0  0  0  0  0  0  0  0  0  0
  150.2350  139.5090  154.9047 C   0  0  2  0  0  0  0  0  0  0  0  0
  149.8774  141.2741  155.1409 S   0  0  0  0  0  0  0  0  0  0  0  0
  148.3436  141.4219  154.1873 C   0  0  0  0  0  0  0  0  0  0  0  0
  149.3977  138.5936  155.8040 C   0  0  0  0  0  0  0  0  0  0  0  0
  147.8583  134.3953  160.5933 S   0  0  0  0  0  0  0  0  0  0  0  0
  143.6220  134.3212  162.8972 H   0  0  0  0  0  0  0  0  0  0  0  0
  144.0527  134.8709  161.2797 H   0  0  0  0  0  0  0  0  0  0  0  0
  144.2689  135.9433  162.6621 H   0  0  0  0  0  0  0  0  0  0  0  0
  146.0255  134.3829  163.5854 H   0  0  0  0  0  0  0  0  0  0  0  0
  145.8116  133.3231  162.2107 H   0  0  0  0  0  0  0  0  0  0  0  0
  151.1554  136.8785  157.8535 H   0  0  0  0  0  0  0  0  0  0  0  0
  149.7983  136.5066  155.4008 H   0  0  0  0  0  0  0  0  0  0  0  0
  152.4436  137.3039  156.1338 H   0  0  0  0  0  0  0  0  0  0  0  0
  151.7930  137.1380  154.5143 H   0  0  0  0  0  0  0  0  0  0  0  0
  151.9635  139.6417  156.1930 H   0  0  0  0  0  0  0  0  0  0  0  0
  152.3871  139.4530  154.4919 H   0  0  0  0  0  0  0  0  0  0  0  0
  150.0582  139.2494  153.8600 H   0  0  0  0  0  0  0  0  0  0  0  0
  148.0035  142.4573  154.1841 H   0  0  0  0  0  0  0  0  0  0  0  0
  147.5589  140.8043  154.6240 H   0  0  0  0  0  0  0  0  0  0  0  0
  148.5032  141.1067  153.1562 H   0  0  0  0  0  0  0  0  0  0  0  0
  148.4184  138.3822  155.3735 H   0  0  0  0  0  0  0  0  0  0  0  0
  149.2272  139.0846  156.7639 H   0  0  0  0  0  0  0  0  0  0  0  0
  1  2  1  0  0  0  0
  1 19  1  0  0  0  0
  1 20  1  0  0  0  0
  1 21  1  0  0  0  0
  2  3  1  0  0  0  0
  2 22  1  0  0  0  0
  2 23  1  0  0  0  0
  3 18  1  0  0  0  0
  3  4  2  0  0  0  0
  4  5  1  0  0  0  0
  5  6  2  0  0  0  0
  6  7  1  0  0  0  0
  6 18  1  0  0  0  0
  7  8  1  0  0  0  0
  8  9  2  0  0  0  0
  8 10  1  0  0  0  0
 10 11  1  0  0  0  0
 10 24  1  0  0  0  0
 11 17  1  0  0  0  0
 11 12  1  0  0  0  0
 11 25  1  0  0  0  0
 12 13  1  0  0  0  0
 12 26  1  0  0  0  0
 12 27  1  0  0  0  0
 13 14  1  0  0  0  0
 13 28  1  0  0  0  0
 13 29  1  0  0  0  0
 14 15  1  0  0  0  0
 14 17  1  0  0  0  0
 14 30  1  0  0  0  0
 15 16  1  0  0  0  0
 16 31  1  0  0  0  0
 16 32  1  0  0  0  0
 16 33  1  0  0  0  0
 17 34  1  0  0  0  0
 17 35  1  0  0  0  0
M  CHG  1   7  -1
M  END
> <s_m_source_file>
AV-unprocessed.smi

> <i_m_source_file_index>
672

> <i_lp_mmshare_version>
43012

> <i_f3d_flags>
0

> <s_epik_input>
W0NIM11bQ0gyXWMxbm5jKHMxKVtOSF1DKD1PKVtOSF1bQ0BASF0yW0NIMl1bQ0gyXVtDQEhdKFtDSDJdMilTW0NIM10=

> <s_epik_cmdline>
J2VwaWtfcHl0aG9uJywgJy1waCcsICc3LjAnLCAnLXRuJywgJzgnLCAnLW1hJywgJzIwMCcsICctbWV0YWxfYmluZGluZycsICctaW1hZScsICc8aW5maWxlLm1hZT4nLCAnLW9tYWUnLCAnPG91dGZpbGUubWFlPic=

> <r_lp_tautomer_probability>
1

> <r_epik_Ionization_Penalty>
4.49964

> <r_epik_Ionization_Penalty_Charging>
4.32991

> <r_epik_Ionization_Penalty_Neutral>
0.169727

> <r_epik_State_Penalty>
4.32952

> <r_epik_Charging_Adjusted_Penalty>
8.65943

> <i_epik_Tot_Q>
-1

> <i_epik_Tot_abs_Q>
1

> <r_epik_Metal_State_Penalty>
0.740482

> <b_epik_Metal_Only>
1

> <s_lp_Force_Field>
OPLS_2005

> <r_lp_Energy>
9.98036

> <b_lp_Chiralities_Consistent>
1

> <s_lp_Variant>
AV-unprocessed.smi:672-7

> <Gold.Version>
5.8.1

> <Gold.Id.Protein>
6NUR|6NUR_protein|mol2

> <Gold.PLP.Fitness>
38.9483

> <Gold.PLP.PLP>
-29.8847

> <Gold.PLP.part.hbond>
-2.9664

> <Gold.PLP.part.metal>
0.0000

> <Gold.PLP.part.buried>
-4.0786

> <Gold.PLP.part.nonpolar>
-23.5263

> <Gold.PLP.part.repulsive>
0.0532

> <Gold.PLP.ligand.clash>
0.0000

> <Gold.PLP.ligand.torsion>
0.9229

> <Gold.PLP.Chemscore.Hbond>
3.6227

> <Gold.PLP.Chemscore.CHOScore>
0.0000

> <Gold.PLP.Chemscore.Metal>
0.0000

> <Gold.Chemscore.Hbonds>
donor molecule, donor type, donor heavy atom, donor atom, acceptor molecule, acceptor atom, score
      P1  H  6896  6907       L1     7  2.00
      P1  H  6931  6943       L1     5  1.00
      P1  H  6934  6947       L1     5  0.44

> <Gold.PLP.Chemscore.Internal.Correction>
0.0413

> <Gold.Rescore>
     Score         DG    S(hbond)    S(metal)    S(lipo)     H(rot)  DE(clash)    DE(int)     intcor
     14.92     -15.76       1.75        0.00      67.17       1.34       0.01       0.83       ----

> <Gold.Chemscore.Fitness>
14.9156

> <Gold.Chemscore.DG>
-15.7551

> <Gold.Chemscore.ZeroCoef>
-5.4800

> <Gold.Chemscore.Hbond>
1.7511

> <Gold.Chemscore.Metal>
0.0000

> <Gold.Chemscore.Lipo>
67.1741

> <Gold.Chemscore.Internal_Hbond>
0.0000

> <Gold.Chemscore.DEClash>
0.0097

> <Gold.Chemscore.DEInternal>
0.8298

> <Gold.Chemscore.Rot>
1.3410

> <Gold.Chemscore.Internal.Correction>
   9.000000E+99

> <Gold.Chemscore.Hbonds>
donor molecule, donor type, donor heavy atom, donor atom, acceptor molecule, acceptor atom, score
      P1  H  6896  6907       L1     7  0.52
      P1  H  6931  6943       L1     5  0.79
      P1  H  6934  6947       L1     5  0.09

> <Gold.Chemscore.Hbond.Weighted>
-5.8487

> <Gold.Chemscore.Metal.Weighted>
-0.0000

> <Gold.Chemscore.Lipo.Weighted>
-7.8594

> <Gold.Chemscore.Internal_Hbond.Weighted>
0.0000

> <Gold.Chemscore.DEClash.Weighted>
0.0097

> <Gold.Chemscore.DEInternal.Weighted>
0.8298

> <Gold.Chemscore.Rot.Weighted>
3.4329

> <Gold.Chemscore.Internal.Correction.Weighted>
   9.000000E+99

> <Gold.Protein.RotatedTorsions>
[ 6907 6896 6895 6894 ] final  -48.00 input  -60.11 | X-H torsion
[ 7974 7965 7964 7962 ] final   29.49 input  175.53 | X-H torsion
[ 8008 7997 7996 7995 ] final  -75.24 input   59.86 | X-H torsion
[ 10167 10162 10161 10158 ] final  -67.32 input  -65.29 | X-H torsion
[ 10718 10713 10712 10709 ] final  102.16 input   66.30 | X-H torsion
[ 10763 10752 10751 10750 ] final  178.34 input  -60.55 | X-H torsion
[ 11005 11000 10999 10996 ] final -108.91 input  -57.11 | X-H torsion

> <Gold.Protein.ActiveResidues>
 VAL166  LYS551  ARG553  GLY616  TRP617  ASP618  TYR619  PRO620  LYS621  CYS622 
 ASP623  PHE694  ASN695  SER759  ASP760  ASP761  ALA762  ILE779  LEU786  VAL792 
 PHE793  MET794  SER795  GLU796  ALA797  LYS798  CYS799  TRP800  GLU811  SER814 

> <Gold.Protein.RotatedAtoms>
  150.8950  134.8357  159.7319 H   0  0  0  0  0  0  0  0  0  0  0  0  # atno 6907 bound_to 6896
  152.4859  134.4590  159.9609 H   0  0  0  0  0  0  0  0  0  0  0  0  # atno 6908 bound_to 6896
  151.4648  133.3544  159.2850 H   0  0  0  0  0  0  0  0  0  0  0  0  # atno 6909 bound_to 6896
  146.1668  139.6914  142.8995 H   0  0  0  0  0  0  0  0  0  0  0  0  # atno 7974 bound_to 7965
  154.5399  140.0747  156.8492 H   0  0  0  0  0  0  0  0  0  0  0  0  # atno 8008 bound_to 7997
  155.3202  140.3395  155.4223 H   0  0  0  0  0  0  0  0  0  0  0  0  # atno 8009 bound_to 7997
  156.1864  140.1670  156.8163 H   0  0  0  0  0  0  0  0  0  0  0  0  # atno 8010 bound_to 7997
  140.5592  143.2312  151.6761 H   0  0  0  0  0  0  0  0  0  0  0  0  # atno 10167 bound_to 10162
  157.6810  131.0745  150.5362 H   0  0  0  0  0  0  0  0  0  0  0  0  # atno 10718 bound_to 10713
  154.5064  135.2786  155.1379 H   0  0  0  0  0  0  0  0  0  0  0  0  # atno 10763 bound_to 10752
  154.2992  135.6251  153.5421 H   0  0  0  0  0  0  0  0  0  0  0  0  # atno 10764 bound_to 10752
  152.9911  135.5692  154.5519 H   0  0  0  0  0  0  0  0  0  0  0  0  # atno 10765 bound_to 10752
  141.0876  133.9111  157.2149 H   0  0  0  0  0  0  0  0  0  0  0  0  # atno 11005 bound_to 11000
  145.4446  141.0424  143.2838 LP  0  0  0  0  0  0  0  0  0  0  0  0  # atno 17320 bound_to 7965
  144.8104  139.5972  143.7032 LP  0  0  0  0  0  0  0  0  0  0  0  0  # atno 17321 bound_to 7965
  139.5062  144.3690  152.0488 LP  0  0  0  0  0  0  0  0  0  0  0  0  # atno 17342 bound_to 10162
  140.2815  144.3854  150.6117 LP  0  0  0  0  0  0  0  0  0  0  0  0  # atno 17343 bound_to 10162
  156.5670  130.4270  149.6036 LP  0  0  0  0  0  0  0  0  0  0  0  0  # atno 17370 bound_to 10713
  156.2772  130.7050  151.1865 LP  0  0  0  0  0  0  0  0  0  0  0  0  # atno 17371 bound_to 10713
  139.9697  135.0132  156.9479 LP  0  0  0  0  0  0  0  0  0  0  0  0  # atno 17394 bound_to 11000
  140.5326  134.0798  155.7320 LP  0  0  0  0  0  0  0  0  0  0  0  0  # atno 17395 bound_to 11000

$$$$
