AV-unprocessed.smi:2385|AV-procd|sdf|9466|dock10
  -GOLD-   2272013 93D 1   1.00000     0.00000
 Structure written by MMmdl.
 50 52  0  0  0  0  0  0  0  0  2 V2000
  143.9222  133.0216  150.8006 C   0  0  0  0  0  0  0  0  0  0  0  0
  144.4879  134.2462  151.4890 C   0  0  0  0  0  0  0  0  0  0  0  0
  144.2336  134.5029  152.8497 C   0  0  0  0  0  0  0  0  0  0  0  0
  144.7865  135.6572  153.4374 C   0  0  0  0  0  0  0  0  0  0  0  0
  145.5781  136.5262  152.6530 C   0  0  0  0  0  0  0  0  0  0  0  0
  146.0894  137.6594  153.3404 N   0  0  0  0  0  0  0  0  0  0  0  0
  146.5089  138.8266  152.8205 C   0  0  0  0  0  0  0  0  0  0  0  0
  146.4985  139.1201  151.6248 O   0  0  0  0  0  0  0  0  0  0  0  0
  146.9516  139.6546  153.7785 N   0  0  0  0  0  0  0  0  0  0  0  0
  147.4632  141.0073  153.5565 C   0  0  2  0  0  0  0  0  0  0  0  0
  148.9951  141.0788  153.7098 C   0  0  0  0  0  0  0  0  0  0  0  0
  149.4368  140.9023  155.1729 C   0  0  0  0  0  0  0  0  0  0  0  0
  148.7817  141.8985  156.0610 N   0  3  2  0  0  0  0  0  0  0  0  0
  149.2997  141.8359  157.4538 C   0  0  0  0  0  0  0  0  0  0  0  0
  150.8251  142.0526  157.5415 C   0  0  1  0  0  0  0  0  0  0  0  0
  151.2819  143.4912  157.7714 C   0  0  0  0  0  0  0  0  0  0  0  0
  152.4952  143.3703  158.6999 C   0  0  0  0  0  0  0  0  0  0  0  0
  152.7168  141.9763  158.8544 O   0  0  0  0  0  0  0  0  0  0  0  0
  151.4625  141.3321  158.7281 C   0  0  0  0  0  0  0  0  0  0  0  0
  147.2996  141.8064  155.9762 C   0  0  0  0  0  0  0  0  0  0  0  0
  146.8049  141.9986  154.5305 C   0  0  0  0  0  0  0  0  0  0  0  0
  145.8180  136.2697  151.3428 N   0  0  0  0  0  0  0  0  0  0  0  0
  145.2876  135.1636  150.7803 C   0  0  0  0  0  0  0  0  0  0  0  0
  143.3489  132.4058  151.4940 H   0  0  0  0  0  0  0  0  0  0  0  0
  144.7285  132.4129  150.3906 H   0  0  0  0  0  0  0  0  0  0  0  0
  143.2646  133.3183  149.9830 H   0  0  0  0  0  0  0  0  0  0  0  0
  143.6266  133.8296  153.4373 H   0  0  0  0  0  0  0  0  0  0  0  0
  144.6008  135.8686  154.4807 H   0  0  0  0  0  0  0  0  0  0  0  0
  146.1453  137.5670  154.3437 H   0  0  0  0  0  0  0  0  0  0  0  0
  146.9155  139.3318  154.7343 H   0  0  0  0  0  0  0  0  0  0  0  0
  147.1960  141.3024  152.5400 H   0  0  0  0  0  0  0  0  0  0  0  0
  149.4823  140.3338  153.0797 H   0  0  0  0  0  0  0  0  0  0  0  0
  149.3439  142.0473  153.3486 H   0  0  0  0  0  0  0  0  0  0  0  0
  149.2076  139.8939  155.5212 H   0  0  0  0  0  0  0  0  0  0  0  0
  150.5202  141.0163  155.2264 H   0  0  0  0  0  0  0  0  0  0  0  0
  148.7566  142.5247  158.1028 H   0  0  0  0  0  0  0  0  0  0  0  0
  149.0993  140.8397  157.8509 H   0  0  0  0  0  0  0  0  0  0  0  0
  151.3017  141.6719  156.6365 H   0  0  0  0  0  0  0  0  0  0  0  0
  151.5445  143.9784  156.8320 H   0  0  0  0  0  0  0  0  0  0  0  0
  150.5080  144.0888  158.2549 H   0  0  0  0  0  0  0  0  0  0  0  0
  153.3815  143.8595  158.2950 H   0  0  0  0  0  0  0  0  0  0  0  0
  152.2787  143.8114  159.6738 H   0  0  0  0  0  0  0  0  0  0  0  0
  150.8825  141.4763  159.6413 H   0  0  0  0  0  0  0  0  0  0  0  0
  151.5785  140.2613  158.5585 H   0  0  0  0  0  0  0  0  0  0  0  0
  146.9709  140.8406  156.3631 H   0  0  0  0  0  0  0  0  0  0  0  0
  146.8354  142.5659  156.6014 H   0  0  0  0  0  0  0  0  0  0  0  0
  147.0311  143.0169  154.2108 H   0  0  0  0  0  0  0  0  0  0  0  0
  145.7189  141.9042  154.4900 H   0  0  0  0  0  0  0  0  0  0  0  0
  145.5090  135.0069  149.7347 H   0  0  0  0  0  0  0  0  0  0  0  0
  149.0441  142.8048  155.7003 H   0  0  0  0  0  0  0  0  0  0  0  0
  1  2  1  0  0  0  0
  1 24  1  0  0  0  0
  1 25  1  0  0  0  0
  1 26  1  0  0  0  0
  2 23  1  0  0  0  0
  2  3  2  0  0  0  0
  3  4  1  0  0  0  0
  3 27  1  0  0  0  0
  4  5  2  0  0  0  0
  4 28  1  0  0  0  0
  5  6  1  0  0  0  0
  5 22  1  0  0  0  0
  6  7  1  0  0  0  0
  6 29  1  0  0  0  0
  7  8  2  0  0  0  0
  7  9  1  0  0  0  0
  9 10  1  0  0  0  0
  9 30  1  0  0  0  0
 10 21  1  0  0  0  0
 10 11  1  0  0  0  0
 10 31  1  0  0  0  0
 11 12  1  0  0  0  0
 11 32  1  0  0  0  0
 11 33  1  0  0  0  0
 12 13  1  0  0  0  0
 12 34  1  0  0  0  0
 12 35  1  0  0  0  0
 13 14  1  0  0  0  0
 13 20  1  0  0  0  0
 13 50  1  0  0  0  0
 14 15  1  0  0  0  0
 14 36  1  0  0  0  0
 14 37  1  0  0  0  0
 15 19  1  0  0  0  0
 15 16  1  0  0  0  0
 15 38  1  0  0  0  0
 16 17  1  0  0  0  0
 16 39  1  0  0  0  0
 16 40  1  0  0  0  0
 17 18  1  0  0  0  0
 17 41  1  0  0  0  0
 17 42  1  0  0  0  0
 18 19  1  0  0  0  0
 19 43  1  0  0  0  0
 19 44  1  0  0  0  0
 20 21  1  0  0  0  0
 20 45  1  0  0  0  0
 20 46  1  0  0  0  0
 21 47  1  0  0  0  0
 21 48  1  0  0  0  0
 22 23  2  0  0  0  0
 23 49  1  0  0  0  0
M  CHG  1  13   1
M  END
> <s_m_source_file>
AV-unprocessed.smi

> <i_m_source_file_index>
2385

> <i_lp_mmshare_version>
43012

> <i_f3d_flags>
0

> <s_epik_input>
W0NIM11jMVtjSF1bY0hdYyhuW2NIXTEpW05IXUMoPU8pW05IXVtDSF0yW0NIMl1bQ0gyXU4oW0NIMl1bQ0gyXTIpW0NIMl1bQ0BASF0zW0NIMl1bQ0gyXU9bQ0gyXTM=

> <s_epik_cmdline>
J2VwaWtfcHl0aG9uJywgJy1waCcsICc3LjAnLCAnLXRuJywgJzgnLCAnLW1hJywgJzIwMCcsICctbWV0YWxfYmluZGluZycsICctaW1hZScsICc8aW5maWxlLm1hZT4nLCAnLW9tYWUnLCAnPG91dGZpbGUubWFlPic=

> <r_epik_Ionization_Penalty>
0.00752367

> <r_epik_Ionization_Penalty_Charging>
0.00747775

> <r_epik_Ionization_Penalty_Neutral>
4.59207e-05

> <r_epik_State_Penalty>
0.00558817

> <r_epik_Charging_Adjusted_Penalty>
0.0130659

> <i_epik_Tot_Q>
1

> <i_epik_Tot_abs_Q>
1

> <r_epik_Metal_State_Penalty>
-0

> <b_epik_Metal_Only>
0

> <s_lp_Force_Field>
OPLS_2005

> <r_lp_Energy>
36.5339

> <b_lp_Chiralities_Consistent>
1

> <s_lp_Variant>
AV-unprocessed.smi:2385-4

> <Gold.Version>
5.8.1

> <Gold.Id.Protein>
6NUR|6NUR_protein|mol2

> <Gold.PLP.Fitness>
44.3201

> <Gold.PLP.PLP>
-36.5905

> <Gold.PLP.part.hbond>
-1.0000

> <Gold.PLP.part.metal>
0.0000

> <Gold.PLP.part.buried>
-2.8446

> <Gold.PLP.part.nonpolar>
-34.5638

> <Gold.PLP.part.repulsive>
0.6520

> <Gold.PLP.ligand.clash>
0.0000

> <Gold.PLP.ligand.torsion>
0.6458

> <Gold.PLP.Chemscore.Hbond>
2.0000

> <Gold.PLP.Chemscore.CHOScore>
1.0000

> <Gold.PLP.Chemscore.Metal>
0.0000

> <Gold.Chemscore.Hbonds>
donor molecule, donor type, donor heavy atom, donor atom, acceptor molecule, acceptor atom, score
      L1  H    13    50       P1  8028  2.00
      L1  C    23    49       P1  7921  1.00

> <Gold.PLP.Chemscore.Internal.Correction>
0.0213

> <Gold.Rescore>
     Score         DG    S(hbond)    S(metal)    S(lipo)     H(rot)  DE(clash)    DE(int)     intcor
     14.12     -16.16       1.00        0.00      93.63       1.41       0.20       1.84       ----

> <Gold.Chemscore.Fitness>
14.1160

> <Gold.Chemscore.DG>
-16.1603

> <Gold.Chemscore.ZeroCoef>
-5.4800

> <Gold.Chemscore.Hbond>
0.9951

> <Gold.Chemscore.Metal>
0.0000

> <Gold.Chemscore.Lipo>
93.6304

> <Gold.Chemscore.Internal_Hbond>
0.0000

> <Gold.Chemscore.DEClash>
0.2019

> <Gold.Chemscore.DEInternal>
1.8424

> <Gold.Chemscore.Rot>
1.4056

> <Gold.Chemscore.Internal.Correction>
   9.000000E+99

> <Gold.Chemscore.Hbonds>
donor molecule, donor type, donor heavy atom, donor atom, acceptor molecule, acceptor atom, score
      L1  H    13    50       P1  8028  0.96

> <Gold.Chemscore.Hbond.Weighted>
-3.3238

> <Gold.Chemscore.Metal.Weighted>
-0.0000

> <Gold.Chemscore.Lipo.Weighted>
-10.9548

> <Gold.Chemscore.Internal_Hbond.Weighted>
0.0000

> <Gold.Chemscore.DEClash.Weighted>
0.2019

> <Gold.Chemscore.DEInternal.Weighted>
1.8424

> <Gold.Chemscore.Rot.Weighted>
3.5982

> <Gold.Chemscore.Internal.Correction.Weighted>
   9.000000E+99

> <Gold.Protein.RotatedTorsions>
[ 6907 6896 6895 6894 ] final -106.20 input  -60.11 | X-H torsion
[ 7974 7965 7964 7962 ] final   77.60 input  175.53 | X-H torsion
[ 8008 7997 7996 7995 ] final -166.46 input   59.86 | X-H torsion
[ 10167 10162 10161 10158 ] final   28.70 input  -65.29 | X-H torsion
[ 10718 10713 10712 10709 ] final   72.54 input   66.30 | X-H torsion
[ 10763 10752 10751 10750 ] final  -27.09 input  -60.55 | X-H torsion
[ 11005 11000 10999 10996 ] final  142.83 input  -57.11 | X-H torsion

> <Gold.Protein.ActiveResidues>
 VAL166  LYS551  ARG553  GLY616  TRP617  ASP618  TYR619  PRO620  LYS621  CYS622 
 ASP623  PHE694  ASN695  SER759  ASP760  ASP761  ALA762  ILE779  LEU786  VAL792 
 PHE793  MET794  SER795  GLU796  ALA797  LYS798  CYS799  TRP800  GLU811  SER814 

> <Gold.Protein.RotatedAtoms>
  150.7377  134.0011  159.3638 H   0  0  0  0  0  0  0  0  0  0  0  0  # atno 6907 bound_to 6896
  151.7965  135.0719  160.0404 H   0  0  0  0  0  0  0  0  0  0  0  0  # atno 6908 bound_to 6896
  152.3171  133.5777  159.5755 H   0  0  0  0  0  0  0  0  0  0  0  0  # atno 6909 bound_to 6896
  145.6880  139.2543  143.1776 H   0  0  0  0  0  0  0  0  0  0  0  0  # atno 7974 bound_to 7965
  155.8642  140.0983  157.1593 H   0  0  0  0  0  0  0  0  0  0  0  0  # atno 8008 bound_to 7997
  154.3992  140.1359  156.4060 H   0  0  0  0  0  0  0  0  0  0  0  0  # atno 8009 bound_to 7997
  155.7823  140.3458  155.5306 H   0  0  0  0  0  0  0  0  0  0  0  0  # atno 8010 bound_to 7997
  140.4830  144.0587  150.6271 H   0  0  0  0  0  0  0  0  0  0  0  0  # atno 10167 bound_to 10162
  157.6506  130.9584  150.0943 H   0  0  0  0  0  0  0  0  0  0  0  0  # atno 10718 bound_to 10713
  153.7265  135.6941  153.5000 H   0  0  0  0  0  0  0  0  0  0  0  0  # atno 10763 bound_to 10752
  153.2166  135.4384  155.0440 H   0  0  0  0  0  0  0  0  0  0  0  0  # atno 10764 bound_to 10752
  154.8267  135.3450  154.6797 H   0  0  0  0  0  0  0  0  0  0  0  0  # atno 10765 bound_to 10752
  140.0507  134.9257  157.1012 H   0  0  0  0  0  0  0  0  0  0  0  0  # atno 11005 bound_to 11000
  146.0907  140.7659  142.9597 LP  0  0  0  0  0  0  0  0  0  0  0  0  # atno 17320 bound_to 7965
  144.7005  140.3632  143.7159 LP  0  0  0  0  0  0  0  0  0  0  0  0  # atno 17321 bound_to 7965
  140.3834  143.2790  152.0144 LP  0  0  0  0  0  0  0  0  0  0  0  0  # atno 17342 bound_to 10162
  139.4837  144.6136  151.7387 LP  0  0  0  0  0  0  0  0  0  0  0  0  # atno 17343 bound_to 10162
  156.1883  130.3653  149.8943 LP  0  0  0  0  0  0  0  0  0  0  0  0  # atno 17370 bound_to 10713
  156.6878  130.8884  151.3584 LP  0  0  0  0  0  0  0  0  0  0  0  0  # atno 17371 bound_to 10713
  140.3922  134.2173  155.7166 LP  0  0  0  0  0  0  0  0  0  0  0  0  # atno 17394 bound_to 11000
  141.1929  133.8163  157.0821 LP  0  0  0  0  0  0  0  0  0  0  0  0  # atno 17395 bound_to 11000

$$$$
