AV-unprocessed.smi:1916|AV-procd|sdf|7765|dock1
  -GOLD-   22720 9513D 1   1.00000     0.00000
 Structure written by MMmdl.
 45 47  0  0  0  0  0  0  0  0  1 V2000
  152.4752  138.9238  158.8066 O   0  0  0  0  0  0  0  0  0  0  0  0
  151.4178  139.3233  158.3177 C   0  0  0  0  0  0  0  0  0  0  0  0
  150.2487  138.6794  158.4616 N   0  0  0  0  0  0  0  0  0  0  0  0
  150.0436  137.4542  159.2310 C   0  0  0  0  0  0  0  0  0  0  0  0
  148.5887  136.9477  159.1592 C   0  0  0  0  0  0  0  0  0  0  0  0
  148.0963  136.3138  160.4494 C   0  0  0  0  0  0  0  0  0  0  0  0
  147.9380  134.9148  160.5526 C   0  0  0  0  0  0  0  0  0  0  0  0
  147.4402  134.3835  161.7580 C   0  0  0  0  0  0  0  0  0  0  0  0
  147.1268  135.2656  162.8096 C   0  0  0  0  0  0  0  0  0  0  0  0
  147.3282  136.6458  162.6092 C   0  0  0  0  0  0  0  0  0  0  0  0
  147.8049  137.1660  161.4578 N   0  0  0  0  0  0  0  0  0  0  0  0
  151.3853  140.6303  157.5097 C   0  0  1  0  0  0  0  0  0  0  0  0
  151.7538  140.3810  156.0367 C   0  0  0  0  0  0  0  0  0  0  0  0
  150.4309  140.5248  155.3034 C   0  0  0  0  0  0  0  0  0  0  0  0
  150.2958  140.2207  154.1191 O   0  0  0  0  0  0  0  0  0  0  0  0
  149.4684  140.9751  156.1198 N   0  0  0  0  0  0  0  0  0  0  0  0
  148.0457  141.0810  155.7606 C   0  0  0  0  0  0  0  0  0  0  0  0
  147.3299  139.7372  155.4825 C   0  0  0  0  0  0  0  0  0  0  0  0
  146.5638  139.9362  154.1725 C   0  0  0  0  0  0  0  0  0  0  0  0
  147.3721  140.9812  153.4097 C   0  0  0  0  0  0  0  0  0  0  0  0
  147.8617  141.9402  154.4940 C   0  0  0  0  0  0  0  0  0  0  0  0
  149.9797  141.2625  157.4552 C   0  0  0  0  0  0  0  0  0  0  0  0
  149.4327  139.0810  158.0230 H   0  0  0  0  0  0  0  0  0  0  0  0
  150.7105  136.6921  158.8275 H   0  0  0  0  0  0  0  0  0  0  0  0
  150.3431  137.5973  160.2707 H   0  0  0  0  0  0  0  0  0  0  0  0
  147.9267  137.7719  158.8902 H   0  0  0  0  0  0  0  0  0  0  0  0
  148.4977  136.2160  158.3555 H   0  0  0  0  0  0  0  0  0  0  0  0
  148.1757  134.2645  159.7237 H   0  0  0  0  0  0  0  0  0  0  0  0
  147.2965  133.3191  161.8716 H   0  0  0  0  0  0  0  0  0  0  0  0
  146.7402  134.8939  163.7470 H   0  0  0  0  0  0  0  0  0  0  0  0
  147.0993  137.3513  163.3942 H   0  0  0  0  0  0  0  0  0  0  0  0
  152.0857  141.3385  157.9562 H   0  0  0  0  0  0  0  0  0  0  0  0
  152.4536  141.1341  155.6731 H   0  0  0  0  0  0  0  0  0  0  0  0
  152.1901  139.3978  155.8537 H   0  0  0  0  0  0  0  0  0  0  0  0
  147.5189  141.5714  156.5816 H   0  0  0  0  0  0  0  0  0  0  0  0
  148.0207  138.9061  155.3557 H   0  0  0  0  0  0  0  0  0  0  0  0
  146.6597  139.4615  156.2975 H   0  0  0  0  0  0  0  0  0  0  0  0
  146.4422  139.0085  153.6124 H   0  0  0  0  0  0  0  0  0  0  0  0
  145.5684  140.3288  154.3852 H   0  0  0  0  0  0  0  0  0  0  0  0
  148.2267  140.5051  152.9272 H   0  0  0  0  0  0  0  0  0  0  0  0
  146.7888  141.4832  152.6374 H   0  0  0  0  0  0  0  0  0  0  0  0
  147.0988  142.6975  154.6794 H   0  0  0  0  0  0  0  0  0  0  0  0
  148.7678  142.4666  154.1898 H   0  0  0  0  0  0  0  0  0  0  0  0
  149.3094  140.8760  158.2250 H   0  0  0  0  0  0  0  0  0  0  0  0
  150.0528  142.3423  157.5902 H   0  0  0  0  0  0  0  0  0  0  0  0
  1  2  2  0  0  0  0
  2  3  1  0  0  0  0
  2 12  1  0  0  0  0
  3  4  1  0  0  0  0
  3 23  1  0  0  0  0
  4  5  1  0  0  0  0
  4 24  1  0  0  0  0
  4 25  1  0  0  0  0
  5  6  1  0  0  0  0
  5 26  1  0  0  0  0
  5 27  1  0  0  0  0
  6 11  1  0  0  0  0
  6  7  2  0  0  0  0
  7  8  1  0  0  0  0
  7 28  1  0  0  0  0
  8  9  2  0  0  0  0
  8 29  1  0  0  0  0
  9 10  1  0  0  0  0
  9 30  1  0  0  0  0
 10 11  2  0  0  0  0
 10 31  1  0  0  0  0
 12 22  1  0  0  0  0
 12 13  1  0  0  0  0
 12 32  1  0  0  0  0
 13 14  1  0  0  0  0
 13 33  1  0  0  0  0
 13 34  1  0  0  0  0
 14 15  2  0  0  0  0
 14 16  1  0  0  0  0
 16 17  1  0  0  0  0
 16 22  1  0  0  0  0
 17 21  1  0  0  0  0
 17 18  1  0  0  0  0
 17 35  1  0  0  0  0
 18 19  1  0  0  0  0
 18 36  1  0  0  0  0
 18 37  1  0  0  0  0
 19 20  1  0  0  0  0
 19 38  1  0  0  0  0
 19 39  1  0  0  0  0
 20 21  1  0  0  0  0
 20 40  1  0  0  0  0
 20 41  1  0  0  0  0
 21 42  1  0  0  0  0
 21 43  1  0  0  0  0
 22 44  1  0  0  0  0
 22 45  1  0  0  0  0
M  END
> <s_m_source_file>
AV-unprocessed.smi

> <i_m_source_file_index>
1916

> <i_lp_mmshare_version>
43012

> <i_f3d_flags>
0

> <s_epik_input>
W0NIMl0xW0NIMl1bQ0gyXVtDSDJdW0NIXTFOKFtDSDJdMilDKD1PKVtDSDJdW0NASF0yQyg9TylbTkhdW0NIMl1bQ0gyXWMzW2NIXVtjSF1bY0hdW2NIXW4z

> <s_epik_cmdline>
J2VwaWtfcHl0aG9uJywgJy1waCcsICc3LjAnLCAnLXRuJywgJzgnLCAnLW1hJywgJzIwMCcsICctbWV0YWxfYmluZGluZycsICctaW1hZScsICc8aW5maWxlLm1hZT4nLCAnLW9tYWUnLCAnPG91dGZpbGUubWFlPic=

> <r_epik_Ionization_Penalty>
0.0252359

> <r_epik_Ionization_Penalty_Charging>
0

> <r_epik_Ionization_Penalty_Neutral>
0.0252359

> <r_epik_State_Penalty>
0.020532

> <r_epik_Charging_Adjusted_Penalty>
0.020532

> <i_epik_Tot_Q>
0

> <i_epik_Tot_abs_Q>
0

> <r_epik_Metal_State_Penalty>
0.0196901

> <b_epik_Metal_Only>
0

> <s_lp_Force_Field>
OPLS_2005

> <r_lp_Energy>
33.9945

> <b_lp_Chiralities_Consistent>
1

> <s_lp_Variant>
AV-unprocessed.smi:1916-2

> <Gold.Version>
5.8.1

> <Gold.Id.Protein>
6NUR|6NUR_protein|mol2

> <Gold.PLP.Fitness>
46.9572

> <Gold.PLP.PLP>
-40.9465

> <Gold.PLP.part.hbond>
-3.0000

> <Gold.PLP.part.metal>
0.0000

> <Gold.PLP.part.buried>
-4.2625

> <Gold.PLP.part.nonpolar>
-34.1729

> <Gold.PLP.part.repulsive>
0.8949

> <Gold.PLP.ligand.clash>
0.0000

> <Gold.PLP.ligand.torsion>
1.1861

> <Gold.PLP.Chemscore.Hbond>
2.7600

> <Gold.PLP.Chemscore.CHOScore>
0.0000

> <Gold.PLP.Chemscore.Metal>
0.0000

> <Gold.Chemscore.Hbonds>
donor molecule, donor type, donor heavy atom, donor atom, acceptor molecule, acceptor atom, score
      P1  H  6931  6943       L1    11  1.00
      P1  H  6934  6947       L1    11  0.74
      P1  H  7989  7998       L1    15  0.98

> <Gold.PLP.Chemscore.Internal.Correction>
0.1029

> <Gold.Rescore>
     Score         DG    S(hbond)    S(metal)    S(lipo)     H(rot)  DE(clash)    DE(int)     intcor
     17.02     -18.76       2.06        0.00      89.88       1.61       0.65       1.09       ----

> <Gold.Chemscore.Fitness>
17.0195

> <Gold.Chemscore.DG>
-18.7615

> <Gold.Chemscore.ZeroCoef>
-5.4800

> <Gold.Chemscore.Hbond>
2.0630

> <Gold.Chemscore.Metal>
0.0000

> <Gold.Chemscore.Lipo>
89.8766

> <Gold.Chemscore.Internal_Hbond>
0.0000

> <Gold.Chemscore.DEClash>
0.6548

> <Gold.Chemscore.DEInternal>
1.0873

> <Gold.Chemscore.Rot>
1.6110

> <Gold.Chemscore.Internal.Correction>
   9.000000E+99

> <Gold.Chemscore.Hbonds>
donor molecule, donor type, donor heavy atom, donor atom, acceptor molecule, acceptor atom, score
      P1  H  6931  6943       L1    11  0.50
      P1  H  6934  6947       L1    11  0.63
      P1  H  7989  7998       L1    15  0.28

> <Gold.Chemscore.Hbond.Weighted>
-6.8903

> <Gold.Chemscore.Metal.Weighted>
-0.0000

> <Gold.Chemscore.Lipo.Weighted>
-10.5156

> <Gold.Chemscore.Internal_Hbond.Weighted>
0.0000

> <Gold.Chemscore.DEClash.Weighted>
0.6548

> <Gold.Chemscore.DEInternal.Weighted>
1.0873

> <Gold.Chemscore.Rot.Weighted>
4.1243

> <Gold.Chemscore.Internal.Correction.Weighted>
   9.000000E+99

> <Gold.Protein.RotatedTorsions>
[ 6907 6896 6895 6894 ] final -145.19 input  -60.11 | X-H torsion
[ 7974 7965 7964 7962 ] final  -47.91 input  175.53 | X-H torsion
[ 8008 7997 7996 7995 ] final -134.32 input   59.86 | X-H torsion
[ 10167 10162 10161 10158 ] final  121.13 input  -65.29 | X-H torsion
[ 10718 10713 10712 10709 ] final -127.35 input   66.30 | X-H torsion
[ 10763 10752 10751 10750 ] final -121.71 input  -60.55 | X-H torsion
[ 11005 11000 10999 10996 ] final   44.57 input  -57.11 | X-H torsion

> <Gold.Protein.ActiveResidues>
 VAL166  LYS551  ARG553  GLY616  TRP617  ASP618  TYR619  PRO620  LYS621  CYS622 
 ASP623  PHE694  ASN695  SER759  ASP760  ASP761  ALA762  ILE779  LEU786  VAL792 
 PHE793  MET794  SER795  GLU796  ALA797  LYS798  CYS799  TRP800  GLU811  SER814 

> <Gold.Protein.RotatedAtoms>
  151.1243  133.5082  159.2600 H   0  0  0  0  0  0  0  0  0  0  0  0  # atno 6907 bound_to 6896
  151.1827  135.0367  159.8809 H   0  0  0  0  0  0  0  0  0  0  0  0  # atno 6908 bound_to 6896
  152.5457  134.1093  159.8405 H   0  0  0  0  0  0  0  0  0  0  0  0  # atno 6909 bound_to 6896
  145.9566  140.7520  142.9478 H   0  0  0  0  0  0  0  0  0  0  0  0  # atno 7974 bound_to 7965
  155.3601  140.0482  157.3046 H   0  0  0  0  0  0  0  0  0  0  0  0  # atno 8008 bound_to 7997
  154.5183  140.2216  155.8988 H   0  0  0  0  0  0  0  0  0  0  0  0  # atno 8009 bound_to 7997
  156.1661  140.3106  155.8896 H   0  0  0  0  0  0  0  0  0  0  0  0  # atno 8010 bound_to 7997
  139.5938  144.7035  151.3224 H   0  0  0  0  0  0  0  0  0  0  0  0  # atno 10167 bound_to 10162
  156.1849  130.6757  151.0352 H   0  0  0  0  0  0  0  0  0  0  0  0  # atno 10718 bound_to 10713
  154.8674  135.4158  154.2664 H   0  0  0  0  0  0  0  0  0  0  0  0  # atno 10763 bound_to 10752
  153.3583  135.7002  153.6739 H   0  0  0  0  0  0  0  0  0  0  0  0  # atno 10764 bound_to 10752
  153.5650  135.3602  155.2787 H   0  0  0  0  0  0  0  0  0  0  0  0  # atno 10765 bound_to 10752
  140.1540  134.4426  155.8362 H   0  0  0  0  0  0  0  0  0  0  0  0  # atno 11005 bound_to 11000
  144.6806  140.2523  143.7330 LP  0  0  0  0  0  0  0  0  0  0  0  0  # atno 17320 bound_to 7965
  145.8097  139.1998  143.2000 LP  0  0  0  0  0  0  0  0  0  0  0  0  # atno 17321 bound_to 7965
  140.7195  143.7174  150.7722 LP  0  0  0  0  0  0  0  0  0  0  0  0  # atno 17342 bound_to 10162
  140.0735  143.5037  152.2567 LP  0  0  0  0  0  0  0  0  0  0  0  0  # atno 17343 bound_to 10162
  157.6892  131.0815  150.7155 LP  0  0  0  0  0  0  0  0  0  0  0  0  # atno 17370 bound_to 10713
  156.7212  130.4681  149.5522 LP  0  0  0  0  0  0  0  0  0  0  0  0  # atno 17371 bound_to 10713
  141.2202  133.6884  156.7473 LP  0  0  0  0  0  0  0  0  0  0  0  0  # atno 17394 bound_to 11000
  140.2570  134.8496  157.3722 LP  0  0  0  0  0  0  0  0  0  0  0  0  # atno 17395 bound_to 11000

$$$$
