AV-unprocessed.smi:3181|AV-procd|sdf|12138|dock3
  -GOLD-   2272017573D 1   1.00000     0.00000
 Structure written by MMmdl.
 42 43  0  0  0  0  0  0  0  0  2 V2000
  148.9416  141.0928  155.1704 C   0  0  0  0  0  0  0  0  0  0  0  0
  149.9276  141.1713  156.3476 C   0  0  1  0  0  0  0  0  0  0  0  0
  151.3691  140.8023  155.9342 C   0  0  0  0  0  0  0  0  0  0  0  0
  151.4744  139.4646  155.3815 N   0  0  0  0  0  0  0  0  0  0  0  0
  152.0617  138.3678  155.8633 C   0  0  0  0  0  0  0  0  0  0  0  0
  151.9467  137.3094  155.0738 N   0  0  0  0  0  0  0  0  0  0  0  0
  151.2194  137.8601  154.0568 C   0  0  0  0  0  0  0  0  0  0  0  0
  150.9063  139.1487  154.1943 N   0  0  0  0  0  0  0  0  0  0  0  0
  149.8971  142.5338  156.9261 N   0  3  0  0  0  0  0  0  0  0  0  0
  151.1447  142.9969  157.5765 C   0  0  1  0  0  0  0  0  0  0  0  0
  151.2354  144.5364  157.6213 C   0  0  0  0  0  0  0  0  0  0  0  0
  152.4960  145.0072  158.3671 C   0  0  0  0  0  0  0  0  0  0  0  0
  152.5933  144.4218  159.7905 C   0  0  1  0  0  0  0  0  0  0  0  0
  151.5760  145.0770  160.7469 C   0  0  0  0  0  0  0  0  0  0  0  0
  152.5073  142.8755  159.7324 C   0  0  1  0  0  0  0  0  0  0  0  0
  152.6518  142.2054  161.1087 C   0  0  0  0  0  0  0  0  0  0  0  0
  151.2365  142.4061  158.9960 C   0  0  0  0  0  0  0  0  0  0  0  0
  148.8828  140.0832  154.7632 H   0  0  0  0  0  0  0  0  0  0  0  0
  149.2353  141.7618  154.3606 H   0  0  0  0  0  0  0  0  0  0  0  0
  147.9353  141.3717  155.4840 H   0  0  0  0  0  0  0  0  0  0  0  0
  149.5854  140.4587  157.0998 H   0  0  0  0  0  0  0  0  0  0  0  0
  151.7396  141.5096  155.1906 H   0  0  0  0  0  0  0  0  0  0  0  0
  152.0468  140.8678  156.7859 H   0  0  0  0  0  0  0  0  0  0  0  0
  152.5869  138.3427  156.8068 H   0  0  0  0  0  0  0  0  0  0  0  0
  150.9110  137.2942  153.1899 H   0  0  0  0  0  0  0  0  0  0  0  0
  149.6299  143.1931  156.2091 H   0  0  0  0  0  0  0  0  0  0  0  0
  151.9873  142.6098  157.0008 H   0  0  0  0  0  0  0  0  0  0  0  0
  151.2569  144.9449  156.6107 H   0  0  0  0  0  0  0  0  0  0  0  0
  150.3465  144.9493  158.0995 H   0  0  0  0  0  0  0  0  0  0  0  0
  153.3762  144.7068  157.7970 H   0  0  0  0  0  0  0  0  0  0  0  0
  152.5221  146.0969  158.4043 H   0  0  0  0  0  0  0  0  0  0  0  0
  153.5820  144.6801  160.1726 H   0  0  0  0  0  0  0  0  0  0  0  0
  150.5465  144.8365  160.4841 H   0  0  0  0  0  0  0  0  0  0  0  0
  151.6721  146.1630  160.7300 H   0  0  0  0  0  0  0  0  0  0  0  0
  151.7361  144.7627  161.7779 H   0  0  0  0  0  0  0  0  0  0  0  0
  153.3597  142.5367  159.1411 H   0  0  0  0  0  0  0  0  0  0  0  0
  151.7958  142.4104  161.7517 H   0  0  0  0  0  0  0  0  0  0  0  0
  153.5489  142.5518  161.6227 H   0  0  0  0  0  0  0  0  0  0  0  0
  152.7304  141.1225  161.0078 H   0  0  0  0  0  0  0  0  0  0  0  0
  150.3509  142.6783  159.5717 H   0  0  0  0  0  0  0  0  0  0  0  0
  151.2341  141.3168  158.9352 H   0  0  0  0  0  0  0  0  0  0  0  0
  149.1796  142.5349  157.6370 H   0  0  0  0  0  0  0  0  0  0  0  0
  1  2  1  0  0  0  0
  1 18  1  0  0  0  0
  1 19  1  0  0  0  0
  1 20  1  0  0  0  0
  2  3  1  0  0  0  0
  2  9  1  0  0  0  0
  2 21  1  0  0  0  0
  3  4  1  0  0  0  0
  3 22  1  0  0  0  0
  3 23  1  0  0  0  0
  4  8  1  0  0  0  0
  4  5  1  0  0  0  0
  5  6  2  0  0  0  0
  5 24  1  0  0  0  0
  6  7  1  0  0  0  0
  7  8  2  0  0  0  0
  7 25  1  0  0  0  0
  9 10  1  0  0  0  0
  9 26  1  0  0  0  0
  9 42  1  0  0  0  0
 10 17  1  0  0  0  0
 10 11  1  0  0  0  0
 10 27  1  0  0  0  0
 11 12  1  0  0  0  0
 11 28  1  0  0  0  0
 11 29  1  0  0  0  0
 12 13  1  0  0  0  0
 12 30  1  0  0  0  0
 12 31  1  0  0  0  0
 13 14  1  0  0  0  0
 13 15  1  0  0  0  0
 13 32  1  0  0  0  0
 14 33  1  0  0  0  0
 14 34  1  0  0  0  0
 14 35  1  0  0  0  0
 15 16  1  0  0  0  0
 15 17  1  0  0  0  0
 15 36  1  0  0  0  0
 16 37  1  0  0  0  0
 16 38  1  0  0  0  0
 16 39  1  0  0  0  0
 17 40  1  0  0  0  0
 17 41  1  0  0  0  0
M  CHG  1   9   1
M  END
> <s_m_source_file>
AV-unprocessed.smi

> <i_m_source_file_index>
3181

> <i_lp_mmshare_version>
43012

> <i_f3d_flags>
0

> <s_epik_input>
bjFbY0hdbltjSF1uMVtDSDJdW0NAQEhdKFtDSDNdKVtOSF1bQ0BASF0yW0NIMl1bQ0gyXVtDQEBIXShbQ0gzXSlbQ0BASF0oW0NIM10pW0NIMl0y

> <s_epik_cmdline>
J2VwaWtfcHl0aG9uJywgJy1waCcsICc3LjAnLCAnLXRuJywgJzgnLCAnLW1hJywgJzIwMCcsICctbWV0YWxfYmluZGluZycsICctaW1hZScsICc8aW5maWxlLm1hZT4nLCAnLW9tYWUnLCAnPG91dGZpbGUubWFlPic=

> <r_lp_tautomer_probability>
1

> <r_epik_Ionization_Penalty>
0.000617007

> <r_epik_Ionization_Penalty_Charging>
0.000616215

> <r_epik_Ionization_Penalty_Neutral>
7.92544e-07

> <r_epik_State_Penalty>
0.000388807

> <r_epik_Charging_Adjusted_Penalty>
0.00100502

> <i_epik_Tot_Q>
1

> <i_epik_Tot_abs_Q>
1

> <r_epik_Metal_State_Penalty>
-0

> <b_epik_Metal_Only>
0

> <s_lp_Force_Field>
OPLS_2005

> <r_lp_Energy>
21.3144

> <b_lp_Chiralities_Consistent>
1

> <s_lp_Variant>
AV-unprocessed.smi:3181-4

> <Gold.Version>
5.8.1

> <Gold.Id.Protein>
6NUR|6NUR_protein|mol2

> <Gold.PLP.Fitness>
52.6706

> <Gold.PLP.PLP>
-40.7409

> <Gold.PLP.part.hbond>
-3.0000

> <Gold.PLP.part.metal>
0.0000

> <Gold.PLP.part.buried>
-1.2075

> <Gold.PLP.part.nonpolar>
-37.2722

> <Gold.PLP.part.repulsive>
0.2696

> <Gold.PLP.ligand.clash>
0.0000

> <Gold.PLP.ligand.torsion>
0.6632

> <Gold.PLP.Chemscore.Hbond>
3.3620

> <Gold.PLP.Chemscore.CHOScore>
1.0522

> <Gold.PLP.Chemscore.Metal>
0.0000

> <Gold.Chemscore.Hbonds>
donor molecule, donor type, donor heavy atom, donor atom, acceptor molecule, acceptor atom, score
      L1  H     9    26       P1  8028  2.00
      P1  H  7989  7998       L1     8  0.40
      P1  H 10752 10765       L1     6  0.91
      L1  C     7    25       P1  7948  0.09
      L1  C     7    25       P1  7949  0.94

> <Gold.PLP.Chemscore.Internal.Correction>
0.0133

> <Gold.Rescore>
     Score         DG    S(hbond)    S(metal)    S(lipo)     H(rot)  DE(clash)    DE(int)     intcor
     16.85     -19.33       1.84        0.00     112.13       2.11       0.69       1.79       ----

> <Gold.Chemscore.Fitness>
16.8488

> <Gold.Chemscore.DG>
-19.3303

> <Gold.Chemscore.ZeroCoef>
-5.4800

> <Gold.Chemscore.Hbond>
1.8357

> <Gold.Chemscore.Metal>
0.0000

> <Gold.Chemscore.Lipo>
112.1325

> <Gold.Chemscore.Internal_Hbond>
0.0000

> <Gold.Chemscore.DEClash>
0.6929

> <Gold.Chemscore.DEInternal>
1.7886

> <Gold.Chemscore.Rot>
2.1095

> <Gold.Chemscore.Internal.Correction>
   9.000000E+99

> <Gold.Chemscore.Hbonds>
donor molecule, donor type, donor heavy atom, donor atom, acceptor molecule, acceptor atom, score
      L1  H     9    26       P1  8028  0.96
      P1  H  7989  7998       L1     8  0.01
      P1  H 10752 10765       L1     6  0.71

> <Gold.Chemscore.Hbond.Weighted>
-6.1311

> <Gold.Chemscore.Metal.Weighted>
-0.0000

> <Gold.Chemscore.Lipo.Weighted>
-13.1195

> <Gold.Chemscore.Internal_Hbond.Weighted>
0.0000

> <Gold.Chemscore.DEClash.Weighted>
0.6929

> <Gold.Chemscore.DEInternal.Weighted>
1.7886

> <Gold.Chemscore.Rot.Weighted>
5.4003

> <Gold.Chemscore.Internal.Correction.Weighted>
   9.000000E+99

> <Gold.Protein.RotatedTorsions>
[ 6907 6896 6895 6894 ] final  140.45 input  -60.11 | X-H torsion
[ 7974 7965 7964 7962 ] final -144.60 input  175.53 | X-H torsion
[ 8008 7997 7996 7995 ] final   93.69 input   59.86 | X-H torsion
[ 10167 10162 10161 10158 ] final   62.40 input  -65.29 | X-H torsion
[ 10718 10713 10712 10709 ] final  -64.98 input   66.30 | X-H torsion
[ 10763 10752 10751 10750 ] final  175.43 input  -60.55 | X-H torsion
[ 11005 11000 10999 10996 ] final  -72.93 input  -57.11 | X-H torsion

> <Gold.Protein.ActiveResidues>
 VAL166  LYS551  ARG553  GLY616  TRP617  ASP618  TYR619  PRO620  LYS621  CYS622 
 ASP623  PHE694  ASN695  SER759  ASP760  ASP761  ALA762  ILE779  LEU786  VAL792 
 PHE793  MET794  SER795  GLU796  ALA797  LYS798  CYS799  TRP800  GLU811  SER814 

> <Gold.Protein.RotatedAtoms>
  152.2429  133.5150  159.5280 H   0  0  0  0  0  0  0  0  0  0  0  0  # atno 6907 bound_to 6896
  150.7070  134.1065  159.3993 H   0  0  0  0  0  0  0  0  0  0  0  0  # atno 6908 bound_to 6896
  151.8985  135.0388  160.0555 H   0  0  0  0  0  0  0  0  0  0  0  0  # atno 6909 bound_to 6896
  144.8286  140.5689  143.5530 H   0  0  0  0  0  0  0  0  0  0  0  0  # atno 7974 bound_to 7965
  156.0495  140.3309  155.7335 H   0  0  0  0  0  0  0  0  0  0  0  0  # atno 8008 bound_to 7997
  155.5622  140.0620  157.2844 H   0  0  0  0  0  0  0  0  0  0  0  0  # atno 8009 bound_to 7997
  154.4429  140.1875  156.0782 H   0  0  0  0  0  0  0  0  0  0  0  0  # atno 8010 bound_to 7997
  140.1444  144.4523  150.6793 H   0  0  0  0  0  0  0  0  0  0  0  0  # atno 10167 bound_to 10162
  156.0696  130.4241  150.1498 H   0  0  0  0  0  0  0  0  0  0  0  0  # atno 10718 bound_to 10713
  154.4674  135.2770  155.1668 H   0  0  0  0  0  0  0  0  0  0  0  0  # atno 10763 bound_to 10752
  154.3430  135.6166  153.5609 H   0  0  0  0  0  0  0  0  0  0  0  0  # atno 10764 bound_to 10752
  152.9861  135.5793  154.5049 H   0  0  0  0  0  0  0  0  0  0  0  0  # atno 10765 bound_to 10752
  141.1616  133.6862  156.7135 H   0  0  0  0  0  0  0  0  0  0  0  0  # atno 11005 bound_to 11000
  145.4946  139.1486  143.3691 LP  0  0  0  0  0  0  0  0  0  0  0  0  # atno 17320 bound_to 7965
  146.2590  140.5084  142.8861 LP  0  0  0  0  0  0  0  0  0  0  0  0  # atno 17321 bound_to 7965
  140.6741  143.2298  151.5552 LP  0  0  0  0  0  0  0  0  0  0  0  0  # atno 17342 bound_to 10162
  139.5456  144.2529  152.1436 LP  0  0  0  0  0  0  0  0  0  0  0  0  # atno 17343 bound_to 10162
  156.9552  130.9787  151.3490 LP  0  0  0  0  0  0  0  0  0  0  0  0  # atno 17370 bound_to 10713
  157.5759  130.8343  149.8455 LP  0  0  0  0  0  0  0  0  0  0  0  0  # atno 17371 bound_to 10713
  140.2870  134.8271  157.3983 LP  0  0  0  0  0  0  0  0  0  0  0  0  # atno 17394 bound_to 11000
  140.1381  134.5007  155.8052 LP  0  0  0  0  0  0  0  0  0  0  0  0  # atno 17395 bound_to 11000

$$$$
