AV-unprocessed.smi:3035|AV-procd|sdf|11581|dock6
  -GOLD-   2272016553D 1   1.00000     0.00000
 Structure written by MMmdl.
 38 39  0  0  0  0  0  0  0  0  1 V2000
  156.7538  137.9043  154.5044 C   0  0  0  0  0  0  0  0  0  0  0  0
  155.4343  138.0934  154.9845 O   0  0  0  0  0  0  0  0  0  0  0  0
  154.5932  138.7216  154.0315 C   0  0  0  0  0  0  0  0  0  0  0  0
  153.1936  138.8132  154.5607 C   0  0  0  0  0  0  0  0  0  0  0  0
  152.5050  139.8702  154.7712 N   0  0  0  0  0  0  0  0  0  0  0  0
  151.3474  139.4011  155.2390 N   0  0  0  0  0  0  0  0  0  0  0  0
  150.2525  140.2966  155.5947 C   0  0  0  0  0  0  0  0  0  0  0  0
  150.0518  140.3530  157.1164 C   0  0  0  0  0  0  0  0  0  0  0  0
  151.1242  141.1086  157.7479 N   0  0  0  0  0  0  0  0  0  0  0  0
  150.9335  142.0822  158.6499 C   0  0  0  0  0  0  0  0  0  0  0  0
  149.8167  142.4334  159.0324 O   0  0  0  0  0  0  0  0  0  0  0  0
  152.1976  142.7634  159.2005 C   0  0  0  0  0  0  0  0  0  0  0  0
  152.2787  142.6772  160.7428 C   0  0  0  0  0  0  0  0  0  0  0  0
  152.2698  144.1165  161.2748 C   0  0  0  0  0  0  0  0  0  0  0  0
  151.7061  144.9650  160.1385 C   0  0  0  0  0  0  0  0  0  0  0  0
  152.2167  144.2699  158.8775 C   0  0  0  0  0  0  0  0  0  0  0  0
  151.3336  138.0210  155.3112 C   0  0  0  0  0  0  0  0  0  0  0  0
  150.4326  137.2731  155.6872 O   0  0  0  0  0  0  0  0  0  0  0  0
  152.5414  137.6462  154.8685 O   0  0  0  0  0  0  0  0  0  0  0  0
  157.3567  137.4177  155.2712 H   0  0  0  0  0  0  0  0  0  0  0  0
  157.2251  138.8574  154.2602 H   0  0  0  0  0  0  0  0  0  0  0  0
  156.7636  137.2711  153.6164 H   0  0  0  0  0  0  0  0  0  0  0  0
  154.9711  139.7196  153.8029 H   0  0  0  0  0  0  0  0  0  0  0  0
  154.5948  138.1536  153.1000 H   0  0  0  0  0  0  0  0  0  0  0  0
  150.4629  141.2936  155.2041 H   0  0  0  0  0  0  0  0  0  0  0  0
  149.3356  139.9610  155.1072 H   0  0  0  0  0  0  0  0  0  0  0  0
  149.0939  140.8208  157.3498 H   0  0  0  0  0  0  0  0  0  0  0  0
  150.0292  139.3444  157.5329 H   0  0  0  0  0  0  0  0  0  0  0  0
  152.0710  140.8771  157.4841 H   0  0  0  0  0  0  0  0  0  0  0  0
  153.0752  142.2905  158.7561 H   0  0  0  0  0  0  0  0  0  0  0  0
  151.4376  142.1242  161.1644 H   0  0  0  0  0  0  0  0  0  0  0  0
  153.1819  142.1561  161.0615 H   0  0  0  0  0  0  0  0  0  0  0  0
  151.6947  144.2184  162.1956 H   0  0  0  0  0  0  0  0  0  0  0  0
  153.2921  144.4314  161.4887 H   0  0  0  0  0  0  0  0  0  0  0  0
  150.6158  144.9396  160.1629 H   0  0  0  0  0  0  0  0  0  0  0  0
  152.0172  146.0083  160.1987 H   0  0  0  0  0  0  0  0  0  0  0  0
  153.2418  144.5843  158.6769 H   0  0  0  0  0  0  0  0  0  0  0  0
  151.6247  144.5354  158.0001 H   0  0  0  0  0  0  0  0  0  0  0  0
  1  2  1  0  0  0  0
  1 20  1  0  0  0  0
  1 21  1  0  0  0  0
  1 22  1  0  0  0  0
  2  3  1  0  0  0  0
  3  4  1  0  0  0  0
  3 23  1  0  0  0  0
  3 24  1  0  0  0  0
  4 19  1  0  0  0  0
  4  5  2  0  0  0  0
  5  6  1  0  0  0  0
  6  7  1  0  0  0  0
  6 17  1  0  0  0  0
  7  8  1  0  0  0  0
  7 25  1  0  0  0  0
  7 26  1  0  0  0  0
  8  9  1  0  0  0  0
  8 27  1  0  0  0  0
  8 28  1  0  0  0  0
  9 10  1  0  0  0  0
  9 29  1  0  0  0  0
 10 11  2  0  0  0  0
 10 12  1  0  0  0  0
 12 16  1  0  0  0  0
 12 13  1  0  0  0  0
 12 30  1  0  0  0  0
 13 14  1  0  0  0  0
 13 31  1  0  0  0  0
 13 32  1  0  0  0  0
 14 15  1  0  0  0  0
 14 33  1  0  0  0  0
 14 34  1  0  0  0  0
 15 16  1  0  0  0  0
 15 35  1  0  0  0  0
 15 36  1  0  0  0  0
 16 37  1  0  0  0  0
 16 38  1  0  0  0  0
 17 18  2  0  0  0  0
 17 19  1  0  0  0  0
M  END
> <s_m_source_file>
AV-unprocessed.smi

> <i_m_source_file_index>
3035

> <i_lp_mmshare_version>
43012

> <i_f3d_flags>
0

> <s_epik_input>
W0NIM11PW0NIMl1jMW5uKGMoPU8pbzEpW0NIMl1bQ0gyXVtOSF1DKD1PKVtDSF0yW0NIMl1bQ0gyXVtDSDJdW0NIMl0y

> <s_epik_cmdline>
J2VwaWtfcHl0aG9uJywgJy1waCcsICc3LjAnLCAnLXRuJywgJzgnLCAnLW1hJywgJzIwMCcsICctbWV0YWxfYmluZGluZycsICctaW1hZScsICc8aW5maWxlLm1hZT4nLCAnLW9tYWUnLCAnPG91dGZpbGUubWFlPic=

> <r_lp_tautomer_probability>
1

> <r_epik_Ionization_Penalty>
6.81406e-08

> <r_epik_Ionization_Penalty_Charging>
1.21446e-09

> <r_epik_Ionization_Penalty_Neutral>
6.69261e-08

> <r_epik_State_Penalty>
-0

> <r_epik_Charging_Adjusted_Penalty>
1.21446e-09

> <i_epik_Tot_Q>
0

> <i_epik_Tot_abs_Q>
0

> <r_epik_Metal_State_Penalty>
-0

> <b_epik_Metal_Only>
0

> <s_lp_Force_Field>
OPLS_2005

> <r_lp_Energy>
26.4396

> <b_lp_Chiralities_Consistent>
1

> <s_lp_Variant>
AV-unprocessed.smi:3035-1

> <Gold.Version>
5.8.1

> <Gold.Id.Protein>
6NUR|6NUR_protein|mol2

> <Gold.PLP.Fitness>
44.2821

> <Gold.PLP.PLP>
-40.9648

> <Gold.PLP.part.hbond>
-4.4106

> <Gold.PLP.part.metal>
0.0000

> <Gold.PLP.part.buried>
-6.2690

> <Gold.PLP.part.nonpolar>
-31.8522

> <Gold.PLP.part.repulsive>
0.2981

> <Gold.PLP.ligand.clash>
0.0000

> <Gold.PLP.ligand.torsion>
0.2397

> <Gold.PLP.Chemscore.Hbond>
1.2576

> <Gold.PLP.Chemscore.CHOScore>
0.0000

> <Gold.PLP.Chemscore.Metal>
0.0000

> <Gold.Chemscore.Hbonds>
donor molecule, donor type, donor heavy atom, donor atom, acceptor molecule, acceptor atom, score
      P1  H  7989  7998       L1     5  0.37
      P1  H 10752 10763       L1    19  0.45

> <Gold.PLP.Chemscore.Internal.Correction>
0.0240

> <Gold.Rescore>
     Score         DG    S(hbond)    S(metal)    S(lipo)     H(rot)  DE(clash)    DE(int)     intcor
     13.72     -14.56       1.50        0.00      86.38       2.36       0.62       0.22       ----

> <Gold.Chemscore.Fitness>
13.7212

> <Gold.Chemscore.DG>
-14.5597

> <Gold.Chemscore.ZeroCoef>
-5.4800

> <Gold.Chemscore.Hbond>
1.5005

> <Gold.Chemscore.Metal>
0.0000

> <Gold.Chemscore.Lipo>
86.3784

> <Gold.Chemscore.Internal_Hbond>
0.0000

> <Gold.Chemscore.DEClash>
0.6168

> <Gold.Chemscore.DEInternal>
0.2217

> <Gold.Chemscore.Rot>
2.3587

> <Gold.Chemscore.Internal.Correction>
   9.000000E+99

> <Gold.Chemscore.Hbonds>
donor molecule, donor type, donor heavy atom, donor atom, acceptor molecule, acceptor atom, score
      P1  H  7989  7998       L1     5  0.03
      P1  H 10752 10763       L1    19  0.42

> <Gold.Chemscore.Hbond.Weighted>
-5.0116

> <Gold.Chemscore.Metal.Weighted>
-0.0000

> <Gold.Chemscore.Lipo.Weighted>
-10.1063

> <Gold.Chemscore.Internal_Hbond.Weighted>
0.0000

> <Gold.Chemscore.DEClash.Weighted>
0.6168

> <Gold.Chemscore.DEInternal.Weighted>
0.2217

> <Gold.Chemscore.Rot.Weighted>
6.0382

> <Gold.Chemscore.Internal.Correction.Weighted>
   9.000000E+99

> <Gold.Protein.RotatedTorsions>
[ 6907 6896 6895 6894 ] final  -38.66 input  -60.11 | X-H torsion
[ 7974 7965 7964 7962 ] final -101.22 input  175.53 | X-H torsion
[ 8008 7997 7996 7995 ] final  -50.67 input   59.86 | X-H torsion
[ 10167 10162 10161 10158 ] final    3.62 input  -65.29 | X-H torsion
[ 10718 10713 10712 10709 ] final   25.47 input   66.30 | X-H torsion
[ 10763 10752 10751 10750 ] final   61.50 input  -60.55 | X-H torsion
[ 11005 11000 10999 10996 ] final  -96.22 input  -57.11 | X-H torsion

> <Gold.Protein.ActiveResidues>
 VAL166  LYS551  ARG553  GLY616  TRP617  ASP618  TYR619  PRO620  LYS621  CYS622 
 ASP623  PHE694  ASN695  SER759  ASP760  ASP761  ALA762  ILE779  LEU786  VAL792 
 PHE793  MET794  SER795  GLU796  ALA797  LYS798  CYS799  TRP800  GLU811  SER814 

> <Gold.Protein.RotatedAtoms>
  150.9997  134.9312  159.7946 H   0  0  0  0  0  0  0  0  0  0  0  0  # atno 6907 bound_to 6896
  152.5274  134.3171  159.9145 H   0  0  0  0  0  0  0  0  0  0  0  0  # atno 6908 bound_to 6896
  151.3177  133.4012  159.2686 H   0  0  0  0  0  0  0  0  0  0  0  0  # atno 6909 bound_to 6896
  145.2844  140.9335  143.2913 H   0  0  0  0  0  0  0  0  0  0  0  0  # atno 7974 bound_to 7965
  154.4066  140.1266  156.4703 H   0  0  0  0  0  0  0  0  0  0  0  0  # atno 8008 bound_to 7997
  155.7186  140.3493  155.4986 H   0  0  0  0  0  0  0  0  0  0  0  0  # atno 8009 bound_to 7997
  155.9235  140.1057  157.1178 H   0  0  0  0  0  0  0  0  0  0  0  0  # atno 8010 bound_to 7997
  140.6576  143.7386  150.7682 H   0  0  0  0  0  0  0  0  0  0  0  0  # atno 10167 bound_to 10162
  157.1938  130.6858  149.6160 H   0  0  0  0  0  0  0  0  0  0  0  0  # atno 10718 bound_to 10713
  152.9952  135.5498  154.6044 H   0  0  0  0  0  0  0  0  0  0  0  0  # atno 10763 bound_to 10752
  154.5378  135.2818  155.1124 H   0  0  0  0  0  0  0  0  0  0  0  0  # atno 10764 bound_to 10752
  154.2414  135.6415  153.5261 H   0  0  0  0  0  0  0  0  0  0  0  0  # atno 10765 bound_to 10752
  141.1418  133.8082  157.0541 H   0  0  0  0  0  0  0  0  0  0  0  0  # atno 11005 bound_to 11000
  144.9226  139.4394  143.6534 LP  0  0  0  0  0  0  0  0  0  0  0  0  # atno 17320 bound_to 7965
  146.3206  139.8094  142.8949 LP  0  0  0  0  0  0  0  0  0  0  0  0  # atno 17321 bound_to 7965
  140.1049  143.4753  152.2404 LP  0  0  0  0  0  0  0  0  0  0  0  0  # atno 17342 bound_to 10162
  139.5803  144.7507  151.3658 LP  0  0  0  0  0  0  0  0  0  0  0  0  # atno 17343 bound_to 10162
  155.9708  130.4606  150.6078 LP  0  0  0  0  0  0  0  0  0  0  0  0  # atno 17370 bound_to 10713
  157.3835  131.0784  151.1456 LP  0  0  0  0  0  0  0  0  0  0  0  0  # atno 17371 bound_to 10713
  140.0613  134.9753  157.1309 LP  0  0  0  0  0  0  0  0  0  0  0  0  # atno 17394 bound_to 11000
  140.3844  134.2252  155.7169 LP  0  0  0  0  0  0  0  0  0  0  0  0  # atno 17395 bound_to 11000

$$$$
