AV-unprocessed.smi:2776|AV-procd|sdf|10705|dock2
  -GOLD-   2272015143D 1   1.00000     0.00000
 Structure written by MMmdl.
 25 26  0  0  0  0  0  0  0  0  1 V2000
  149.6464  140.9145  153.4215 O   0  0  0  0  0  0  0  0  0  0  0  0
  148.7434  140.7688  154.5014 C   0  0  1  0  0  0  0  0  0  0  0  0
  149.1657  141.6973  155.6576 C   0  0  0  0  0  0  0  0  0  0  0  0
  150.2273  141.1283  156.4687 N   0  0  0  0  0  0  0  0  0  0  0  0
  150.7507  139.8917  156.3651 C   0  0  0  0  0  0  0  0  0  0  0  0
  151.7229  139.5683  157.2130 N   0  0  0  0  0  0  0  0  0  0  0  0
  151.8444  140.7302  157.9556 C   0  0  0  0  0  0  0  0  0  0  0  0
  152.7088  141.0475  159.0275 C   0  0  0  0  0  0  0  0  0  0  0  0
  152.6535  142.3176  159.6388 C   0  0  0  0  0  0  0  0  0  0  0  0
  153.4899  142.6053  160.6642 F   0  0  0  0  0  0  0  0  0  0  0  0
  151.7342  143.2881  159.1877 C   0  0  0  0  0  0  0  0  0  0  0  0
  151.6878  144.5050  159.7794 F   0  0  0  0  0  0  0  0  0  0  0  0
  150.8636  142.9951  158.1206 C   0  0  0  0  0  0  0  0  0  0  0  0
  150.9219  141.7265  157.5147 C   0  0  0  0  0  0  0  0  0  0  0  0
  147.3105  141.0431  154.0057 C   0  0  0  0  0  0  0  0  0  0  0  0
  147.0781  140.3714  152.8778 F   0  0  0  0  0  0  0  0  0  0  0  0
  146.4368  140.6242  154.9213 F   0  0  0  0  0  0  0  0  0  0  0  0
  147.1176  142.3461  153.7977 F   0  0  0  0  0  0  0  0  0  0  0  0
  149.4492  140.2549  152.7743 H   0  0  0  0  0  0  0  0  0  0  0  0
  148.8031  139.7334  154.8396 H   0  0  0  0  0  0  0  0  0  0  0  0
  149.5000  142.6617  155.2734 H   0  0  0  0  0  0  0  0  0  0  0  0
  148.3139  141.9007  156.3077 H   0  0  0  0  0  0  0  0  0  0  0  0
  150.3983  139.1895  155.6238 H   0  0  0  0  0  0  0  0  0  0  0  0
  153.4169  140.3127  159.3803 H   0  0  0  0  0  0  0  0  0  0  0  0
  150.1614  143.7376  157.7714 H   0  0  0  0  0  0  0  0  0  0  0  0
  1  2  1  0  0  0  0
  1 19  1  0  0  0  0
  2  3  1  0  0  0  0
  2 15  1  0  0  0  0
  2 20  1  0  0  0  0
  3  4  1  0  0  0  0
  3 21  1  0  0  0  0
  3 22  1  0  0  0  0
  4 14  1  0  0  0  0
  4  5  1  0  0  0  0
  5  6  2  0  0  0  0
  5 23  1  0  0  0  0
  6  7  1  0  0  0  0
  7 14  2  0  0  0  0
  7  8  1  0  0  0  0
  8  9  2  0  0  0  0
  8 24  1  0  0  0  0
  9 10  1  0  0  0  0
  9 11  1  0  0  0  0
 11 12  1  0  0  0  0
 11 13  2  0  0  0  0
 13 14  1  0  0  0  0
 13 25  1  0  0  0  0
 15 16  1  0  0  0  0
 15 17  1  0  0  0  0
 15 18  1  0  0  0  0
M  END
> <s_m_source_file>
AV-unprocessed.smi

> <i_m_source_file_index>
2776

> <i_lp_mmshare_version>
43012

> <i_f3d_flags>
0

> <s_epik_input>
RkMoRikoRilbQ0BIXShbT0hdKVtDSDJdbihbY0hdbjEpYyhjMTIpW2NIXWMoRiljKEYpW2NIXTI=

> <s_epik_cmdline>
J2VwaWtfcHl0aG9uJywgJy1waCcsICc3LjAnLCAnLXRuJywgJzgnLCAnLW1hJywgJzIwMCcsICctbWV0YWxfYmluZGluZycsICctaW1hZScsICc8aW5maWxlLm1hZT4nLCAnLW9tYWUnLCAnPG91dGZpbGUubWFlPic=

> <r_epik_Ionization_Penalty>
0.0162713

> <r_epik_Ionization_Penalty_Charging>
0

> <r_epik_Ionization_Penalty_Neutral>
0.0162713

> <r_epik_State_Penalty>
0.00836517

> <r_epik_Charging_Adjusted_Penalty>
0.00836517

> <i_epik_Tot_Q>
0

> <i_epik_Tot_abs_Q>
0

> <r_epik_Metal_State_Penalty>
8.42444e-06

> <b_epik_Metal_Only>
0

> <s_lp_Force_Field>
OPLS_2005

> <r_lp_Energy>
8.8272

> <b_lp_Chiralities_Consistent>
1

> <s_lp_Variant>
AV-unprocessed.smi:2776-2

> <Gold.Version>
5.8.1

> <Gold.Id.Protein>
6NUR|6NUR_protein|mol2

> <Gold.PLP.Fitness>
44.8407

> <Gold.PLP.PLP>
-39.6859

> <Gold.PLP.part.hbond>
-2.5968

> <Gold.PLP.part.metal>
0.0000

> <Gold.PLP.part.buried>
-2.6773

> <Gold.PLP.part.nonpolar>
-34.3702

> <Gold.PLP.part.repulsive>
0.0000

> <Gold.PLP.ligand.clash>
0.0000

> <Gold.PLP.ligand.torsion>
0.4871

> <Gold.PLP.Chemscore.Hbond>
2.0400

> <Gold.PLP.Chemscore.CHOScore>
0.0000

> <Gold.PLP.Chemscore.Metal>
0.0000

> <Gold.Chemscore.Hbonds>
donor molecule, donor type, donor heavy atom, donor atom, acceptor molecule, acceptor atom, score
      L1  H     1    19       P1  7957  0.75
      P1  H  7989  7998       L1     1  0.27
      P1  H  8011  8017       L1     1  1.00

> <Gold.PLP.Chemscore.Internal.Correction>
0.0089

> <Gold.Rescore>
     Score         DG    S(hbond)    S(metal)    S(lipo)     H(rot)  DE(clash)    DE(int)     intcor
     12.56     -13.13       1.37        0.00      71.72       2.08       0.12       0.45       ----

> <Gold.Chemscore.Fitness>
12.5558

> <Gold.Chemscore.DG>
-13.1267

> <Gold.Chemscore.ZeroCoef>
-5.4800

> <Gold.Chemscore.Hbond>
1.3747

> <Gold.Chemscore.Metal>
0.0000

> <Gold.Chemscore.Lipo>
71.7152

> <Gold.Chemscore.Internal_Hbond>
0.0000

> <Gold.Chemscore.DEClash>
0.1173

> <Gold.Chemscore.DEInternal>
0.4536

> <Gold.Chemscore.Rot>
2.0841

> <Gold.Chemscore.Internal.Correction>
   9.000000E+99

> <Gold.Chemscore.Hbonds>
donor molecule, donor type, donor heavy atom, donor atom, acceptor molecule, acceptor atom, score
      L1  H     1    19       P1  7957  0.75
      P1  H  7989  7998       L1     1  0.09
      P1  H  8011  8017       L1     1  0.25

> <Gold.Chemscore.Hbond.Weighted>
-4.5914

> <Gold.Chemscore.Metal.Weighted>
-0.0000

> <Gold.Chemscore.Lipo.Weighted>
-8.3907

> <Gold.Chemscore.Internal_Hbond.Weighted>
0.0000

> <Gold.Chemscore.DEClash.Weighted>
0.1173

> <Gold.Chemscore.DEInternal.Weighted>
0.4536

> <Gold.Chemscore.Rot.Weighted>
5.3353

> <Gold.Chemscore.Internal.Correction.Weighted>
   9.000000E+99

> <Gold.Protein.RotatedTorsions>
[ 6907 6896 6895 6894 ] final  164.57 input  -60.11 | X-H torsion
[ 7974 7965 7964 7962 ] final  133.54 input  175.53 | X-H torsion
[ 8008 7997 7996 7995 ] final   34.60 input   59.86 | X-H torsion
[ 10167 10162 10161 10158 ] final  -36.47 input  -65.29 | X-H torsion
[ 10718 10713 10712 10709 ] final -126.32 input   66.30 | X-H torsion
[ 10763 10752 10751 10750 ] final  -91.26 input  -60.55 | X-H torsion
[ 11005 11000 10999 10996 ] final  -76.23 input  -57.11 | X-H torsion

> <Gold.Protein.ActiveResidues>
 VAL166  LYS551  ARG553  GLY616  TRP617  ASP618  TYR619  PRO620  LYS621  CYS622 
 ASP623  PHE694  ASN695  SER759  ASP760  ASP761  ALA762  ILE779  LEU786  VAL792 
 PHE793  MET794  SER795  GLU796  ALA797  LYS798  CYS799  TRP800  GLU811  SER814 

> <Gold.Protein.RotatedAtoms>
  151.9079  133.3554  159.3852 H   0  0  0  0  0  0  0  0  0  0  0  0  # atno 6907 bound_to 6896
  150.7065  134.4762  159.5458 H   0  0  0  0  0  0  0  0  0  0  0  0  # atno 6908 bound_to 6896
  152.2363  134.8273  160.0517 H   0  0  0  0  0  0  0  0  0  0  0  0  # atno 6909 bound_to 6896
  144.9855  139.4460  143.5365 H   0  0  0  0  0  0  0  0  0  0  0  0  # atno 7974 bound_to 7965
  155.1575  140.3280  155.4418 H   0  0  0  0  0  0  0  0  0  0  0  0  # atno 8008 bound_to 7997
  156.2554  140.1966  156.6634 H   0  0  0  0  0  0  0  0  0  0  0  0  # atno 8009 bound_to 7997
  154.6429  140.0568  156.9852 H   0  0  0  0  0  0  0  0  0  0  0  0  # atno 8010 bound_to 7997
  140.7142  143.3407  151.2364 H   0  0  0  0  0  0  0  0  0  0  0  0  # atno 10167 bound_to 10162
  156.1755  130.6696  151.0236 H   0  0  0  0  0  0  0  0  0  0  0  0  # atno 10718 bound_to 10713
  154.6742  135.5274  153.8178 H   0  0  0  0  0  0  0  0  0  0  0  0  # atno 10763 bound_to 10752
  153.0521  135.6536  154.0677 H   0  0  0  0  0  0  0  0  0  0  0  0  # atno 10764 bound_to 10752
  154.0572  135.2964  155.3310 H   0  0  0  0  0  0  0  0  0  0  0  0  # atno 10765 bound_to 10752
  141.1652  133.6976  156.7637 H   0  0  0  0  0  0  0  0  0  0  0  0  # atno 11005 bound_to 11000
  146.3419  139.9155  142.8774 LP  0  0  0  0  0  0  0  0  0  0  0  0  # atno 17320 bound_to 7965
  145.2359  140.9991  143.3963 LP  0  0  0  0  0  0  0  0  0  0  0  0  # atno 17321 bound_to 7965
  139.6913  143.9687  152.2861 LP  0  0  0  0  0  0  0  0  0  0  0  0  # atno 17342 bound_to 10162
  139.9349  144.6718  150.8325 LP  0  0  0  0  0  0  0  0  0  0  0  0  # atno 17343 bound_to 10162
  157.6832  131.0832  150.7313 LP  0  0  0  0  0  0  0  0  0  0  0  0  # atno 17370 bound_to 10713
  156.7371  130.4727  149.5486 LP  0  0  0  0  0  0  0  0  0  0  0  0  # atno 17371 bound_to 10713
  140.2515  134.8537  157.3671 LP  0  0  0  0  0  0  0  0  0  0  0  0  # atno 17394 bound_to 11000
  140.1698  134.4623  155.7839 LP  0  0  0  0  0  0  0  0  0  0  0  0  # atno 17395 bound_to 11000

$$$$
