AV-unprocessed.smi:152|AV-procd|sdf|1249|dock4
  -GOLD-   2262018473D 1   1.00000     0.00000
 Structure written by MMmdl.
 58 61  0  0  0  0  0  0  0  0  2 V2000
  146.7934  128.9042  151.6781 C   0  0  0  0  0  0  0  0  0  0  0  0
  146.5964  129.9385  152.7946 C   0  0  0  0  0  0  0  0  0  0  0  0
  147.0161  131.2981  152.3748 N   0  3  1  0  0  0  0  0  0  0  0  0
  146.1245  131.9352  151.3726 C   0  0  0  0  0  0  0  0  0  0  0  0
  145.7697  133.3249  151.9082 C   0  0  0  0  0  0  0  0  0  0  0  0
  146.8814  133.6256  152.9024 C   0  0  0  0  0  0  0  0  0  0  0  0
  147.1930  132.2500  153.4968 C   0  0  2  0  0  0  0  0  0  0  0  0
  148.6101  132.1589  154.1057 C   0  0  0  0  0  0  0  0  0  0  0  0
  148.7806  132.9602  155.3171 N   0  0  0  0  0  0  0  0  0  0  0  0
  150.0606  133.6333  155.4887 C   0  0  0  0  0  0  0  0  0  0  0  0
  148.2955  132.4807  156.4878 C   0  0  0  0  0  0  0  0  0  0  0  0
  148.0126  131.1548  156.5358 N   0  0  0  0  0  0  0  0  0  0  0  0
  147.5392  130.6084  157.6595 C   0  0  0  0  0  0  0  0  0  0  0  0
  147.2764  131.1979  158.8269 N   0  0  0  0  0  0  0  0  0  0  0  0
  147.5412  132.5346  158.7794 C   0  0  0  0  0  0  0  0  0  0  0  0
  148.0500  133.2540  157.6606 C   0  0  0  0  0  0  0  0  0  0  0  0
  148.1900  134.5974  157.9916 N   0  0  0  0  0  0  0  0  0  0  0  0
  147.7924  134.6664  159.2323 C   0  0  0  0  0  0  0  0  0  0  0  0
  147.3781  133.4748  159.7818 N   0  0  0  0  0  0  0  0  0  0  0  0
  146.8864  133.2659  161.1350 C   0  0  0  0  0  0  0  0  0  0  0  0
  146.5222  134.5717  161.8853 C   0  0  0  0  0  0  0  0  0  0  0  0
  145.9196  134.2118  163.1160 O   0  0  0  0  0  0  0  0  0  0  0  0
  147.7961  135.3861  162.1882 C   0  0  0  0  0  0  0  0  0  0  0  0
  147.4748  136.7701  162.7795 C   0  0  0  0  0  0  0  0  0  0  0  0
  146.6026  137.4791  161.9079 O   0  0  0  0  0  0  0  0  0  0  0  0
  145.3429  136.8377  161.7504 C   0  0  0  0  0  0  0  0  0  0  0  0
  145.5288  135.4554  161.0993 C   0  0  0  0  0  0  0  0  0  0  0  0
  146.5173  127.9080  152.0245 H   0  0  0  0  0  0  0  0  0  0  0  0
  147.8344  128.8660  151.3563 H   0  0  0  0  0  0  0  0  0  0  0  0
  146.1803  129.1282  150.8050 H   0  0  0  0  0  0  0  0  0  0  0  0
  145.5566  129.9540  153.1247 H   0  0  0  0  0  0  0  0  0  0  0  0
  147.1907  129.6305  153.6551 H   0  0  0  0  0  0  0  0  0  0  0  0
  146.6707  132.0147  150.4322 H   0  0  0  0  0  0  0  0  0  0  0  0
  145.2207  131.3555  151.1792 H   0  0  0  0  0  0  0  0  0  0  0  0
  145.6909  134.0749  151.1205 H   0  0  0  0  0  0  0  0  0  0  0  0
  144.8126  133.2861  152.4304 H   0  0  0  0  0  0  0  0  0  0  0  0
  147.7506  134.0196  152.3738 H   0  0  0  0  0  0  0  0  0  0  0  0
  146.5870  134.3556  153.6574 H   0  0  0  0  0  0  0  0  0  0  0  0
  146.4299  132.0240  154.2432 H   0  0  0  0  0  0  0  0  0  0  0  0
  148.8745  131.1242  154.3209 H   0  0  0  0  0  0  0  0  0  0  0  0
  149.3358  132.4970  153.3653 H   0  0  0  0  0  0  0  0  0  0  0  0
  150.8048  132.9480  155.8973 H   0  0  0  0  0  0  0  0  0  0  0  0
  149.9676  134.4831  156.1661 H   0  0  0  0  0  0  0  0  0  0  0  0
  150.4321  134.0093  154.5354 H   0  0  0  0  0  0  0  0  0  0  0  0
  147.3413  129.5474  157.6173 H   0  0  0  0  0  0  0  0  0  0  0  0
  147.7822  135.5962  159.7826 H   0  0  0  0  0  0  0  0  0  0  0  0
  146.0227  132.6010  161.0881 H   0  0  0  0  0  0  0  0  0  0  0  0
  147.6551  132.7236  161.6871 H   0  0  0  0  0  0  0  0  0  0  0  0
  146.3051  133.4024  163.4150 H   0  0  0  0  0  0  0  0  0  0  0  0
  148.4531  134.8340  162.8615 H   0  0  0  0  0  0  0  0  0  0  0  0
  148.3586  135.5308  161.2649 H   0  0  0  0  0  0  0  0  0  0  0  0
  147.0271  136.6822  163.7706 H   0  0  0  0  0  0  0  0  0  0  0  0
  148.3930  137.3453  162.8999 H   0  0  0  0  0  0  0  0  0  0  0  0
  144.8426  136.7534  162.7162 H   0  0  0  0  0  0  0  0  0  0  0  0
  144.7081  137.4625  161.1218 H   0  0  0  0  0  0  0  0  0  0  0  0
  145.9002  135.5970  160.0837 H   0  0  0  0  0  0  0  0  0  0  0  0
  144.5595  134.9639  161.0062 H   0  0  0  0  0  0  0  0  0  0  0  0
  147.9211  131.2109  151.9351 H   0  0  0  0  0  0  0  0  0  0  0  0
  1  2  1  0  0  0  0
  1 28  1  0  0  0  0
  1 29  1  0  0  0  0
  1 30  1  0  0  0  0
  2  3  1  0  0  0  0
  2 31  1  0  0  0  0
  2 32  1  0  0  0  0
  3  7  1  0  0  0  0
  3  4  1  0  0  0  0
  3 58  1  0  0  0  0
  4  5  1  0  0  0  0
  4 33  1  0  0  0  0
  4 34  1  0  0  0  0
  5  6  1  0  0  0  0
  5 35  1  0  0  0  0
  5 36  1  0  0  0  0
  6  7  1  0  0  0  0
  6 37  1  0  0  0  0
  6 38  1  0  0  0  0
  7  8  1  0  0  0  0
  7 39  1  0  0  0  0
  8  9  1  0  0  0  0
  8 40  1  0  0  0  0
  8 41  1  0  0  0  0
  9 10  1  0  0  0  0
  9 11  1  0  0  0  0
 10 42  1  0  0  0  0
 10 43  1  0  0  0  0
 10 44  1  0  0  0  0
 11 16  1  0  0  0  0
 11 12  2  0  0  0  0
 12 13  1  0  0  0  0
 13 14  2  0  0  0  0
 13 45  1  0  0  0  0
 14 15  1  0  0  0  0
 15 19  1  0  0  0  0
 15 16  2  0  0  0  0
 16 17  1  0  0  0  0
 17 18  2  0  0  0  0
 18 19  1  0  0  0  0
 18 46  1  0  0  0  0
 19 20  1  0  0  0  0
 20 21  1  0  0  0  0
 20 47  1  0  0  0  0
 20 48  1  0  0  0  0
 21 27  1  0  0  0  0
 21 22  1  0  0  0  0
 21 23  1  0  0  0  0
 22 49  1  0  0  0  0
 23 24  1  0  0  0  0
 23 50  1  0  0  0  0
 23 51  1  0  0  0  0
 24 25  1  0  0  0  0
 24 52  1  0  0  0  0
 24 53  1  0  0  0  0
 25 26  1  0  0  0  0
 26 27  1  0  0  0  0
 26 54  1  0  0  0  0
 26 55  1  0  0  0  0
 27 56  1  0  0  0  0
 27 57  1  0  0  0  0
M  CHG  1   3   1
M  END
> <s_m_source_file>
AV-unprocessed.smi

> <i_m_source_file_index>
152

> <i_lp_mmshare_version>
43012

> <i_f3d_flags>
0

> <s_epik_input>
W0NIM11bQ0gyXU4xW0NIMl1bQ0gyXVtDSDJdW0NASF0xW0NIMl1OKFtDSDNdKWMobltjSF1uMiljKGMyMyluW2NIXW4zW0NIMl1DNChbT0hdKVtDSDJdW0NIMl1PW0NIMl1bQ0gyXTQ=

> <s_epik_cmdline>
J2VwaWtfcHl0aG9uJywgJy1waCcsICc3LjAnLCAnLXRuJywgJzgnLCAnLW1hJywgJzIwMCcsICctbWV0YWxfYmluZGluZycsICctaW1hZScsICc8aW5maWxlLm1hZT4nLCAnLW9tYWUnLCAnPG91dGZpbGUubWFlPic=

> <r_lp_tautomer_probability>
1

> <r_epik_Ionization_Penalty>
0.00152183

> <r_epik_Ionization_Penalty_Charging>
0.00112577

> <r_epik_Ionization_Penalty_Neutral>
0.000396066

> <r_epik_State_Penalty>
-0

> <r_epik_Charging_Adjusted_Penalty>
0.00112577

> <i_epik_Tot_Q>
1

> <i_epik_Tot_abs_Q>
1

> <r_epik_Metal_State_Penalty>
-0

> <b_epik_Metal_Only>
0

> <s_lp_Force_Field>
OPLS_2005

> <r_lp_Energy>
45.0855

> <b_lp_Chiralities_Consistent>
1

> <s_lp_Variant>
AV-unprocessed.smi:152-4

> <Gold.Version>
5.8.1

> <Gold.Id.Protein>
6NUR|6NUR_protein|mol2

> <Gold.PLP.Fitness>
43.2370

> <Gold.PLP.PLP>
-38.6348

> <Gold.PLP.part.hbond>
-3.0000

> <Gold.PLP.part.metal>
0.0000

> <Gold.PLP.part.buried>
-5.2463

> <Gold.PLP.part.nonpolar>
-30.0741

> <Gold.PLP.part.repulsive>
0.0120

> <Gold.PLP.ligand.clash>
0.0000

> <Gold.PLP.ligand.torsion>
0.9207

> <Gold.PLP.Chemscore.Hbond>
1.8560

> <Gold.PLP.Chemscore.CHOScore>
0.0000

> <Gold.PLP.Chemscore.Metal>
0.0000

> <Gold.Chemscore.Hbonds>
donor molecule, donor type, donor heavy atom, donor atom, acceptor molecule, acceptor atom, score
      L1  H     3    58       P1 10747  0.98
      P1  H  6934  6947       L1    25  0.85

> <Gold.PLP.Chemscore.Internal.Correction>
0.8756

> <Gold.Rescore>
     Score         DG    S(hbond)    S(metal)    S(lipo)     H(rot)  DE(clash)    DE(int)     intcor
     14.10     -16.17       1.93        0.00      95.98       2.73       0.07       2.00       ----

> <Gold.Chemscore.Fitness>
14.0959

> <Gold.Chemscore.DG>
-16.1663

> <Gold.Chemscore.ZeroCoef>
-5.4800

> <Gold.Chemscore.Hbond>
1.9334

> <Gold.Chemscore.Metal>
0.0000

> <Gold.Chemscore.Lipo>
95.9817

> <Gold.Chemscore.Internal_Hbond>
0.0000

> <Gold.Chemscore.DEClash>
0.0707

> <Gold.Chemscore.DEInternal>
1.9997

> <Gold.Chemscore.Rot>
2.7348

> <Gold.Chemscore.Internal.Correction>
   9.000000E+99

> <Gold.Chemscore.Hbonds>
donor molecule, donor type, donor heavy atom, donor atom, acceptor molecule, acceptor atom, score
      L1  H     3    58       P1 10747  0.90
      P1  H  6934  6947       L1    25  0.84

> <Gold.Chemscore.Hbond.Weighted>
-6.4575

> <Gold.Chemscore.Metal.Weighted>
-0.0000

> <Gold.Chemscore.Lipo.Weighted>
-11.2299

> <Gold.Chemscore.Internal_Hbond.Weighted>
0.0000

> <Gold.Chemscore.DEClash.Weighted>
0.0707

> <Gold.Chemscore.DEInternal.Weighted>
1.9997

> <Gold.Chemscore.Rot.Weighted>
7.0010

> <Gold.Chemscore.Internal.Correction.Weighted>
   9.000000E+99

> <Gold.Protein.RotatedTorsions>
[ 6907 6896 6895 6894 ] final  -46.23 input  -60.11 | X-H torsion
[ 7974 7965 7964 7962 ] final   78.37 input  175.53 | X-H torsion
[ 8008 7997 7996 7995 ] final  -46.57 input   59.86 | X-H torsion
[ 10167 10162 10161 10158 ] final  142.49 input  -65.29 | X-H torsion
[ 10718 10713 10712 10709 ] final   -4.25 input   66.30 | X-H torsion
[ 10763 10752 10751 10750 ] final -174.83 input  -60.55 | X-H torsion
[ 11005 11000 10999 10996 ] final -128.23 input  -57.11 | X-H torsion

> <Gold.Protein.ActiveResidues>
 VAL166  LYS551  ARG553  GLY616  TRP617  ASP618  TYR619  PRO620  LYS621  CYS622 
 ASP623  PHE694  ASN695  SER759  ASP760  ASP761  ALA762  ILE779  LEU786  VAL792 
 PHE793  MET794  SER795  GLU796  ALA797  LYS798  CYS799  TRP800  GLU811  SER814 

> <Gold.Protein.RotatedAtoms>
  150.9135  134.8552  159.7440 H   0  0  0  0  0  0  0  0  0  0  0  0  # atno 6907 bound_to 6896
  152.4956  134.4324  159.9526 H   0  0  0  0  0  0  0  0  0  0  0  0  # atno 6908 bound_to 6896
  151.4364  133.3616  159.2811 H   0  0  0  0  0  0  0  0  0  0  0  0  # atno 6909 bound_to 6896
  145.6780  139.2515  143.1830 H   0  0  0  0  0  0  0  0  0  0  0  0  # atno 7974 bound_to 7965
  154.4008  140.1368  156.4033 H   0  0  0  0  0  0  0  0  0  0  0  0  # atno 8008 bound_to 7997
  155.7803  140.3481  155.5273 H   0  0  0  0  0  0  0  0  0  0  0  0  # atno 8009 bound_to 7997
  155.8680  140.0967  157.1560 H   0  0  0  0  0  0  0  0  0  0  0  0  # atno 8010 bound_to 7997
  139.4993  144.6104  151.6285 H   0  0  0  0  0  0  0  0  0  0  0  0  # atno 10167 bound_to 10162
  156.7640  130.5278  149.5779 H   0  0  0  0  0  0  0  0  0  0  0  0  # atno 10718 bound_to 10713
  154.5916  135.2845  155.0629 H   0  0  0  0  0  0  0  0  0  0  0  0  # atno 10763 bound_to 10752
  154.1928  135.6438  153.5068 H   0  0  0  0  0  0  0  0  0  0  0  0  # atno 10764 bound_to 10752
  153.0123  135.5450  154.6604 H   0  0  0  0  0  0  0  0  0  0  0  0  # atno 10765 bound_to 10752
  140.9533  134.1035  157.4040 H   0  0  0  0  0  0  0  0  0  0  0  0  # atno 11005 bound_to 11000
  146.0989  140.7568  142.9559 LP  0  0  0  0  0  0  0  0  0  0  0  0  # atno 17320 bound_to 7965
  144.7035  140.3755  143.7137 LP  0  0  0  0  0  0  0  0  0  0  0  0  # atno 17321 bound_to 7965
  140.5777  144.0001  150.6250 LP  0  0  0  0  0  0  0  0  0  0  0  0  # atno 17342 bound_to 10162
  140.3139  143.3180  152.0851 LP  0  0  0  0  0  0  0  0  0  0  0  0  # atno 17343 bound_to 10162
  156.1321  130.6185  151.0347 LP  0  0  0  0  0  0  0  0  0  0  0  0  # atno 17370 bound_to 10713
  157.6721  131.0859  150.7585 LP  0  0  0  0  0  0  0  0  0  0  0  0  # atno 17371 bound_to 10713
  139.8854  135.0072  156.6434 LP  0  0  0  0  0  0  0  0  0  0  0  0  # atno 17394 bound_to 11000
  140.7571  133.8848  155.8390 LP  0  0  0  0  0  0  0  0  0  0  0  0  # atno 17395 bound_to 11000

$$$$
