AV-unprocessed.smi:1445|AV-procd|sdf|5885|dock8
  -GOLD-   22720 5563D 1   1.00000     0.00000
 Structure written by MMmdl.
 46 47  0  0  0  0  0  0  0  0  2 V2000
  139.9745  141.7713  154.1045 C   0  0  0  0  0  0  0  0  0  0  0  0
  140.7442  140.6029  153.8419 O   0  0  0  0  0  0  0  0  0  0  0  0
  140.1151  139.3733  153.8895 C   0  0  0  0  0  0  0  0  0  0  0  0
  138.8105  139.3306  154.2601 N   0  0  0  0  0  0  0  0  0  0  0  0
  138.1958  138.1315  154.3117 C   0  0  0  0  0  0  0  0  0  0  0  0
  138.8435  136.9210  154.0058 C   0  0  0  0  0  0  0  0  0  0  0  0
  140.1963  136.9623  153.6213 C   0  0  0  0  0  0  0  0  0  0  0  0
  140.8534  138.2153  153.5488 C   0  0  0  0  0  0  0  0  0  0  0  0
  142.2204  138.3795  153.1866 N   0  0  0  0  0  0  0  0  0  0  0  0
  143.1996  137.4610  153.1264 C   0  0  0  0  0  0  0  0  0  0  0  0
  143.0755  136.2622  153.3757 O   0  0  0  0  0  0  0  0  0  0  0  0
  144.3574  138.0131  152.7363 N   0  0  0  0  0  0  0  0  0  0  0  0
  145.6165  137.2929  152.5839 C   0  0  0  0  0  0  0  0  0  0  0  0
  145.6378  136.4471  151.2957 C   0  0  0  0  0  0  0  0  0  0  0  0
  146.1629  135.0782  151.5296 N   0  3  1  0  0  0  0  0  0  0  0  0
  145.8194  134.5678  152.8821 C   0  0  0  0  0  0  0  0  0  0  0  0
  146.4929  133.2128  153.1502 C   0  0  0  0  0  0  0  0  0  0  0  0
  146.1169  132.1899  152.0713 C   0  0  0  0  0  0  0  0  0  0  0  0
  146.4505  132.7412  150.6751 C   0  0  1  0  0  0  0  0  0  0  0  0
  146.0595  131.7471  149.5724 C   0  0  0  0  0  0  0  0  0  0  0  0
  145.7754  134.1120  150.4663 C   0  0  0  0  0  0  0  0  0  0  0  0
  140.6160  142.6491  154.0279 H   0  0  0  0  0  0  0  0  0  0  0  0
  139.5553  141.7553  155.1116 H   0  0  0  0  0  0  0  0  0  0  0  0
  139.1663  141.8886  153.3810 H   0  0  0  0  0  0  0  0  0  0  0  0
  137.1580  138.1363  154.6107 H   0  0  0  0  0  0  0  0  0  0  0  0
  138.3153  135.9810  154.0684 H   0  0  0  0  0  0  0  0  0  0  0  0
  140.6979  136.0328  153.4047 H   0  0  0  0  0  0  0  0  0  0  0  0
  142.4709  139.3112  152.8888 H   0  0  0  0  0  0  0  0  0  0  0  0
  144.3712  139.0046  152.5459 H   0  0  0  0  0  0  0  0  0  0  0  0
  146.4133  138.0355  152.5751 H   0  0  0  0  0  0  0  0  0  0  0  0
  145.7892  136.6621  153.4577 H   0  0  0  0  0  0  0  0  0  0  0  0
  144.6173  136.3737  150.9175 H   0  0  0  0  0  0  0  0  0  0  0  0
  146.2186  136.9402  150.5146 H   0  0  0  0  0  0  0  0  0  0  0  0
  146.1439  135.2811  153.6408 H   0  0  0  0  0  0  0  0  0  0  0  0
  144.7358  134.4760  152.9747 H   0  0  0  0  0  0  0  0  0  0  0  0
  147.5762  133.3397  153.1748 H   0  0  0  0  0  0  0  0  0  0  0  0
  146.2030  132.8404  154.1331 H   0  0  0  0  0  0  0  0  0  0  0  0
  146.6486  131.2539  152.2467 H   0  0  0  0  0  0  0  0  0  0  0  0
  145.0521  131.9617  152.1381 H   0  0  0  0  0  0  0  0  0  0  0  0
  147.5308  132.8853  150.6182 H   0  0  0  0  0  0  0  0  0  0  0  0
  144.9855  131.5583  149.5703 H   0  0  0  0  0  0  0  0  0  0  0  0
  146.5645  130.7906  149.7094 H   0  0  0  0  0  0  0  0  0  0  0  0
  146.3331  132.1246  148.5867 H   0  0  0  0  0  0  0  0  0  0  0  0
  144.6898  134.0003  150.4565 H   0  0  0  0  0  0  0  0  0  0  0  0
  146.0591  134.4998  149.4886 H   0  0  0  0  0  0  0  0  0  0  0  0
  147.1699  135.1534  151.5081 H   0  0  0  0  0  0  0  0  0  0  0  0
  1  2  1  0  0  0  0
  1 22  1  0  0  0  0
  1 23  1  0  0  0  0
  1 24  1  0  0  0  0
  2  3  1  0  0  0  0
  3  8  1  0  0  0  0
  3  4  2  0  0  0  0
  4  5  1  0  0  0  0
  5  6  2  0  0  0  0
  5 25  1  0  0  0  0
  6  7  1  0  0  0  0
  6 26  1  0  0  0  0
  7  8  2  0  0  0  0
  7 27  1  0  0  0  0
  8  9  1  0  0  0  0
  9 10  1  0  0  0  0
  9 28  1  0  0  0  0
 10 11  2  0  0  0  0
 10 12  1  0  0  0  0
 12 13  1  0  0  0  0
 12 29  1  0  0  0  0
 13 14  1  0  0  0  0
 13 30  1  0  0  0  0
 13 31  1  0  0  0  0
 14 15  1  0  0  0  0
 14 32  1  0  0  0  0
 14 33  1  0  0  0  0
 15 21  1  0  0  0  0
 15 16  1  0  0  0  0
 15 46  1  0  0  0  0
 16 17  1  0  0  0  0
 16 34  1  0  0  0  0
 16 35  1  0  0  0  0
 17 18  1  0  0  0  0
 17 36  1  0  0  0  0
 17 37  1  0  0  0  0
 18 19  1  0  0  0  0
 18 38  1  0  0  0  0
 18 39  1  0  0  0  0
 19 20  1  0  0  0  0
 19 21  1  0  0  0  0
 19 40  1  0  0  0  0
 20 41  1  0  0  0  0
 20 42  1  0  0  0  0
 20 43  1  0  0  0  0
 21 44  1  0  0  0  0
 21 45  1  0  0  0  0
M  CHG  1  15   1
M  END
> <s_m_source_file>
AV-unprocessed.smi

> <i_m_source_file_index>
1445

> <i_lp_mmshare_version>
43012

> <i_f3d_flags>
0

> <s_epik_input>
W0NIM11PYzFuW2NIXVtjSF1bY0hdYzFbTkhdQyg9TylbTkhdW0NIMl1bQ0gyXU4yW0NIMl1bQ0gyXVtDSDJdW0NAQEhdKFtDSDNdKVtDSDJdMg==

> <s_epik_cmdline>
J2VwaWtfcHl0aG9uJywgJy1waCcsICc3LjAnLCAnLXRuJywgJzgnLCAnLW1hJywgJzIwMCcsICctbWV0YWxfYmluZGluZycsICctaW1hZScsICc8aW5maWxlLm1hZT4nLCAnLW9tYWUnLCAnPG91dGZpbGUubWFlPic=

> <r_lp_tautomer_probability>
1

> <r_epik_Ionization_Penalty>
0.00179544

> <r_epik_Ionization_Penalty_Charging>
0.00171832

> <r_epik_Ionization_Penalty_Neutral>
7.71118e-05

> <r_epik_State_Penalty>
0.0011618

> <r_epik_Charging_Adjusted_Penalty>
0.00288012

> <i_epik_Tot_Q>
1

> <i_epik_Tot_abs_Q>
1

> <r_epik_Metal_State_Penalty>
-0

> <b_epik_Metal_Only>
0

> <s_lp_Force_Field>
OPLS_2005

> <r_lp_Energy>
18.8564

> <b_lp_Chiralities_Consistent>
1

> <s_lp_Variant>
AV-unprocessed.smi:1445-1

> <Gold.Version>
5.8.1

> <Gold.Id.Protein>
6NUR|6NUR_protein|mol2

> <Gold.PLP.Fitness>
44.8301

> <Gold.PLP.PLP>
-34.3521

> <Gold.PLP.part.hbond>
-3.9051

> <Gold.PLP.part.metal>
0.0000

> <Gold.PLP.part.buried>
-0.4826

> <Gold.PLP.part.nonpolar>
-30.3951

> <Gold.PLP.part.repulsive>
1.5337

> <Gold.PLP.ligand.clash>
0.0402

> <Gold.PLP.ligand.torsion>
0.7516

> <Gold.PLP.Chemscore.Hbond>
4.0000

> <Gold.PLP.Chemscore.CHOScore>
0.0000

> <Gold.PLP.Chemscore.Metal>
0.0000

> <Gold.Chemscore.Hbonds>
donor molecule, donor type, donor heavy atom, donor atom, acceptor molecule, acceptor atom, score
      L1  H     9    28       P1 10175  1.00
      L1  H    12    29       P1 10175  1.00
      L1  H    15    46       P1  7948  1.82

> <Gold.PLP.Chemscore.Internal.Correction>
0.0214

> <Gold.Rescore>
     Score         DG    S(hbond)    S(metal)    S(lipo)     H(rot)  DE(clash)    DE(int)     intcor
     18.10     -20.57       2.78        0.00      87.15       1.71       0.60       1.87       ----

> <Gold.Chemscore.Fitness>
18.0986

> <Gold.Chemscore.DG>
-20.5743

> <Gold.Chemscore.ZeroCoef>
-5.4800

> <Gold.Chemscore.Hbond>
2.7777

> <Gold.Chemscore.Metal>
0.0000

> <Gold.Chemscore.Lipo>
87.1472

> <Gold.Chemscore.Internal_Hbond>
0.0000

> <Gold.Chemscore.DEClash>
0.6046

> <Gold.Chemscore.DEInternal>
1.8711

> <Gold.Chemscore.Rot>
1.7107

> <Gold.Chemscore.Internal.Correction>
   9.000000E+99

> <Gold.Chemscore.Hbonds>
donor molecule, donor type, donor heavy atom, donor atom, acceptor molecule, acceptor atom, score
      L1  H     9    28       P1 10175  0.95
      L1  H    12    29       P1 10175  0.95
      L1  H    15    46       P1  7948  0.76

> <Gold.Chemscore.Hbond.Weighted>
-9.2775

> <Gold.Chemscore.Metal.Weighted>
-0.0000

> <Gold.Chemscore.Lipo.Weighted>
-10.1962

> <Gold.Chemscore.Internal_Hbond.Weighted>
0.0000

> <Gold.Chemscore.DEClash.Weighted>
0.6046

> <Gold.Chemscore.DEInternal.Weighted>
1.8711

> <Gold.Chemscore.Rot.Weighted>
4.3794

> <Gold.Chemscore.Internal.Correction.Weighted>
   9.000000E+99

> <Gold.Protein.RotatedTorsions>
[ 6907 6896 6895 6894 ] final  -13.33 input  -60.11 | X-H torsion
[ 7974 7965 7964 7962 ] final  -10.88 input  175.53 | X-H torsion
[ 8008 7997 7996 7995 ] final  159.43 input   59.86 | X-H torsion
[ 10167 10162 10161 10158 ] final  -38.04 input  -65.29 | X-H torsion
[ 10718 10713 10712 10709 ] final  -59.98 input   66.30 | X-H torsion
[ 10763 10752 10751 10750 ] final -121.73 input  -60.55 | X-H torsion
[ 11005 11000 10999 10996 ] final   95.50 input  -57.11 | X-H torsion

> <Gold.Protein.ActiveResidues>
 VAL166  LYS551  ARG553  GLY616  TRP617  ASP618  TYR619  PRO620  LYS621  CYS622 
 ASP623  PHE694  ASN695  SER759  ASP760  ASP761  ALA762  ILE779  LEU786  VAL792 
 PHE793  MET794  SER795  GLU796  ALA797  LYS798  CYS799  TRP800  GLU811  SER814 

> <Gold.Protein.RotatedAtoms>
  151.3565  135.0895  159.9420 H   0  0  0  0  0  0  0  0  0  0  0  0  # atno 6907 bound_to 6896
  152.5173  133.9300  159.7586 H   0  0  0  0  0  0  0  0  0  0  0  0  # atno 6908 bound_to 6896
  150.9686  133.6314  159.2771 H   0  0  0  0  0  0  0  0  0  0  0  0  # atno 6909 bound_to 6896
  146.2206  140.2828  142.8363 H   0  0  0  0  0  0  0  0  0  0  0  0  # atno 7974 bound_to 7965
  156.2239  140.1831  156.7409 H   0  0  0  0  0  0  0  0  0  0  0  0  # atno 8008 bound_to 7997
  154.5910  140.0651  156.9267 H   0  0  0  0  0  0  0  0  0  0  0  0  # atno 8009 bound_to 7997
  155.2336  140.3316  155.4303 H   0  0  0  0  0  0  0  0  0  0  0  0  # atno 8010 bound_to 7997
  140.7103  143.3303  151.2585 H   0  0  0  0  0  0  0  0  0  0  0  0  # atno 10167 bound_to 10162
  156.1023  130.4185  150.0791 H   0  0  0  0  0  0  0  0  0  0  0  0  # atno 10718 bound_to 10713
  154.8674  135.4157  154.2667 H   0  0  0  0  0  0  0  0  0  0  0  0  # atno 10763 bound_to 10752
  153.3585  135.7002  153.6737 H   0  0  0  0  0  0  0  0  0  0  0  0  # atno 10764 bound_to 10752
  153.5647  135.3603  155.2786 H   0  0  0  0  0  0  0  0  0  0  0  0  # atno 10765 bound_to 10752
  139.8788  134.8902  156.4021 H   0  0  0  0  0  0  0  0  0  0  0  0  # atno 11005 bound_to 11000
  144.9184  140.7839  143.5763 LP  0  0  0  0  0  0  0  0  0  0  0  0  # atno 17320 bound_to 7965
  145.2763  139.1935  143.4814 LP  0  0  0  0  0  0  0  0  0  0  0  0  # atno 17321 bound_to 7965
  139.6783  143.9899  152.2794 LP  0  0  0  0  0  0  0  0  0  0  0  0  # atno 17342 bound_to 10162
  139.9520  144.6614  150.8162 LP  0  0  0  0  0  0  0  0  0  0  0  0  # atno 17343 bound_to 10162
  156.8775  130.9545  151.3603 LP  0  0  0  0  0  0  0  0  0  0  0  0  # atno 17370 bound_to 10713
  157.6194  130.8644  149.9084 LP  0  0  0  0  0  0  0  0  0  0  0  0  # atno 17371 bound_to 10713
  140.9260  133.7612  155.9965 LP  0  0  0  0  0  0  0  0  0  0  0  0  # atno 17394 bound_to 11000
  140.8385  134.3094  157.5322 LP  0  0  0  0  0  0  0  0  0  0  0  0  # atno 17395 bound_to 11000

$$$$
