AV-unprocessed.smi:2102|AV-procd|sdf|8581|dock9
  -GOLD-   2272011313D 1   1.00000     0.00000
 Structure written by MMmdl.
 29 30  0  0  0  0  0  0  0  0  1 V2000
  153.6038  141.3997  160.4042 C   0  0  0  0  0  0  0  0  0  0  0  0
  152.7233  141.9439  159.3916 N   0  0  0  0  0  0  0  0  0  0  0  0
  152.1956  143.2472  159.5602 C   0  0  0  0  0  0  0  0  0  0  0  0
  152.4562  143.9493  160.5376 O   0  0  0  0  0  0  0  0  0  0  0  0
  151.3169  143.6856  158.4822 C   0  0  0  0  0  0  0  0  0  0  0  0
  151.0555  142.8816  157.4283 C   0  0  0  0  0  0  0  0  0  0  0  0
  151.5856  141.6119  157.2882 N   0  0  0  0  0  0  0  0  0  0  0  0
  151.2648  140.8149  156.0972 C   0  0  0  0  0  0  0  0  0  0  0  0
  149.7560  140.6018  155.9110 C   0  0  0  0  0  0  0  0  0  0  0  0
  149.0960  140.0098  156.7664 O   0  0  0  0  0  0  0  0  0  0  0  0
  149.2312  141.0763  154.7720 N   0  0  0  0  0  0  0  0  0  0  0  0
  147.8585  140.9864  154.3916 C   0  0  0  0  0  0  0  0  0  0  0  0
  147.1229  142.2765  154.1008 C   0  0  0  0  0  0  0  0  0  0  0  0
  146.8244  141.5144  155.3624 C   0  0  0  0  0  0  0  0  0  0  0  0
  152.4456  141.1086  158.2877 C   0  0  0  0  0  0  0  0  0  0  0  0
  152.9324  139.9791  158.1900 O   0  0  0  0  0  0  0  0  0  0  0  0
  153.7884  142.1201  161.2002 H   0  0  0  0  0  0  0  0  0  0  0  0
  154.5457  141.1462  159.9142 H   0  0  0  0  0  0  0  0  0  0  0  0
  153.1158  140.5124  160.8112 H   0  0  0  0  0  0  0  0  0  0  0  0
  150.8711  144.6682  158.5280 H   0  0  0  0  0  0  0  0  0  0  0  0
  150.4010  143.2550  156.6541 H   0  0  0  0  0  0  0  0  0  0  0  0
  151.6869  141.2848  155.2068 H   0  0  0  0  0  0  0  0  0  0  0  0
  151.7403  139.8355  156.1660 H   0  0  0  0  0  0  0  0  0  0  0  0
  149.8512  141.5444  154.1271 H   0  0  0  0  0  0  0  0  0  0  0  0
  147.5594  140.1233  153.7982 H   0  0  0  0  0  0  0  0  0  0  0  0
  147.6736  143.2105  154.1972 H   0  0  0  0  0  0  0  0  0  0  0  0
  146.3719  142.2583  153.3136 H   0  0  0  0  0  0  0  0  0  0  0  0
  145.8747  140.9861  155.4184 H   0  0  0  0  0  0  0  0  0  0  0  0
  147.1753  141.9406  156.3005 H   0  0  0  0  0  0  0  0  0  0  0  0
  1  2  1  0  0  0  0
  1 17  1  0  0  0  0
  1 18  1  0  0  0  0
  1 19  1  0  0  0  0
  2 15  1  0  0  0  0
  2  3  1  0  0  0  0
  3  4  2  0  0  0  0
  3  5  1  0  0  0  0
  5  6  2  0  0  0  0
  5 20  1  0  0  0  0
  6  7  1  0  0  0  0
  6 21  1  0  0  0  0
  7  8  1  0  0  0  0
  7 15  1  0  0  0  0
  8  9  1  0  0  0  0
  8 22  1  0  0  0  0
  8 23  1  0  0  0  0
  9 10  2  0  0  0  0
  9 11  1  0  0  0  0
 11 12  1  0  0  0  0
 11 24  1  0  0  0  0
 12 14  1  0  0  0  0
 12 13  1  0  0  0  0
 12 25  1  0  0  0  0
 13 14  1  0  0  0  0
 13 26  1  0  0  0  0
 13 27  1  0  0  0  0
 14 28  1  0  0  0  0
 14 29  1  0  0  0  0
 15 16  2  0  0  0  0
M  END
> <s_m_source_file>
AV-unprocessed.smi

> <i_m_source_file_index>
2102

> <i_lp_mmshare_version>
43012

> <i_f3d_flags>
0

> <s_epik_input>
W0NIM11uMWMoPU8pW2NIXVtjSF1uKGMxPU8pW0NIMl1DKD1PKVtOSF1bQ0hdMltDSDJdW0NIMl0y

> <s_epik_cmdline>
J2VwaWtfcHl0aG9uJywgJy1waCcsICc3LjAnLCAnLXRuJywgJzgnLCAnLW1hJywgJzIwMCcsICctbWV0YWxfYmluZGluZycsICctaW1hZScsICc8aW5maWxlLm1hZT4nLCAnLW9tYWUnLCAnPG91dGZpbGUubWFlPic=

> <r_lp_tautomer_probability>
1

> <r_epik_Ionization_Penalty>
3.25544e-08

> <r_epik_Ionization_Penalty_Charging>
1.18841e-08

> <r_epik_Ionization_Penalty_Neutral>
2.06703e-08

> <r_epik_State_Penalty>
-0

> <r_epik_Charging_Adjusted_Penalty>
1.18841e-08

> <i_epik_Tot_Q>
0

> <i_epik_Tot_abs_Q>
0

> <r_epik_Metal_State_Penalty>
-0

> <b_epik_Metal_Only>
0

> <s_lp_Force_Field>
OPLS_2005

> <r_lp_Energy>
23.1094

> <b_lp_Chiralities_Consistent>
1

> <s_lp_Variant>
AV-unprocessed.smi:2102-1

> <Gold.Version>
5.8.1

> <Gold.Id.Protein>
6NUR|6NUR_protein|mol2

> <Gold.PLP.Fitness>
38.2916

> <Gold.PLP.PLP>
-32.3153

> <Gold.PLP.part.hbond>
-1.0000

> <Gold.PLP.part.metal>
0.0000

> <Gold.PLP.part.buried>
-5.6234

> <Gold.PLP.part.nonpolar>
-26.1376

> <Gold.PLP.part.repulsive>
0.2329

> <Gold.PLP.ligand.clash>
0.0000

> <Gold.PLP.ligand.torsion>
0.0303

> <Gold.PLP.Chemscore.Hbond>
1.0000

> <Gold.PLP.Chemscore.CHOScore>
1.0000

> <Gold.PLP.Chemscore.Metal>
0.0000

> <Gold.Chemscore.Hbonds>
donor molecule, donor type, donor heavy atom, donor atom, acceptor molecule, acceptor atom, score
      P1  H  7997  8009       L1    16  1.00
      L1  C     6    21       P1  8028  1.00

> <Gold.PLP.Chemscore.Internal.Correction>
0.0368

> <Gold.Rescore>
     Score         DG    S(hbond)    S(metal)    S(lipo)     H(rot)  DE(clash)    DE(int)     intcor
     10.56     -10.59       0.89        0.00      53.78       1.62       0.01       0.03       ----

> <Gold.Chemscore.Fitness>
10.5595

> <Gold.Chemscore.DG>
-10.5926

> <Gold.Chemscore.ZeroCoef>
-5.4800

> <Gold.Chemscore.Hbond>
0.8878

> <Gold.Chemscore.Metal>
0.0000

> <Gold.Chemscore.Lipo>
53.7842

> <Gold.Chemscore.Internal_Hbond>
0.0000

> <Gold.Chemscore.DEClash>
0.0069

> <Gold.Chemscore.DEInternal>
0.0263

> <Gold.Chemscore.Rot>
1.6192

> <Gold.Chemscore.Internal.Correction>
   9.000000E+99

> <Gold.Chemscore.Hbonds>
donor molecule, donor type, donor heavy atom, donor atom, acceptor molecule, acceptor atom, score
      P1  H  7997  8009       L1    16  0.65

> <Gold.Chemscore.Hbond.Weighted>
-2.9651

> <Gold.Chemscore.Metal.Weighted>
-0.0000

> <Gold.Chemscore.Lipo.Weighted>
-6.2928

> <Gold.Chemscore.Internal_Hbond.Weighted>
0.0000

> <Gold.Chemscore.DEClash.Weighted>
0.0069

> <Gold.Chemscore.DEInternal.Weighted>
0.0263

> <Gold.Chemscore.Rot.Weighted>
4.1452

> <Gold.Chemscore.Internal.Correction.Weighted>
   9.000000E+99

> <Gold.Protein.RotatedTorsions>
[ 6907 6896 6895 6894 ] final  -80.48 input  -60.11 | X-H torsion
[ 7974 7965 7964 7962 ] final   -4.27 input  175.53 | X-H torsion
[ 8008 7997 7996 7995 ] final  157.08 input   59.86 | X-H torsion
[ 10167 10162 10161 10158 ] final   72.62 input  -65.29 | X-H torsion
[ 10718 10713 10712 10709 ] final -134.78 input   66.30 | X-H torsion
[ 10763 10752 10751 10750 ] final   48.16 input  -60.55 | X-H torsion
[ 11005 11000 10999 10996 ] final   62.45 input  -57.11 | X-H torsion

> <Gold.Protein.ActiveResidues>
 VAL166  LYS551  ARG553  GLY616  TRP617  ASP618  TYR619  PRO620  LYS621  CYS622 
 ASP623  PHE694  ASN695  SER759  ASP760  ASP761  ALA762  ILE779  LEU786  VAL792 
 PHE793  MET794  SER795  GLU796  ALA797  LYS798  CYS799  TRP800  GLU811  SER814 

> <Gold.Protein.RotatedAtoms>
  150.6929  134.3962  159.5098 H   0  0  0  0  0  0  0  0  0  0  0  0  # atno 6907 bound_to 6896
  152.1743  134.8805  160.0541 H   0  0  0  0  0  0  0  0  0  0  0  0  # atno 6908 bound_to 6896
  151.9819  133.3726  159.4148 H   0  0  0  0  0  0  0  0  0  0  0  0  # atno 6909 bound_to 6896
  146.2375  140.1847  142.8332 H   0  0  0  0  0  0  0  0  0  0  0  0  # atno 7974 bound_to 7965
  156.2385  140.1895  156.7053 H   0  0  0  0  0  0  0  0  0  0  0  0  # atno 8008 bound_to 7997
  154.6152  140.0616  156.9572 H   0  0  0  0  0  0  0  0  0  0  0  0  # atno 8009 bound_to 7997
  155.1951  140.3287  155.4355 H   0  0  0  0  0  0  0  0  0  0  0  0  # atno 8010 bound_to 7997
  140.0333  144.5448  150.7490 H   0  0  0  0  0  0  0  0  0  0  0  0  # atno 10167 bound_to 10162
  156.2592  130.7199  151.1127 H   0  0  0  0  0  0  0  0  0  0  0  0  # atno 10718 bound_to 10713
  152.9794  135.5953  154.3881 H   0  0  0  0  0  0  0  0  0  0  0  0  # atno 10763 bound_to 10752
  154.3539  135.2767  155.2359 H   0  0  0  0  0  0  0  0  0  0  0  0  # atno 10764 bound_to 10752
  154.4386  135.6019  153.6169 H   0  0  0  0  0  0  0  0  0  0  0  0  # atno 10765 bound_to 10752
  140.0092  134.6323  155.9808 H   0  0  0  0  0  0  0  0  0  0  0  0  # atno 11005 bound_to 11000
  144.9906  140.8543  143.5341 LP  0  0  0  0  0  0  0  0  0  0  0  0  # atno 17320 bound_to 7965
  145.1852  139.2330  143.5271 LP  0  0  0  0  0  0  0  0  0  0  0  0  # atno 17321 bound_to 7965
  140.7292  143.2670  151.4011 LP  0  0  0  0  0  0  0  0  0  0  0  0  # atno 17342 bound_to 10162
  139.6062  144.1193  152.2251 LP  0  0  0  0  0  0  0  0  0  0  0  0  # atno 17343 bound_to 10162
  157.7244  131.0660  150.5997 LP  0  0  0  0  0  0  0  0  0  0  0  0  # atno 17370 bound_to 10713
  156.6083  130.4373  149.5869 LP  0  0  0  0  0  0  0  0  0  0  0  0  # atno 17371 bound_to 10713
  141.1698  133.6537  156.4612 LP  0  0  0  0  0  0  0  0  0  0  0  0  # atno 17394 bound_to 11000
  140.4586  134.6862  157.5074 LP  0  0  0  0  0  0  0  0  0  0  0  0  # atno 17395 bound_to 11000

$$$$
