AV-unprocessed.smi:2655|AV-procd|sdf|10304|dock10
  -GOLD-   2272014323D 1   1.00000     0.00000
 Structure written by MMmdl.
 33 34  0  0  0  0  0  0  0  0  2 V2000
  149.4146  130.0208  154.5097 C   0  0  0  0  0  0  0  0  0  0  0  0
  148.0218  130.5719  154.3983 C   0  0  0  0  0  0  0  0  0  0  0  0
  146.9944  129.7980  154.7354 N   0  0  0  0  0  0  0  0  0  0  0  0
  145.9111  130.5685  154.5227 N   0  0  0  0  0  0  0  0  0  0  0  0
  146.2582  131.8118  154.0596 C   0  0  0  0  0  0  0  0  0  0  0  0
  145.3100  132.7456  153.7774 O   0  0  0  0  0  0  0  0  0  0  0  0
  147.6178  131.8729  153.9635 C   0  0  0  0  0  0  0  0  0  0  0  0
  148.4825  133.0184  153.5096 C   0  0  0  0  0  0  0  0  0  0  0  0
  148.4088  134.2016  154.4836 C   0  0  0  0  0  0  0  0  0  0  0  0
  149.4127  135.2038  154.1502 N   0  0  0  0  0  0  0  0  0  0  0  0
  150.4350  135.5647  154.9374 C   0  0  0  0  0  0  0  0  0  0  0  0
  150.5797  135.0287  156.0386 O   0  0  0  0  0  0  0  0  0  0  0  0
  151.2254  136.5231  154.4004 N   0  5  0  0  0  0  0  0  0  0  0  0
  151.0643  137.8081  154.7522 C   0  0  0  0  0  0  0  0  0  0  0  0
  151.5309  138.4127  155.9516 C   0  0  0  0  0  0  0  0  0  0  0  0
  151.1330  139.7129  155.8212 C   0  0  0  0  0  0  0  0  0  0  0  0
  151.2783  140.9085  156.6997 C   0  0  0  0  0  0  0  0  0  0  0  0
  150.4858  139.8920  154.6385 O   0  0  0  0  0  0  0  0  0  0  0  0
  150.4516  138.6693  153.9574 N   0  0  0  0  0  0  0  0  0  0  0  0
  150.1163  130.5874  153.8976 H   0  0  0  0  0  0  0  0  0  0  0  0
  149.4578  128.9825  154.1797 H   0  0  0  0  0  0  0  0  0  0  0  0
  149.7676  130.0589  155.5403 H   0  0  0  0  0  0  0  0  0  0  0  0
  144.9733  130.2353  154.6958 H   0  0  0  0  0  0  0  0  0  0  0  0
  148.1827  133.3510  152.5151 H   0  0  0  0  0  0  0  0  0  0  0  0
  149.5205  132.6983  153.4120 H   0  0  0  0  0  0  0  0  0  0  0  0
  147.4169  134.6551  154.4470 H   0  0  0  0  0  0  0  0  0  0  0  0
  148.5707  133.8579  155.5065 H   0  0  0  0  0  0  0  0  0  0  0  0
  149.3263  135.6633  153.2554 H   0  0  0  0  0  0  0  0  0  0  0  0
  152.0666  137.9630  156.7741 H   0  0  0  0  0  0  0  0  0  0  0  0
  152.3306  141.1305  156.8767 H   0  0  0  0  0  0  0  0  0  0  0  0
  150.8007  140.7375  157.6645 H   0  0  0  0  0  0  0  0  0  0  0  0
  150.8194  141.7879  156.2472 H   0  0  0  0  0  0  0  0  0  0  0  0
  144.5150  132.4963  154.2221 H   0  0  0  0  0  0  0  0  0  0  0  0
  1 20  1  0  0  0  0
  1 21  1  0  0  0  0
  1 22  1  0  0  0  0
  1  2  1  0  0  0  0
  2  7  1  0  0  0  0
  2  3  2  0  0  0  0
  3  4  1  0  0  0  0
  4 23  1  0  0  0  0
  4  5  1  0  0  0  0
  5  7  2  0  0  0  0
  5  6  1  0  0  0  0
  6 33  1  0  0  0  0
  7  8  1  0  0  0  0
  8  9  1  0  0  0  0
  8 24  1  0  0  0  0
  8 25  1  0  0  0  0
  9 10  1  0  0  0  0
  9 26  1  0  0  0  0
  9 27  1  0  0  0  0
 10 11  1  0  0  0  0
 10 28  1  0  0  0  0
 11 12  2  0  0  0  0
 11 13  1  0  0  0  0
 13 14  1  0  0  0  0
 14 19  2  0  0  0  0
 14 15  1  0  0  0  0
 15 16  2  0  0  0  0
 15 29  1  0  0  0  0
 16 17  1  0  0  0  0
 16 18  1  0  0  0  0
 17 30  1  0  0  0  0
 17 31  1  0  0  0  0
 17 32  1  0  0  0  0
 18 19  1  0  0  0  0
M  CHG  1  13  -1
M  END
> <s_m_source_file>
AV-unprocessed.smi

> <i_m_source_file_index>
2655

> <i_lp_mmshare_version>
43012

> <i_f3d_flags>
0

> <s_epik_input>
W0NIM11DMT1OW05IXUMoPU8pW0NASF0xW0NIMl1bQ0gyXVtOSF1DKD1PKVtOSF1jMltjSF1jKFtDSDNdKW9uMg==

> <s_epik_cmdline>
J2VwaWtfcHl0aG9uJywgJy1waCcsICc3LjAnLCAnLXRuJywgJzgnLCAnLW1hJywgJzIwMCcsICctbWV0YWxfYmluZGluZycsICctaW1hZScsICc8aW5maWxlLm1hZT4nLCAnLW9tYWUnLCAnPG91dGZpbGUubWFlPic=

> <r_lp_tautomer_probability>
0.0227396

> <r_epik_Ionization_Penalty>
10.1454

> <r_epik_Ionization_Penalty_Charging>
6.5559

> <r_epik_Ionization_Penalty_Neutral>
3.58948

> <r_epik_State_Penalty>
8.16616

> <r_epik_Charging_Adjusted_Penalty>
14.7221

> <i_epik_Tot_Q>
-1

> <i_epik_Tot_abs_Q>
1

> <r_epik_Metal_State_Penalty>
5.48631

> <b_epik_Metal_Only>
1

> <s_lp_Force_Field>
OPLS_2005

> <r_lp_Energy>
-4.29972

> <b_lp_Chiralities_Consistent>
1

> <s_lp_Variant>
AV-unprocessed.smi:2655-7

> <Gold.Version>
5.8.1

> <Gold.Id.Protein>
6NUR|6NUR_protein|mol2

> <Gold.PLP.Fitness>
39.6646

> <Gold.PLP.PLP>
-25.0189

> <Gold.PLP.part.hbond>
-5.0985

> <Gold.PLP.part.metal>
0.0000

> <Gold.PLP.part.buried>
-4.0442

> <Gold.PLP.part.nonpolar>
-18.4436

> <Gold.PLP.part.repulsive>
1.9506

> <Gold.PLP.ligand.clash>
0.0000

> <Gold.PLP.ligand.torsion>
1.5179

> <Gold.PLP.Chemscore.Hbond>
5.8775

> <Gold.PLP.Chemscore.CHOScore>
0.0000

> <Gold.PLP.Chemscore.Metal>
0.0000

> <Gold.Chemscore.Hbonds>
donor molecule, donor type, donor heavy atom, donor atom, acceptor molecule, acceptor atom, score
      L1  H     4    23       P1 10956  1.00
      L1  H     6    33       P1 10957  0.94
      L1  H    10    28       P1  7948  0.96
      P1  H  7989  7998       L1    18  1.00
      P1  H 10752 10763       L1    13  2.00

> <Gold.PLP.Chemscore.Internal.Correction>
0.0491

> <Gold.Rescore>
     Score         DG    S(hbond)    S(metal)    S(lipo)     H(rot)  DE(clash)    DE(int)     intcor
     12.56     -14.19       3.32        0.00      34.35       2.49       0.07       1.56       ----

> <Gold.Chemscore.Fitness>
12.5553

> <Gold.Chemscore.DG>
-14.1930

> <Gold.Chemscore.ZeroCoef>
-5.4800

> <Gold.Chemscore.Hbond>
3.3154

> <Gold.Chemscore.Metal>
0.0000

> <Gold.Chemscore.Lipo>
34.3538

> <Gold.Chemscore.Internal_Hbond>
0.0000

> <Gold.Chemscore.DEClash>
0.0727

> <Gold.Chemscore.DEInternal>
1.5650

> <Gold.Chemscore.Rot>
2.4922

> <Gold.Chemscore.Internal.Correction>
   9.000000E+99

> <Gold.Chemscore.Hbonds>
donor molecule, donor type, donor heavy atom, donor atom, acceptor molecule, acceptor atom, score
      L1  H     4    23       P1 10956  0.30
      L1  H     6    33       P1 10957  0.59
      L1  H    10    28       P1  7948  0.27
      P1  H  7989  7998       L1    18  0.17
      P1  H 10752 10763       L1    13  0.49

> <Gold.Chemscore.Hbond.Weighted>
-11.0736

> <Gold.Chemscore.Metal.Weighted>
-0.0000

> <Gold.Chemscore.Lipo.Weighted>
-4.0194

> <Gold.Chemscore.Internal_Hbond.Weighted>
0.0000

> <Gold.Chemscore.DEClash.Weighted>
0.0727

> <Gold.Chemscore.DEInternal.Weighted>
1.5650

> <Gold.Chemscore.Rot.Weighted>
6.3800

> <Gold.Chemscore.Internal.Correction.Weighted>
   9.000000E+99

> <Gold.Protein.RotatedTorsions>
[ 6907 6896 6895 6894 ] final   -0.87 input  -60.11 | X-H torsion
[ 7974 7965 7964 7962 ] final -170.87 input  175.53 | X-H torsion
[ 8008 7997 7996 7995 ] final   53.19 input   59.86 | X-H torsion
[ 10167 10162 10161 10158 ] final  -82.19 input  -65.29 | X-H torsion
[ 10718 10713 10712 10709 ] final  101.59 input   66.30 | X-H torsion
[ 10763 10752 10751 10750 ] final   34.25 input  -60.55 | X-H torsion
[ 11005 11000 10999 10996 ] final  -44.10 input  -57.11 | X-H torsion

> <Gold.Protein.ActiveResidues>
 VAL166  LYS551  ARG553  GLY616  TRP617  ASP618  TYR619  PRO620  LYS621  CYS622 
 ASP623  PHE694  ASN695  SER759  ASP760  ASP761  ALA762  ILE779  LEU786  VAL792 
 PHE793  MET794  SER795  GLU796  ALA797  LYS798  CYS799  TRP800  GLU811  SER814 

> <Gold.Protein.RotatedAtoms>
  151.5552  135.1066  159.9959 H   0  0  0  0  0  0  0  0  0  0  0  0  # atno 6907 bound_to 6896
  152.4472  133.7556  159.6729 H   0  0  0  0  0  0  0  0  0  0  0  0  # atno 6908 bound_to 6896
  150.8391  133.7897  159.3092 H   0  0  0  0  0  0  0  0  0  0  0  0  # atno 6909 bound_to 6896
  144.7164  140.2007  143.6338 H   0  0  0  0  0  0  0  0  0  0  0  0  # atno 7974 bound_to 7965
  155.4642  140.3463  155.4317 H   0  0  0  0  0  0  0  0  0  0  0  0  # atno 8008 bound_to 7997
  156.1142  140.1469  156.9326 H   0  0  0  0  0  0  0  0  0  0  0  0  # atno 8009 bound_to 7997
  154.4777  140.0880  156.7281 H   0  0  0  0  0  0  0  0  0  0  0  0  # atno 8010 bound_to 7997
  140.4342  143.2537  151.8716 H   0  0  0  0  0  0  0  0  0  0  0  0  # atno 10167 bound_to 10162
  157.6825  131.0730  150.5275 H   0  0  0  0  0  0  0  0  0  0  0  0  # atno 10718 bound_to 10713
  153.0173  135.6365  154.1640 H   0  0  0  0  0  0  0  0  0  0  0  0  # atno 10763 bound_to 10752
  154.1377  135.2836  155.3170 H   0  0  0  0  0  0  0  0  0  0  0  0  # atno 10764 bound_to 10752
  154.6147  135.5545  153.7572 H   0  0  0  0  0  0  0  0  0  0  0  0  # atno 10765 bound_to 10752
  141.0428  133.6773  156.2825 H   0  0  0  0  0  0  0  0  0  0  0  0  # atno 11005 bound_to 11000
  145.8682  139.2258  143.1676 LP  0  0  0  0  0  0  0  0  0  0  0  0  # atno 17320 bound_to 7965
  146.0109  140.8436  142.9971 LP  0  0  0  0  0  0  0  0  0  0  0  0  # atno 17321 bound_to 7965
  139.4786  144.5301  151.8679 LP  0  0  0  0  0  0  0  0  0  0  0  0  # atno 17342 bound_to 10162
  140.4392  144.2009  150.5890 LP  0  0  0  0  0  0  0  0  0  0  0  0  # atno 17343 bound_to 10162
  156.5586  130.4250  149.6073 LP  0  0  0  0  0  0  0  0  0  0  0  0  # atno 17370 bound_to 10713
  156.2840  130.7087  151.1919 LP  0  0  0  0  0  0  0  0  0  0  0  0  # atno 17371 bound_to 10713
  140.6203  134.5368  157.5546 LP  0  0  0  0  0  0  0  0  0  0  0  0  # atno 17394 bound_to 11000
  139.9288  134.8003  156.0989 LP  0  0  0  0  0  0  0  0  0  0  0  0  # atno 17395 bound_to 11000

$$$$
