AV-unprocessed.smi:1000|AV-procd|sdf|4356|dock5
  -GOLD-   22720 2253D 1   1.00000     0.00000
 Structure written by MMmdl.
 40 41  0  0  0  0  0  0  0  0  1 V2000
  154.2193  131.5900  162.3038 C   0  0  0  0  0  0  0  0  0  0  0  0
  155.0551  132.8173  161.1919 S   0  0  1  0  0  0  0  0  0  0  0  0
  154.0347  133.2280  160.1282 O   0  0  0  0  0  0  0  0  0  0  0  0
  155.0167  134.1794  162.4100 C   0  0  0  0  0  0  0  0  0  0  0  0
  154.9717  133.9948  163.7327 N   0  0  0  0  0  0  0  0  0  0  0  0
  154.9570  135.2683  164.2699 N   0  0  0  0  0  0  0  0  0  0  0  0
  154.9955  136.0826  163.2133 C   0  0  0  0  0  0  0  0  0  0  0  0
  155.0368  135.4681  162.0204 N   0  0  0  0  0  0  0  0  0  0  0  0
  155.0833  136.0570  160.6941 C   0  0  0  0  0  0  0  0  0  0  0  0
  154.0012  137.1239  160.5305 C   0  0  0  0  0  0  0  0  0  0  0  0
  152.8143  136.8048  160.5864 O   0  0  0  0  0  0  0  0  0  0  0  0
  154.4261  138.3813  160.3289 N   0  0  0  0  0  0  0  0  0  0  0  0
  153.5705  139.5497  160.1405 C   0  0  0  0  0  0  0  0  0  0  0  0
  154.0998  140.7808  160.9006 C   0  0  0  0  0  0  0  0  0  0  0  0
  153.2896  142.0443  160.6561 C   0  0  0  0  0  0  0  0  0  0  0  0
  152.9705  142.8906  161.6549 C   0  0  0  0  0  0  0  0  0  0  0  0
  152.2026  144.1857  161.4617 C   0  0  0  0  0  0  0  0  0  0  0  0
  152.1365  144.6086  159.9848 C   0  0  0  0  0  0  0  0  0  0  0  0
  151.8122  143.4114  159.0828 C   0  0  0  0  0  0  0  0  0  0  0  0
  152.8770  142.3075  159.2118 C   0  0  0  0  0  0  0  0  0  0  0  0
  154.3917  131.8261  163.3540 H   0  0  0  0  0  0  0  0  0  0  0  0
  154.6060  130.5895  162.1105 H   0  0  0  0  0  0  0  0  0  0  0  0
  153.1447  131.5867  162.1205 H   0  0  0  0  0  0  0  0  0  0  0  0
  154.9928  137.1580  163.3135 H   0  0  0  0  0  0  0  0  0  0  0  0
  156.0700  136.4931  160.5322 H   0  0  0  0  0  0  0  0  0  0  0  0
  154.9558  135.2729  159.9469 H   0  0  0  0  0  0  0  0  0  0  0  0
  155.4224  138.5427  160.2999 H   0  0  0  0  0  0  0  0  0  0  0  0
  153.4306  139.7713  159.0814 H   0  0  0  0  0  0  0  0  0  0  0  0
  152.5828  139.2931  160.5240 H   0  0  0  0  0  0  0  0  0  0  0  0
  154.1002  140.5781  161.9719 H   0  0  0  0  0  0  0  0  0  0  0  0
  155.1418  140.9543  160.6281 H   0  0  0  0  0  0  0  0  0  0  0  0
  153.2698  142.6632  162.6676 H   0  0  0  0  0  0  0  0  0  0  0  0
  151.1976  144.0465  161.8613 H   0  0  0  0  0  0  0  0  0  0  0  0
  152.6732  144.9732  162.0507 H   0  0  0  0  0  0  0  0  0  0  0  0
  151.3940  145.3964  159.8543 H   0  0  0  0  0  0  0  0  0  0  0  0
  153.0953  145.0333  159.6836 H   0  0  0  0  0  0  0  0  0  0  0  0
  150.8364  143.0100  159.3594 H   0  0  0  0  0  0  0  0  0  0  0  0
  151.7310  143.7298  158.0431 H   0  0  0  0  0  0  0  0  0  0  0  0
  153.7653  142.5888  158.6464 H   0  0  0  0  0  0  0  0  0  0  0  0
  152.5001  141.3866  158.7658 H   0  0  0  0  0  0  0  0  0  0  0  0
  1  2  1  0  0  0  0
  1 21  1  0  0  0  0
  1 22  1  0  0  0  0
  1 23  1  0  0  0  0
  2  3  2  0  0  0  0
  2  4  1  0  0  0  0
  4  8  1  0  0  0  0
  4  5  2  0  0  0  0
  5  6  1  0  0  0  0
  6  7  2  0  0  0  0
  7  8  1  0  0  0  0
  7 24  1  0  0  0  0
  8  9  1  0  0  0  0
  9 10  1  0  0  0  0
  9 25  1  0  0  0  0
  9 26  1  0  0  0  0
 10 11  2  0  0  0  0
 10 12  1  0  0  0  0
 12 13  1  0  0  0  0
 12 27  1  0  0  0  0
 13 14  1  0  0  0  0
 13 28  1  0  0  0  0
 13 29  1  0  0  0  0
 14 15  1  0  0  0  0
 14 30  1  0  0  0  0
 14 31  1  0  0  0  0
 15 20  1  0  0  0  0
 15 16  2  0  0  0  0
 16 17  1  0  0  0  0
 16 32  1  0  0  0  0
 17 18  1  0  0  0  0
 17 33  1  0  0  0  0
 17 34  1  0  0  0  0
 18 19  1  0  0  0  0
 18 35  1  0  0  0  0
 18 36  1  0  0  0  0
 19 20  1  0  0  0  0
 19 37  1  0  0  0  0
 19 38  1  0  0  0  0
 20 39  1  0  0  0  0
 20 40  1  0  0  0  0
M  END
> <s_m_source_file>
AV-unprocessed.smi

> <i_m_source_file_index>
1000

> <i_lp_mmshare_version>
43012

> <i_f3d_flags>
0

> <s_epik_input>
W0NIM11bU0BdKD1PKWMxbm5bY0hdbjFbQ0gyXUMoPU8pW05IXVtDSDJdW0NIMl1DMj1bQ0hdW0NIMl1bQ0gyXVtDSDJdW0NIMl0y

> <s_epik_cmdline>
J2VwaWtfcHl0aG9uJywgJy1waCcsICc3LjAnLCAnLXRuJywgJzgnLCAnLW1hJywgJzIwMCcsICctbWV0YWxfYmluZGluZycsICctaW1hZScsICc8aW5maWxlLm1hZT4nLCAnLW9tYWUnLCAnPG91dGZpbGUubWFlPic=

> <r_lp_tautomer_probability>
1

> <r_epik_Ionization_Penalty>
9.22166e-08

> <r_epik_Ionization_Penalty_Charging>
0

> <r_epik_Ionization_Penalty_Neutral>
9.22166e-08

> <r_epik_State_Penalty>
-0

> <r_epik_Charging_Adjusted_Penalty>
0

> <i_epik_Tot_Q>
0

> <i_epik_Tot_abs_Q>
0

> <r_epik_Metal_State_Penalty>
-0

> <b_epik_Metal_Only>
0

> <s_lp_Force_Field>
OPLS_2005

> <r_lp_Energy>
7.40605

> <b_lp_Chiralities_Consistent>
1

> <s_lp_Variant>
AV-unprocessed.smi:1000-2

> <Gold.Version>
5.8.1

> <Gold.Id.Protein>
6NUR|6NUR_protein|mol2

> <Gold.PLP.Fitness>
45.1861

> <Gold.PLP.PLP>
-40.1198

> <Gold.PLP.part.hbond>
-2.0000

> <Gold.PLP.part.metal>
0.0000

> <Gold.PLP.part.buried>
-5.2020

> <Gold.PLP.part.nonpolar>
-32.8961

> <Gold.PLP.part.repulsive>
0.0937

> <Gold.PLP.ligand.clash>
0.0000

> <Gold.PLP.ligand.torsion>
0.9936

> <Gold.PLP.Chemscore.Hbond>
1.9913

> <Gold.PLP.Chemscore.CHOScore>
0.0000

> <Gold.PLP.Chemscore.Metal>
0.0000

> <Gold.Chemscore.Hbonds>
donor molecule, donor type, donor heavy atom, donor atom, acceptor molecule, acceptor atom, score
      P1  H  6896  6907       L1     3  0.72
      P1  H  6896  6909       L1    11  1.00

> <Gold.PLP.Chemscore.Internal.Correction>
1.0797

> <Gold.Rescore>
     Score         DG    S(hbond)    S(metal)    S(lipo)     H(rot)  DE(clash)    DE(int)     intcor
     16.22     -17.25       1.97        0.00      93.99       2.26       0.01       1.01       ----

> <Gold.Chemscore.Fitness>
16.2246

> <Gold.Chemscore.DG>
-17.2456

> <Gold.Chemscore.ZeroCoef>
-5.4800

> <Gold.Chemscore.Hbond>
1.9655

> <Gold.Chemscore.Metal>
0.0000

> <Gold.Chemscore.Lipo>
93.9869

> <Gold.Chemscore.Internal_Hbond>
0.0000

> <Gold.Chemscore.DEClash>
0.0075

> <Gold.Chemscore.DEInternal>
1.0135

> <Gold.Chemscore.Rot>
2.2640

> <Gold.Chemscore.Internal.Correction>
   9.000000E+99

> <Gold.Chemscore.Hbonds>
donor molecule, donor type, donor heavy atom, donor atom, acceptor molecule, acceptor atom, score
      P1  H  6896  6907       L1     3  0.72
      P1  H  6896  6909       L1    11  0.94

> <Gold.Chemscore.Hbond.Weighted>
-6.5648

> <Gold.Chemscore.Metal.Weighted>
-0.0000

> <Gold.Chemscore.Lipo.Weighted>
-10.9965

> <Gold.Chemscore.Internal_Hbond.Weighted>
0.0000

> <Gold.Chemscore.DEClash.Weighted>
0.0075

> <Gold.Chemscore.DEInternal.Weighted>
1.0135

> <Gold.Chemscore.Rot.Weighted>
5.7957

> <Gold.Chemscore.Internal.Correction.Weighted>
   9.000000E+99

> <Gold.Protein.RotatedTorsions>
[ 6907 6896 6895 6894 ] final  132.19 input  -60.11 | X-H torsion
[ 7974 7965 7964 7962 ] final  -33.51 input  175.53 | X-H torsion
[ 8008 7997 7996 7995 ] final  -58.59 input   59.86 | X-H torsion
[ 10167 10162 10161 10158 ] final -137.89 input  -65.29 | X-H torsion
[ 10718 10713 10712 10709 ] final  -53.70 input   66.30 | X-H torsion
[ 10763 10752 10751 10750 ] final  144.94 input  -60.55 | X-H torsion
[ 11005 11000 10999 10996 ] final  -18.47 input  -57.11 | X-H torsion

> <Gold.Protein.ActiveResidues>
 VAL166  LYS551  ARG553  GLY616  TRP617  ASP618  TYR619  PRO620  LYS621  CYS622 
 ASP623  PHE694  ASN695  SER759  ASP760  ASP761  ALA762  ILE779  LEU786  VAL792 
 PHE793  MET794  SER795  GLU796  ALA797  LYS798  CYS799  TRP800  GLU811  SER814 

> <Gold.Protein.RotatedAtoms>
  152.3349  133.6000  159.5835 H   0  0  0  0  0  0  0  0  0  0  0  0  # atno 6907 bound_to 6896
  150.7444  133.9811  159.3585 H   0  0  0  0  0  0  0  0  0  0  0  0  # atno 6908 bound_to 6896
  151.7682  135.0794  160.0407 H   0  0  0  0  0  0  0  0  0  0  0  0  # atno 6909 bound_to 6896
  146.0904  140.5925  142.8867 H   0  0  0  0  0  0  0  0  0  0  0  0  # atno 7974 bound_to 7965
  154.4315  140.1080  156.5981 H   0  0  0  0  0  0  0  0  0  0  0  0  # atno 8008 bound_to 7997
  155.5940  140.3492  155.4556 H   0  0  0  0  0  0  0  0  0  0  0  0  # atno 8009 bound_to 7997
  156.0225  140.1242  157.0332 H   0  0  0  0  0  0  0  0  0  0  0  0  # atno 8010 bound_to 7997
  139.8533  143.7171  152.2656 H   0  0  0  0  0  0  0  0  0  0  0  0  # atno 10167 bound_to 10162
  156.1513  130.4151  149.9941 H   0  0  0  0  0  0  0  0  0  0  0  0  # atno 10718 bound_to 10713
  153.9971  135.2926  155.3406 H   0  0  0  0  0  0  0  0  0  0  0  0  # atno 10763 bound_to 10752
  154.7181  135.5121  153.8772 H   0  0  0  0  0  0  0  0  0  0  0  0  # atno 10764 bound_to 10752
  153.0783  135.6670  154.0217 H   0  0  0  0  0  0  0  0  0  0  0  0  # atno 10765 bound_to 10752
  140.8271  133.8025  155.9719 H   0  0  0  0  0  0  0  0  0  0  0  0  # atno 11005 bound_to 11000
  144.7356  140.4799  143.6906 LP  0  0  0  0  0  0  0  0  0  0  0  0  # atno 17320 bound_to 7965
  145.6049  139.1507  143.3108 LP  0  0  0  0  0  0  0  0  0  0  0  0  # atno 17321 bound_to 7965
  139.7444  144.7551  151.0602 LP  0  0  0  0  0  0  0  0  0  0  0  0  # atno 17342 bound_to 10162
  140.7785  143.4933  150.9865 LP  0  0  0  0  0  0  0  0  0  0  0  0  # atno 17343 bound_to 10162
  156.7798  130.9217  151.3646 LP  0  0  0  0  0  0  0  0  0  0  0  0  # atno 17370 bound_to 10713
  157.6659  130.9007  149.9930 LP  0  0  0  0  0  0  0  0  0  0  0  0  # atno 17371 bound_to 10713
  140.9038  134.2346  157.5026 LP  0  0  0  0  0  0  0  0  0  0  0  0  # atno 17394 bound_to 11000
  139.8706  134.9718  156.4752 LP  0  0  0  0  0  0  0  0  0  0  0  0  # atno 17395 bound_to 11000

$$$$
