AV-unprocessed.smi:1957|AV-procd|sdf|7905|dock2
  -GOLD-   2272010 63D 1   1.00000     0.00000
 Structure written by MMmdl.
 42 43  0  0  0  0  0  0  0  0  1 V2000
  151.2248  145.5166  159.8183 C   0  0  0  0  0  0  0  0  0  0  0  0
  151.9608  145.0071  160.9166 O   0  0  0  0  0  0  0  0  0  0  0  0
  152.1301  143.6014  160.8502 C   0  0  0  0  0  0  0  0  0  0  0  0
  152.7926  143.2444  159.5111 C   0  0  0  0  0  0  0  0  0  0  0  0
  152.8581  141.7930  159.3133 N   0  0  0  0  0  0  0  0  0  0  0  0
  151.9135  141.3009  158.4279 N   0  0  0  0  0  0  0  0  0  0  0  0
  151.8724  140.0361  158.1575 C   0  0  0  0  0  0  0  0  0  0  0  0
  150.8758  139.4680  157.2083 C   0  0  0  0  0  0  0  0  0  0  0  0
  150.8035  138.2581  156.9866 O   0  0  0  0  0  0  0  0  0  0  0  0
  150.0725  140.3683  156.6113 N   0  0  0  0  0  0  0  0  0  0  0  0
  149.0535  140.0665  155.6037 C   0  0  1  0  0  0  0  0  0  0  0  0
  148.4857  141.4122  155.0973 C   0  0  0  0  0  0  0  0  0  0  0  0
  147.0897  141.2958  154.4605 C   0  0  0  0  0  0  0  0  0  0  0  0
  147.0330  140.4705  153.1659 C   0  0  0  0  0  0  0  0  0  0  0  0
  147.4286  138.9959  153.3545 C   0  0  0  0  0  0  0  0  0  0  0  0
  148.8720  138.8238  153.4525 N   0  0  0  0  0  0  0  0  0  0  0  0
  149.6776  139.2996  154.4139 C   0  0  0  0  0  0  0  0  0  0  0  0
  150.8951  139.1301  154.3435 O   0  0  0  0  0  0  0  0  0  0  0  0
  152.8094  139.1124  158.7747 C   0  0  0  0  0  0  0  0  0  0  0  0
  153.7267  139.6077  159.6341 C   0  0  0  0  0  0  0  0  0  0  0  0
  153.7975  141.0343  159.9542 C   0  0  0  0  0  0  0  0  0  0  0  0
  154.6287  141.5101  160.7268 O   0  0  0  0  0  0  0  0  0  0  0  0
  151.1293  146.5983  159.9115 H   0  0  0  0  0  0  0  0  0  0  0  0
  150.2210  145.0913  159.7860 H   0  0  0  0  0  0  0  0  0  0  0  0
  151.7264  145.3032  158.8735 H   0  0  0  0  0  0  0  0  0  0  0  0
  152.7528  143.2605  161.6791 H   0  0  0  0  0  0  0  0  0  0  0  0
  151.1616  143.1072  160.9408 H   0  0  0  0  0  0  0  0  0  0  0  0
  152.2536  143.7172  158.6882 H   0  0  0  0  0  0  0  0  0  0  0  0
  153.7978  143.6690  159.4811 H   0  0  0  0  0  0  0  0  0  0  0  0
  150.2017  141.3417  156.8473 H   0  0  0  0  0  0  0  0  0  0  0  0
  148.2607  139.4718  156.0613 H   0  0  0  0  0  0  0  0  0  0  0  0
  148.3933  142.0978  155.9413 H   0  0  0  0  0  0  0  0  0  0  0  0
  149.1784  141.8950  154.4056 H   0  0  0  0  0  0  0  0  0  0  0  0
  146.3950  140.8745  155.1882 H   0  0  0  0  0  0  0  0  0  0  0  0
  146.7211  142.2996  154.2470 H   0  0  0  0  0  0  0  0  0  0  0  0
  146.0114  140.5068  152.7864 H   0  0  0  0  0  0  0  0  0  0  0  0
  147.6534  140.9321  152.3963 H   0  0  0  0  0  0  0  0  0  0  0  0
  146.9301  138.5588  154.2209 H   0  0  0  0  0  0  0  0  0  0  0  0
  147.0966  138.4227  152.4885 H   0  0  0  0  0  0  0  0  0  0  0  0
  149.3119  138.3188  152.6966 H   0  0  0  0  0  0  0  0  0  0  0  0
  152.7804  138.0547  158.5567 H   0  0  0  0  0  0  0  0  0  0  0  0
  154.4299  138.9325  160.0992 H   0  0  0  0  0  0  0  0  0  0  0  0
  1  2  1  0  0  0  0
  1 23  1  0  0  0  0
  1 24  1  0  0  0  0
  1 25  1  0  0  0  0
  2  3  1  0  0  0  0
  3  4  1  0  0  0  0
  3 26  1  0  0  0  0
  3 27  1  0  0  0  0
  4  5  1  0  0  0  0
  4 28  1  0  0  0  0
  4 29  1  0  0  0  0
  5 21  1  0  0  0  0
  5  6  1  0  0  0  0
  6  7  2  0  0  0  0
  7  8  1  0  0  0  0
  7 19  1  0  0  0  0
  8  9  2  0  0  0  0
  8 10  1  0  0  0  0
 10 11  1  0  0  0  0
 10 30  1  0  0  0  0
 11 17  1  0  0  0  0
 11 12  1  0  0  0  0
 11 31  1  0  0  0  0
 12 13  1  0  0  0  0
 12 32  1  0  0  0  0
 12 33  1  0  0  0  0
 13 14  1  0  0  0  0
 13 34  1  0  0  0  0
 13 35  1  0  0  0  0
 14 15  1  0  0  0  0
 14 36  1  0  0  0  0
 14 37  1  0  0  0  0
 15 16  1  0  0  0  0
 15 38  1  0  0  0  0
 15 39  1  0  0  0  0
 16 17  1  0  0  0  0
 16 40  1  0  0  0  0
 17 18  2  0  0  0  0
 19 20  2  0  0  0  0
 19 41  1  0  0  0  0
 20 21  1  0  0  0  0
 20 42  1  0  0  0  0
 21 22  2  0  0  0  0
M  END
> <s_m_source_file>
AV-unprocessed.smi

> <i_m_source_file_index>
1957

> <i_lp_mmshare_version>
43012

> <i_f3d_flags>
0

> <s_epik_input>
W0NIM11PW0NIMl1bQ0gyXW4xbmMoW2NIXVtjSF1jMT1PKUMoPU8pW05IXVtDQEBIXTJbQ0gyXVtDSDJdW0NIMl1bQ0gyXVtOSF1DMj1P

> <s_epik_cmdline>
J2VwaWtfcHl0aG9uJywgJy1waCcsICc3LjAnLCAnLXRuJywgJzgnLCAnLW1hJywgJzIwMCcsICctbWV0YWxfYmluZGluZycsICctaW1hZScsICc8aW5maWxlLm1hZT4nLCAnLW9tYWUnLCAnPG91dGZpbGUubWFlPic=

> <r_lp_tautomer_probability>
1

> <r_epik_Ionization_Penalty>
2.17512e-06

> <r_epik_Ionization_Penalty_Charging>
5.0222e-09

> <r_epik_Ionization_Penalty_Neutral>
2.1701e-06

> <r_epik_State_Penalty>
-0

> <r_epik_Charging_Adjusted_Penalty>
5.0222e-09

> <i_epik_Tot_Q>
0

> <i_epik_Tot_abs_Q>
0

> <r_epik_Metal_State_Penalty>
-0

> <b_epik_Metal_Only>
0

> <s_lp_Force_Field>
OPLS_2005

> <r_lp_Energy>
29.6922

> <b_lp_Chiralities_Consistent>
1

> <s_lp_Variant>
AV-unprocessed.smi:1957-2

> <Gold.Version>
5.8.1

> <Gold.Id.Protein>
6NUR|6NUR_protein|mol2

> <Gold.PLP.Fitness>
43.4388

> <Gold.PLP.PLP>
-40.2048

> <Gold.PLP.part.hbond>
-3.8715

> <Gold.PLP.part.metal>
0.0000

> <Gold.PLP.part.buried>
-4.1091

> <Gold.PLP.part.nonpolar>
-32.9617

> <Gold.PLP.part.repulsive>
0.4780

> <Gold.PLP.ligand.clash>
0.0000

> <Gold.PLP.ligand.torsion>
0.2739

> <Gold.PLP.Chemscore.Hbond>
1.2496

> <Gold.PLP.Chemscore.CHOScore>
0.0000

> <Gold.PLP.Chemscore.Metal>
0.0000

> <Gold.Chemscore.Hbonds>
donor molecule, donor type, donor heavy atom, donor atom, acceptor molecule, acceptor atom, score
      L1  H    16    40       P1  7948  0.33
      P1  H  7989  7998       L1    18  0.93

> <Gold.PLP.Chemscore.Internal.Correction>
0.0331

> <Gold.Rescore>
     Score         DG    S(hbond)    S(metal)    S(lipo)     H(rot)  DE(clash)    DE(int)     intcor
     10.41     -14.53       1.17        0.00      82.88       1.78       0.13       3.98       ----

> <Gold.Chemscore.Fitness>
10.4071

> <Gold.Chemscore.DG>
-14.5259

> <Gold.Chemscore.ZeroCoef>
-5.4800

> <Gold.Chemscore.Hbond>
1.1685

> <Gold.Chemscore.Metal>
0.0000

> <Gold.Chemscore.Lipo>
82.8842

> <Gold.Chemscore.Internal_Hbond>
0.0000

> <Gold.Chemscore.DEClash>
0.1343

> <Gold.Chemscore.DEInternal>
3.9846

> <Gold.Chemscore.Rot>
1.7791

> <Gold.Chemscore.Internal.Correction>
   9.000000E+99

> <Gold.Chemscore.Hbonds>
donor molecule, donor type, donor heavy atom, donor atom, acceptor molecule, acceptor atom, score
      L1  H    16    40       P1  7948  0.30
      P1  H  7989  7998       L1    18  0.44

> <Gold.Chemscore.Hbond.Weighted>
-3.9029

> <Gold.Chemscore.Metal.Weighted>
-0.0000

> <Gold.Chemscore.Lipo.Weighted>
-9.6975

> <Gold.Chemscore.Internal_Hbond.Weighted>
0.0000

> <Gold.Chemscore.DEClash.Weighted>
0.1343

> <Gold.Chemscore.DEInternal.Weighted>
3.9846

> <Gold.Chemscore.Rot.Weighted>
4.5544

> <Gold.Chemscore.Internal.Correction.Weighted>
   9.000000E+99

> <Gold.Protein.RotatedTorsions>
[ 6907 6896 6895 6894 ] final   10.24 input  -60.11 | X-H torsion
[ 7974 7965 7964 7962 ] final  136.70 input  175.53 | X-H torsion
[ 8008 7997 7996 7995 ] final   47.28 input   59.86 | X-H torsion
[ 10167 10162 10161 10158 ] final -178.43 input  -65.29 | X-H torsion
[ 10718 10713 10712 10709 ] final  -24.87 input   66.30 | X-H torsion
[ 10763 10752 10751 10750 ] final   -7.54 input  -60.55 | X-H torsion
[ 11005 11000 10999 10996 ] final -110.15 input  -57.11 | X-H torsion

> <Gold.Protein.ActiveResidues>
 VAL166  LYS551  ARG553  GLY616  TRP617  ASP618  TYR619  PRO620  LYS621  CYS622 
 ASP623  PHE694  ASN695  SER759  ASP760  ASP761  ALA762  ILE779  LEU786  VAL792 
 PHE793  MET794  SER795  GLU796  ALA797  LYS798  CYS799  TRP800  GLU811  SER814 

> <Gold.Protein.RotatedAtoms>
  151.7351  135.0866  160.0306 H   0  0  0  0  0  0  0  0  0  0  0  0  # atno 6907 bound_to 6896
  152.3516  133.6182  159.5957 H   0  0  0  0  0  0  0  0  0  0  0  0  # atno 6908 bound_to 6896
  150.7543  133.9481  159.3519 H   0  0  0  0  0  0  0  0  0  0  0  0  # atno 6909 bound_to 6896
  144.9539  139.4786  143.5512 H   0  0  0  0  0  0  0  0  0  0  0  0  # atno 7974 bound_to 7965
  155.3664  140.3421  155.4242 H   0  0  0  0  0  0  0  0  0  0  0  0  # atno 8008 bound_to 7997
  156.1686  140.1624  156.8522 H   0  0  0  0  0  0  0  0  0  0  0  0  # atno 8009 bound_to 7997
  154.5210  140.0767  156.8153 H   0  0  0  0  0  0  0  0  0  0  0  0  # atno 8010 bound_to 7997
  139.5433  144.2304  152.0938 H   0  0  0  0  0  0  0  0  0  0  0  0  # atno 10167 bound_to 10162
  156.4719  130.4526  149.6864 H   0  0  0  0  0  0  0  0  0  0  0  0  # atno 10718 bound_to 10713
  153.4278  135.7011  153.6251 H   0  0  0  0  0  0  0  0  0  0  0  0  # atno 10763 bound_to 10752
  153.4678  135.3721  155.2374 H   0  0  0  0  0  0  0  0  0  0  0  0  # atno 10764 bound_to 10752
  154.8724  135.4035  154.3657 H   0  0  0  0  0  0  0  0  0  0  0  0  # atno 10765 bound_to 10752
  141.0808  133.9223  157.2292 H   0  0  0  0  0  0  0  0  0  0  0  0  # atno 11005 bound_to 11000
  146.3331  139.8644  142.8851 LP  0  0  0  0  0  0  0  0  0  0  0  0  # atno 17320 bound_to 7965
  145.2801  141.0136  143.3722 LP  0  0  0  0  0  0  0  0  0  0  0  0  # atno 17321 bound_to 7965
  140.1787  144.4866  150.6540 LP  0  0  0  0  0  0  0  0  0  0  0  0  # atno 17342 bound_to 10162
  140.6671  143.2272  151.5716 LP  0  0  0  0  0  0  0  0  0  0  0  0  # atno 17343 bound_to 10162
  156.3610  130.7481  151.2453 LP  0  0  0  0  0  0  0  0  0  0  0  0  # atno 17370 bound_to 10713
  157.7490  131.0350  150.4344 LP  0  0  0  0  0  0  0  0  0  0  0  0  # atno 17371 bound_to 10713
  139.9622  135.0151  156.9291 LP  0  0  0  0  0  0  0  0  0  0  0  0  # atno 17394 bound_to 11000
  140.5473  134.0662  155.7358 LP  0  0  0  0  0  0  0  0  0  0  0  0  # atno 17395 bound_to 11000

$$$$
