AV-unprocessed.smi:1619|AV-procd|sdf|6489|dock5
  -GOLD-   22720 7153D 1   1.00000     0.00000
 Structure written by MMmdl.
 45 47  0  0  0  0  0  0  0  0  3 V2000
  152.4689  142.2247  159.8782 C   0  0  0  0  0  0  0  0  0  0  0  0
  151.9060  141.6364  158.5954 C   0  0  0  0  0  0  0  0  0  0  0  0
  150.9855  142.4056  157.8479 C   0  0  0  0  0  0  0  0  0  0  0  0
  150.4914  141.8422  156.6774 C   0  0  0  0  0  0  0  0  0  0  0  0
  149.5879  142.3359  155.7337 N   0  3  0  0  0  0  0  0  0  0  0  0
  149.4107  141.4131  154.7477 C   0  0  0  0  0  0  0  0  0  0  0  0
  150.1902  140.3380  155.0471 N   0  0  0  0  0  0  0  0  0  0  0  0
  150.3768  139.0725  154.3241 C   0  0  0  0  0  0  0  0  0  0  0  0
  149.8041  137.8581  155.0816 C   0  0  2  0  0  0  0  0  0  0  0  0
  150.1769  136.6714  154.4070 O   0  0  0  0  0  0  0  0  0  0  0  0
  148.2675  137.9177  155.1831 C   0  0  0  0  0  0  0  0  0  0  0  0
  147.6031  137.7950  153.8626 N   0  3  0  0  0  0  0  0  0  0  0  0
  146.2742  137.1504  153.8763 C   0  0  0  0  0  0  0  0  0  0  0  0
  145.5915  137.5772  152.5728 C   0  0  0  0  0  0  0  0  0  0  0  0
  146.3660  138.8071  152.0838 C   0  0  0  0  0  0  0  0  0  0  0  0
  147.4182  139.0785  153.1609 C   0  0  0  0  0  0  0  0  0  0  0  0
  150.8803  140.5601  156.2435 C   0  0  0  0  0  0  0  0  0  0  0  0
  151.7840  139.7876  156.9688 C   0  0  0  0  0  0  0  0  0  0  0  0
  152.3005  140.3443  158.1608 C   0  0  0  0  0  0  0  0  0  0  0  0
  153.2928  139.5276  158.9712 C   0  0  0  0  0  0  0  0  0  0  0  0
  152.0390  143.2044  160.0899 H   0  0  0  0  0  0  0  0  0  0  0  0
  153.5499  142.3441  159.8016 H   0  0  0  0  0  0  0  0  0  0  0  0
  152.2510  141.5763  160.7271 H   0  0  0  0  0  0  0  0  0  0  0  0
  150.6807  143.3899  158.1725 H   0  0  0  0  0  0  0  0  0  0  0  0
  148.7707  141.5181  153.8834 H   0  0  0  0  0  0  0  0  0  0  0  0
  149.9187  139.1707  153.3389 H   0  0  0  0  0  0  0  0  0  0  0  0
  151.4473  138.9460  154.1560 H   0  0  0  0  0  0  0  0  0  0  0  0
  150.2397  137.8318  156.0803 H   0  0  0  0  0  0  0  0  0  0  0  0
  149.5897  136.5387  153.6781 H   0  0  0  0  0  0  0  0  0  0  0  0
  147.9023  137.1278  155.8414 H   0  0  0  0  0  0  0  0  0  0  0  0
  147.9715  138.8623  155.6427 H   0  0  0  0  0  0  0  0  0  0  0  0
  146.3489  136.0661  153.9640 H   0  0  0  0  0  0  0  0  0  0  0  0
  145.6971  137.5185  154.7264 H   0  0  0  0  0  0  0  0  0  0  0  0
  145.6539  136.7805  151.8303 H   0  0  0  0  0  0  0  0  0  0  0  0
  144.5348  137.7951  152.7322 H   0  0  0  0  0  0  0  0  0  0  0  0
  146.8512  138.5827  151.1331 H   0  0  0  0  0  0  0  0  0  0  0  0
  145.7176  139.6697  151.9268 H   0  0  0  0  0  0  0  0  0  0  0  0
  147.0390  139.8238  153.8622 H   0  0  0  0  0  0  0  0  0  0  0  0
  148.3553  139.4516  152.7459 H   0  0  0  0  0  0  0  0  0  0  0  0
  152.0832  138.8039  156.6388 H   0  0  0  0  0  0  0  0  0  0  0  0
  153.5094  138.5724  158.4924 H   0  0  0  0  0  0  0  0  0  0  0  0
  152.8960  139.3195  159.9650 H   0  0  0  0  0  0  0  0  0  0  0  0
  154.2341  140.0666  159.0795 H   0  0  0  0  0  0  0  0  0  0  0  0
  148.1974  137.2302  153.2721 H   0  0  0  0  0  0  0  0  0  0  0  0
  149.1257  143.2359  155.7582 H   0  0  0  0  0  0  0  0  0  0  0  0
  1  2  1  0  0  0  0
  1 21  1  0  0  0  0
  1 22  1  0  0  0  0
  1 23  1  0  0  0  0
  2 19  1  0  0  0  0
  2  3  2  0  0  0  0
  3  4  1  0  0  0  0
  3 24  1  0  0  0  0
  4 17  2  0  0  0  0
  4  5  1  0  0  0  0
  5  6  2  0  0  0  0
  5 45  1  0  0  0  0
  6  7  1  0  0  0  0
  6 25  1  0  0  0  0
  7  8  1  0  0  0  0
  7 17  1  0  0  0  0
  8  9  1  0  0  0  0
  8 26  1  0  0  0  0
  8 27  1  0  0  0  0
  9 10  1  0  0  0  0
  9 11  1  0  0  0  0
  9 28  1  0  0  0  0
 10 29  1  0  0  0  0
 11 12  1  0  0  0  0
 11 30  1  0  0  0  0
 11 31  1  0  0  0  0
 12 16  1  0  0  0  0
 12 13  1  0  0  0  0
 12 44  1  0  0  0  0
 13 14  1  0  0  0  0
 13 32  1  0  0  0  0
 13 33  1  0  0  0  0
 14 15  1  0  0  0  0
 14 34  1  0  0  0  0
 14 35  1  0  0  0  0
 15 16  1  0  0  0  0
 15 36  1  0  0  0  0
 15 37  1  0  0  0  0
 16 38  1  0  0  0  0
 16 39  1  0  0  0  0
 17 18  1  0  0  0  0
 18 19  2  0  0  0  0
 18 40  1  0  0  0  0
 19 20  1  0  0  0  0
 20 41  1  0  0  0  0
 20 42  1  0  0  0  0
 20 43  1  0  0  0  0
M  CHG  1   5   1
M  CHG  1  12   1
M  END
> <s_m_source_file>
AV-unprocessed.smi

> <i_m_source_file_index>
1619

> <i_lp_mmshare_version>
43012

> <i_f3d_flags>
0

> <s_epik_input>
W0NIM11jKFtjSF0xKWMoW0NIM10pW2NIXWMoYzEyKW4oW2NIXW4yKVtDSDJdW0NASF0oW09IXSlbQ0gyXU4zW0NIMl1bQ0gyXVtDSDJdW0NIMl0z

> <s_epik_cmdline>
J2VwaWtfcHl0aG9uJywgJy1waCcsICc3LjAnLCAnLXRuJywgJzgnLCAnLW1hJywgJzIwMCcsICctbWV0YWxfYmluZGluZycsICctaW1hZScsICc8aW5maWxlLm1hZT4nLCAnLW9tYWUnLCAnPG91dGZpbGUubWFlPic=

> <r_epik_Ionization_Penalty>
1.18067

> <r_epik_Ionization_Penalty_Charging>
1.18067

> <r_epik_Ionization_Penalty_Neutral>
1.08888e-06

> <r_epik_State_Penalty>
1.26407

> <r_epik_Charging_Adjusted_Penalty>
2.44473

> <i_epik_Tot_Q>
2

> <i_epik_Tot_abs_Q>
2

> <r_epik_Metal_State_Penalty>
5.27628

> <b_epik_Metal_Only>
0

> <s_lp_Force_Field>
OPLS_2005

> <r_lp_Energy>
41.212

> <b_lp_Chiralities_Consistent>
1

> <s_lp_Variant>
AV-unprocessed.smi:1619-3

> <Gold.Version>
5.8.1

> <Gold.Id.Protein>
6NUR|6NUR_protein|mol2

> <Gold.PLP.Fitness>
52.8916

> <Gold.PLP.PLP>
-38.7812

> <Gold.PLP.part.hbond>
-3.8035

> <Gold.PLP.part.metal>
0.0000

> <Gold.PLP.part.buried>
-1.1325

> <Gold.PLP.part.nonpolar>
-34.1516

> <Gold.PLP.part.repulsive>
0.1629

> <Gold.PLP.ligand.clash>
0.0000

> <Gold.PLP.ligand.torsion>
0.4645

> <Gold.PLP.Chemscore.Hbond>
5.0000

> <Gold.PLP.Chemscore.CHOScore>
0.0000

> <Gold.PLP.Chemscore.Metal>
0.0000

> <Gold.Chemscore.Hbonds>
donor molecule, donor type, donor heavy atom, donor atom, acceptor molecule, acceptor atom, score
      L1  H     5    45       P1  8028  1.89
      L1  H    10    29       P1  7948  1.00
      L1  H    12    44       P1  7948  2.00

> <Gold.PLP.Chemscore.Internal.Correction>
0.0394

> <Gold.Rescore>
     Score         DG    S(hbond)    S(metal)    S(lipo)     H(rot)  DE(clash)    DE(int)     intcor
     19.12     -19.61       2.62        0.00      91.54       2.08       0.07       0.41       ----

> <Gold.Chemscore.Fitness>
19.1244

> <Gold.Chemscore.DG>
-19.6056

> <Gold.Chemscore.ZeroCoef>
-5.4800

> <Gold.Chemscore.Hbond>
2.6177

> <Gold.Chemscore.Metal>
0.0000

> <Gold.Chemscore.Lipo>
91.5379

> <Gold.Chemscore.Internal_Hbond>
0.0000

> <Gold.Chemscore.DEClash>
0.0691

> <Gold.Chemscore.DEInternal>
0.4120

> <Gold.Chemscore.Rot>
2.0811

> <Gold.Chemscore.Internal.Correction>
   9.000000E+99

> <Gold.Chemscore.Hbonds>
donor molecule, donor type, donor heavy atom, donor atom, acceptor molecule, acceptor atom, score
      L1  H     5    45       P1  8028  0.90
      L1  H    10    29       P1  7948  0.65
      L1  H    12    44       P1  7948  1.00

> <Gold.Chemscore.Hbond.Weighted>
-8.7432

> <Gold.Chemscore.Metal.Weighted>
-0.0000

> <Gold.Chemscore.Lipo.Weighted>
-10.7099

> <Gold.Chemscore.Internal_Hbond.Weighted>
0.0000

> <Gold.Chemscore.DEClash.Weighted>
0.0691

> <Gold.Chemscore.DEInternal.Weighted>
0.4120

> <Gold.Chemscore.Rot.Weighted>
5.3275

> <Gold.Chemscore.Internal.Correction.Weighted>
   9.000000E+99

> <Gold.Protein.RotatedTorsions>
[ 6907 6896 6895 6894 ] final -152.34 input  -60.11 | X-H torsion
[ 7974 7965 7964 7962 ] final  -74.32 input  175.53 | X-H torsion
[ 8008 7997 7996 7995 ] final -107.50 input   59.86 | X-H torsion
[ 10167 10162 10161 10158 ] final -125.70 input  -65.29 | X-H torsion
[ 10718 10713 10712 10709 ] final   15.37 input   66.30 | X-H torsion
[ 10763 10752 10751 10750 ] final -176.16 input  -60.55 | X-H torsion
[ 11005 11000 10999 10996 ] final  126.61 input  -57.11 | X-H torsion

> <Gold.Protein.ActiveResidues>
 VAL166  LYS551  ARG553  GLY616  TRP617  ASP618  TYR619  PRO620  LYS621  CYS622 
 ASP623  PHE694  ASN695  SER759  ASP760  ASP761  ALA762  ILE779  LEU786  VAL792 
 PHE793  MET794  SER795  GLU796  ALA797  LYS798  CYS799  TRP800  GLU811  SER814 

> <Gold.Protein.RotatedAtoms>
  151.2263  133.4474  159.2602 H   0  0  0  0  0  0  0  0  0  0  0  0  # atno 6907 bound_to 6896
  151.0836  134.9874  159.8378 H   0  0  0  0  0  0  0  0  0  0  0  0  # atno 6908 bound_to 6896
  152.5427  134.2201  159.8837 H   0  0  0  0  0  0  0  0  0  0  0  0  # atno 6909 bound_to 6896
  145.6406  140.9312  143.1038 H   0  0  0  0  0  0  0  0  0  0  0  0  # atno 7974 bound_to 7965
  154.9302  140.0405  157.2044 H   0  0  0  0  0  0  0  0  0  0  0  0  # atno 8008 bound_to 7997
  154.8168  140.2877  155.5793 H   0  0  0  0  0  0  0  0  0  0  0  0  # atno 8009 bound_to 7997
  156.2976  140.2526  156.3067 H   0  0  0  0  0  0  0  0  0  0  0  0  # atno 8010 bound_to 7997
  139.9793  143.5759  152.2384 H   0  0  0  0  0  0  0  0  0  0  0  0  # atno 10167 bound_to 10162
  157.0525  130.6275  149.5770 H   0  0  0  0  0  0  0  0  0  0  0  0  # atno 10718 bound_to 10713
  154.5757  135.2832  155.0783 H   0  0  0  0  0  0  0  0  0  0  0  0  # atno 10763 bound_to 10752
  154.2139  135.6403  153.5127 H   0  0  0  0  0  0  0  0  0  0  0  0  # atno 10764 bound_to 10752
  153.0071  135.5498  154.6394 H   0  0  0  0  0  0  0  0  0  0  0  0  # atno 10765 bound_to 10752
  139.9465  134.9629  156.8732 H   0  0  0  0  0  0  0  0  0  0  0  0  # atno 11005 bound_to 11000
  144.7159  139.8200  143.7399 LP  0  0  0  0  0  0  0  0  0  0  0  0  # atno 17320 bound_to 7965
  146.1284  139.4314  143.0184 LP  0  0  0  0  0  0  0  0  0  0  0  0  # atno 17321 bound_to 7965
  139.6421  144.7655  151.2317 LP  0  0  0  0  0  0  0  0  0  0  0  0  # atno 17342 bound_to 10162
  140.7494  143.6299  150.8433 LP  0  0  0  0  0  0  0  0  0  0  0  0  # atno 17343 bound_to 10162
  156.0003  130.5081  150.7638 LP  0  0  0  0  0  0  0  0  0  0  0  0  # atno 17370 bound_to 10713
  157.5019  131.0919  151.0304 LP  0  0  0  0  0  0  0  0  0  0  0  0  # atno 17371 bound_to 10713
  140.5823  134.0341  155.7468 LP  0  0  0  0  0  0  0  0  0  0  0  0  # atno 17394 bound_to 11000
  141.1116  133.9607  157.2899 LP  0  0  0  0  0  0  0  0  0  0  0  0  # atno 17395 bound_to 11000

$$$$
