AV-unprocessed.smi:586|AV-procd|sdf|3001|dock7
  -GOLD-   2262023503D 1   1.00000     0.00000
 Structure written by MMmdl.
 49 49  0  0  0  0  0  0  0  0  1 V2000
  146.2838  133.5389  151.5276 C   0  0  0  0  0  0  0  0  0  0  0  0
  146.9185  132.9956  152.8147 C   0  0  0  0  0  0  0  0  0  0  0  0
  148.4494  133.1675  152.8956 C   0  0  0  0  0  0  0  0  0  0  0  0
  148.9885  133.0135  154.2352 N   0  0  0  0  0  0  0  0  0  0  0  0
  149.4900  134.0836  154.9819 C   0  0  0  0  0  0  0  0  0  0  0  0
  149.4786  135.3412  154.3951 N   0  0  0  0  0  0  0  0  0  0  0  0
  149.9446  133.9203  156.2621 C   0  0  0  0  0  0  0  0  0  0  0  0
  150.4807  134.9940  156.9993 N   0  0  0  0  0  0  0  0  0  0  0  0
  149.5724  135.6007  157.9908 C   0  0  0  0  0  0  0  0  0  0  0  0
  149.0780  134.5744  159.0309 C   0  0  0  0  0  0  0  0  0  0  0  0
  148.6556  135.2065  160.2309 O   0  0  0  0  0  0  0  0  0  0  0  0
  148.5378  134.3287  161.3398 C   0  0  0  0  0  0  0  0  0  0  0  0
  151.6967  135.5673  156.7530 C   0  0  0  0  0  0  0  0  0  0  0  0
  152.5470  134.9377  156.1186 O   0  0  0  0  0  0  0  0  0  0  0  0
  152.0638  137.0341  157.1693 C   0  0  0  0  0  0  0  0  0  0  0  0
  151.1609  138.1281  156.5506 C   0  0  0  0  0  0  0  0  0  0  0  0
  153.4991  137.3346  156.6630 C   0  0  0  0  0  0  0  0  0  0  0  0
  152.0912  137.1630  158.7068 C   0  0  0  0  0  0  0  0  0  0  0  0
  149.9991  132.5803  156.8634 C   0  0  0  0  0  0  0  0  0  0  0  0
  150.4651  132.3058  157.9685 O   0  0  0  0  0  0  0  0  0  0  0  0
  149.4789  131.5598  156.0729 N   0  0  0  0  0  0  0  0  0  0  0  0
  148.9592  131.7116  154.7932 C   0  0  0  0  0  0  0  0  0  0  0  0
  148.5050  130.7267  154.2104 O   0  0  0  0  0  0  0  0  0  0  0  0
  149.4797  130.6285  156.4629 H   0  0  0  0  0  0  0  0  0  0  0  0
  145.1981  133.4496  151.5651 H   0  0  0  0  0  0  0  0  0  0  0  0
  146.6271  132.9897  150.6508 H   0  0  0  0  0  0  0  0  0  0  0  0
  146.5260  134.5922  151.3831 H   0  0  0  0  0  0  0  0  0  0  0  0
  146.4681  133.5054  153.6665 H   0  0  0  0  0  0  0  0  0  0  0  0
  146.6559  131.9430  152.9239 H   0  0  0  0  0  0  0  0  0  0  0  0
  148.9682  132.4885  152.2176 H   0  0  0  0  0  0  0  0  0  0  0  0
  148.7458  134.1645  152.5685 H   0  0  0  0  0  0  0  0  0  0  0  0
  149.1225  135.4896  153.4615 H   0  0  0  0  0  0  0  0  0  0  0  0
  149.8335  136.1564  154.8741 H   0  0  0  0  0  0  0  0  0  0  0  0
  150.0819  136.4158  158.5027 H   0  0  0  0  0  0  0  0  0  0  0  0
  148.7203  136.0673  157.4931 H   0  0  0  0  0  0  0  0  0  0  0  0
  148.2182  134.0346  158.6345 H   0  0  0  0  0  0  0  0  0  0  0  0
  149.8409  133.8235  159.2413 H   0  0  0  0  0  0  0  0  0  0  0  0
  148.1641  134.8829  162.2006 H   0  0  0  0  0  0  0  0  0  0  0  0
  149.4969  133.8939  161.6199 H   0  0  0  0  0  0  0  0  0  0  0  0
  147.8341  133.5215  161.1325 H   0  0  0  0  0  0  0  0  0  0  0  0
  151.6318  139.1100  156.6082 H   0  0  0  0  0  0  0  0  0  0  0  0
  150.2116  138.2325  157.0739 H   0  0  0  0  0  0  0  0  0  0  0  0
  150.9591  137.9372  155.4966 H   0  0  0  0  0  0  0  0  0  0  0  0
  153.5768  137.2123  155.5816 H   0  0  0  0  0  0  0  0  0  0  0  0
  154.2444  136.6859  157.1259 H   0  0  0  0  0  0  0  0  0  0  0  0
  153.8000  138.3577  156.8920 H   0  0  0  0  0  0  0  0  0  0  0  0
  152.6287  138.0598  159.0174 H   0  0  0  0  0  0  0  0  0  0  0  0
  152.5844  136.3116  159.1777 H   0  0  0  0  0  0  0  0  0  0  0  0
  151.0920  137.2446  159.1302 H   0  0  0  0  0  0  0  0  0  0  0  0
  1  2  1  0  0  0  0
  1 25  1  0  0  0  0
  1 26  1  0  0  0  0
  1 27  1  0  0  0  0
  2  3  1  0  0  0  0
  2 28  1  0  0  0  0
  2 29  1  0  0  0  0
  3  4  1  0  0  0  0
  3 30  1  0  0  0  0
  3 31  1  0  0  0  0
  4 22  1  0  0  0  0
  4  5  1  0  0  0  0
  5  6  1  0  0  0  0
  5  7  2  0  0  0  0
  6 32  1  0  0  0  0
  6 33  1  0  0  0  0
  7  8  1  0  0  0  0
  7 19  1  0  0  0  0
  8  9  1  0  0  0  0
  8 13  1  0  0  0  0
  9 10  1  0  0  0  0
  9 34  1  0  0  0  0
  9 35  1  0  0  0  0
 10 11  1  0  0  0  0
 10 36  1  0  0  0  0
 10 37  1  0  0  0  0
 11 12  1  0  0  0  0
 12 38  1  0  0  0  0
 12 39  1  0  0  0  0
 12 40  1  0  0  0  0
 13 14  2  0  0  0  0
 13 15  1  0  0  0  0
 15 16  1  0  0  0  0
 15 17  1  0  0  0  0
 15 18  1  0  0  0  0
 16 41  1  0  0  0  0
 16 42  1  0  0  0  0
 16 43  1  0  0  0  0
 17 44  1  0  0  0  0
 17 45  1  0  0  0  0
 17 46  1  0  0  0  0
 18 47  1  0  0  0  0
 18 48  1  0  0  0  0
 18 49  1  0  0  0  0
 19 20  2  0  0  0  0
 19 21  1  0  0  0  0
 21 24  1  0  0  0  0
 21 22  1  0  0  0  0
 22 23  2  0  0  0  0
M  END
> <s_m_source_file>
AV-unprocessed.smi

> <i_m_source_file_index>
586

> <i_lp_mmshare_version>
43012

> <i_f3d_flags>
0

> <s_epik_input>
W0NIM11bQ0gyXVtDSDJdbjFjKFtOSDJdKWMoYyg9TylbbkhdYzE9TylOKEMoPU8pQyhbQ0gzXSkoW0NIM10pW0NIM10pW0NIMl1bQ0gyXU9bQ0gzXQ==

> <s_epik_cmdline>
J2VwaWtfcHl0aG9uJywgJy1waCcsICc3LjAnLCAnLXRuJywgJzgnLCAnLW1hJywgJzIwMCcsICctbWV0YWxfYmluZGluZycsICctaW1hZScsICc8aW5maWxlLm1hZT4nLCAnLW9tYWUnLCAnPG91dGZpbGUubWFlPic=

> <r_lp_tautomer_probability>
1

> <r_epik_Ionization_Penalty>
2.71493e-05

> <r_epik_Ionization_Penalty_Charging>
5.25815e-06

> <r_epik_Ionization_Penalty_Neutral>
2.18912e-05

> <r_epik_State_Penalty>
-0

> <r_epik_Charging_Adjusted_Penalty>
5.25815e-06

> <i_epik_Tot_Q>
0

> <i_epik_Tot_abs_Q>
0

> <r_epik_Metal_State_Penalty>
-0

> <b_epik_Metal_Only>
0

> <s_epik_Chemistry_Notes>
This compound has an imine and may undergo hydrolysis.

> <s_lp_Force_Field>
OPLS_2005

> <r_lp_Energy>
40.2025

> <b_lp_Chiralities_Consistent>
1

> <s_lp_Variant>
AV-unprocessed.smi:586-1

> <Gold.Version>
5.8.1

> <Gold.Id.Protein>
6NUR|6NUR_protein|mol2

> <Gold.PLP.Fitness>
36.0593

> <Gold.PLP.PLP>
-28.4101

> <Gold.PLP.part.hbond>
-3.0000

> <Gold.PLP.part.metal>
0.0000

> <Gold.PLP.part.buried>
-4.1770

> <Gold.PLP.part.nonpolar>
-22.3060

> <Gold.PLP.part.repulsive>
0.0819

> <Gold.PLP.ligand.clash>
0.0000

> <Gold.PLP.ligand.torsion>
1.9948

> <Gold.PLP.Chemscore.Hbond>
2.9600

> <Gold.PLP.Chemscore.CHOScore>
0.0000

> <Gold.PLP.Chemscore.Metal>
0.0000

> <Gold.Chemscore.Hbonds>
donor molecule, donor type, donor heavy atom, donor atom, acceptor molecule, acceptor atom, score
      L1  H     6    32       P1  7948  1.00
      P1  H  6896  6908       L1    20  1.00
      P1  H 10752 10764       L1    14  0.30

> <Gold.PLP.Chemscore.Internal.Correction>
2.7588

> <Gold.Rescore>
     Score         DG    S(hbond)    S(metal)    S(lipo)     H(rot)  DE(clash)    DE(int)     intcor
     12.19     -15.77       2.94        0.00      49.72       2.08       0.02       3.56       ----

> <Gold.Chemscore.Fitness>
12.1920

> <Gold.Chemscore.DG>
-15.7731

> <Gold.Chemscore.ZeroCoef>
-5.4800

> <Gold.Chemscore.Hbond>
2.9377

> <Gold.Chemscore.Metal>
0.0000

> <Gold.Chemscore.Lipo>
49.7176

> <Gold.Chemscore.Internal_Hbond>
0.0000

> <Gold.Chemscore.DEClash>
0.0208

> <Gold.Chemscore.DEInternal>
3.5603

> <Gold.Chemscore.Rot>
2.0843

> <Gold.Chemscore.Internal.Correction>
   9.000000E+99

> <Gold.Chemscore.Hbonds>
donor molecule, donor type, donor heavy atom, donor atom, acceptor molecule, acceptor atom, score
      L1  H     6    32       P1  7948  0.55
      P1  H  6896  6908       L1    20  1.00
      P1  H 10752 10764       L1    14  0.30

> <Gold.Chemscore.Hbond.Weighted>
-9.8120

> <Gold.Chemscore.Metal.Weighted>
-0.0000

> <Gold.Chemscore.Lipo.Weighted>
-5.8170

> <Gold.Chemscore.Internal_Hbond.Weighted>
0.0000

> <Gold.Chemscore.DEClash.Weighted>
0.0208

> <Gold.Chemscore.DEInternal.Weighted>
3.5603

> <Gold.Chemscore.Rot.Weighted>
5.3359

> <Gold.Chemscore.Internal.Correction.Weighted>
   9.000000E+99

> <Gold.Protein.RotatedTorsions>
[ 6907 6896 6895 6894 ] final   92.47 input  -60.11 | X-H torsion
[ 7974 7965 7964 7962 ] final   -7.21 input  175.53 | X-H torsion
[ 8008 7997 7996 7995 ] final   48.91 input   59.86 | X-H torsion
[ 10167 10162 10161 10158 ] final  109.37 input  -65.29 | X-H torsion
[ 10718 10713 10712 10709 ] final -176.29 input   66.30 | X-H torsion
[ 10763 10752 10751 10750 ] final  -15.32 input  -60.55 | X-H torsion
[ 11005 11000 10999 10996 ] final  -64.82 input  -57.11 | X-H torsion

> <Gold.Protein.ActiveResidues>
 VAL166  LYS551  ARG553  GLY616  TRP617  ASP618  TYR619  PRO620  LYS621  CYS622 
 ASP623  PHE694  ASN695  SER759  ASP760  ASP761  ALA762  ILE779  LEU786  VAL792 
 PHE793  MET794  SER795  GLU796  ALA797  LYS798  CYS799  TRP800  GLU811  SER814 

> <Gold.Protein.RotatedAtoms>
  152.5452  134.1498  159.8513 H   0  0  0  0  0  0  0  0  0  0  0  0  # atno 6907 bound_to 6896
  151.1526  133.4890  159.2602 H   0  0  0  0  0  0  0  0  0  0  0  0  # atno 6908 bound_to 6896
  151.1457  135.0212  159.8700 H   0  0  0  0  0  0  0  0  0  0  0  0  # atno 6909 bound_to 6896
  146.2312  140.2285  142.8339 H   0  0  0  0  0  0  0  0  0  0  0  0  # atno 7974 bound_to 7965
  155.3934  140.3434  155.4252 H   0  0  0  0  0  0  0  0  0  0  0  0  # atno 8008 bound_to 7997
  156.1544  140.1581  156.8749 H   0  0  0  0  0  0  0  0  0  0  0  0  # atno 8009 bound_to 7997
  154.5082  140.0797  156.7918 H   0  0  0  0  0  0  0  0  0  0  0  0  # atno 8010 bound_to 7997
  139.6772  144.7121  151.1581 H   0  0  0  0  0  0  0  0  0  0  0  0  # atno 10167 bound_to 10162
  156.8125  130.9591  151.3115 H   0  0  0  0  0  0  0  0  0  0  0  0  # atno 10718 bound_to 10713
  153.5416  135.7013  153.5634 H   0  0  0  0  0  0  0  0  0  0  0  0  # atno 10763 bound_to 10752
  153.3597  135.3973  155.1709 H   0  0  0  0  0  0  0  0  0  0  0  0  # atno 10764 bound_to 10752
  154.8673  135.3785  154.4921 H   0  0  0  0  0  0  0  0  0  0  0  0  # atno 10765 bound_to 10752
  141.1436  133.6671  156.5892 H   0  0  0  0  0  0  0  0  0  0  0  0  # atno 11005 bound_to 11000
  144.9576  140.8243  143.5533 LP  0  0  0  0  0  0  0  0  0  0  0  0  # atno 17320 bound_to 7965
  145.2252  139.2140  143.5072 LP  0  0  0  0  0  0  0  0  0  0  0  0  # atno 17321 bound_to 7965
  140.7639  143.5754  150.8951 LP  0  0  0  0  0  0  0  0  0  0  0  0  # atno 17342 bound_to 10162
  139.9423  143.6367  152.3050 LP  0  0  0  0  0  0  0  0  0  0  0  0  # atno 17343 bound_to 10162
  157.6498  130.8875  149.9611 LP  0  0  0  0  0  0  0  0  0  0  0  0  # atno 17370 bound_to 10713
  156.1036  130.3654  150.0174 LP  0  0  0  0  0  0  0  0  0  0  0  0  # atno 17371 bound_to 10713
  140.3777  134.7551  157.4640 LP  0  0  0  0  0  0  0  0  0  0  0  0  # atno 17394 bound_to 11000
  140.0662  134.5926  155.8693 LP  0  0  0  0  0  0  0  0  0  0  0  0  # atno 17395 bound_to 11000

$$$$
