AV-unprocessed.smi:2062|AV-procd|sdf|8406|dock7
  -GOLD-   2272011 93D 1   1.00000     0.00000
 Structure written by MMmdl.
 41 42  0  0  0  0  0  0  0  0  2 V2000
  152.5659  144.3361  158.0596 C   0  0  0  0  0  0  0  0  0  0  0  0
  151.1221  143.9827  158.4457 C   0  0  0  0  0  0  0  0  0  0  0  0
  150.7244  144.6943  159.7492 C   0  0  0  0  0  0  0  0  0  0  0  0
  150.9532  142.4517  158.5551 C   0  0  0  0  0  0  0  0  0  0  0  0
  150.1008  141.8293  157.5410 N   0  0  0  0  0  0  0  0  0  0  0  0
  150.6827  141.8807  156.2016 C   0  0  0  0  0  0  0  0  0  0  0  0
  149.7867  141.1888  155.1608 C   0  0  0  0  0  0  0  0  0  0  0  0
  149.5412  139.8460  155.5624 O   0  0  0  0  0  0  0  0  0  0  0  0
  148.9121  139.7548  156.8389 C   0  0  1  0  0  0  0  0  0  0  0  0
  148.6800  138.2702  157.1679 C   0  0  0  0  0  0  0  0  0  0  0  0
  148.1298  138.0909  158.5075 N   0  0  0  0  0  0  0  0  0  0  0  0
  148.4853  137.1383  159.3812 C   0  0  0  0  0  0  0  0  0  0  0  0
  149.3456  136.3102  159.0724 O   0  0  0  0  0  0  0  0  0  0  0  0
  147.8235  137.2056  160.5589 N   0  5  0  0  0  0  0  0  0  0  0  0
  147.4886  136.0783  161.2073 C   0  0  0  0  0  0  0  0  0  0  0  0
  147.0878  136.0622  162.4841 N   0  0  0  0  0  0  0  0  0  0  0  0
  146.7973  134.7817  162.9587 C   0  0  0  0  0  0  0  0  0  0  0  0
  146.9905  133.7986  162.0245 C   0  0  0  0  0  0  0  0  0  0  0  0
  147.5455  134.4559  160.5114 S   0  0  0  0  0  0  0  0  0  0  0  0
  149.8192  140.4382  157.8808 C   0  0  0  0  0  0  0  0  0  0  0  0
  153.2734  143.9986  158.8177 H   0  0  0  0  0  0  0  0  0  0  0  0
  152.6906  145.4134  157.9449 H   0  0  0  0  0  0  0  0  0  0  0  0
  152.8448  143.8717  157.1134 H   0  0  0  0  0  0  0  0  0  0  0  0
  150.4856  144.3605  157.6464 H   0  0  0  0  0  0  0  0  0  0  0  0
  151.3361  144.3580  160.5867 H   0  0  0  0  0  0  0  0  0  0  0  0
  149.6807  144.5055  160.0025 H   0  0  0  0  0  0  0  0  0  0  0  0
  150.8468  145.7740  159.6601 H   0  0  0  0  0  0  0  0  0  0  0  0
  151.9362  141.9787  158.5339 H   0  0  0  0  0  0  0  0  0  0  0  0
  150.5437  142.2341  159.5427 H   0  0  0  0  0  0  0  0  0  0  0  0
  150.8357  142.9135  155.8918 H   0  0  0  0  0  0  0  0  0  0  0  0
  151.6643  141.4042  156.2055 H   0  0  0  0  0  0  0  0  0  0  0  0
  148.8414  141.7218  155.0480 H   0  0  0  0  0  0  0  0  0  0  0  0
  150.2717  141.1858  154.1846 H   0  0  0  0  0  0  0  0  0  0  0  0
  147.9530  140.2749  156.8049 H   0  0  0  0  0  0  0  0  0  0  0  0
  147.9856  137.8320  156.4506 H   0  0  0  0  0  0  0  0  0  0  0  0
  149.6118  137.7099  157.0760 H   0  0  0  0  0  0  0  0  0  0  0  0
  147.4250  138.7505  158.8031 H   0  0  0  0  0  0  0  0  0  0  0  0
  146.4598  134.6623  163.9774 H   0  0  0  0  0  0  0  0  0  0  0  0
  146.8424  132.7349  162.1325 H   0  0  0  0  0  0  0  0  0  0  0  0
  150.7549  139.8833  157.9663 H   0  0  0  0  0  0  0  0  0  0  0  0
  149.3390  140.3897  158.8589 H   0  0  0  0  0  0  0  0  0  0  0  0
  1  2  1  0  0  0  0
  1 21  1  0  0  0  0
  1 22  1  0  0  0  0
  1 23  1  0  0  0  0
  2  3  1  0  0  0  0
  2  4  1  0  0  0  0
  2 24  1  0  0  0  0
  3 25  1  0  0  0  0
  3 26  1  0  0  0  0
  3 27  1  0  0  0  0
  4  5  1  0  0  0  0
  4 28  1  0  0  0  0
  4 29  1  0  0  0  0
  5 20  1  0  0  0  0
  5  6  1  0  0  0  0
  6  7  1  0  0  0  0
  6 30  1  0  0  0  0
  6 31  1  0  0  0  0
  7  8  1  0  0  0  0
  7 32  1  0  0  0  0
  7 33  1  0  0  0  0
  8  9  1  0  0  0  0
  9 10  1  0  0  0  0
  9 20  1  0  0  0  0
  9 34  1  0  0  0  0
 10 11  1  0  0  0  0
 10 35  1  0  0  0  0
 10 36  1  0  0  0  0
 11 12  1  0  0  0  0
 11 37  1  0  0  0  0
 12 13  2  0  0  0  0
 12 14  1  0  0  0  0
 14 15  1  0  0  0  0
 15 19  1  0  0  0  0
 15 16  2  0  0  0  0
 16 17  1  0  0  0  0
 17 18  2  0  0  0  0
 17 38  1  0  0  0  0
 18 19  1  0  0  0  0
 18 39  1  0  0  0  0
 20 40  1  0  0  0  0
 20 41  1  0  0  0  0
M  CHG  1  14  -1
M  END
> <s_m_source_file>
AV-unprocessed.smi

> <i_m_source_file_index>
2062

> <i_lp_mmshare_version>
43012

> <i_f3d_flags>
0

> <s_epik_input>
W0NIM11bQ0hdKFtDSDNdKVtDSDJdTjFbQ0gyXVtDSDJdT1tDQEhdKFtDSDJdMSlbQ0gyXVtOSF1DKD1PKVtOSF1jMm5bY0hdW2NIXXMy

> <s_epik_cmdline>
J2VwaWtfcHl0aG9uJywgJy1waCcsICc3LjAnLCAnLXRuJywgJzgnLCAnLW1hJywgJzIwMCcsICctbWV0YWxfYmluZGluZycsICctaW1hZScsICc8aW5maWxlLm1hZT4nLCAnLW9tYWUnLCAnPG91dGZpbGUubWFlPic=

> <r_lp_tautomer_probability>
0.999

> <r_epik_Ionization_Penalty>
7.76343

> <r_epik_Ionization_Penalty_Charging>
5.65212

> <r_epik_Ionization_Penalty_Neutral>
2.11131

> <r_epik_State_Penalty>
6.82229

> <r_epik_Charging_Adjusted_Penalty>
12.4744

> <i_epik_Tot_Q>
-1

> <i_epik_Tot_abs_Q>
1

> <r_epik_Metal_State_Penalty>
2.82401

> <b_epik_Metal_Only>
1

> <s_lp_Force_Field>
OPLS_2005

> <r_lp_Energy>
19.1571

> <b_lp_Chiralities_Consistent>
1

> <s_lp_Variant>
AV-unprocessed.smi:2062-11

> <Gold.Version>
5.8.1

> <Gold.Id.Protein>
6NUR|6NUR_protein|mol2

> <Gold.PLP.Fitness>
48.3040

> <Gold.PLP.PLP>
-38.1669

> <Gold.PLP.part.hbond>
-2.9784

> <Gold.PLP.part.metal>
0.0000

> <Gold.PLP.part.buried>
-5.4297

> <Gold.PLP.part.nonpolar>
-31.3515

> <Gold.PLP.part.repulsive>
0.2848

> <Gold.PLP.ligand.clash>
0.0000

> <Gold.PLP.ligand.torsion>
1.2115

> <Gold.PLP.Chemscore.Hbond>
4.1680

> <Gold.PLP.Chemscore.CHOScore>
0.0000

> <Gold.PLP.Chemscore.Metal>
0.0000

> <Gold.Chemscore.Hbonds>
donor molecule, donor type, donor heavy atom, donor atom, acceptor molecule, acceptor atom, score
      P1  H  6896  6907       L1    13  0.67
      P1  H  6931  6943       L1    14  1.32
      P1  H  6934  6947       L1    14  1.70

> <Gold.PLP.Chemscore.Internal.Correction>
0.0560

> <Gold.Rescore>
     Score         DG    S(hbond)    S(metal)    S(lipo)     H(rot)  DE(clash)    DE(int)     intcor
     15.50     -17.89       1.91        0.00      88.25       1.68       0.01       2.38       ----

> <Gold.Chemscore.Fitness>
15.5038

> <Gold.Chemscore.DG>
-17.8881

> <Gold.Chemscore.ZeroCoef>
-5.4800

> <Gold.Chemscore.Hbond>
1.9098

> <Gold.Chemscore.Metal>
0.0000

> <Gold.Chemscore.Lipo>
88.2454

> <Gold.Chemscore.Internal_Hbond>
0.0000

> <Gold.Chemscore.DEClash>
0.0086

> <Gold.Chemscore.DEInternal>
2.3757

> <Gold.Chemscore.Rot>
1.6779

> <Gold.Chemscore.Internal.Correction>
   9.000000E+99

> <Gold.Chemscore.Hbonds>
donor molecule, donor type, donor heavy atom, donor atom, acceptor molecule, acceptor atom, score
      P1  H  6896  6907       L1    13  0.67
      P1  H  6931  6943       L1    14  0.19
      P1  H  6934  6947       L1    14  0.66

> <Gold.Chemscore.Hbond.Weighted>
-6.3787

> <Gold.Chemscore.Metal.Weighted>
-0.0000

> <Gold.Chemscore.Lipo.Weighted>
-10.3247

> <Gold.Chemscore.Internal_Hbond.Weighted>
0.0000

> <Gold.Chemscore.DEClash.Weighted>
0.0086

> <Gold.Chemscore.DEInternal.Weighted>
2.3757

> <Gold.Chemscore.Rot.Weighted>
4.2953

> <Gold.Chemscore.Internal.Correction.Weighted>
   9.000000E+99

> <Gold.Protein.RotatedTorsions>
[ 6907 6896 6895 6894 ] final  -53.66 input  -60.11 | X-H torsion
[ 7974 7965 7964 7962 ] final    0.92 input  175.53 | X-H torsion
[ 8008 7997 7996 7995 ] final   49.30 input   59.86 | X-H torsion
[ 10167 10162 10161 10158 ] final  117.12 input  -65.29 | X-H torsion
[ 10718 10713 10712 10709 ] final  -34.11 input   66.30 | X-H torsion
[ 10763 10752 10751 10750 ] final   67.59 input  -60.55 | X-H torsion
[ 11005 11000 10999 10996 ] final  129.29 input  -57.11 | X-H torsion

> <Gold.Protein.ActiveResidues>
 VAL166  LYS551  ARG553  GLY616  TRP617  ASP618  TYR619  PRO620  LYS621  CYS622 
 ASP623  PHE694  ASN695  SER759  ASP760  ASP761  ALA762  ILE779  LEU786  VAL792 
 PHE793  MET794  SER795  GLU796  ALA797  LYS798  CYS799  TRP800  GLU811  SER814 

> <Gold.Protein.RotatedAtoms>
  150.8407  134.7698  159.6929 H   0  0  0  0  0  0  0  0  0  0  0  0  # atno 6907 bound_to 6896
  152.4495  134.5420  159.9852 H   0  0  0  0  0  0  0  0  0  0  0  0  # atno 6908 bound_to 6896
  151.5561  133.3372  159.2998 H   0  0  0  0  0  0  0  0  0  0  0  0  # atno 6909 bound_to 6896
  146.2437  140.1065  142.8345 H   0  0  0  0  0  0  0  0  0  0  0  0  # atno 7974 bound_to 7965
  155.4000  140.3437  155.4256 H   0  0  0  0  0  0  0  0  0  0  0  0  # atno 8008 bound_to 7997
  156.1509  140.1570  156.8803 H   0  0  0  0  0  0  0  0  0  0  0  0  # atno 8009 bound_to 7997
  154.5051  140.0804  156.7860 H   0  0  0  0  0  0  0  0  0  0  0  0  # atno 8010 bound_to 7997
  139.6200  144.7099  151.2654 H   0  0  0  0  0  0  0  0  0  0  0  0  # atno 10167 bound_to 10162
  156.3545  130.4314  149.7676 H   0  0  0  0  0  0  0  0  0  0  0  0  # atno 10718 bound_to 10713
  153.0194  135.5278  154.7003 H   0  0  0  0  0  0  0  0  0  0  0  0  # atno 10763 bound_to 10752
  154.6114  135.2878  155.0430 H   0  0  0  0  0  0  0  0  0  0  0  0  # atno 10764 bound_to 10752
  154.1450  135.6572  153.5003 H   0  0  0  0  0  0  0  0  0  0  0  0  # atno 10765 bound_to 10752
  139.9607  134.9603  156.9126 H   0  0  0  0  0  0  0  0  0  0  0  0  # atno 11005 bound_to 11000
  145.0524  140.9027  143.4988 LP  0  0  0  0  0  0  0  0  0  0  0  0  # atno 17320 bound_to 7965
  145.1165  139.2722  143.5610 LP  0  0  0  0  0  0  0  0  0  0  0  0  # atno 17321 bound_to 7965
  140.7376  143.6673  150.8112 LP  0  0  0  0  0  0  0  0  0  0  0  0  # atno 17342 bound_to 10162
  140.0282  143.5471  152.2771 LP  0  0  0  0  0  0  0  0  0  0  0  0  # atno 17343 bound_to 10162
  156.4863  130.8064  151.3076 LP  0  0  0  0  0  0  0  0  0  0  0  0  # atno 17370 bound_to 10713
  157.7465  130.9989  150.2871 LP  0  0  0  0  0  0  0  0  0  0  0  0  # atno 17371 bound_to 10713
  140.5507  134.0630  155.7368 LP  0  0  0  0  0  0  0  0  0  0  0  0  # atno 17394 bound_to 11000
  141.1284  133.9344  157.2587 LP  0  0  0  0  0  0  0  0  0  0  0  0  # atno 17395 bound_to 11000

$$$$
