AV-unprocessed.smi:806|AV-procd|sdf|3801|dock1
  -GOLD-   22720 1233D 1   1.00000     0.00000
 Structure written by MMmdl.
 44 45  0  0  0  0  0  0  0  0  1 V2000
  147.4349  140.8361  153.5161 C   0  0  0  0  0  0  0  0  0  0  0  0
  147.9617  139.6155  154.1532 N   0  0  0  0  0  0  0  0  0  0  0  0
  147.3277  138.4154  154.0174 C   0  0  0  0  0  0  0  0  0  0  0  0
  147.6393  137.4291  154.6873 O   0  0  0  0  0  0  0  0  0  0  0  0
  146.1730  138.2631  153.0023 C   0  0  0  0  0  0  0  0  0  0  0  0
  146.4283  137.3230  151.8967 N   0  0  0  0  0  0  0  0  0  0  0  0
  145.7836  136.0295  152.0948 C   0  0  0  0  0  0  0  0  0  0  0  0
  145.1991  135.5427  150.7607 C   0  0  0  0  0  0  0  0  0  0  0  0
  145.1103  134.0961  150.7111 N   0  0  0  0  0  0  0  0  0  0  0  0
  143.9846  133.3112  150.5748 C   0  0  0  0  0  0  0  0  0  0  0  0
  144.3948  132.0087  150.5766 C   0  0  0  0  0  0  0  0  0  0  0  0
  145.8075  132.0997  150.7217 C   0  0  0  0  0  0  0  0  0  0  0  0
  146.2327  133.3503  150.8020 N   0  0  0  0  0  0  0  0  0  0  0  0
  149.1924  139.7601  154.9938 C   0  0  0  0  0  0  0  0  0  0  0  0
  150.2812  138.8984  154.4776 C   0  0  0  0  0  0  0  0  0  0  0  0
  151.1303  138.2226  154.0733 N   0  0  0  0  0  0  0  0  0  0  0  0
  149.7691  141.2103  155.0095 C   0  0  0  0  0  0  0  0  0  0  0  0
  150.9989  141.3477  155.9255 C   0  0  0  0  0  0  0  0  0  0  0  0
  150.6563  140.9271  157.3617 C   0  0  0  0  0  0  0  0  0  0  0  0
  150.0675  139.5099  157.4033 C   0  0  0  0  0  0  0  0  0  0  0  0
  148.8574  139.3748  156.4605 C   0  0  0  0  0  0  0  0  0  0  0  0
  146.4240  140.7544  153.1215 H   0  0  0  0  0  0  0  0  0  0  0  0
  148.0801  141.1525  152.6963 H   0  0  0  0  0  0  0  0  0  0  0  0
  147.3649  141.6453  154.2417 H   0  0  0  0  0  0  0  0  0  0  0  0
  145.2959  137.9127  153.5469 H   0  0  0  0  0  0  0  0  0  0  0  0
  145.9164  139.2304  152.5684 H   0  0  0  0  0  0  0  0  0  0  0  0
  147.4185  137.1762  151.7630 H   0  0  0  0  0  0  0  0  0  0  0  0
  146.5176  135.3104  152.4615 H   0  0  0  0  0  0  0  0  0  0  0  0
  144.9918  136.0939  152.8416 H   0  0  0  0  0  0  0  0  0  0  0  0
  144.2027  135.9587  150.6026 H   0  0  0  0  0  0  0  0  0  0  0  0
  145.8184  135.8777  149.9272 H   0  0  0  0  0  0  0  0  0  0  0  0
  142.9971  133.7398  150.4876 H   0  0  0  0  0  0  0  0  0  0  0  0
  143.7797  131.1256  150.4879 H   0  0  0  0  0  0  0  0  0  0  0  0
  146.5314  131.2997  150.7704 H   0  0  0  0  0  0  0  0  0  0  0  0
  150.0398  141.5170  153.9985 H   0  0  0  0  0  0  0  0  0  0  0  0
  149.0377  141.9320  155.3701 H   0  0  0  0  0  0  0  0  0  0  0  0
  151.8258  140.7450  155.5491 H   0  0  0  0  0  0  0  0  0  0  0  0
  151.3498  142.3801  155.9195 H   0  0  0  0  0  0  0  0  0  0  0  0
  151.5471  140.9790  157.9882 H   0  0  0  0  0  0  0  0  0  0  0  0
  149.9393  141.6312  157.7855 H   0  0  0  0  0  0  0  0  0  0  0  0
  150.8350  138.7855  157.1288 H   0  0  0  0  0  0  0  0  0  0  0  0
  149.7693  139.2653  158.4232 H   0  0  0  0  0  0  0  0  0  0  0  0
  148.0464  140.0056  156.8270 H   0  0  0  0  0  0  0  0  0  0  0  0
  148.4896  138.3505  156.5188 H   0  0  0  0  0  0  0  0  0  0  0  0
  1  2  1  0  0  0  0
  1 22  1  0  0  0  0
  1 23  1  0  0  0  0
  1 24  1  0  0  0  0
  2  3  1  0  0  0  0
  2 14  1  0  0  0  0
  3  4  2  0  0  0  0
  3  5  1  0  0  0  0
  5  6  1  0  0  0  0
  5 25  1  0  0  0  0
  5 26  1  0  0  0  0
  6  7  1  0  0  0  0
  6 27  1  0  0  0  0
  7  8  1  0  0  0  0
  7 28  1  0  0  0  0
  7 29  1  0  0  0  0
  8  9  1  0  0  0  0
  8 30  1  0  0  0  0
  8 31  1  0  0  0  0
  9 13  1  0  0  0  0
  9 10  1  0  0  0  0
 10 11  2  0  0  0  0
 10 32  1  0  0  0  0
 11 12  1  0  0  0  0
 11 33  1  0  0  0  0
 12 13  2  0  0  0  0
 12 34  1  0  0  0  0
 14 21  1  0  0  0  0
 14 15  1  0  0  0  0
 14 17  1  0  0  0  0
 15 16  3  0  0  0  0
 17 18  1  0  0  0  0
 17 35  1  0  0  0  0
 17 36  1  0  0  0  0
 18 19  1  0  0  0  0
 18 37  1  0  0  0  0
 18 38  1  0  0  0  0
 19 20  1  0  0  0  0
 19 39  1  0  0  0  0
 19 40  1  0  0  0  0
 20 21  1  0  0  0  0
 20 41  1  0  0  0  0
 20 42  1  0  0  0  0
 21 43  1  0  0  0  0
 21 44  1  0  0  0  0
M  END
> <s_m_source_file>
AV-unprocessed.smi

> <i_m_source_file_index>
806

> <i_lp_mmshare_version>
43012

> <i_f3d_flags>
0

> <s_epik_input>
W0NIMl0xW0NIMl1bQ0gyXVtDSDJdW0NIMl1DMShDI04pTihbQ0gzXSlDKD1PKVtDSDJdW05IXVtDSDJdW0NIMl1uMltjSF1bY0hdW2NIXW4y

> <s_epik_cmdline>
J2VwaWtfcHl0aG9uJywgJy1waCcsICc3LjAnLCAnLXRuJywgJzgnLCAnLW1hJywgJzIwMCcsICctbWV0YWxfYmluZGluZycsICctaW1hZScsICc8aW5maWxlLm1hZT4nLCAnLW9tYWUnLCAnPG91dGZpbGUubWFlPic=

> <r_lp_tautomer_probability>
1

> <r_epik_Ionization_Penalty>
0.481166

> <r_epik_Ionization_Penalty_Charging>
0

> <r_epik_Ionization_Penalty_Neutral>
0.481166

> <r_epik_State_Penalty>
0.484368

> <r_epik_Charging_Adjusted_Penalty>
0.484368

> <i_epik_Tot_Q>
0

> <i_epik_Tot_abs_Q>
0

> <r_epik_Metal_State_Penalty>
0.483438

> <b_epik_Metal_Only>
0

> <s_lp_Force_Field>
OPLS_2005

> <r_lp_Energy>
29.6392

> <b_lp_Chiralities_Consistent>
1

> <s_lp_Variant>
AV-unprocessed.smi:806-2

> <Gold.Version>
5.8.1

> <Gold.Id.Protein>
6NUR|6NUR_protein|mol2

> <Gold.PLP.Fitness>
43.9339

> <Gold.PLP.PLP>
-36.2730

> <Gold.PLP.part.hbond>
-1.0000

> <Gold.PLP.part.metal>
0.0000

> <Gold.PLP.part.buried>
-4.2676

> <Gold.PLP.part.nonpolar>
-30.0286

> <Gold.PLP.part.repulsive>
0.5159

> <Gold.PLP.ligand.clash>
0.0000

> <Gold.PLP.ligand.torsion>
0.8009

> <Gold.PLP.Chemscore.Hbond>
1.0000

> <Gold.PLP.Chemscore.CHOScore>
2.0000

> <Gold.PLP.Chemscore.Metal>
0.0000

> <Gold.Chemscore.Hbonds>
donor molecule, donor type, donor heavy atom, donor atom, acceptor molecule, acceptor atom, score
      L1  H     6    27       P1  7948  1.00
      L1  C    10    32       P1 10186  1.00
      L1  C    12    34       P1 10747  1.00

> <Gold.PLP.Chemscore.Internal.Correction>
0.2628

> <Gold.Rescore>
     Score         DG    S(hbond)    S(metal)    S(lipo)     H(rot)  DE(clash)    DE(int)     intcor
     10.95     -13.29       0.99        0.00      82.72       2.01       0.16       2.18       ----

> <Gold.Chemscore.Fitness>
10.9480

> <Gold.Chemscore.DG>
-13.2920

> <Gold.Chemscore.ZeroCoef>
-5.4800

> <Gold.Chemscore.Hbond>
0.9850

> <Gold.Chemscore.Metal>
0.0000

> <Gold.Chemscore.Lipo>
82.7195

> <Gold.Chemscore.Internal_Hbond>
0.0000

> <Gold.Chemscore.DEClash>
0.1630

> <Gold.Chemscore.DEInternal>
2.1810

> <Gold.Chemscore.Rot>
2.0142

> <Gold.Chemscore.Internal.Correction>
   9.000000E+99

> <Gold.Chemscore.Hbonds>
donor molecule, donor type, donor heavy atom, donor atom, acceptor molecule, acceptor atom, score
      L1  H     6    27       P1  7948  0.98

> <Gold.Chemscore.Hbond.Weighted>
-3.2901

> <Gold.Chemscore.Metal.Weighted>
-0.0000

> <Gold.Chemscore.Lipo.Weighted>
-9.6782

> <Gold.Chemscore.Internal_Hbond.Weighted>
0.0000

> <Gold.Chemscore.DEClash.Weighted>
0.1630

> <Gold.Chemscore.DEInternal.Weighted>
2.1810

> <Gold.Chemscore.Rot.Weighted>
5.1563

> <Gold.Chemscore.Internal.Correction.Weighted>
   9.000000E+99

> <Gold.Protein.RotatedTorsions>
[ 6907 6896 6895 6894 ] final -145.85 input  -60.11 | X-H torsion
[ 7974 7965 7964 7962 ] final  -94.40 input  175.53 | X-H torsion
[ 8008 7997 7996 7995 ] final -106.14 input   59.86 | X-H torsion
[ 10167 10162 10161 10158 ] final  163.97 input  -65.29 | X-H torsion
[ 10718 10713 10712 10709 ] final  158.86 input   66.30 | X-H torsion
[ 10763 10752 10751 10750 ] final  -67.14 input  -60.55 | X-H torsion
[ 11005 11000 10999 10996 ] final -148.17 input  -57.11 | X-H torsion

> <Gold.Protein.ActiveResidues>
 VAL166  LYS551  ARG553  GLY616  TRP617  ASP618  TYR619  PRO620  LYS621  CYS622 
 ASP623  PHE694  ASN695  SER759  ASP760  ASP761  ALA762  ILE779  LEU786  VAL792 
 PHE793  MET794  SER795  GLU796  ALA797  LYS798  CYS799  TRP800  GLU811  SER814 

> <Gold.Protein.RotatedAtoms>
  151.1334  133.5021  159.2598 H   0  0  0  0  0  0  0  0  0  0  0  0  # atno 6907 bound_to 6896
  151.1733  135.0327  159.8771 H   0  0  0  0  0  0  0  0  0  0  0  0  # atno 6908 bound_to 6896
  152.5460  134.1195  159.8446 H   0  0  0  0  0  0  0  0  0  0  0  0  # atno 6909 bound_to 6896
  145.3738  140.9509  143.2432 H   0  0  0  0  0  0  0  0  0  0  0  0  # atno 7974 bound_to 7965
  154.9102  140.0410  157.1942 H   0  0  0  0  0  0  0  0  0  0  0  0  # atno 8008 bound_to 7997
  154.8356  140.2906  155.5672 H   0  0  0  0  0  0  0  0  0  0  0  0  # atno 8009 bound_to 7997
  156.2989  140.2492  156.3289 H   0  0  0  0  0  0  0  0  0  0  0  0  # atno 8010 bound_to 7997
  139.4881  144.4283  151.9102 H   0  0  0  0  0  0  0  0  0  0  0  0  # atno 10167 bound_to 10162
  157.1721  131.0612  151.2177 H   0  0  0  0  0  0  0  0  0  0  0  0  # atno 10718 bound_to 10713
  154.3701  135.6097  153.5735 H   0  0  0  0  0  0  0  0  0  0  0  0  # atno 10763 bound_to 10752
  152.9790  135.5836  154.4532 H   0  0  0  0  0  0  0  0  0  0  0  0  # atno 10764 bound_to 10752
  154.4284  135.2847  155.1906 H   0  0  0  0  0  0  0  0  0  0  0  0  # atno 10765 bound_to 10752
  140.7640  134.3266  157.5094 H   0  0  0  0  0  0  0  0  0  0  0  0  # atno 11005 bound_to 11000
  144.8557  139.5253  143.6835 LP  0  0  0  0  0  0  0  0  0  0  0  0  # atno 17320 bound_to 7965
  146.2873  139.7041  142.9186 LP  0  0  0  0  0  0  0  0  0  0  0  0  # atno 17321 bound_to 7965
  140.3730  144.2832  150.5917 LP  0  0  0  0  0  0  0  0  0  0  0  0  # atno 17342 bound_to 10162
  140.5302  143.2245  151.8250 LP  0  0  0  0  0  0  0  0  0  0  0  0  # atno 17343 bound_to 10162
  157.4033  130.7345  149.6783 LP  0  0  0  0  0  0  0  0  0  0  0  0  # atno 17370 bound_to 10713
  155.9737  130.4115  150.3984 LP  0  0  0  0  0  0  0  0  0  0  0  0  # atno 17371 bound_to 10713
  139.8766  134.9219  156.3288 LP  0  0  0  0  0  0  0  0  0  0  0  0  # atno 17394 bound_to 11000
  140.9637  133.7372  156.0436 LP  0  0  0  0  0  0  0  0  0  0  0  0  # atno 17395 bound_to 11000

$$$$
