AV-unprocessed.smi:112|AV-procd|sdf|1088|dock8
  -GOLD-   2262018193D 1   1.00000     0.00000
 Structure written by MMmdl.
 54 57  0  0  0  0  0  0  0  0  3 V2000
  150.2270  134.3132  155.8394 C   0  0  0  0  0  0  0  0  0  0  0  0
  149.8781  135.7297  155.4093 C   0  0  0  0  0  0  0  0  0  0  0  0
  148.6110  136.1013  155.1146 C   0  0  0  0  0  0  0  0  0  0  0  0
  148.2540  137.3812  154.7207 N   0  0  0  0  0  0  0  0  0  0  0  0
  146.8102  137.7989  154.4690 C   0  0  1  0  0  0  0  0  0  0  0  0
  146.5807  138.5958  153.1763 C   0  0  0  0  0  0  0  0  0  0  0  0
  145.9847  137.5606  152.2220 C   0  0  1  0  0  0  0  0  0  0  0  0
  146.7335  137.4917  151.0250 O   0  0  0  0  0  0  0  0  0  0  0  0
  146.0354  136.2336  153.0013 C   0  0  2  0  0  0  0  0  0  0  0  0
  144.8437  135.2954  152.7562 C   0  0  0  0  0  0  0  0  0  0  0  0
  143.6704  135.8197  153.3411 O   0  0  0  0  0  0  0  0  0  0  0  0
  146.0355  136.6483  154.3613 O   0  0  0  0  0  0  0  0  0  0  0  0
  149.2398  138.3921  154.7077 C   0  0  0  0  0  0  0  0  0  0  0  0
  148.9456  139.5580  154.4331 O   0  0  0  0  0  0  0  0  0  0  0  0
  150.5742  138.0374  155.0088 N   0  0  0  0  0  0  0  0  0  0  0  0
  151.6187  139.0862  154.9578 C   0  0  0  0  0  0  0  0  0  0  0  0
  152.1983  139.4578  156.3405 C   0  0  0  0  0  0  0  0  0  0  0  0
  153.0590  138.7318  156.8395 O   0  0  0  0  0  0  0  0  0  0  0  0
  151.7292  140.5788  156.9435 N   0  0  0  0  0  0  0  0  0  0  0  0
  150.7070  141.4558  156.3460 C   0  0  0  0  0  0  0  0  0  0  0  0
  150.4706  142.5989  157.3570 C   0  0  0  0  0  0  0  0  0  0  0  0
  151.4094  142.2607  158.4769 C   0  0  0  0  0  0  0  0  0  0  0  0
  151.5928  142.9869  159.6659 C   0  0  0  0  0  0  0  0  0  0  0  0
  152.5288  142.5142  160.6192 C   0  0  0  0  0  0  0  0  0  0  0  0
  152.7487  143.2517  161.8792 N   0  3  0  0  0  0  0  0  0  0  0  0
  153.4993  142.7615  162.7166 O   0  0  0  0  0  0  0  0  0  0  0  0
  152.1713  144.3231  162.0338 O   0  5  0  0  0  0  0  0  0  0  0  0
  153.2514  141.3226  160.3449 C   0  0  0  0  0  0  0  0  0  0  0  0
  153.0545  140.6054  159.1445 C   0  0  0  0  0  0  0  0  0  0  0  0
  152.1173  141.0948  158.2086 C   0  0  0  0  0  0  0  0  0  0  0  0
  150.9571  136.7160  155.3421 C   0  0  0  0  0  0  0  0  0  0  0  0
  152.1383  136.4400  155.5615 O   0  0  0  0  0  0  0  0  0  0  0  0
  149.3540  133.6599  155.8365 H   0  0  0  0  0  0  0  0  0  0  0  0
  150.6395  134.3136  156.8490 H   0  0  0  0  0  0  0  0  0  0  0  0
  150.9679  133.8805  155.1662 H   0  0  0  0  0  0  0  0  0  0  0  0
  147.8504  135.3447  155.2128 H   0  0  0  0  0  0  0  0  0  0  0  0
  146.5209  138.3878  155.3406 H   0  0  0  0  0  0  0  0  0  0  0  0
  145.8400  139.3701  153.3802 H   0  0  0  0  0  0  0  0  0  0  0  0
  147.4828  139.0998  152.8290 H   0  0  0  0  0  0  0  0  0  0  0  0
  144.9545  137.8325  151.9888 H   0  0  0  0  0  0  0  0  0  0  0  0
  146.1351  137.4965  150.2938 H   0  0  0  0  0  0  0  0  0  0  0  0
  146.9710  135.7046  152.8103 H   0  0  0  0  0  0  0  0  0  0  0  0
  144.6713  135.1854  151.6852 H   0  0  0  0  0  0  0  0  0  0  0  0
  145.0385  134.2993  153.1544 H   0  0  0  0  0  0  0  0  0  0  0  0
  142.9807  135.8081  152.6954 H   0  0  0  0  0  0  0  0  0  0  0  0
  152.4371  138.7804  154.3047 H   0  0  0  0  0  0  0  0  0  0  0  0
  151.2236  139.9856  154.4839 H   0  0  0  0  0  0  0  0  0  0  0  0
  151.0525  141.8584  155.3929 H   0  0  0  0  0  0  0  0  0  0  0  0
  149.7797  140.9088  156.1717 H   0  0  0  0  0  0  0  0  0  0  0  0
  150.7154  143.5736  156.9336 H   0  0  0  0  0  0  0  0  0  0  0  0
  149.4409  142.6176  157.7156 H   0  0  0  0  0  0  0  0  0  0  0  0
  151.0223  143.8882  159.8364 H   0  0  0  0  0  0  0  0  0  0  0  0
  153.9694  140.9438  161.0574 H   0  0  0  0  0  0  0  0  0  0  0  0
  153.6238  139.7052  158.9759 H   0  0  0  0  0  0  0  0  0  0  0  0
  1  2  1  0  0  0  0
  1 33  1  0  0  0  0
  1 34  1  0  0  0  0
  1 35  1  0  0  0  0
  2 31  1  0  0  0  0
  2  3  2  0  0  0  0
  3  4  1  0  0  0  0
  3 36  1  0  0  0  0
  4  5  1  0  0  0  0
  4 13  1  0  0  0  0
  5 12  1  0  0  0  0
  5  6  1  0  0  0  0
  5 37  1  0  0  0  0
  6  7  1  0  0  0  0
  6 38  1  0  0  0  0
  6 39  1  0  0  0  0
  7  8  1  0  0  0  0
  7  9  1  0  0  0  0
  7 40  1  0  0  0  0
  8 41  1  0  0  0  0
  9 10  1  0  0  0  0
  9 12  1  0  0  0  0
  9 42  1  0  0  0  0
 10 11  1  0  0  0  0
 10 43  1  0  0  0  0
 10 44  1  0  0  0  0
 11 45  1  0  0  0  0
 13 14  2  0  0  0  0
 13 15  1  0  0  0  0
 15 16  1  0  0  0  0
 15 31  1  0  0  0  0
 16 17  1  0  0  0  0
 16 46  1  0  0  0  0
 16 47  1  0  0  0  0
 17 18  2  0  0  0  0
 17 19  1  0  0  0  0
 19 30  1  0  0  0  0
 19 20  1  0  0  0  0
 20 21  1  0  0  0  0
 20 48  1  0  0  0  0
 20 49  1  0  0  0  0
 21 22  1  0  0  0  0
 21 50  1  0  0  0  0
 21 51  1  0  0  0  0
 22 30  2  0  0  0  0
 22 23  1  0  0  0  0
 23 24  2  0  0  0  0
 23 52  1  0  0  0  0
 24 25  1  0  0  0  0
 24 28  1  0  0  0  0
 25 26  2  0  0  0  0
 25 27  1  0  0  0  0
 28 29  2  0  0  0  0
 28 53  1  0  0  0  0
 29 30  1  0  0  0  0
 29 54  1  0  0  0  0
 31 32  2  0  0  0  0
M  CHG  1  25   1
M  CHG  1  27  -1
M  END
> <s_m_source_file>
AV-unprocessed.smi

> <i_m_source_file_index>
112

> <i_lp_mmshare_version>
43012

> <i_f3d_flags>
0

> <s_epik_input>
W09IXVtDSDJdW0NAQEhdKE8xKVtDQEhdKFtPSF0pW0NIMl1bQ0BIXTFuKFtjSF1jMltDSDNdKWMoPU8pbihjMj1PKVtDSDJdQyg9TylOKFtDSDJdW0NIMl0zKWMoYzM0KVtjSF1bY0hdYyhbY0hdNClbTitdKD1PKVtPLV0=

> <s_epik_cmdline>
J2VwaWtfcHl0aG9uJywgJy1waCcsICc3LjAnLCAnLXRuJywgJzgnLCAnLW1hJywgJzIwMCcsICctbWV0YWxfYmluZGluZycsICctaW1hZScsICc8aW5maWxlLm1hZT4nLCAnLW9tYWUnLCAnPG91dGZpbGUubWFlPic=

> <r_lp_tautomer_probability>
1

> <r_epik_Ionization_Penalty>
2.5696e-07

> <r_epik_Ionization_Penalty_Charging>
1.04886e-08

> <r_epik_Ionization_Penalty_Neutral>
2.46472e-07

> <r_epik_State_Penalty>
-0

> <r_epik_Charging_Adjusted_Penalty>
1.04886e-08

> <i_epik_Tot_Q>
0

> <i_epik_Tot_abs_Q>
2

> <r_epik_Metal_State_Penalty>
-0

> <b_epik_Metal_Only>
0

> <s_epik_Chemistry_Notes>
This compound contains an acetal/aminal-like group ( X-CH(R)-Y where X, Y are N, S, or O) that may be acid/base labile, releasing an aldehyde.

> <s_lp_Force_Field>
OPLS_2005

> <r_lp_Energy>
55.094

> <b_lp_Chiralities_Consistent>
1

> <s_lp_Variant>
AV-unprocessed.smi:112-6

> <Gold.Version>
5.8.1

> <Gold.Id.Protein>
6NUR|6NUR_protein|mol2

> <Gold.PLP.Fitness>
59.2050

> <Gold.PLP.PLP>
-50.6094

> <Gold.PLP.part.hbond>
-4.9046

> <Gold.PLP.part.metal>
0.0000

> <Gold.PLP.part.buried>
-2.2970

> <Gold.PLP.part.nonpolar>
-43.2515

> <Gold.PLP.part.repulsive>
0.4945

> <Gold.PLP.ligand.clash>
0.0000

> <Gold.PLP.ligand.torsion>
0.6785

> <Gold.PLP.Chemscore.Hbond>
3.2906

> <Gold.PLP.Chemscore.CHOScore>
0.0000

> <Gold.PLP.Chemscore.Metal>
0.0000

> <Gold.Chemscore.Hbonds>
donor molecule, donor type, donor heavy atom, donor atom, acceptor molecule, acceptor atom, score
      P1  H  7954  7966       L1     8  0.55
      P1  H  7997  8010       L1    18  0.60
      P1  H 10752 10763       L1    32  0.80

> <Gold.PLP.Chemscore.Internal.Correction>
0.0808

> <Gold.Rescore>
     Score         DG    S(hbond)    S(metal)    S(lipo)     H(rot)  DE(clash)    DE(int)     intcor
     11.28     -16.35       2.06        0.00     106.21       3.29       0.59       4.48       ----

> <Gold.Chemscore.Fitness>
11.2844

> <Gold.Chemscore.DG>
-16.3485

> <Gold.Chemscore.ZeroCoef>
-5.4800

> <Gold.Chemscore.Hbond>
2.0566

> <Gold.Chemscore.Metal>
0.0000

> <Gold.Chemscore.Lipo>
106.2063

> <Gold.Chemscore.Internal_Hbond>
0.0000

> <Gold.Chemscore.DEClash>
0.5850

> <Gold.Chemscore.DEInternal>
4.4791

> <Gold.Chemscore.Rot>
3.2916

> <Gold.Chemscore.Internal.Correction>
   9.000000E+99

> <Gold.Chemscore.Hbonds>
donor molecule, donor type, donor heavy atom, donor atom, acceptor molecule, acceptor atom, score
      P1  H  7954  7966       L1     8  0.03
      P1  H  7997  8010       L1    18  0.04
      P1  H 10752 10763       L1    32  0.78

> <Gold.Chemscore.Hbond.Weighted>
-6.8689

> <Gold.Chemscore.Metal.Weighted>
-0.0000

> <Gold.Chemscore.Lipo.Weighted>
-12.4261

> <Gold.Chemscore.Internal_Hbond.Weighted>
0.0000

> <Gold.Chemscore.DEClash.Weighted>
0.5850

> <Gold.Chemscore.DEInternal.Weighted>
4.4791

> <Gold.Chemscore.Rot.Weighted>
8.4265

> <Gold.Chemscore.Internal.Correction.Weighted>
   9.000000E+99

> <Gold.Protein.RotatedTorsions>
[ 6907 6896 6895 6894 ] final   90.86 input  -60.11 | X-H torsion
[ 7974 7965 7964 7962 ] final  132.04 input  175.53 | X-H torsion
[ 8008 7997 7996 7995 ] final   61.62 input   59.86 | X-H torsion
[ 10167 10162 10161 10158 ] final  -58.09 input  -65.29 | X-H torsion
[ 10718 10713 10712 10709 ] final   -4.61 input   66.30 | X-H torsion
[ 10763 10752 10751 10750 ] final   81.24 input  -60.55 | X-H torsion
[ 11005 11000 10999 10996 ] final  -91.44 input  -57.11 | X-H torsion

> <Gold.Protein.ActiveResidues>
 VAL166  LYS551  ARG553  GLY616  TRP617  ASP618  TYR619  PRO620  LYS621  CYS622 
 ASP623  PHE694  ASN695  SER759  ASP760  ASP761  ALA762  ILE779  LEU786  VAL792 
 PHE793  MET794  SER795  GLU796  ALA797  LYS798  CYS799  TRP800  GLU811  SER814 

> <Gold.Protein.RotatedAtoms>
  152.5447  134.1746  159.8610 H   0  0  0  0  0  0  0  0  0  0  0  0  # atno 6907 bound_to 6896
  151.1753  133.4751  159.2601 H   0  0  0  0  0  0  0  0  0  0  0  0  # atno 6908 bound_to 6896
  151.1233  135.0102  159.8604 H   0  0  0  0  0  0  0  0  0  0  0  0  # atno 6909 bound_to 6896
  145.0010  139.4312  143.5292 H   0  0  0  0  0  0  0  0  0  0  0  0  # atno 7974 bound_to 7965
  155.6012  140.3494  155.4594 H   0  0  0  0  0  0  0  0  0  0  0  0  # atno 8008 bound_to 7997
  156.0227  140.1257  157.0365 H   0  0  0  0  0  0  0  0  0  0  0  0  # atno 8009 bound_to 7997
  154.4321  140.1059  156.5972 H   0  0  0  0  0  0  0  0  0  0  0  0  # atno 8010 bound_to 7997
  140.6218  143.2422  151.5461 H   0  0  0  0  0  0  0  0  0  0  0  0  # atno 10167 bound_to 10162
  156.7587  130.5262  149.5789 H   0  0  0  0  0  0  0  0  0  0  0  0  # atno 10718 bound_to 10713
  153.1100  135.4773  154.9018 H   0  0  0  0  0  0  0  0  0  0  0  0  # atno 10763 bound_to 10752
  154.7470  135.3096  154.8628 H   0  0  0  0  0  0  0  0  0  0  0  0  # atno 10764 bound_to 10752
  153.9220  135.6854  153.4801 H   0  0  0  0  0  0  0  0  0  0  0  0  # atno 10765 bound_to 10752
  141.1545  133.7756  156.9879 H   0  0  0  0  0  0  0  0  0  0  0  0  # atno 11005 bound_to 11000
  146.3452  139.9399  142.8742 LP  0  0  0  0  0  0  0  0  0  0  0  0  # atno 17320 bound_to 7965
  145.2153  140.9912  143.4077 LP  0  0  0  0  0  0  0  0  0  0  0  0  # atno 17321 bound_to 7965
  139.5445  144.2557  152.1416 LP  0  0  0  0  0  0  0  0  0  0  0  0  # atno 17342 bound_to 10162
  140.1779  144.4873  150.6544 LP  0  0  0  0  0  0  0  0  0  0  0  0  # atno 17343 bound_to 10162
  156.1353  130.6207  151.0391 LP  0  0  0  0  0  0  0  0  0  0  0  0  # atno 17370 bound_to 10713
  157.6744  131.0854  150.7531 LP  0  0  0  0  0  0  0  0  0  0  0  0  # atno 17371 bound_to 10713
  140.1022  134.9528  157.1940 LP  0  0  0  0  0  0  0  0  0  0  0  0  # atno 17394 bound_to 11000
  140.3303  134.2817  155.7229 LP  0  0  0  0  0  0  0  0  0  0  0  0  # atno 17395 bound_to 11000

$$$$
