AV-unprocessed.smi:624|AV-procd|sdf|3099|dock6
  -GOLD-   22720 0 23D 1   1.00000     0.00000
 Structure written by MMmdl.
 30 32  0  0  0  0  0  0  0  0  1 V2000
  151.7456  140.8958  157.3482 O   0  0  0  0  0  0  0  0  0  0  0  0
  151.2447  141.9852  157.0706 C   0  0  0  0  0  0  0  0  0  0  0  0
  150.2820  142.1863  156.1563 N   0  0  0  0  0  0  0  0  0  0  0  0
  149.6243  141.2196  155.3553 C   0  0  0  0  0  0  0  0  0  0  0  0
  150.3402  140.1794  154.9120 N   0  0  0  0  0  0  0  0  0  0  0  0
  149.5765  139.3134  154.1389 N   0  0  0  0  0  0  0  0  0  0  0  0
  148.3134  139.7362  154.0281 C   0  0  0  0  0  0  0  0  0  0  0  0
  147.9296  141.2336  154.8584 S   0  0  0  0  0  0  0  0  0  0  0  0
  151.6014  143.1370  157.6577 N   0  0  0  0  0  0  0  0  0  0  0  0
  152.5995  143.2829  158.7126 C   0  0  0  0  0  0  0  0  0  0  0  0
  152.5449  142.1504  159.7261 C   0  0  0  0  0  0  0  0  0  0  0  0
  153.5023  142.0904  160.8936 C   0  0  0  0  0  0  0  0  0  0  0  0
  153.6117  141.0815  159.7743 C   0  0  0  0  0  0  0  0  0  0  0  0
  152.4711  144.6227  159.4149 C   0  0  0  0  0  0  0  0  0  0  0  0
  151.8986  144.7213  160.8087 C   0  0  0  0  0  0  0  0  0  0  0  0
  151.1267  145.2763  159.6329 C   0  0  0  0  0  0  0  0  0  0  0  0
  149.9736  143.1385  156.0264 H   0  0  0  0  0  0  0  0  0  0  0  0
  147.6028  139.1616  153.4525 H   0  0  0  0  0  0  0  0  0  0  0  0
  151.1368  143.9823  157.3592 H   0  0  0  0  0  0  0  0  0  0  0  0
  153.5876  143.2623  158.2479 H   0  0  0  0  0  0  0  0  0  0  0  0
  151.5319  141.8139  159.9394 H   0  0  0  0  0  0  0  0  0  0  0  0
  154.2818  142.8468  160.9578 H   0  0  0  0  0  0  0  0  0  0  0  0
  153.1102  141.7428  161.8472 H   0  0  0  0  0  0  0  0  0  0  0  0
  153.2905  140.0626  159.9797 H   0  0  0  0  0  0  0  0  0  0  0  0
  154.4613  141.1754  159.1010 H   0  0  0  0  0  0  0  0  0  0  0  0
  153.2902  145.3052  159.1941 H   0  0  0  0  0  0  0  0  0  0  0  0
  151.5223  143.8098  161.2691 H   0  0  0  0  0  0  0  0  0  0  0  0
  152.3582  145.4335  161.4910 H   0  0  0  0  0  0  0  0  0  0  0  0
  151.0726  146.3582  159.5299 H   0  0  0  0  0  0  0  0  0  0  0  0
  150.2358  144.7338  159.3233 H   0  0  0  0  0  0  0  0  0  0  0  0
  1  2  2  0  0  0  0
  2  3  1  0  0  0  0
  2  9  1  0  0  0  0
  3  4  1  0  0  0  0
  3 17  1  0  0  0  0
  4  8  1  0  0  0  0
  4  5  2  0  0  0  0
  5  6  1  0  0  0  0
  6  7  2  0  0  0  0
  7  8  1  0  0  0  0
  7 18  1  0  0  0  0
  9 10  1  0  0  0  0
  9 19  1  0  0  0  0
 10 11  1  0  0  0  0
 10 14  1  0  0  0  0
 10 20  1  0  0  0  0
 11 13  1  0  0  0  0
 11 12  1  0  0  0  0
 11 21  1  0  0  0  0
 12 13  1  0  0  0  0
 12 22  1  0  0  0  0
 12 23  1  0  0  0  0
 13 24  1  0  0  0  0
 13 25  1  0  0  0  0
 14 16  1  0  0  0  0
 14 15  1  0  0  0  0
 14 26  1  0  0  0  0
 15 16  1  0  0  0  0
 15 27  1  0  0  0  0
 15 28  1  0  0  0  0
 16 29  1  0  0  0  0
 16 30  1  0  0  0  0
M  END
> <s_m_source_file>
AV-unprocessed.smi

> <i_m_source_file_index>
624

> <i_lp_mmshare_version>
43012

> <i_f3d_flags>
0

> <s_epik_input>
W0NIMl0xW0NIMl1bQ0hdMVtDSF0oW0NIXTJbQ0gyXVtDSDJdMilbTkhdQyg9TylbTkhdYzNubltjSF1zMw==

> <s_epik_cmdline>
J2VwaWtfcHl0aG9uJywgJy1waCcsICc3LjAnLCAnLXRuJywgJzgnLCAnLW1hJywgJzIwMCcsICctbWV0YWxfYmluZGluZycsICctaW1hZScsICc8aW5maWxlLm1hZT4nLCAnLW9tYWUnLCAnPG91dGZpbGUubWFlPic=

> <r_lp_tautomer_probability>
1

> <r_epik_Ionization_Penalty>
0.000305758

> <r_epik_Ionization_Penalty_Charging>
0

> <r_epik_Ionization_Penalty_Neutral>
0.000305758

> <r_epik_State_Penalty>
-0

> <r_epik_Charging_Adjusted_Penalty>
0

> <i_epik_Tot_Q>
0

> <i_epik_Tot_abs_Q>
0

> <r_epik_Metal_State_Penalty>
0.165203

> <b_epik_Metal_Only>
0

> <s_lp_Force_Field>
OPLS_2005

> <r_lp_Energy>
21.213

> <b_lp_Chiralities_Consistent>
1

> <s_lp_Variant>
AV-unprocessed.smi:624-1

> <Gold.Version>
5.8.1

> <Gold.Id.Protein>
6NUR|6NUR_protein|mol2

> <Gold.PLP.Fitness>
41.6937

> <Gold.PLP.PLP>
-38.0700

> <Gold.PLP.part.hbond>
-2.0000

> <Gold.PLP.part.metal>
0.0000

> <Gold.PLP.part.buried>
-5.0369

> <Gold.PLP.part.nonpolar>
-31.4430

> <Gold.PLP.part.repulsive>
1.0149

> <Gold.PLP.ligand.clash>
0.0000

> <Gold.PLP.ligand.torsion>
2.1690

> <Gold.PLP.Chemscore.Hbond>
1.9500

> <Gold.PLP.Chemscore.CHOScore>
0.0000

> <Gold.PLP.Chemscore.Metal>
0.0000

> <Gold.Chemscore.Hbonds>
donor molecule, donor type, donor heavy atom, donor atom, acceptor molecule, acceptor atom, score
      L1  H     3    17       P1  8028  1.00
      P1  H  7989  7998       L1     5  0.99

> <Gold.PLP.Chemscore.Internal.Correction>
2.1117

> <Gold.Rescore>
     Score         DG    S(hbond)    S(metal)    S(lipo)     H(rot)  DE(clash)    DE(int)     intcor
     10.92     -16.52       1.25        0.00      91.92       1.52       0.12       5.47       ----

> <Gold.Chemscore.Fitness>
10.9230

> <Gold.Chemscore.DG>
-16.5203

> <Gold.Chemscore.ZeroCoef>
-5.4800

> <Gold.Chemscore.Hbond>
1.2525

> <Gold.Chemscore.Metal>
0.0000

> <Gold.Chemscore.Lipo>
91.9247

> <Gold.Chemscore.Internal_Hbond>
0.0000

> <Gold.Chemscore.DEClash>
0.1237

> <Gold.Chemscore.DEInternal>
5.4737

> <Gold.Chemscore.Rot>
1.5227

> <Gold.Chemscore.Internal.Correction>
   9.000000E+99

> <Gold.Chemscore.Hbonds>
donor molecule, donor type, donor heavy atom, donor atom, acceptor molecule, acceptor atom, score
      L1  H     3    17       P1  8028  0.99
      P1  H  7989  7998       L1     5  0.14

> <Gold.Chemscore.Hbond.Weighted>
-4.1833

> <Gold.Chemscore.Metal.Weighted>
-0.0000

> <Gold.Chemscore.Lipo.Weighted>
-10.7552

> <Gold.Chemscore.Internal_Hbond.Weighted>
0.0000

> <Gold.Chemscore.DEClash.Weighted>
0.1237

> <Gold.Chemscore.DEInternal.Weighted>
5.4737

> <Gold.Chemscore.Rot.Weighted>
3.8982

> <Gold.Chemscore.Internal.Correction.Weighted>
   9.000000E+99

> <Gold.Protein.RotatedTorsions>
[ 6907 6896 6895 6894 ] final -100.41 input  -60.11 | X-H torsion
[ 7974 7965 7964 7962 ] final -106.59 input  175.53 | X-H torsion
[ 8008 7997 7996 7995 ] final   -6.19 input   59.86 | X-H torsion
[ 10167 10162 10161 10158 ] final  123.56 input  -65.29 | X-H torsion
[ 10718 10713 10712 10709 ] final -179.89 input   66.30 | X-H torsion
[ 10763 10752 10751 10750 ] final  -36.26 input  -60.55 | X-H torsion
[ 11005 11000 10999 10996 ] final   16.75 input  -57.11 | X-H torsion

> <Gold.Protein.ActiveResidues>
 VAL166  LYS551  ARG553  GLY616  TRP617  ASP618  TYR619  PRO620  LYS621  CYS622 
 ASP623  PHE694  ASN695  SER759  ASP760  ASP761  ALA762  ILE779  LEU786  VAL792 
 PHE793  MET794  SER795  GLU796  ALA797  LYS798  CYS799  TRP800  GLU811  SER814 

> <Gold.Protein.RotatedAtoms>
  150.7115  134.0892  159.3925 H   0  0  0  0  0  0  0  0  0  0  0  0  # atno 6907 bound_to 6896
  151.8877  135.0426  160.0504 H   0  0  0  0  0  0  0  0  0  0  0  0  # atno 6908 bound_to 6896
  152.2517  133.5185  159.5366 H   0  0  0  0  0  0  0  0  0  0  0  0  # atno 6909 bound_to 6896
  145.2160  140.9115  143.3287 H   0  0  0  0  0  0  0  0  0  0  0  0  # atno 7974 bound_to 7965
  154.5962  140.2439  155.7853 H   0  0  0  0  0  0  0  0  0  0  0  0  # atno 8008 bound_to 7997
  156.2281  140.2976  156.0071 H   0  0  0  0  0  0  0  0  0  0  0  0  # atno 8009 bound_to 7997
  155.2288  140.0403  157.2949 H   0  0  0  0  0  0  0  0  0  0  0  0  # atno 8010 bound_to 7997
  139.5792  144.6978  151.3572 H   0  0  0  0  0  0  0  0  0  0  0  0  # atno 10167 bound_to 10162
  156.8659  130.9767  151.3078 H   0  0  0  0  0  0  0  0  0  0  0  0  # atno 10718 bound_to 10713
  153.8767  135.6825  153.4770 H   0  0  0  0  0  0  0  0  0  0  0  0  # atno 10763 bound_to 10752
  153.1256  135.4720  154.9265 H   0  0  0  0  0  0  0  0  0  0  0  0  # atno 10764 bound_to 10752
  154.7688  135.3232  154.8183 H   0  0  0  0  0  0  0  0  0  0  0  0  # atno 10765 bound_to 10752
  140.4436  134.1296  155.7693 H   0  0  0  0  0  0  0  0  0  0  0  0  # atno 11005 bound_to 11000
  144.9811  139.3783  143.6261 LP  0  0  0  0  0  0  0  0  0  0  0  0  # atno 17320 bound_to 7965
  146.3387  139.8952  142.8803 LP  0  0  0  0  0  0  0  0  0  0  0  0  # atno 17321 bound_to 7965
  140.7072  143.7483  150.7503 LP  0  0  0  0  0  0  0  0  0  0  0  0  # atno 17342 bound_to 10162
  140.1011  143.4787  152.2425 LP  0  0  0  0  0  0  0  0  0  0  0  0  # atno 17343 bound_to 10162
  157.6224  130.8665  149.9131 LP  0  0  0  0  0  0  0  0  0  0  0  0  # atno 17370 bound_to 10713
  156.0752  130.3680  150.0692 LP  0  0  0  0  0  0  0  0  0  0  0  0  # atno 17371 bound_to 10713
  141.1695  133.8637  157.1614 LP  0  0  0  0  0  0  0  0  0  0  0  0  # atno 17394 bound_to 11000
  140.0053  135.0011  157.0279 LP  0  0  0  0  0  0  0  0  0  0  0  0  # atno 17395 bound_to 11000

$$$$
