AV-unprocessed.smi:1175|AV-procd|sdf|4950|dock4
  -GOLD-   22720 3543D 1   1.00000     0.00000
 Structure written by MMmdl.
 36 37  0  0  0  0  0  0  0  0  1 V2000
  152.4909  139.8586  155.9960 O   0  0  0  0  0  0  0  0  0  0  0  0
  151.6437  140.0557  156.8686 C   0  0  0  0  0  0  0  0  0  0  0  0
  151.8934  139.6355  158.3243 C   0  0  0  0  0  0  0  0  0  0  0  0
  152.3715  140.7356  159.1787 N   0  0  0  0  0  0  0  0  0  0  0  0
  151.8383  142.0159  158.9308 C   0  0  0  0  0  0  0  0  0  0  0  0
  152.1960  143.1078  159.6335 C   0  0  0  0  0  0  0  0  0  0  0  0
  151.5562  144.4649  159.3845 C   0  0  0  0  0  0  0  0  0  0  0  0
  151.8280  144.9055  158.1558 F   0  0  0  0  0  0  0  0  0  0  0  0
  150.2328  144.3707  159.5084 F   0  0  0  0  0  0  0  0  0  0  0  0
  151.9913  145.3715  160.2608 F   0  0  0  0  0  0  0  0  0  0  0  0
  153.1532  142.9014  160.7026 C   0  0  0  0  0  0  0  0  0  0  0  0
  153.6616  141.6810  160.9628 C   0  0  0  0  0  0  0  0  0  0  0  0
  153.2739  140.5058  160.1790 C   0  0  0  0  0  0  0  0  0  0  0  0
  153.7300  139.3852  160.4081 O   0  0  0  0  0  0  0  0  0  0  0  0
  150.4566  140.6291  156.6210 N   0  0  0  0  0  0  0  0  0  0  0  0
  150.0124  141.1045  155.3151 C   0  0  0  0  0  0  0  0  0  0  0  0
  148.4765  141.1576  155.2129 C   0  0  2  0  0  0  0  0  0  0  0  0
  147.9428  142.0406  154.1020 C   0  0  0  0  0  0  0  0  0  0  0  0
  146.5044  142.2724  154.5527 C   0  0  0  0  0  0  0  0  0  0  0  0
  146.5388  142.2657  155.9769 O   0  0  0  0  0  0  0  0  0  0  0  0
  147.7950  141.7730  156.4348 C   0  0  0  0  0  0  0  0  0  0  0  0
  150.9767  139.2085  158.7352 H   0  0  0  0  0  0  0  0  0  0  0  0
  152.6130  138.8155  158.3243 H   0  0  0  0  0  0  0  0  0  0  0  0
  151.1070  142.0507  158.1361 H   0  0  0  0  0  0  0  0  0  0  0  0
  153.4711  143.7403  161.3040 H   0  0  0  0  0  0  0  0  0  0  0  0
  154.3733  141.5649  161.7669 H   0  0  0  0  0  0  0  0  0  0  0  0
  149.8170  140.7516  157.3929 H   0  0  0  0  0  0  0  0  0  0  0  0
  150.4385  142.0885  155.1119 H   0  0  0  0  0  0  0  0  0  0  0  0
  150.4166  140.4332  154.5568 H   0  0  0  0  0  0  0  0  0  0  0  0
  148.0834  140.1489  155.0733 H   0  0  0  0  0  0  0  0  0  0  0  0
  148.4834  142.9878  154.0731 H   0  0  0  0  0  0  0  0  0  0  0  0
  148.0080  141.5791  153.1161 H   0  0  0  0  0  0  0  0  0  0  0  0
  146.0912  143.2047  154.1671 H   0  0  0  0  0  0  0  0  0  0  0  0
  145.8653  141.4542  154.2183 H   0  0  0  0  0  0  0  0  0  0  0  0
  147.6691  141.0555  157.2460 H   0  0  0  0  0  0  0  0  0  0  0  0
  148.3720  142.6159  156.8176 H   0  0  0  0  0  0  0  0  0  0  0  0
  1  2  2  0  0  0  0
  2  3  1  0  0  0  0
  2 15  1  0  0  0  0
  3  4  1  0  0  0  0
  3 22  1  0  0  0  0
  3 23  1  0  0  0  0
  4 13  1  0  0  0  0
  4  5  1  0  0  0  0
  5  6  2  0  0  0  0
  5 24  1  0  0  0  0
  6  7  1  0  0  0  0
  6 11  1  0  0  0  0
  7  8  1  0  0  0  0
  7  9  1  0  0  0  0
  7 10  1  0  0  0  0
 11 12  2  0  0  0  0
 11 25  1  0  0  0  0
 12 13  1  0  0  0  0
 12 26  1  0  0  0  0
 13 14  2  0  0  0  0
 15 16  1  0  0  0  0
 15 27  1  0  0  0  0
 16 17  1  0  0  0  0
 16 28  1  0  0  0  0
 16 29  1  0  0  0  0
 17 21  1  0  0  0  0
 17 18  1  0  0  0  0
 17 30  1  0  0  0  0
 18 19  1  0  0  0  0
 18 31  1  0  0  0  0
 18 32  1  0  0  0  0
 19 20  1  0  0  0  0
 19 33  1  0  0  0  0
 19 34  1  0  0  0  0
 20 21  1  0  0  0  0
 21 35  1  0  0  0  0
 21 36  1  0  0  0  0
M  END
> <s_m_source_file>
AV-unprocessed.smi

> <i_m_source_file_index>
1175

> <i_lp_mmshare_version>
43012

> <i_f3d_flags>
0

> <s_epik_input>
W0NIMl0xT1tDSDJdW0NIMl1bQ0BIXTFbQ0gyXVtOSF1DKD1PKVtDSDJdbjJbY0hdYyhDKEYpKEYpRilbY0hdW2NIXWMyPU8=

> <s_epik_cmdline>
J2VwaWtfcHl0aG9uJywgJy1waCcsICc3LjAnLCAnLXRuJywgJzgnLCAnLW1hJywgJzIwMCcsICctbWV0YWxfYmluZGluZycsICctaW1hZScsICc8aW5maWxlLm1hZT4nLCAnLW9tYWUnLCAnPG91dGZpbGUubWFlPic=

> <r_lp_tautomer_probability>
1

> <r_epik_Ionization_Penalty>
3.67963e-08

> <r_epik_Ionization_Penalty_Charging>
1.809e-08

> <r_epik_Ionization_Penalty_Neutral>
1.87063e-08

> <r_epik_State_Penalty>
-0

> <r_epik_Charging_Adjusted_Penalty>
1.809e-08

> <i_epik_Tot_Q>
0

> <i_epik_Tot_abs_Q>
0

> <r_epik_Metal_State_Penalty>
-0

> <b_epik_Metal_Only>
0

> <s_lp_Force_Field>
OPLS_2005

> <r_lp_Energy>
30.0254

> <b_lp_Chiralities_Consistent>
1

> <s_lp_Variant>
AV-unprocessed.smi:1175-1

> <Gold.Version>
5.8.1

> <Gold.Id.Protein>
6NUR|6NUR_protein|mol2

> <Gold.PLP.Fitness>
50.1317

> <Gold.PLP.PLP>
-49.0748

> <Gold.PLP.part.hbond>
-1.0000

> <Gold.PLP.part.metal>
0.0000

> <Gold.PLP.part.buried>
-5.4016

> <Gold.PLP.part.nonpolar>
-41.3724

> <Gold.PLP.part.repulsive>
0.1810

> <Gold.PLP.ligand.clash>
0.0000

> <Gold.PLP.ligand.torsion>
1.0071

> <Gold.PLP.Chemscore.Hbond>
1.0000

> <Gold.PLP.Chemscore.CHOScore>
0.0000

> <Gold.PLP.Chemscore.Metal>
0.0000

> <Gold.Chemscore.Hbonds>
donor molecule, donor type, donor heavy atom, donor atom, acceptor molecule, acceptor atom, score
      P1  H  7997  8008       L1     1  1.00

> <Gold.PLP.Chemscore.Internal.Correction>
0.0711

> <Gold.Rescore>
     Score         DG    S(hbond)    S(metal)    S(lipo)     H(rot)  DE(clash)    DE(int)     intcor
     13.54     -14.49       1.00        0.00      89.40       1.87       0.12       0.83       ----

> <Gold.Chemscore.Fitness>
13.5400

> <Gold.Chemscore.DG>
-14.4948

> <Gold.Chemscore.ZeroCoef>
-5.4800

> <Gold.Chemscore.Hbond>
0.9990

> <Gold.Chemscore.Metal>
0.0000

> <Gold.Chemscore.Lipo>
89.4042

> <Gold.Chemscore.Internal_Hbond>
0.0000

> <Gold.Chemscore.DEClash>
0.1215

> <Gold.Chemscore.DEInternal>
0.8333

> <Gold.Chemscore.Rot>
1.8681

> <Gold.Chemscore.Internal.Correction>
   9.000000E+99

> <Gold.Chemscore.Hbonds>
donor molecule, donor type, donor heavy atom, donor atom, acceptor molecule, acceptor atom, score
      P1  H  7997  8008       L1     1  1.00

> <Gold.Chemscore.Hbond.Weighted>
-3.3367

> <Gold.Chemscore.Metal.Weighted>
-0.0000

> <Gold.Chemscore.Lipo.Weighted>
-10.4603

> <Gold.Chemscore.Internal_Hbond.Weighted>
0.0000

> <Gold.Chemscore.DEClash.Weighted>
0.1215

> <Gold.Chemscore.DEInternal.Weighted>
0.8333

> <Gold.Chemscore.Rot.Weighted>
4.7822

> <Gold.Chemscore.Internal.Correction.Weighted>
   9.000000E+99

> <Gold.Protein.RotatedTorsions>
[ 6907 6896 6895 6894 ] final -173.33 input  -60.11 | X-H torsion
[ 7974 7965 7964 7962 ] final  -27.16 input  175.53 | X-H torsion
[ 8008 7997 7996 7995 ] final  -31.44 input   59.86 | X-H torsion
[ 10167 10162 10161 10158 ] final  -57.67 input  -65.29 | X-H torsion
[ 10718 10713 10712 10709 ] final  108.76 input   66.30 | X-H torsion
[ 10763 10752 10751 10750 ] final -141.32 input  -60.55 | X-H torsion
[ 11005 11000 10999 10996 ] final   75.21 input  -57.11 | X-H torsion

> <Gold.Protein.ActiveResidues>
 VAL166  LYS551  ARG553  GLY616  TRP617  ASP618  TYR619  PRO620  LYS621  CYS622 
 ASP623  PHE694  ASN695  SER759  ASP760  ASP761  ALA762  ILE779  LEU786  VAL792 
 PHE793  MET794  SER795  GLU796  ALA797  LYS798  CYS799  TRP800  GLU811  SER814 

> <Gold.Protein.RotatedAtoms>
  151.5545  133.3412  159.2959 H   0  0  0  0  0  0  0  0  0  0  0  0  # atno 6907 bound_to 6896
  150.8459  134.7770  159.6981 H   0  0  0  0  0  0  0  0  0  0  0  0  # atno 6908 bound_to 6896
  152.4517  134.5387  159.9884 H   0  0  0  0  0  0  0  0  0  0  0  0  # atno 6909 bound_to 6896
  146.1377  140.5115  142.8666 H   0  0  0  0  0  0  0  0  0  0  0  0  # atno 7974 bound_to 7965
  154.4214  140.1764  156.1567 H   0  0  0  0  0  0  0  0  0  0  0  0  # atno 8008 bound_to 7997
  155.9871  140.3372  155.6693 H   0  0  0  0  0  0  0  0  0  0  0  0  # atno 8009 bound_to 7997
  155.6422  140.0681  157.2605 H   0  0  0  0  0  0  0  0  0  0  0  0  # atno 8010 bound_to 7997
  140.6244  143.2432  151.5401 H   0  0  0  0  0  0  0  0  0  0  0  0  # atno 10167 bound_to 10162
  157.6572  131.0900  150.6354 H   0  0  0  0  0  0  0  0  0  0  0  0  # atno 10718 bound_to 10713
  154.8549  135.3527  154.5849 H   0  0  0  0  0  0  0  0  0  0  0  0  # atno 10763 bound_to 10752
  153.6460  135.6996  153.5230 H   0  0  0  0  0  0  0  0  0  0  0  0  # atno 10764 bound_to 10752
  153.2932  135.4228  155.1145 H   0  0  0  0  0  0  0  0  0  0  0  0  # atno 10765 bound_to 10752
  139.9354  134.7498  156.1242 H   0  0  0  0  0  0  0  0  0  0  0  0  # atno 11005 bound_to 11000
  144.7757  140.5735  143.6639 LP  0  0  0  0  0  0  0  0  0  0  0  0  # atno 17320 bound_to 7965
  145.5119  139.1479  143.3600 LP  0  0  0  0  0  0  0  0  0  0  0  0  # atno 17321 bound_to 7965
  139.5466  144.2504  152.1454 LP  0  0  0  0  0  0  0  0  0  0  0  0  # atno 17342 bound_to 10162
  140.1731  144.4916  150.6568 LP  0  0  0  0  0  0  0  0  0  0  0  0  # atno 17343 bound_to 10162
  156.6659  130.4525  149.5672 LP  0  0  0  0  0  0  0  0  0  0  0  0  # atno 17370 bound_to 10713
  156.2033  130.6633  151.1190 LP  0  0  0  0  0  0  0  0  0  0  0  0  # atno 17371 bound_to 10713
  141.0966  133.6693  156.2658 LP  0  0  0  0  0  0  0  0  0  0  0  0  # atno 17394 bound_to 11000
  140.6089  134.5479  157.5530 LP  0  0  0  0  0  0  0  0  0  0  0  0  # atno 17395 bound_to 11000

$$$$
