AV-unprocessed.smi:1871|AV-procd|sdf|7601|dock9
  -GOLD-   22720 9323D 1   1.00000     0.00000
 Structure written by MMmdl.
 41 43  0  0  0  0  0  0  0  0  2 V2000
  151.0979  140.4846  155.1895 O   0  0  0  0  0  0  0  0  0  0  0  0
  150.1042  141.2753  155.8022 C   0  0  0  0  0  0  0  0  0  0  0  0
  150.6270  142.0366  156.9768 C   0  0  0  0  0  0  0  0  0  0  0  0
  150.5973  143.3928  157.1125 N   0  3  0  0  0  0  0  0  0  0  0  0
  151.1787  143.7611  158.3261 C   0  0  0  0  0  0  0  0  0  0  0  0
  151.3767  145.0134  158.8995 C   0  0  0  0  0  0  0  0  0  0  0  0
  152.0075  145.0392  160.1607 C   0  0  0  0  0  0  0  0  0  0  0  0
  152.4149  143.8514  160.8024 C   0  0  0  0  0  0  0  0  0  0  0  0
  152.2091  142.5877  160.2105 C   0  0  0  0  0  0  0  0  0  0  0  0
  151.5845  142.5714  158.9635 C   0  0  0  0  0  0  0  0  0  0  0  0
  151.2276  141.5332  158.0957 N   0  0  0  0  0  0  0  0  0  0  0  0
  151.5359  140.1472  158.4839 C   0  0  0  0  0  0  0  0  0  0  0  0
  153.0350  139.8071  158.3608 C   0  0  2  0  0  0  0  0  0  0  0  0
  153.2885  139.2035  157.1073 O   0  0  0  0  0  0  0  0  0  0  0  0
  153.4999  138.9437  159.5225 C   0  0  0  0  0  0  0  0  0  0  0  0
  152.9013  137.6906  159.7741 C   0  0  0  0  0  0  0  0  0  0  0  0
  153.3328  136.9031  160.8586 C   0  0  0  0  0  0  0  0  0  0  0  0
  154.3682  137.3505  161.7036 C   0  0  0  0  0  0  0  0  0  0  0  0
  154.7354  136.5423  162.7556 O   0  0  0  0  0  0  0  0  0  0  0  0
  153.8905  136.3994  163.8111 C   0  0  0  0  0  0  0  0  0  0  0  0
  154.0103  135.1611  164.3498 F   0  0  0  0  0  0  0  0  0  0  0  0
  154.2066  137.2967  164.7756 F   0  0  0  0  0  0  0  0  0  0  0  0
  154.9566  138.6143  161.4587 C   0  0  0  0  0  0  0  0  0  0  0  0
  154.5260  139.4026  160.3741 C   0  0  0  0  0  0  0  0  0  0  0  0
  150.7539  139.6137  155.0614 H   0  0  0  0  0  0  0  0  0  0  0  0
  149.7110  141.9772  155.0665 H   0  0  0  0  0  0  0  0  0  0  0  0
  149.2736  140.6388  156.1052 H   0  0  0  0  0  0  0  0  0  0  0  0
  151.0665  145.9247  158.4093 H   0  0  0  0  0  0  0  0  0  0  0  0
  152.1827  145.9888  160.6456 H   0  0  0  0  0  0  0  0  0  0  0  0
  152.8952  143.9105  161.7685 H   0  0  0  0  0  0  0  0  0  0  0  0
  152.5264  141.6839  160.7093 H   0  0  0  0  0  0  0  0  0  0  0  0
  151.1866  139.9931  159.5056 H   0  0  0  0  0  0  0  0  0  0  0  0
  150.9427  139.4791  157.8598 H   0  0  0  0  0  0  0  0  0  0  0  0
  153.6114  140.7326  158.3768 H   0  0  0  0  0  0  0  0  0  0  0  0
  152.5416  139.3506  156.5472 H   0  0  0  0  0  0  0  0  0  0  0  0
  152.1058  137.3300  159.1385 H   0  0  0  0  0  0  0  0  0  0  0  0
  152.8659  135.9465  161.0425 H   0  0  0  0  0  0  0  0  0  0  0  0
  152.8531  136.5716  163.5233 H   0  0  0  0  0  0  0  0  0  0  0  0
  155.7361  138.9957  162.1011 H   0  0  0  0  0  0  0  0  0  0  0  0
  154.9853  140.3651  160.2024 H   0  0  0  0  0  0  0  0  0  0  0  0
  150.2109  144.0186  156.4178 H   0  0  0  0  0  0  0  0  0  0  0  0
  1  2  1  0  0  0  0
  1 25  1  0  0  0  0
  2  3  1  0  0  0  0
  2 26  1  0  0  0  0
  2 27  1  0  0  0  0
  3 11  1  0  0  0  0
  3  4  2  0  0  0  0
  4  5  1  0  0  0  0
  4 41  1  0  0  0  0
  5 10  2  0  0  0  0
  5  6  1  0  0  0  0
  6  7  2  0  0  0  0
  6 28  1  0  0  0  0
  7  8  1  0  0  0  0
  7 29  1  0  0  0  0
  8  9  2  0  0  0  0
  8 30  1  0  0  0  0
  9 10  1  0  0  0  0
  9 31  1  0  0  0  0
 10 11  1  0  0  0  0
 11 12  1  0  0  0  0
 12 13  1  0  0  0  0
 12 32  1  0  0  0  0
 12 33  1  0  0  0  0
 13 14  1  0  0  0  0
 13 15  1  0  0  0  0
 13 34  1  0  0  0  0
 14 35  1  0  0  0  0
 15 24  1  0  0  0  0
 15 16  2  0  0  0  0
 16 17  1  0  0  0  0
 16 36  1  0  0  0  0
 17 18  2  0  0  0  0
 17 37  1  0  0  0  0
 18 19  1  0  0  0  0
 18 23  1  0  0  0  0
 19 20  1  0  0  0  0
 20 21  1  0  0  0  0
 20 22  1  0  0  0  0
 20 38  1  0  0  0  0
 23 24  2  0  0  0  0
 23 39  1  0  0  0  0
 24 40  1  0  0  0  0
M  CHG  1   4   1
M  END
> <s_m_source_file>
AV-unprocessed.smi

> <i_m_source_file_index>
1871

> <i_lp_mmshare_version>
43012

> <i_f3d_flags>
0

> <s_epik_input>
W2NIXTFbY0hdW2NIXVtjSF1jKGMxMiluKGMobjIpW0NIMl1bT0hdKVtDSDJdW0NASF0oW09IXSljM1tjSF1bY0hdYyhPW0NIXShGKUYpW2NIXVtjSF0z

> <s_epik_cmdline>
J2VwaWtfcHl0aG9uJywgJy1waCcsICc3LjAnLCAnLXRuJywgJzgnLCAnLW1hJywgJzIwMCcsICctbWV0YWxfYmluZGluZycsICctaW1hZScsICc8aW5maWxlLm1hZT4nLCAnLW9tYWUnLCAnPG91dGZpbGUubWFlPic=

> <r_lp_tautomer_probability>
1

> <r_epik_Ionization_Penalty>
1.35642

> <r_epik_Ionization_Penalty_Charging>
1.35557

> <r_epik_Ionization_Penalty_Neutral>
0.000856035

> <r_epik_State_Penalty>
1.43401

> <r_epik_Charging_Adjusted_Penalty>
2.78958

> <i_epik_Tot_Q>
1

> <i_epik_Tot_abs_Q>
1

> <r_epik_Metal_State_Penalty>
5.47166

> <b_epik_Metal_Only>
0

> <s_lp_Force_Field>
OPLS_2005

> <r_lp_Energy>
13.1026

> <b_lp_Chiralities_Consistent>
1

> <s_lp_Variant>
AV-unprocessed.smi:1871-3

> <Gold.Version>
5.8.1

> <Gold.Id.Protein>
6NUR|6NUR_protein|mol2

> <Gold.PLP.Fitness>
61.8774

> <Gold.PLP.PLP>
-52.4334

> <Gold.PLP.part.hbond>
-2.7093

> <Gold.PLP.part.metal>
0.0000

> <Gold.PLP.part.buried>
-5.6559

> <Gold.PLP.part.nonpolar>
-44.3235

> <Gold.PLP.part.repulsive>
0.0053

> <Gold.PLP.ligand.clash>
0.0000

> <Gold.PLP.ligand.torsion>
1.2657

> <Gold.PLP.Chemscore.Hbond>
3.9595

> <Gold.PLP.Chemscore.CHOScore>
0.0000

> <Gold.PLP.Chemscore.Metal>
0.0000

> <Gold.Chemscore.Hbonds>
donor molecule, donor type, donor heavy atom, donor atom, acceptor molecule, acceptor atom, score
      L1  H     4    41       P1  8028  2.00
      P1  H  7989  7998       L1     1  0.98
      P1  H  7997  8010       L1    14  0.94

> <Gold.PLP.Chemscore.Internal.Correction>
0.0969

> <Gold.Rescore>
     Score         DG    S(hbond)    S(metal)    S(lipo)     H(rot)  DE(clash)    DE(int)     intcor
     16.67     -17.95       1.97        0.00     124.13       3.37       0.17       1.12       ----

> <Gold.Chemscore.Fitness>
16.6690

> <Gold.Chemscore.DG>
-17.9529

> <Gold.Chemscore.ZeroCoef>
-5.4800

> <Gold.Chemscore.Hbond>
1.9659

> <Gold.Chemscore.Metal>
0.0000

> <Gold.Chemscore.Lipo>
124.1304

> <Gold.Chemscore.Internal_Hbond>
0.0000

> <Gold.Chemscore.DEClash>
0.1670

> <Gold.Chemscore.DEInternal>
1.1168

> <Gold.Chemscore.Rot>
3.3659

> <Gold.Chemscore.Internal.Correction>
   9.000000E+99

> <Gold.Chemscore.Hbonds>
donor molecule, donor type, donor heavy atom, donor atom, acceptor molecule, acceptor atom, score
      L1  H     4    41       P1  8028  0.95
      P1  H  7989  7998       L1     1  0.27
      P1  H  7997  8010       L1    14  0.15

> <Gold.Chemscore.Hbond.Weighted>
-6.5663

> <Gold.Chemscore.Metal.Weighted>
-0.0000

> <Gold.Chemscore.Lipo.Weighted>
-14.5233

> <Gold.Chemscore.Internal_Hbond.Weighted>
0.0000

> <Gold.Chemscore.DEClash.Weighted>
0.1670

> <Gold.Chemscore.DEInternal.Weighted>
1.1168

> <Gold.Chemscore.Rot.Weighted>
8.6167

> <Gold.Chemscore.Internal.Correction.Weighted>
   9.000000E+99

> <Gold.Protein.RotatedTorsions>
[ 6907 6896 6895 6894 ] final   36.29 input  -60.11 | X-H torsion
[ 7974 7965 7964 7962 ] final    4.47 input  175.53 | X-H torsion
[ 8008 7997 7996 7995 ] final   74.43 input   59.86 | X-H torsion
[ 10167 10162 10161 10158 ] final  -26.91 input  -65.29 | X-H torsion
[ 10718 10713 10712 10709 ] final   80.49 input   66.30 | X-H torsion
[ 10763 10752 10751 10750 ] final -130.98 input  -60.55 | X-H torsion
[ 11005 11000 10999 10996 ] final  -33.22 input  -57.11 | X-H torsion

> <Gold.Protein.ActiveResidues>
 VAL166  LYS551  ARG553  GLY616  TRP617  ASP618  TYR619  PRO620  LYS621  CYS622 
 ASP623  PHE694  ASN695  SER759  ASP760  ASP761  ALA762  ILE779  LEU786  VAL792 
 PHE793  MET794  SER795  GLU796  ALA797  LYS798  CYS799  TRP800  GLU811  SER814 

> <Gold.Protein.RotatedAtoms>
  152.1278  134.9158  160.0559 H   0  0  0  0  0  0  0  0  0  0  0  0  # atno 6907 bound_to 6896
  152.0274  133.3918  159.4291 H   0  0  0  0  0  0  0  0  0  0  0  0  # atno 6908 bound_to 6896
  150.6854  134.3480  159.4940 H   0  0  0  0  0  0  0  0  0  0  0  0  # atno 6909 bound_to 6896
  146.2444  140.0529  142.8374 H   0  0  0  0  0  0  0  0  0  0  0  0  # atno 7974 bound_to 7965
  155.7983  140.3477  155.5388 H   0  0  0  0  0  0  0  0  0  0  0  0  # atno 8008 bound_to 7997
  155.8564  140.0964  157.1662 H   0  0  0  0  0  0  0  0  0  0  0  0  # atno 8009 bound_to 7997
  154.4010  140.1367  156.3894 H   0  0  0  0  0  0  0  0  0  0  0  0  # atno 8010 bound_to 7997
  140.7280  143.4138  151.1062 H   0  0  0  0  0  0  0  0  0  0  0  0  # atno 10167 bound_to 10162
  157.6807  130.9962  150.2087 H   0  0  0  0  0  0  0  0  0  0  0  0  # atno 10718 bound_to 10713
  154.8753  135.3845  154.4172 H   0  0  0  0  0  0  0  0  0  0  0  0  # atno 10763 bound_to 10752
  153.4880  135.7030  153.5905 H   0  0  0  0  0  0  0  0  0  0  0  0  # atno 10764 bound_to 10752
  153.4292  135.3883  155.2127 H   0  0  0  0  0  0  0  0  0  0  0  0  # atno 10765 bound_to 10752
  140.9617  133.7160  156.1380 H   0  0  0  0  0  0  0  0  0  0  0  0  # atno 11005 bound_to 11000
  145.0968  140.9320  143.4736 LP  0  0  0  0  0  0  0  0  0  0  0  0  # atno 17320 bound_to 7965
  145.0714  139.3029  143.5830 LP  0  0  0  0  0  0  0  0  0  0  0  0  # atno 17321 bound_to 7965
  139.7775  143.8404  152.3132 LP  0  0  0  0  0  0  0  0  0  0  0  0  # atno 17342 bound_to 10162
  139.8343  144.7239  150.9410 LP  0  0  0  0  0  0  0  0  0  0  0  0  # atno 17343 bound_to 10162
  156.2762  130.3728  149.7981 LP  0  0  0  0  0  0  0  0  0  0  0  0  # atno 17370 bound_to 10713
  156.5683  130.8413  151.3349 LP  0  0  0  0  0  0  0  0  0  0  0  0  # atno 17371 bound_to 10713
  140.7458  134.4100  157.5548 LP  0  0  0  0  0  0  0  0  0  0  0  0  # atno 17394 bound_to 11000
  139.8880  134.8867  156.2496 LP  0  0  0  0  0  0  0  0  0  0  0  0  # atno 17395 bound_to 11000

$$$$
