AV-unprocessed.smi:3209|AV-procd|sdf|12269|dock1
  -GOLD-   2272018103D 1   1.00000     0.00000
 Structure written by MMmdl.
 37 39  0  0  0  0  0  0  0  0  2 V2000
  153.4958  138.2895  154.4545 C   0  0  0  0  0  0  0  0  0  0  0  0
  152.0645  138.6691  154.6256 C   0  0  0  0  0  0  0  0  0  0  0  0
  151.6584  139.9062  154.9237 N   0  0  0  0  0  0  0  0  0  0  0  0
  150.2680  140.0053  155.0340 C   0  0  0  0  0  0  0  0  0  0  0  0
  149.6400  141.3245  155.3667 C   0  0  0  0  0  0  0  0  0  0  0  0
  149.6823  141.6247  156.8710 C   0  0  0  0  0  0  0  0  0  0  0  0
  150.4128  142.8798  157.1412 N   0  3  0  0  0  0  0  0  0  0  0  0
  150.7565  143.0971  158.5636 C   0  0  1  0  0  0  0  0  0  0  0  0
  151.6808  141.9920  159.1261 C   0  0  0  0  0  0  0  0  0  0  0  0
  152.9002  142.7860  159.6290 C   0  0  2  0  0  0  0  0  0  0  0  0
  152.5034  143.6194  160.8617 C   0  0  0  0  0  0  0  0  0  0  0  0
  151.6318  144.7337  160.2515 C   0  0  0  0  0  0  0  0  0  0  0  0
  151.6119  144.3688  158.7549 C   0  0  1  0  0  0  0  0  0  0  0  0
  153.0346  143.8554  158.5522 C   0  0  0  0  0  0  0  0  0  0  0  0
  149.6209  138.8161  154.8062 C   0  0  0  0  0  0  0  0  0  0  0  0
  150.7379  137.5272  154.4493 S   0  0  0  0  0  0  0  0  0  0  0  0
  154.1500  139.0963  154.7864 H   0  0  0  0  0  0  0  0  0  0  0  0
  153.7020  138.0801  153.4049 H   0  0  0  0  0  0  0  0  0  0  0  0
  153.7181  137.3979  155.0408 H   0  0  0  0  0  0  0  0  0  0  0  0
  150.1452  142.1230  154.8218 H   0  0  0  0  0  0  0  0  0  0  0  0
  148.6047  141.3368  155.0228 H   0  0  0  0  0  0  0  0  0  0  0  0
  148.6681  141.7120  157.2632 H   0  0  0  0  0  0  0  0  0  0  0  0
  150.1621  140.7999  157.3993 H   0  0  0  0  0  0  0  0  0  0  0  0
  151.2636  142.8938  156.5972 H   0  0  0  0  0  0  0  0  0  0  0  0
  149.8327  143.1750  159.1392 H   0  0  0  0  0  0  0  0  0  0  0  0
  151.2038  141.4187  159.9219 H   0  0  0  0  0  0  0  0  0  0  0  0
  151.9881  141.2882  158.3508 H   0  0  0  0  0  0  0  0  0  0  0  0
  153.7881  142.1724  159.7833 H   0  0  0  0  0  0  0  0  0  0  0  0
  151.9650  143.0281  161.6036 H   0  0  0  0  0  0  0  0  0  0  0  0
  153.3839  144.0437  161.3461 H   0  0  0  0  0  0  0  0  0  0  0  0
  150.6329  144.7690  160.6879 H   0  0  0  0  0  0  0  0  0  0  0  0
  152.0960  145.7089  160.4050 H   0  0  0  0  0  0  0  0  0  0  0  0
  151.3226  145.2021  158.1132 H   0  0  0  0  0  0  0  0  0  0  0  0
  153.8003  144.6004  158.7765 H   0  0  0  0  0  0  0  0  0  0  0  0
  153.2138  143.4478  157.5557 H   0  0  0  0  0  0  0  0  0  0  0  0
  148.5592  138.6183  154.8269 H   0  0  0  0  0  0  0  0  0  0  0  0
  149.8268  143.6459  156.8415 H   0  0  0  0  0  0  0  0  0  0  0  0
  1  2  1  0  0  0  0
  1 17  1  0  0  0  0
  1 18  1  0  0  0  0
  1 19  1  0  0  0  0
  2 16  1  0  0  0  0
  2  3  2  0  0  0  0
  3  4  1  0  0  0  0
  4  5  1  0  0  0  0
  4 15  2  0  0  0  0
  5  6  1  0  0  0  0
  5 20  1  0  0  0  0
  5 21  1  0  0  0  0
  6  7  1  0  0  0  0
  6 22  1  0  0  0  0
  6 23  1  0  0  0  0
  7  8  1  0  0  0  0
  7 24  1  0  0  0  0
  7 37  1  0  0  0  0
  8 13  1  0  0  0  0
  8  9  1  0  0  0  0
  8 25  1  0  0  0  0
  9 10  1  0  0  0  0
  9 26  1  0  0  0  0
  9 27  1  0  0  0  0
 10 14  1  0  0  0  0
 10 11  1  0  0  0  0
 10 28  1  0  0  0  0
 11 12  1  0  0  0  0
 11 29  1  0  0  0  0
 11 30  1  0  0  0  0
 12 13  1  0  0  0  0
 12 31  1  0  0  0  0
 12 32  1  0  0  0  0
 13 14  1  0  0  0  0
 13 33  1  0  0  0  0
 14 34  1  0  0  0  0
 14 35  1  0  0  0  0
 15 16  1  0  0  0  0
 15 36  1  0  0  0  0
M  CHG  1   7   1
M  END
> <s_m_source_file>
AV-unprocessed.smi

> <i_m_source_file_index>
3209

> <i_lp_mmshare_version>
43012

> <i_f3d_flags>
0

> <s_epik_input>
W0NIM11jMW5jKFtjSF1zMSlbQ0gyXVtDSDJdW05IXVtDQEhdKFtDSDJdW0NASF0yMylbQ0BIXShbQ0gyXTMpW0NIMl1bQ0gyXTI=

> <s_epik_cmdline>
J2VwaWtfcHl0aG9uJywgJy1waCcsICc3LjAnLCAnLXRuJywgJzgnLCAnLW1hJywgJzIwMCcsICctbWV0YWxfYmluZGluZycsICctaW1hZScsICc8aW5maWxlLm1hZT4nLCAnLW9tYWUnLCAnPG91dGZpbGUubWFlPic=

> <r_lp_tautomer_probability>
1

> <r_epik_Ionization_Penalty>
0.000342479

> <r_epik_Ionization_Penalty_Charging>
0.000317129

> <r_epik_Ionization_Penalty_Neutral>
2.535e-05

> <r_epik_State_Penalty>
-0

> <r_epik_Charging_Adjusted_Penalty>
0.000317129

> <i_epik_Tot_Q>
1

> <i_epik_Tot_abs_Q>
1

> <r_epik_Metal_State_Penalty>
-0

> <b_epik_Metal_Only>
0

> <s_lp_Force_Field>
OPLS_2005

> <r_lp_Energy>
48.296

> <b_lp_Chiralities_Consistent>
1

> <s_lp_Variant>
AV-unprocessed.smi:3209-2

> <Gold.Version>
5.8.1

> <Gold.Id.Protein>
6NUR|6NUR_protein|mol2

> <Gold.PLP.Fitness>
49.3964

> <Gold.PLP.PLP>
-43.1137

> <Gold.PLP.part.hbond>
-2.0000

> <Gold.PLP.part.metal>
0.0000

> <Gold.PLP.part.buried>
-4.2411

> <Gold.PLP.part.nonpolar>
-37.1782

> <Gold.PLP.part.repulsive>
0.0610

> <Gold.PLP.ligand.clash>
0.0000

> <Gold.PLP.ligand.torsion>
0.7162

> <Gold.PLP.Chemscore.Hbond>
2.5500

> <Gold.PLP.Chemscore.CHOScore>
0.0000

> <Gold.PLP.Chemscore.Metal>
0.0000

> <Gold.Chemscore.Hbonds>
donor molecule, donor type, donor heavy atom, donor atom, acceptor molecule, acceptor atom, score
      L1  H     7    37       P1  8028  2.00
      P1  H  7989  7998       L1     3  0.60

> <Gold.PLP.Chemscore.Internal.Correction>
0.0651

> <Gold.Rescore>
     Score         DG    S(hbond)    S(metal)    S(lipo)     H(rot)  DE(clash)    DE(int)     intcor
     20.12     -20.94       1.01        0.00     132.02       1.31       0.04       0.79       ----

> <Gold.Chemscore.Fitness>
20.1169

> <Gold.Chemscore.DG>
-20.9438

> <Gold.Chemscore.ZeroCoef>
-5.4800

> <Gold.Chemscore.Hbond>
1.0101

> <Gold.Chemscore.Metal>
0.0000

> <Gold.Chemscore.Lipo>
132.0168

> <Gold.Chemscore.Internal_Hbond>
0.0000

> <Gold.Chemscore.DEClash>
0.0413

> <Gold.Chemscore.DEInternal>
0.7857

> <Gold.Chemscore.Rot>
1.3108

> <Gold.Chemscore.Internal.Correction>
   9.000000E+99

> <Gold.Chemscore.Hbonds>
donor molecule, donor type, donor heavy atom, donor atom, acceptor molecule, acceptor atom, score
      L1  H     7    37       P1  8028  0.98
      P1  H  7989  7998       L1     3  0.03

> <Gold.Chemscore.Hbond.Weighted>
-3.3736

> <Gold.Chemscore.Metal.Weighted>
-0.0000

> <Gold.Chemscore.Lipo.Weighted>
-15.4460

> <Gold.Chemscore.Internal_Hbond.Weighted>
0.0000

> <Gold.Chemscore.DEClash.Weighted>
0.0413

> <Gold.Chemscore.DEInternal.Weighted>
0.7857

> <Gold.Chemscore.Rot.Weighted>
3.3558

> <Gold.Chemscore.Internal.Correction.Weighted>
   9.000000E+99

> <Gold.Protein.RotatedTorsions>
[ 6907 6896 6895 6894 ] final  -15.42 input  -60.11 | X-H torsion
[ 7974 7965 7964 7962 ] final   52.62 input  175.53 | X-H torsion
[ 8008 7997 7996 7995 ] final   41.34 input   59.86 | X-H torsion
[ 10167 10162 10161 10158 ] final  134.08 input  -65.29 | X-H torsion
[ 10718 10713 10712 10709 ] final   -5.78 input   66.30 | X-H torsion
[ 10763 10752 10751 10750 ] final  -87.47 input  -60.55 | X-H torsion
[ 11005 11000 10999 10996 ] final  -14.01 input  -57.11 | X-H torsion

> <Gold.Protein.ActiveResidues>
 VAL166  LYS551  ARG553  GLY616  TRP617  ASP618  TYR619  PRO620  LYS621  CYS622 
 ASP623  PHE694  ASN695  SER759  ASP760  ASP761  ALA762  ILE779  LEU786  VAL792 
 PHE793  MET794  SER795  GLU796  ALA797  LYS798  CYS799  TRP800  GLU811  SER814 

> <Gold.Protein.RotatedAtoms>
  151.3242  135.0826  159.9315 H   0  0  0  0  0  0  0  0  0  0  0  0  # atno 6907 bound_to 6896
  152.5250  133.9608  159.7727 H   0  0  0  0  0  0  0  0  0  0  0  0  # atno 6908 bound_to 6896
  150.9935  133.6074  159.2735 H   0  0  0  0  0  0  0  0  0  0  0  0  # atno 6909 bound_to 6896
  145.9795  139.4228  143.0141 H   0  0  0  0  0  0  0  0  0  0  0  0  # atno 7974 bound_to 7965
  155.2680  140.3364  155.4267 H   0  0  0  0  0  0  0  0  0  0  0  0  # atno 8008 bound_to 7997
  156.2145  140.1783  156.7661 H   0  0  0  0  0  0  0  0  0  0  0  0  # atno 8009 bound_to 7997
  154.5734  140.0666  156.8983 H   0  0  0  0  0  0  0  0  0  0  0  0  # atno 8010 bound_to 7997
  139.5270  144.6585  151.5088 H   0  0  0  0  0  0  0  0  0  0  0  0  # atno 10167 bound_to 10162
  156.7416  130.5211  149.5823 H   0  0  0  0  0  0  0  0  0  0  0  0  # atno 10718 bound_to 10713
  154.6340  135.5412  153.7712 H   0  0  0  0  0  0  0  0  0  0  0  0  # atno 10763 bound_to 10752
  153.0299  135.6443  154.1259 H   0  0  0  0  0  0  0  0  0  0  0  0  # atno 10764 bound_to 10752
  154.1188  135.2922  155.3193 H   0  0  0  0  0  0  0  0  0  0  0  0  # atno 10765 bound_to 10752
  140.7820  133.8355  155.9300 H   0  0  0  0  0  0  0  0  0  0  0  0  # atno 11005 bound_to 11000
  145.7790  140.9864  143.1109 LP  0  0  0  0  0  0  0  0  0  0  0  0  # atno 17320 bound_to 7965
  144.6857  139.9541  143.7478 LP  0  0  0  0  0  0  0  0  0  0  0  0  # atno 17321 bound_to 7965
  140.6421  143.8867  150.6702 LP  0  0  0  0  0  0  0  0  0  0  0  0  # atno 17342 bound_to 10162
  140.2205  143.3812  152.1646 LP  0  0  0  0  0  0  0  0  0  0  0  0  # atno 17343 bound_to 10162
  156.1461  130.6278  151.0533 LP  0  0  0  0  0  0  0  0  0  0  0  0  # atno 17370 bound_to 10713
  157.6816  131.0836  150.7355 LP  0  0  0  0  0  0  0  0  0  0  0  0  # atno 17371 bound_to 10713
  140.9474  134.1823  157.4753 LP  0  0  0  0  0  0  0  0  0  0  0  0  # atno 17394 bound_to 11000
  139.8741  134.9895  156.5463 LP  0  0  0  0  0  0  0  0  0  0  0  0  # atno 17395 bound_to 11000

$$$$
