AV-unprocessed.smi:3202|AV-procd|sdf|12247|dock7
  -GOLD-   2272018 83D 1   1.00000     0.00000
 Structure written by MMmdl.
 43 44  0  0  0  0  0  0  0  0  2 V2000
  151.5818  138.2150  155.2138 C   0  0  0  0  0  0  0  0  0  0  0  0
  150.2102  138.5944  154.7385 C   0  0  0  0  0  0  0  0  0  0  0  0
  149.0545  137.7664  154.6305 C   0  0  0  0  0  0  0  0  0  0  0  0
  148.0852  138.6002  154.1481 C   0  0  0  0  0  0  0  0  0  0  0  0
  146.6517  138.3493  153.8070 C   0  0  0  0  0  0  0  0  0  0  0  0
  146.3580  138.3362  152.2940 C   0  0  2  0  0  0  0  0  0  0  0  0
  146.9221  139.5667  151.5657 C   0  0  0  0  0  0  0  0  0  0  0  0
  144.8973  138.2580  152.0676 N   0  3  0  0  0  0  0  0  0  0  0  0
  144.2066  137.1308  152.7356 C   0  0  1  0  0  0  0  0  0  0  0  0
  142.6762  137.2492  152.7128 C   0  0  0  0  0  0  0  0  0  0  0  0
  142.1546  135.8102  152.8208 C   0  0  0  0  0  0  0  0  0  0  0  0
  143.3816  134.8945  152.6936 C   0  0  0  0  0  0  0  0  0  0  0  0
  144.5098  135.7574  152.0996 C   0  0  0  0  0  0  0  0  0  0  0  0
  144.4015  135.7718  150.5570 C   0  0  0  0  0  0  0  0  0  0  0  0
  145.8955  135.2276  152.5132 C   0  0  0  0  0  0  0  0  0  0  0  0
  148.6796  139.8330  153.9984 N   0  0  0  0  0  0  0  0  0  0  0  0
  149.9773  139.8401  154.3534 N   0  0  0  0  0  0  0  0  0  0  0  0
  148.2205  140.6665  153.6589 H   0  0  0  0  0  0  0  0  0  0  0  0
  151.5890  137.2088  155.6334 H   0  0  0  0  0  0  0  0  0  0  0  0
  151.9344  138.8983  155.9868 H   0  0  0  0  0  0  0  0  0  0  0  0
  152.3003  138.2379  154.3941 H   0  0  0  0  0  0  0  0  0  0  0  0
  148.9550  136.7182  154.8707 H   0  0  0  0  0  0  0  0  0  0  0  0
  146.0274  139.1003  154.2935 H   0  0  0  0  0  0  0  0  0  0  0  0
  146.3551  137.3938  154.2411 H   0  0  0  0  0  0  0  0  0  0  0  0
  146.8369  137.4550  151.8643 H   0  0  0  0  0  0  0  0  0  0  0  0
  148.0083  139.6160  151.6451 H   0  0  0  0  0  0  0  0  0  0  0  0
  146.5157  140.4926  151.9743 H   0  0  0  0  0  0  0  0  0  0  0  0
  146.6789  139.5370  150.5032 H   0  0  0  0  0  0  0  0  0  0  0  0
  144.4722  139.1226  152.3703 H   0  0  0  0  0  0  0  0  0  0  0  0
  144.5311  137.1026  153.7780 H   0  0  0  0  0  0  0  0  0  0  0  0
  142.3025  137.8812  153.5190 H   0  0  0  0  0  0  0  0  0  0  0  0
  142.3389  137.6878  151.7727 H   0  0  0  0  0  0  0  0  0  0  0  0
  141.6412  135.6403  153.7679 H   0  0  0  0  0  0  0  0  0  0  0  0
  141.4392  135.6102  152.0222 H   0  0  0  0  0  0  0  0  0  0  0  0
  143.6625  134.5522  153.6909 H   0  0  0  0  0  0  0  0  0  0  0  0
  143.1730  134.0020  152.1022 H   0  0  0  0  0  0  0  0  0  0  0  0
  144.5155  134.7672  150.1482 H   0  0  0  0  0  0  0  0  0  0  0  0
  145.1773  136.3897  150.1041 H   0  0  0  0  0  0  0  0  0  0  0  0
  143.4379  136.1501  150.2155 H   0  0  0  0  0  0  0  0  0  0  0  0
  146.0626  134.2206  152.1291 H   0  0  0  0  0  0  0  0  0  0  0  0
  146.0042  135.1861  153.5975 H   0  0  0  0  0  0  0  0  0  0  0  0
  146.6930  135.8637  152.1276 H   0  0  0  0  0  0  0  0  0  0  0  0
  144.7465  138.1623  151.0735 H   0  0  0  0  0  0  0  0  0  0  0  0
  1 19  1  0  0  0  0
  1 20  1  0  0  0  0
  1 21  1  0  0  0  0
  1  2  1  0  0  0  0
  2 17  2  0  0  0  0
  2  3  1  0  0  0  0
  3  4  2  0  0  0  0
  3 22  1  0  0  0  0
  4 16  1  0  0  0  0
  4  5  1  0  0  0  0
  5  6  1  0  0  0  0
  5 23  1  0  0  0  0
  5 24  1  0  0  0  0
  6  7  1  0  0  0  0
  6  8  1  0  0  0  0
  6 25  1  0  0  0  0
  7 26  1  0  0  0  0
  7 27  1  0  0  0  0
  7 28  1  0  0  0  0
  8  9  1  0  0  0  0
  8 29  1  0  0  0  0
  8 43  1  0  0  0  0
  9 13  1  0  0  0  0
  9 10  1  0  0  0  0
  9 30  1  0  0  0  0
 10 11  1  0  0  0  0
 10 31  1  0  0  0  0
 10 32  1  0  0  0  0
 11 12  1  0  0  0  0
 11 33  1  0  0  0  0
 11 34  1  0  0  0  0
 12 13  1  0  0  0  0
 12 35  1  0  0  0  0
 12 36  1  0  0  0  0
 13 14  1  0  0  0  0
 13 15  1  0  0  0  0
 14 37  1  0  0  0  0
 14 38  1  0  0  0  0
 14 39  1  0  0  0  0
 15 40  1  0  0  0  0
 15 41  1  0  0  0  0
 15 42  1  0  0  0  0
 16 17  1  0  0  0  0
 16 18  1  0  0  0  0
M  CHG  1   8   1
M  END
> <s_m_source_file>
AV-unprocessed.smi

> <i_m_source_file_index>
3202

> <i_lp_mmshare_version>
43012

> <i_f3d_flags>
0

> <s_epik_input>
W0NIM11jMVtjSF1jKG5bbkhdMSlbQ0gyXVtDQEhdKFtDSDNdKVtOSF1bQ0BASF0oQzIoW0NIM10pW0NIM10pW0NIMl1bQ0gyXVtDSDJdMg==

> <s_epik_cmdline>
J2VwaWtfcHl0aG9uJywgJy1waCcsICc3LjAnLCAnLXRuJywgJzgnLCAnLW1hJywgJzIwMCcsICctbWV0YWxfYmluZGluZycsICctaW1hZScsICc8aW5maWxlLm1hZT4nLCAnLW9tYWUnLCAnPG91dGZpbGUubWFlPic=

> <r_lp_tautomer_probability>
0.5

> <r_epik_Ionization_Penalty>
0.000449684

> <r_epik_Ionization_Penalty_Charging>
0.000404963

> <r_epik_Ionization_Penalty_Neutral>
4.47208e-05

> <r_epik_State_Penalty>
0.41068

> <r_epik_Charging_Adjusted_Penalty>
0.411085

> <i_epik_Tot_Q>
1

> <i_epik_Tot_abs_Q>
1

> <r_epik_Metal_State_Penalty>
0.410687

> <b_epik_Metal_Only>
0

> <s_lp_Force_Field>
OPLS_2005

> <r_lp_Energy>
32.0397

> <b_lp_Chiralities_Consistent>
1

> <s_lp_Variant>
AV-unprocessed.smi:3202-7

> <Gold.Version>
5.8.1

> <Gold.Id.Protein>
6NUR|6NUR_protein|mol2

> <Gold.PLP.Fitness>
42.5310

> <Gold.PLP.PLP>
-32.0231

> <Gold.PLP.part.hbond>
-4.0000

> <Gold.PLP.part.metal>
0.0000

> <Gold.PLP.part.buried>
-2.6949

> <Gold.PLP.part.nonpolar>
-27.8539

> <Gold.PLP.part.repulsive>
1.4238

> <Gold.PLP.ligand.clash>
0.0000

> <Gold.PLP.ligand.torsion>
0.2515

> <Gold.PLP.Chemscore.Hbond>
3.6640

> <Gold.PLP.Chemscore.CHOScore>
0.0000

> <Gold.PLP.Chemscore.Metal>
0.0000

> <Gold.Chemscore.Hbonds>
donor molecule, donor type, donor heavy atom, donor atom, acceptor molecule, acceptor atom, score
      L1  H     8    29       P1 10175  2.00
      L1  H     8    43       P1 10171  0.93
      P1  H  7989  7998       L1    17  0.78

> <Gold.PLP.Chemscore.Internal.Correction>
0.0190

> <Gold.Rescore>
     Score         DG    S(hbond)    S(metal)    S(lipo)     H(rot)  DE(clash)    DE(int)     intcor
     17.61     -19.33       2.78        0.00      70.94       1.46       1.33       0.38       ----

> <Gold.Chemscore.Fitness>
17.6128

> <Gold.Chemscore.DG>
-19.3289

> <Gold.Chemscore.ZeroCoef>
-5.4800

> <Gold.Chemscore.Hbond>
2.7802

> <Gold.Chemscore.Metal>
0.0000

> <Gold.Chemscore.Lipo>
70.9354

> <Gold.Chemscore.Internal_Hbond>
0.0000

> <Gold.Chemscore.DEClash>
1.3311

> <Gold.Chemscore.DEInternal>
0.3850

> <Gold.Chemscore.Rot>
1.4596

> <Gold.Chemscore.Internal.Correction>
   9.000000E+99

> <Gold.Chemscore.Hbonds>
donor molecule, donor type, donor heavy atom, donor atom, acceptor molecule, acceptor atom, score
      L1  H     8    29       P1 10175  0.95
      L1  H     8    43       P1 10171  0.88
      P1  H  7989  7998       L1    17  0.69

> <Gold.Chemscore.Hbond.Weighted>
-9.2859

> <Gold.Chemscore.Metal.Weighted>
-0.0000

> <Gold.Chemscore.Lipo.Weighted>
-8.2994

> <Gold.Chemscore.Internal_Hbond.Weighted>
0.0000

> <Gold.Chemscore.DEClash.Weighted>
1.3311

> <Gold.Chemscore.DEInternal.Weighted>
0.3850

> <Gold.Chemscore.Rot.Weighted>
3.7365

> <Gold.Chemscore.Internal.Correction.Weighted>
   9.000000E+99

> <Gold.Protein.RotatedTorsions>
[ 6907 6896 6895 6894 ] final -120.41 input  -60.11 | X-H torsion
[ 7974 7965 7964 7962 ] final   23.23 input  175.53 | X-H torsion
[ 8008 7997 7996 7995 ] final  157.07 input   59.86 | X-H torsion
[ 10167 10162 10161 10158 ] final -139.93 input  -65.29 | X-H torsion
[ 10718 10713 10712 10709 ] final   24.37 input   66.30 | X-H torsion
[ 10763 10752 10751 10750 ] final   18.04 input  -60.55 | X-H torsion
[ 11005 11000 10999 10996 ] final   95.12 input  -57.11 | X-H torsion

> <Gold.Protein.ActiveResidues>
 VAL166  LYS551  ARG553  GLY616  TRP617  ASP618  TYR619  PRO620  LYS621  CYS622 
 ASP623  PHE694  ASN695  SER759  ASP760  ASP761  ALA762  ILE779  LEU786  VAL792 
 PHE793  MET794  SER795  GLU796  ALA797  LYS798  CYS799  TRP800  GLU811  SER814 

> <Gold.Protein.RotatedAtoms>
  150.8391  133.7966  159.3067 H   0  0  0  0  0  0  0  0  0  0  0  0  # atno 6907 bound_to 6896
  151.5673  135.1062  159.9996 H   0  0  0  0  0  0  0  0  0  0  0  0  # atno 6908 bound_to 6896
  152.4458  133.7491  159.6740 H   0  0  0  0  0  0  0  0  0  0  0  0  # atno 6909 bound_to 6896
  146.1994  139.7774  142.8773 H   0  0  0  0  0  0  0  0  0  0  0  0  # atno 7974 bound_to 7965
  156.2385  140.1895  156.7053 H   0  0  0  0  0  0  0  0  0  0  0  0  # atno 8008 bound_to 7997
  154.6152  140.0616  156.9572 H   0  0  0  0  0  0  0  0  0  0  0  0  # atno 8009 bound_to 7997
  155.1951  140.3287  155.4355 H   0  0  0  0  0  0  0  0  0  0  0  0  # atno 8010 bound_to 7997
  139.8331  143.7420  152.2665 H   0  0  0  0  0  0  0  0  0  0  0  0  # atno 10167 bound_to 10162
  157.1789  130.6793  149.6105 H   0  0  0  0  0  0  0  0  0  0  0  0  # atno 10718 bound_to 10713
  153.1285  135.6735  153.9218 H   0  0  0  0  0  0  0  0  0  0  0  0  # atno 10763 bound_to 10752
  153.8711  135.3069  155.3443 H   0  0  0  0  0  0  0  0  0  0  0  0  # atno 10764 bound_to 10752
  154.7686  135.4951  153.9684 H   0  0  0  0  0  0  0  0  0  0  0  0  # atno 10765 bound_to 10752
  139.8792  134.8882  156.3964 H   0  0  0  0  0  0  0  0  0  0  0  0  # atno 11005 bound_to 11000
  145.3536  141.0312  143.3324 LP  0  0  0  0  0  0  0  0  0  0  0  0  # atno 17320 bound_to 7965
  144.8649  139.5122  143.6795 LP  0  0  0  0  0  0  0  0  0  0  0  0  # atno 17321 bound_to 7965
  139.7634  144.7499  151.0330 LP  0  0  0  0  0  0  0  0  0  0  0  0  # atno 17342 bound_to 10162
  140.7805  143.4725  151.0126 LP  0  0  0  0  0  0  0  0  0  0  0  0  # atno 17343 bound_to 10162
  155.9727  130.4653  150.6250 LP  0  0  0  0  0  0  0  0  0  0  0  0  # atno 17370 bound_to 10713
  157.3972  131.0804  151.1341 LP  0  0  0  0  0  0  0  0  0  0  0  0  # atno 17371 bound_to 10713
  140.9297  133.7587  156.0010 LP  0  0  0  0  0  0  0  0  0  0  0  0  # atno 17394 bound_to 11000
  140.8344  134.3140  157.5337 LP  0  0  0  0  0  0  0  0  0  0  0  0  # atno 17395 bound_to 11000

$$$$
