AV-unprocessed.smi:712|AV-procd|sdf|3472|dock3
  -GOLD-   22720 0463D 1   1.00000     0.00000
 Structure written by MMmdl.
 50 51  0  0  0  0  0  0  0  0  1 V2000
  152.2645  143.6130  160.9235 C   0  0  0  0  0  0  0  0  0  0  0  0
  152.3068  142.4720  159.9282 C   0  0  0  0  0  0  0  0  0  0  0  0
  151.2421  142.2977  158.9632 C   0  0  0  0  0  0  0  0  0  0  0  0
  151.2951  141.2628  158.1113 C   0  0  0  0  0  0  0  0  0  0  0  0
  152.3613  140.3451  158.1200 N   0  0  0  0  0  0  0  0  0  0  0  0
  152.2788  139.2280  157.1610 C   0  0  0  0  0  0  0  0  0  0  0  0
  151.4940  139.5564  155.8787 C   0  0  0  0  0  0  0  0  0  0  0  0
  151.8801  140.4739  155.1558 O   0  0  0  0  0  0  0  0  0  0  0  0
  150.3863  138.8418  155.6215 N   0  0  0  0  0  0  0  0  0  0  0  0
  149.4306  139.0993  154.5517 C   0  0  0  0  0  0  0  0  0  0  0  0
  148.6588  140.4054  154.8071 C   0  0  2  0  0  0  0  0  0  0  0  0
  147.9151  140.4076  156.1616 C   0  0  0  0  0  0  0  0  0  0  0  0
  147.1311  141.6237  156.3569 N   0  0  0  0  0  0  0  0  0  0  0  0
  146.4073  141.6347  157.6296 C   0  0  0  0  0  0  0  0  0  0  0  0
  145.7996  142.9912  158.0492 C   0  0  0  0  0  0  0  0  0  0  0  0
  145.4385  142.9818  159.5411 C   0  0  0  0  0  0  0  0  0  0  0  0
  144.5721  143.3591  157.1996 C   0  0  0  0  0  0  0  0  0  0  0  0
  146.2152  141.7808  155.2330 C   0  0  0  0  0  0  0  0  0  0  0  0
  146.9542  141.7771  153.8842 C   0  0  0  0  0  0  0  0  0  0  0  0
  147.7103  140.5772  153.7578 O   0  0  0  0  0  0  0  0  0  0  0  0
  153.4074  140.4637  158.9925 C   0  0  0  0  0  0  0  0  0  0  0  0
  154.3418  139.6625  159.0078 O   0  0  0  0  0  0  0  0  0  0  0  0
  153.3344  141.5941  159.9261 C   0  0  0  0  0  0  0  0  0  0  0  0
  151.2517  144.0036  161.0262 H   0  0  0  0  0  0  0  0  0  0  0  0
  152.9139  144.4245  160.5952 H   0  0  0  0  0  0  0  0  0  0  0  0
  152.5980  143.2796  161.9067 H   0  0  0  0  0  0  0  0  0  0  0  0
  150.4098  142.9852  158.9324 H   0  0  0  0  0  0  0  0  0  0  0  0
  150.5273  141.0681  157.3762 H   0  0  0  0  0  0  0  0  0  0  0  0
  153.2849  138.9137  156.8788 H   0  0  0  0  0  0  0  0  0  0  0  0
  151.8291  138.3475  157.6223 H   0  0  0  0  0  0  0  0  0  0  0  0
  150.1528  138.0962  156.2609 H   0  0  0  0  0  0  0  0  0  0  0  0
  149.9308  139.1349  153.5826 H   0  0  0  0  0  0  0  0  0  0  0  0
  148.7361  138.2600  154.5095 H   0  0  0  0  0  0  0  0  0  0  0  0
  149.3624  141.2399  154.7798 H   0  0  0  0  0  0  0  0  0  0  0  0
  147.2643  139.5340  156.2217 H   0  0  0  0  0  0  0  0  0  0  0  0
  148.6474  140.3083  156.9614 H   0  0  0  0  0  0  0  0  0  0  0  0
  145.5949  140.9085  157.5773 H   0  0  0  0  0  0  0  0  0  0  0  0
  147.0692  141.2799  158.4210 H   0  0  0  0  0  0  0  0  0  0  0  0
  146.5480  143.7716  157.9203 H   0  0  0  0  0  0  0  0  0  0  0  0
  144.6886  142.2218  159.7632 H   0  0  0  0  0  0  0  0  0  0  0  0
  145.0377  143.9463  159.8547 H   0  0  0  0  0  0  0  0  0  0  0  0
  146.3149  142.7757  160.1563 H   0  0  0  0  0  0  0  0  0  0  0  0
  143.7951  142.5981  157.2758 H   0  0  0  0  0  0  0  0  0  0  0  0
  144.8354  143.4633  156.1467 H   0  0  0  0  0  0  0  0  0  0  0  0
  144.1414  144.3078  157.5208 H   0  0  0  0  0  0  0  0  0  0  0  0
  145.4782  140.9760  155.2413 H   0  0  0  0  0  0  0  0  0  0  0  0
  145.6593  142.7134  155.3357 H   0  0  0  0  0  0  0  0  0  0  0  0
  146.2416  141.8376  153.0615 H   0  0  0  0  0  0  0  0  0  0  0  0
  147.6136  142.6425  153.8018 H   0  0  0  0  0  0  0  0  0  0  0  0
  154.1326  141.7181  160.6437 H   0  0  0  0  0  0  0  0  0  0  0  0
  1  2  1  0  0  0  0
  1 24  1  0  0  0  0
  1 25  1  0  0  0  0
  1 26  1  0  0  0  0
  2 23  2  0  0  0  0
  2  3  1  0  0  0  0
  3  4  2  0  0  0  0
  3 27  1  0  0  0  0
  4  5  1  0  0  0  0
  4 28  1  0  0  0  0
  5  6  1  0  0  0  0
  5 21  1  0  0  0  0
  6  7  1  0  0  0  0
  6 29  1  0  0  0  0
  6 30  1  0  0  0  0
  7  8  2  0  0  0  0
  7  9  1  0  0  0  0
  9 10  1  0  0  0  0
  9 31  1  0  0  0  0
 10 11  1  0  0  0  0
 10 32  1  0  0  0  0
 10 33  1  0  0  0  0
 11 20  1  0  0  0  0
 11 12  1  0  0  0  0
 11 34  1  0  0  0  0
 12 13  1  0  0  0  0
 12 35  1  0  0  0  0
 12 36  1  0  0  0  0
 13 14  1  0  0  0  0
 13 18  1  0  0  0  0
 14 15  1  0  0  0  0
 14 37  1  0  0  0  0
 14 38  1  0  0  0  0
 15 16  1  0  0  0  0
 15 17  1  0  0  0  0
 15 39  1  0  0  0  0
 16 40  1  0  0  0  0
 16 41  1  0  0  0  0
 16 42  1  0  0  0  0
 17 43  1  0  0  0  0
 17 44  1  0  0  0  0
 17 45  1  0  0  0  0
 18 19  1  0  0  0  0
 18 46  1  0  0  0  0
 18 47  1  0  0  0  0
 19 20  1  0  0  0  0
 19 48  1  0  0  0  0
 19 49  1  0  0  0  0
 21 22  2  0  0  0  0
 21 23  1  0  0  0  0
 23 50  1  0  0  0  0
M  END
> <s_m_source_file>
AV-unprocessed.smi

> <i_m_source_file_index>
712

> <i_lp_mmshare_version>
43012

> <i_f3d_flags>
0

> <s_epik_input>
W0NIM11jMVtjSF1bY0hdbihjKD1PKVtjSF0xKVtDSDJdQyg9TylbTkhdW0NIMl1bQ0BASF0yW0NIMl1OKFtDSDJdW0NIMl1PMilbQ0gyXVtDSF0oW0NIM10pW0NIM10=

> <s_epik_cmdline>
J2VwaWtfcHl0aG9uJywgJy1waCcsICc3LjAnLCAnLXRuJywgJzgnLCAnLW1hJywgJzIwMCcsICctbWV0YWxfYmluZGluZycsICctaW1hZScsICc8aW5maWxlLm1hZT4nLCAnLW9tYWUnLCAnPG91dGZpbGUubWFlPic=

> <r_lp_tautomer_probability>
1

> <r_epik_Ionization_Penalty>
1.11669

> <r_epik_Ionization_Penalty_Charging>
4.93496e-07

> <r_epik_Ionization_Penalty_Neutral>
1.11669

> <r_epik_State_Penalty>
1.17516

> <r_epik_Charging_Adjusted_Penalty>
1.17516

> <i_epik_Tot_Q>
0

> <i_epik_Tot_abs_Q>
0

> <r_epik_Metal_State_Penalty>
1.17513

> <b_epik_Metal_Only>
0

> <s_lp_Force_Field>
OPLS_2005

> <r_lp_Energy>
32.9939

> <b_lp_Chiralities_Consistent>
1

> <s_lp_Variant>
AV-unprocessed.smi:712-5

> <Gold.Version>
5.8.1

> <Gold.Id.Protein>
6NUR|6NUR_protein|mol2

> <Gold.PLP.Fitness>
40.6012

> <Gold.PLP.PLP>
-36.2709

> <Gold.PLP.part.hbond>
-1.8751

> <Gold.PLP.part.metal>
0.0000

> <Gold.PLP.part.buried>
-3.9573

> <Gold.PLP.part.nonpolar>
-29.8915

> <Gold.PLP.part.repulsive>
0.3782

> <Gold.PLP.ligand.clash>
0.0000

> <Gold.PLP.ligand.torsion>
0.5778

> <Gold.PLP.Chemscore.Hbond>
1.7840

> <Gold.PLP.Chemscore.CHOScore>
0.0000

> <Gold.PLP.Chemscore.Metal>
0.0000

> <Gold.Chemscore.Hbonds>
donor molecule, donor type, donor heavy atom, donor atom, acceptor molecule, acceptor atom, score
      P1  H  7989  7998       L1     8  0.72
      P1  H  7997  8010       L1    22  1.00

> <Gold.PLP.Chemscore.Internal.Correction>
0.1339

> <Gold.Rescore>
     Score         DG    S(hbond)    S(metal)    S(lipo)     H(rot)  DE(clash)    DE(int)     intcor
     14.71     -15.51       1.61        0.00      79.79       1.82       0.06       0.74       ----

> <Gold.Chemscore.Fitness>
14.7099

> <Gold.Chemscore.DG>
-15.5130

> <Gold.Chemscore.ZeroCoef>
-5.4800

> <Gold.Chemscore.Hbond>
1.6073

> <Gold.Chemscore.Metal>
0.0000

> <Gold.Chemscore.Lipo>
79.7853

> <Gold.Chemscore.Internal_Hbond>
0.0000

> <Gold.Chemscore.DEClash>
0.0582

> <Gold.Chemscore.DEInternal>
0.7448

> <Gold.Chemscore.Rot>
1.8243

> <Gold.Chemscore.Internal.Correction>
   9.000000E+99

> <Gold.Chemscore.Hbonds>
donor molecule, donor type, donor heavy atom, donor atom, acceptor molecule, acceptor atom, score
      P1  H  7989  7998       L1     8  0.72
      P1  H  7997  8010       L1    22  0.30

> <Gold.Chemscore.Hbond.Weighted>
-5.3684

> <Gold.Chemscore.Metal.Weighted>
-0.0000

> <Gold.Chemscore.Lipo.Weighted>
-9.3349

> <Gold.Chemscore.Internal_Hbond.Weighted>
0.0000

> <Gold.Chemscore.DEClash.Weighted>
0.0582

> <Gold.Chemscore.DEInternal.Weighted>
0.7448

> <Gold.Chemscore.Rot.Weighted>
4.6703

> <Gold.Chemscore.Internal.Correction.Weighted>
   9.000000E+99

> <Gold.Protein.RotatedTorsions>
[ 6907 6896 6895 6894 ] final  -31.02 input  -60.11 | X-H torsion
[ 7974 7965 7964 7962 ] final -107.57 input  175.53 | X-H torsion
[ 8008 7997 7996 7995 ] final   -3.38 input   59.86 | X-H torsion
[ 10167 10162 10161 10158 ] final   12.46 input  -65.29 | X-H torsion
[ 10718 10713 10712 10709 ] final   88.84 input   66.30 | X-H torsion
[ 10763 10752 10751 10750 ] final   77.67 input  -60.55 | X-H torsion
[ 11005 11000 10999 10996 ] final  147.80 input  -57.11 | X-H torsion

> <Gold.Protein.ActiveResidues>
 VAL166  LYS551  ARG553  GLY616  TRP617  ASP618  TYR619  PRO620  LYS621  CYS622 
 ASP623  PHE694  ASN695  SER759  ASP760  ASP761  ALA762  ILE779  LEU786  VAL792 
 PHE793  MET794  SER795  GLU796  ALA797  LYS798  CYS799  TRP800  GLU811  SER814 

> <Gold.Protein.RotatedAtoms>
  151.0977  134.9954  159.8433 H   0  0  0  0  0  0  0  0  0  0  0  0  # atno 6907 bound_to 6896
  152.5434  134.1988  159.8713 H   0  0  0  0  0  0  0  0  0  0  0  0  # atno 6908 bound_to 6896
  151.2028  133.4556  159.2630 H   0  0  0  0  0  0  0  0  0  0  0  0  # atno 6909 bound_to 6896
  145.2037  140.9067  143.3354 H   0  0  0  0  0  0  0  0  0  0  0  0  # atno 7974 bound_to 7965
  154.6255  140.2511  155.7496 H   0  0  0  0  0  0  0  0  0  0  0  0  # atno 8008 bound_to 7997
  156.2451  140.2917  156.0503 H   0  0  0  0  0  0  0  0  0  0  0  0  # atno 8009 bound_to 7997
  155.1828  140.0389  157.2875 H   0  0  0  0  0  0  0  0  0  0  0  0  # atno 8010 bound_to 7997
  140.6067  143.8494  150.7021 H   0  0  0  0  0  0  0  0  0  0  0  0  # atno 10167 bound_to 10162
  157.6952  131.0310  150.3335 H   0  0  0  0  0  0  0  0  0  0  0  0  # atno 10718 bound_to 10713
  153.0816  135.4905  154.8515 H   0  0  0  0  0  0  0  0  0  0  0  0  # atno 10763 bound_to 10752
  154.7158  135.3029  154.9128 H   0  0  0  0  0  0  0  0  0  0  0  0  # atno 10764 bound_to 10752
  153.9807  135.6790  153.4803 H   0  0  0  0  0  0  0  0  0  0  0  0  # atno 10765 bound_to 10752
  140.0906  134.9043  157.1645 H   0  0  0  0  0  0  0  0  0  0  0  0  # atno 11005 bound_to 11000
  144.9923  139.3678  143.6209 LP  0  0  0  0  0  0  0  0  0  0  0  0  # atno 17320 bound_to 7965
  146.3412  139.9110  142.8780 LP  0  0  0  0  0  0  0  0  0  0  0  0  # atno 17321 bound_to 7965
  140.2052  143.3927  152.1761 LP  0  0  0  0  0  0  0  0  0  0  0  0  # atno 17342 bound_to 10162
  139.5330  144.7180  151.4990 LP  0  0  0  0  0  0  0  0  0  0  0  0  # atno 17343 bound_to 10162
  156.3805  130.3879  149.7105 LP  0  0  0  0  0  0  0  0  0  0  0  0  # atno 17370 bound_to 10713
  156.4489  130.7897  151.2918 LP  0  0  0  0  0  0  0  0  0  0  0  0  # atno 17371 bound_to 10713
  140.3357  134.2760  155.7220 LP  0  0  0  0  0  0  0  0  0  0  0  0  # atno 17394 bound_to 11000
  141.2077  133.7799  157.0105 LP  0  0  0  0  0  0  0  0  0  0  0  0  # atno 17395 bound_to 11000

$$$$
