AV-unprocessed.smi:3156|AV-procd|sdf|12030|dock1
  -GOLD-   2272017443D 1   1.00000     0.00000
 Structure written by MMmdl.
 41 42  0  0  0  0  0  0  0  0  2 V2000
  146.8367  138.8815  151.3528 C   0  0  0  0  0  0  0  0  0  0  0  0
  146.3441  138.1577  152.6191 C   0  0  1  0  0  0  0  0  0  0  0  0
  146.3878  136.6980  152.3796 N   0  3  0  0  0  0  0  0  0  0  0  0
  145.6023  136.2339  151.2175 C   0  0  0  0  0  0  0  0  0  0  0  0
  145.2786  134.7387  151.3358 C   0  0  2  0  0  0  0  0  0  0  0  0
  146.5538  133.8740  151.3731 C   0  0  0  0  0  0  0  0  0  0  0  0
  146.1935  132.3842  151.3894 C   0  0  0  0  0  0  0  0  0  0  0  0
  145.2565  132.0682  150.2189 C   0  0  0  0  0  0  0  0  0  0  0  0
  144.0508  133.0206  150.2287 C   0  0  0  0  0  0  0  0  0  0  0  0
  144.5008  134.3718  150.1978 O   0  0  0  0  0  0  0  0  0  0  0  0
  147.1613  138.5208  153.8873 C   0  0  2  0  0  0  0  0  0  0  0  0
  146.7427  137.7113  155.1286 C   0  0  0  0  0  0  0  0  0  0  0  0
  147.0952  139.9468  154.1817 N   0  0  0  0  0  0  0  0  0  0  0  0
  147.4469  141.0129  153.3771 C   0  0  0  0  0  0  0  0  0  0  0  0
  147.2230  142.1547  154.0912 C   0  0  0  0  0  0  0  0  0  0  0  0
  146.7325  141.6815  155.3399 C   0  0  0  0  0  0  0  0  0  0  0  0
  146.6583  140.3614  155.3912 N   0  0  0  0  0  0  0  0  0  0  0  0
  146.7223  139.9626  151.4319 H   0  0  0  0  0  0  0  0  0  0  0  0
  146.2699  138.5658  150.4761 H   0  0  0  0  0  0  0  0  0  0  0  0
  147.8895  138.6711  151.1610 H   0  0  0  0  0  0  0  0  0  0  0  0
  145.3077  138.4631  152.7756 H   0  0  0  0  0  0  0  0  0  0  0  0
  147.3504  136.4275  152.2364 H   0  0  0  0  0  0  0  0  0  0  0  0
  144.6801  136.8105  151.1331 H   0  0  0  0  0  0  0  0  0  0  0  0
  146.1818  136.4206  150.3123 H   0  0  0  0  0  0  0  0  0  0  0  0
  144.6990  134.5683  152.2452 H   0  0  0  0  0  0  0  0  0  0  0  0
  147.1718  134.0892  150.5003 H   0  0  0  0  0  0  0  0  0  0  0  0
  147.1543  134.1206  152.2493 H   0  0  0  0  0  0  0  0  0  0  0  0
  147.0943  131.7726  151.3323 H   0  0  0  0  0  0  0  0  0  0  0  0
  145.7034  132.1342  152.3314 H   0  0  0  0  0  0  0  0  0  0  0  0
  145.7967  132.1754  149.2775 H   0  0  0  0  0  0  0  0  0  0  0  0
  144.9218  131.0319  150.2712 H   0  0  0  0  0  0  0  0  0  0  0  0
  143.4232  132.8388  149.3562 H   0  0  0  0  0  0  0  0  0  0  0  0
  143.4285  132.8534  151.1092 H   0  0  0  0  0  0  0  0  0  0  0  0
  148.2078  138.2814  153.6864 H   0  0  0  0  0  0  0  0  0  0  0  0
  146.9216  136.6452  154.9897 H   0  0  0  0  0  0  0  0  0  0  0  0
  145.6848  137.8443  155.3568 H   0  0  0  0  0  0  0  0  0  0  0  0
  147.3128  138.0191  156.0058 H   0  0  0  0  0  0  0  0  0  0  0  0
  147.8245  140.8728  152.3748 H   0  0  0  0  0  0  0  0  0  0  0  0
  147.3864  143.1733  153.7715 H   0  0  0  0  0  0  0  0  0  0  0  0
  146.4318  142.2540  156.2050 H   0  0  0  0  0  0  0  0  0  0  0  0
  146.0459  136.2305  153.2077 H   0  0  0  0  0  0  0  0  0  0  0  0
  1  2  1  0  0  0  0
  1 18  1  0  0  0  0
  1 19  1  0  0  0  0
  1 20  1  0  0  0  0
  2  3  1  0  0  0  0
  2 11  1  0  0  0  0
  2 21  1  0  0  0  0
  3  4  1  0  0  0  0
  3 22  1  0  0  0  0
  3 41  1  0  0  0  0
  4  5  1  0  0  0  0
  4 23  1  0  0  0  0
  4 24  1  0  0  0  0
  5 10  1  0  0  0  0
  5  6  1  0  0  0  0
  5 25  1  0  0  0  0
  6  7  1  0  0  0  0
  6 26  1  0  0  0  0
  6 27  1  0  0  0  0
  7  8  1  0  0  0  0
  7 28  1  0  0  0  0
  7 29  1  0  0  0  0
  8  9  1  0  0  0  0
  8 30  1  0  0  0  0
  8 31  1  0  0  0  0
  9 10  1  0  0  0  0
  9 32  1  0  0  0  0
  9 33  1  0  0  0  0
 11 12  1  0  0  0  0
 11 13  1  0  0  0  0
 11 34  1  0  0  0  0
 12 35  1  0  0  0  0
 12 36  1  0  0  0  0
 12 37  1  0  0  0  0
 13 17  1  0  0  0  0
 13 14  1  0  0  0  0
 14 15  2  0  0  0  0
 14 38  1  0  0  0  0
 15 16  1  0  0  0  0
 15 39  1  0  0  0  0
 16 17  2  0  0  0  0
 16 40  1  0  0  0  0
M  CHG  1   3   1
M  END
> <s_m_source_file>
AV-unprocessed.smi

> <i_m_source_file_index>
3156

> <i_lp_mmshare_version>
43012

> <i_f3d_flags>
0

> <s_epik_input>
bjFbY0hdW2NIXVtjSF1uMVtDQEBIXShbQ0gzXSlbQ0BIXShbQ0gzXSlbTkhdW0NIMl1bQ0BASF0yW0NIMl1bQ0gyXVtDSDJdW0NIMl1PMg==

> <s_epik_cmdline>
J2VwaWtfcHl0aG9uJywgJy1waCcsICc3LjAnLCAnLXRuJywgJzgnLCAnLW1hJywgJzIwMCcsICctbWV0YWxfYmluZGluZycsICctaW1hZScsICc8aW5maWxlLm1hZT4nLCAnLW9tYWUnLCAnPG91dGZpbGUubWFlPic=

> <r_lp_tautomer_probability>
1

> <r_epik_Ionization_Penalty>
0.00658015

> <r_epik_Ionization_Penalty_Charging>
0.00656881

> <r_epik_Ionization_Penalty_Neutral>
1.13431e-05

> <r_epik_State_Penalty>
0.0048654

> <r_epik_Charging_Adjusted_Penalty>
0.0114342

> <i_epik_Tot_Q>
1

> <i_epik_Tot_abs_Q>
1

> <r_epik_Metal_State_Penalty>
-0

> <b_epik_Metal_Only>
0

> <s_lp_Force_Field>
OPLS_2005

> <r_lp_Energy>
19.2927

> <b_lp_Chiralities_Consistent>
1

> <s_lp_Variant>
AV-unprocessed.smi:3156-2

> <Gold.Version>
5.8.1

> <Gold.Id.Protein>
6NUR|6NUR_protein|mol2

> <Gold.PLP.Fitness>
41.6066

> <Gold.PLP.PLP>
-32.7680

> <Gold.PLP.part.hbond>
-1.0000

> <Gold.PLP.part.metal>
0.0000

> <Gold.PLP.part.buried>
-3.2066

> <Gold.PLP.part.nonpolar>
-29.5521

> <Gold.PLP.part.repulsive>
0.8968

> <Gold.PLP.ligand.clash>
0.0000

> <Gold.PLP.ligand.torsion>
0.1437

> <Gold.PLP.Chemscore.Hbond>
2.0000

> <Gold.PLP.Chemscore.CHOScore>
1.0000

> <Gold.PLP.Chemscore.Metal>
0.0000

> <Gold.Chemscore.Hbonds>
donor molecule, donor type, donor heavy atom, donor atom, acceptor molecule, acceptor atom, score
      L1  H     3    22       P1  7948  2.00
      L1  C    14    38       P1  7957  1.00

> <Gold.PLP.Chemscore.Internal.Correction>
0.1261

> <Gold.Rescore>
     Score         DG    S(hbond)    S(metal)    S(lipo)     H(rot)  DE(clash)    DE(int)     intcor
     14.60     -14.96       0.99        0.00      87.59       1.59       0.11       0.25       ----

> <Gold.Chemscore.Fitness>
14.5968

> <Gold.Chemscore.DG>
-14.9604

> <Gold.Chemscore.ZeroCoef>
-5.4800

> <Gold.Chemscore.Hbond>
0.9918

> <Gold.Chemscore.Metal>
0.0000

> <Gold.Chemscore.Lipo>
87.5907

> <Gold.Chemscore.Internal_Hbond>
0.0000

> <Gold.Chemscore.DEClash>
0.1136

> <Gold.Chemscore.DEInternal>
0.2500

> <Gold.Chemscore.Rot>
1.5938

> <Gold.Chemscore.Internal.Correction>
   9.000000E+99

> <Gold.Chemscore.Hbonds>
donor molecule, donor type, donor heavy atom, donor atom, acceptor molecule, acceptor atom, score
      L1  H     3    22       P1  7948  1.00

> <Gold.Chemscore.Hbond.Weighted>
-3.3125

> <Gold.Chemscore.Metal.Weighted>
-0.0000

> <Gold.Chemscore.Lipo.Weighted>
-10.2481

> <Gold.Chemscore.Internal_Hbond.Weighted>
0.0000

> <Gold.Chemscore.DEClash.Weighted>
0.1136

> <Gold.Chemscore.DEInternal.Weighted>
0.2500

> <Gold.Chemscore.Rot.Weighted>
4.0802

> <Gold.Chemscore.Internal.Correction.Weighted>
   9.000000E+99

> <Gold.Protein.RotatedTorsions>
[ 6907 6896 6895 6894 ] final  111.67 input  -60.11 | X-H torsion
[ 7974 7965 7964 7962 ] final  102.12 input  175.53 | X-H torsion
[ 8008 7997 7996 7995 ] final   67.20 input   59.86 | X-H torsion
[ 10167 10162 10161 10158 ] final   10.56 input  -65.29 | X-H torsion
[ 10718 10713 10712 10709 ] final  126.64 input   66.30 | X-H torsion
[ 10763 10752 10751 10750 ] final  -48.73 input  -60.55 | X-H torsion
[ 11005 11000 10999 10996 ] final    0.33 input  -57.11 | X-H torsion

> <Gold.Protein.ActiveResidues>
 VAL166  LYS551  ARG553  GLY616  TRP617  ASP618  TYR619  PRO620  LYS621  CYS622 
 ASP623  PHE694  ASN695  SER759  ASP760  ASP761  ALA762  ILE779  LEU786  VAL792 
 PHE793  MET794  SER795  GLU796  ALA797  LYS798  CYS799  TRP800  GLU811  SER814 

> <Gold.Protein.RotatedAtoms>
  152.4957  133.8624  159.7256 H   0  0  0  0  0  0  0  0  0  0  0  0  # atno 6907 bound_to 6896
  150.9132  133.6962  159.2856 H   0  0  0  0  0  0  0  0  0  0  0  0  # atno 6908 bound_to 6896
  151.4365  135.1020  159.9710 H   0  0  0  0  0  0  0  0  0  0  0  0  # atno 6909 bound_to 6896
  145.3633  139.2413  143.3495 H   0  0  0  0  0  0  0  0  0  0  0  0  # atno 7974 bound_to 7965
  155.6893  140.3496  155.4887 H   0  0  0  0  0  0  0  0  0  0  0  0  # atno 8008 bound_to 7997
  155.9538  140.1124  157.0976 H   0  0  0  0  0  0  0  0  0  0  0  0  # atno 8009 bound_to 7997
  154.4128  140.1189  156.5074 H   0  0  0  0  0  0  0  0  0  0  0  0  # atno 8010 bound_to 7997
  140.6187  143.8252  150.7149 H   0  0  0  0  0  0  0  0  0  0  0  0  # atno 10167 bound_to 10162
  157.5402  131.1097  150.8871 H   0  0  0  0  0  0  0  0  0  0  0  0  # atno 10718 bound_to 10713
  154.0825  135.6589  153.4840 H   0  0  0  0  0  0  0  0  0  0  0  0  # atno 10763 bound_to 10752
  153.0350  135.5183  154.7460 H   0  0  0  0  0  0  0  0  0  0  0  0  # atno 10764 bound_to 10752
  154.6559  135.3008  154.9896 H   0  0  0  0  0  0  0  0  0  0  0  0  # atno 10765 bound_to 10752
  140.6278  133.9603  155.8258 H   0  0  0  0  0  0  0  0  0  0  0  0  # atno 11005 bound_to 11000
  146.2918  140.4271  142.8737 LP  0  0  0  0  0  0  0  0  0  0  0  0  # atno 17320 bound_to 7965
  144.8630  140.7167  143.6095 LP  0  0  0  0  0  0  0  0  0  0  0  0  # atno 17321 bound_to 7965
  140.1837  143.4093  152.1914 LP  0  0  0  0  0  0  0  0  0  0  0  0  # atno 17342 bound_to 10162
  139.5420  144.7265  151.4704 LP  0  0  0  0  0  0  0  0  0  0  0  0  # atno 17343 bound_to 10162
  156.9426  130.5390  149.5280 LP  0  0  0  0  0  0  0  0  0  0  0  0  # atno 17370 bound_to 10713
  156.0490  130.5562  150.8947 LP  0  0  0  0  0  0  0  0  0  0  0  0  # atno 17371 bound_to 10713
  141.0697  134.0224  157.3544 LP  0  0  0  0  0  0  0  0  0  0  0  0  # atno 17394 bound_to 11000
  139.9128  135.0193  156.7761 LP  0  0  0  0  0  0  0  0  0  0  0  0  # atno 17395 bound_to 11000

$$$$
