AV-unprocessed.smi:1644|AV-procd|sdf|6589|dock6
  -GOLD-   22720 7283D 1   1.00000     0.00000
 Structure written by MMmdl.
 50 52  0  0  0  0  0  0  0  0  2 V2000
  147.2796  134.9646  162.5346 C   0  0  0  0  0  0  0  0  0  0  0  0
  147.4247  135.8860  161.3189 C   0  0  0  0  0  0  0  0  0  0  0  0
  146.8485  135.2562  160.0342 C   0  0  0  0  0  0  0  0  0  0  0  0
  147.3089  135.8964  158.7044 C   0  0  1  0  0  0  0  0  0  0  0  0
  146.7900  137.2347  158.5026 N   0  0  0  0  0  0  0  0  0  0  0  0
  147.7622  138.1409  158.3337 C   0  0  0  0  0  0  0  0  0  0  0  0
  147.5858  139.3403  158.1246 O   0  0  0  0  0  0  0  0  0  0  0  0
  148.9492  137.5129  158.4243 N   0  0  0  0  0  0  0  0  0  0  0  0
  150.2479  138.1786  158.2861 C   0  0  0  0  0  0  0  0  0  0  0  0
  150.6254  138.3907  156.8062 C   0  0  2  0  0  0  0  0  0  0  0  0
  151.0662  137.1608  156.2646 O   0  0  0  0  0  0  0  0  0  0  0  0
  151.7614  139.4199  156.6494 C   0  0  0  0  0  0  0  0  0  0  0  0
  151.2783  140.8055  156.6887 N   0  0  0  0  0  0  0  0  0  0  0  0
  150.4870  141.4846  155.8151 C   0  0  0  0  0  0  0  0  0  0  0  0
  150.3243  142.7453  156.3050 N   0  3  0  0  0  0  0  0  0  0  0  0
  151.0216  142.8709  157.5092 C   0  0  0  0  0  0  0  0  0  0  0  0
  151.1576  143.9481  158.3770 C   0  0  0  0  0  0  0  0  0  0  0  0
  151.9437  143.7487  159.5347 C   0  0  0  0  0  0  0  0  0  0  0  0
  152.1132  144.9058  160.5047 C   0  0  0  0  0  0  0  0  0  0  0  0
  152.5629  142.4975  159.7909 C   0  0  0  0  0  0  0  0  0  0  0  0
  153.4033  142.2925  161.0398 C   0  0  0  0  0  0  0  0  0  0  0  0
  152.4144  141.4149  158.8950 C   0  0  0  0  0  0  0  0  0  0  0  0
  151.6363  141.6294  157.7602 C   0  0  0  0  0  0  0  0  0  0  0  0
  148.7947  136.2000  158.6373 C   0  0  0  0  0  0  0  0  0  0  0  0
  149.6791  135.3526  158.7571 O   0  0  0  0  0  0  0  0  0  0  0  0
  147.6929  135.4323  163.4283 H   0  0  0  0  0  0  0  0  0  0  0  0
  147.8058  134.0223  162.3786 H   0  0  0  0  0  0  0  0  0  0  0  0
  146.2322  134.7357  162.7331 H   0  0  0  0  0  0  0  0  0  0  0  0
  146.9219  136.8301  161.5296 H   0  0  0  0  0  0  0  0  0  0  0  0
  148.4802  136.1226  161.1823 H   0  0  0  0  0  0  0  0  0  0  0  0
  147.0931  134.1933  160.0167 H   0  0  0  0  0  0  0  0  0  0  0  0
  145.7600  135.3053  160.0792 H   0  0  0  0  0  0  0  0  0  0  0  0
  147.0308  135.2662  157.8588 H   0  0  0  0  0  0  0  0  0  0  0  0
  145.8022  137.4429  158.4767 H   0  0  0  0  0  0  0  0  0  0  0  0
  150.1791  139.1450  158.7883 H   0  0  0  0  0  0  0  0  0  0  0  0
  151.0338  137.6395  158.8186 H   0  0  0  0  0  0  0  0  0  0  0  0
  149.7569  138.7296  156.2401 H   0  0  0  0  0  0  0  0  0  0  0  0
  150.3101  136.6663  155.9863 H   0  0  0  0  0  0  0  0  0  0  0  0
  152.5089  139.2998  157.4347 H   0  0  0  0  0  0  0  0  0  0  0  0
  152.2816  139.2754  155.7011 H   0  0  0  0  0  0  0  0  0  0  0  0
  150.0624  141.0926  154.9021 H   0  0  0  0  0  0  0  0  0  0  0  0
  150.6821  144.8972  158.1764 H   0  0  0  0  0  0  0  0  0  0  0  0
  153.1671  145.1624  160.6149 H   0  0  0  0  0  0  0  0  0  0  0  0
  151.7158  144.6437  161.4855 H   0  0  0  0  0  0  0  0  0  0  0  0
  151.5882  145.7970  160.1595 H   0  0  0  0  0  0  0  0  0  0  0  0
  153.8005  141.2782  161.0914 H   0  0  0  0  0  0  0  0  0  0  0  0
  152.8057  142.4616  161.9359 H   0  0  0  0  0  0  0  0  0  0  0  0
  154.2478  142.9820  161.0502 H   0  0  0  0  0  0  0  0  0  0  0  0
  152.8844  140.4617  159.0887 H   0  0  0  0  0  0  0  0  0  0  0  0
  149.7757  143.4636  155.8497 H   0  0  0  0  0  0  0  0  0  0  0  0
  1  2  1  0  0  0  0
  1 26  1  0  0  0  0
  1 27  1  0  0  0  0
  1 28  1  0  0  0  0
  2  3  1  0  0  0  0
  2 29  1  0  0  0  0
  2 30  1  0  0  0  0
  3  4  1  0  0  0  0
  3 31  1  0  0  0  0
  3 32  1  0  0  0  0
  4 24  1  0  0  0  0
  4  5  1  0  0  0  0
  4 33  1  0  0  0  0
  5  6  1  0  0  0  0
  5 34  1  0  0  0  0
  6  7  2  0  0  0  0
  6  8  1  0  0  0  0
  8  9  1  0  0  0  0
  8 24  1  0  0  0  0
  9 10  1  0  0  0  0
  9 35  1  0  0  0  0
  9 36  1  0  0  0  0
 10 11  1  0  0  0  0
 10 12  1  0  0  0  0
 10 37  1  0  0  0  0
 11 38  1  0  0  0  0
 12 13  1  0  0  0  0
 12 39  1  0  0  0  0
 12 40  1  0  0  0  0
 13 23  1  0  0  0  0
 13 14  1  0  0  0  0
 14 15  2  0  0  0  0
 14 41  1  0  0  0  0
 15 16  1  0  0  0  0
 15 50  1  0  0  0  0
 16 23  2  0  0  0  0
 16 17  1  0  0  0  0
 17 18  2  0  0  0  0
 17 42  1  0  0  0  0
 18 19  1  0  0  0  0
 18 20  1  0  0  0  0
 19 43  1  0  0  0  0
 19 44  1  0  0  0  0
 19 45  1  0  0  0  0
 20 21  1  0  0  0  0
 20 22  2  0  0  0  0
 21 46  1  0  0  0  0
 21 47  1  0  0  0  0
 21 48  1  0  0  0  0
 22 23  1  0  0  0  0
 22 49  1  0  0  0  0
 24 25  2  0  0  0  0
M  CHG  1  15   1
M  END
> <s_m_source_file>
AV-unprocessed.smi

> <i_m_source_file_index>
1644

> <i_lp_mmshare_version>
43012

> <i_f3d_flags>
0

> <s_epik_input>
W0NIM11bQ0gyXVtDSDJdW0NAQEhdMVtOSF1DKD1PKU4oQzE9TylbQ0gyXVtDQEhdKFtPSF0pW0NIMl1uKFtjSF1uMiljKGMyMylbY0hdYyhbQ0gzXSljKFtjSF0zKVtDSDNd

> <s_epik_cmdline>
J2VwaWtfcHl0aG9uJywgJy1waCcsICc3LjAnLCAnLXRuJywgJzgnLCAnLW1hJywgJzIwMCcsICctbWV0YWxfYmluZGluZycsICctaW1hZScsICc8aW5maWxlLm1hZT4nLCAnLW9tYWUnLCAnPG91dGZpbGUubWFlPic=

> <r_lp_tautomer_probability>
1

> <r_epik_Ionization_Penalty>
1.06742

> <r_epik_Ionization_Penalty_Charging>
1.06736

> <r_epik_Ionization_Penalty_Neutral>
5.56132e-05

> <r_epik_State_Penalty>
1.12163

> <r_epik_Charging_Adjusted_Penalty>
2.18899

> <i_epik_Tot_Q>
1

> <i_epik_Tot_abs_Q>
1

> <r_epik_Metal_State_Penalty>
1.26636

> <b_epik_Metal_Only>
0

> <s_lp_Force_Field>
OPLS_2005

> <r_lp_Energy>
29.5638

> <b_lp_Chiralities_Consistent>
1

> <s_lp_Variant>
AV-unprocessed.smi:1644-6

> <Gold.Version>
5.8.1

> <Gold.Id.Protein>
6NUR|6NUR_protein|mol2

> <Gold.PLP.Fitness>
53.6621

> <Gold.PLP.PLP>
-46.3105

> <Gold.PLP.part.hbond>
-2.7741

> <Gold.PLP.part.metal>
0.0000

> <Gold.PLP.part.buried>
-6.2355

> <Gold.PLP.part.nonpolar>
-38.2590

> <Gold.PLP.part.repulsive>
0.1835

> <Gold.PLP.ligand.clash>
0.0000

> <Gold.PLP.ligand.torsion>
0.8574

> <Gold.PLP.Chemscore.Hbond>
3.0000

> <Gold.PLP.Chemscore.CHOScore>
0.0000

> <Gold.PLP.Chemscore.Metal>
0.0000

> <Gold.Chemscore.Hbonds>
donor molecule, donor type, donor heavy atom, donor atom, acceptor molecule, acceptor atom, score
      L1  H    15    50       P1  8028  2.00
      P1  H  6896  6909       L1    25  1.00

> <Gold.PLP.Chemscore.Internal.Correction>
0.0664

> <Gold.Rescore>
     Score         DG    S(hbond)    S(metal)    S(lipo)     H(rot)  DE(clash)    DE(int)     intcor
     17.81     -18.67       1.94        0.00     118.63       2.80       0.05       0.82       ----

> <Gold.Chemscore.Fitness>
17.8059

> <Gold.Chemscore.DG>
-18.6747

> <Gold.Chemscore.ZeroCoef>
-5.4800

> <Gold.Chemscore.Hbond>
1.9382

> <Gold.Chemscore.Metal>
0.0000

> <Gold.Chemscore.Lipo>
118.6257

> <Gold.Chemscore.Internal_Hbond>
0.0000

> <Gold.Chemscore.DEClash>
0.0529

> <Gold.Chemscore.DEInternal>
0.8160

> <Gold.Chemscore.Rot>
2.7961

> <Gold.Chemscore.Internal.Correction>
   9.000000E+99

> <Gold.Chemscore.Hbonds>
donor molecule, donor type, donor heavy atom, donor atom, acceptor molecule, acceptor atom, score
      L1  H    15    50       P1  8028  0.95
      P1  H  6896  6909       L1    25  0.90

> <Gold.Chemscore.Hbond.Weighted>
-6.4735

> <Gold.Chemscore.Metal.Weighted>
-0.0000

> <Gold.Chemscore.Lipo.Weighted>
-13.8792

> <Gold.Chemscore.Internal_Hbond.Weighted>
0.0000

> <Gold.Chemscore.DEClash.Weighted>
0.0529

> <Gold.Chemscore.DEInternal.Weighted>
0.8160

> <Gold.Chemscore.Rot.Weighted>
7.1580

> <Gold.Chemscore.Internal.Correction.Weighted>
   9.000000E+99

> <Gold.Protein.RotatedTorsions>
[ 6907 6896 6895 6894 ] final   69.46 input  -60.11 | X-H torsion
[ 7974 7965 7964 7962 ] final   97.79 input  175.53 | X-H torsion
[ 8008 7997 7996 7995 ] final  143.07 input   59.86 | X-H torsion
[ 10167 10162 10161 10158 ] final -129.39 input  -65.29 | X-H torsion
[ 10718 10713 10712 10709 ] final  119.01 input   66.30 | X-H torsion
[ 10763 10752 10751 10750 ] final   64.09 input  -60.55 | X-H torsion
[ 11005 11000 10999 10996 ] final  170.79 input  -57.11 | X-H torsion

> <Gold.Protein.ActiveResidues>
 VAL166  LYS551  ARG553  GLY616  TRP617  ASP618  TYR619  PRO620  LYS621  CYS622 
 ASP623  PHE694  ASN695  SER759  ASP760  ASP761  ALA762  ILE779  LEU786  VAL792 
 PHE793  MET794  SER795  GLU796  ALA797  LYS798  CYS799  TRP800  GLU811  SER814 

> <Gold.Protein.RotatedAtoms>
  152.4688  134.5012  159.9724 H   0  0  0  0  0  0  0  0  0  0  0  0  # atno 6907 bound_to 6896
  151.5043  133.3492  159.2882 H   0  0  0  0  0  0  0  0  0  0  0  0  # atno 6908 bound_to 6896
  150.8686  134.8083  159.7199 H   0  0  0  0  0  0  0  0  0  0  0  0  # atno 6909 bound_to 6896
  145.4207  139.2322  143.3197 H   0  0  0  0  0  0  0  0  0  0  0  0  # atno 7974 bound_to 7965
  156.2937  140.2272  156.4830 H   0  0  0  0  0  0  0  0  0  0  0  0  # atno 8008 bound_to 7997
  154.7836  140.0458  157.1168 H   0  0  0  0  0  0  0  0  0  0  0  0  # atno 8009 bound_to 7997
  154.9729  140.3069  155.4983 H   0  0  0  0  0  0  0  0  0  0  0  0  # atno 8010 bound_to 7997
  139.9403  143.6171  152.2505 H   0  0  0  0  0  0  0  0  0  0  0  0  # atno 10167 bound_to 10162
  157.5991  131.1054  150.7837 H   0  0  0  0  0  0  0  0  0  0  0  0  # atno 10718 bound_to 10713
  153.0042  135.5405  154.6456 H   0  0  0  0  0  0  0  0  0  0  0  0  # atno 10763 bound_to 10752
  154.5700  135.2841  155.0838 H   0  0  0  0  0  0  0  0  0  0  0  0  # atno 10764 bound_to 10752
  154.2008  135.6484  153.5139 H   0  0  0  0  0  0  0  0  0  0  0  0  # atno 10765 bound_to 10752
  140.3121  134.7508  157.3999 H   0  0  0  0  0  0  0  0  0  0  0  0  # atno 11005 bound_to 11000
  146.2658  140.4931  142.8835 LP  0  0  0  0  0  0  0  0  0  0  0  0  # atno 17320 bound_to 7965
  144.8247  140.6608  143.6330 LP  0  0  0  0  0  0  0  0  0  0  0  0  # atno 17321 bound_to 7965
  139.6710  144.7661  151.1783 LP  0  0  0  0  0  0  0  0  0  0  0  0  # atno 17342 bound_to 10162
  140.7613  143.5865  150.8840 LP  0  0  0  0  0  0  0  0  0  0  0  0  # atno 17343 bound_to 10162
  156.8240  130.4993  149.5339 LP  0  0  0  0  0  0  0  0  0  0  0  0  # atno 17370 bound_to 10713
  156.1060  130.6004  150.9971 LP  0  0  0  0  0  0  0  0  0  0  0  0  # atno 17371 bound_to 10713
  140.1016  134.5465  155.8348 LP  0  0  0  0  0  0  0  0  0  0  0  0  # atno 17394 bound_to 11000
  141.2106  133.6696  156.6519 LP  0  0  0  0  0  0  0  0  0  0  0  0  # atno 17395 bound_to 11000

$$$$
