AV-unprocessed.smi:2062|AV-procd|sdf|8397|dock2
  -GOLD-   2272011 83D 1   1.00000     0.00000
 Structure written by MMmdl.
 43 44  0  0  0  0  0  0  0  0  2 V2000
  152.4328  140.7519  158.7912 C   0  0  0  0  0  0  0  0  0  0  0  0
  151.6028  140.7372  157.4991 C   0  0  0  0  0  0  0  0  0  0  0  0
  150.5496  141.8575  157.5252 C   0  0  0  0  0  0  0  0  0  0  0  0
  150.9623  139.3489  157.2812 C   0  0  0  0  0  0  0  0  0  0  0  0
  151.9631  138.2764  157.0268 N   0  3  2  0  0  0  0  0  0  0  0  0
  152.7822  138.5065  155.8120 C   0  0  0  0  0  0  0  0  0  0  0  0
  151.9993  138.1447  154.5371 C   0  0  0  0  0  0  0  0  0  0  0  0
  151.5644  136.7933  154.6188 O   0  0  0  0  0  0  0  0  0  0  0  0
  150.6769  136.5714  155.7109 C   0  0  1  0  0  0  0  0  0  0  0  0
  150.2062  135.1065  155.6639 C   0  0  0  0  0  0  0  0  0  0  0  0
  149.3970  134.8311  154.4814 N   0  0  0  0  0  0  0  0  0  0  0  0
  148.7030  133.7029  154.2736 C   0  0  0  0  0  0  0  0  0  0  0  0
  148.6819  132.7660  155.0725 O   0  0  0  0  0  0  0  0  0  0  0  0
  148.0475  133.7413  153.1006 N   0  0  0  0  0  0  0  0  0  0  0  0
  147.1845  132.7599  152.5458 C   0  0  0  0  0  0  0  0  0  0  0  0
  146.9132  131.5823  153.1207 N   0  0  0  0  0  0  0  0  0  0  0  0
  146.0288  130.8173  152.3561 C   0  0  0  0  0  0  0  0  0  0  0  0
  145.6327  131.4331  151.1950 C   0  0  0  0  0  0  0  0  0  0  0  0
  146.3587  133.0078  151.0142 S   0  0  0  0  0  0  0  0  0  0  0  0
  151.4168  136.8943  157.0276 C   0  0  0  0  0  0  0  0  0  0  0  0
  151.8111  140.5588  159.6661 H   0  0  0  0  0  0  0  0  0  0  0  0
  152.9191  141.7172  158.9356 H   0  0  0  0  0  0  0  0  0  0  0  0
  153.2154  139.9932  158.7645 H   0  0  0  0  0  0  0  0  0  0  0  0
  152.2944  140.9468  156.6841 H   0  0  0  0  0  0  0  0  0  0  0  0
  149.8271  141.7044  158.3276 H   0  0  0  0  0  0  0  0  0  0  0  0
  149.9989  141.9108  156.5861 H   0  0  0  0  0  0  0  0  0  0  0  0
  151.0164  142.8305  157.6817 H   0  0  0  0  0  0  0  0  0  0  0  0
  150.3358  139.0823  158.1322 H   0  0  0  0  0  0  0  0  0  0  0  0
  150.2872  139.4206  156.4272 H   0  0  0  0  0  0  0  0  0  0  0  0
  153.1368  139.5370  155.7727 H   0  0  0  0  0  0  0  0  0  0  0  0
  153.6732  137.8802  155.8757 H   0  0  0  0  0  0  0  0  0  0  0  0
  151.1470  138.8099  154.3914 H   0  0  0  0  0  0  0  0  0  0  0  0
  152.6393  138.2543  153.6617 H   0  0  0  0  0  0  0  0  0  0  0  0
  149.8094  137.2243  155.6083 H   0  0  0  0  0  0  0  0  0  0  0  0
  151.0657  134.4355  155.6570 H   0  0  0  0  0  0  0  0  0  0  0  0
  149.6314  134.8639  156.5592 H   0  0  0  0  0  0  0  0  0  0  0  0
  149.3603  135.5522  153.7756 H   0  0  0  0  0  0  0  0  0  0  0  0
  148.1731  134.5724  152.5419 H   0  0  0  0  0  0  0  0  0  0  0  0
  145.7326  129.8426  152.7148 H   0  0  0  0  0  0  0  0  0  0  0  0
  144.9603  131.0573  150.4382 H   0  0  0  0  0  0  0  0  0  0  0  0
  152.2527  136.2042  157.1497 H   0  0  0  0  0  0  0  0  0  0  0  0
  150.7647  136.7295  157.8841 H   0  0  0  0  0  0  0  0  0  0  0  0
  152.6056  138.3327  157.8044 H   0  0  0  0  0  0  0  0  0  0  0  0
  1  2  1  0  0  0  0
  1 21  1  0  0  0  0
  1 22  1  0  0  0  0
  1 23  1  0  0  0  0
  2  3  1  0  0  0  0
  2  4  1  0  0  0  0
  2 24  1  0  0  0  0
  3 25  1  0  0  0  0
  3 26  1  0  0  0  0
  3 27  1  0  0  0  0
  4  5  1  0  0  0  0
  4 28  1  0  0  0  0
  4 29  1  0  0  0  0
  5 20  1  0  0  0  0
  5  6  1  0  0  0  0
  5 43  1  0  0  0  0
  6  7  1  0  0  0  0
  6 30  1  0  0  0  0
  6 31  1  0  0  0  0
  7  8  1  0  0  0  0
  7 32  1  0  0  0  0
  7 33  1  0  0  0  0
  8  9  1  0  0  0  0
  9 10  1  0  0  0  0
  9 20  1  0  0  0  0
  9 34  1  0  0  0  0
 10 11  1  0  0  0  0
 10 35  1  0  0  0  0
 10 36  1  0  0  0  0
 11 12  1  0  0  0  0
 11 37  1  0  0  0  0
 12 13  2  0  0  0  0
 12 14  1  0  0  0  0
 14 15  1  0  0  0  0
 14 38  1  0  0  0  0
 15 19  1  0  0  0  0
 15 16  2  0  0  0  0
 16 17  1  0  0  0  0
 17 18  2  0  0  0  0
 17 39  1  0  0  0  0
 18 19  1  0  0  0  0
 18 40  1  0  0  0  0
 20 41  1  0  0  0  0
 20 42  1  0  0  0  0
M  CHG  1   5   1
M  END
> <s_m_source_file>
AV-unprocessed.smi

> <i_m_source_file_index>
2062

> <i_lp_mmshare_version>
43012

> <i_f3d_flags>
0

> <s_epik_input>
W0NIM11bQ0hdKFtDSDNdKVtDSDJdTjFbQ0gyXVtDSDJdT1tDQEhdKFtDSDJdMSlbQ0gyXVtOSF1DKD1PKVtOSF1jMm5bY0hdW2NIXXMy

> <s_epik_cmdline>
J2VwaWtfcHl0aG9uJywgJy1waCcsICc3LjAnLCAnLXRuJywgJzgnLCAnLW1hJywgJzIwMCcsICctbWV0YWxfYmluZGluZycsICctaW1hZScsICc8aW5maWxlLm1hZT4nLCAnLW9tYWUnLCAnPG91dGZpbGUubWFlPic=

> <r_lp_tautomer_probability>
0.999

> <r_epik_Ionization_Penalty>
0.0985527

> <r_epik_Ionization_Penalty_Charging>
0.098413

> <r_epik_Ionization_Penalty_Neutral>
0.000139681

> <r_epik_State_Penalty>
0.0884988

> <r_epik_Charging_Adjusted_Penalty>
0.186912

> <i_epik_Tot_Q>
1

> <i_epik_Tot_abs_Q>
1

> <r_epik_Metal_State_Penalty>
0.141792

> <b_epik_Metal_Only>
0

> <s_lp_Force_Field>
OPLS_2005

> <r_lp_Energy>
17.4544

> <b_lp_Chiralities_Consistent>
1

> <s_lp_Variant>
AV-unprocessed.smi:2062-2

> <Gold.Version>
5.8.1

> <Gold.Id.Protein>
6NUR|6NUR_protein|mol2

> <Gold.PLP.Fitness>
41.7369

> <Gold.PLP.PLP>
-32.8750

> <Gold.PLP.part.hbond>
-3.0000

> <Gold.PLP.part.metal>
0.0000

> <Gold.PLP.part.buried>
-5.0818

> <Gold.PLP.part.nonpolar>
-25.0330

> <Gold.PLP.part.repulsive>
0.4171

> <Gold.PLP.ligand.clash>
0.0000

> <Gold.PLP.ligand.torsion>
0.1150

> <Gold.PLP.Chemscore.Hbond>
3.0000

> <Gold.PLP.Chemscore.CHOScore>
0.0000

> <Gold.PLP.Chemscore.Metal>
0.0000

> <Gold.Chemscore.Hbonds>
donor molecule, donor type, donor heavy atom, donor atom, acceptor molecule, acceptor atom, score
      L1  H    11    37       P1  7948  0.98
      L1  H    14    38       P1  7948  1.00
      P1  H 10752 10764       L1     8  1.00

> <Gold.PLP.Chemscore.Internal.Correction>
0.0920

> <Gold.Rescore>
     Score         DG    S(hbond)    S(metal)    S(lipo)     H(rot)  DE(clash)    DE(int)     intcor
     15.77     -17.26       2.37        0.00      71.61       1.76       0.00       1.49       ----

> <Gold.Chemscore.Fitness>
15.7655

> <Gold.Chemscore.DG>
-17.2587

> <Gold.Chemscore.ZeroCoef>
-5.4800

> <Gold.Chemscore.Hbond>
2.3668

> <Gold.Chemscore.Metal>
0.0000

> <Gold.Chemscore.Lipo>
71.6150

> <Gold.Chemscore.Internal_Hbond>
0.0000

> <Gold.Chemscore.DEClash>
0.0021

> <Gold.Chemscore.DEInternal>
1.4911

> <Gold.Chemscore.Rot>
1.7599

> <Gold.Chemscore.Internal.Correction>
   9.000000E+99

> <Gold.Chemscore.Hbonds>
donor molecule, donor type, donor heavy atom, donor atom, acceptor molecule, acceptor atom, score
      L1  H    11    37       P1  7948  0.40
      L1  H    14    38       P1  7948  0.34
      P1  H 10752 10764       L1     8  0.79

> <Gold.Chemscore.Hbond.Weighted>
-7.9052

> <Gold.Chemscore.Metal.Weighted>
-0.0000

> <Gold.Chemscore.Lipo.Weighted>
-8.3790

> <Gold.Chemscore.Internal_Hbond.Weighted>
0.0000

> <Gold.Chemscore.DEClash.Weighted>
0.0021

> <Gold.Chemscore.DEInternal.Weighted>
1.4911

> <Gold.Chemscore.Rot.Weighted>
4.5054

> <Gold.Chemscore.Internal.Correction.Weighted>
   9.000000E+99

> <Gold.Protein.RotatedTorsions>
[ 6907 6896 6895 6894 ] final -175.98 input  -60.11 | X-H torsion
[ 7974 7965 7964 7962 ] final   47.34 input  175.53 | X-H torsion
[ 8008 7997 7996 7995 ] final  174.90 input   59.86 | X-H torsion
[ 10167 10162 10161 10158 ] final   46.94 input  -65.29 | X-H torsion
[ 10718 10713 10712 10709 ] final  134.61 input   66.30 | X-H torsion
[ 10763 10752 10751 10750 ] final  -71.89 input  -60.55 | X-H torsion
[ 11005 11000 10999 10996 ] final -119.06 input  -57.11 | X-H torsion

> <Gold.Protein.ActiveResidues>
 VAL166  LYS551  ARG553  GLY616  TRP617  ASP618  TYR619  PRO620  LYS621  CYS622 
 ASP623  PHE694  ASN695  SER759  ASP760  ASP761  ALA762  ILE779  LEU786  VAL792 
 PHE793  MET794  SER795  GLU796  ALA797  LYS798  CYS799  TRP800  GLU811  SER814 

> <Gold.Protein.RotatedAtoms>
  151.5973  133.3360  159.3039 H   0  0  0  0  0  0  0  0  0  0  0  0  # atno 6907 bound_to 6896
  150.8227  134.7446  159.6797 H   0  0  0  0  0  0  0  0  0  0  0  0  # atno 6908 bound_to 6896
  152.4319  134.5767  159.9988 H   0  0  0  0  0  0  0  0  0  0  0  0  # atno 6909 bound_to 6896
  146.0307  139.4760  142.9839 H   0  0  0  0  0  0  0  0  0  0  0  0  # atno 7974 bound_to 7965
  156.0926  140.1422  156.9572 H   0  0  0  0  0  0  0  0  0  0  0  0  # atno 8008 bound_to 7997
  154.4651  140.0929  156.7046 H   0  0  0  0  0  0  0  0  0  0  0  0  # atno 8009 bound_to 7997
  155.4894  140.3447  155.4354 H   0  0  0  0  0  0  0  0  0  0  0  0  # atno 8010 bound_to 7997
  140.3087  144.2846  150.6204 H   0  0  0  0  0  0  0  0  0  0  0  0  # atno 10167 bound_to 10162
  157.4655  131.1076  150.9867 H   0  0  0  0  0  0  0  0  0  0  0  0  # atno 10718 bound_to 10713
  154.4381  135.5947  153.6111 H   0  0  0  0  0  0  0  0  0  0  0  0  # atno 10763 bound_to 10752
  152.9803  135.5991  154.3756 H   0  0  0  0  0  0  0  0  0  0  0  0  # atno 10764 bound_to 10752
  154.3603  135.2841  155.2302 H   0  0  0  0  0  0  0  0  0  0  0  0  # atno 10765 bound_to 10752
  141.0242  134.0079  157.3239 H   0  0  0  0  0  0  0  0  0  0  0  0  # atno 11005 bound_to 11000
  145.7045  141.0125  143.1486 LP  0  0  0  0  0  0  0  0  0  0  0  0  # atno 17320 bound_to 7965
  144.7029  139.8684  143.7439 LP  0  0  0  0  0  0  0  0  0  0  0  0  # atno 17321 bound_to 7965
  140.5587  143.2195  151.7803 LP  0  0  0  0  0  0  0  0  0  0  0  0  # atno 17342 bound_to 10162
  139.4898  144.4378  151.9799 LP  0  0  0  0  0  0  0  0  0  0  0  0  # atno 17343 bound_to 10162
  157.0650  130.5841  149.5392 LP  0  0  0  0  0  0  0  0  0  0  0  0  # atno 17370 bound_to 10713
  156.0048  130.5133  150.7793 LP  0  0  0  0  0  0  0  0  0  0  0  0  # atno 17371 bound_to 10713
  139.9165  135.0197  156.7901 LP  0  0  0  0  0  0  0  0  0  0  0  0  # atno 17394 bound_to 11000
  140.6520  133.9722  155.7760 LP  0  0  0  0  0  0  0  0  0  0  0  0  # atno 17395 bound_to 11000

$$$$
