AV-unprocessed.smi:3331|AV-procd|sdf|12818|dock6
  -GOLD-   2272019193D 1   1.00000     0.00000
 Structure written by MMmdl.
 47 48  0  0  0  0  0  0  0  0  2 V2000
  146.8359  141.3814  153.5088 C   0  0  0  0  0  0  0  0  0  0  0  0
  147.7713  140.5427  154.3907 C   0  0  2  0  0  0  0  0  0  0  0  0
  148.9450  141.3877  154.9368 C   0  0  0  0  0  0  0  0  0  0  0  0
  149.9739  140.5372  155.7160 C   0  0  2  0  0  0  0  0  0  0  0  0
  151.1906  141.3715  156.1386 C   0  0  0  0  0  0  0  0  0  0  0  0
  150.3858  139.3141  154.8720 C   0  0  0  0  0  0  0  0  0  0  0  0
  149.1765  138.5482  154.5451 N   0  0  0  0  0  0  0  0  0  0  0  0
  148.7935  137.3751  155.1088 C   0  0  0  0  0  0  0  0  0  0  0  0
  149.4763  136.8092  155.9649 O   0  0  0  0  0  0  0  0  0  0  0  0
  147.4677  136.7080  154.6836 C   0  0  2  0  0  0  0  0  0  0  0  0
  146.5639  136.4988  155.9094 C   0  0  0  0  0  0  0  0  0  0  0  0
  147.6980  135.4070  154.0124 N   0  3  0  0  0  0  0  0  0  0  0  0
  146.4970  134.8004  153.3988 C   0  0  0  0  0  0  0  0  0  0  0  0
  146.8384  133.4649  152.7237 C   0  0  0  0  0  0  0  0  0  0  0  0
  145.8503  133.0994  151.7274 N   0  0  0  0  0  0  0  0  0  0  0  0
  145.8466  132.0109  150.8806 C   0  0  0  0  0  0  0  0  0  0  0  0
  144.7115  132.0882  150.1255 C   0  0  0  0  0  0  0  0  0  0  0  0
  144.0749  133.2723  150.5917 C   0  0  0  0  0  0  0  0  0  0  0  0
  144.7587  133.8749  151.5517 N   0  0  0  0  0  0  0  0  0  0  0  0
  148.3056  139.3055  153.6376 C   0  0  0  0  0  0  0  0  0  0  0  0
  147.3557  141.7631  152.6295 H   0  0  0  0  0  0  0  0  0  0  0  0
  146.4395  142.2355  154.0585 H   0  0  0  0  0  0  0  0  0  0  0  0
  145.9877  140.7897  153.1636 H   0  0  0  0  0  0  0  0  0  0  0  0
  147.1882  140.1897  155.2428 H   0  0  0  0  0  0  0  0  0  0  0  0
  149.4484  141.8779  154.1021 H   0  0  0  0  0  0  0  0  0  0  0  0
  148.5629  142.1860  155.5742 H   0  0  0  0  0  0  0  0  0  0  0  0
  149.4933  140.1738  156.6259 H   0  0  0  0  0  0  0  0  0  0  0  0
  151.7226  141.7643  155.2715 H   0  0  0  0  0  0  0  0  0  0  0  0
  151.8940  140.7739  156.7190 H   0  0  0  0  0  0  0  0  0  0  0  0
  150.8895  142.2181  156.7564 H   0  0  0  0  0  0  0  0  0  0  0  0
  150.8600  139.6456  153.9467 H   0  0  0  0  0  0  0  0  0  0  0  0
  151.1509  138.7298  155.3791 H   0  0  0  0  0  0  0  0  0  0  0  0
  146.9423  137.3305  153.9603 H   0  0  0  0  0  0  0  0  0  0  0  0
  146.3649  137.4371  156.4282 H   0  0  0  0  0  0  0  0  0  0  0  0
  147.0167  135.8146  156.6283 H   0  0  0  0  0  0  0  0  0  0  0  0
  145.6005  136.0805  155.6166 H   0  0  0  0  0  0  0  0  0  0  0  0
  148.4044  135.5350  153.3016 H   0  0  0  0  0  0  0  0  0  0  0  0
  145.7414  134.6477  154.1708 H   0  0  0  0  0  0  0  0  0  0  0  0
  146.0713  135.4847  152.6639 H   0  0  0  0  0  0  0  0  0  0  0  0
  147.8142  133.5235  152.2394 H   0  0  0  0  0  0  0  0  0  0  0  0
  146.8974  132.6641  153.4624 H   0  0  0  0  0  0  0  0  0  0  0  0
  146.6424  131.2805  150.8843 H   0  0  0  0  0  0  0  0  0  0  0  0
  144.3848  131.4027  149.3575 H   0  0  0  0  0  0  0  0  0  0  0  0
  143.1431  133.7084  150.2632 H   0  0  0  0  0  0  0  0  0  0  0  0
  147.4747  138.7101  153.2564 H   0  0  0  0  0  0  0  0  0  0  0  0
  148.8732  139.6119  152.7576 H   0  0  0  0  0  0  0  0  0  0  0  0
  148.0475  134.7576  154.7024 H   0  0  0  0  0  0  0  0  0  0  0  0
  1  2  1  0  0  0  0
  1 21  1  0  0  0  0
  1 22  1  0  0  0  0
  1 23  1  0  0  0  0
  2 20  1  0  0  0  0
  2  3  1  0  0  0  0
  2 24  1  0  0  0  0
  3  4  1  0  0  0  0
  3 25  1  0  0  0  0
  3 26  1  0  0  0  0
  4  5  1  0  0  0  0
  4  6  1  0  0  0  0
  4 27  1  0  0  0  0
  5 28  1  0  0  0  0
  5 29  1  0  0  0  0
  5 30  1  0  0  0  0
  6  7  1  0  0  0  0
  6 31  1  0  0  0  0
  6 32  1  0  0  0  0
  7  8  1  0  0  0  0
  7 20  1  0  0  0  0
  8  9  2  0  0  0  0
  8 10  1  0  0  0  0
 10 11  1  0  0  0  0
 10 12  1  0  0  0  0
 10 33  1  0  0  0  0
 11 34  1  0  0  0  0
 11 35  1  0  0  0  0
 11 36  1  0  0  0  0
 12 13  1  0  0  0  0
 12 37  1  0  0  0  0
 12 47  1  0  0  0  0
 13 14  1  0  0  0  0
 13 38  1  0  0  0  0
 13 39  1  0  0  0  0
 14 15  1  0  0  0  0
 14 40  1  0  0  0  0
 14 41  1  0  0  0  0
 15 19  1  0  0  0  0
 15 16  1  0  0  0  0
 16 17  2  0  0  0  0
 16 42  1  0  0  0  0
 17 18  1  0  0  0  0
 17 43  1  0  0  0  0
 18 19  2  0  0  0  0
 18 44  1  0  0  0  0
 20 45  1  0  0  0  0
 20 46  1  0  0  0  0
M  CHG  1  12   1
M  END
> <s_m_source_file>
AV-unprocessed.smi

> <i_m_source_file_index>
3331

> <i_lp_mmshare_version>
43012

> <i_f3d_flags>
0

> <s_epik_input>
W0NIM11bQ0BASF0xW0NIMl1bQ0BASF0oW0NIM10pW0NIMl1OKFtDSDJdMSlDKD1PKVtDQEhdKFtDSDNdKVtOSF1bQ0gyXVtDSDJdbjJbY0hdW2NIXVtjSF1uMg==

> <s_epik_cmdline>
J2VwaWtfcHl0aG9uJywgJy1waCcsICc3LjAnLCAnLXRuJywgJzgnLCAnLW1hJywgJzIwMCcsICctbWV0YWxfYmluZGluZycsICctaW1hZScsICc8aW5maWxlLm1hZT4nLCAnLW9tYWUnLCAnPG91dGZpbGUubWFlPic=

> <r_lp_tautomer_probability>
1

> <r_epik_Ionization_Penalty>
0.189706

> <r_epik_Ionization_Penalty_Charging>
0.189703

> <r_epik_Ionization_Penalty_Neutral>
2.45875e-06

> <r_epik_State_Penalty>
0.179341

> <r_epik_Charging_Adjusted_Penalty>
0.369044

> <i_epik_Tot_Q>
1

> <i_epik_Tot_abs_Q>
1

> <r_epik_Metal_State_Penalty>
0.179578

> <b_epik_Metal_Only>
0

> <s_lp_Force_Field>
OPLS_2005

> <r_lp_Energy>
26.1648

> <b_lp_Chiralities_Consistent>
1

> <s_lp_Variant>
AV-unprocessed.smi:3331-2

> <Gold.Version>
5.8.1

> <Gold.Id.Protein>
6NUR|6NUR_protein|mol2

> <Gold.PLP.Fitness>
42.9315

> <Gold.PLP.PLP>
-31.2345

> <Gold.PLP.part.hbond>
-1.0000

> <Gold.PLP.part.metal>
0.0000

> <Gold.PLP.part.buried>
-2.6766

> <Gold.PLP.part.nonpolar>
-27.3047

> <Gold.PLP.part.repulsive>
0.1629

> <Gold.PLP.ligand.clash>
0.0000

> <Gold.PLP.ligand.torsion>
0.1882

> <Gold.PLP.Chemscore.Hbond>
2.0000

> <Gold.PLP.Chemscore.CHOScore>
2.0000

> <Gold.PLP.Chemscore.Metal>
0.0000

> <Gold.Chemscore.Hbonds>
donor molecule, donor type, donor heavy atom, donor atom, acceptor molecule, acceptor atom, score
      L1  H    12    37       P1  7948  2.00
      L1  C    16    42       P1 10747  1.00
      L1  C    18    44       P1 10186  1.00

> <Gold.PLP.Chemscore.Internal.Correction>
0.0734

> <Gold.Rescore>
     Score         DG    S(hbond)    S(metal)    S(lipo)     H(rot)  DE(clash)    DE(int)     intcor
     13.52     -13.89       0.98        0.00      81.60       1.73       0.17       0.20       ----

> <Gold.Chemscore.Fitness>
13.5206

> <Gold.Chemscore.DG>
-13.8948

> <Gold.Chemscore.ZeroCoef>
-5.4800

> <Gold.Chemscore.Hbond>
0.9834

> <Gold.Chemscore.Metal>
0.0000

> <Gold.Chemscore.Lipo>
81.6003

> <Gold.Chemscore.Internal_Hbond>
0.0000

> <Gold.Chemscore.DEClash>
0.1696

> <Gold.Chemscore.DEInternal>
0.2047

> <Gold.Chemscore.Rot>
1.7254

> <Gold.Chemscore.Internal.Correction>
   9.000000E+99

> <Gold.Chemscore.Hbonds>
donor molecule, donor type, donor heavy atom, donor atom, acceptor molecule, acceptor atom, score
      L1  H    12    37       P1  7948  0.96

> <Gold.Chemscore.Hbond.Weighted>
-3.2846

> <Gold.Chemscore.Metal.Weighted>
-0.0000

> <Gold.Chemscore.Lipo.Weighted>
-9.5472

> <Gold.Chemscore.Internal_Hbond.Weighted>
0.0000

> <Gold.Chemscore.DEClash.Weighted>
0.1696

> <Gold.Chemscore.DEInternal.Weighted>
0.2047

> <Gold.Chemscore.Rot.Weighted>
4.4170

> <Gold.Chemscore.Internal.Correction.Weighted>
   9.000000E+99

> <Gold.Protein.RotatedTorsions>
[ 6907 6896 6895 6894 ] final  -67.23 input  -60.11 | X-H torsion
[ 7974 7965 7964 7962 ] final   15.61 input  175.53 | X-H torsion
[ 8008 7997 7996 7995 ] final  -44.48 input   59.86 | X-H torsion
[ 10167 10162 10161 10158 ] final  109.30 input  -65.29 | X-H torsion
[ 10718 10713 10712 10709 ] final -145.03 input   66.30 | X-H torsion
[ 10763 10752 10751 10750 ] final  -63.55 input  -60.55 | X-H torsion
[ 11005 11000 10999 10996 ] final   55.86 input  -57.11 | X-H torsion

> <Gold.Protein.ActiveResidues>
 VAL166  LYS551  ARG553  GLY616  TRP617  ASP618  TYR619  PRO620  LYS621  CYS622 
 ASP623  PHE694  ASN695  SER759  ASP760  ASP761  ALA762  ILE779  LEU786  VAL792 
 PHE793  MET794  SER795  GLU796  ALA797  LYS798  CYS799  TRP800  GLU811  SER814 

> <Gold.Protein.RotatedAtoms>
  150.7421  134.5910  159.5987 H   0  0  0  0  0  0  0  0  0  0  0  0  # atno 6907 bound_to 6896
  152.3298  134.7271  160.0301 H   0  0  0  0  0  0  0  0  0  0  0  0  # atno 6908 bound_to 6896
  151.7759  133.3309  159.3494 H   0  0  0  0  0  0  0  0  0  0  0  0  # atno 6909 bound_to 6896
  146.2273  139.8869  142.8561 H   0  0  0  0  0  0  0  0  0  0  0  0  # atno 7974 bound_to 7965
  154.3997  140.1421  156.3690 H   0  0  0  0  0  0  0  0  0  0  0  0  # atno 8008 bound_to 7997
  155.8111  140.3473  155.5437 H   0  0  0  0  0  0  0  0  0  0  0  0  # atno 8009 bound_to 7997
  155.8386  140.0923  157.1739 H   0  0  0  0  0  0  0  0  0  0  0  0  # atno 8010 bound_to 7997
  139.6777  144.7121  151.1571 H   0  0  0  0  0  0  0  0  0  0  0  0  # atno 10167 bound_to 10162
  156.3774  130.7819  151.2007 H   0  0  0  0  0  0  0  0  0  0  0  0  # atno 10718 bound_to 10713
  154.3167  135.6204  153.5489 H   0  0  0  0  0  0  0  0  0  0  0  0  # atno 10763 bound_to 10752
  152.9824  135.5714  154.5116 H   0  0  0  0  0  0  0  0  0  0  0  0  # atno 10764 bound_to 10752
  154.4776  135.2862  155.1571 H   0  0  0  0  0  0  0  0  0  0  0  0  # atno 10765 bound_to 10752
  140.0574  134.5651  155.9192 H   0  0  0  0  0  0  0  0  0  0  0  0  # atno 11005 bound_to 11000
  145.2456  141.0025  143.3910 LP  0  0  0  0  0  0  0  0  0  0  0  0  # atno 17320 bound_to 7965
  144.9416  139.4183  143.6446 LP  0  0  0  0  0  0  0  0  0  0  0  0  # atno 17321 bound_to 7965
  140.7641  143.5746  150.8959 LP  0  0  0  0  0  0  0  0  0  0  0  0  # atno 17342 bound_to 10162
  139.9416  143.6375  152.3052 LP  0  0  0  0  0  0  0  0  0  0  0  0  # atno 17343 bound_to 10162
  157.7489  131.0354  150.4363 LP  0  0  0  0  0  0  0  0  0  0  0  0  # atno 17370 bound_to 10713
  156.4600  130.4030  149.6582 LP  0  0  0  0  0  0  0  0  0  0  0  0  # atno 17371 bound_to 10713
  141.1958  133.6588  156.5660 LP  0  0  0  0  0  0  0  0  0  0  0  0  # atno 17394 bound_to 11000
  140.3823  134.7512  157.4669 LP  0  0  0  0  0  0  0  0  0  0  0  0  # atno 17395 bound_to 11000

$$$$
