AV-unprocessed.smi:1797|AV-procd|sdf|7256|dock10
  -GOLD-   22720 8513D 1   1.00000     0.00000
 Structure written by MMmdl.
 30 31  0  0  0  0  0  0  0  0  1 V2000
  153.9809  141.7746  160.6027 C   0  0  0  0  0  0  0  0  0  0  0  0
  152.9804  142.2810  159.6209 C   0  0  0  0  0  0  0  0  0  0  0  0
  152.7153  143.5835  159.4683 N   0  0  0  0  0  0  0  0  0  0  0  0
  151.7488  143.8133  158.4997 N   0  0  0  0  0  0  0  0  0  0  0  0
  151.3108  142.6741  157.9442 C   0  0  0  0  0  0  0  0  0  0  0  0
  150.3145  142.5967  156.9275 N   0  0  0  0  0  0  0  0  0  0  0  0
  149.7239  141.5428  156.3240 C   0  0  0  0  0  0  0  0  0  0  0  0
  150.0299  140.3902  156.6241 O   0  0  0  0  0  0  0  0  0  0  0  0
  148.8049  141.8272  155.3866 N   0  0  0  0  0  0  0  0  0  0  0  0
  148.0539  140.8467  154.6097 C   0  0  1  0  0  0  0  0  0  0  0  0
  147.3772  141.5377  153.4194 C   0  0  0  0  0  0  0  0  0  0  0  0
  146.5573  140.5351  152.5920 C   0  0  0  0  0  0  0  0  0  0  0  0
  147.3086  139.2281  152.2977 C   0  0  0  0  0  0  0  0  0  0  0  0
  146.9142  138.4949  151.3938 O   0  0  0  0  0  0  0  0  0  0  0  0
  148.3644  138.8962  153.0614 N   0  0  0  0  0  0  0  0  0  0  0  0
  148.9771  139.7203  154.1029 C   0  0  0  0  0  0  0  0  0  0  0  0
  152.0494  141.2126  158.5786 S   0  0  0  0  0  0  0  0  0  0  0  0
  154.8902  142.3747  160.5585 H   0  0  0  0  0  0  0  0  0  0  0  0
  154.2372  140.7381  160.3828 H   0  0  0  0  0  0  0  0  0  0  0  0
  153.5724  141.8278  161.6120 H   0  0  0  0  0  0  0  0  0  0  0  0
  149.9926  143.4949  156.5975 H   0  0  0  0  0  0  0  0  0  0  0  0
  148.6112  142.8008  155.1991 H   0  0  0  0  0  0  0  0  0  0  0  0
  147.2740  140.4152  155.2405 H   0  0  0  0  0  0  0  0  0  0  0  0
  146.7255  142.3385  153.7708 H   0  0  0  0  0  0  0  0  0  0  0  0
  148.1292  142.0086  152.7840 H   0  0  0  0  0  0  0  0  0  0  0  0
  145.6468  140.2761  153.1333 H   0  0  0  0  0  0  0  0  0  0  0  0
  146.2424  140.9936  151.6540 H   0  0  0  0  0  0  0  0  0  0  0  0
  148.8168  138.0151  152.8646 H   0  0  0  0  0  0  0  0  0  0  0  0
  149.8899  140.1461  153.6840 H   0  0  0  0  0  0  0  0  0  0  0  0
  149.2824  139.0772  154.9288 H   0  0  0  0  0  0  0  0  0  0  0  0
  1  2  1  0  0  0  0
  1 18  1  0  0  0  0
  1 19  1  0  0  0  0
  1 20  1  0  0  0  0
  2 17  1  0  0  0  0
  2  3  2  0  0  0  0
  3  4  1  0  0  0  0
  4  5  2  0  0  0  0
  5  6  1  0  0  0  0
  5 17  1  0  0  0  0
  6  7  1  0  0  0  0
  6 21  1  0  0  0  0
  7  8  2  0  0  0  0
  7  9  1  0  0  0  0
  9 10  1  0  0  0  0
  9 22  1  0  0  0  0
 10 16  1  0  0  0  0
 10 11  1  0  0  0  0
 10 23  1  0  0  0  0
 11 12  1  0  0  0  0
 11 24  1  0  0  0  0
 11 25  1  0  0  0  0
 12 13  1  0  0  0  0
 12 26  1  0  0  0  0
 12 27  1  0  0  0  0
 13 14  2  0  0  0  0
 13 15  1  0  0  0  0
 15 16  1  0  0  0  0
 15 28  1  0  0  0  0
 16 29  1  0  0  0  0
 16 30  1  0  0  0  0
M  END
> <s_m_source_file>
AV-unprocessed.smi

> <i_m_source_file_index>
1797

> <i_lp_mmshare_version>
43012

> <i_f3d_flags>
0

> <s_epik_input>
W0NIM11jMW5uYyhzMSlbTkhdQyg9TylbTkhdW0NAQEhdMltDSDJdW0NIMl1DKD1PKVtOSF1bQ0gyXTI=

> <s_epik_cmdline>
J2VwaWtfcHl0aG9uJywgJy1waCcsICc3LjAnLCAnLXRuJywgJzgnLCAnLW1hJywgJzIwMCcsICctbWV0YWxfYmluZGluZycsICctaW1hZScsICc8aW5maWxlLm1hZT4nLCAnLW9tYWUnLCAnPG91dGZpbGUubWFlPic=

> <r_lp_tautomer_probability>
1

> <r_epik_Ionization_Penalty>
0.00282347

> <r_epik_Ionization_Penalty_Charging>
0

> <r_epik_Ionization_Penalty_Neutral>
0.00282347

> <r_epik_State_Penalty>
-0

> <r_epik_Charging_Adjusted_Penalty>
0

> <i_epik_Tot_Q>
0

> <i_epik_Tot_abs_Q>
0

> <r_epik_Metal_State_Penalty>
0.357935

> <b_epik_Metal_Only>
0

> <s_lp_Force_Field>
OPLS_2005

> <r_lp_Energy>
10.7191

> <b_lp_Chiralities_Consistent>
1

> <s_lp_Variant>
AV-unprocessed.smi:1797-2

> <Gold.Version>
5.8.1

> <Gold.Id.Protein>
6NUR|6NUR_protein|mol2

> <Gold.PLP.Fitness>
39.0200

> <Gold.PLP.PLP>
-27.4173

> <Gold.PLP.part.hbond>
-4.9861

> <Gold.PLP.part.metal>
0.0000

> <Gold.PLP.part.buried>
-0.5101

> <Gold.PLP.part.nonpolar>
-24.3473

> <Gold.PLP.part.repulsive>
1.6641

> <Gold.PLP.ligand.clash>
0.0000

> <Gold.PLP.ligand.torsion>
0.1861

> <Gold.PLP.Chemscore.Hbond>
3.9913

> <Gold.PLP.Chemscore.CHOScore>
0.0000

> <Gold.PLP.Chemscore.Metal>
0.0000

> <Gold.Chemscore.Hbonds>
donor molecule, donor type, donor heavy atom, donor atom, acceptor molecule, acceptor atom, score
      L1  H     6    21       P1  8028  1.00
      L1  H     9    22       P1  8028  1.00
      L1  H    15    28       P1  7948  1.00
      P1  H  7954  7966       L1    14  0.96

> <Gold.PLP.Chemscore.Internal.Correction>
0.0012

> <Gold.Rescore>
     Score         DG    S(hbond)    S(metal)    S(lipo)     H(rot)  DE(clash)    DE(int)     intcor
     16.38     -21.96       3.67        0.00      57.88       1.00       2.89       2.69       ----

> <Gold.Chemscore.Fitness>
16.3798

> <Gold.Chemscore.DG>
-21.9596

> <Gold.Chemscore.ZeroCoef>
-5.4800

> <Gold.Chemscore.Hbond>
3.6731

> <Gold.Chemscore.Metal>
0.0000

> <Gold.Chemscore.Lipo>
57.8770

> <Gold.Chemscore.Internal_Hbond>
0.0000

> <Gold.Chemscore.DEClash>
2.8875

> <Gold.Chemscore.DEInternal>
2.6923

> <Gold.Chemscore.Rot>
1.0000

> <Gold.Chemscore.Internal.Correction>
   9.000000E+99

> <Gold.Chemscore.Hbonds>
donor molecule, donor type, donor heavy atom, donor atom, acceptor molecule, acceptor atom, score
      L1  H     6    21       P1  8028  0.99
      L1  H     9    22       P1  8028  0.92
      L1  H    15    28       P1  7948  0.90
      P1  H  7954  7966       L1    14  0.89

> <Gold.Chemscore.Hbond.Weighted>
-12.2680

> <Gold.Chemscore.Metal.Weighted>
-0.0000

> <Gold.Chemscore.Lipo.Weighted>
-6.7716

> <Gold.Chemscore.Internal_Hbond.Weighted>
0.0000

> <Gold.Chemscore.DEClash.Weighted>
2.8875

> <Gold.Chemscore.DEInternal.Weighted>
2.6923

> <Gold.Chemscore.Rot.Weighted>
2.5600

> <Gold.Chemscore.Internal.Correction.Weighted>
   9.000000E+99

> <Gold.Protein.RotatedTorsions>
[ 6907 6896 6895 6894 ] final -139.50 input  -60.11 | X-H torsion
[ 7974 7965 7964 7962 ] final   16.64 input  175.53 | X-H torsion
[ 8008 7997 7996 7995 ] final   35.99 input   59.86 | X-H torsion
[ 10167 10162 10161 10158 ] final   12.22 input  -65.29 | X-H torsion
[ 10718 10713 10712 10709 ] final  -88.14 input   66.30 | X-H torsion
[ 10763 10752 10751 10750 ] final   90.26 input  -60.55 | X-H torsion
[ 11005 11000 10999 10996 ] final -120.75 input  -57.11 | X-H torsion

> <Gold.Protein.ActiveResidues>
 VAL166  LYS551  ARG553  GLY616  TRP617  ASP618  TYR619  PRO620  LYS621  CYS622 
 ASP623  PHE694  ASN695  SER759  ASP760  ASP761  ALA762  ILE779  LEU786  VAL792 
 PHE793  MET794  SER795  GLU796  ALA797  LYS798  CYS799  TRP800  GLU811  SER814 

> <Gold.Protein.RotatedAtoms>
  151.0486  133.5644  159.2644 H   0  0  0  0  0  0  0  0  0  0  0  0  # atno 6907 bound_to 6896
  151.2663  135.0669  159.9127 H   0  0  0  0  0  0  0  0  0  0  0  0  # atno 6908 bound_to 6896
  152.5377  134.0223  159.8041 H   0  0  0  0  0  0  0  0  0  0  0  0  # atno 6909 bound_to 6896
  146.2243  139.8718  142.8586 H   0  0  0  0  0  0  0  0  0  0  0  0  # atno 7974 bound_to 7965
  155.1800  140.3299  155.4377 H   0  0  0  0  0  0  0  0  0  0  0  0  # atno 8008 bound_to 7997
  156.2480  140.1928  156.6849 H   0  0  0  0  0  0  0  0  0  0  0  0  # atno 8009 bound_to 7997
  154.6278  140.0586  156.9680 H   0  0  0  0  0  0  0  0  0  0  0  0  # atno 8010 bound_to 7997
  140.6082  143.8464  150.7036 H   0  0  0  0  0  0  0  0  0  0  0  0  # atno 10167 bound_to 10162
  155.9984  130.4825  150.4974 H   0  0  0  0  0  0  0  0  0  0  0  0  # atno 10718 bound_to 10713
  153.1957  135.4440  155.0204 H   0  0  0  0  0  0  0  0  0  0  0  0  # atno 10763 bound_to 10752
  154.8117  135.3297  154.7290 H   0  0  0  0  0  0  0  0  0  0  0  0  # atno 10764 bound_to 10752
  153.7740  135.6982  153.4956 H   0  0  0  0  0  0  0  0  0  0  0  0  # atno 10765 bound_to 10752
  141.0120  134.0250  157.3400 H   0  0  0  0  0  0  0  0  0  0  0  0  # atno 11005 bound_to 11000
  145.2600  141.0074  143.3831 LP  0  0  0  0  0  0  0  0  0  0  0  0  # atno 17320 bound_to 7965
  144.9306  139.4303  143.6497 LP  0  0  0  0  0  0  0  0  0  0  0  0  # atno 17321 bound_to 7965
  140.2026  143.3947  152.1780 LP  0  0  0  0  0  0  0  0  0  0  0  0  # atno 17342 bound_to 10162
  139.5341  144.7190  151.4955 LP  0  0  0  0  0  0  0  0  0  0  0  0  # atno 17343 bound_to 10162
  157.2962  131.0636  151.2100 LP  0  0  0  0  0  0  0  0  0  0  0  0  # atno 17370 bound_to 10713
  157.3095  130.6883  149.6208 LP  0  0  0  0  0  0  0  0  0  0  0  0  # atno 17371 bound_to 10713
  139.9095  135.0187  156.7633 LP  0  0  0  0  0  0  0  0  0  0  0  0  # atno 17394 bound_to 11000
  140.6717  133.9553  155.7860 LP  0  0  0  0  0  0  0  0  0  0  0  0  # atno 17395 bound_to 11000

$$$$
