AV-unprocessed.smi:861|AV-procd|sdf|3975|dock9
  -GOLD-   22720 1453D 1   1.00000     0.00000
 Structure written by MMmdl.
 45 46  0  0  0  0  0  0  0  0  3 V2000
  144.7994  144.6230  153.6468 C   0  0  0  0  0  0  0  0  0  0  0  0
  145.1963  143.2421  154.1955 C   0  0  0  0  0  0  0  0  0  0  0  0
  145.0639  143.2172  155.7259 C   0  0  0  0  0  0  0  0  0  0  0  0
  146.6170  142.8235  153.7644 C   0  0  0  0  0  0  0  0  0  0  0  0
  146.8870  141.3114  153.8915 C   0  0  0  0  0  0  0  0  0  0  0  0
  148.3169  141.0104  154.1540 N   0  3  2  0  0  0  0  0  0  0  0  0
  148.6536  139.5722  154.0143 C   0  0  0  0  0  0  0  0  0  0  0  0
  150.1504  139.3435  154.2777 C   0  0  0  0  0  0  0  0  0  0  0  0
  150.4853  139.8352  155.5691 O   0  0  0  0  0  0  0  0  0  0  0  0
  150.2677  141.2373  155.6882 C   0  0  2  0  0  0  0  0  0  0  0  0
  150.7315  141.6728  157.0865 C   0  0  0  0  0  0  0  0  0  0  0  0
  150.2714  143.0146  157.4121 N   0  0  0  0  0  0  0  0  0  0  0  0
  150.8226  143.7142  158.4938 C   0  0  0  0  0  0  0  0  0  0  0  0
  151.8389  143.2030  159.3341 C   0  0  0  0  0  0  0  0  0  0  0  0
  152.3066  144.0134  160.3826 C   0  0  0  0  0  0  0  0  0  0  0  0
  151.7300  145.2877  160.5281 C   0  0  0  0  0  0  0  0  0  0  0  0
  150.7580  145.7577  159.7148 N   0  0  0  0  0  0  0  0  0  0  0  0
  150.3313  144.9582  158.7212 N   0  3  0  0  0  0  0  0  0  0  0  0
  148.7670  141.5198  155.4721 C   0  0  0  0  0  0  0  0  0  0  0  0
  145.4896  145.3973  153.9839 H   0  0  0  0  0  0  0  0  0  0  0  0
  143.8000  144.9038  153.9806 H   0  0  0  0  0  0  0  0  0  0  0  0
  144.7871  144.6370  152.5574 H   0  0  0  0  0  0  0  0  0  0  0  0
  144.4913  142.5097  153.8002 H   0  0  0  0  0  0  0  0  0  0  0  0
  145.7439  143.9296  156.1945 H   0  0  0  0  0  0  0  0  0  0  0  0
  145.2899  142.2284  156.1260 H   0  0  0  0  0  0  0  0  0  0  0  0
  144.0501  143.4707  156.0375 H   0  0  0  0  0  0  0  0  0  0  0  0
  146.7904  143.1600  152.7423 H   0  0  0  0  0  0  0  0  0  0  0  0
  147.3420  143.3529  154.3842 H   0  0  0  0  0  0  0  0  0  0  0  0
  146.2890  140.9294  154.7202 H   0  0  0  0  0  0  0  0  0  0  0  0
  146.5609  140.7742  153.0003 H   0  0  0  0  0  0  0  0  0  0  0  0
  148.0594  138.9866  154.7176 H   0  0  0  0  0  0  0  0  0  0  0  0
  148.4079  139.2163  153.0144 H   0  0  0  0  0  0  0  0  0  0  0  0
  150.3810  138.2791  154.2353 H   0  0  0  0  0  0  0  0  0  0  0  0
  150.7612  139.8324  153.5170 H   0  0  0  0  0  0  0  0  0  0  0  0
  150.8505  141.7685  154.9328 H   0  0  0  0  0  0  0  0  0  0  0  0
  150.3349  140.9850  157.8343 H   0  0  0  0  0  0  0  0  0  0  0  0
  151.8196  141.6267  157.1490 H   0  0  0  0  0  0  0  0  0  0  0  0
  149.6751  143.4977  156.7551 H   0  0  0  0  0  0  0  0  0  0  0  0
  152.2575  142.2181  159.1913 H   0  0  0  0  0  0  0  0  0  0  0  0
  153.0813  143.6716  161.0529 H   0  0  0  0  0  0  0  0  0  0  0  0
  152.0554  145.9489  161.3179 H   0  0  0  0  0  0  0  0  0  0  0  0
  148.5855  142.5940  155.5293 H   0  0  0  0  0  0  0  0  0  0  0  0
  148.1764  141.0525  156.2621 H   0  0  0  0  0  0  0  0  0  0  0  0
  148.8512  141.5103  153.4573 H   0  0  0  0  0  0  0  0  0  0  0  0
  149.5978  145.3071  158.1039 H   0  0  0  0  0  0  0  0  0  0  0  0
  1  2  1  0  0  0  0
  1 20  1  0  0  0  0
  1 21  1  0  0  0  0
  1 22  1  0  0  0  0
  2  3  1  0  0  0  0
  2  4  1  0  0  0  0
  2 23  1  0  0  0  0
  3 24  1  0  0  0  0
  3 25  1  0  0  0  0
  3 26  1  0  0  0  0
  4  5  1  0  0  0  0
  4 27  1  0  0  0  0
  4 28  1  0  0  0  0
  5  6  1  0  0  0  0
  5 29  1  0  0  0  0
  5 30  1  0  0  0  0
  6 19  1  0  0  0  0
  6  7  1  0  0  0  0
  6 44  1  0  0  0  0
  7  8  1  0  0  0  0
  7 31  1  0  0  0  0
  7 32  1  0  0  0  0
  8  9  1  0  0  0  0
  8 33  1  0  0  0  0
  8 34  1  0  0  0  0
  9 10  1  0  0  0  0
 10 11  1  0  0  0  0
 10 19  1  0  0  0  0
 10 35  1  0  0  0  0
 11 12  1  0  0  0  0
 11 36  1  0  0  0  0
 11 37  1  0  0  0  0
 12 13  1  0  0  0  0
 12 38  1  0  0  0  0
 13 18  1  0  0  0  0
 13 14  2  0  0  0  0
 14 15  1  0  0  0  0
 14 39  1  0  0  0  0
 15 16  2  0  0  0  0
 15 40  1  0  0  0  0
 16 17  1  0  0  0  0
 16 41  1  0  0  0  0
 17 18  2  0  0  0  0
 18 45  1  0  0  0  0
 19 42  1  0  0  0  0
 19 43  1  0  0  0  0
M  CHG  1   6   1
M  CHG  1  18   1
M  END
> <s_m_source_file>
AV-unprocessed.smi

> <i_m_source_file_index>
861

> <i_lp_mmshare_version>
43012

> <i_f3d_flags>
0

> <s_epik_input>
W0NIM11bQ0hdKFtDSDNdKVtDSDJdW0NIMl1OMVtDSDJdW0NIMl1PW0NASF0oW0NIMl0xKVtDSDJdW05IXWMyW2NIXVtjSF1bY0hdbm4y

> <s_epik_cmdline>
J2VwaWtfcHl0aG9uJywgJy1waCcsICc3LjAnLCAnLXRuJywgJzgnLCAnLW1hJywgJzIwMCcsICctbWV0YWxfYmluZGluZycsICctaW1hZScsICc8aW5maWxlLm1hZT4nLCAnLW9tYWUnLCAnPG91dGZpbGUubWFlPic=

> <r_lp_tautomer_probability>
0.966961

> <r_epik_Ionization_Penalty>
2.478

> <r_epik_Ionization_Penalty_Charging>
2.47799

> <r_epik_Ionization_Penalty_Neutral>
3.15286e-06

> <r_epik_State_Penalty>
2.10794

> <r_epik_Charging_Adjusted_Penalty>
4.58594

> <i_epik_Tot_Q>
2

> <i_epik_Tot_abs_Q>
2

> <r_epik_Metal_State_Penalty>
2.11378

> <b_epik_Metal_Only>
0

> <s_lp_Force_Field>
OPLS_2005

> <r_lp_Energy>
32.9485

> <b_lp_Chiralities_Consistent>
1

> <s_lp_Variant>
AV-unprocessed.smi:861-10

> <Gold.Version>
5.8.1

> <Gold.Id.Protein>
6NUR|6NUR_protein|mol2

> <Gold.PLP.Fitness>
52.2682

> <Gold.PLP.PLP>
-41.2950

> <Gold.PLP.part.hbond>
-4.0016

> <Gold.PLP.part.metal>
0.0000

> <Gold.PLP.part.buried>
-4.7081

> <Gold.PLP.part.nonpolar>
-33.8489

> <Gold.PLP.part.repulsive>
0.5822

> <Gold.PLP.ligand.clash>
0.0000

> <Gold.PLP.ligand.torsion>
0.5238

> <Gold.PLP.Chemscore.Hbond>
4.0000

> <Gold.PLP.Chemscore.CHOScore>
0.0000

> <Gold.PLP.Chemscore.Metal>
0.0000

> <Gold.Chemscore.Hbonds>
donor molecule, donor type, donor heavy atom, donor atom, acceptor molecule, acceptor atom, score
      L1  H    12    38       P1  8028  2.00
      L1  H    18    45       P1  8029  2.00

> <Gold.PLP.Chemscore.Internal.Correction>
0.0208

> <Gold.Rescore>
     Score         DG    S(hbond)    S(metal)    S(lipo)     H(rot)  DE(clash)    DE(int)     intcor
     16.88     -17.82       1.59        0.00      98.86       1.78       0.45       0.49       ----

> <Gold.Chemscore.Fitness>
16.8773

> <Gold.Chemscore.DG>
-17.8188

> <Gold.Chemscore.ZeroCoef>
-5.4800

> <Gold.Chemscore.Hbond>
1.5923

> <Gold.Chemscore.Metal>
0.0000

> <Gold.Chemscore.Lipo>
98.8619

> <Gold.Chemscore.Internal_Hbond>
0.0000

> <Gold.Chemscore.DEClash>
0.4496

> <Gold.Chemscore.DEInternal>
0.4920

> <Gold.Chemscore.Rot>
1.7759

> <Gold.Chemscore.Internal.Correction>
   9.000000E+99

> <Gold.Chemscore.Hbonds>
donor molecule, donor type, donor heavy atom, donor atom, acceptor molecule, acceptor atom, score
      L1  H    12    38       P1  8028  1.00
      L1  H    18    45       P1  8029  0.29

> <Gold.Chemscore.Hbond.Weighted>
-5.3182

> <Gold.Chemscore.Metal.Weighted>
-0.0000

> <Gold.Chemscore.Lipo.Weighted>
-11.5668

> <Gold.Chemscore.Internal_Hbond.Weighted>
0.0000

> <Gold.Chemscore.DEClash.Weighted>
0.4496

> <Gold.Chemscore.DEInternal.Weighted>
0.4920

> <Gold.Chemscore.Rot.Weighted>
4.5462

> <Gold.Chemscore.Internal.Correction.Weighted>
   9.000000E+99

> <Gold.Protein.RotatedTorsions>
[ 6907 6896 6895 6894 ] final   11.75 input  -60.11 | X-H torsion
[ 7974 7965 7964 7962 ] final  175.22 input  175.53 | X-H torsion
[ 8008 7997 7996 7995 ] final  161.94 input   59.86 | X-H torsion
[ 10167 10162 10161 10158 ] final -107.85 input  -65.29 | X-H torsion
[ 10718 10713 10712 10709 ] final   -0.28 input   66.30 | X-H torsion
[ 10763 10752 10751 10750 ] final   93.66 input  -60.55 | X-H torsion
[ 11005 11000 10999 10996 ] final  -89.23 input  -57.11 | X-H torsion

> <Gold.Protein.ActiveResidues>
 VAL166  LYS551  ARG553  GLY616  TRP617  ASP618  TYR619  PRO620  LYS621  CYS622 
 ASP623  PHE694  ASN695  SER759  ASP760  ASP761  ALA762  ILE779  LEU786  VAL792 
 PHE793  MET794  SER795  GLU796  ALA797  LYS798  CYS799  TRP800  GLU811  SER814 

> <Gold.Protein.RotatedAtoms>
  151.7593  135.0814  160.0342 H   0  0  0  0  0  0  0  0  0  0  0  0  # atno 6907 bound_to 6896
  152.3364  133.6012  159.5854 H   0  0  0  0  0  0  0  0  0  0  0  0  # atno 6908 bound_to 6896
  150.7453  133.9706  159.3586 H   0  0  0  0  0  0  0  0  0  0  0  0  # atno 6909 bound_to 6896
  144.7206  139.9914  143.6440 H   0  0  0  0  0  0  0  0  0  0  0  0  # atno 7974 bound_to 7965
  156.2068  140.1764  156.7783 H   0  0  0  0  0  0  0  0  0  0  0  0  # atno 8008 bound_to 7997
  154.5665  140.0690  156.8930 H   0  0  0  0  0  0  0  0  0  0  0  0  # atno 8009 bound_to 7997
  155.2750  140.3345  155.4265 H   0  0  0  0  0  0  0  0  0  0  0  0  # atno 8010 bound_to 7997
  140.1725  143.4031  152.1343 H   0  0  0  0  0  0  0  0  0  0  0  0  # atno 10167 bound_to 10162
  156.8227  130.5462  149.5695 H   0  0  0  0  0  0  0  0  0  0  0  0  # atno 10718 bound_to 10713
  153.2328  135.4317  155.0614 H   0  0  0  0  0  0  0  0  0  0  0  0  # atno 10763 bound_to 10752
  154.8305  135.3383  154.6762 H   0  0  0  0  0  0  0  0  0  0  0  0  # atno 10764 bound_to 10752
  153.7189  135.7018  153.5074 H   0  0  0  0  0  0  0  0  0  0  0  0  # atno 10765 bound_to 10752
  141.1588  133.7617  156.9565 H   0  0  0  0  0  0  0  0  0  0  0  0  # atno 11005 bound_to 11000
  146.0409  139.3421  143.0698 LP  0  0  0  0  0  0  0  0  0  0  0  0  # atno 17320 bound_to 7965
  145.8336  140.9618  143.0836 LP  0  0  0  0  0  0  0  0  0  0  0  0  # atno 17321 bound_to 7965
  139.5331  144.7181  151.4986 LP  0  0  0  0  0  0  0  0  0  0  0  0  # atno 17342 bound_to 10162
  140.6572  143.8574  150.6848 LP  0  0  0  0  0  0  0  0  0  0  0  0  # atno 17343 bound_to 10162
  156.0979  130.5946  150.9845 LP  0  0  0  0  0  0  0  0  0  0  0  0  # atno 17370 bound_to 10713
  157.6448  131.0905  150.8176 LP  0  0  0  0  0  0  0  0  0  0  0  0  # atno 17371 bound_to 10713
  140.1222  134.9410  157.2219 LP  0  0  0  0  0  0  0  0  0  0  0  0  # atno 17394 bound_to 11000
  140.3058  134.3080  155.7278 LP  0  0  0  0  0  0  0  0  0  0  0  0  # atno 17395 bound_to 11000

$$$$
