AV-unprocessed.smi:1076|AV-procd|sdf|4700|dock7
  -GOLD-   22720 3223D 1   1.00000     0.00000
 Structure written by MMmdl.
 44 45  0  0  0  0  0  0  0  0  1 V2000
  145.1961  144.3573  153.7565 C   0  0  0  0  0  0  0  0  0  0  0  0
  146.0680  143.2537  154.2820 C   0  0  0  0  0  0  0  0  0  0  0  0
  145.8506  142.4442  155.4331 C   0  0  0  0  0  0  0  0  0  0  0  0
  146.8085  141.5516  155.6227 N   0  0  0  0  0  0  0  0  0  0  0  0
  147.6724  141.7633  154.6071 N   0  0  0  0  0  0  0  0  0  0  0  0
  148.8661  140.9434  154.4894 C   0  0  0  0  0  0  0  0  0  0  0  0
  149.7823  141.0391  155.7265 C   0  0  1  0  0  0  0  0  0  0  0  0
  150.9894  140.0943  155.5889 C   0  0  0  0  0  0  0  0  0  0  0  0
  150.2416  142.4171  155.8673 N   0  0  0  0  0  0  0  0  0  0  0  0
  151.2656  142.5475  156.8977 C   0  0  0  0  0  0  0  0  0  0  0  0
  150.8786  141.7754  158.1764 C   0  0  0  0  0  0  0  0  0  0  0  0
  152.0557  141.1293  158.9353 C   0  0  0  0  0  0  0  0  0  0  0  0
  152.2569  139.9199  158.8110 O   0  0  0  0  0  0  0  0  0  0  0  0
  152.8362  141.9082  159.7232 N   0  0  0  0  0  0  0  0  0  0  0  0
  153.9805  141.3892  160.4786 C   0  0  0  0  0  0  0  0  0  0  0  0
  153.6797  141.5296  161.9810 C   0  0  0  0  0  0  0  0  0  0  0  0
  153.4249  142.8974  162.2900 O   0  0  0  0  0  0  0  0  0  0  0  0
  152.3302  143.4393  161.5556 C   0  0  0  0  0  0  0  0  0  0  0  0
  152.6043  143.3207  160.0451 C   0  0  0  0  0  0  0  0  0  0  0  0
  147.2471  142.7806  153.7794 C   0  0  0  0  0  0  0  0  0  0  0  0
  144.9065  145.0515  154.5452 H   0  0  0  0  0  0  0  0  0  0  0  0
  144.2776  143.9674  153.3179 H   0  0  0  0  0  0  0  0  0  0  0  0
  145.6990  144.9402  152.9848 H   0  0  0  0  0  0  0  0  0  0  0  0
  145.0273  142.4776  156.1314 H   0  0  0  0  0  0  0  0  0  0  0  0
  148.5473  139.9110  154.3389 H   0  0  0  0  0  0  0  0  0  0  0  0
  149.4053  141.2349  153.5867 H   0  0  0  0  0  0  0  0  0  0  0  0
  149.2034  140.7557  156.6070 H   0  0  0  0  0  0  0  0  0  0  0  0
  150.6607  139.0663  155.4344 H   0  0  0  0  0  0  0  0  0  0  0  0
  151.6171  140.0968  156.4793 H   0  0  0  0  0  0  0  0  0  0  0  0
  151.6152  140.3715  154.7396 H   0  0  0  0  0  0  0  0  0  0  0  0
  149.4569  143.0010  156.1194 H   0  0  0  0  0  0  0  0  0  0  0  0
  152.2081  142.1588  156.5107 H   0  0  0  0  0  0  0  0  0  0  0  0
  151.4333  143.5960  157.1431 H   0  0  0  0  0  0  0  0  0  0  0  0
  150.3531  142.4590  158.8445 H   0  0  0  0  0  0  0  0  0  0  0  0
  150.1744  140.9865  157.9097 H   0  0  0  0  0  0  0  0  0  0  0  0
  154.2104  140.3491  160.2447 H   0  0  0  0  0  0  0  0  0  0  0  0
  154.8729  141.9603  160.2186 H   0  0  0  0  0  0  0  0  0  0  0  0
  152.8236  140.9157  162.2655 H   0  0  0  0  0  0  0  0  0  0  0  0
  154.5298  141.1866  162.5704 H   0  0  0  0  0  0  0  0  0  0  0  0
  151.4084  142.9216  161.8251 H   0  0  0  0  0  0  0  0  0  0  0  0
  152.2028  144.4852  161.8353 H   0  0  0  0  0  0  0  0  0  0  0  0
  153.4904  143.8983  159.7787 H   0  0  0  0  0  0  0  0  0  0  0  0
  151.7785  143.7703  159.4969 H   0  0  0  0  0  0  0  0  0  0  0  0
  147.8138  143.0814  152.9102 H   0  0  0  0  0  0  0  0  0  0  0  0
  1  2  1  0  0  0  0
  1 21  1  0  0  0  0
  1 22  1  0  0  0  0
  1 23  1  0  0  0  0
  2 20  2  0  0  0  0
  2  3  1  0  0  0  0
  3  4  2  0  0  0  0
  3 24  1  0  0  0  0
  4  5  1  0  0  0  0
  5  6  1  0  0  0  0
  5 20  1  0  0  0  0
  6  7  1  0  0  0  0
  6 25  1  0  0  0  0
  6 26  1  0  0  0  0
  7  8  1  0  0  0  0
  7  9  1  0  0  0  0
  7 27  1  0  0  0  0
  8 28  1  0  0  0  0
  8 29  1  0  0  0  0
  8 30  1  0  0  0  0
  9 10  1  0  0  0  0
  9 31  1  0  0  0  0
 10 11  1  0  0  0  0
 10 32  1  0  0  0  0
 10 33  1  0  0  0  0
 11 12  1  0  0  0  0
 11 34  1  0  0  0  0
 11 35  1  0  0  0  0
 12 13  2  0  0  0  0
 12 14  1  0  0  0  0
 14 19  1  0  0  0  0
 14 15  1  0  0  0  0
 15 16  1  0  0  0  0
 15 36  1  0  0  0  0
 15 37  1  0  0  0  0
 16 17  1  0  0  0  0
 16 38  1  0  0  0  0
 16 39  1  0  0  0  0
 17 18  1  0  0  0  0
 18 19  1  0  0  0  0
 18 40  1  0  0  0  0
 18 41  1  0  0  0  0
 19 42  1  0  0  0  0
 19 43  1  0  0  0  0
 20 44  1  0  0  0  0
M  END
> <s_m_source_file>
AV-unprocessed.smi

> <i_m_source_file_index>
1076

> <i_lp_mmshare_version>
43012

> <i_f3d_flags>
0

> <s_epik_input>
W0NIM11jMVtjSF1ubihbY0hdMSlbQ0gyXVtDQEhdKFtDSDNdKVtOSF1bQ0gyXVtDSDJdQyg9TylOMltDSDJdW0NIMl1PW0NIMl1bQ0gyXTI=

> <s_epik_cmdline>
J2VwaWtfcHl0aG9uJywgJy1waCcsICc3LjAnLCAnLXRuJywgJzgnLCAnLW1hJywgJzIwMCcsICctbWV0YWxfYmluZGluZycsICctaW1hZScsICc8aW5maWxlLm1hZT4nLCAnLW9tYWUnLCAnPG91dGZpbGUubWFlPic=

> <r_lp_tautomer_probability>
1

> <r_epik_Ionization_Penalty>
2.55707

> <r_epik_Ionization_Penalty_Charging>
0

> <r_epik_Ionization_Penalty_Neutral>
2.55707

> <r_epik_State_Penalty>
2.726

> <r_epik_Charging_Adjusted_Penalty>
2.726

> <i_epik_Tot_Q>
0

> <i_epik_Tot_abs_Q>
0

> <r_epik_Metal_State_Penalty>
2.72594

> <b_epik_Metal_Only>
0

> <s_lp_Force_Field>
OPLS_2005

> <r_lp_Energy>
22.7086

> <b_lp_Chiralities_Consistent>
1

> <s_lp_Variant>
AV-unprocessed.smi:1076-4

> <Gold.Version>
5.8.1

> <Gold.Id.Protein>
6NUR|6NUR_protein|mol2

> <Gold.PLP.Fitness>
47.8517

> <Gold.PLP.PLP>
-47.2467

> <Gold.PLP.part.hbond>
-1.0000

> <Gold.PLP.part.metal>
0.0000

> <Gold.PLP.part.buried>
-3.8692

> <Gold.PLP.part.nonpolar>
-41.6657

> <Gold.PLP.part.repulsive>
0.1627

> <Gold.PLP.ligand.clash>
0.0000

> <Gold.PLP.ligand.torsion>
0.6008

> <Gold.PLP.Chemscore.Hbond>
0.5760

> <Gold.PLP.Chemscore.CHOScore>
0.0000

> <Gold.PLP.Chemscore.Metal>
0.0000

> <Gold.Chemscore.Hbonds>
donor molecule, donor type, donor heavy atom, donor atom, acceptor molecule, acceptor atom, score
      L1  H     9    31       P1  8028  0.70

> <Gold.PLP.Chemscore.Internal.Correction>
0.0785

> <Gold.Rescore>
     Score         DG    S(hbond)    S(metal)    S(lipo)     H(rot)  DE(clash)    DE(int)     intcor
     14.58     -15.70       0.91        0.00     103.20       1.91       0.38       0.74       ----

> <Gold.Chemscore.Fitness>
14.5803

> <Gold.Chemscore.DG>
-15.7023

> <Gold.Chemscore.ZeroCoef>
-5.4800

> <Gold.Chemscore.Hbond>
0.9092

> <Gold.Chemscore.Metal>
0.0000

> <Gold.Chemscore.Lipo>
103.2017

> <Gold.Chemscore.Internal_Hbond>
0.0000

> <Gold.Chemscore.DEClash>
0.3772

> <Gold.Chemscore.DEInternal>
0.7447

> <Gold.Chemscore.Rot>
1.9098

> <Gold.Chemscore.Internal.Correction>
   9.000000E+99

> <Gold.Chemscore.Hbonds>
donor molecule, donor type, donor heavy atom, donor atom, acceptor molecule, acceptor atom, score
      L1  H     9    31       P1  8028  0.70

> <Gold.Chemscore.Hbond.Weighted>
-3.0367

> <Gold.Chemscore.Metal.Weighted>
-0.0000

> <Gold.Chemscore.Lipo.Weighted>
-12.0746

> <Gold.Chemscore.Internal_Hbond.Weighted>
0.0000

> <Gold.Chemscore.DEClash.Weighted>
0.3772

> <Gold.Chemscore.DEInternal.Weighted>
0.7447

> <Gold.Chemscore.Rot.Weighted>
4.8891

> <Gold.Chemscore.Internal.Correction.Weighted>
   9.000000E+99

> <Gold.Protein.RotatedTorsions>
[ 6907 6896 6895 6894 ] final -127.74 input  -60.11 | X-H torsion
[ 7974 7965 7964 7962 ] final -135.49 input  175.53 | X-H torsion
[ 8008 7997 7996 7995 ] final  177.57 input   59.86 | X-H torsion
[ 10167 10162 10161 10158 ] final   88.54 input  -65.29 | X-H torsion
[ 10718 10713 10712 10709 ] final  171.17 input   66.30 | X-H torsion
[ 10763 10752 10751 10750 ] final   17.93 input  -60.55 | X-H torsion
[ 11005 11000 10999 10996 ] final  179.17 input  -57.11 | X-H torsion

> <Gold.Protein.ActiveResidues>
 VAL166  LYS551  ARG553  GLY616  TRP617  ASP618  TYR619  PRO620  LYS621  CYS622 
 ASP623  PHE694  ASN695  SER759  ASP760  ASP761  ALA762  ILE779  LEU786  VAL792 
 PHE793  MET794  SER795  GLU796  ALA797  LYS798  CYS799  TRP800  GLU811  SER814 

> <Gold.Protein.RotatedAtoms>
  150.9105  133.7003  159.2855 H   0  0  0  0  0  0  0  0  0  0  0  0  # atno 6907 bound_to 6896
  151.4492  135.1027  159.9702 H   0  0  0  0  0  0  0  0  0  0  0  0  # atno 6908 bound_to 6896
  152.4927  133.8495  159.7249 H   0  0  0  0  0  0  0  0  0  0  0  0  # atno 6909 bound_to 6896
  144.9010  140.6770  143.5085 H   0  0  0  0  0  0  0  0  0  0  0  0  # atno 7974 bound_to 7965
  156.0642  140.1355  156.9905 H   0  0  0  0  0  0  0  0  0  0  0  0  # atno 8008 bound_to 7997
  154.4497  140.0985  156.6633 H   0  0  0  0  0  0  0  0  0  0  0  0  # atno 8009 bound_to 7997
  155.5330  140.3459  155.4432 H   0  0  0  0  0  0  0  0  0  0  0  0  # atno 8010 bound_to 7997
  139.8662  144.6517  150.9001 H   0  0  0  0  0  0  0  0  0  0  0  0  # atno 10167 bound_to 10162
  156.9975  131.0166  151.2840 H   0  0  0  0  0  0  0  0  0  0  0  0  # atno 10718 bound_to 10713
  153.1294  135.6737  153.9203 H   0  0  0  0  0  0  0  0  0  0  0  0  # atno 10763 bound_to 10752
  153.8694  135.3071  155.3442 H   0  0  0  0  0  0  0  0  0  0  0  0  # atno 10764 bound_to 10752
  154.7694  135.4947  153.9699 H   0  0  0  0  0  0  0  0  0  0  0  0  # atno 10765 bound_to 10752
  140.4032  134.6758  157.4573 H   0  0  0  0  0  0  0  0  0  0  0  0  # atno 11005 bound_to 11000
  145.3617  139.1680  143.4380 LP  0  0  0  0  0  0  0  0  0  0  0  0  # atno 17320 bound_to 7965
  146.3108  140.3680  142.8671 LP  0  0  0  0  0  0  0  0  0  0  0  0  # atno 17321 bound_to 7965
  140.7768  143.3702  151.1664 LP  0  0  0  0  0  0  0  0  0  0  0  0  # atno 17342 bound_to 10162
  139.7327  143.9048  152.3024 LP  0  0  0  0  0  0  0  0  0  0  0  0  # atno 17343 bound_to 10162
  157.5414  130.8122  149.8034 LP  0  0  0  0  0  0  0  0  0  0  0  0  # atno 17370 bound_to 10713
  156.0184  130.3805  150.2039 LP  0  0  0  0  0  0  0  0  0  0  0  0  # atno 17371 bound_to 10713
  140.0321  134.6391  155.9093 LP  0  0  0  0  0  0  0  0  0  0  0  0  # atno 17394 bound_to 11000
  141.1849  133.6554  156.5175 LP  0  0  0  0  0  0  0  0  0  0  0  0  # atno 17395 bound_to 11000

$$$$
