AV-unprocessed.smi:1616|AV-procd|sdf|6482|dock2
  -GOLD-   22720 7143D 1   1.00000     0.00000
 Structure written by MMmdl.
 38 39  0  0  0  0  0  0  0  0  1 V2000
  147.7925  141.1592  157.6499 C   0  0  0  0  0  0  0  0  0  0  0  0
  148.7892  140.0849  157.9924 C   0  0  0  0  0  0  0  0  0  0  0  0
  148.3181  138.8978  158.1898 N   0  0  0  0  0  0  0  0  0  0  0  0
  149.1451  137.8404  158.5160 N   0  0  0  0  0  0  0  0  0  0  0  0
  148.4355  136.5698  158.7268 C   0  0  0  0  0  0  0  0  0  0  0  0
  147.6090  136.5337  160.0212 C   0  0  0  0  0  0  0  0  0  0  0  0
  147.1198  137.5623  160.4913 O   0  0  0  0  0  0  0  0  0  0  0  0
  147.4535  135.3235  160.5799 N   0  0  0  0  0  0  0  0  0  0  0  0
  146.7021  135.0401  161.7987 C   0  0  2  0  0  0  0  0  0  0  0  0
  147.3625  135.7495  162.9913 C   0  0  0  0  0  0  0  0  0  0  0  0
  146.5654  133.5523  162.0617 C   0  0  0  0  0  0  0  0  0  0  0  0
  147.5970  132.5728  161.5555 C   0  0  0  0  0  0  0  0  0  0  0  0
  146.2113  132.5939  160.9498 C   0  0  0  0  0  0  0  0  0  0  0  0
  150.4997  137.9278  158.6544 C   0  0  0  0  0  0  0  0  0  0  0  0
  151.1994  136.9571  158.9478 O   0  0  0  0  0  0  0  0  0  0  0  0
  151.0271  139.2750  158.4252 C   0  0  0  0  0  0  0  0  0  0  0  0
  152.4413  139.4121  158.5613 C   0  0  0  0  0  0  0  0  0  0  0  0
  153.5857  139.5286  158.6926 N   0  0  0  0  0  0  0  0  0  0  0  0
  150.2246  140.3217  158.1073 C   0  0  0  0  0  0  0  0  0  0  0  0
  150.7213  141.7402  157.8628 C   0  0  0  0  0  0  0  0  0  0  0  0
  147.9949  141.5739  156.6621 H   0  0  0  0  0  0  0  0  0  0  0  0
  147.8361  141.9724  158.3747 H   0  0  0  0  0  0  0  0  0  0  0  0
  146.7697  140.7787  157.6443 H   0  0  0  0  0  0  0  0  0  0  0  0
  147.7616  136.3747  157.8905 H   0  0  0  0  0  0  0  0  0  0  0  0
  149.1440  135.7392  158.7289 H   0  0  0  0  0  0  0  0  0  0  0  0
  147.8881  134.5345  160.1235 H   0  0  0  0  0  0  0  0  0  0  0  0
  145.6926  135.4407  161.6878 H   0  0  0  0  0  0  0  0  0  0  0  0
  146.7990  135.5791  163.9093 H   0  0  0  0  0  0  0  0  0  0  0  0
  147.4120  136.8275  162.8344 H   0  0  0  0  0  0  0  0  0  0  0  0
  148.3791  135.3897  163.1539 H   0  0  0  0  0  0  0  0  0  0  0  0
  146.1312  133.3214  163.0330 H   0  0  0  0  0  0  0  0  0  0  0  0
  148.4145  132.9632  160.9525 H   0  0  0  0  0  0  0  0  0  0  0  0
  147.8521  131.7342  162.1999 H   0  0  0  0  0  0  0  0  0  0  0  0
  145.5438  131.7695  161.1913 H   0  0  0  0  0  0  0  0  0  0  0  0
  146.1101  132.9975  159.9443 H   0  0  0  0  0  0  0  0  0  0  0  0
  151.8063  141.8149  157.9284 H   0  0  0  0  0  0  0  0  0  0  0  0
  150.3001  142.4243  158.6000 H   0  0  0  0  0  0  0  0  0  0  0  0
  150.4312  142.0834  156.8691 H   0  0  0  0  0  0  0  0  0  0  0  0
  1  2  1  0  0  0  0
  1 21  1  0  0  0  0
  1 22  1  0  0  0  0
  1 23  1  0  0  0  0
  2 19  1  0  0  0  0
  2  3  2  0  0  0  0
  3  4  1  0  0  0  0
  4  5  1  0  0  0  0
  4 14  1  0  0  0  0
  5  6  1  0  0  0  0
  5 24  1  0  0  0  0
  5 25  1  0  0  0  0
  6  7  2  0  0  0  0
  6  8  1  0  0  0  0
  8  9  1  0  0  0  0
  8 26  1  0  0  0  0
  9 10  1  0  0  0  0
  9 11  1  0  0  0  0
  9 27  1  0  0  0  0
 10 28  1  0  0  0  0
 10 29  1  0  0  0  0
 10 30  1  0  0  0  0
 11 13  1  0  0  0  0
 11 12  1  0  0  0  0
 11 31  1  0  0  0  0
 12 13  1  0  0  0  0
 12 32  1  0  0  0  0
 12 33  1  0  0  0  0
 13 34  1  0  0  0  0
 13 35  1  0  0  0  0
 14 15  2  0  0  0  0
 14 16  1  0  0  0  0
 16 17  1  0  0  0  0
 16 19  2  0  0  0  0
 17 18  3  0  0  0  0
 19 20  1  0  0  0  0
 20 36  1  0  0  0  0
 20 37  1  0  0  0  0
 20 38  1  0  0  0  0
M  END
> <s_m_source_file>
AV-unprocessed.smi

> <i_m_source_file_index>
1616

> <i_lp_mmshare_version>
43012

> <i_f3d_flags>
0

> <s_epik_input>
TiNDYyhjMVtDSDNdKWMoPU8pbihuYzFbQ0gzXSlbQ0gyXUMoPU8pW05IXVtDQEhdKFtDSDNdKVtDSF0yW0NIMl1bQ0gyXTI=

> <s_epik_cmdline>
J2VwaWtfcHl0aG9uJywgJy1waCcsICc3LjAnLCAnLXRuJywgJzgnLCAnLW1hJywgJzIwMCcsICctbWV0YWxfYmluZGluZycsICctaW1hZScsICc8aW5maWxlLm1hZT4nLCAnLW9tYWUnLCAnPG91dGZpbGUubWFlPic=

> <r_lp_tautomer_probability>
1

> <r_epik_Ionization_Penalty>
1.93246e-08

> <r_epik_Ionization_Penalty_Charging>
2.27031e-11

> <r_epik_Ionization_Penalty_Neutral>
1.93019e-08

> <r_epik_State_Penalty>
-0

> <r_epik_Charging_Adjusted_Penalty>
2.27031e-11

> <i_epik_Tot_Q>
0

> <i_epik_Tot_abs_Q>
0

> <r_epik_Metal_State_Penalty>
-0

> <b_epik_Metal_Only>
0

> <s_lp_Force_Field>
OPLS_2005

> <r_lp_Energy>
28.018

> <b_lp_Chiralities_Consistent>
1

> <s_lp_Variant>
AV-unprocessed.smi:1616-1

> <Gold.Version>
5.8.1

> <Gold.Id.Protein>
6NUR|6NUR_protein|mol2

> <Gold.PLP.Fitness>
43.5611

> <Gold.PLP.PLP>
-34.6343

> <Gold.PLP.part.hbond>
-4.0338

> <Gold.PLP.part.metal>
0.0000

> <Gold.PLP.part.buried>
-5.0526

> <Gold.PLP.part.nonpolar>
-25.9630

> <Gold.PLP.part.repulsive>
0.1045

> <Gold.PLP.ligand.clash>
0.0000

> <Gold.PLP.ligand.torsion>
1.0893

> <Gold.PLP.Chemscore.Hbond>
3.3463

> <Gold.PLP.Chemscore.CHOScore>
0.0000

> <Gold.PLP.Chemscore.Metal>
0.0000

> <Gold.Chemscore.Hbonds>
donor molecule, donor type, donor heavy atom, donor atom, acceptor molecule, acceptor atom, score
      P1  H  6896  6907       L1    15  0.94
      P1  H  6934  6947       L1     7  0.98
      P1  H  7997  8009       L1    18  1.00

> <Gold.PLP.Chemscore.Internal.Correction>
1.0665

> <Gold.Rescore>
     Score         DG    S(hbond)    S(metal)    S(lipo)     H(rot)  DE(clash)    DE(int)     intcor
     16.17     -18.47       2.92        0.00      64.55       1.68       0.00       2.30       ----

> <Gold.Chemscore.Fitness>
16.1740

> <Gold.Chemscore.DG>
-18.4716

> <Gold.Chemscore.ZeroCoef>
-5.4800

> <Gold.Chemscore.Hbond>
2.9168

> <Gold.Chemscore.Metal>
0.0000

> <Gold.Chemscore.Lipo>
64.5515

> <Gold.Chemscore.Internal_Hbond>
0.0000

> <Gold.Chemscore.DEClash>
0.0009

> <Gold.Chemscore.DEInternal>
2.2967

> <Gold.Chemscore.Rot>
1.6809

> <Gold.Chemscore.Internal.Correction>
   9.000000E+99

> <Gold.Chemscore.Hbonds>
donor molecule, donor type, donor heavy atom, donor atom, acceptor molecule, acceptor atom, score
      P1  H  6896  6907       L1    15  0.87
      P1  H  6934  6947       L1     7  0.92
      P1  H  7997  8009       L1    18  0.93

> <Gold.Chemscore.Hbond.Weighted>
-9.7421

> <Gold.Chemscore.Metal.Weighted>
-0.0000

> <Gold.Chemscore.Lipo.Weighted>
-7.5525

> <Gold.Chemscore.Internal_Hbond.Weighted>
0.0000

> <Gold.Chemscore.DEClash.Weighted>
0.0009

> <Gold.Chemscore.DEInternal.Weighted>
2.2967

> <Gold.Chemscore.Rot.Weighted>
4.3030

> <Gold.Chemscore.Internal.Correction.Weighted>
   9.000000E+99

> <Gold.Protein.RotatedTorsions>
[ 6907 6896 6895 6894 ] final  -14.45 input  -60.11 | X-H torsion
[ 7974 7965 7964 7962 ] final  173.92 input  175.53 | X-H torsion
[ 8008 7997 7996 7995 ] final  128.98 input   59.86 | X-H torsion
[ 10167 10162 10161 10158 ] final -161.02 input  -65.29 | X-H torsion
[ 10718 10713 10712 10709 ] final -163.67 input   66.30 | X-H torsion
[ 10763 10752 10751 10750 ] final  -40.45 input  -60.55 | X-H torsion
[ 11005 11000 10999 10996 ] final    3.85 input  -57.11 | X-H torsion

> <Gold.Protein.ActiveResidues>
 VAL166  LYS551  ARG553  GLY616  TRP617  ASP618  TYR619  PRO620  LYS621  CYS622 
 ASP623  PHE694  ASN695  SER759  ASP760  ASP761  ALA762  ILE779  LEU786  VAL792 
 PHE793  MET794  SER795  GLU796  ALA797  LYS798  CYS799  TRP800  GLU811  SER814 

> <Gold.Protein.RotatedAtoms>
  151.3392  135.0859  159.9364 H   0  0  0  0  0  0  0  0  0  0  0  0  # atno 6907 bound_to 6896
  152.5216  133.9465  159.7661 H   0  0  0  0  0  0  0  0  0  0  0  0  # atno 6908 bound_to 6896
  150.9818  133.6184  159.2751 H   0  0  0  0  0  0  0  0  0  0  0  0  # atno 6909 bound_to 6896
  144.7233  139.9720  143.6437 H   0  0  0  0  0  0  0  0  0  0  0  0  # atno 7974 bound_to 7965
  156.2927  140.2631  156.2525 H   0  0  0  0  0  0  0  0  0  0  0  0  # atno 8008 bound_to 7997
  154.9869  140.0389  157.2321 H   0  0  0  0  0  0  0  0  0  0  0  0  # atno 8009 bound_to 7997
  154.7721  140.2780  155.6134 H   0  0  0  0  0  0  0  0  0  0  0  0  # atno 8010 bound_to 7997
  139.6496  144.0109  152.2152 H   0  0  0  0  0  0  0  0  0  0  0  0  # atno 10167 bound_to 10162
  156.6280  130.8917  151.2971 H   0  0  0  0  0  0  0  0  0  0  0  0  # atno 10718 bound_to 10713
  153.9462  135.6756  153.4744 H   0  0  0  0  0  0  0  0  0  0  0  0  # atno 10763 bound_to 10752
  153.0907  135.4876  154.8681 H   0  0  0  0  0  0  0  0  0  0  0  0  # atno 10764 bound_to 10752
  154.7350  135.3147  154.8785 H   0  0  0  0  0  0  0  0  0  0  0  0  # atno 10765 bound_to 10752
  140.5885  133.9946  155.8078 H   0  0  0  0  0  0  0  0  0  0  0  0  # atno 11005 bound_to 11000
  146.0555  139.3553  143.0613 LP  0  0  0  0  0  0  0  0  0  0  0  0  # atno 17320 bound_to 7965
  145.8160  140.9703  143.0924 LP  0  0  0  0  0  0  0  0  0  0  0  0  # atno 17321 bound_to 7965
  139.9819  144.6422  150.7893 LP  0  0  0  0  0  0  0  0  0  0  0  0  # atno 17342 bound_to 10162
  140.7531  143.3003  151.3099 LP  0  0  0  0  0  0  0  0  0  0  0  0  # atno 17343 bound_to 10162
  157.7208  130.9556  150.1433 LP  0  0  0  0  0  0  0  0  0  0  0  0  # atno 17370 bound_to 10713
  156.2258  130.3678  149.8502 LP  0  0  0  0  0  0  0  0  0  0  0  0  # atno 17371 bound_to 10713
  141.0950  133.9858  157.3175 LP  0  0  0  0  0  0  0  0  0  0  0  0  # atno 17394 bound_to 11000
  139.9284  135.0201  156.8317 LP  0  0  0  0  0  0  0  0  0  0  0  0  # atno 17395 bound_to 11000

$$$$
