AV-unprocessed.smi:224|AV-procd|sdf|1716|dock5
  -GOLD-   2262020193D 1   1.00000     0.00000
 Structure written by MMmdl.
 56 59  0  0  0  0  0  0  0  0  2 V2000
  144.9953  133.1927  151.2634 C   0  0  0  0  0  0  0  0  0  0  0  0
  145.4556  131.7813  150.8764 C   0  0  1  0  0  0  0  0  0  0  0  0
  146.5265  131.9115  149.9630 O   0  0  0  0  0  0  0  0  0  0  0  0
  145.9242  130.9767  152.1054 C   0  0  0  0  0  0  0  0  0  0  0  0
  147.3068  131.3224  152.5285 N   0  3  2  0  0  0  0  0  0  0  0  0
  147.8947  130.3632  153.5025 C   0  0  0  0  0  0  0  0  0  0  0  0
  149.3704  130.6985  153.7844 C   0  0  0  0  0  0  0  0  0  0  0  0
  149.5287  132.0948  154.1868 N   0  0  0  0  0  0  0  0  0  0  0  0
  149.4923  132.4181  155.5081 C   0  0  0  0  0  0  0  0  0  0  0  0
  149.7672  131.4663  156.4403 N   0  0  0  0  0  0  0  0  0  0  0  0
  149.7116  131.7555  157.7431 C   0  0  0  0  0  0  0  0  0  0  0  0
  149.4125  132.9165  158.3263 N   0  0  0  0  0  0  0  0  0  0  0  0
  149.1561  133.8837  157.4005 C   0  0  0  0  0  0  0  0  0  0  0  0
  149.1725  133.7223  155.9855 C   0  0  0  0  0  0  0  0  0  0  0  0
  148.8687  134.9328  155.3725 N   0  0  0  0  0  0  0  0  0  0  0  0
  148.6734  135.7564  156.3655 C   0  0  0  0  0  0  0  0  0  0  0  0
  148.8317  135.2109  157.6191 N   0  0  0  0  0  0  0  0  0  0  0  0
  148.6806  135.8956  158.8937 C   0  0  0  0  0  0  0  0  0  0  0  0
  147.5035  135.3625  159.7433 C   0  0  1  0  0  0  0  0  0  0  0  0
  146.3097  135.4394  158.9835 O   0  0  0  0  0  0  0  0  0  0  0  0
  147.6806  133.9231  160.2200 C   0  0  0  0  0  0  0  0  0  0  0  0
  146.9732  133.9214  161.5678 C   0  0  0  0  0  0  0  0  0  0  0  0
  147.3360  135.1813  162.1050 O   0  0  0  0  0  0  0  0  0  0  0  0
  147.2973  136.1439  161.0565 C   0  0  0  0  0  0  0  0  0  0  0  0
  148.9559  133.0578  153.2473 C   0  0  0  0  0  0  0  0  0  0  0  0
  147.4735  132.7491  152.9378 C   0  0  2  0  0  0  0  0  0  0  0  0
  146.5354  133.1693  154.0905 C   0  0  0  0  0  0  0  0  0  0  0  0
  144.1533  133.1538  151.9552 H   0  0  0  0  0  0  0  0  0  0  0  0
  144.6739  133.7565  150.3868 H   0  0  0  0  0  0  0  0  0  0  0  0
  145.7956  133.7551  151.7458 H   0  0  0  0  0  0  0  0  0  0  0  0
  144.6306  131.2806  150.3711 H   0  0  0  0  0  0  0  0  0  0  0  0
  147.2722  131.4329  150.2906 H   0  0  0  0  0  0  0  0  0  0  0  0
  145.2276  131.1635  152.9244 H   0  0  0  0  0  0  0  0  0  0  0  0
  145.8728  129.9063  151.8999 H   0  0  0  0  0  0  0  0  0  0  0  0
  147.3175  130.3760  154.4276 H   0  0  0  0  0  0  0  0  0  0  0  0
  147.8346  129.3460  153.1184 H   0  0  0  0  0  0  0  0  0  0  0  0
  149.7868  130.0203  154.5305 H   0  0  0  0  0  0  0  0  0  0  0  0
  149.9581  130.5420  152.8790 H   0  0  0  0  0  0  0  0  0  0  0  0
  149.9380  130.9406  158.4148 H   0  0  0  0  0  0  0  0  0  0  0  0
  148.4122  136.7928  156.2092 H   0  0  0  0  0  0  0  0  0  0  0  0
  149.6163  135.7921  159.4450 H   0  0  0  0  0  0  0  0  0  0  0  0
  148.5570  136.9622  158.7016 H   0  0  0  0  0  0  0  0  0  0  0  0
  145.8608  134.6101  159.0450 H   0  0  0  0  0  0  0  0  0  0  0  0
  147.2905  133.1766  159.5265 H   0  0  0  0  0  0  0  0  0  0  0  0
  148.7371  133.7061  160.3817 H   0  0  0  0  0  0  0  0  0  0  0  0
  145.8905  133.8692  161.4446 H   0  0  0  0  0  0  0  0  0  0  0  0
  147.2905  133.1009  162.2115 H   0  0  0  0  0  0  0  0  0  0  0  0
  148.0759  136.8885  161.2252 H   0  0  0  0  0  0  0  0  0  0  0  0
  146.3391  136.6658  161.0773 H   0  0  0  0  0  0  0  0  0  0  0  0
  149.0519  134.0854  153.5939 H   0  0  0  0  0  0  0  0  0  0  0  0
  149.5364  133.0006  152.3259 H   0  0  0  0  0  0  0  0  0  0  0  0
  147.2027  133.3600  152.0755 H   0  0  0  0  0  0  0  0  0  0  0  0
  146.7123  134.2078  154.3714 H   0  0  0  0  0  0  0  0  0  0  0  0
  146.6791  132.5636  154.9841 H   0  0  0  0  0  0  0  0  0  0  0  0
  145.4860  133.0921  153.8071 H   0  0  0  0  0  0  0  0  0  0  0  0
  147.8675  131.2345  151.6934 H   0  0  0  0  0  0  0  0  0  0  0  0
  1  2  1  0  0  0  0
  1 28  1  0  0  0  0
  1 29  1  0  0  0  0
  1 30  1  0  0  0  0
  2  3  1  0  0  0  0
  2  4  1  0  0  0  0
  2 31  1  0  0  0  0
  3 32  1  0  0  0  0
  4  5  1  0  0  0  0
  4 33  1  0  0  0  0
  4 34  1  0  0  0  0
  5 26  1  0  0  0  0
  5  6  1  0  0  0  0
  5 56  1  0  0  0  0
  6  7  1  0  0  0  0
  6 35  1  0  0  0  0
  6 36  1  0  0  0  0
  7  8  1  0  0  0  0
  7 37  1  0  0  0  0
  7 38  1  0  0  0  0
  8  9  1  0  0  0  0
  8 25  1  0  0  0  0
  9 14  1  0  0  0  0
  9 10  2  0  0  0  0
 10 11  1  0  0  0  0
 11 12  2  0  0  0  0
 11 39  1  0  0  0  0
 12 13  1  0  0  0  0
 13 17  1  0  0  0  0
 13 14  2  0  0  0  0
 14 15  1  0  0  0  0
 15 16  2  0  0  0  0
 16 17  1  0  0  0  0
 16 40  1  0  0  0  0
 17 18  1  0  0  0  0
 18 19  1  0  0  0  0
 18 41  1  0  0  0  0
 18 42  1  0  0  0  0
 19 24  1  0  0  0  0
 19 20  1  0  0  0  0
 19 21  1  0  0  0  0
 20 43  1  0  0  0  0
 21 22  1  0  0  0  0
 21 44  1  0  0  0  0
 21 45  1  0  0  0  0
 22 23  1  0  0  0  0
 22 46  1  0  0  0  0
 22 47  1  0  0  0  0
 23 24  1  0  0  0  0
 24 48  1  0  0  0  0
 24 49  1  0  0  0  0
 25 26  1  0  0  0  0
 25 50  1  0  0  0  0
 25 51  1  0  0  0  0
 26 27  1  0  0  0  0
 26 52  1  0  0  0  0
 27 53  1  0  0  0  0
 27 54  1  0  0  0  0
 27 55  1  0  0  0  0
M  CHG  1   5   1
M  END
> <s_m_source_file>
AV-unprocessed.smi

> <i_m_source_file_index>
224

> <i_lp_mmshare_version>
43012

> <i_f3d_flags>
0

> <s_epik_input>
W0NIM11bQ0BIXShbT0hdKVtDSDJdTjFbQ0gyXVtDSDJdTihbQ0gyXVtDQEhdMVtDSDNdKWMobltjSF1uMiljKGMyMyluW2NIXW4zW0NIMl1bQ0BAXTQoW09IXSlbQ0gyXVtDSDJdT1tDSDJdNA==

> <s_epik_cmdline>
J2VwaWtfcHl0aG9uJywgJy1waCcsICc3LjAnLCAnLXRuJywgJzgnLCAnLW1hJywgJzIwMCcsICctbWV0YWxfYmluZGluZycsICctaW1hZScsICc8aW5maWxlLm1hZT4nLCAnLW9tYWUnLCAnPG91dGZpbGUubWFlPic=

> <r_lp_tautomer_probability>
1

> <r_epik_Ionization_Penalty>
0.00516958

> <r_epik_Ionization_Penalty_Charging>
0.00509693

> <r_epik_Ionization_Penalty_Neutral>
7.26542e-05

> <r_epik_State_Penalty>
-0

> <r_epik_Charging_Adjusted_Penalty>
0.00509693

> <i_epik_Tot_Q>
1

> <i_epik_Tot_abs_Q>
1

> <r_epik_Metal_State_Penalty>
-0

> <b_epik_Metal_Only>
0

> <s_lp_Force_Field>
OPLS_2005

> <r_lp_Energy>
50.5155

> <b_lp_Chiralities_Consistent>
1

> <s_lp_Variant>
AV-unprocessed.smi:224-10

> <Gold.Version>
5.8.1

> <Gold.Id.Protein>
6NUR|6NUR_protein|mol2

> <Gold.PLP.Fitness>
45.5564

> <Gold.PLP.PLP>
-37.0606

> <Gold.PLP.part.hbond>
-3.0000

> <Gold.PLP.part.metal>
0.0000

> <Gold.PLP.part.buried>
-7.3790

> <Gold.PLP.part.nonpolar>
-26.7571

> <Gold.PLP.part.repulsive>
0.0827

> <Gold.PLP.ligand.clash>
0.0000

> <Gold.PLP.ligand.torsion>
0.4182

> <Gold.PLP.Chemscore.Hbond>
3.0000

> <Gold.PLP.Chemscore.CHOScore>
0.0000

> <Gold.PLP.Chemscore.Metal>
0.0000

> <Gold.Chemscore.Hbonds>
donor molecule, donor type, donor heavy atom, donor atom, acceptor molecule, acceptor atom, score
      L1  H     3    32       P1 10747  1.00
      L1  H     5    56       P1 10747  1.00
      P1  H  6896  6907       L1    12  0.99

> <Gold.PLP.Chemscore.Internal.Correction>
0.3321

> <Gold.Rescore>
     Score         DG    S(hbond)    S(metal)    S(lipo)     H(rot)  DE(clash)    DE(int)     intcor
     12.50     -15.79       2.60        0.00      80.02       3.02       0.00       3.29       ----

> <Gold.Chemscore.Fitness>
12.5015

> <Gold.Chemscore.DG>
-15.7911

> <Gold.Chemscore.ZeroCoef>
-5.4800

> <Gold.Chemscore.Hbond>
2.6010

> <Gold.Chemscore.Metal>
0.0000

> <Gold.Chemscore.Lipo>
80.0237

> <Gold.Chemscore.Internal_Hbond>
0.0000

> <Gold.Chemscore.DEClash>
0.0009

> <Gold.Chemscore.DEInternal>
3.2887

> <Gold.Chemscore.Rot>
3.0231

> <Gold.Chemscore.Internal.Correction>
   9.000000E+99

> <Gold.Chemscore.Hbonds>
donor molecule, donor type, donor heavy atom, donor atom, acceptor molecule, acceptor atom, score
      L1  H     3    32       P1 10747  0.98
      L1  H     5    56       P1 10747  1.00
      P1  H  6896  6907       L1    12  0.26

> <Gold.Chemscore.Hbond.Weighted>
-8.6874

> <Gold.Chemscore.Metal.Weighted>
-0.0000

> <Gold.Chemscore.Lipo.Weighted>
-9.3628

> <Gold.Chemscore.Internal_Hbond.Weighted>
0.0000

> <Gold.Chemscore.DEClash.Weighted>
0.0009

> <Gold.Chemscore.DEInternal.Weighted>
3.2887

> <Gold.Chemscore.Rot.Weighted>
7.7391

> <Gold.Chemscore.Internal.Correction.Weighted>
   9.000000E+99

> <Gold.Protein.RotatedTorsions>
[ 6907 6896 6895 6894 ] final -143.35 input  -60.11 | X-H torsion
[ 7974 7965 7964 7962 ] final -153.47 input  175.53 | X-H torsion
[ 8008 7997 7996 7995 ] final  -55.44 input   59.86 | X-H torsion
[ 10167 10162 10161 10158 ] final   26.50 input  -65.29 | X-H torsion
[ 10718 10713 10712 10709 ] final  -58.98 input   66.30 | X-H torsion
[ 10763 10752 10751 10750 ] final   -9.31 input  -60.55 | X-H torsion
[ 11005 11000 10999 10996 ] final  -29.10 input  -57.11 | X-H torsion

> <Gold.Protein.ActiveResidues>
 VAL166  LYS551  ARG553  GLY616  TRP617  ASP618  TYR619  PRO620  LYS621  CYS622 
 ASP623  PHE694  ASN695  SER759  ASP760  ASP761  ALA762  ILE779  LEU786  VAL792 
 PHE793  MET794  SER795  GLU796  ALA797  LYS798  CYS799  TRP800  GLU811  SER814 

> <Gold.Protein.RotatedAtoms>
  151.0993  133.5256  159.2610 H   0  0  0  0  0  0  0  0  0  0  0  0  # atno 6907 bound_to 6896
  151.2093  135.0474  159.8914 H   0  0  0  0  0  0  0  0  0  0  0  0  # atno 6908 bound_to 6896
  152.5441  134.0810  159.8289 H   0  0  0  0  0  0  0  0  0  0  0  0  # atno 6909 bound_to 6896
  144.7739  140.4521  143.5887 H   0  0  0  0  0  0  0  0  0  0  0  0  # atno 7974 bound_to 7965
  154.4195  140.1153  156.5477 H   0  0  0  0  0  0  0  0  0  0  0  0  # atno 8008 bound_to 7997
  155.6442  140.3496  155.4706 H   0  0  0  0  0  0  0  0  0  0  0  0  # atno 8009 bound_to 7997
  155.9846  140.1167  157.0685 H   0  0  0  0  0  0  0  0  0  0  0  0  # atno 8010 bound_to 7997
  140.5018  144.0303  150.6336 H   0  0  0  0  0  0  0  0  0  0  0  0  # atno 10167 bound_to 10162
  156.1095  130.4176  150.0652 H   0  0  0  0  0  0  0  0  0  0  0  0  # atno 10718 bound_to 10713
  153.4529  135.7015  153.6097 H   0  0  0  0  0  0  0  0  0  0  0  0  # atno 10763 bound_to 10752
  153.4424  135.3777  155.2236 H   0  0  0  0  0  0  0  0  0  0  0  0  # atno 10764 bound_to 10752
  154.8728  135.3977  154.3944 H   0  0  0  0  0  0  0  0  0  0  0  0  # atno 10765 bound_to 10752
  140.9267  133.7364  156.0877 H   0  0  0  0  0  0  0  0  0  0  0  0  # atno 11005 bound_to 11000
  145.6243  139.1528  143.3005 LP  0  0  0  0  0  0  0  0  0  0  0  0  # atno 17320 bound_to 7965
  146.1905  140.6351  142.9148 LP  0  0  0  0  0  0  0  0  0  0  0  0  # atno 17321 bound_to 7965
  140.3601  143.2913  152.0393 LP  0  0  0  0  0  0  0  0  0  0  0  0  # atno 17342 bound_to 10162
  139.4874  144.6309  151.7071 LP  0  0  0  0  0  0  0  0  0  0  0  0  # atno 17343 bound_to 10162
  156.8619  130.9494  151.3617 LP  0  0  0  0  0  0  0  0  0  0  0  0  # atno 17370 bound_to 10713
  157.6275  130.8703  149.9215 LP  0  0  0  0  0  0  0  0  0  0  0  0  # atno 17371 bound_to 10713
  140.7917  134.3610  157.5463 LP  0  0  0  0  0  0  0  0  0  0  0  0  # atno 17394 bound_to 11000
  139.8787  134.9144  156.3106 LP  0  0  0  0  0  0  0  0  0  0  0  0  # atno 17395 bound_to 11000

$$$$
