AV-unprocessed.smi:1|AV-procd|sdf|23|dock7
  -GOLD-   2262015133D 1   1.00000     0.00000
 Structure written by MMmdl.
 56 61  0  0  0  0  0  0  0  0  2 V2000
  154.9475  139.6729  160.3451 O   0  0  0  0  0  0  0  0  0  0  0  0
  153.8805  140.2486  160.1219 C   0  0  0  0  0  0  0  0  0  0  0  0
  152.9965  140.0076  159.1210 N   0  5  0  0  0  0  0  0  0  0  0  0
  153.1076  138.8925  158.3842 C   0  0  0  0  0  0  0  0  0  0  0  0
  154.3193  138.4867  157.9257 N   0  0  0  0  0  0  0  0  0  0  0  0
  154.4241  137.3807  157.1794 C   0  0  0  0  0  0  0  0  0  0  0  0
  153.4614  136.5482  156.7706 N   0  0  0  0  0  0  0  0  0  0  0  0
  152.2371  136.9508  157.2216 C   0  0  0  0  0  0  0  0  0  0  0  0
  151.9838  138.1006  158.0236 C   0  0  0  0  0  0  0  0  0  0  0  0
  150.6296  138.2186  158.3022 N   0  0  0  0  0  0  0  0  0  0  0  0
  150.1316  137.1580  157.6706 C   0  0  0  0  0  0  0  0  0  0  0  0
  150.9993  136.3680  157.0082 N   0  0  0  0  0  0  0  0  0  0  0  0
  150.6956  135.1398  156.2233 C   0  0  2  0  0  0  0  0  0  0  0  0
  150.0068  135.5000  155.0713 O   0  0  0  0  0  0  0  0  0  0  0  0
  149.1232  134.4484  154.6876 C   0  0  2  0  0  0  0  0  0  0  0  0
  147.7548  135.0673  154.3778 C   0  0  0  0  0  0  0  0  0  0  0  0
  147.0450  134.2124  153.4966 O   0  0  0  0  0  0  0  0  0  0  0  0
  145.9584  134.6658  152.8429 C   0  0  0  0  0  0  0  0  0  0  0  0
  145.5310  135.8174  152.9458 O   0  0  0  0  0  0  0  0  0  0  0  0
  145.3273  133.6264  151.9790 C   0  0  0  0  0  0  0  0  0  0  0  0
  146.1203  132.5704  151.4722 C   0  0  0  0  0  0  0  0  0  0  0  0
  145.5514  131.5741  150.6548 C   0  0  0  0  0  0  0  0  0  0  0  0
  144.1825  131.6222  150.3334 C   0  0  0  0  0  0  0  0  0  0  0  0
  143.3830  132.6680  150.8302 C   0  0  0  0  0  0  0  0  0  0  0  0
  143.9499  133.6647  151.6482 C   0  0  0  0  0  0  0  0  0  0  0  0
  149.0918  133.4538  155.8596 C   0  0  1  0  0  0  0  0  0  0  0  0
  149.8634  132.3071  155.5421 O   0  0  0  0  0  0  0  0  0  0  0  0
  150.8154  131.9194  156.8597 S   0  0  0  0  0  0  0  0  0  0  0  0
  150.2095  130.7682  157.5458 O   0  0  0  0  0  0  0  0  0  0  0  0
  152.2221  131.9360  156.4303 O   0  0  0  0  0  0  0  0  0  0  0  0
  150.5319  133.2839  157.7803 O   0  0  0  0  0  0  0  0  0  0  0  0
  149.7819  134.1998  157.0040 C   0  0  1  0  0  0  0  0  0  0  0  0
  153.4833  141.4060  160.9982 C   0  0  0  0  0  0  0  0  0  0  0  0
  152.6068  142.3952  160.4975 C   0  0  0  0  0  0  0  0  0  0  0  0
  152.2461  143.5010  161.2920 C   0  0  0  0  0  0  0  0  0  0  0  0
  152.7668  143.6347  162.5927 C   0  0  0  0  0  0  0  0  0  0  0  0
  153.6514  142.6632  163.0973 C   0  0  0  0  0  0  0  0  0  0  0  0
  154.0116  141.5565  162.3039 C   0  0  0  0  0  0  0  0  0  0  0  0
  155.4244  137.1278  156.8610 H   0  0  0  0  0  0  0  0  0  0  0  0
  149.0724  136.9469  157.6847 H   0  0  0  0  0  0  0  0  0  0  0  0
  151.6609  134.7029  155.9631 H   0  0  0  0  0  0  0  0  0  0  0  0
  149.5222  133.9719  153.7909 H   0  0  0  0  0  0  0  0  0  0  0  0
  147.1884  135.2237  155.2971 H   0  0  0  0  0  0  0  0  0  0  0  0
  147.8888  136.0406  153.9040 H   0  0  0  0  0  0  0  0  0  0  0  0
  147.1737  132.5118  151.7059 H   0  0  0  0  0  0  0  0  0  0  0  0
  146.1665  130.7718  150.2746 H   0  0  0  0  0  0  0  0  0  0  0  0
  143.7462  130.8579  149.7072 H   0  0  0  0  0  0  0  0  0  0  0  0
  142.3320  132.7063  150.5840 H   0  0  0  0  0  0  0  0  0  0  0  0
  143.3074  134.4532  152.0119 H   0  0  0  0  0  0  0  0  0  0  0  0
  148.0838  133.1358  156.1288 H   0  0  0  0  0  0  0  0  0  0  0  0
  149.0615  134.7600  157.6006 H   0  0  0  0  0  0  0  0  0  0  0  0
  152.2008  142.3088  159.4998 H   0  0  0  0  0  0  0  0  0  0  0  0
  151.5706  144.2477  160.9016 H   0  0  0  0  0  0  0  0  0  0  0  0
  152.4914  144.4834  163.2009 H   0  0  0  0  0  0  0  0  0  0  0  0
  154.0576  142.7671  164.0926 H   0  0  0  0  0  0  0  0  0  0  0  0
  154.7011  140.8277  162.7057 H   0  0  0  0  0  0  0  0  0  0  0  0
  1  2  2  0  0  0  0
  2  3  1  0  0  0  0
  2 33  1  0  0  0  0
  3  4  1  0  0  0  0
  4  9  1  0  0  0  0
  4  5  2  0  0  0  0
  5  6  1  0  0  0  0
  6  7  2  0  0  0  0
  6 39  1  0  0  0  0
  7  8  1  0  0  0  0
  8 12  1  0  0  0  0
  8  9  2  0  0  0  0
  9 10  1  0  0  0  0
 10 11  2  0  0  0  0
 11 12  1  0  0  0  0
 11 40  1  0  0  0  0
 12 13  1  0  0  0  0
 13 32  1  0  0  0  0
 13 14  1  0  0  0  0
 13 41  1  0  0  0  0
 14 15  1  0  0  0  0
 15 16  1  0  0  0  0
 15 26  1  0  0  0  0
 15 42  1  0  0  0  0
 16 17  1  0  0  0  0
 16 43  1  0  0  0  0
 16 44  1  0  0  0  0
 17 18  1  0  0  0  0
 18 19  2  0  0  0  0
 18 20  1  0  0  0  0
 20 25  1  0  0  0  0
 20 21  2  0  0  0  0
 21 22  1  0  0  0  0
 21 45  1  0  0  0  0
 22 23  2  0  0  0  0
 22 46  1  0  0  0  0
 23 24  1  0  0  0  0
 23 47  1  0  0  0  0
 24 25  2  0  0  0  0
 24 48  1  0  0  0  0
 25 49  1  0  0  0  0
 26 32  1  0  0  0  0
 26 27  1  0  0  0  0
 26 50  1  0  0  0  0
 27 28  1  0  0  0  0
 28 29  2  0  0  0  0
 28 30  2  0  0  0  0
 28 31  1  0  0  0  0
 31 32  1  0  0  0  0
 32 51  1  0  0  0  0
 33 38  1  0  0  0  0
 33 34  2  0  0  0  0
 34 35  1  0  0  0  0
 34 52  1  0  0  0  0
 35 36  2  0  0  0  0
 35 53  1  0  0  0  0
 36 37  1  0  0  0  0
 36 54  1  0  0  0  0
 37 38  2  0  0  0  0
 37 55  1  0  0  0  0
 38 56  1  0  0  0  0
M  CHG  1   3  -1
M  END
> <s_m_source_file>
AV-unprocessed.smi

> <i_m_source_file_index>
1

> <i_lp_mmshare_version>
43012

> <i_f3d_flags>
0

> <s_epik_input>
W2NIXTFbY0hdW2NIXVtjSF1bY0hdYzFDKD1PKVtOSF1jKG5bY0hdbjIpYyhjMjMpbltjSF1uM1tDQEBIXShbQ0BIXShbQ0BIXTQ1KU9TKE81KSg9Tyk9TylPW0NASF00W0NIMl1PQyg9TyljNltjSF1bY0hdW2NIXVtjSF1bY0hdNg==

> <s_epik_cmdline>
J2VwaWtfcHl0aG9uJywgJy1waCcsICc3LjAnLCAnLXRuJywgJzgnLCAnLW1hJywgJzIwMCcsICctbWV0YWxfYmluZGluZycsICctaW1hZScsICc8aW5maWxlLm1hZT4nLCAnLW9tYWUnLCAnPG91dGZpbGUubWFlPic=

> <r_lp_tautomer_probability>
1

> <r_epik_Ionization_Penalty>
4.39121

> <r_epik_Ionization_Penalty_Charging>
3.39398

> <r_epik_Ionization_Penalty_Neutral>
0.997232

> <r_epik_State_Penalty>
3.39839

> <r_epik_Charging_Adjusted_Penalty>
6.79237

> <i_epik_Tot_Q>
-1

> <i_epik_Tot_abs_Q>
1

> <r_epik_Metal_State_Penalty>
0.497663

> <b_epik_Metal_Only>
1

> <s_epik_Chemistry_Notes>
This compound has an ester and may undergo hydrolysis at high or low pH. This compound contains an acetal/aminal-like group ( X-CH(R)-Y where X, Y are N, S, or O) that may be acid/base labile, releasing an aldehyde.

> <s_lp_Force_Field>
OPLS_2005

> <r_lp_Energy>
40.5787

> <b_lp_Chiralities_Consistent>
1

> <s_lp_Variant>
AV-unprocessed.smi:1-23

> <Gold.Version>
5.8.1

> <Gold.Id.Protein>
6NUR|6NUR_protein|mol2

> <Gold.PLP.Fitness>
57.7857

> <Gold.PLP.PLP>
-54.1904

> <Gold.PLP.part.hbond>
-2.7979

> <Gold.PLP.part.metal>
0.0000

> <Gold.PLP.part.buried>
-4.6727

> <Gold.PLP.part.nonpolar>
-47.2906

> <Gold.PLP.part.repulsive>
0.3506

> <Gold.PLP.ligand.clash>
0.0000

> <Gold.PLP.ligand.torsion>
1.4646

> <Gold.PLP.Chemscore.Hbond>
1.9760

> <Gold.PLP.Chemscore.CHOScore>
0.0000

> <Gold.PLP.Chemscore.Metal>
0.0000

> <Gold.Chemscore.Hbonds>
donor molecule, donor type, donor heavy atom, donor atom, acceptor molecule, acceptor atom, score
      P1  H  7997  8009       L1     5  0.96
      P1  H 10752 10765       L1     7  0.99

> <Gold.PLP.Chemscore.Internal.Correction>
0.5964

> <Gold.Rescore>
     Score         DG    S(hbond)    S(metal)    S(lipo)     H(rot)  DE(clash)    DE(int)     intcor
     16.36     -20.85       1.60        0.00     132.10       2.11       1.69       2.80       ----

> <Gold.Chemscore.Fitness>
16.3632

> <Gold.Chemscore.DG>
-20.8544

> <Gold.Chemscore.ZeroCoef>
-5.4800

> <Gold.Chemscore.Hbond>
1.5958

> <Gold.Chemscore.Metal>
0.0000

> <Gold.Chemscore.Lipo>
132.0953

> <Gold.Chemscore.Internal_Hbond>
0.0000

> <Gold.Chemscore.DEClash>
1.6893

> <Gold.Chemscore.DEInternal>
2.8019

> <Gold.Chemscore.Rot>
2.1136

> <Gold.Chemscore.Internal.Correction>
   9.000000E+99

> <Gold.Chemscore.Hbonds>
donor molecule, donor type, donor heavy atom, donor atom, acceptor molecule, acceptor atom, score
      P1  H  7997  8009       L1     5  0.26
      P1  H 10752 10765       L1     7  0.92

> <Gold.Chemscore.Hbond.Weighted>
-5.3300

> <Gold.Chemscore.Metal.Weighted>
-0.0000

> <Gold.Chemscore.Lipo.Weighted>
-15.4551

> <Gold.Chemscore.Internal_Hbond.Weighted>
0.0000

> <Gold.Chemscore.DEClash.Weighted>
1.6893

> <Gold.Chemscore.DEInternal.Weighted>
2.8019

> <Gold.Chemscore.Rot.Weighted>
5.4107

> <Gold.Chemscore.Internal.Correction.Weighted>
   9.000000E+99

> <Gold.Protein.RotatedTorsions>
[ 6907 6896 6895 6894 ] final   58.97 input  -60.11 | X-H torsion
[ 7974 7965 7964 7962 ] final -103.91 input  175.53 | X-H torsion
[ 8008 7997 7996 7995 ] final  131.94 input   59.86 | X-H torsion
[ 10167 10162 10161 10158 ] final   63.22 input  -65.29 | X-H torsion
[ 10718 10713 10712 10709 ] final   79.48 input   66.30 | X-H torsion
[ 10763 10752 10751 10750 ] final -121.26 input  -60.55 | X-H torsion
[ 11005 11000 10999 10996 ] final -138.41 input  -57.11 | X-H torsion

> <Gold.Protein.ActiveResidues>
 VAL166  LYS551  ARG553  GLY616  TRP617  ASP618  TYR619  PRO620  LYS621  CYS622 
 ASP623  PHE694  ASN695  SER759  ASP760  ASP761  ALA762  ILE779  LEU786  VAL792 
 PHE793  MET794  SER795  GLU796  ALA797  LYS798  CYS799  TRP800  GLU811  SER814 

> <Gold.Protein.RotatedAtoms>
  152.3872  134.6498  160.0120 H   0  0  0  0  0  0  0  0  0  0  0  0  # atno 6907 bound_to 6896
  151.6743  133.3307  159.3212 H   0  0  0  0  0  0  0  0  0  0  0  0  # atno 6908 bound_to 6896
  150.7796  134.6772  159.6469 H   0  0  0  0  0  0  0  0  0  0  0  0  # atno 6909 bound_to 6896
  145.2499  140.9234  143.3101 H   0  0  0  0  0  0  0  0  0  0  0  0  # atno 7974 bound_to 7965
  156.2976  140.2559  156.3007 H   0  0  0  0  0  0  0  0  0  0  0  0  # atno 8008 bound_to 7997
  154.9420  140.0396  157.2120 H   0  0  0  0  0  0  0  0  0  0  0  0  # atno 8009 bound_to 7997
  154.8117  140.2845  155.5853 H   0  0  0  0  0  0  0  0  0  0  0  0  # atno 8010 bound_to 7997
  140.1354  144.4604  150.6841 H   0  0  0  0  0  0  0  0  0  0  0  0  # atno 10167 bound_to 10162
  157.6778  130.9916  150.1938 H   0  0  0  0  0  0  0  0  0  0  0  0  # atno 10718 bound_to 10713
  154.8664  135.4174  154.2592 H   0  0  0  0  0  0  0  0  0  0  0  0  # atno 10763 bound_to 10752
  153.3523  135.6999  153.6784 H   0  0  0  0  0  0  0  0  0  0  0  0  # atno 10764 bound_to 10752
  153.5719  135.3589  155.2813 H   0  0  0  0  0  0  0  0  0  0  0  0  # atno 10765 bound_to 10752
  140.8618  134.2159  157.4703 H   0  0  0  0  0  0  0  0  0  0  0  0  # atno 11005 bound_to 11000
  144.9513  139.4080  143.6401 LP  0  0  0  0  0  0  0  0  0  0  0  0  # atno 17320 bound_to 7965
  146.3305  139.8521  142.8871 LP  0  0  0  0  0  0  0  0  0  0  0  0  # atno 17321 bound_to 7965
  140.6792  143.2319  151.5428 LP  0  0  0  0  0  0  0  0  0  0  0  0  # atno 17342 bound_to 10162
  139.5498  144.2424  152.1510 LP  0  0  0  0  0  0  0  0  0  0  0  0  # atno 17343 bound_to 10162
  156.2644  130.3714  149.8097 LP  0  0  0  0  0  0  0  0  0  0  0  0  # atno 17370 bound_to 10713
  156.5833  130.8475  151.3388 LP  0  0  0  0  0  0  0  0  0  0  0  0  # atno 17371 bound_to 10713
  139.8707  134.9733  156.4805 LP  0  0  0  0  0  0  0  0  0  0  0  0  # atno 17394 bound_to 11000
  140.8674  133.8014  155.9328 LP  0  0  0  0  0  0  0  0  0  0  0  0  # atno 17395 bound_to 11000

$$$$
