AV-unprocessed.smi:598|AV-procd|sdf|3022|dock1
  -GOLD-   2262023533D 1   1.00000     0.00000
 Structure written by MMmdl.
 43 44  0  0  0  0  0  0  0  0  3 V2000
  153.2871  143.0645  162.5180 C   0  0  0  0  0  0  0  0  0  0  0  0
  152.3174  143.5266  161.4175 C   0  0  1  0  0  0  0  0  0  0  0  0
  152.4862  145.0266  161.1010 C   0  0  0  0  0  0  0  0  0  0  0  0
  151.4497  145.5059  160.0728 C   0  0  0  0  0  0  0  0  0  0  0  0
  151.4889  144.6541  158.7952 C   0  0  0  0  0  0  0  0  0  0  0  0
  151.3115  143.1576  159.1170 C   0  0  1  0  0  0  0  0  0  0  0  0
  151.3166  142.3811  157.8792 N   0  0  0  0  0  0  0  0  0  0  0  0
  150.3070  141.6158  157.4372 C   0  0  0  0  0  0  0  0  0  0  0  0
  149.2311  141.5088  158.0271 O   0  0  0  0  0  0  0  0  0  0  0  0
  150.5539  140.8705  156.1184 C   0  0  0  0  0  0  0  0  0  0  0  0
  150.6033  139.4084  156.2855 N   0  0  0  0  0  0  0  0  0  0  0  0
  150.0490  138.8769  157.4671 C   0  0  0  0  0  0  0  0  0  0  0  0
  150.0455  137.5542  157.7241 C   0  0  0  0  0  0  0  0  0  0  0  0
  149.4766  137.0260  158.9448 N   0  3  0  0  0  0  0  0  0  0  0  0
  148.6974  137.7273  159.5822 O   0  0  0  0  0  0  0  0  0  0  0  0
  149.7894  135.8958  159.3077 O   0  5  0  0  0  0  0  0  0  0  0  0
  150.6378  136.6737  156.7354 C   0  0  0  0  0  0  0  0  0  0  0  0
  151.1719  137.1761  155.6048 C   0  0  0  0  0  0  0  0  0  0  0  0
  151.1757  138.6161  155.3277 C   0  0  0  0  0  0  0  0  0  0  0  0
  151.6637  139.0817  154.2976 O   0  0  0  0  0  0  0  0  0  0  0  0
  152.3783  142.6590  160.1316 C   0  0  1  0  0  0  0  0  0  0  0  0
  153.7959  142.5524  159.5217 C   0  0  0  0  0  0  0  0  0  0  0  0
  154.3266  143.2473  162.2453 H   0  0  0  0  0  0  0  0  0  0  0  0
  153.1737  141.9996  162.7223 H   0  0  0  0  0  0  0  0  0  0  0  0
  153.0989  143.5984  163.4498 H   0  0  0  0  0  0  0  0  0  0  0  0
  151.3147  143.4018  161.8296 H   0  0  0  0  0  0  0  0  0  0  0  0
  152.3824  145.6124  162.0150 H   0  0  0  0  0  0  0  0  0  0  0  0
  153.4919  145.2221  160.7282 H   0  0  0  0  0  0  0  0  0  0  0  0
  150.4524  145.4562  160.5117 H   0  0  0  0  0  0  0  0  0  0  0  0
  151.6256  146.5536  159.8272 H   0  0  0  0  0  0  0  0  0  0  0  0
  150.7019  144.9848  158.1163 H   0  0  0  0  0  0  0  0  0  0  0  0
  152.4317  144.8206  158.2730 H   0  0  0  0  0  0  0  0  0  0  0  0
  150.3272  143.0436  159.5757 H   0  0  0  0  0  0  0  0  0  0  0  0
  152.1621  142.4122  157.3282 H   0  0  0  0  0  0  0  0  0  0  0  0
  149.7674  141.1539  155.4178 H   0  0  0  0  0  0  0  0  0  0  0  0
  151.4819  141.2242  155.6646 H   0  0  0  0  0  0  0  0  0  0  0  0
  149.6402  139.6150  158.1423 H   0  0  0  0  0  0  0  0  0  0  0  0
  150.6590  135.6056  156.8946 H   0  0  0  0  0  0  0  0  0  0  0  0
  151.6094  136.5027  154.8824 H   0  0  0  0  0  0  0  0  0  0  0  0
  152.0974  141.6456  160.4219 H   0  0  0  0  0  0  0  0  0  0  0  0
  154.1861  143.5229  159.2174 H   0  0  0  0  0  0  0  0  0  0  0  0
  153.8076  141.9043  158.6454 H   0  0  0  0  0  0  0  0  0  0  0  0
  154.5031  142.1197  160.2282 H   0  0  0  0  0  0  0  0  0  0  0  0
  1  2  1  0  0  0  0
  1 23  1  0  0  0  0
  1 24  1  0  0  0  0
  1 25  1  0  0  0  0
  2 21  1  0  0  0  0
  2  3  1  0  0  0  0
  2 26  1  0  0  0  0
  3  4  1  0  0  0  0
  3 27  1  0  0  0  0
  3 28  1  0  0  0  0
  4  5  1  0  0  0  0
  4 29  1  0  0  0  0
  4 30  1  0  0  0  0
  5  6  1  0  0  0  0
  5 31  1  0  0  0  0
  5 32  1  0  0  0  0
  6  7  1  0  0  0  0
  6 21  1  0  0  0  0
  6 33  1  0  0  0  0
  7  8  1  0  0  0  0
  7 34  1  0  0  0  0
  8  9  2  0  0  0  0
  8 10  1  0  0  0  0
 10 11  1  0  0  0  0
 10 35  1  0  0  0  0
 10 36  1  0  0  0  0
 11 19  1  0  0  0  0
 11 12  1  0  0  0  0
 12 13  2  0  0  0  0
 12 37  1  0  0  0  0
 13 14  1  0  0  0  0
 13 17  1  0  0  0  0
 14 15  2  0  0  0  0
 14 16  1  0  0  0  0
 17 18  2  0  0  0  0
 17 38  1  0  0  0  0
 18 19  1  0  0  0  0
 18 39  1  0  0  0  0
 19 20  2  0  0  0  0
 21 22  1  0  0  0  0
 21 40  1  0  0  0  0
 22 41  1  0  0  0  0
 22 42  1  0  0  0  0
 22 43  1  0  0  0  0
M  CHG  1  14   1
M  CHG  1  16  -1
M  END
> <s_m_source_file>
AV-unprocessed.smi

> <i_m_source_file_index>
598

> <i_lp_mmshare_version>
43012

> <i_f3d_flags>
0

> <s_epik_input>
W0NIM11bQ0BASF0xW0NIMl1bQ0gyXVtDSDJdW0NASF0oW0NASF0xW0NIM10pW05IXUMoPU8pW0NIMl1uMltjSF1jKFtOK10oPU8pW08tXSlbY0hdW2NIXWMyPU8=

> <s_epik_cmdline>
J2VwaWtfcHl0aG9uJywgJy1waCcsICc3LjAnLCAnLXRuJywgJzgnLCAnLW1hJywgJzIwMCcsICctbWV0YWxfYmluZGluZycsICctaW1hZScsICc8aW5maWxlLm1hZT4nLCAnLW9tYWUnLCAnPG91dGZpbGUubWFlPic=

> <r_lp_tautomer_probability>
1

> <r_epik_Ionization_Penalty>
1.91291e-08

> <r_epik_Ionization_Penalty_Charging>
8.21931e-11

> <r_epik_Ionization_Penalty_Neutral>
1.90469e-08

> <r_epik_State_Penalty>
-0

> <r_epik_Charging_Adjusted_Penalty>
8.21931e-11

> <i_epik_Tot_Q>
0

> <i_epik_Tot_abs_Q>
2

> <r_epik_Metal_State_Penalty>
-0

> <b_epik_Metal_Only>
0

> <s_lp_Force_Field>
OPLS_2005

> <r_lp_Energy>
25.1906

> <b_lp_Chiralities_Consistent>
1

> <s_lp_Variant>
AV-unprocessed.smi:598-2

> <Gold.Version>
5.8.1

> <Gold.Id.Protein>
6NUR|6NUR_protein|mol2

> <Gold.PLP.Fitness>
46.8790

> <Gold.PLP.PLP>
-42.0712

> <Gold.PLP.part.hbond>
-3.6987

> <Gold.PLP.part.metal>
0.0000

> <Gold.PLP.part.buried>
-5.2617

> <Gold.PLP.part.nonpolar>
-33.8345

> <Gold.PLP.part.repulsive>
0.2420

> <Gold.PLP.ligand.clash>
0.0000

> <Gold.PLP.ligand.torsion>
0.4571

> <Gold.PLP.Chemscore.Hbond>
1.9014

> <Gold.PLP.Chemscore.CHOScore>
0.0000

> <Gold.PLP.Chemscore.Metal>
0.0000

> <Gold.Chemscore.Hbonds>
donor molecule, donor type, donor heavy atom, donor atom, acceptor molecule, acceptor atom, score
      P1  H  6896  6907       L1    16  0.98
      P1  H  6931  6943       L1    15  0.03
      P1  H  6934  6947       L1    15  0.04
      P1  H  7989  7998       L1    20  0.99

> <Gold.PLP.Chemscore.Internal.Correction>
0.0178

> <Gold.Rescore>
     Score         DG    S(hbond)    S(metal)    S(lipo)     H(rot)  DE(clash)    DE(int)     intcor
     19.11     -21.41       2.26        0.00     105.42       1.54       0.59       1.72       ----

> <Gold.Chemscore.Fitness>
19.1095

> <Gold.Chemscore.DG>
-21.4130

> <Gold.Chemscore.ZeroCoef>
-5.4800

> <Gold.Chemscore.Hbond>
2.2574

> <Gold.Chemscore.Metal>
0.0000

> <Gold.Chemscore.Lipo>
105.4179

> <Gold.Chemscore.Internal_Hbond>
0.0000

> <Gold.Chemscore.DEClash>
0.5873

> <Gold.Chemscore.DEInternal>
1.7162

> <Gold.Chemscore.Rot>
1.5393

> <Gold.Chemscore.Internal.Correction>
   9.000000E+99

> <Gold.Chemscore.Hbonds>
donor molecule, donor type, donor heavy atom, donor atom, acceptor molecule, acceptor atom, score
      P1  H  6896  6907       L1    16  0.91
      P1  H  6931  6943       L1    15  0.04
      P1  H  6934  6947       L1    15  0.04
      P1  H  7989  7998       L1    20  0.94

> <Gold.Chemscore.Hbond.Weighted>
-7.5398

> <Gold.Chemscore.Metal.Weighted>
-0.0000

> <Gold.Chemscore.Lipo.Weighted>
-12.3339

> <Gold.Chemscore.Internal_Hbond.Weighted>
0.0000

> <Gold.Chemscore.DEClash.Weighted>
0.5873

> <Gold.Chemscore.DEInternal.Weighted>
1.7162

> <Gold.Chemscore.Rot.Weighted>
3.9407

> <Gold.Chemscore.Internal.Correction.Weighted>
   9.000000E+99

> <Gold.Protein.RotatedTorsions>
[ 6907 6896 6895 6894 ] final  -54.20 input  -60.11 | X-H torsion
[ 7974 7965 7964 7962 ] final  164.76 input  175.53 | X-H torsion
[ 8008 7997 7996 7995 ] final  -66.81 input   59.86 | X-H torsion
[ 10167 10162 10161 10158 ] final    9.12 input  -65.29 | X-H torsion
[ 10718 10713 10712 10709 ] final  -35.37 input   66.30 | X-H torsion
[ 10763 10752 10751 10750 ] final   -4.51 input  -60.55 | X-H torsion
[ 11005 11000 10999 10996 ] final    8.08 input  -57.11 | X-H torsion

> <Gold.Protein.ActiveResidues>
 VAL166  LYS551  ARG553  GLY616  TRP617  ASP618  TYR619  PRO620  LYS621  CYS622 
 ASP623  PHE694  ASN695  SER759  ASP760  ASP761  ALA762  ILE779  LEU786  VAL792 
 PHE793  MET794  SER795  GLU796  ALA797  LYS798  CYS799  TRP800  GLU811  SER814 

> <Gold.Protein.RotatedAtoms>
  150.8359  134.7631  159.6891 H   0  0  0  0  0  0  0  0  0  0  0  0  # atno 6907 bound_to 6896
  152.4455  134.5499  159.9873 H   0  0  0  0  0  0  0  0  0  0  0  0  # atno 6908 bound_to 6896
  151.5650  133.3360  159.3014 H   0  0  0  0  0  0  0  0  0  0  0  0  # atno 6909 bound_to 6896
  144.7531  139.8373  143.6359 H   0  0  0  0  0  0  0  0  0  0  0  0  # atno 7974 bound_to 7965
  154.4759  140.0905  156.7260 H   0  0  0  0  0  0  0  0  0  0  0  0  # atno 8008 bound_to 7997
  155.4599  140.3460  155.4293 H   0  0  0  0  0  0  0  0  0  0  0  0  # atno 8009 bound_to 7997
  156.1115  140.1449  156.9320 H   0  0  0  0  0  0  0  0  0  0  0  0  # atno 8010 bound_to 7997
  140.6274  143.8070  150.7251 H   0  0  0  0  0  0  0  0  0  0  0  0  # atno 10167 bound_to 10162
  156.3395  130.4291  149.7800 H   0  0  0  0  0  0  0  0  0  0  0  0  # atno 10718 bound_to 10713
  153.3858  135.7000  153.6531 H   0  0  0  0  0  0  0  0  0  0  0  0  # atno 10763 bound_to 10752
  153.5124  135.3629  155.2593 H   0  0  0  0  0  0  0  0  0  0  0  0  # atno 10764 bound_to 10752
  154.8697  135.4138  154.3165 H   0  0  0  0  0  0  0  0  0  0  0  0  # atno 10765 bound_to 10752
  140.5410  134.0375  155.7904 H   0  0  0  0  0  0  0  0  0  0  0  0  # atno 11005 bound_to 11000
  146.1507  139.4590  143.0050 LP  0  0  0  0  0  0  0  0  0  0  0  0  # atno 17320 bound_to 7965
  145.6874  141.0174  143.1574 LP  0  0  0  0  0  0  0  0  0  0  0  0  # atno 17321 bound_to 7965
  140.1674  143.4223  152.2025 LP  0  0  0  0  0  0  0  0  0  0  0  0  # atno 17342 bound_to 10162
  139.5492  144.7324  151.4487 LP  0  0  0  0  0  0  0  0  0  0  0  0  # atno 17343 bound_to 10162
  156.5042  130.8142  151.3144 LP  0  0  0  0  0  0  0  0  0  0  0  0  # atno 17370 bound_to 10713
  157.7444  130.9935  150.2673 LP  0  0  0  0  0  0  0  0  0  0  0  0  # atno 17371 bound_to 10713
  141.1227  133.9434  157.2697 LP  0  0  0  0  0  0  0  0  0  0  0  0  # atno 17394 bound_to 11000
  139.9504  135.0176  156.8977 LP  0  0  0  0  0  0  0  0  0  0  0  0  # atno 17395 bound_to 11000

$$$$
