AV-unprocessed.smi:2104|AV-procd|sdf|8590|dock3
  -GOLD-   2272011323D 1   1.00000     0.00000
 Structure written by MMmdl.
 42 43  0  0  0  0  0  0  0  0  2 V2000
  146.0174  136.7420  162.3779 C   0  0  0  0  0  0  0  0  0  0  0  0
  147.0395  136.8535  161.2994 C   0  0  0  0  0  0  0  0  0  0  0  0
  148.1789  136.1530  161.0219 C   0  0  0  0  0  0  0  0  0  0  0  0
  148.6662  136.7797  159.8425 C   0  0  0  0  0  0  0  0  0  0  0  0
  149.7820  136.4500  159.1742 N   0  5  0  0  0  0  0  0  0  0  0  0
  150.0441  137.0128  157.9722 C   0  0  0  0  0  0  0  0  0  0  0  0
  150.3225  136.4132  156.9310 O   0  0  0  0  0  0  0  0  0  0  0  0
  149.9657  138.3512  157.9742 N   0  0  0  0  0  0  0  0  0  0  0  0
  150.1143  139.2204  156.8111 C   0  0  0  0  0  0  0  0  0  0  0  0
  151.3550  140.1167  156.9405 C   0  0  0  0  0  0  0  0  0  0  0  0
  151.4311  140.6287  158.2637 O   0  0  0  0  0  0  0  0  0  0  0  0
  152.1800  141.8297  158.4010 C   0  0  1  0  0  0  0  0  0  0  0  0
  151.4055  143.0067  157.7705 C   0  0  0  0  0  0  0  0  0  0  0  0
  152.1160  144.3458  158.0159 C   0  0  0  0  0  0  0  0  0  0  0  0
  152.3417  144.5827  159.5152 C   0  0  0  0  0  0  0  0  0  0  0  0
  153.1216  143.4189  160.1447 C   0  0  0  0  0  0  0  0  0  0  0  0
  152.4215  142.0653  159.9100 C   0  0  2  0  0  0  0  0  0  0  0  0
  153.2316  140.9226  160.5455 C   0  0  0  0  0  0  0  0  0  0  0  0
  147.8997  137.7839  159.4500 N   0  0  0  0  0  0  0  0  0  0  0  0
  146.8505  137.8335  160.3754 O   0  0  0  0  0  0  0  0  0  0  0  0
  145.7308  137.7275  162.7450 H   0  0  0  0  0  0  0  0  0  0  0  0
  146.4020  136.1669  163.2201 H   0  0  0  0  0  0  0  0  0  0  0  0
  145.1214  136.2435  162.0085 H   0  0  0  0  0  0  0  0  0  0  0  0
  148.5949  135.3204  161.5688 H   0  0  0  0  0  0  0  0  0  0  0  0
  149.7392  138.7981  158.8504 H   0  0  0  0  0  0  0  0  0  0  0  0
  150.2227  138.5787  155.9367 H   0  0  0  0  0  0  0  0  0  0  0  0
  149.2175  139.8189  156.6442 H   0  0  0  0  0  0  0  0  0  0  0  0
  152.2503  139.5450  156.6914 H   0  0  0  0  0  0  0  0  0  0  0  0
  151.2853  140.9397  156.2295 H   0  0  0  0  0  0  0  0  0  0  0  0
  153.1503  141.7250  157.9116 H   0  0  0  0  0  0  0  0  0  0  0  0
  151.2872  142.8572  156.6977 H   0  0  0  0  0  0  0  0  0  0  0  0
  150.3992  143.0475  158.1893 H   0  0  0  0  0  0  0  0  0  0  0  0
  153.0746  144.3518  157.4957 H   0  0  0  0  0  0  0  0  0  0  0  0
  151.5290  145.1619  157.5941 H   0  0  0  0  0  0  0  0  0  0  0  0
  152.8822  145.5173  159.6669 H   0  0  0  0  0  0  0  0  0  0  0  0
  151.3803  144.6948  160.0182 H   0  0  0  0  0  0  0  0  0  0  0  0
  154.1284  143.3894  159.7256 H   0  0  0  0  0  0  0  0  0  0  0  0
  153.2392  143.5972  161.2141 H   0  0  0  0  0  0  0  0  0  0  0  0
  151.4511  142.0995  160.4078 H   0  0  0  0  0  0  0  0  0  0  0  0
  154.2056  140.8118  160.0680 H   0  0  0  0  0  0  0  0  0  0  0  0
  152.7115  139.9693  160.4590 H   0  0  0  0  0  0  0  0  0  0  0  0
  153.3996  141.1021  161.6076 H   0  0  0  0  0  0  0  0  0  0  0  0
  1  2  1  0  0  0  0
  1 21  1  0  0  0  0
  1 22  1  0  0  0  0
  1 23  1  0  0  0  0
  2 20  1  0  0  0  0
  2  3  2  0  0  0  0
  3  4  1  0  0  0  0
  3 24  1  0  0  0  0
  4  5  1  0  0  0  0
  4 19  2  0  0  0  0
  5  6  1  0  0  0  0
  6  7  2  0  0  0  0
  6  8  1  0  0  0  0
  8  9  1  0  0  0  0
  8 25  1  0  0  0  0
  9 10  1  0  0  0  0
  9 26  1  0  0  0  0
  9 27  1  0  0  0  0
 10 11  1  0  0  0  0
 10 28  1  0  0  0  0
 10 29  1  0  0  0  0
 11 12  1  0  0  0  0
 12 17  1  0  0  0  0
 12 13  1  0  0  0  0
 12 30  1  0  0  0  0
 13 14  1  0  0  0  0
 13 31  1  0  0  0  0
 13 32  1  0  0  0  0
 14 15  1  0  0  0  0
 14 33  1  0  0  0  0
 14 34  1  0  0  0  0
 15 16  1  0  0  0  0
 15 35  1  0  0  0  0
 15 36  1  0  0  0  0
 16 17  1  0  0  0  0
 16 37  1  0  0  0  0
 16 38  1  0  0  0  0
 17 18  1  0  0  0  0
 17 39  1  0  0  0  0
 18 40  1  0  0  0  0
 18 41  1  0  0  0  0
 18 42  1  0  0  0  0
 19 20  1  0  0  0  0
M  CHG  1   5  -1
M  END
> <s_m_source_file>
AV-unprocessed.smi

> <i_m_source_file_index>
2104

> <i_lp_mmshare_version>
43012

> <i_f3d_flags>
0

> <s_epik_input>
W0NIM11jMVtjSF1jKG5vMSlbTkhdQyg9TylbTkhdW0NIMl1bQ0gyXU9bQ0BASF0yW0NIMl1bQ0gyXVtDSDJdW0NIMl1bQ0BIXTJbQ0gzXQ==

> <s_epik_cmdline>
J2VwaWtfcHl0aG9uJywgJy1waCcsICc3LjAnLCAnLXRuJywgJzgnLCAnLW1hJywgJzIwMCcsICctbWV0YWxfYmluZGluZycsICctaW1hZScsICc8aW5maWxlLm1hZT4nLCAnLW9tYWUnLCAnPG91dGZpbGUubWFlPic=

> <r_lp_tautomer_probability>
1

> <r_epik_Ionization_Penalty>
6.47137

> <r_epik_Ionization_Penalty_Charging>
6.47125

> <r_epik_Ionization_Penalty_Neutral>
0.000118933

> <r_epik_State_Penalty>
6.47124

> <r_epik_Charging_Adjusted_Penalty>
12.9425

> <i_epik_Tot_Q>
-1

> <i_epik_Tot_abs_Q>
1

> <r_epik_Metal_State_Penalty>
2.3995

> <b_epik_Metal_Only>
1

> <s_lp_Force_Field>
OPLS_2005

> <r_lp_Energy>
3.24625

> <b_lp_Chiralities_Consistent>
1

> <s_lp_Variant>
AV-unprocessed.smi:2104-8

> <Gold.Version>
5.8.1

> <Gold.Id.Protein>
6NUR|6NUR_protein|mol2

> <Gold.PLP.Fitness>
46.3515

> <Gold.PLP.PLP>
-38.8273

> <Gold.PLP.part.hbond>
-3.7709

> <Gold.PLP.part.metal>
0.0000

> <Gold.PLP.part.buried>
-5.0834

> <Gold.PLP.part.nonpolar>
-30.5429

> <Gold.PLP.part.repulsive>
0.0794

> <Gold.PLP.ligand.clash>
0.0000

> <Gold.PLP.ligand.torsion>
0.7481

> <Gold.PLP.Chemscore.Hbond>
3.0000

> <Gold.PLP.Chemscore.CHOScore>
0.0000

> <Gold.PLP.Chemscore.Metal>
0.0000

> <Gold.Chemscore.Hbonds>
donor molecule, donor type, donor heavy atom, donor atom, acceptor molecule, acceptor atom, score
      P1  H  6896  6908       L1     5  2.00
      P1  H  6934  6947       L1    20  0.46

> <Gold.PLP.Chemscore.Internal.Correction>
0.0204

> <Gold.Rescore>
     Score         DG    S(hbond)    S(metal)    S(lipo)     H(rot)  DE(clash)    DE(int)     intcor
     14.80     -17.24       1.03        0.00     108.69       1.71       0.05       2.40       ----

> <Gold.Chemscore.Fitness>
14.7992

> <Gold.Chemscore.DG>
-17.2448

> <Gold.Chemscore.ZeroCoef>
-5.4800

> <Gold.Chemscore.Hbond>
1.0258

> <Gold.Chemscore.Metal>
0.0000

> <Gold.Chemscore.Lipo>
108.6936

> <Gold.Chemscore.Internal_Hbond>
0.0000

> <Gold.Chemscore.DEClash>
0.0468

> <Gold.Chemscore.DEInternal>
2.3988

> <Gold.Chemscore.Rot>
1.7103

> <Gold.Chemscore.Internal.Correction>
   9.000000E+99

> <Gold.Chemscore.Hbonds>
donor molecule, donor type, donor heavy atom, donor atom, acceptor molecule, acceptor atom, score
      P1  H  6896  6908       L1     5  0.92
      P1  H  6934  6947       L1    20  0.06

> <Gold.Chemscore.Hbond.Weighted>
-3.4261

> <Gold.Chemscore.Metal.Weighted>
-0.0000

> <Gold.Chemscore.Lipo.Weighted>
-12.7172

> <Gold.Chemscore.Internal_Hbond.Weighted>
0.0000

> <Gold.Chemscore.DEClash.Weighted>
0.0468

> <Gold.Chemscore.DEInternal.Weighted>
2.3988

> <Gold.Chemscore.Rot.Weighted>
4.3784

> <Gold.Chemscore.Internal.Correction.Weighted>
   9.000000E+99

> <Gold.Protein.RotatedTorsions>
[ 6907 6896 6895 6894 ] final -170.45 input  -60.11 | X-H torsion
[ 7974 7965 7964 7962 ] final  119.70 input  175.53 | X-H torsion
[ 8008 7997 7996 7995 ] final   -9.79 input   59.86 | X-H torsion
[ 10167 10162 10161 10158 ] final  -84.25 input  -65.29 | X-H torsion
[ 10718 10713 10712 10709 ] final -110.82 input   66.30 | X-H torsion
[ 10763 10752 10751 10750 ] final   37.59 input  -60.55 | X-H torsion
[ 11005 11000 10999 10996 ] final  -48.99 input  -57.11 | X-H torsion

> <Gold.Protein.ActiveResidues>
 VAL166  LYS551  ARG553  GLY616  TRP617  ASP618  TYR619  PRO620  LYS621  CYS622 
 ASP623  PHE694  ASN695  SER759  ASP760  ASP761  ALA762  ILE779  LEU786  VAL792 
 PHE793  MET794  SER795  GLU796  ALA797  LYS798  CYS799  TRP800  GLU811  SER814 

> <Gold.Protein.RotatedAtoms>
  151.5079  133.3491  159.2879 H   0  0  0  0  0  0  0  0  0  0  0  0  # atno 6907 bound_to 6896
  150.8731  134.8111  159.7180 H   0  0  0  0  0  0  0  0  0  0  0  0  # atno 6908 bound_to 6896
  152.4712  134.4966  159.9763 H   0  0  0  0  0  0  0  0  0  0  0  0  # atno 6909 bound_to 6896
  145.1400  139.3274  143.4621 H   0  0  0  0  0  0  0  0  0  0  0  0  # atno 7974 bound_to 7965
  154.5614  140.2346  155.8329 H   0  0  0  0  0  0  0  0  0  0  0  0  # atno 8008 bound_to 7997
  156.2032  140.3046  155.9531 H   0  0  0  0  0  0  0  0  0  0  0  0  # atno 8009 bound_to 7997
  155.2882  140.0425  157.3011 H   0  0  0  0  0  0  0  0  0  0  0  0  # atno 8010 bound_to 7997
  140.4150  143.2607  151.8967 H   0  0  0  0  0  0  0  0  0  0  0  0  # atno 10167 bound_to 10162
  156.0612  130.5835  150.8290 H   0  0  0  0  0  0  0  0  0  0  0  0  # atno 10718 bound_to 10713
  153.0032  135.6273  154.2170 H   0  0  0  0  0  0  0  0  0  0  0  0  # atno 10763 bound_to 10752
  154.1913  135.2808  155.3023 H   0  0  0  0  0  0  0  0  0  0  0  0  # atno 10764 bound_to 10752
  154.5757  135.5663  153.7197 H   0  0  0  0  0  0  0  0  0  0  0  0  # atno 10765 bound_to 10752
  141.0733  133.6673  156.3520 H   0  0  0  0  0  0  0  0  0  0  0  0  # atno 11005 bound_to 11000
  146.3506  140.1433  142.8594 LP  0  0  0  0  0  0  0  0  0  0  0  0  # atno 17320 bound_to 7965
  145.0543  140.9041  143.4977 LP  0  0  0  0  0  0  0  0  0  0  0  0  # atno 17321 bound_to 7965
  139.4782  144.5497  151.8404 LP  0  0  0  0  0  0  0  0  0  0  0  0  # atno 17342 bound_to 10162
  140.4596  144.1740  150.5905 LP  0  0  0  0  0  0  0  0  0  0  0  0  # atno 17343 bound_to 10162
  157.5622  131.0946  150.9542 LP  0  0  0  0  0  0  0  0  0  0  0  0  # atno 17370 bound_to 10713
  156.9777  130.5515  149.5294 LP  0  0  0  0  0  0  0  0  0  0  0  0  # atno 17371 bound_to 10713
  140.5627  134.5918  157.5438 LP  0  0  0  0  0  0  0  0  0  0  0  0  # atno 17394 bound_to 11000
  139.9545  134.7558  156.0372 LP  0  0  0  0  0  0  0  0  0  0  0  0  # atno 17395 bound_to 11000

$$$$
