AV-unprocessed.smi:1310|AV-procd|sdf|5445|dock2
  -GOLD-   22720 5 13D 1   1.00000     0.00000
 Structure written by MMmdl.
 34 35  0  0  0  0  0  0  0  0  1 V2000
  146.2909  138.4050  152.0919 C   0  0  0  0  0  0  0  0  0  0  0  0
  147.1993  138.1350  153.1538 O   0  0  0  0  0  0  0  0  0  0  0  0
  147.7930  139.2027  153.7954 C   0  0  0  0  0  0  0  0  0  0  0  0
  147.3927  140.5072  153.4454 C   0  0  0  0  0  0  0  0  0  0  0  0
  147.9937  141.6030  154.0942 C   0  0  0  0  0  0  0  0  0  0  0  0
  148.9786  141.3579  155.0817 C   0  0  0  0  0  0  0  0  0  0  0  0
  149.6743  142.3634  155.8079 N   0  0  0  0  0  0  0  0  0  0  0  0
  150.7281  142.2515  156.6409 C   0  0  0  0  0  0  0  0  0  0  0  0
  151.3049  141.2011  156.9122 O   0  0  0  0  0  0  0  0  0  0  0  0
  151.1259  143.4185  157.1795 N   0  0  0  0  0  0  0  0  0  0  0  0
  152.2275  143.6566  158.1160 C   0  0  0  0  0  0  0  0  0  0  0  0
  152.1416  142.6907  159.3133 C   0  0  0  0  0  0  0  0  0  0  0  0
  152.3593  143.5457  160.5623 C   0  0  0  0  0  0  0  0  0  0  0  0
  151.7967  144.9112  160.1836 C   0  0  0  0  0  0  0  0  0  0  0  0
  152.1775  145.0792  158.7124 C   0  0  0  0  0  0  0  0  0  0  0  0
  149.3119  140.0145  155.3524 C   0  0  0  0  0  0  0  0  0  0  0  0
  148.7401  138.9599  154.7344 N   0  0  0  0  0  0  0  0  0  0  0  0
  145.9171  137.4638  151.6890 H   0  0  0  0  0  0  0  0  0  0  0  0
  146.7773  138.9435  151.2771 H   0  0  0  0  0  0  0  0  0  0  0  0
  145.4317  138.9804  152.4392 H   0  0  0  0  0  0  0  0  0  0  0  0
  146.6383  140.6659  152.6889 H   0  0  0  0  0  0  0  0  0  0  0  0
  147.6894  142.5973  153.8101 H   0  0  0  0  0  0  0  0  0  0  0  0
  149.3374  143.3038  155.6620 H   0  0  0  0  0  0  0  0  0  0  0  0
  150.5884  144.2341  156.9237 H   0  0  0  0  0  0  0  0  0  0  0  0
  153.1830  143.5056  157.6103 H   0  0  0  0  0  0  0  0  0  0  0  0
  151.1522  142.2331  159.3681 H   0  0  0  0  0  0  0  0  0  0  0  0
  152.8668  141.8794  159.2424 H   0  0  0  0  0  0  0  0  0  0  0  0
  151.8820  143.1248  161.4477 H   0  0  0  0  0  0  0  0  0  0  0  0
  153.4270  143.6332  160.7674 H   0  0  0  0  0  0  0  0  0  0  0  0
  150.7106  144.9007  160.2836 H   0  0  0  0  0  0  0  0  0  0  0  0
  152.1819  145.7152  160.8116 H   0  0  0  0  0  0  0  0  0  0  0  0
  153.1688  145.5295  158.6463 H   0  0  0  0  0  0  0  0  0  0  0  0
  151.4898  145.7467  158.1915 H   0  0  0  0  0  0  0  0  0  0  0  0
  150.0633  139.7754  156.0911 H   0  0  0  0  0  0  0  0  0  0  0  0
  1  2  1  0  0  0  0
  1 18  1  0  0  0  0
  1 19  1  0  0  0  0
  1 20  1  0  0  0  0
  2  3  1  0  0  0  0
  3 17  1  0  0  0  0
  3  4  2  0  0  0  0
  4  5  1  0  0  0  0
  4 21  1  0  0  0  0
  5  6  2  0  0  0  0
  5 22  1  0  0  0  0
  6  7  1  0  0  0  0
  6 16  1  0  0  0  0
  7  8  1  0  0  0  0
  7 23  1  0  0  0  0
  8  9  2  0  0  0  0
  8 10  1  0  0  0  0
 10 11  1  0  0  0  0
 10 24  1  0  0  0  0
 11 15  1  0  0  0  0
 11 12  1  0  0  0  0
 11 25  1  0  0  0  0
 12 13  1  0  0  0  0
 12 26  1  0  0  0  0
 12 27  1  0  0  0  0
 13 14  1  0  0  0  0
 13 28  1  0  0  0  0
 13 29  1  0  0  0  0
 14 15  1  0  0  0  0
 14 30  1  0  0  0  0
 14 31  1  0  0  0  0
 15 32  1  0  0  0  0
 15 33  1  0  0  0  0
 16 17  2  0  0  0  0
 16 34  1  0  0  0  0
M  END
> <s_m_source_file>
AV-unprocessed.smi

> <i_m_source_file_index>
1310

> <i_lp_mmshare_version>
43012

> <i_f3d_flags>
0

> <s_epik_input>
W0NIM11PYzFbY0hdW2NIXWMoW2NIXW4xKVtOSF1DKD1PKVtOSF1bQ0hdMltDSDJdW0NIMl1bQ0gyXVtDSDJdMg==

> <s_epik_cmdline>
J2VwaWtfcHl0aG9uJywgJy1waCcsICc3LjAnLCAnLXRuJywgJzgnLCAnLW1hJywgJzIwMCcsICctbWV0YWxfYmluZGluZycsICctaW1hZScsICc8aW5maWxlLm1hZT4nLCAnLW9tYWUnLCAnPG91dGZpbGUubWFlPic=

> <r_lp_tautomer_probability>
1

> <r_epik_Ionization_Penalty>
0.000100082

> <r_epik_Ionization_Penalty_Charging>
0

> <r_epik_Ionization_Penalty_Neutral>
0.000100082

> <r_epik_State_Penalty>
-0

> <r_epik_Charging_Adjusted_Penalty>
0

> <i_epik_Tot_Q>
0

> <i_epik_Tot_abs_Q>
0

> <r_epik_Metal_State_Penalty>
-0

> <b_epik_Metal_Only>
0

> <s_lp_Force_Field>
OPLS_2005

> <r_lp_Energy>
31.5118

> <b_lp_Chiralities_Consistent>
1

> <s_lp_Variant>
AV-unprocessed.smi:1310-1

> <Gold.Version>
5.8.1

> <Gold.Id.Protein>
6NUR|6NUR_protein|mol2

> <Gold.PLP.Fitness>
41.1460

> <Gold.PLP.PLP>
-37.7932

> <Gold.PLP.part.hbond>
-1.7660

> <Gold.PLP.part.metal>
0.0000

> <Gold.PLP.part.buried>
-5.2978

> <Gold.PLP.part.nonpolar>
-34.7159

> <Gold.PLP.part.repulsive>
2.1185

> <Gold.PLP.ligand.clash>
0.6433

> <Gold.PLP.ligand.torsion>
0.1454

> <Gold.PLP.Chemscore.Hbond>
1.4275

> <Gold.PLP.Chemscore.CHOScore>
0.0000

> <Gold.PLP.Chemscore.Metal>
0.0000

> <Gold.Chemscore.Hbonds>
donor molecule, donor type, donor heavy atom, donor atom, acceptor molecule, acceptor atom, score
      L1  H     7    23       P1  8028  0.89
      L1  H    10    24       P1  8028  0.55

> <Gold.PLP.Chemscore.Internal.Correction>
0.0042

> <Gold.Rescore>
     Score         DG    S(hbond)    S(metal)    S(lipo)     H(rot)  DE(clash)    DE(int)     intcor
     16.18     -19.21       1.73        0.00      94.84       1.23       0.11       2.92       ----

> <Gold.Chemscore.Fitness>
16.1793

> <Gold.Chemscore.DG>
-19.2064

> <Gold.Chemscore.ZeroCoef>
-5.4800

> <Gold.Chemscore.Hbond>
1.7313

> <Gold.Chemscore.Metal>
0.0000

> <Gold.Chemscore.Lipo>
94.8419

> <Gold.Chemscore.Internal_Hbond>
0.0000

> <Gold.Chemscore.DEClash>
0.1060

> <Gold.Chemscore.DEInternal>
2.9211

> <Gold.Chemscore.Rot>
1.2315

> <Gold.Chemscore.Internal.Correction>
   9.000000E+99

> <Gold.Chemscore.Hbonds>
donor molecule, donor type, donor heavy atom, donor atom, acceptor molecule, acceptor atom, score
      L1  H     7    23       P1  8028  0.86
      L1  H    10    24       P1  8028  0.55

> <Gold.Chemscore.Hbond.Weighted>
-5.7825

> <Gold.Chemscore.Metal.Weighted>
-0.0000

> <Gold.Chemscore.Lipo.Weighted>
-11.0965

> <Gold.Chemscore.Internal_Hbond.Weighted>
0.0000

> <Gold.Chemscore.DEClash.Weighted>
0.1060

> <Gold.Chemscore.DEInternal.Weighted>
2.9211

> <Gold.Chemscore.Rot.Weighted>
3.1526

> <Gold.Chemscore.Internal.Correction.Weighted>
   9.000000E+99

> <Gold.Protein.RotatedTorsions>
[ 6907 6896 6895 6894 ] final -159.79 input  -60.11 | X-H torsion
[ 7974 7965 7964 7962 ] final   -6.43 input  175.53 | X-H torsion
[ 8008 7997 7996 7995 ] final  -39.02 input   59.86 | X-H torsion
[ 10167 10162 10161 10158 ] final -135.01 input  -65.29 | X-H torsion
[ 10718 10713 10712 10709 ] final  120.99 input   66.30 | X-H torsion
[ 10763 10752 10751 10750 ] final   93.87 input  -60.55 | X-H torsion
[ 11005 11000 10999 10996 ] final  132.88 input  -57.11 | X-H torsion

> <Gold.Protein.ActiveResidues>
 VAL166  LYS551  ARG553  GLY616  TRP617  ASP618  TYR619  PRO620  LYS621  CYS622 
 ASP623  PHE694  ASN695  SER759  ASP760  ASP761  ALA762  ILE779  LEU786  VAL792 
 PHE793  MET794  SER795  GLU796  ALA797  LYS798  CYS799  TRP800  GLU811  SER814 

> <Gold.Protein.RotatedAtoms>
  151.3390  133.3970  159.2669 H   0  0  0  0  0  0  0  0  0  0  0  0  # atno 6907 bound_to 6896
  150.9893  134.9232  159.7901 H   0  0  0  0  0  0  0  0  0  0  0  0  # atno 6908 bound_to 6896
  152.5242  134.3355  159.9250 H   0  0  0  0  0  0  0  0  0  0  0  0  # atno 6909 bound_to 6896
  146.2331  140.2170  142.8336 H   0  0  0  0  0  0  0  0  0  0  0  0  # atno 7974 bound_to 7965
  154.4028  140.1562  156.2795 H   0  0  0  0  0  0  0  0  0  0  0  0  # atno 8008 bound_to 7997
  155.8882  140.3440  155.5915 H   0  0  0  0  0  0  0  0  0  0  0  0  # atno 8009 bound_to 7997
  155.7588  140.0815  157.2156 H   0  0  0  0  0  0  0  0  0  0  0  0  # atno 8010 bound_to 7997
  139.8822  143.6825  152.2625 H   0  0  0  0  0  0  0  0  0  0  0  0  # atno 10167 bound_to 10162
  157.5850  131.1071  150.8112 H   0  0  0  0  0  0  0  0  0  0  0  0  # atno 10718 bound_to 10713
  153.2352  135.4310  155.0639 H   0  0  0  0  0  0  0  0  0  0  0  0  # atno 10763 bound_to 10752
  154.8315  135.3389  154.6729 H   0  0  0  0  0  0  0  0  0  0  0  0  # atno 10764 bound_to 10752
  153.7155  135.7020  153.5082 H   0  0  0  0  0  0  0  0  0  0  0  0  # atno 10765 bound_to 10752
  139.9817  134.9546  156.9645 H   0  0  0  0  0  0  0  0  0  0  0  0  # atno 11005 bound_to 11000
  144.9662  140.8324  143.5483 LP  0  0  0  0  0  0  0  0  0  0  0  0  # atno 17320 bound_to 7965
  145.2146  139.2188  143.5125 LP  0  0  0  0  0  0  0  0  0  0  0  0  # atno 17321 bound_to 7965
  139.7186  144.7607  151.0993 LP  0  0  0  0  0  0  0  0  0  0  0  0  # atno 17342 bound_to 10162
  140.7742  143.5237  150.9505 LP  0  0  0  0  0  0  0  0  0  0  0  0  # atno 17343 bound_to 10162
  156.8548  130.5093  149.5308 LP  0  0  0  0  0  0  0  0  0  0  0  0  # atno 17370 bound_to 10713
  156.0899  130.5887  150.9714 LP  0  0  0  0  0  0  0  0  0  0  0  0  # atno 17371 bound_to 10713
  140.5083  134.1027  155.7265 LP  0  0  0  0  0  0  0  0  0  0  0  0  # atno 17394 bound_to 11000
  141.1488  133.9006  157.2149 LP  0  0  0  0  0  0  0  0  0  0  0  0  # atno 17395 bound_to 11000

$$$$
