AV-unprocessed.smi:211|AV-procd|sdf|1616|dock1
  -GOLD-   2262019543D 1   1.00000     0.00000
 Structure written by MMmdl.
 59 62  0  0  0  0  0  0  0  0  1 V2000
  153.7814  124.5738  153.2723 C   0  0  0  0  0  0  0  0  0  0  0  0
  153.6536  124.8819  154.7600 C   0  0  0  0  0  0  0  0  0  0  0  0
  154.1543  124.1263  155.5921 O   0  0  0  0  0  0  0  0  0  0  0  0
  152.9773  125.9967  155.0769 N   0  0  0  0  0  0  0  0  0  0  0  0
  152.7075  126.4748  156.4326 C   0  0  1  0  0  0  0  0  0  0  0  0
  154.0475  126.6400  157.1742 C   0  0  0  0  0  0  0  0  0  0  0  0
  151.8678  127.7788  156.3796 C   0  0  0  0  0  0  0  0  0  0  0  0
  150.4796  127.5676  155.7341 C   0  0  0  0  0  0  0  0  0  0  0  0
  149.6744  128.8758  155.6709 C   0  0  0  0  0  0  0  0  0  0  0  0
  150.4288  129.9268  154.9883 N   0  0  0  0  0  0  0  0  0  0  0  0
  149.7494  131.0383  154.6053 C   0  0  0  0  0  0  0  0  0  0  0  0
  150.1633  132.2649  155.0237 N   0  0  0  0  0  0  0  0  0  0  0  0
  149.5131  133.3662  154.6365 C   0  0  0  0  0  0  0  0  0  0  0  0
  148.4405  133.4682  153.8500 N   0  0  0  0  0  0  0  0  0  0  0  0
  148.0119  132.2414  153.4363 C   0  0  0  0  0  0  0  0  0  0  0  0
  148.6045  130.9880  153.7603 C   0  0  0  0  0  0  0  0  0  0  0  0
  147.8944  129.9596  153.1516 N   0  0  0  0  0  0  0  0  0  0  0  0
  146.9491  130.5710  152.4916 C   0  0  0  0  0  0  0  0  0  0  0  0
  146.9292  131.9406  152.6287 N   0  0  0  0  0  0  0  0  0  0  0  0
  146.0348  132.8576  151.9856 C   0  0  0  0  0  0  0  0  0  0  0  0
  144.6188  132.4347  151.5875 C   0  0  0  0  0  0  0  0  0  0  0  0
  144.6803  133.3975  150.3812 C   0  0  0  0  0  0  0  0  0  0  0  0
  144.0754  132.8537  149.0763 C   0  0  0  0  0  0  0  0  0  0  0  0
  142.8217  132.2432  149.3067 O   0  0  0  0  0  0  0  0  0  0  0  0
  144.1272  134.8130  150.6449 C   0  0  0  0  0  0  0  0  0  0  0  0
  144.5837  135.7343  149.6754 O   0  0  0  0  0  0  0  0  0  0  0  0
  146.2134  133.2515  150.5175 C   0  0  0  0  0  0  0  0  0  0  0  0
  151.7470  130.1944  155.5580 C   0  0  0  0  0  0  0  0  0  0  0  0
  152.5924  128.9127  155.6155 C   0  0  0  0  0  0  0  0  0  0  0  0
  154.2368  125.4126  152.7451 H   0  0  0  0  0  0  0  0  0  0  0  0
  152.7990  124.3841  152.8387 H   0  0  0  0  0  0  0  0  0  0  0  0
  154.4020  123.6916  153.1104 H   0  0  0  0  0  0  0  0  0  0  0  0
  152.6089  126.5535  154.3194 H   0  0  0  0  0  0  0  0  0  0  0  0
  152.1186  125.7221  156.9602 H   0  0  0  0  0  0  0  0  0  0  0  0
  153.9008  126.8546  158.2322 H   0  0  0  0  0  0  0  0  0  0  0  0
  154.6418  127.4482  156.7463 H   0  0  0  0  0  0  0  0  0  0  0  0
  154.6428  125.7276  157.1207 H   0  0  0  0  0  0  0  0  0  0  0  0
  151.7101  128.1174  157.4050 H   0  0  0  0  0  0  0  0  0  0  0  0
  150.5986  127.1650  154.7274 H   0  0  0  0  0  0  0  0  0  0  0  0
  149.8986  126.8361  156.2947 H   0  0  0  0  0  0  0  0  0  0  0  0
  148.7326  128.6949  155.1506 H   0  0  0  0  0  0  0  0  0  0  0  0
  149.4268  129.2069  156.6806 H   0  0  0  0  0  0  0  0  0  0  0  0
  149.9095  134.2989  155.0101 H   0  0  0  0  0  0  0  0  0  0  0  0
  146.2331  130.0336  151.8866 H   0  0  0  0  0  0  0  0  0  0  0  0
  146.0084  133.7437  152.6218 H   0  0  0  0  0  0  0  0  0  0  0  0
  144.5648  131.3845  151.2933 H   0  0  0  0  0  0  0  0  0  0  0  0
  143.8519  132.6723  152.3253 H   0  0  0  0  0  0  0  0  0  0  0  0
  143.9551  133.6397  148.3306 H   0  0  0  0  0  0  0  0  0  0  0  0
  144.7311  132.1065  148.6280 H   0  0  0  0  0  0  0  0  0  0  0  0
  142.1790  132.9214  149.4484 H   0  0  0  0  0  0  0  0  0  0  0  0
  143.0371  134.8210  150.6514 H   0  0  0  0  0  0  0  0  0  0  0  0
  144.4353  135.1817  151.6233 H   0  0  0  0  0  0  0  0  0  0  0  0
  144.2092  136.5807  149.8666 H   0  0  0  0  0  0  0  0  0  0  0  0
  146.7824  134.1690  150.3644 H   0  0  0  0  0  0  0  0  0  0  0  0
  146.6184  132.4377  149.9129 H   0  0  0  0  0  0  0  0  0  0  0  0
  152.2833  130.9503  154.9850 H   0  0  0  0  0  0  0  0  0  0  0  0
  151.6185  130.5992  156.5629 H   0  0  0  0  0  0  0  0  0  0  0  0
  153.5475  129.1503  156.0838 H   0  0  0  0  0  0  0  0  0  0  0  0
  152.8209  128.5842  154.6006 H   0  0  0  0  0  0  0  0  0  0  0  0
  1  2  1  0  0  0  0
  1 30  1  0  0  0  0
  1 31  1  0  0  0  0
  1 32  1  0  0  0  0
  2  3  2  0  0  0  0
  2  4  1  0  0  0  0
  4  5  1  0  0  0  0
  4 33  1  0  0  0  0
  5  6  1  0  0  0  0
  5  7  1  0  0  0  0
  5 34  1  0  0  0  0
  6 35  1  0  0  0  0
  6 36  1  0  0  0  0
  6 37  1  0  0  0  0
  7 29  1  0  0  0  0
  7  8  1  0  0  0  0
  7 38  1  0  0  0  0
  8  9  1  0  0  0  0
  8 39  1  0  0  0  0
  8 40  1  0  0  0  0
  9 10  1  0  0  0  0
  9 41  1  0  0  0  0
  9 42  1  0  0  0  0
 10 11  1  0  0  0  0
 10 28  1  0  0  0  0
 11 16  1  0  0  0  0
 11 12  2  0  0  0  0
 12 13  1  0  0  0  0
 13 14  2  0  0  0  0
 13 43  1  0  0  0  0
 14 15  1  0  0  0  0
 15 19  1  0  0  0  0
 15 16  2  0  0  0  0
 16 17  1  0  0  0  0
 17 18  2  0  0  0  0
 18 19  1  0  0  0  0
 18 44  1  0  0  0  0
 19 20  1  0  0  0  0
 20 27  1  0  0  0  0
 20 21  1  0  0  0  0
 20 45  1  0  0  0  0
 21 22  1  0  0  0  0
 21 46  1  0  0  0  0
 21 47  1  0  0  0  0
 22 23  1  0  0  0  0
 22 25  1  0  0  0  0
 22 27  1  0  0  0  0
 23 24  1  0  0  0  0
 23 48  1  0  0  0  0
 23 49  1  0  0  0  0
 24 50  1  0  0  0  0
 25 26  1  0  0  0  0
 25 51  1  0  0  0  0
 25 52  1  0  0  0  0
 26 53  1  0  0  0  0
 27 54  1  0  0  0  0
 27 55  1  0  0  0  0
 28 29  1  0  0  0  0
 28 56  1  0  0  0  0
 28 57  1  0  0  0  0
 29 58  1  0  0  0  0
 29 59  1  0  0  0  0
M  END
> <s_m_source_file>
AV-unprocessed.smi

> <i_m_source_file_index>
211

> <i_lp_mmshare_version>
43012

> <i_f3d_flags>
0

> <s_epik_input>
W0NIM11DKD1PKVtOSF1bQ0BIXShbQ0gzXSlbQ0hdMVtDSDJdW0NIMl1OKFtDSDJdW0NIMl0xKWMobltjSF1uMiljKGMyMyluW2NIXW4zW0NIXShbQ0gyXTQpW0NIMl1DNChbQ0gyXVtPSF0pW0NIMl1bT0hd

> <s_epik_cmdline>
J2VwaWtfcHl0aG9uJywgJy1waCcsICc3LjAnLCAnLXRuJywgJzgnLCAnLW1hJywgJzIwMCcsICctbWV0YWxfYmluZGluZycsICctaW1hZScsICc8aW5maWxlLm1hZT4nLCAnLW9tYWUnLCAnPG91dGZpbGUubWFlPic=

> <r_lp_tautomer_probability>
1

> <r_epik_Ionization_Penalty>
0.00335435

> <r_epik_Ionization_Penalty_Charging>
0

> <r_epik_Ionization_Penalty_Neutral>
0.00335435

> <r_epik_State_Penalty>
0.00231338

> <r_epik_Charging_Adjusted_Penalty>
0.00231338

> <i_epik_Tot_Q>
0

> <i_epik_Tot_abs_Q>
0

> <r_epik_Metal_State_Penalty>
-0

> <b_epik_Metal_Only>
0

> <s_lp_Force_Field>
OPLS_2005

> <r_lp_Energy>
40.8238

> <b_lp_Chiralities_Consistent>
1

> <s_lp_Variant>
AV-unprocessed.smi:211-2

> <Gold.Version>
5.8.1

> <Gold.Id.Protein>
6NUR|6NUR_protein|mol2

> <Gold.PLP.Fitness>
47.3248

> <Gold.PLP.PLP>
-40.6634

> <Gold.PLP.part.hbond>
-4.8640

> <Gold.PLP.part.metal>
0.0000

> <Gold.PLP.part.buried>
-5.1318

> <Gold.PLP.part.nonpolar>
-31.2647

> <Gold.PLP.part.repulsive>
0.3298

> <Gold.PLP.ligand.clash>
0.0000

> <Gold.PLP.ligand.torsion>
1.3852

> <Gold.PLP.Chemscore.Hbond>
2.7788

> <Gold.PLP.Chemscore.CHOScore>
0.0000

> <Gold.PLP.Chemscore.Metal>
0.0000

> <Gold.Chemscore.Hbonds>
donor molecule, donor type, donor heavy atom, donor atom, acceptor molecule, acceptor atom, score
      L1  H    24    50       P1 10186  1.00
      L1  H    26    53       P1 10171  1.00
      P1  H 10785 10796       L1    24  0.55

> <Gold.PLP.Chemscore.Internal.Correction>
1.0955

> <Gold.Rescore>
     Score         DG    S(hbond)    S(metal)    S(lipo)     H(rot)  DE(clash)    DE(int)     intcor
      8.76      -9.99       1.98        0.00      67.58       3.92       0.01       1.22       ----

> <Gold.Chemscore.Fitness>
8.7616

> <Gold.Chemscore.DG>
-9.9928

> <Gold.Chemscore.ZeroCoef>
-5.4800

> <Gold.Chemscore.Hbond>
1.9848

> <Gold.Chemscore.Metal>
0.0000

> <Gold.Chemscore.Lipo>
67.5832

> <Gold.Chemscore.Internal_Hbond>
0.0000

> <Gold.Chemscore.DEClash>
0.0069

> <Gold.Chemscore.DEInternal>
1.2243

> <Gold.Chemscore.Rot>
3.9155

> <Gold.Chemscore.Internal.Correction>
   9.000000E+99

> <Gold.Chemscore.Hbonds>
donor molecule, donor type, donor heavy atom, donor atom, acceptor molecule, acceptor atom, score
      L1  H    24    50       P1 10186  1.00
      L1  H    26    53       P1 10171  0.95
      P1  H 10785 10796       L1    24  0.22

> <Gold.Chemscore.Hbond.Weighted>
-6.6291

> <Gold.Chemscore.Metal.Weighted>
-0.0000

> <Gold.Chemscore.Lipo.Weighted>
-7.9072

> <Gold.Chemscore.Internal_Hbond.Weighted>
0.0000

> <Gold.Chemscore.DEClash.Weighted>
0.0069

> <Gold.Chemscore.DEInternal.Weighted>
1.2243

> <Gold.Chemscore.Rot.Weighted>
10.0236

> <Gold.Chemscore.Internal.Correction.Weighted>
   9.000000E+99

> <Gold.Protein.RotatedTorsions>
[ 6907 6896 6895 6894 ] final -122.83 input  -60.11 | X-H torsion
[ 7974 7965 7964 7962 ] final    7.83 input  175.53 | X-H torsion
[ 8008 7997 7996 7995 ] final  121.16 input   59.86 | X-H torsion
[ 10167 10162 10161 10158 ] final -160.38 input  -65.29 | X-H torsion
[ 10718 10713 10712 10709 ] final  -39.08 input   66.30 | X-H torsion
[ 10763 10752 10751 10750 ] final  -22.96 input  -60.55 | X-H torsion
[ 11005 11000 10999 10996 ] final -133.25 input  -57.11 | X-H torsion

> <Gold.Protein.ActiveResidues>
 VAL166  LYS551  ARG553  GLY616  TRP617  ASP618  TYR619  PRO620  LYS621  CYS622 
 ASP623  PHE694  ASN695  SER759  ASP760  ASP761  ALA762  ILE779  LEU786  VAL792 
 PHE793  MET794  SER795  GLU796  ALA797  LYS798  CYS799  TRP800  GLU811  SER814 

> <Gold.Protein.RotatedAtoms>
  150.8613  133.7639  159.2991 H   0  0  0  0  0  0  0  0  0  0  0  0  # atno 6907 bound_to 6896
  151.5281  135.1066  159.9905 H   0  0  0  0  0  0  0  0  0  0  0  0  # atno 6908 bound_to 6896
  152.4628  133.7815  159.6909 H   0  0  0  0  0  0  0  0  0  0  0  0  # atno 6909 bound_to 6896
  146.2423  140.0024  142.8414 H   0  0  0  0  0  0  0  0  0  0  0  0  # atno 7974 bound_to 7965
  156.2674  140.2814  156.1265 H   0  0  0  0  0  0  0  0  0  0  0  0  # atno 8008 bound_to 7997
  155.1100  140.0390  157.2739 H   0  0  0  0  0  0  0  0  0  0  0  0  # atno 8009 bound_to 7997
  154.6750  140.2596  155.6974 H   0  0  0  0  0  0  0  0  0  0  0  0  # atno 8010 bound_to 7997
  139.6544  144.0026  152.2184 H   0  0  0  0  0  0  0  0  0  0  0  0  # atno 10167 bound_to 10162
  156.2965  130.4234  149.8186 H   0  0  0  0  0  0  0  0  0  0  0  0  # atno 10718 bound_to 10713
  153.6602  135.6977  153.5180 H   0  0  0  0  0  0  0  0  0  0  0  0  # atno 10763 bound_to 10752
  153.2638  135.4236  155.0919 H   0  0  0  0  0  0  0  0  0  0  0  0  # atno 10764 bound_to 10752
  154.8454  135.3561  154.6147 H   0  0  0  0  0  0  0  0  0  0  0  0  # atno 10765 bound_to 10752
  140.9097  134.1584  157.4398 H   0  0  0  0  0  0  0  0  0  0  0  0  # atno 11005 bound_to 11000
  145.1403  140.9567  143.4492 LP  0  0  0  0  0  0  0  0  0  0  0  0  # atno 17320 bound_to 7965
  145.0302  139.3347  143.6028 LP  0  0  0  0  0  0  0  0  0  0  0  0  # atno 17321 bound_to 7965
  139.9748  144.6469  150.7955 LP  0  0  0  0  0  0  0  0  0  0  0  0  # atno 17342 bound_to 10162
  140.7552  143.3042  151.3003 LP  0  0  0  0  0  0  0  0  0  0  0  0  # atno 17343 bound_to 10162
  156.5580  130.8371  151.3320 LP  0  0  0  0  0  0  0  0  0  0  0  0  # atno 17370 bound_to 10713
  157.7356  130.9766  150.2094 LP  0  0  0  0  0  0  0  0  0  0  0  0  # atno 17371 bound_to 10713
  139.8755  134.9931  156.5627 LP  0  0  0  0  0  0  0  0  0  0  0  0  # atno 17394 bound_to 11000
  140.8126  133.8417  155.8823 LP  0  0  0  0  0  0  0  0  0  0  0  0  # atno 17395 bound_to 11000

$$$$
