AV-unprocessed.smi:1773|AV-procd|sdf|7163|dock1
  -GOLD-   22720 8403D 1   1.00000     0.00000
 Structure written by MMmdl.
 40 41  0  0  0  0  0  0  0  0  1 V2000
  147.0716  142.7160  154.1669 C   0  0  0  0  0  0  0  0  0  0  0  0
  147.7330  141.3554  154.0169 C   0  0  0  0  0  0  0  0  0  0  0  0
  147.0835  140.3511  153.2681 C   0  0  0  0  0  0  0  0  0  0  0  0
  147.6962  139.0938  153.1305 C   0  0  0  0  0  0  0  0  0  0  0  0
  148.9404  138.8928  153.7521 C   0  0  0  0  0  0  0  0  0  0  0  0
  149.5683  139.8470  154.4693 N   0  0  0  0  0  0  0  0  0  0  0  0
  148.9907  141.0665  154.6116 C   0  0  0  0  0  0  0  0  0  0  0  0
  149.5955  142.1215  155.3517 N   0  0  0  0  0  0  0  0  0  0  0  0
  150.7211  142.0919  156.0870 C   0  0  0  0  0  0  0  0  0  0  0  0
  151.4347  141.1033  156.2597 O   0  0  0  0  0  0  0  0  0  0  0  0
  150.9739  143.2925  156.6283 N   0  0  0  0  0  0  0  0  0  0  0  0
  152.1101  143.6212  157.4881 C   0  0  0  0  0  0  0  0  0  0  0  0
  151.8547  143.3089  158.9838 C   0  0  0  0  0  0  0  0  0  0  0  0
  150.6419  142.5791  159.0465 O   0  0  0  0  0  0  0  0  0  0  0  0
  152.9872  142.4766  159.6383 C   0  0  0  0  0  0  0  0  0  0  0  0
  152.7991  142.2879  161.1545 C   0  0  0  0  0  0  0  0  0  0  0  0
  152.6246  143.6330  161.8723 C   0  0  0  0  0  0  0  0  0  0  0  0
  151.4560  144.4263  161.2722 C   0  0  0  0  0  0  0  0  0  0  0  0
  151.6405  144.6320  159.7580 C   0  0  0  0  0  0  0  0  0  0  0  0
  146.1222  142.7574  153.6321 H   0  0  0  0  0  0  0  0  0  0  0  0
  147.7153  143.5002  153.7672 H   0  0  0  0  0  0  0  0  0  0  0  0
  146.8742  142.9304  155.2176 H   0  0  0  0  0  0  0  0  0  0  0  0
  146.1267  140.5387  152.8032 H   0  0  0  0  0  0  0  0  0  0  0  0
  147.2252  138.3044  152.5636 H   0  0  0  0  0  0  0  0  0  0  0  0
  149.4461  137.9420  153.6718 H   0  0  0  0  0  0  0  0  0  0  0  0
  149.1136  143.0071  155.3117 H   0  0  0  0  0  0  0  0  0  0  0  0
  150.3262  144.0433  156.4391 H   0  0  0  0  0  0  0  0  0  0  0  0
  152.9990  143.0876  157.1474 H   0  0  0  0  0  0  0  0  0  0  0  0
  152.3384  144.6798  157.3578 H   0  0  0  0  0  0  0  0  0  0  0  0
  149.9803  143.0598  158.5730 H   0  0  0  0  0  0  0  0  0  0  0  0
  153.0667  141.4956  159.1686 H   0  0  0  0  0  0  0  0  0  0  0  0
  153.9421  142.9745  159.4633 H   0  0  0  0  0  0  0  0  0  0  0  0
  151.9297  141.6569  161.3432 H   0  0  0  0  0  0  0  0  0  0  0  0
  153.6570  141.7573  161.5685 H   0  0  0  0  0  0  0  0  0  0  0  0
  152.4553  143.4681  162.9368 H   0  0  0  0  0  0  0  0  0  0  0  0
  153.5437  144.2146  161.7908 H   0  0  0  0  0  0  0  0  0  0  0  0
  150.5186  143.9034  161.4655 H   0  0  0  0  0  0  0  0  0  0  0  0
  151.3736  145.3939  161.7679 H   0  0  0  0  0  0  0  0  0  0  0  0
  152.5033  145.2815  159.6024 H   0  0  0  0  0  0  0  0  0  0  0  0
  150.7829  145.1723  159.3545 H   0  0  0  0  0  0  0  0  0  0  0  0
  1  2  1  0  0  0  0
  1 20  1  0  0  0  0
  1 21  1  0  0  0  0
  1 22  1  0  0  0  0
  2  7  1  0  0  0  0
  2  3  2  0  0  0  0
  3  4  1  0  0  0  0
  3 23  1  0  0  0  0
  4  5  2  0  0  0  0
  4 24  1  0  0  0  0
  5  6  1  0  0  0  0
  5 25  1  0  0  0  0
  6  7  2  0  0  0  0
  7  8  1  0  0  0  0
  8  9  1  0  0  0  0
  8 26  1  0  0  0  0
  9 10  2  0  0  0  0
  9 11  1  0  0  0  0
 11 12  1  0  0  0  0
 11 27  1  0  0  0  0
 12 13  1  0  0  0  0
 12 28  1  0  0  0  0
 12 29  1  0  0  0  0
 13 19  1  0  0  0  0
 13 14  1  0  0  0  0
 13 15  1  0  0  0  0
 14 30  1  0  0  0  0
 15 16  1  0  0  0  0
 15 31  1  0  0  0  0
 15 32  1  0  0  0  0
 16 17  1  0  0  0  0
 16 33  1  0  0  0  0
 16 34  1  0  0  0  0
 17 18  1  0  0  0  0
 17 35  1  0  0  0  0
 17 36  1  0  0  0  0
 18 19  1  0  0  0  0
 18 37  1  0  0  0  0
 18 38  1  0  0  0  0
 19 39  1  0  0  0  0
 19 40  1  0  0  0  0
M  END
> <s_m_source_file>
AV-unprocessed.smi

> <i_m_source_file_index>
1773

> <i_lp_mmshare_version>
43012

> <i_f3d_flags>
0

> <s_epik_input>
W0NIM11jMVtjSF1bY0hdW2NIXW5jMVtOSF1DKD1PKVtOSF1bQ0gyXUMyKFtPSF0pW0NIMl1bQ0gyXVtDSDJdW0NIMl1bQ0gyXTI=

> <s_epik_cmdline>
J2VwaWtfcHl0aG9uJywgJy1waCcsICc3LjAnLCAnLXRuJywgJzgnLCAnLW1hJywgJzIwMCcsICctbWV0YWxfYmluZGluZycsICctaW1hZScsICc8aW5maWxlLm1hZT4nLCAnLW9tYWUnLCAnPG91dGZpbGUubWFlPic=

> <r_lp_tautomer_probability>
1

> <r_epik_Ionization_Penalty>
6.74357e-05

> <r_epik_Ionization_Penalty_Charging>
0

> <r_epik_Ionization_Penalty_Neutral>
6.74357e-05

> <r_epik_State_Penalty>
-0

> <r_epik_Charging_Adjusted_Penalty>
0

> <i_epik_Tot_Q>
0

> <i_epik_Tot_abs_Q>
0

> <r_epik_Metal_State_Penalty>
-0

> <b_epik_Metal_Only>
0

> <s_lp_Force_Field>
OPLS_2005

> <r_lp_Energy>
17.1315

> <b_lp_Chiralities_Consistent>
1

> <s_lp_Variant>
AV-unprocessed.smi:1773-1

> <Gold.Version>
5.8.1

> <Gold.Id.Protein>
6NUR|6NUR_protein|mol2

> <Gold.PLP.Fitness>
48.1917

> <Gold.PLP.PLP>
-42.0404

> <Gold.PLP.part.hbond>
-2.5275

> <Gold.PLP.part.metal>
0.0000

> <Gold.PLP.part.buried>
-0.6843

> <Gold.PLP.part.nonpolar>
-38.6458

> <Gold.PLP.part.repulsive>
0.3729

> <Gold.PLP.ligand.clash>
0.0000

> <Gold.PLP.ligand.torsion>
1.2208

> <Gold.PLP.Chemscore.Hbond>
2.0000

> <Gold.PLP.Chemscore.CHOScore>
0.8599

> <Gold.PLP.Chemscore.Metal>
0.0000

> <Gold.Chemscore.Hbonds>
donor molecule, donor type, donor heavy atom, donor atom, acceptor molecule, acceptor atom, score
      L1  H     8    26       P1  8028  1.00
      L1  H    11    27       P1  8028  1.00
      L1  C     5    25       P1  7948  0.88

> <Gold.PLP.Chemscore.Internal.Correction>
0.0131

> <Gold.Rescore>
     Score         DG    S(hbond)    S(metal)    S(lipo)     H(rot)  DE(clash)    DE(int)     intcor
     16.44     -21.33       1.95        0.00     117.85       1.73       1.61       3.28       ----

> <Gold.Chemscore.Fitness>
16.4449

> <Gold.Chemscore.DG>
-21.3309

> <Gold.Chemscore.ZeroCoef>
-5.4800

> <Gold.Chemscore.Hbond>
1.9465

> <Gold.Chemscore.Metal>
0.0000

> <Gold.Chemscore.Lipo>
117.8483

> <Gold.Chemscore.Internal_Hbond>
0.0000

> <Gold.Chemscore.DEClash>
1.6050

> <Gold.Chemscore.DEInternal>
3.2809

> <Gold.Chemscore.Rot>
1.7339

> <Gold.Chemscore.Internal.Correction>
   9.000000E+99

> <Gold.Chemscore.Hbonds>
donor molecule, donor type, donor heavy atom, donor atom, acceptor molecule, acceptor atom, score
      L1  H     8    26       P1  8028  0.99
      L1  H    11    27       P1  8028  0.98

> <Gold.Chemscore.Hbond.Weighted>
-6.5013

> <Gold.Chemscore.Metal.Weighted>
-0.0000

> <Gold.Chemscore.Lipo.Weighted>
-13.7882

> <Gold.Chemscore.Internal_Hbond.Weighted>
0.0000

> <Gold.Chemscore.DEClash.Weighted>
1.6050

> <Gold.Chemscore.DEInternal.Weighted>
3.2809

> <Gold.Chemscore.Rot.Weighted>
4.4387

> <Gold.Chemscore.Internal.Correction.Weighted>
   9.000000E+99

> <Gold.Protein.RotatedTorsions>
[ 6907 6896 6895 6894 ] final   96.23 input  -60.11 | X-H torsion
[ 7974 7965 7964 7962 ] final   57.17 input  175.53 | X-H torsion
[ 8008 7997 7996 7995 ] final  -47.60 input   59.86 | X-H torsion
[ 10167 10162 10161 10158 ] final  -63.04 input  -65.29 | X-H torsion
[ 10718 10713 10712 10709 ] final -120.66 input   66.30 | X-H torsion
[ 10763 10752 10751 10750 ] final  -72.92 input  -60.55 | X-H torsion
[ 11005 11000 10999 10996 ] final  149.25 input  -57.11 | X-H torsion

> <Gold.Protein.ActiveResidues>
 VAL166  LYS551  ARG553  GLY616  TRP617  ASP618  TYR619  PRO620  LYS621  CYS622 
 ASP623  PHE694  ASN695  SER759  ASP760  ASP761  ALA762  ILE779  LEU786  VAL792 
 PHE793  MET794  SER795  GLU796  ALA797  LYS798  CYS799  TRP800  GLU811  SER814 

> <Gold.Protein.RotatedAtoms>
  152.5437  134.0918  159.8279 H   0  0  0  0  0  0  0  0  0  0  0  0  # atno 6907 bound_to 6896
  151.1006  133.5239  159.2617 H   0  0  0  0  0  0  0  0  0  0  0  0  # atno 6908 bound_to 6896
  151.1995  135.0446  159.8920 H   0  0  0  0  0  0  0  0  0  0  0  0  # atno 6909 bound_to 6896
  145.9319  139.3815  143.0416 H   0  0  0  0  0  0  0  0  0  0  0  0  # atno 7974 bound_to 7965
  154.4018  140.1342  156.4203 H   0  0  0  0  0  0  0  0  0  0  0  0  # atno 8008 bound_to 7997
  155.7649  140.3485  155.5197 H   0  0  0  0  0  0  0  0  0  0  0  0  # atno 8009 bound_to 7997
  155.8823  140.0989  157.1467 H   0  0  0  0  0  0  0  0  0  0  0  0  # atno 8010 bound_to 7997
  140.5898  143.2340  151.6164 H   0  0  0  0  0  0  0  0  0  0  0  0  # atno 10167 bound_to 10162
  156.1276  130.6371  150.9568 H   0  0  0  0  0  0  0  0  0  0  0  0  # atno 10718 bound_to 10713
  154.4523  135.5914  153.6200 H   0  0  0  0  0  0  0  0  0  0  0  0  # atno 10763 bound_to 10752
  152.9815  135.6024  154.3589 H   0  0  0  0  0  0  0  0  0  0  0  0  # atno 10764 bound_to 10752
  154.3452  135.2841  155.2380 H   0  0  0  0  0  0  0  0  0  0  0  0  # atno 10765 bound_to 10752
  140.1029  134.8972  157.1822 H   0  0  0  0  0  0  0  0  0  0  0  0  # atno 11005 bound_to 11000
  145.8415  140.9578  143.0797 LP  0  0  0  0  0  0  0  0  0  0  0  0  # atno 17320 bound_to 7965
  144.6766  140.0290  143.7483 LP  0  0  0  0  0  0  0  0  0  0  0  0  # atno 17321 bound_to 7965
  139.5220  144.3175  152.0939 LP  0  0  0  0  0  0  0  0  0  0  0  0  # atno 17342 bound_to 10162
  140.2338  144.4341  150.6289 LP  0  0  0  0  0  0  0  0  0  0  0  0  # atno 17343 bound_to 10162
  157.6456  131.0904  150.8160 LP  0  0  0  0  0  0  0  0  0  0  0  0  # atno 17370 bound_to 10713
  156.8248  130.4996  149.5338 LP  0  0  0  0  0  0  0  0  0  0  0  0  # atno 17371 bound_to 10713
  140.3196  134.2932  155.7249 LP  0  0  0  0  0  0  0  0  0  0  0  0  # atno 17394 bound_to 11000
  141.2110  133.7701  156.9892 LP  0  0  0  0  0  0  0  0  0  0  0  0  # atno 17395 bound_to 11000

$$$$
