AV-unprocessed.smi:34|AV-procd|sdf|236|dock4
  -GOLD-   2262015573D 1   1.00000     0.00000
 Structure written by MMmdl.
 54 58  0  0  0  0  0  0  0  0  2 V2000
  145.1599  132.1257  151.1330 O   0  0  0  0  0  0  0  0  0  0  0  0
  145.7398  131.9996  152.2136 C   0  0  0  0  0  0  0  0  0  0  0  0
  145.8359  132.9069  153.2182 N   0  5  0  0  0  0  0  0  0  0  0  0
  145.7692  134.2191  152.9441 C   0  0  0  0  0  0  0  0  0  0  0  0
  145.2778  134.6467  151.7532 N   0  0  0  0  0  0  0  0  0  0  0  0
  145.2170  135.9546  151.4768 C   0  0  0  0  0  0  0  0  0  0  0  0
  145.5926  136.9911  152.2320 N   0  0  0  0  0  0  0  0  0  0  0  0
  146.0972  136.5754  153.4303 C   0  0  0  0  0  0  0  0  0  0  0  0
  146.2176  135.2184  153.8514 C   0  0  0  0  0  0  0  0  0  0  0  0
  146.7688  135.1439  155.1219 N   0  0  0  0  0  0  0  0  0  0  0  0
  146.9514  136.4299  155.4115 C   0  0  0  0  0  0  0  0  0  0  0  0
  146.5854  137.3354  154.4827 N   0  0  0  0  0  0  0  0  0  0  0  0
  146.6932  138.8246  154.5877 C   0  0  1  0  0  0  0  0  0  0  0  0
  147.1729  139.1697  155.8512 O   0  0  0  0  0  0  0  0  0  0  0  0
  148.1165  140.2372  155.7594 C   0  0  1  0  0  0  0  0  0  0  0  0
  149.4735  139.7335  156.2709 C   0  0  0  0  0  0  0  0  0  0  0  0
  150.2971  140.8432  156.5917 O   0  0  0  0  0  0  0  0  0  0  0  0
  151.1575  140.7692  157.6258 C   0  0  0  0  0  0  0  0  0  0  0  0
  151.5134  139.7085  158.1434 O   0  0  0  0  0  0  0  0  0  0  0  0
  151.6342  142.1072  158.0806 C   0  0  0  0  0  0  0  0  0  0  0  0
  151.1811  143.2685  157.4117 C   0  0  0  0  0  0  0  0  0  0  0  0
  151.6132  144.5457  157.8188 C   0  0  0  0  0  0  0  0  0  0  0  0
  152.5049  144.6774  158.8991 C   0  0  0  0  0  0  0  0  0  0  0  0
  152.9634  143.5303  159.5726 C   0  0  0  0  0  0  0  0  0  0  0  0
  152.5314  142.2520  159.1678 C   0  0  0  0  0  0  0  0  0  0  0  0
  148.1425  140.6629  154.2856 C   0  0  2  0  0  0  0  0  0  0  0  0
  147.2899  141.6725  154.1012 F   0  0  0  0  0  0  0  0  0  0  0  0
  147.6350  139.4411  153.5443 C   0  0  1  0  0  0  0  0  0  0  0  0
  148.6990  138.5980  153.1424 O   0  0  0  0  0  0  0  0  0  0  0  0
  146.5055  130.7315  152.4823 C   0  0  0  0  0  0  0  0  0  0  0  0
  146.2031  129.5621  151.7480 C   0  0  0  0  0  0  0  0  0  0  0  0
  146.8911  128.3592  152.0009 C   0  0  0  0  0  0  0  0  0  0  0  0
  147.8826  128.3102  152.9986 C   0  0  0  0  0  0  0  0  0  0  0  0
  148.1829  129.4642  153.7459 C   0  0  0  0  0  0  0  0  0  0  0  0
  147.4955  130.6676  153.4933 C   0  0  0  0  0  0  0  0  0  0  0  0
  144.8089  136.2071  150.5094 H   0  0  0  0  0  0  0  0  0  0  0  0
  147.3748  136.7325  156.3579 H   0  0  0  0  0  0  0  0  0  0  0  0
  145.6698  139.1901  154.4906 H   0  0  0  0  0  0  0  0  0  0  0  0
  147.7774  141.0569  156.3942 H   0  0  0  0  0  0  0  0  0  0  0  0
  149.3271  139.1306  157.1683 H   0  0  0  0  0  0  0  0  0  0  0  0
  149.9583  139.1003  155.5269 H   0  0  0  0  0  0  0  0  0  0  0  0
  150.4973  143.1921  156.5786 H   0  0  0  0  0  0  0  0  0  0  0  0
  151.2598  145.4252  157.3010 H   0  0  0  0  0  0  0  0  0  0  0  0
  152.8362  145.6569  159.2109 H   0  0  0  0  0  0  0  0  0  0  0  0
  153.6482  143.6300  160.4017 H   0  0  0  0  0  0  0  0  0  0  0  0
  152.9019  141.3928  159.7073 H   0  0  0  0  0  0  0  0  0  0  0  0
  149.1185  141.0103  153.9435 H   0  0  0  0  0  0  0  0  0  0  0  0
  147.0658  139.7081  152.6531 H   0  0  0  0  0  0  0  0  0  0  0  0
  148.9922  138.8705  152.2862 H   0  0  0  0  0  0  0  0  0  0  0  0
  145.4434  129.5825  150.9799 H   0  0  0  0  0  0  0  0  0  0  0  0
  146.6563  127.4737  151.4293 H   0  0  0  0  0  0  0  0  0  0  0  0
  148.4092  127.3878  153.1933 H   0  0  0  0  0  0  0  0  0  0  0  0
  148.9388  129.4270  154.5162 H   0  0  0  0  0  0  0  0  0  0  0  0
  147.7336  131.5392  154.0858 H   0  0  0  0  0  0  0  0  0  0  0  0
  1  2  2  0  0  0  0
  2  3  1  0  0  0  0
  2 30  1  0  0  0  0
  3  4  1  0  0  0  0
  4  9  1  0  0  0  0
  4  5  2  0  0  0  0
  5  6  1  0  0  0  0
  6  7  2  0  0  0  0
  6 36  1  0  0  0  0
  7  8  1  0  0  0  0
  8 12  1  0  0  0  0
  8  9  2  0  0  0  0
  9 10  1  0  0  0  0
 10 11  2  0  0  0  0
 11 12  1  0  0  0  0
 11 37  1  0  0  0  0
 12 13  1  0  0  0  0
 13 28  1  0  0  0  0
 13 14  1  0  0  0  0
 13 38  1  0  0  0  0
 14 15  1  0  0  0  0
 15 16  1  0  0  0  0
 15 26  1  0  0  0  0
 15 39  1  0  0  0  0
 16 17  1  0  0  0  0
 16 40  1  0  0  0  0
 16 41  1  0  0  0  0
 17 18  1  0  0  0  0
 18 19  2  0  0  0  0
 18 20  1  0  0  0  0
 20 25  1  0  0  0  0
 20 21  2  0  0  0  0
 21 22  1  0  0  0  0
 21 42  1  0  0  0  0
 22 23  2  0  0  0  0
 22 43  1  0  0  0  0
 23 24  1  0  0  0  0
 23 44  1  0  0  0  0
 24 25  2  0  0  0  0
 24 45  1  0  0  0  0
 25 46  1  0  0  0  0
 26 27  1  0  0  0  0
 26 28  1  0  0  0  0
 26 47  1  0  0  0  0
 28 29  1  0  0  0  0
 28 48  1  0  0  0  0
 29 49  1  0  0  0  0
 30 35  1  0  0  0  0
 30 31  2  0  0  0  0
 31 32  1  0  0  0  0
 31 50  1  0  0  0  0
 32 33  2  0  0  0  0
 32 51  1  0  0  0  0
 33 34  1  0  0  0  0
 33 52  1  0  0  0  0
 34 35  2  0  0  0  0
 34 53  1  0  0  0  0
 35 54  1  0  0  0  0
M  CHG  1   3  -1
M  END
> <s_m_source_file>
AV-unprocessed.smi

> <i_m_source_file_index>
34

> <i_lp_mmshare_version>
43012

> <i_f3d_flags>
0

> <s_epik_input>
W2NIXTFbY0hdW2NIXVtjSF1bY0hdYzFDKD1PKVtOSF1jKG5bY0hdbjIpYyhjMjMpbltjSF1uM1tDQEBIXTRPW0NASF0oW0NAQEhdKEYpW0NASF00W09IXSlbQ0gyXU9DKD1PKWM1W2NIXVtjSF1bY0hdW2NIXVtjSF01

> <s_epik_cmdline>
J2VwaWtfcHl0aG9uJywgJy1waCcsICc3LjAnLCAnLXRuJywgJzgnLCAnLW1hJywgJzIwMCcsICctbWV0YWxfYmluZGluZycsICctaW1hZScsICc8aW5maWxlLm1hZT4nLCAnLW9tYWUnLCAnPG91dGZpbGUubWFlPic=

> <r_lp_tautomer_probability>
1

> <r_epik_Ionization_Penalty>
4.33227

> <r_epik_Ionization_Penalty_Charging>
3.41027

> <r_epik_Ionization_Penalty_Neutral>
0.922001

> <r_epik_State_Penalty>
3.41358

> <r_epik_Charging_Adjusted_Penalty>
6.82385

> <i_epik_Tot_Q>
-1

> <i_epik_Tot_abs_Q>
1

> <r_epik_Metal_State_Penalty>
0.496292

> <b_epik_Metal_Only>
1

> <s_epik_Chemistry_Notes>
This compound has an ester and may undergo hydrolysis at high or low pH. This compound contains an acetal/aminal-like group ( X-CH(R)-Y where X, Y are N, S, or O) that may be acid/base labile, releasing an aldehyde.

> <s_lp_Force_Field>
OPLS_2005

> <r_lp_Energy>
54.5703

> <b_lp_Chiralities_Consistent>
1

> <s_lp_Variant>
AV-unprocessed.smi:34-22

> <Gold.Version>
5.8.1

> <Gold.Id.Protein>
6NUR|6NUR_protein|mol2

> <Gold.PLP.Fitness>
58.6790

> <Gold.PLP.PLP>
-54.4042

> <Gold.PLP.part.hbond>
-1.9904

> <Gold.PLP.part.metal>
0.0000

> <Gold.PLP.part.buried>
-7.1379

> <Gold.PLP.part.nonpolar>
-46.4632

> <Gold.PLP.part.repulsive>
0.6738

> <Gold.PLP.ligand.clash>
0.0000

> <Gold.PLP.ligand.torsion>
1.0534

> <Gold.PLP.Chemscore.Hbond>
1.0000

> <Gold.PLP.Chemscore.CHOScore>
0.9318

> <Gold.PLP.Chemscore.Metal>
0.0000

> <Gold.Chemscore.Hbonds>
donor molecule, donor type, donor heavy atom, donor atom, acceptor molecule, acceptor atom, score
      L1  H    29    49       P1  7957  1.00
      L1  C     6    36       P1 10171  0.67

> <Gold.PLP.Chemscore.Internal.Correction>
0.5862

> <Gold.Rescore>
     Score         DG    S(hbond)    S(metal)    S(lipo)     H(rot)  DE(clash)    DE(int)     intcor
     15.13     -18.11       0.96        0.00     139.44       2.69       0.22       2.76       ----

> <Gold.Chemscore.Fitness>
15.1324

> <Gold.Chemscore.DG>
-18.1117

> <Gold.Chemscore.ZeroCoef>
-5.4800

> <Gold.Chemscore.Hbond>
0.9626

> <Gold.Chemscore.Metal>
0.0000

> <Gold.Chemscore.Lipo>
139.4360

> <Gold.Chemscore.Internal_Hbond>
0.0000

> <Gold.Chemscore.DEClash>
0.2196

> <Gold.Chemscore.DEInternal>
2.7597

> <Gold.Chemscore.Rot>
2.6944

> <Gold.Chemscore.Internal.Correction>
   9.000000E+99

> <Gold.Chemscore.Hbonds>
donor molecule, donor type, donor heavy atom, donor atom, acceptor molecule, acceptor atom, score
      L1  H    29    49       P1  7957  0.91

> <Gold.Chemscore.Hbond.Weighted>
-3.2152

> <Gold.Chemscore.Metal.Weighted>
-0.0000

> <Gold.Chemscore.Lipo.Weighted>
-16.3140

> <Gold.Chemscore.Internal_Hbond.Weighted>
0.0000

> <Gold.Chemscore.DEClash.Weighted>
0.2196

> <Gold.Chemscore.DEInternal.Weighted>
2.7597

> <Gold.Chemscore.Rot.Weighted>
6.8975

> <Gold.Chemscore.Internal.Correction.Weighted>
   9.000000E+99

> <Gold.Protein.RotatedTorsions>
[ 6907 6896 6895 6894 ] final   63.93 input  -60.11 | X-H torsion
[ 7974 7965 7964 7962 ] final  -52.75 input  175.53 | X-H torsion
[ 8008 7997 7996 7995 ] final  -66.43 input   59.86 | X-H torsion
[ 10167 10162 10161 10158 ] final  -20.86 input  -65.29 | X-H torsion
[ 10718 10713 10712 10709 ] final  128.38 input   66.30 | X-H torsion
[ 10763 10752 10751 10750 ] final  -94.43 input  -60.55 | X-H torsion
[ 11005 11000 10999 10996 ] final  -65.26 input  -57.11 | X-H torsion

> <Gold.Protein.ActiveResidues>
 VAL166  LYS551  ARG553  GLY616  TRP617  ASP618  TYR619  PRO620  LYS621  CYS622 
 ASP623  PHE694  ASN695  SER759  ASP760  ASP761  ALA762  ILE779  LEU786  VAL792 
 PHE793  MET794  SER795  GLU796  ALA797  LYS798  CYS799  TRP800  GLU811  SER814 

> <Gold.Protein.RotatedAtoms>
  152.4292  134.5810  159.9947 H   0  0  0  0  0  0  0  0  0  0  0  0  # atno 6907 bound_to 6896
  151.5938  133.3358  159.3041 H   0  0  0  0  0  0  0  0  0  0  0  0  # atno 6908 bound_to 6896
  150.8183  134.7414  159.6815 H   0  0  0  0  0  0  0  0  0  0  0  0  # atno 6909 bound_to 6896
  145.9045  140.7967  142.9726 H   0  0  0  0  0  0  0  0  0  0  0  0  # atno 7974 bound_to 7965
  154.4734  140.0913  156.7202 H   0  0  0  0  0  0  0  0  0  0  0  0  # atno 8008 bound_to 7997
  155.4662  140.3463  155.4301 H   0  0  0  0  0  0  0  0  0  0  0  0  # atno 8009 bound_to 7997
  156.1077  140.1439  156.9370 H   0  0  0  0  0  0  0  0  0  0  0  0  # atno 8010 bound_to 7997
  140.7279  143.4682  151.0283 H   0  0  0  0  0  0  0  0  0  0  0  0  # atno 10167 bound_to 10162
  157.5250  131.1098  150.9096 H   0  0  0  0  0  0  0  0  0  0  0  0  # atno 10718 bound_to 10713
  154.7054  135.5158  153.8588 H   0  0  0  0  0  0  0  0  0  0  0  0  # atno 10763 bound_to 10752
  153.0737  135.6609  154.0201 H   0  0  0  0  0  0  0  0  0  0  0  0  # atno 10764 bound_to 10752
  154.0052  135.3007  155.3378 H   0  0  0  0  0  0  0  0  0  0  0  0  # atno 10765 bound_to 10752
  141.1449  133.6679  156.5960 H   0  0  0  0  0  0  0  0  0  0  0  0  # atno 11005 bound_to 11000
  144.6738  140.1729  143.7412 LP  0  0  0  0  0  0  0  0  0  0  0  0  # atno 17320 bound_to 7965
  145.8749  139.2292  143.1639 LP  0  0  0  0  0  0  0  0  0  0  0  0  # atno 17321 bound_to 7965
  139.8372  143.7611  152.3180 LP  0  0  0  0  0  0  0  0  0  0  0  0  # atno 17342 bound_to 10162
  139.7748  144.7464  151.0173 LP  0  0  0  0  0  0  0  0  0  0  0  0  # atno 17343 bound_to 10162
  156.9695  130.5485  149.5290 LP  0  0  0  0  0  0  0  0  0  0  0  0  # atno 17370 bound_to 10713
  156.0380  130.5466  150.8702 LP  0  0  0  0  0  0  0  0  0  0  0  0  # atno 17371 bound_to 10713
  140.3726  134.7592  157.4608 LP  0  0  0  0  0  0  0  0  0  0  0  0  # atno 17394 bound_to 11000
  140.0699  134.5877  155.8654 LP  0  0  0  0  0  0  0  0  0  0  0  0  # atno 17395 bound_to 11000

$$$$
