AV-unprocessed.smi:1100|AV-procd|sdf|4760|dock7
  -GOLD-   22720 3293D 1   1.00000     0.00000
 Structure written by MMmdl.
 43 44  0  0  0  0  0  0  0  0  1 V2000
  148.5952  140.8179  154.1018 C   0  0  0  0  0  0  0  0  0  0  0  0
  148.2534  139.3762  154.5574 C   0  0  1  0  0  0  0  0  0  0  0  0
  146.9039  138.9478  153.9089 C   0  0  0  0  0  0  0  0  0  0  0  0
  146.9798  137.6781  153.1905 N   0  0  0  0  0  0  0  0  0  0  0  0
  145.9422  137.0528  152.6161 C   0  0  0  0  0  0  0  0  0  0  0  0
  144.7891  137.4794  152.6647 O   0  0  0  0  0  0  0  0  0  0  0  0
  146.3473  135.9368  151.9830 N   0  0  0  0  0  0  0  0  0  0  0  0
  145.5889  135.0041  151.2614 C   0  0  0  0  0  0  0  0  0  0  0  0
  144.4521  135.3201  150.4085 C   0  0  0  0  0  0  0  0  0  0  0  0
  143.7878  134.3466  149.7544 C   0  0  0  0  0  0  0  0  0  0  0  0
  144.1740  132.9381  149.8701 C   0  0  0  0  0  0  0  0  0  0  0  0
  143.5763  132.0412  149.2747 O   0  0  0  0  0  0  0  0  0  0  0  0
  145.2387  132.6847  150.6842 N   0  0  0  0  0  0  0  0  0  0  0  0
  145.7014  131.3074  150.8709 C   0  0  0  0  0  0  0  0  0  0  0  0
  145.9259  133.7057  151.3670 C   0  0  0  0  0  0  0  0  0  0  0  0
  149.3558  138.4193  154.3032 N   0  0  0  0  0  0  0  0  0  0  0  0
  150.6786  139.0163  154.5223 C   0  0  0  0  0  0  0  0  0  0  0  0
  151.8309  138.0231  154.2936 C   0  0  0  0  0  0  0  0  0  0  0  0
  151.6619  136.8921  155.1362 O   0  0  0  0  0  0  0  0  0  0  0  0
  150.4254  136.2333  154.9006 C   0  0  0  0  0  0  0  0  0  0  0  0
  149.2617  137.2128  155.1339 C   0  0  0  0  0  0  0  0  0  0  0  0
  147.7664  141.5092  154.2484 H   0  0  0  0  0  0  0  0  0  0  0  0
  148.8616  140.8455  153.0448 H   0  0  0  0  0  0  0  0  0  0  0  0
  149.4205  141.2454  154.6694 H   0  0  0  0  0  0  0  0  0  0  0  0
  148.0921  139.4166  155.6357 H   0  0  0  0  0  0  0  0  0  0  0  0
  146.1366  138.8554  154.6782 H   0  0  0  0  0  0  0  0  0  0  0  0
  146.5394  139.6880  153.1978 H   0  0  0  0  0  0  0  0  0  0  0  0
  147.8945  137.2601  153.1040 H   0  0  0  0  0  0  0  0  0  0  0  0
  147.3373  135.7422  152.0128 H   0  0  0  0  0  0  0  0  0  0  0  0
  144.0996  136.3309  150.2844 H   0  0  0  0  0  0  0  0  0  0  0  0
  142.9445  134.6093  149.1329 H   0  0  0  0  0  0  0  0  0  0  0  0
  146.5986  131.2436  151.4875 H   0  0  0  0  0  0  0  0  0  0  0  0
  145.9374  130.8461  149.9108 H   0  0  0  0  0  0  0  0  0  0  0  0
  144.9281  130.7088  151.3545 H   0  0  0  0  0  0  0  0  0  0  0  0
  146.7500  133.3661  151.9782 H   0  0  0  0  0  0  0  0  0  0  0  0
  150.8404  139.8514  153.8431 H   0  0  0  0  0  0  0  0  0  0  0  0
  150.7410  139.4147  155.5362 H   0  0  0  0  0  0  0  0  0  0  0  0
  151.8690  137.7077  153.2497 H   0  0  0  0  0  0  0  0  0  0  0  0
  152.7871  138.4949  154.5203 H   0  0  0  0  0  0  0  0  0  0  0  0
  150.4016  135.8398  153.8831 H   0  0  0  0  0  0  0  0  0  0  0  0
  150.3430  135.3809  155.5751 H   0  0  0  0  0  0  0  0  0  0  0  0
  149.2280  137.4906  156.1885 H   0  0  0  0  0  0  0  0  0  0  0  0
  148.3448  136.6677  154.9197 H   0  0  0  0  0  0  0  0  0  0  0  0
  1  2  1  0  0  0  0
  1 22  1  0  0  0  0
  1 23  1  0  0  0  0
  1 24  1  0  0  0  0
  2  3  1  0  0  0  0
  2 16  1  0  0  0  0
  2 25  1  0  0  0  0
  3  4  1  0  0  0  0
  3 26  1  0  0  0  0
  3 27  1  0  0  0  0
  4  5  1  0  0  0  0
  4 28  1  0  0  0  0
  5  6  2  0  0  0  0
  5  7  1  0  0  0  0
  7  8  1  0  0  0  0
  7 29  1  0  0  0  0
  8 15  2  0  0  0  0
  8  9  1  0  0  0  0
  9 10  2  0  0  0  0
  9 30  1  0  0  0  0
 10 11  1  0  0  0  0
 10 31  1  0  0  0  0
 11 12  2  0  0  0  0
 11 13  1  0  0  0  0
 13 14  1  0  0  0  0
 13 15  1  0  0  0  0
 14 32  1  0  0  0  0
 14 33  1  0  0  0  0
 14 34  1  0  0  0  0
 15 35  1  0  0  0  0
 16 21  1  0  0  0  0
 16 17  1  0  0  0  0
 17 18  1  0  0  0  0
 17 36  1  0  0  0  0
 17 37  1  0  0  0  0
 18 19  1  0  0  0  0
 18 38  1  0  0  0  0
 18 39  1  0  0  0  0
 19 20  1  0  0  0  0
 20 21  1  0  0  0  0
 20 40  1  0  0  0  0
 20 41  1  0  0  0  0
 21 42  1  0  0  0  0
 21 43  1  0  0  0  0
M  END
> <s_m_source_file>
AV-unprocessed.smi

> <i_m_source_file_index>
1100

> <i_lp_mmshare_version>
43012

> <i_f3d_flags>
0

> <s_epik_input>
W0NIMl0xW0NIMl1PW0NIMl1bQ0gyXU4xW0NASF0oW0NIM10pW0NIMl1bTkhdQyg9TylbTkhdYzJbY0hdW2NIXWMoPU8pbihbQ0gzXSlbY0hdMg==

> <s_epik_cmdline>
J2VwaWtfcHl0aG9uJywgJy1waCcsICc3LjAnLCAnLXRuJywgJzgnLCAnLW1hJywgJzIwMCcsICctbWV0YWxfYmluZGluZycsICctaW1hZScsICc8aW5maWxlLm1hZT4nLCAnLW9tYWUnLCAnPG91dGZpbGUubWFlPic=

> <r_lp_tautomer_probability>
1

> <r_epik_Ionization_Penalty>
0.266016

> <r_epik_Ionization_Penalty_Charging>
5.79683e-06

> <r_epik_Ionization_Penalty_Neutral>
0.26601

> <r_epik_State_Penalty>
0.257924

> <r_epik_Charging_Adjusted_Penalty>
0.25793

> <i_epik_Tot_Q>
0

> <i_epik_Tot_abs_Q>
0

> <r_epik_Metal_State_Penalty>
0.260326

> <b_epik_Metal_Only>
0

> <s_lp_Force_Field>
OPLS_2005

> <r_lp_Energy>
41.8839

> <b_lp_Chiralities_Consistent>
1

> <s_lp_Variant>
AV-unprocessed.smi:1100-2

> <Gold.Version>
5.8.1

> <Gold.Id.Protein>
6NUR|6NUR_protein|mol2

> <Gold.PLP.Fitness>
43.3434

> <Gold.PLP.PLP>
-34.8571

> <Gold.PLP.part.hbond>
-4.0000

> <Gold.PLP.part.metal>
0.0000

> <Gold.PLP.part.buried>
-3.8280

> <Gold.PLP.part.nonpolar>
-29.3588

> <Gold.PLP.part.repulsive>
0.8556

> <Gold.PLP.ligand.clash>
0.0000

> <Gold.PLP.ligand.torsion>
1.3897

> <Gold.PLP.Chemscore.Hbond>
3.7440

> <Gold.PLP.Chemscore.CHOScore>
0.0000

> <Gold.PLP.Chemscore.Metal>
0.0000

> <Gold.Chemscore.Hbonds>
donor molecule, donor type, donor heavy atom, donor atom, acceptor molecule, acceptor atom, score
      L1  H     4    28       P1  7948  0.82
      L1  H     7    29       P1  7948  1.00
      P1  H 10752 10763       L1    19  0.99
      P1  H 10785 10796       L1    12  0.93

> <Gold.PLP.Chemscore.Internal.Correction>
0.0338

> <Gold.Rescore>
     Score         DG    S(hbond)    S(metal)    S(lipo)     H(rot)  DE(clash)    DE(int)     intcor
     18.78     -21.83       3.22        0.00      80.41       1.49       1.55       1.50       ----

> <Gold.Chemscore.Fitness>
18.7780

> <Gold.Chemscore.DG>
-21.8270

> <Gold.Chemscore.ZeroCoef>
-5.4800

> <Gold.Chemscore.Hbond>
3.2224

> <Gold.Chemscore.Metal>
0.0000

> <Gold.Chemscore.Lipo>
80.4137

> <Gold.Chemscore.Internal_Hbond>
0.0000

> <Gold.Chemscore.DEClash>
1.5505

> <Gold.Chemscore.DEInternal>
1.4985

> <Gold.Chemscore.Rot>
1.4938

> <Gold.Chemscore.Internal.Correction>
   9.000000E+99

> <Gold.Chemscore.Hbonds>
donor molecule, donor type, donor heavy atom, donor atom, acceptor molecule, acceptor atom, score
      L1  H     4    28       P1  7948  0.81
      L1  H     7    29       P1  7948  0.96
      P1  H 10752 10763       L1    19  0.40
      P1  H 10785 10796       L1    12  0.87

> <Gold.Chemscore.Hbond.Weighted>
-10.7628

> <Gold.Chemscore.Metal.Weighted>
-0.0000

> <Gold.Chemscore.Lipo.Weighted>
-9.4084

> <Gold.Chemscore.Internal_Hbond.Weighted>
0.0000

> <Gold.Chemscore.DEClash.Weighted>
1.5505

> <Gold.Chemscore.DEInternal.Weighted>
1.4985

> <Gold.Chemscore.Rot.Weighted>
3.8242

> <Gold.Chemscore.Internal.Correction.Weighted>
   9.000000E+99

> <Gold.Protein.RotatedTorsions>
[ 6907 6896 6895 6894 ] final   53.93 input  -60.11 | X-H torsion
[ 7974 7965 7964 7962 ] final   89.19 input  175.53 | X-H torsion
[ 8008 7997 7996 7995 ] final  -26.49 input   59.86 | X-H torsion
[ 10167 10162 10161 10158 ] final   11.57 input  -65.29 | X-H torsion
[ 10718 10713 10712 10709 ] final   -9.03 input   66.30 | X-H torsion
[ 10763 10752 10751 10750 ] final   77.26 input  -60.55 | X-H torsion
[ 11005 11000 10999 10996 ] final  -45.60 input  -57.11 | X-H torsion

> <Gold.Protein.ActiveResidues>
 VAL166  LYS551  ARG553  GLY616  TRP617  ASP618  TYR619  PRO620  LYS621  CYS622 
 ASP623  PHE694  ASN695  SER759  ASP760  ASP761  ALA762  ILE779  LEU786  VAL792 
 PHE793  MET794  SER795  GLU796  ALA797  LYS798  CYS799  TRP800  GLU811  SER814 

> <Gold.Protein.RotatedAtoms>
  152.3387  134.7164  160.0269 H   0  0  0  0  0  0  0  0  0  0  0  0  # atno 6907 bound_to 6896
  151.7556  133.3325  159.3411 H   0  0  0  0  0  0  0  0  0  0  0  0  # atno 6908 bound_to 6896
  150.7466  134.6085  159.6118 H   0  0  0  0  0  0  0  0  0  0  0  0  # atno 6909 bound_to 6896
  145.5357  139.2285  143.2594 H   0  0  0  0  0  0  0  0  0  0  0  0  # atno 7974 bound_to 7965
  154.4423  140.1898  156.0783 H   0  0  0  0  0  0  0  0  0  0  0  0  # atno 8008 bound_to 7997
  156.0458  140.3314  155.7269 H   0  0  0  0  0  0  0  0  0  0  0  0  # atno 8009 bound_to 7997
  155.5631  140.0605  157.2815 H   0  0  0  0  0  0  0  0  0  0  0  0  # atno 8010 bound_to 7997
  140.6123  143.8381  150.7079 H   0  0  0  0  0  0  0  0  0  0  0  0  # atno 10167 bound_to 10162
  156.6940  130.5073  149.5935 H   0  0  0  0  0  0  0  0  0  0  0  0  # atno 10718 bound_to 10713
  153.0785  135.4921  154.8455 H   0  0  0  0  0  0  0  0  0  0  0  0  # atno 10763 bound_to 10752
  154.7120  135.3022  154.9185 H   0  0  0  0  0  0  0  0  0  0  0  0  # atno 10764 bound_to 10752
  153.9876  135.6782  153.4805 H   0  0  0  0  0  0  0  0  0  0  0  0  # atno 10765 bound_to 10752
  141.0526  133.6737  156.3036 H   0  0  0  0  0  0  0  0  0  0  0  0  # atno 11005 bound_to 11000
  146.2015  140.6175  142.9100 LP  0  0  0  0  0  0  0  0  0  0  0  0  # atno 17320 bound_to 7965
  144.7603  140.5405  143.6740 LP  0  0  0  0  0  0  0  0  0  0  0  0  # atno 17321 bound_to 7965
  140.1952  143.4004  152.1833 LP  0  0  0  0  0  0  0  0  0  0  0  0  # atno 17342 bound_to 10162
  139.5371  144.7220  151.4856 LP  0  0  0  0  0  0  0  0  0  0  0  0  # atno 17343 bound_to 10162
  156.1777  130.6478  151.0914 LP  0  0  0  0  0  0  0  0  0  0  0  0  # atno 17370 bound_to 10713
  157.6998  131.0780  150.6856 LP  0  0  0  0  0  0  0  0  0  0  0  0  # atno 17371 bound_to 10713
  140.6026  134.5539  157.5520 LP  0  0  0  0  0  0  0  0  0  0  0  0  # atno 17394 bound_to 11000
  139.9363  134.7869  156.0795 LP  0  0  0  0  0  0  0  0  0  0  0  0  # atno 17395 bound_to 11000

$$$$
