AV-unprocessed.smi:1056|AV-procd|sdf|4643|dock2
  -GOLD-   22720 3143D 1   1.00000     0.00000
 Structure written by MMmdl.
 44 46  0  0  0  0  0  0  0  0  3 V2000
  152.8174  142.7723  161.1408 C   0  0  0  0  0  0  0  0  0  0  0  0
  152.2014  142.3770  159.8103 C   0  0  0  0  0  0  0  0  0  0  0  0
  152.6675  141.2146  159.1559 C   0  0  0  0  0  0  0  0  0  0  0  0
  152.1214  140.8122  157.9176 C   0  0  0  0  0  0  0  0  0  0  0  0
  152.4219  139.7278  157.1115 N   0  0  0  0  0  0  0  0  0  0  0  0
  151.5754  139.9010  156.1008 C   0  0  0  0  0  0  0  0  0  0  0  0
  150.7651  140.9757  156.1536 N   0  0  0  0  0  0  0  0  0  0  0  0
  149.7695  141.3745  155.1753 C   0  0  0  0  0  0  0  0  0  0  0  0
  148.7895  140.2348  154.8397 C   0  0  1  0  0  0  0  0  0  0  0  0
  147.6061  140.7829  154.2918 O   0  0  0  0  0  0  0  0  0  0  0  0
  149.3904  139.2423  153.8258 C   0  0  0  0  0  0  0  0  0  0  0  0
  149.2302  137.8315  154.2576 N   0  3  2  0  0  0  0  0  0  0  0  0
  147.9686  137.5755  155.0011 C   0  0  0  0  0  0  0  0  0  0  0  0
  147.7276  136.0599  155.1323 C   0  0  0  0  0  0  0  0  0  0  0  0
  148.9491  135.3893  155.5939 N   0  5  0  0  0  0  0  0  0  0  0  0
  150.2309  135.8560  155.4669 C   0  0  0  0  0  0  0  0  0  0  0  0
  151.2495  135.2231  155.7349 O   0  0  0  0  0  0  0  0  0  0  0  0
  150.4195  137.3237  154.9958 C   0  0  0  0  0  0  0  0  0  0  0  0
  151.0881  141.6115  157.3473 C   0  0  0  0  0  0  0  0  0  0  0  0
  150.6150  142.7698  157.9886 C   0  0  0  0  0  0  0  0  0  0  0  0
  151.1723  143.1577  159.2252 C   0  0  0  0  0  0  0  0  0  0  0  0
  150.6566  144.4110  159.9098 C   0  0  0  0  0  0  0  0  0  0  0  0
  153.5847  142.0625  161.4513 H   0  0  0  0  0  0  0  0  0  0  0  0
  152.0561  142.8033  161.9207 H   0  0  0  0  0  0  0  0  0  0  0  0
  153.2815  143.7562  161.0696 H   0  0  0  0  0  0  0  0  0  0  0  0
  153.4513  140.6197  159.6016 H   0  0  0  0  0  0  0  0  0  0  0  0
  151.5464  139.2096  155.2711 H   0  0  0  0  0  0  0  0  0  0  0  0
  149.2310  142.2442  155.5552 H   0  0  0  0  0  0  0  0  0  0  0  0
  150.2924  141.6992  154.2749 H   0  0  0  0  0  0  0  0  0  0  0  0
  148.5258  139.7204  155.7632 H   0  0  0  0  0  0  0  0  0  0  0  0
  147.3632  141.5423  154.8000 H   0  0  0  0  0  0  0  0  0  0  0  0
  148.9040  139.3932  152.8606 H   0  0  0  0  0  0  0  0  0  0  0  0
  150.4503  139.4467  153.6664 H   0  0  0  0  0  0  0  0  0  0  0  0
  148.0286  138.0384  155.9875 H   0  0  0  0  0  0  0  0  0  0  0  0
  147.1152  138.0270  154.4971 H   0  0  0  0  0  0  0  0  0  0  0  0
  146.8875  135.8855  155.8039 H   0  0  0  0  0  0  0  0  0  0  0  0
  147.4179  135.6721  154.1615 H   0  0  0  0  0  0  0  0  0  0  0  0
  151.2993  137.3809  154.3534 H   0  0  0  0  0  0  0  0  0  0  0  0
  150.6111  137.9499  155.8685 H   0  0  0  0  0  0  0  0  0  0  0  0
  149.8305  143.3551  157.5322 H   0  0  0  0  0  0  0  0  0  0  0  0
  149.8729  144.8913  159.3234 H   0  0  0  0  0  0  0  0  0  0  0  0
  151.4632  145.1320  160.0445 H   0  0  0  0  0  0  0  0  0  0  0  0
  150.2416  144.1685  160.8883 H   0  0  0  0  0  0  0  0  0  0  0  0
  149.1782  137.2780  153.4143 H   0  0  0  0  0  0  0  0  0  0  0  0
  1  2  1  0  0  0  0
  1 23  1  0  0  0  0
  1 24  1  0  0  0  0
  1 25  1  0  0  0  0
  2 21  1  0  0  0  0
  2  3  2  0  0  0  0
  3  4  1  0  0  0  0
  3 26  1  0  0  0  0
  4 19  2  0  0  0  0
  4  5  1  0  0  0  0
  5  6  2  0  0  0  0
  6  7  1  0  0  0  0
  6 27  1  0  0  0  0
  7  8  1  0  0  0  0
  7 19  1  0  0  0  0
  8  9  1  0  0  0  0
  8 28  1  0  0  0  0
  8 29  1  0  0  0  0
  9 10  1  0  0  0  0
  9 11  1  0  0  0  0
  9 30  1  0  0  0  0
 10 31  1  0  0  0  0
 11 12  1  0  0  0  0
 11 32  1  0  0  0  0
 11 33  1  0  0  0  0
 12 18  1  0  0  0  0
 12 13  1  0  0  0  0
 12 44  1  0  0  0  0
 13 14  1  0  0  0  0
 13 34  1  0  0  0  0
 13 35  1  0  0  0  0
 14 15  1  0  0  0  0
 14 36  1  0  0  0  0
 14 37  1  0  0  0  0
 15 16  1  0  0  0  0
 16 17  2  0  0  0  0
 16 18  1  0  0  0  0
 18 38  1  0  0  0  0
 18 39  1  0  0  0  0
 19 20  1  0  0  0  0
 20 21  2  0  0  0  0
 20 40  1  0  0  0  0
 21 22  1  0  0  0  0
 22 41  1  0  0  0  0
 22 42  1  0  0  0  0
 22 43  1  0  0  0  0
M  CHG  1  12   1
M  CHG  1  15  -1
M  END
> <s_m_source_file>
AV-unprocessed.smi

> <i_m_source_file_index>
1056

> <i_lp_mmshare_version>
43012

> <i_f3d_flags>
0

> <s_epik_input>
W0NIM11jKFtjSF0xKWMoW0NIM10pW2NIXWMoYzEyKW4oW2NIXW4yKVtDSDJdW0NASF0oW09IXSlbQ0gyXU4zW0NIMl1bQ0gyXVtOSF1DKD1PKVtDSDJdMw==

> <s_epik_cmdline>
J2VwaWtfcHl0aG9uJywgJy1waCcsICc3LjAnLCAnLXRuJywgJzgnLCAnLW1hJywgJzIwMCcsICctbWV0YWxfYmluZGluZycsICctaW1hZScsICc8aW5maWxlLm1hZT4nLCAnLW9tYWUnLCAnPG91dGZpbGUubWFlPic=

> <r_epik_Ionization_Penalty>
5.13411

> <r_epik_Ionization_Penalty_Charging>
5.04792

> <r_epik_Ionization_Penalty_Neutral>
0.0861879

> <r_epik_State_Penalty>
5.18224

> <r_epik_Charging_Adjusted_Penalty>
10.2302

> <i_epik_Tot_Q>
0

> <i_epik_Tot_abs_Q>
2

> <r_epik_Metal_State_Penalty>
1.33873

> <b_epik_Metal_Only>
1

> <s_lp_Force_Field>
OPLS_2005

> <r_lp_Energy>
15.7703

> <b_lp_Chiralities_Consistent>
1

> <s_lp_Variant>
AV-unprocessed.smi:1056-14

> <Gold.Version>
5.8.1

> <Gold.Id.Protein>
6NUR|6NUR_protein|mol2

> <Gold.PLP.Fitness>
47.8159

> <Gold.PLP.PLP>
-38.3062

> <Gold.PLP.part.hbond>
-3.0000

> <Gold.PLP.part.metal>
0.0000

> <Gold.PLP.part.buried>
-2.7412

> <Gold.PLP.part.nonpolar>
-33.4554

> <Gold.PLP.part.repulsive>
0.1217

> <Gold.PLP.ligand.clash>
0.0000

> <Gold.PLP.ligand.torsion>
1.3026

> <Gold.PLP.Chemscore.Hbond>
4.0000

> <Gold.PLP.Chemscore.CHOScore>
0.0000

> <Gold.PLP.Chemscore.Metal>
0.0000

> <Gold.Chemscore.Hbonds>
donor molecule, donor type, donor heavy atom, donor atom, acceptor molecule, acceptor atom, score
      L1  H    12    44       P1  7948  2.00
      P1  H  7997  8009       L1     5  0.86
      P1  H 10752 10764       L1    17  0.99

> <Gold.PLP.Chemscore.Internal.Correction>
0.1148

> <Gold.Rescore>
     Score         DG    S(hbond)    S(metal)    S(lipo)     H(rot)  DE(clash)    DE(int)     intcor
     17.92     -20.86       2.81        0.00     101.85       2.31       1.67       1.27       ----

> <Gold.Chemscore.Fitness>
17.9229

> <Gold.Chemscore.DG>
-20.8625

> <Gold.Chemscore.ZeroCoef>
-5.4800

> <Gold.Chemscore.Hbond>
2.8119

> <Gold.Chemscore.Metal>
0.0000

> <Gold.Chemscore.Lipo>
101.8490

> <Gold.Chemscore.Internal_Hbond>
0.0000

> <Gold.Chemscore.DEClash>
1.6677

> <Gold.Chemscore.DEInternal>
1.2718

> <Gold.Chemscore.Rot>
2.3147

> <Gold.Chemscore.Internal.Correction>
   9.000000E+99

> <Gold.Chemscore.Hbonds>
donor molecule, donor type, donor heavy atom, donor atom, acceptor molecule, acceptor atom, score
      L1  H    12    44       P1  7948  1.00
      P1  H  7997  8009       L1     5  0.25
      P1  H 10752 10764       L1    17  0.89

> <Gold.Chemscore.Hbond.Weighted>
-9.3917

> <Gold.Chemscore.Metal.Weighted>
-0.0000

> <Gold.Chemscore.Lipo.Weighted>
-11.9163

> <Gold.Chemscore.Internal_Hbond.Weighted>
0.0000

> <Gold.Chemscore.DEClash.Weighted>
1.6677

> <Gold.Chemscore.DEInternal.Weighted>
1.2718

> <Gold.Chemscore.Rot.Weighted>
5.9256

> <Gold.Chemscore.Internal.Correction.Weighted>
   9.000000E+99

> <Gold.Protein.RotatedTorsions>
[ 6907 6896 6895 6894 ] final  -98.03 input  -60.11 | X-H torsion
[ 7974 7965 7964 7962 ] final  106.41 input  175.53 | X-H torsion
[ 8008 7997 7996 7995 ] final -163.89 input   59.86 | X-H torsion
[ 10167 10162 10161 10158 ] final   76.14 input  -65.29 | X-H torsion
[ 10718 10713 10712 10709 ] final -132.93 input   66.30 | X-H torsion
[ 10763 10752 10751 10750 ] final  -51.54 input  -60.55 | X-H torsion
[ 11005 11000 10999 10996 ] final -167.13 input  -57.11 | X-H torsion

> <Gold.Protein.ActiveResidues>
 VAL166  LYS551  ARG553  GLY616  TRP617  ASP618  TYR619  PRO620  LYS621  CYS622 
 ASP623  PHE694  ASN695  SER759  ASP760  ASP761  ALA762  ILE779  LEU786  VAL792 
 PHE793  MET794  SER795  GLU796  ALA797  LYS798  CYS799  TRP800  GLU811  SER814 

> <Gold.Protein.RotatedAtoms>
  150.7034  134.1257  159.4050 H   0  0  0  0  0  0  0  0  0  0  0  0  # atno 6907 bound_to 6896
  151.9243  135.0282  160.0534 H   0  0  0  0  0  0  0  0  0  0  0  0  # atno 6908 bound_to 6896
  152.2230  133.4963  159.5209 H   0  0  0  0  0  0  0  0  0  0  0  0  # atno 6909 bound_to 6896
  145.3070  139.2552  143.3783 H   0  0  0  0  0  0  0  0  0  0  0  0  # atno 7974 bound_to 7965
  155.8278  140.0929  157.1811 H   0  0  0  0  0  0  0  0  0  0  0  0  # atno 8008 bound_to 7997
  154.3979  140.1424  156.3638 H   0  0  0  0  0  0  0  0  0  0  0  0  # atno 8009 bound_to 7997
  155.8198  140.3446  155.5510 H   0  0  0  0  0  0  0  0  0  0  0  0  # atno 8010 bound_to 7997
  139.9954  144.5726  150.7782 H   0  0  0  0  0  0  0  0  0  0  0  0  # atno 10167 bound_to 10162
  156.2396  130.7088  151.0943 H   0  0  0  0  0  0  0  0  0  0  0  0  # atno 10718 bound_to 10713
  154.1282  135.6524  153.4917 H   0  0  0  0  0  0  0  0  0  0  0  0  # atno 10763 bound_to 10752
  153.0203  135.5286  154.7027 H   0  0  0  0  0  0  0  0  0  0  0  0  # atno 10764 bound_to 10752
  154.6255  135.2970  155.0248 H   0  0  0  0  0  0  0  0  0  0  0  0  # atno 10765 bound_to 10752
  140.5567  134.5374  157.5134 H   0  0  0  0  0  0  0  0  0  0  0  0  # atno 11005 bound_to 11000
  146.3131  140.3598  142.8664 LP  0  0  0  0  0  0  0  0  0  0  0  0  # atno 17320 bound_to 7965
  144.9046  140.7684  143.5845 LP  0  0  0  0  0  0  0  0  0  0  0  0  # atno 17321 bound_to 7965
  140.7439  143.2853  151.3482 LP  0  0  0  0  0  0  0  0  0  0  0  0  # atno 17342 bound_to 10162
  139.6310  144.0721  152.2476 LP  0  0  0  0  0  0  0  0  0  0  0  0  # atno 17343 bound_to 10162
  157.7169  131.0704  150.6289 LP  0  0  0  0  0  0  0  0  0  0  0  0  # atno 17370 bound_to 10713
  156.6362  130.4445  149.5769 LP  0  0  0  0  0  0  0  0  0  0  0  0  # atno 17371 bound_to 10713
  139.9428  134.7756  156.0636 LP  0  0  0  0  0  0  0  0  0  0  0  0  # atno 17394 bound_to 11000
  141.1139  133.6634  156.3046 LP  0  0  0  0  0  0  0  0  0  0  0  0  # atno 17395 bound_to 11000

$$$$
