AV-unprocessed.smi:54|AV-procd|sdf|530|dock9
  -GOLD-   2262016403D 1   1.00000     0.00000
 Structure written by MMmdl.
 44 46  0  0  0  0  0  0  0  0  1 V2000
  152.9419  143.7223  159.6039 C   0  0  0  0  0  0  0  0  0  0  0  0
  151.9849  143.6092  158.4064 C   0  0  0  0  0  0  0  0  0  0  0  0
  151.0647  144.8370  158.3091 C   0  0  0  0  0  0  0  0  0  0  0  0
  151.1612  142.3193  158.4955 C   0  0  0  0  0  0  0  0  0  0  0  0
  149.9508  142.3310  158.7221 O   0  0  0  0  0  0  0  0  0  0  0  0
  151.9091  141.0898  158.3043 N   0  0  0  0  0  0  0  0  0  0  0  0
  151.4311  139.8243  158.3366 C   0  0  0  0  0  0  0  0  0  0  0  0
  150.3291  139.4479  157.7026 N   0  0  0  0  0  0  0  0  0  0  0  0
  150.0133  138.1261  157.8512 C   0  0  0  0  0  0  0  0  0  0  0  0
  150.7172  137.1869  158.5751 C   0  0  0  0  0  0  0  0  0  0  0  0
  150.0842  135.9512  158.5001 N   0  0  0  0  0  0  0  0  0  0  0  0
  149.0405  136.1747  157.7507 C   0  0  0  0  0  0  0  0  0  0  0  0
  148.9240  137.4743  157.3152 N   0  0  0  0  0  0  0  0  0  0  0  0
  147.8735  138.0978  156.4481 C   0  0  1  0  0  0  0  0  0  0  0  0
  148.2097  139.4409  156.2523 O   0  0  0  0  0  0  0  0  0  0  0  0
  148.6299  139.6336  154.9085 C   0  0  2  0  0  0  0  0  0  0  0  0
  148.5243  141.1168  154.5109 C   0  0  0  0  0  0  0  0  0  0  0  0
  149.1861  141.3894  153.2929 O   0  0  0  0  0  0  0  0  0  0  0  0
  147.7778  138.6362  154.1224 C   0  0  1  0  0  0  0  0  0  0  0  0
  148.2940  138.3563  152.8346 O   0  0  0  0  0  0  0  0  0  0  0  0
  147.7822  137.4268  155.0532 C   0  0  1  0  0  0  0  0  0  0  0  0
  148.8573  136.5405  154.7742 O   0  0  0  0  0  0  0  0  0  0  0  0
  151.9167  137.5766  159.2580 C   0  0  0  0  0  0  0  0  0  0  0  0
  152.6667  136.8806  159.9390 O   0  0  0  0  0  0  0  0  0  0  0  0
  152.2069  138.9358  159.0814 N   0  0  0  0  0  0  0  0  0  0  0  0
  146.9536  138.0268  157.0298 H   0  0  0  0  0  0  0  0  0  0  0  0
  149.6781  139.3327  154.8565 H   0  0  0  0  0  0  0  0  0  0  0  0
  146.7550  139.0013  154.0254 H   0  0  0  0  0  0  0  0  0  0  0  0
  146.8497  136.8657  154.9808 H   0  0  0  0  0  0  0  0  0  0  0  0
  153.5964  142.8522  159.6723 H   0  0  0  0  0  0  0  0  0  0  0  0
  152.3984  143.8057  160.5459 H   0  0  0  0  0  0  0  0  0  0  0  0
  153.5787  144.6026  159.5118 H   0  0  0  0  0  0  0  0  0  0  0  0
  152.5856  143.5670  157.4966 H   0  0  0  0  0  0  0  0  0  0  0  0
  150.3768  144.7524  157.4668 H   0  0  0  0  0  0  0  0  0  0  0  0
  151.6457  145.7484  158.1656 H   0  0  0  0  0  0  0  0  0  0  0  0
  150.4695  144.9655  159.2142 H   0  0  0  0  0  0  0  0  0  0  0  0
  152.9028  141.1956  158.1622 H   0  0  0  0  0  0  0  0  0  0  0  0
  148.3331  135.3981  157.4994 H   0  0  0  0  0  0  0  0  0  0  0  0
  147.4799  141.4199  154.4351 H   0  0  0  0  0  0  0  0  0  0  0  0
  148.9809  141.7361  155.2830 H   0  0  0  0  0  0  0  0  0  0  0  0
  149.0924  140.6397  152.7252 H   0  0  0  0  0  0  0  0  0  0  0  0
  148.4766  137.4302  152.7845 H   0  0  0  0  0  0  0  0  0  0  0  0
  149.0783  136.6225  153.8590 H   0  0  0  0  0  0  0  0  0  0  0  0
  153.0391  139.2810  159.5365 H   0  0  0  0  0  0  0  0  0  0  0  0
  1  2  1  0  0  0  0
  1 30  1  0  0  0  0
  1 31  1  0  0  0  0
  1 32  1  0  0  0  0
  2  3  1  0  0  0  0
  2  4  1  0  0  0  0
  2 33  1  0  0  0  0
  3 34  1  0  0  0  0
  3 35  1  0  0  0  0
  3 36  1  0  0  0  0
  4  5  2  0  0  0  0
  4  6  1  0  0  0  0
  6 37  1  0  0  0  0
  6  7  1  0  0  0  0
  7 25  1  0  0  0  0
  7  8  2  0  0  0  0
  8  9  1  0  0  0  0
  9 13  1  0  0  0  0
  9 10  2  0  0  0  0
 10 11  1  0  0  0  0
 10 23  1  0  0  0  0
 11 12  2  0  0  0  0
 12 13  1  0  0  0  0
 12 38  1  0  0  0  0
 13 14  1  0  0  0  0
 14 26  1  0  0  0  0
 14 21  1  0  0  0  0
 14 15  1  0  0  0  0
 15 16  1  0  0  0  0
 16 27  1  0  0  0  0
 16 17  1  0  0  0  0
 16 19  1  0  0  0  0
 17 18  1  0  0  0  0
 17 39  1  0  0  0  0
 17 40  1  0  0  0  0
 18 41  1  0  0  0  0
 19 28  1  0  0  0  0
 19 20  1  0  0  0  0
 19 21  1  0  0  0  0
 20 42  1  0  0  0  0
 21 29  1  0  0  0  0
 21 22  1  0  0  0  0
 22 43  1  0  0  0  0
 23 24  2  0  0  0  0
 23 25  1  0  0  0  0
 25 44  1  0  0  0  0
M  END
> <s_m_source_file>
AV-unprocessed.smi

> <i_m_source_file_index>
54

> <i_lp_mmshare_version>
43012

> <i_f3d_flags>
0

> <s_epik_input>
W0NIM11bQ0hdKFtDSDNdKUMoPU8pW05IXWMobjEpW25IXWMoPU8pYyhjMTIpbltjSF1uMltDQEBIXTNPW0NASF0oW0NIMl1bT0hdKVtDQEBIXShbT0hdKVtDQEhdM1tPSF0=

> <s_epik_cmdline>
J2VwaWtfcHl0aG9uJywgJy1waCcsICc3LjAnLCAnLXRuJywgJzgnLCAnLW1hJywgJzIwMCcsICctbWV0YWxfYmluZGluZycsICctaW1hZScsICc8aW5maWxlLm1hZT4nLCAnLW9tYWUnLCAnPG91dGZpbGUubWFlPic=

> <r_lp_tautomer_probability>
0.85571

> <r_epik_Ionization_Penalty>
0.0316551

> <r_epik_Ionization_Penalty_Charging>
0.0316043

> <r_epik_Ionization_Penalty_Neutral>
5.07097e-05

> <r_epik_State_Penalty>
3.15494e-07

> <r_epik_Charging_Adjusted_Penalty>
0.0316047

> <i_epik_Tot_Q>
0

> <i_epik_Tot_abs_Q>
0

> <r_epik_Metal_State_Penalty>
0.421206

> <b_epik_Metal_Only>
0

> <s_epik_Chemistry_Notes>
This compound contains an acetal/aminal-like group ( X-CH(R)-Y where X, Y are N, S, or O) that may be acid/base labile, releasing an aldehyde.

> <s_lp_Force_Field>
OPLS_2005

> <r_lp_Energy>
47.6187

> <b_lp_Chiralities_Consistent>
1

> <s_lp_Variant>
AV-unprocessed.smi:54-2

> <Gold.Version>
5.8.1

> <Gold.Id.Protein>
6NUR|6NUR_protein|mol2

> <Gold.PLP.Fitness>
49.4040

> <Gold.PLP.PLP>
-34.2942

> <Gold.PLP.part.hbond>
-7.7559

> <Gold.PLP.part.metal>
0.0000

> <Gold.PLP.part.buried>
-5.8790

> <Gold.PLP.part.nonpolar>
-21.1512

> <Gold.PLP.part.repulsive>
0.2762

> <Gold.PLP.ligand.clash>
0.0000

> <Gold.PLP.ligand.torsion>
0.7001

> <Gold.PLP.Chemscore.Hbond>
5.4952

> <Gold.PLP.Chemscore.CHOScore>
0.0000

> <Gold.PLP.Chemscore.Metal>
0.0000

> <Gold.Chemscore.Hbonds>
donor molecule, donor type, donor heavy atom, donor atom, acceptor molecule, acceptor atom, score
      L1  H    18    41       P1  7957  0.82
      L1  H    20    42       P1  7948  0.90
      L1  H    22    43       P1  7948  1.00
      P1  H  6896  6908       L1    11  0.77
      P1  H  6896  6909       L1    24  1.00
      P1  H  8011  8017       L1    18  0.99

> <Gold.PLP.Chemscore.Internal.Correction>
0.0244

> <Gold.Rescore>
     Score         DG    S(hbond)    S(metal)    S(lipo)     H(rot)  DE(clash)    DE(int)     intcor
     13.82     -18.09       4.86        0.00      57.74       4.05       0.00       4.26       ----

> <Gold.Chemscore.Fitness>
13.8220

> <Gold.Chemscore.DG>
-18.0858

> <Gold.Chemscore.ZeroCoef>
-5.4800

> <Gold.Chemscore.Hbond>
4.8552

> <Gold.Chemscore.Metal>
0.0000

> <Gold.Chemscore.Lipo>
57.7406

> <Gold.Chemscore.Internal_Hbond>
0.0000

> <Gold.Chemscore.DEClash>
0.0004

> <Gold.Chemscore.DEInternal>
4.2634

> <Gold.Chemscore.Rot>
4.0493

> <Gold.Chemscore.Internal.Correction>
   9.000000E+99

> <Gold.Chemscore.Hbonds>
donor molecule, donor type, donor heavy atom, donor atom, acceptor molecule, acceptor atom, score
      L1  H    18    41       P1  7957  0.81
      L1  H    20    42       P1  7948  0.86
      L1  H    22    43       P1  7948  0.93
      P1  H  6896  6908       L1    11  0.77
      P1  H  6896  6909       L1    24  0.86
      P1  H  8011  8017       L1    18  0.26

> <Gold.Chemscore.Hbond.Weighted>
-16.2164

> <Gold.Chemscore.Metal.Weighted>
-0.0000

> <Gold.Chemscore.Lipo.Weighted>
-6.7556

> <Gold.Chemscore.Internal_Hbond.Weighted>
0.0000

> <Gold.Chemscore.DEClash.Weighted>
0.0004

> <Gold.Chemscore.DEInternal.Weighted>
4.2634

> <Gold.Chemscore.Rot.Weighted>
10.3662

> <Gold.Chemscore.Internal.Correction.Weighted>
   9.000000E+99

> <Gold.Protein.RotatedTorsions>
[ 6907 6896 6895 6894 ] final  161.02 input  -60.11 | X-H torsion
[ 7974 7965 7964 7962 ] final -177.80 input  175.53 | X-H torsion
[ 8008 7997 7996 7995 ] final -164.34 input   59.86 | X-H torsion
[ 10167 10162 10161 10158 ] final   44.42 input  -65.29 | X-H torsion
[ 10718 10713 10712 10709 ] final  -93.29 input   66.30 | X-H torsion
[ 10763 10752 10751 10750 ] final -175.03 input  -60.55 | X-H torsion
[ 11005 11000 10999 10996 ] final  117.44 input  -57.11 | X-H torsion

> <Gold.Protein.ActiveResidues>
 VAL166  LYS551  ARG553  GLY616  TRP617  ASP618  TYR619  PRO620  LYS621  CYS622 
 ASP623  PHE694  ASN695  SER759  ASP760  ASP761  ALA762  ILE779  LEU786  VAL792 
 PHE793  MET794  SER795  GLU796  ALA797  LYS798  CYS799  TRP800  GLU811  SER814 

> <Gold.Protein.RotatedAtoms>
  151.9619  133.3698  159.4038 H   0  0  0  0  0  0  0  0  0  0  0  0  # atno 6907 bound_to 6896
  150.6963  134.4231  159.5223 H   0  0  0  0  0  0  0  0  0  0  0  0  # atno 6908 bound_to 6896
  152.1921  134.8662  160.0567 H   0  0  0  0  0  0  0  0  0  0  0  0  # atno 6909 bound_to 6896
  144.7128  140.0964  143.6418 H   0  0  0  0  0  0  0  0  0  0  0  0  # atno 7974 bound_to 7965
  155.8342  140.0938  157.1774 H   0  0  0  0  0  0  0  0  0  0  0  0  # atno 8008 bound_to 7997
  154.3980  140.1413  156.3711 H   0  0  0  0  0  0  0  0  0  0  0  0  # atno 8009 bound_to 7997
  155.8134  140.3449  155.5473 H   0  0  0  0  0  0  0  0  0  0  0  0  # atno 8010 bound_to 7997
  140.3345  144.2548  150.6163 H   0  0  0  0  0  0  0  0  0  0  0  0  # atno 10167 bound_to 10162
  156.0011  130.5021  150.5754 H   0  0  0  0  0  0  0  0  0  0  0  0  # atno 10718 bound_to 10713
  154.5892  135.2843  155.0653 H   0  0  0  0  0  0  0  0  0  0  0  0  # atno 10763 bound_to 10752
  154.1960  135.6432  153.5077 H   0  0  0  0  0  0  0  0  0  0  0  0  # atno 10764 bound_to 10752
  153.0115  135.5457  154.6572 H   0  0  0  0  0  0  0  0  0  0  0  0  # atno 10765 bound_to 10752
  139.9075  134.9610  156.7352 H   0  0  0  0  0  0  0  0  0  0  0  0  # atno 11005 bound_to 11000
  145.9575  139.2777  143.1175 LP  0  0  0  0  0  0  0  0  0  0  0  0  # atno 17320 bound_to 7965
  145.9256  140.9084  143.0382 LP  0  0  0  0  0  0  0  0  0  0  0  0  # atno 17321 bound_to 7965
  140.5367  143.2232  151.8152 LP  0  0  0  0  0  0  0  0  0  0  0  0  # atno 17342 bound_to 10162
  139.4851  144.4652  151.9492 LP  0  0  0  0  0  0  0  0  0  0  0  0  # atno 17343 bound_to 10162
  157.3642  131.0755  151.1611 LP  0  0  0  0  0  0  0  0  0  0  0  0  # atno 17370 bound_to 10713
  157.2386  130.6558  149.5880 LP  0  0  0  0  0  0  0  0  0  0  0  0  # atno 17371 bound_to 10713
  140.6894  133.9404  155.7957 LP  0  0  0  0  0  0  0  0  0  0  0  0  # atno 17394 bound_to 11000
  141.0453  134.0563  157.3852 LP  0  0  0  0  0  0  0  0  0  0  0  0  # atno 17395 bound_to 11000

$$$$
