AV-unprocessed.smi:1868|AV-procd|sdf|7584|dock8
  -GOLD-   22720 9293D 1   1.00000     0.00000
 Structure written by MMmdl.
 47 49  0  0  0  0  0  0  0  0  2 V2000
  150.9194  144.2570  158.8966 C   0  0  0  0  0  0  0  0  0  0  0  0
  151.7163  143.6658  160.0159 C   0  0  0  0  0  0  0  0  0  0  0  0
  151.6807  144.1632  161.2519 N   0  0  0  0  0  0  0  0  0  0  0  0
  152.5352  143.3252  161.9415 C   0  0  0  0  0  0  0  0  0  0  0  0
  152.9254  143.3263  163.2996 C   0  0  0  0  0  0  0  0  0  0  0  0
  153.8283  142.3572  163.7838 C   0  0  0  0  0  0  0  0  0  0  0  0
  154.3526  141.3749  162.9190 C   0  0  0  0  0  0  0  0  0  0  0  0
  153.9768  141.3552  161.5622 C   0  0  0  0  0  0  0  0  0  0  0  0
  153.0756  142.3254  161.0836 C   0  0  0  0  0  0  0  0  0  0  0  0
  152.5208  142.5895  159.8342 N   0  0  0  0  0  0  0  0  0  0  0  0
  152.7637  141.8495  158.6036 C   0  0  0  0  0  0  0  0  0  0  0  0
  151.4643  141.4398  157.8797 C   0  0  2  0  0  0  0  0  0  0  0  0
  150.8253  140.4586  158.6706 O   0  0  0  0  0  0  0  0  0  0  0  0
  151.6974  140.8587  156.4675 C   0  0  0  0  0  0  0  0  0  0  0  0
  150.4290  140.5435  155.7628 N   0  3  2  0  0  0  0  0  0  0  0  0
  150.6515  139.7204  154.5465 C   0  0  0  0  0  0  0  0  0  0  0  0
  149.3171  139.2879  153.9162 C   0  0  0  0  0  0  0  0  0  0  0  0
  148.4357  140.5035  153.5841 C   0  0  1  0  0  0  0  0  0  0  0  0
  147.0873  140.0803  152.9848 C   0  0  0  0  0  0  0  0  0  0  0  0
  148.2537  141.3576  154.8501 C   0  0  0  0  0  0  0  0  0  0  0  0
  149.6096  141.7477  155.4620 C   0  0  0  0  0  0  0  0  0  0  0  0
  150.3087  145.0845  159.2594 H   0  0  0  0  0  0  0  0  0  0  0  0
  150.2554  143.5075  158.4658 H   0  0  0  0  0  0  0  0  0  0  0  0
  151.5804  144.6370  158.1183 H   0  0  0  0  0  0  0  0  0  0  0  0
  152.5293  144.0745  163.9703 H   0  0  0  0  0  0  0  0  0  0  0  0
  154.1193  142.3674  164.8241 H   0  0  0  0  0  0  0  0  0  0  0  0
  155.0431  140.6360  163.2987 H   0  0  0  0  0  0  0  0  0  0  0  0
  154.3783  140.6036  160.8992 H   0  0  0  0  0  0  0  0  0  0  0  0
  153.3794  142.4673  157.9485 H   0  0  0  0  0  0  0  0  0  0  0  0
  153.3645  140.9697  158.8362 H   0  0  0  0  0  0  0  0  0  0  0  0
  150.8064  142.3057  157.8294 H   0  0  0  0  0  0  0  0  0  0  0  0
  150.0073  140.2236  158.2583 H   0  0  0  0  0  0  0  0  0  0  0  0
  152.2750  141.5444  155.8468 H   0  0  0  0  0  0  0  0  0  0  0  0
  152.3028  139.9560  156.5655 H   0  0  0  0  0  0  0  0  0  0  0  0
  151.2448  140.2860  153.8260 H   0  0  0  0  0  0  0  0  0  0  0  0
  151.2274  138.8306  154.8037 H   0  0  0  0  0  0  0  0  0  0  0  0
  149.5098  138.7078  153.0130 H   0  0  0  0  0  0  0  0  0  0  0  0
  148.7895  138.6238  154.6022 H   0  0  0  0  0  0  0  0  0  0  0  0
  148.9556  141.1068  152.8381 H   0  0  0  0  0  0  0  0  0  0  0  0
  146.5160  139.4684  153.6839 H   0  0  0  0  0  0  0  0  0  0  0  0
  147.2280  139.4996  152.0726 H   0  0  0  0  0  0  0  0  0  0  0  0
  146.4802  140.9499  152.7310 H   0  0  0  0  0  0  0  0  0  0  0  0
  147.6866  142.2587  154.6135 H   0  0  0  0  0  0  0  0  0  0  0  0
  147.6665  140.8084  155.5877 H   0  0  0  0  0  0  0  0  0  0  0  0
  149.4333  142.3252  156.3686 H   0  0  0  0  0  0  0  0  0  0  0  0
  150.1552  142.3988  154.7769 H   0  0  0  0  0  0  0  0  0  0  0  0
  149.8918  139.9683  156.3963 H   0  0  0  0  0  0  0  0  0  0  0  0
  1  2  1  0  0  0  0
  1 22  1  0  0  0  0
  1 23  1  0  0  0  0
  1 24  1  0  0  0  0
  2 10  1  0  0  0  0
  2  3  2  0  0  0  0
  3  4  1  0  0  0  0
  4  9  2  0  0  0  0
  4  5  1  0  0  0  0
  5  6  2  0  0  0  0
  5 25  1  0  0  0  0
  6  7  1  0  0  0  0
  6 26  1  0  0  0  0
  7  8  2  0  0  0  0
  7 27  1  0  0  0  0
  8  9  1  0  0  0  0
  8 28  1  0  0  0  0
  9 10  1  0  0  0  0
 10 11  1  0  0  0  0
 11 12  1  0  0  0  0
 11 29  1  0  0  0  0
 11 30  1  0  0  0  0
 12 13  1  0  0  0  0
 12 14  1  0  0  0  0
 12 31  1  0  0  0  0
 13 32  1  0  0  0  0
 14 15  1  0  0  0  0
 14 33  1  0  0  0  0
 14 34  1  0  0  0  0
 15 21  1  0  0  0  0
 15 16  1  0  0  0  0
 15 47  1  0  0  0  0
 16 17  1  0  0  0  0
 16 35  1  0  0  0  0
 16 36  1  0  0  0  0
 17 18  1  0  0  0  0
 17 37  1  0  0  0  0
 17 38  1  0  0  0  0
 18 19  1  0  0  0  0
 18 20  1  0  0  0  0
 18 39  1  0  0  0  0
 19 40  1  0  0  0  0
 19 41  1  0  0  0  0
 19 42  1  0  0  0  0
 20 21  1  0  0  0  0
 20 43  1  0  0  0  0
 20 44  1  0  0  0  0
 21 45  1  0  0  0  0
 21 46  1  0  0  0  0
M  CHG  1  15   1
M  END
> <s_m_source_file>
AV-unprocessed.smi

> <i_m_source_file_index>
1868

> <i_lp_mmshare_version>
43012

> <i_f3d_flags>
0

> <s_epik_input>
W2NIXTFbY0hdW2NIXVtjSF1jKGMxMiluKGMobjIpW0NIM10pW0NIMl1bQ0BIXShbT0hdKVtDSDJdTjNbQ0gyXVtDSDJdW0NIXShbQ0gzXSlbQ0gyXVtDSDJdMw==

> <s_epik_cmdline>
J2VwaWtfcHl0aG9uJywgJy1waCcsICc3LjAnLCAnLXRuJywgJzgnLCAnLW1hJywgJzIwMCcsICctbWV0YWxfYmluZGluZycsICctaW1hZScsICc8aW5maWxlLm1hZT4nLCAnLW9tYWUnLCAnPG91dGZpbGUubWFlPic=

> <r_epik_Ionization_Penalty>
0.101157

> <r_epik_Ionization_Penalty_Charging>
0.00181365

> <r_epik_Ionization_Penalty_Neutral>
0.0993436

> <r_epik_State_Penalty>
0.0871902

> <r_epik_Charging_Adjusted_Penalty>
0.0890039

> <i_epik_Tot_Q>
1

> <i_epik_Tot_abs_Q>
1

> <r_epik_Metal_State_Penalty>
9.24346e-05

> <b_epik_Metal_Only>
0

> <s_lp_Force_Field>
OPLS_2005

> <r_lp_Energy>
22.6133

> <b_lp_Chiralities_Consistent>
1

> <s_lp_Variant>
AV-unprocessed.smi:1868-1

> <Gold.Version>
5.8.1

> <Gold.Id.Protein>
6NUR|6NUR_protein|mol2

> <Gold.PLP.Fitness>
48.4191

> <Gold.PLP.PLP>
-48.7681

> <Gold.PLP.part.hbond>
0.0000

> <Gold.PLP.part.metal>
0.0000

> <Gold.PLP.part.buried>
0.7421

> <Gold.PLP.part.nonpolar>
-47.7350

> <Gold.PLP.part.repulsive>
0.2414

> <Gold.PLP.ligand.clash>
0.0000

> <Gold.PLP.ligand.torsion>
0.1869

> <Gold.PLP.Chemscore.Hbond>
0.0000

> <Gold.PLP.Chemscore.CHOScore>
0.0000

> <Gold.PLP.Chemscore.Metal>
0.0000

> <Gold.PLP.Chemscore.Internal.Correction>
0.0247

> <Gold.Rescore>
     Score         DG    S(hbond)    S(metal)    S(lipo)     H(rot)  DE(clash)    DE(int)     intcor
     15.41     -16.76       0.00        0.00     138.42       1.92       0.34       1.02       ----

> <Gold.Chemscore.Fitness>
15.4051

> <Gold.Chemscore.DG>
-16.7603

> <Gold.Chemscore.ZeroCoef>
-5.4800

> <Gold.Chemscore.Hbond>
0.0000

> <Gold.Chemscore.Metal>
0.0000

> <Gold.Chemscore.Lipo>
138.4188

> <Gold.Chemscore.Internal_Hbond>
0.0000

> <Gold.Chemscore.DEClash>
0.3391

> <Gold.Chemscore.DEInternal>
1.0160

> <Gold.Chemscore.Rot>
1.9198

> <Gold.Chemscore.Internal.Correction>
   9.000000E+99

> <Gold.Chemscore.Hbond.Weighted>
-0.0000

> <Gold.Chemscore.Metal.Weighted>
-0.0000

> <Gold.Chemscore.Lipo.Weighted>
-16.1950

> <Gold.Chemscore.Internal_Hbond.Weighted>
0.0000

> <Gold.Chemscore.DEClash.Weighted>
0.3391

> <Gold.Chemscore.DEInternal.Weighted>
1.0160

> <Gold.Chemscore.Rot.Weighted>
4.9147

> <Gold.Chemscore.Internal.Correction.Weighted>
   9.000000E+99

> <Gold.Protein.RotatedTorsions>
[ 6907 6896 6895 6894 ] final  169.63 input  -60.11 | X-H torsion
[ 7974 7965 7964 7962 ] final  -73.81 input  175.53 | X-H torsion
[ 8008 7997 7996 7995 ] final   81.63 input   59.86 | X-H torsion
[ 10167 10162 10161 10158 ] final  -61.64 input  -65.29 | X-H torsion
[ 10718 10713 10712 10709 ] final  -44.13 input   66.30 | X-H torsion
[ 10763 10752 10751 10750 ] final   11.35 input  -60.55 | X-H torsion
[ 11005 11000 10999 10996 ] final   66.03 input  -57.11 | X-H torsion

> <Gold.Protein.ActiveResidues>
 VAL166  LYS551  ARG553  GLY616  TRP617  ASP618  TYR619  PRO620  LYS621  CYS622 
 ASP623  PHE694  ASN695  SER759  ASP760  ASP761  ALA762  ILE779  LEU786  VAL792 
 PHE793  MET794  SER795  GLU796  ALA797  LYS798  CYS799  TRP800  GLU811  SER814 

> <Gold.Protein.RotatedAtoms>
  151.8288  133.3405  159.3606 H   0  0  0  0  0  0  0  0  0  0  0  0  # atno 6907 bound_to 6896
  150.7271  134.5503  159.5800 H   0  0  0  0  0  0  0  0  0  0  0  0  # atno 6908 bound_to 6896
  152.2951  134.7677  160.0421 H   0  0  0  0  0  0  0  0  0  0  0  0  # atno 6909 bound_to 6896
  145.6473  140.9293  143.1004 H   0  0  0  0  0  0  0  0  0  0  0  0  # atno 7974 bound_to 7965
  155.8998  140.3434  155.6018 H   0  0  0  0  0  0  0  0  0  0  0  0  # atno 8008 bound_to 7997
  155.7513  140.0820  157.2218 H   0  0  0  0  0  0  0  0  0  0  0  0  # atno 8009 bound_to 7997
  154.4042  140.1552  156.2715 H   0  0  0  0  0  0  0  0  0  0  0  0  # atno 8010 bound_to 7997
  140.5992  143.2357  151.5967 H   0  0  0  0  0  0  0  0  0  0  0  0  # atno 10167 bound_to 10162
  156.2418  130.4180  149.8752 H   0  0  0  0  0  0  0  0  0  0  0  0  # atno 10718 bound_to 10713
  153.1935  135.6846  153.8322 H   0  0  0  0  0  0  0  0  0  0  0  0  # atno 10763 bound_to 10752
  153.7612  135.3209  155.3338 H   0  0  0  0  0  0  0  0  0  0  0  0  # atno 10764 bound_to 10752
  154.8131  135.4704  154.0669 H   0  0  0  0  0  0  0  0  0  0  0  0  # atno 10765 bound_to 10752
  139.9857  134.6671  156.0180 H   0  0  0  0  0  0  0  0  0  0  0  0  # atno 11005 bound_to 11000
  144.7135  139.8281  143.7406 LP  0  0  0  0  0  0  0  0  0  0  0  0  # atno 17320 bound_to 7965
  146.1233  139.4254  143.0215 LP  0  0  0  0  0  0  0  0  0  0  0  0  # atno 17321 bound_to 7965
  139.5279  144.3003  152.1079 LP  0  0  0  0  0  0  0  0  0  0  0  0  # atno 17342 bound_to 10162
  140.2181  144.4494  150.6354 LP  0  0  0  0  0  0  0  0  0  0  0  0  # atno 17343 bound_to 10162
  156.6331  130.8674  151.3499 LP  0  0  0  0  0  0  0  0  0  0  0  0  # atno 17370 bound_to 10713
  157.7178  130.9520  150.1322 LP  0  0  0  0  0  0  0  0  0  0  0  0  # atno 17371 bound_to 10713
  141.1523  133.6547  156.4050 LP  0  0  0  0  0  0  0  0  0  0  0  0  # atno 17394 bound_to 11000
  140.5007  134.6489  157.5247 LP  0  0  0  0  0  0  0  0  0  0  0  0  # atno 17395 bound_to 11000

$$$$
