AV-unprocessed.smi:2147|AV-procd|sdf|8743|dock2
  -GOLD-   2272011513D 1   1.00000     0.00000
 Structure written by MMmdl.
 41 43  0  0  0  0  0  0  0  0  1 V2000
  150.4835  145.1495  160.3190 C   0  0  0  0  0  0  0  0  0  0  0  0
  150.7010  143.6935  159.9108 C   0  0  0  0  0  0  0  0  0  0  0  0
  149.9722  143.2067  159.0469 O   0  0  0  0  0  0  0  0  0  0  0  0
  151.7918  142.9370  160.5887 C   0  0  0  0  0  0  0  0  0  0  0  0
  152.2816  141.7135  160.0759 C   0  0  0  0  0  0  0  0  0  0  0  0
  153.3105  141.0209  160.7422 C   0  0  0  0  0  0  0  0  0  0  0  0
  153.8734  141.5273  161.9300 C   0  0  0  0  0  0  0  0  0  0  0  0
  154.8730  140.7819  162.5167 O   0  0  0  0  0  0  0  0  0  0  0  0
  154.8496  139.3709  162.3449 C   0  0  0  0  0  0  0  0  0  0  0  0
  156.1896  138.7908  162.8194 C   0  0  1  0  0  0  0  0  0  0  0  0
  155.9324  137.8326  163.8269 O   0  0  0  0  0  0  0  0  0  0  0  0
  156.9885  138.1407  161.6728 C   0  0  0  0  0  0  0  0  0  0  0  0
  156.8956  138.8946  160.4356 N   0  0  0  0  0  0  0  0  0  0  0  0
  155.8697  138.9036  159.5625 C   0  0  0  0  0  0  0  0  0  0  0  0
  155.9957  139.6697  158.4826 N   0  0  0  0  0  0  0  0  0  0  0  0
  157.2475  140.2272  158.6801 C   0  0  0  0  0  0  0  0  0  0  0  0
  157.9807  141.1397  157.8882 C   0  0  0  0  0  0  0  0  0  0  0  0
  159.2584  141.5750  158.2977 C   0  0  0  0  0  0  0  0  0  0  0  0
  159.8220  141.1056  159.5022 C   0  0  0  0  0  0  0  0  0  0  0  0
  159.1107  140.1957  160.3077 C   0  0  0  0  0  0  0  0  0  0  0  0
  157.8365  139.7637  159.8951 C   0  0  0  0  0  0  0  0  0  0  0  0
  153.3857  142.7537  162.4440 C   0  0  0  0  0  0  0  0  0  0  0  0
  152.3561  143.4475  161.7792 C   0  0  0  0  0  0  0  0  0  0  0  0
  151.3749  145.7419  160.1116 H   0  0  0  0  0  0  0  0  0  0  0  0
  150.2554  145.2177  161.3828 H   0  0  0  0  0  0  0  0  0  0  0  0
  149.6505  145.5816  159.7638 H   0  0  0  0  0  0  0  0  0  0  0  0
  151.8811  141.2836  159.1701 H   0  0  0  0  0  0  0  0  0  0  0  0
  153.6712  140.0870  160.3364 H   0  0  0  0  0  0  0  0  0  0  0  0
  154.0361  138.9492  162.9380 H   0  0  0  0  0  0  0  0  0  0  0  0
  154.6776  139.1091  161.2993 H   0  0  0  0  0  0  0  0  0  0  0  0
  156.7800  139.5889  163.2714 H   0  0  0  0  0  0  0  0  0  0  0  0
  155.4737  137.1043  163.4362 H   0  0  0  0  0  0  0  0  0  0  0  0
  158.0404  138.0451  161.9464 H   0  0  0  0  0  0  0  0  0  0  0  0
  156.6237  137.1309  161.4816 H   0  0  0  0  0  0  0  0  0  0  0  0
  154.9822  138.3098  159.7267 H   0  0  0  0  0  0  0  0  0  0  0  0
  157.5592  141.5053  156.9636 H   0  0  0  0  0  0  0  0  0  0  0  0
  159.8088  142.2729  157.6841 H   0  0  0  0  0  0  0  0  0  0  0  0
  160.8011  141.4449  159.8074 H   0  0  0  0  0  0  0  0  0  0  0  0
  159.5388  139.8337  161.2309 H   0  0  0  0  0  0  0  0  0  0  0  0
  153.7844  143.1861  163.3491 H   0  0  0  0  0  0  0  0  0  0  0  0
  152.0051  144.3799  162.1975 H   0  0  0  0  0  0  0  0  0  0  0  0
  1  2  1  0  0  0  0
  1 24  1  0  0  0  0
  1 25  1  0  0  0  0
  1 26  1  0  0  0  0
  2  3  2  0  0  0  0
  2  4  1  0  0  0  0
  4 23  1  0  0  0  0
  4  5  2  0  0  0  0
  5  6  1  0  0  0  0
  5 27  1  0  0  0  0
  6  7  2  0  0  0  0
  6 28  1  0  0  0  0
  7  8  1  0  0  0  0
  7 22  1  0  0  0  0
  8  9  1  0  0  0  0
  9 10  1  0  0  0  0
  9 29  1  0  0  0  0
  9 30  1  0  0  0  0
 10 11  1  0  0  0  0
 10 12  1  0  0  0  0
 10 31  1  0  0  0  0
 11 32  1  0  0  0  0
 12 13  1  0  0  0  0
 12 33  1  0  0  0  0
 12 34  1  0  0  0  0
 13 21  1  0  0  0  0
 13 14  1  0  0  0  0
 14 15  2  0  0  0  0
 14 35  1  0  0  0  0
 15 16  1  0  0  0  0
 16 21  2  0  0  0  0
 16 17  1  0  0  0  0
 17 18  2  0  0  0  0
 17 36  1  0  0  0  0
 18 19  1  0  0  0  0
 18 37  1  0  0  0  0
 19 20  2  0  0  0  0
 19 38  1  0  0  0  0
 20 21  1  0  0  0  0
 20 39  1  0  0  0  0
 22 23  2  0  0  0  0
 22 40  1  0  0  0  0
 23 41  1  0  0  0  0
M  END
> <s_m_source_file>
AV-unprocessed.smi

> <i_m_source_file_index>
2147

> <i_lp_mmshare_version>
43012

> <i_f3d_flags>
0

> <s_epik_input>
W0NIM11DKD1PKWMxW2NIXVtjSF1jKFtjSF1bY0hdMSlPW0NIMl1bQ0BIXShbT0hdKVtDSDJdbihbY0hdbjIpYyhjMjMpW2NIXVtjSF1bY0hdW2NIXTM=

> <s_epik_cmdline>
J2VwaWtfcHl0aG9uJywgJy1waCcsICc3LjAnLCAnLXRuJywgJzgnLCAnLW1hJywgJzIwMCcsICctbWV0YWxfYmluZGluZycsICctaW1hZScsICc8aW5maWxlLm1hZT4nLCAnLW9tYWUnLCAnPG91dGZpbGUubWFlPic=

> <r_lp_tautomer_probability>
0.99995

> <r_epik_Ionization_Penalty>
0.0583018

> <r_epik_Ionization_Penalty_Charging>
0

> <r_epik_Ionization_Penalty_Neutral>
0.0583018

> <r_epik_State_Penalty>
0.0504087

> <r_epik_Charging_Adjusted_Penalty>
0.0504087

> <i_epik_Tot_Q>
0

> <i_epik_Tot_abs_Q>
0

> <r_epik_Metal_State_Penalty>
5.26129e-05

> <b_epik_Metal_Only>
0

> <s_lp_Force_Field>
OPLS_2005

> <r_lp_Energy>
19.4931

> <b_lp_Chiralities_Consistent>
1

> <s_lp_Variant>
AV-unprocessed.smi:2147-2

> <Gold.Version>
5.8.1

> <Gold.Id.Protein>
6NUR|6NUR_protein|mol2

> <Gold.PLP.Fitness>
46.5869

> <Gold.PLP.PLP>
-46.7395

> <Gold.PLP.part.hbond>
-2.0000

> <Gold.PLP.part.metal>
0.0000

> <Gold.PLP.part.buried>
-6.7183

> <Gold.PLP.part.nonpolar>
-38.1636

> <Gold.PLP.part.repulsive>
0.2092

> <Gold.PLP.ligand.clash>
0.0000

> <Gold.PLP.ligand.torsion>
1.7102

> <Gold.PLP.Chemscore.Hbond>
1.0000

> <Gold.PLP.Chemscore.CHOScore>
0.0000

> <Gold.PLP.Chemscore.Metal>
0.0000

> <Gold.Chemscore.Hbonds>
donor molecule, donor type, donor heavy atom, donor atom, acceptor molecule, acceptor atom, score
      P1  H  7997  8010       L1    15  0.30

> <Gold.PLP.Chemscore.Internal.Correction>
0.2678

> <Gold.Rescore>
     Score         DG    S(hbond)    S(metal)    S(lipo)     H(rot)  DE(clash)    DE(int)     intcor
     11.98     -13.66       0.01        0.00     122.15       2.40       0.12       1.56       ----

> <Gold.Chemscore.Fitness>
11.9819

> <Gold.Chemscore.DG>
-13.6565

> <Gold.Chemscore.ZeroCoef>
-5.4800

> <Gold.Chemscore.Hbond>
0.0090

> <Gold.Chemscore.Metal>
0.0000

> <Gold.Chemscore.Lipo>
122.1511

> <Gold.Chemscore.Internal_Hbond>
0.0000

> <Gold.Chemscore.DEClash>
0.1183

> <Gold.Chemscore.DEInternal>
1.5563

> <Gold.Chemscore.Rot>
2.4005

> <Gold.Chemscore.Internal.Correction>
   9.000000E+99

> <Gold.Chemscore.Hbonds>
donor molecule, donor type, donor heavy atom, donor atom, acceptor molecule, acceptor atom, score
      P1  H  7997  8010       L1    15  0.02

> <Gold.Chemscore.Hbond.Weighted>
-0.0301

> <Gold.Chemscore.Metal.Weighted>
-0.0000

> <Gold.Chemscore.Lipo.Weighted>
-14.2917

> <Gold.Chemscore.Internal_Hbond.Weighted>
0.0000

> <Gold.Chemscore.DEClash.Weighted>
0.1183

> <Gold.Chemscore.DEInternal.Weighted>
1.5563

> <Gold.Chemscore.Rot.Weighted>
6.1453

> <Gold.Chemscore.Internal.Correction.Weighted>
   9.000000E+99

> <Gold.Protein.RotatedTorsions>
[ 6907 6896 6895 6894 ] final -162.13 input  -60.11 | X-H torsion
[ 7974 7965 7964 7962 ] final  -70.55 input  175.53 | X-H torsion
[ 8008 7997 7996 7995 ] final  -55.79 input   59.86 | X-H torsion
[ 10167 10162 10161 10158 ] final  144.68 input  -65.29 | X-H torsion
[ 10718 10713 10712 10709 ] final  -67.66 input   66.30 | X-H torsion
[ 10763 10752 10751 10750 ] final -175.28 input  -60.55 | X-H torsion
[ 11005 11000 10999 10996 ] final  -55.68 input  -57.11 | X-H torsion

> <Gold.Protein.ActiveResidues>
 VAL166  LYS551  ARG553  GLY616  TRP617  ASP618  TYR619  PRO620  LYS621  CYS622 
 ASP623  PHE694  ASN695  SER759  ASP760  ASP761  ALA762  ILE779  LEU786  VAL792 
 PHE793  MET794  SER795  GLU796  ALA797  LYS798  CYS799  TRP800  GLU811  SER814 

> <Gold.Protein.RotatedAtoms>
  151.3754  133.3840  159.2703 H   0  0  0  0  0  0  0  0  0  0  0  0  # atno 6907 bound_to 6896
  150.9618  134.9006  159.7746 H   0  0  0  0  0  0  0  0  0  0  0  0  # atno 6908 bound_to 6896
  152.5152  134.3714  159.9371 H   0  0  0  0  0  0  0  0  0  0  0  0  # atno 6909 bound_to 6896
  145.6895  140.9158  143.0789 H   0  0  0  0  0  0  0  0  0  0  0  0  # atno 7974 bound_to 7965
  154.4207  140.1145  156.5533 H   0  0  0  0  0  0  0  0  0  0  0  0  # atno 8008 bound_to 7997
  155.6387  140.3496  155.4688 H   0  0  0  0  0  0  0  0  0  0  0  0  # atno 8009 bound_to 7997
  155.9888  140.1175  157.0647 H   0  0  0  0  0  0  0  0  0  0  0  0  # atno 8010 bound_to 7997
  139.4942  144.5955  151.6592 H   0  0  0  0  0  0  0  0  0  0  0  0  # atno 10167 bound_to 10162
  156.0546  130.4281  150.1887 H   0  0  0  0  0  0  0  0  0  0  0  0  # atno 10718 bound_to 10713
  154.5862  135.2841  155.0682 H   0  0  0  0  0  0  0  0  0  0  0  0  # atno 10763 bound_to 10752
  154.2000  135.6426  153.5088 H   0  0  0  0  0  0  0  0  0  0  0  0  # atno 10764 bound_to 10752
  153.0105  135.5466  154.6533 H   0  0  0  0  0  0  0  0  0  0  0  0  # atno 10765 bound_to 10752
  141.1085  133.6612  156.4506 H   0  0  0  0  0  0  0  0  0  0  0  0  # atno 11005 bound_to 11000
  144.7001  139.8803  143.7446 LP  0  0  0  0  0  0  0  0  0  0  0  0  # atno 17320 bound_to 7965
  146.0894  139.3883  143.0415 LP  0  0  0  0  0  0  0  0  0  0  0  0  # atno 17321 bound_to 7965
  140.5592  144.0297  150.6161 LP  0  0  0  0  0  0  0  0  0  0  0  0  # atno 17342 bound_to 10162
  140.3377  143.3038  152.0620 LP  0  0  0  0  0  0  0  0  0  0  0  0  # atno 17343 bound_to 10162
  156.9965  130.9909  151.3402 LP  0  0  0  0  0  0  0  0  0  0  0  0  # atno 17370 bound_to 10713
  157.5504  130.8178  149.8138 LP  0  0  0  0  0  0  0  0  0  0  0  0  # atno 17371 bound_to 10713
  140.4838  134.6639  157.5182 LP  0  0  0  0  0  0  0  0  0  0  0  0  # atno 17394 bound_to 11000
  139.9967  134.6900  155.9598 LP  0  0  0  0  0  0  0  0  0  0  0  0  # atno 17395 bound_to 11000

$$$$
