AV-unprocessed.smi:829|AV-procd|sdf|3867|dock7
  -GOLD-   22720 1323D 1   1.00000     0.00000
 Structure written by MMmdl.
 49 51  0  0  0  0  0  0  0  0  2 V2000
  142.9880  136.1933  153.7719 O   0  0  0  0  0  0  0  0  0  0  0  0
  143.1070  137.3386  153.3376 C   0  0  0  0  0  0  0  0  0  0  0  0
  142.1326  138.2642  153.2996 N   0  0  0  0  0  0  0  0  0  0  0  0
  140.7839  138.1515  153.7348 C   0  0  0  0  0  0  0  0  0  0  0  0
  139.9922  139.3183  153.7261 C   0  0  0  0  0  0  0  0  0  0  0  0
  138.6559  139.2361  154.1663 C   0  0  0  0  0  0  0  0  0  0  0  0
  138.0898  138.0937  154.6087 N   0  0  0  0  0  0  0  0  0  0  0  0
  138.8536  136.9809  154.6309 C   0  0  0  0  0  0  0  0  0  0  0  0
  140.1992  136.9538  154.2126 C   0  0  0  0  0  0  0  0  0  0  0  0
  144.2469  137.8118  152.8122 N   0  0  0  0  0  0  0  0  0  0  0  0
  145.4945  137.0582  152.6869 C   0  0  2  0  0  0  0  0  0  0  0  0
  146.2393  137.0173  154.0331 C   0  0  0  0  0  0  0  0  0  0  0  0
  146.8592  138.3795  154.3983 C   0  0  0  0  0  0  0  0  0  0  0  0
  147.7462  138.8755  153.3143 N   0  3  2  0  0  0  0  0  0  0  0  0
  148.4855  140.1092  153.6881 C   0  0  0  0  0  0  0  0  0  0  0  0
  149.7324  139.7993  154.5399 C   0  0  0  0  0  0  0  0  0  0  0  0
  150.4996  141.0544  154.9627 C   0  0  0  0  0  0  0  0  0  0  0  0
  151.8780  140.5435  155.3892 C   0  0  0  0  0  0  0  0  0  0  0  0
  152.1157  139.2540  154.5914 C   0  0  0  0  0  0  0  0  0  0  0  0
  150.8104  138.9622  153.8411 C   0  0  0  0  0  0  0  0  0  0  0  0
  147.0120  139.0007  152.0285 C   0  0  0  0  0  0  0  0  0  0  0  0
  146.4168  137.6486  151.6011 C   0  0  0  0  0  0  0  0  0  0  0  0
  142.3657  139.1352  152.8462 H   0  0  0  0  0  0  0  0  0  0  0  0
  140.3937  140.2608  153.3839 H   0  0  0  0  0  0  0  0  0  0  0  0
  138.0256  140.1131  154.1646 H   0  0  0  0  0  0  0  0  0  0  0  0
  138.3796  136.0834  154.9995 H   0  0  0  0  0  0  0  0  0  0  0  0
  140.7502  136.0286  154.2788 H   0  0  0  0  0  0  0  0  0  0  0  0
  144.2549  138.7657  152.4818 H   0  0  0  0  0  0  0  0  0  0  0  0
  145.2382  136.0334  152.4116 H   0  0  0  0  0  0  0  0  0  0  0  0
  145.5700  136.6837  154.8271 H   0  0  0  0  0  0  0  0  0  0  0  0
  147.0342  136.2721  153.9769 H   0  0  0  0  0  0  0  0  0  0  0  0
  146.0775  139.1147  154.5965 H   0  0  0  0  0  0  0  0  0  0  0  0
  147.4319  138.2700  155.3201 H   0  0  0  0  0  0  0  0  0  0  0  0
  148.7437  140.6920  152.8023 H   0  0  0  0  0  0  0  0  0  0  0  0
  147.8357  140.7535  154.2824 H   0  0  0  0  0  0  0  0  0  0  0  0
  149.4232  139.2786  155.4482 H   0  0  0  0  0  0  0  0  0  0  0  0
  150.6087  141.7298  154.1126 H   0  0  0  0  0  0  0  0  0  0  0  0
  149.9976  141.6044  155.7597 H   0  0  0  0  0  0  0  0  0  0  0  0
  152.6577  141.2859  155.2170 H   0  0  0  0  0  0  0  0  0  0  0  0
  151.8733  140.3159  156.4560 H   0  0  0  0  0  0  0  0  0  0  0  0
  152.9476  139.3616  153.8947 H   0  0  0  0  0  0  0  0  0  0  0  0
  152.3627  138.4352  155.2683 H   0  0  0  0  0  0  0  0  0  0  0  0
  150.5732  137.8979  153.8366 H   0  0  0  0  0  0  0  0  0  0  0  0
  150.9158  139.2826  152.8035 H   0  0  0  0  0  0  0  0  0  0  0  0
  146.2221  139.7468  152.1285 H   0  0  0  0  0  0  0  0  0  0  0  0
  147.6775  139.3581  151.2445 H   0  0  0  0  0  0  0  0  0  0  0  0
  147.2309  136.9493  151.4053 H   0  0  0  0  0  0  0  0  0  0  0  0
  145.8834  137.7571  150.6562 H   0  0  0  0  0  0  0  0  0  0  0  0
  148.4471  138.1602  153.1830 H   0  0  0  0  0  0  0  0  0  0  0  0
  1  2  2  0  0  0  0
  2  3  1  0  0  0  0
  2 10  1  0  0  0  0
  3  4  1  0  0  0  0
  3 23  1  0  0  0  0
  4  9  1  0  0  0  0
  4  5  2  0  0  0  0
  5  6  1  0  0  0  0
  5 24  1  0  0  0  0
  6  7  2  0  0  0  0
  6 25  1  0  0  0  0
  7  8  1  0  0  0  0
  8  9  2  0  0  0  0
  8 26  1  0  0  0  0
  9 27  1  0  0  0  0
 10 11  1  0  0  0  0
 10 28  1  0  0  0  0
 11 22  1  0  0  0  0
 11 12  1  0  0  0  0
 11 29  1  0  0  0  0
 12 13  1  0  0  0  0
 12 30  1  0  0  0  0
 12 31  1  0  0  0  0
 13 14  1  0  0  0  0
 13 32  1  0  0  0  0
 13 33  1  0  0  0  0
 14 15  1  0  0  0  0
 14 21  1  0  0  0  0
 14 49  1  0  0  0  0
 15 16  1  0  0  0  0
 15 34  1  0  0  0  0
 15 35  1  0  0  0  0
 16 20  1  0  0  0  0
 16 17  1  0  0  0  0
 16 36  1  0  0  0  0
 17 18  1  0  0  0  0
 17 37  1  0  0  0  0
 17 38  1  0  0  0  0
 18 19  1  0  0  0  0
 18 39  1  0  0  0  0
 18 40  1  0  0  0  0
 19 20  1  0  0  0  0
 19 41  1  0  0  0  0
 19 42  1  0  0  0  0
 20 43  1  0  0  0  0
 20 44  1  0  0  0  0
 21 22  1  0  0  0  0
 21 45  1  0  0  0  0
 21 46  1  0  0  0  0
 22 47  1  0  0  0  0
 22 48  1  0  0  0  0
M  CHG  1  14   1
M  END
> <s_m_source_file>
AV-unprocessed.smi

> <i_m_source_file_index>
829

> <i_lp_mmshare_version>
43012

> <i_f3d_flags>
0

> <s_epik_input>
W2NIXTFbY0hdbltjSF1bY0hdYzFbTkhdQyg9TylbTkhdW0NIXTJbQ0gyXVtDSDJdTihbQ0gyXVtDSDJdMilbQ0gyXVtDSF0zW0NIMl1bQ0gyXVtDSDJdW0NIMl0z

> <s_epik_cmdline>
J2VwaWtfcHl0aG9uJywgJy1waCcsICc3LjAnLCAnLXRuJywgJzgnLCAnLW1hJywgJzIwMCcsICctbWV0YWxfYmluZGluZycsICctaW1hZScsICc8aW5maWxlLm1hZT4nLCAnLW9tYWUnLCAnPG91dGZpbGUubWFlPic=

> <r_epik_Ionization_Penalty>
0.101981

> <r_epik_Ionization_Penalty_Charging>
0.00207989

> <r_epik_Ionization_Penalty_Neutral>
0.0999008

> <r_epik_State_Penalty>
0.0935668

> <r_epik_Charging_Adjusted_Penalty>
0.0956467

> <i_epik_Tot_Q>
1

> <i_epik_Tot_abs_Q>
1

> <r_epik_Metal_State_Penalty>
0.0787682

> <b_epik_Metal_Only>
0

> <s_lp_Force_Field>
OPLS_2005

> <r_lp_Energy>
43.3749

> <b_lp_Chiralities_Consistent>
1

> <s_lp_Variant>
AV-unprocessed.smi:829-2

> <Gold.Version>
5.8.1

> <Gold.Id.Protein>
6NUR|6NUR_protein|mol2

> <Gold.PLP.Fitness>
51.4906

> <Gold.PLP.PLP>
-40.6657

> <Gold.PLP.part.hbond>
-4.4528

> <Gold.PLP.part.metal>
0.0000

> <Gold.PLP.part.buried>
2.5242

> <Gold.PLP.part.nonpolar>
-39.3581

> <Gold.PLP.part.repulsive>
0.2751

> <Gold.PLP.ligand.clash>
0.0000

> <Gold.PLP.ligand.torsion>
0.5749

> <Gold.PLP.Chemscore.Hbond>
3.9825

> <Gold.PLP.Chemscore.CHOScore>
0.0000

> <Gold.PLP.Chemscore.Metal>
0.0000

> <Gold.Chemscore.Hbonds>
donor molecule, donor type, donor heavy atom, donor atom, acceptor molecule, acceptor atom, score
      L1  H     3    23       P1 10175  1.00
      L1  H    10    28       P1 10175  1.00
      L1  H    14    49       P1  7948  0.25

> <Gold.PLP.Chemscore.Internal.Correction>
0.0272

> <Gold.Rescore>
     Score         DG    S(hbond)    S(metal)    S(lipo)     H(rot)  DE(clash)    DE(int)     intcor
     20.23     -24.14       2.89        0.00     106.40       1.35       2.12       1.79       ----

> <Gold.Chemscore.Fitness>
20.2336

> <Gold.Chemscore.DG>
-24.1401

> <Gold.Chemscore.ZeroCoef>
-5.4800

> <Gold.Chemscore.Hbond>
2.8909

> <Gold.Chemscore.Metal>
0.0000

> <Gold.Chemscore.Lipo>
106.4008

> <Gold.Chemscore.Internal_Hbond>
0.0000

> <Gold.Chemscore.DEClash>
2.1177

> <Gold.Chemscore.DEInternal>
1.7888

> <Gold.Chemscore.Rot>
1.3455

> <Gold.Chemscore.Internal.Correction>
   9.000000E+99

> <Gold.Chemscore.Hbonds>
donor molecule, donor type, donor heavy atom, donor atom, acceptor molecule, acceptor atom, score
      L1  H     3    23       P1 10175  0.93
      L1  H    10    28       P1 10175  0.97
      L1  H    14    49       P1  7948  0.13

> <Gold.Chemscore.Hbond.Weighted>
-9.6557

> <Gold.Chemscore.Metal.Weighted>
-0.0000

> <Gold.Chemscore.Lipo.Weighted>
-12.4489

> <Gold.Chemscore.Internal_Hbond.Weighted>
0.0000

> <Gold.Chemscore.DEClash.Weighted>
2.1177

> <Gold.Chemscore.DEInternal.Weighted>
1.7888

> <Gold.Chemscore.Rot.Weighted>
3.4445

> <Gold.Chemscore.Internal.Correction.Weighted>
   9.000000E+99

> <Gold.Protein.RotatedTorsions>
[ 6907 6896 6895 6894 ] final  135.82 input  -60.11 | X-H torsion
[ 7974 7965 7964 7962 ] final   -1.80 input  175.53 | X-H torsion
[ 8008 7997 7996 7995 ] final  -28.55 input   59.86 | X-H torsion
[ 10167 10162 10161 10158 ] final   85.65 input  -65.29 | X-H torsion
[ 10718 10713 10712 10709 ] final -167.15 input   66.30 | X-H torsion
[ 10763 10752 10751 10750 ] final   88.01 input  -60.55 | X-H torsion
[ 11005 11000 10999 10996 ] final   64.00 input  -57.11 | X-H torsion

> <Gold.Protein.ActiveResidues>
 VAL166  LYS551  ARG553  GLY616  TRP617  ASP618  TYR619  PRO620  LYS621  CYS622 
 ASP623  PHE694  ASN695  SER759  ASP760  ASP761  ALA762  ILE779  LEU786  VAL792 
 PHE793  MET794  SER795  GLU796  ALA797  LYS798  CYS799  TRP800  GLU811  SER814 

> <Gold.Protein.RotatedAtoms>
  152.2962  133.5610  159.5589 H   0  0  0  0  0  0  0  0  0  0  0  0  # atno 6907 bound_to 6896
  150.7257  134.0357  159.3757 H   0  0  0  0  0  0  0  0  0  0  0  0  # atno 6908 bound_to 6896
  151.8259  135.0637  160.0482 H   0  0  0  0  0  0  0  0  0  0  0  0  # atno 6909 bound_to 6896
  146.2413  140.1474  142.8334 H   0  0  0  0  0  0  0  0  0  0  0  0  # atno 7974 bound_to 7965
  154.4327  140.1842  156.1108 H   0  0  0  0  0  0  0  0  0  0  0  0  # atno 8008 bound_to 7997
  156.0219  140.3340  155.7022 H   0  0  0  0  0  0  0  0  0  0  0  0  # atno 8009 bound_to 7997
  155.5964  140.0636  157.2736 H   0  0  0  0  0  0  0  0  0  0  0  0  # atno 8010 bound_to 7997
  139.8955  144.6360  150.8692 H   0  0  0  0  0  0  0  0  0  0  0  0  # atno 10167 bound_to 10162
  156.6782  130.9111  151.3053 H   0  0  0  0  0  0  0  0  0  0  0  0  # atno 10718 bound_to 10713
  153.1725  135.4522  154.9922 H   0  0  0  0  0  0  0  0  0  0  0  0  # atno 10763 bound_to 10752
  154.7976  135.3243  154.7632 H   0  0  0  0  0  0  0  0  0  0  0  0  # atno 10764 bound_to 10752
  153.8106  135.6955  153.4896 H   0  0  0  0  0  0  0  0  0  0  0  0  # atno 10765 bound_to 10752
  139.9988  134.6475  155.9966 H   0  0  0  0  0  0  0  0  0  0  0  0  # atno 11005 bound_to 11000
  145.0196  140.8782  143.5175 LP  0  0  0  0  0  0  0  0  0  0  0  0  # atno 17320 bound_to 7965
  145.1521  139.2508  143.5436 LP  0  0  0  0  0  0  0  0  0  0  0  0  # atno 17321 bound_to 7965
  140.7718  143.3476  151.2078 LP  0  0  0  0  0  0  0  0  0  0  0  0  # atno 17342 bound_to 10162
  139.7071  143.9437  152.2931 LP  0  0  0  0  0  0  0  0  0  0  0  0  # atno 17343 bound_to 10162
  157.7053  130.9378  150.0911 LP  0  0  0  0  0  0  0  0  0  0  0  0  # atno 17370 bound_to 10713
  156.1887  130.3653  149.8938 LP  0  0  0  0  0  0  0  0  0  0  0  0  # atno 17371 bound_to 10713
  141.1625  133.6538  156.4368 LP  0  0  0  0  0  0  0  0  0  0  0  0  # atno 17394 bound_to 11000
  140.4768  134.6702  157.5153 LP  0  0  0  0  0  0  0  0  0  0  0  0  # atno 17395 bound_to 11000

$$$$
