AV-unprocessed.smi:498|AV-procd|sdf|2729|dock3
  -GOLD-   2262023173D 1   1.00000     0.00000
 Structure written by MMmdl.
 43 45  0  0  0  0  0  0  0  0  2 V2000
  154.5269  139.7790  160.1492 C   0  0  0  0  0  0  0  0  0  0  0  0
  153.6282  138.8873  159.2904 C   0  0  0  0  0  0  0  0  0  0  0  0
  153.5971  139.4031  157.9704 O   0  0  0  0  0  0  0  0  0  0  0  0
  152.4602  138.9750  157.2418 C   0  0  0  0  0  0  0  0  0  0  0  0
  151.2015  139.5442  157.9110 C   0  0  0  0  0  0  0  0  0  0  0  0
  150.9452  140.9306  157.5004 N   0  0  0  0  0  0  0  0  0  0  0  0
  150.0263  141.4419  156.6283 C   0  0  0  0  0  0  0  0  0  0  0  0
  149.0033  140.6853  155.8400 C   0  0  0  0  0  0  0  0  0  0  0  0
  147.8082  141.4833  155.5882 N   0  0  0  0  0  0  0  0  0  0  0  0
  147.4331  141.9753  154.3965 C   0  0  0  0  0  0  0  0  0  0  0  0
  148.0156  141.7250  153.3421 O   0  0  0  0  0  0  0  0  0  0  0  0
  146.2889  142.9052  154.4206 C   0  0  0  0  0  0  0  0  0  0  0  0
  145.7297  143.6810  153.4392 C   0  0  0  0  0  0  0  0  0  0  0  0
  144.6372  144.3681  154.0370 C   0  0  0  0  0  0  0  0  0  0  0  0
  144.6106  143.9683  155.3419 C   0  0  0  0  0  0  0  0  0  0  0  0
  145.6112  143.0810  155.5921 O   0  0  0  0  0  0  0  0  0  0  0  0
  150.2143  142.7919  156.5959 N   0  3  0  0  0  0  0  0  0  0  0  0
  151.2625  143.1457  157.4470 C   0  0  0  0  0  0  0  0  0  0  0  0
  151.8189  144.3866  157.7420 C   0  0  0  0  0  0  0  0  0  0  0  0
  152.8918  144.3974  158.6576 C   0  0  0  0  0  0  0  0  0  0  0  0
  153.3716  143.2067  159.2411 C   0  0  0  0  0  0  0  0  0  0  0  0
  152.7990  141.9544  158.9347 C   0  0  0  0  0  0  0  0  0  0  0  0
  151.7381  141.9535  158.0298 C   0  0  0  0  0  0  0  0  0  0  0  0
  154.5702  139.4148  161.1757 H   0  0  0  0  0  0  0  0  0  0  0  0
  154.1520  140.8027  160.1737 H   0  0  0  0  0  0  0  0  0  0  0  0
  155.5443  139.8026  159.7583 H   0  0  0  0  0  0  0  0  0  0  0  0
  154.0062  137.8640  159.2847 H   0  0  0  0  0  0  0  0  0  0  0  0
  152.6228  138.8657  159.7132 H   0  0  0  0  0  0  0  0  0  0  0  0
  152.5251  139.3025  156.2032 H   0  0  0  0  0  0  0  0  0  0  0  0
  152.4206  137.8849  157.2360 H   0  0  0  0  0  0  0  0  0  0  0  0
  150.3267  138.9567  157.6331 H   0  0  0  0  0  0  0  0  0  0  0  0
  151.2692  139.4928  158.9981 H   0  0  0  0  0  0  0  0  0  0  0  0
  149.4636  140.3321  154.9161 H   0  0  0  0  0  0  0  0  0  0  0  0
  148.7078  139.7956  156.3968 H   0  0  0  0  0  0  0  0  0  0  0  0
  147.2617  141.7472  156.3950 H   0  0  0  0  0  0  0  0  0  0  0  0
  146.0609  143.7442  152.4131 H   0  0  0  0  0  0  0  0  0  0  0  0
  143.9576  145.0663  153.5715 H   0  0  0  0  0  0  0  0  0  0  0  0
  143.9800  144.2030  156.1869 H   0  0  0  0  0  0  0  0  0  0  0  0
  151.4541  145.3003  157.2958 H   0  0  0  0  0  0  0  0  0  0  0  0
  153.3570  145.3378  158.9165 H   0  0  0  0  0  0  0  0  0  0  0  0
  154.1960  143.2538  159.9379 H   0  0  0  0  0  0  0  0  0  0  0  0
  153.1743  141.0474  159.3853 H   0  0  0  0  0  0  0  0  0  0  0  0
  149.6649  143.4239  156.0280 H   0  0  0  0  0  0  0  0  0  0  0  0
  1  2  1  0  0  0  0
  1 24  1  0  0  0  0
  1 25  1  0  0  0  0
  1 26  1  0  0  0  0
  2  3  1  0  0  0  0
  2 27  1  0  0  0  0
  2 28  1  0  0  0  0
  3  4  1  0  0  0  0
  4  5  1  0  0  0  0
  4 29  1  0  0  0  0
  4 30  1  0  0  0  0
  5  6  1  0  0  0  0
  5 31  1  0  0  0  0
  5 32  1  0  0  0  0
  6 23  1  0  0  0  0
  6  7  1  0  0  0  0
  7  8  1  0  0  0  0
  7 17  2  0  0  0  0
  8  9  1  0  0  0  0
  8 33  1  0  0  0  0
  8 34  1  0  0  0  0
  9 10  1  0  0  0  0
  9 35  1  0  0  0  0
 10 11  2  0  0  0  0
 10 12  1  0  0  0  0
 12 16  1  0  0  0  0
 12 13  2  0  0  0  0
 13 14  1  0  0  0  0
 13 36  1  0  0  0  0
 14 15  2  0  0  0  0
 14 37  1  0  0  0  0
 15 16  1  0  0  0  0
 15 38  1  0  0  0  0
 17 18  1  0  0  0  0
 17 43  1  0  0  0  0
 18 23  2  0  0  0  0
 18 19  1  0  0  0  0
 19 20  2  0  0  0  0
 19 39  1  0  0  0  0
 20 21  1  0  0  0  0
 20 40  1  0  0  0  0
 21 22  2  0  0  0  0
 21 41  1  0  0  0  0
 22 23  1  0  0  0  0
 22 42  1  0  0  0  0
M  CHG  1  17   1
M  END
> <s_m_source_file>
AV-unprocessed.smi

> <i_m_source_file_index>
498

> <i_lp_mmshare_version>
43012

> <i_f3d_flags>
0

> <s_epik_input>
W0NIM11bQ0gyXU9bQ0gyXVtDSDJdbihjKGMxMilbY0hdW2NIXVtjSF1bY0hdMiljKG4xKVtDSDJdW05IXUMoPU8pYzNbY0hdW2NIXVtjSF1vMw==

> <s_epik_cmdline>
J2VwaWtfcHl0aG9uJywgJy1waCcsICc3LjAnLCAnLXRuJywgJzgnLCAnLW1hJywgJzIwMCcsICctbWV0YWxfYmluZGluZycsICctaW1hZScsICc8aW5maWxlLm1hZT4nLCAnLW9tYWUnLCAnPG91dGZpbGUubWFlPic=

> <r_epik_Ionization_Penalty>
1.29911

> <r_epik_Ionization_Penalty_Charging>
1.29908

> <r_epik_Ionization_Penalty_Neutral>
2.77772e-05

> <r_epik_State_Penalty>
1.37286

> <r_epik_Charging_Adjusted_Penalty>
2.67194

> <i_epik_Tot_Q>
1

> <i_epik_Tot_abs_Q>
1

> <r_epik_Metal_State_Penalty>
1.47523

> <b_epik_Metal_Only>
0

> <s_lp_Force_Field>
OPLS_2005

> <r_lp_Energy>
10.1123

> <b_lp_Chiralities_Consistent>
1

> <s_lp_Variant>
AV-unprocessed.smi:498-2

> <Gold.Version>
5.8.1

> <Gold.Id.Protein>
6NUR|6NUR_protein|mol2

> <Gold.PLP.Fitness>
54.2952

> <Gold.PLP.PLP>
-45.8285

> <Gold.PLP.part.hbond>
-2.9163

> <Gold.PLP.part.metal>
0.0000

> <Gold.PLP.part.buried>
-4.1492

> <Gold.PLP.part.nonpolar>
-38.6664

> <Gold.PLP.part.repulsive>
0.4380

> <Gold.PLP.ligand.clash>
0.0000

> <Gold.PLP.ligand.torsion>
0.8629

> <Gold.PLP.Chemscore.Hbond>
3.3650

> <Gold.PLP.Chemscore.CHOScore>
0.0000

> <Gold.PLP.Chemscore.Metal>
0.0000

> <Gold.Chemscore.Hbonds>
donor molecule, donor type, donor heavy atom, donor atom, acceptor molecule, acceptor atom, score
      L1  H    17    43       P1  8028  2.00
      P1  H  7997  8009       L1     3  0.98
      P1  H  8011  8017       L1    11  0.39

> <Gold.PLP.Chemscore.Internal.Correction>
0.0976

> <Gold.Rescore>
     Score         DG    S(hbond)    S(metal)    S(lipo)     H(rot)  DE(clash)    DE(int)     intcor
     19.48     -20.55       1.92        0.00     118.80       2.04       0.05       1.02       ----

> <Gold.Chemscore.Fitness>
19.4824

> <Gold.Chemscore.DG>
-20.5506

> <Gold.Chemscore.ZeroCoef>
-5.4800

> <Gold.Chemscore.Hbond>
1.9166

> <Gold.Chemscore.Metal>
0.0000

> <Gold.Chemscore.Lipo>
118.8004

> <Gold.Chemscore.Internal_Hbond>
0.0000

> <Gold.Chemscore.DEClash>
0.0497

> <Gold.Chemscore.DEInternal>
1.0185

> <Gold.Chemscore.Rot>
2.0432

> <Gold.Chemscore.Internal.Correction>
   9.000000E+99

> <Gold.Chemscore.Hbonds>
donor molecule, donor type, donor heavy atom, donor atom, acceptor molecule, acceptor atom, score
      L1  H    17    43       P1  8028  0.95
      P1  H  7997  8009       L1     3  0.23
      P1  H  8011  8017       L1    11  0.38

> <Gold.Chemscore.Hbond.Weighted>
-6.4016

> <Gold.Chemscore.Metal.Weighted>
-0.0000

> <Gold.Chemscore.Lipo.Weighted>
-13.8996

> <Gold.Chemscore.Internal_Hbond.Weighted>
0.0000

> <Gold.Chemscore.DEClash.Weighted>
0.0497

> <Gold.Chemscore.DEInternal.Weighted>
1.0185

> <Gold.Chemscore.Rot.Weighted>
5.2306

> <Gold.Chemscore.Internal.Correction.Weighted>
   9.000000E+99

> <Gold.Protein.RotatedTorsions>
[ 6907 6896 6895 6894 ] final -115.24 input  -60.11 | X-H torsion
[ 7974 7965 7964 7962 ] final  135.50 input  175.53 | X-H torsion
[ 8008 7997 7996 7995 ] final  173.15 input   59.86 | X-H torsion
[ 10167 10162 10161 10158 ] final  -47.04 input  -65.29 | X-H torsion
[ 10718 10713 10712 10709 ] final    8.36 input   66.30 | X-H torsion
[ 10763 10752 10751 10750 ] final  -38.11 input  -60.55 | X-H torsion
[ 11005 11000 10999 10996 ] final -135.44 input  -57.11 | X-H torsion

> <Gold.Protein.ActiveResidues>
 VAL166  LYS551  ARG553  GLY616  TRP617  ASP618  TYR619  PRO620  LYS621  CYS622 
 ASP623  PHE694  ASN695  SER759  ASP760  ASP761  ALA762  ILE779  LEU786  VAL792 
 PHE793  MET794  SER795  GLU796  ALA797  LYS798  CYS799  TRP800  GLU811  SER814 

> <Gold.Protein.RotatedAtoms>
  150.7963  133.8686  159.3252 H   0  0  0  0  0  0  0  0  0  0  0  0  # atno 6907 bound_to 6896
  151.6511  135.0999  160.0170 H   0  0  0  0  0  0  0  0  0  0  0  0  # atno 6908 bound_to 6896
  152.4045  133.6828  159.6379 H   0  0  0  0  0  0  0  0  0  0  0  0  # atno 6909 bound_to 6896
  144.9657  139.4661  143.5458 H   0  0  0  0  0  0  0  0  0  0  0  0  # atno 7974 bound_to 7965
  156.1104  140.1467  156.9346 H   0  0  0  0  0  0  0  0  0  0  0  0  # atno 8008 bound_to 7997
  154.4763  140.0893  156.7313 H   0  0  0  0  0  0  0  0  0  0  0  0  # atno 8009 bound_to 7997
  155.4605  140.3438  155.4314 H   0  0  0  0  0  0  0  0  0  0  0  0  # atno 8010 bound_to 7997
  140.6792  143.2803  151.3869 H   0  0  0  0  0  0  0  0  0  0  0  0  # atno 10167 bound_to 10162
  156.9505  130.5895  149.5656 H   0  0  0  0  0  0  0  0  0  0  0  0  # atno 10718 bound_to 10713
  153.9074  135.6796  153.4752 H   0  0  0  0  0  0  0  0  0  0  0  0  # atno 10763 bound_to 10752
  153.1097  135.4789  154.9010 H   0  0  0  0  0  0  0  0  0  0  0  0  # atno 10764 bound_to 10752
  154.7544  135.3193  154.8452 H   0  0  0  0  0  0  0  0  0  0  0  0  # atno 10765 bound_to 10752
  140.8897  134.1827  157.4536 H   0  0  0  0  0  0  0  0  0  0  0  0  # atno 11005 bound_to 11000
  146.3367  139.8836  142.8820 LP  0  0  0  0  0  0  0  0  0  0  0  0  # atno 17320 bound_to 7965
  145.2633  141.0084  143.3814 LP  0  0  0  0  0  0  0  0  0  0  0  0  # atno 17321 bound_to 7965
  139.6103  144.1111  152.2292 LP  0  0  0  0  0  0  0  0  0  0  0  0  # atno 17342 bound_to 10162
  140.0524  144.5922  150.7326 LP  0  0  0  0  0  0  0  0  0  0  0  0  # atno 17343 bound_to 10162
  156.0365  130.5452  150.8666 LP  0  0  0  0  0  0  0  0  0  0  0  0  # atno 17370 bound_to 10713
  157.5725  131.0946  150.9396 LP  0  0  0  0  0  0  0  0  0  0  0  0  # atno 17371 bound_to 10713
  139.8728  134.9853  156.5277 LP  0  0  0  0  0  0  0  0  0  0  0  0  # atno 17394 bound_to 11000
  140.8361  133.8241  155.9030 LP  0  0  0  0  0  0  0  0  0  0  0  0  # atno 17395 bound_to 11000

$$$$
