AV-unprocessed.smi:1660|AV-procd|sdf|6652|dock9
  -GOLD-   22720 7363D 1   1.00000     0.00000
 Structure written by MMmdl.
 42 43  0  0  0  0  0  0  0  0  1 V2000
  153.6275  143.6548  164.0653 C   0  0  0  0  0  0  0  0  0  0  0  0
  153.7981  142.4105  163.3954 O   0  0  0  0  0  0  0  0  0  0  0  0
  153.3039  142.2833  162.1134 C   0  0  0  0  0  0  0  0  0  0  0  0
  152.4886  143.3114  161.6004 C   0  0  0  0  0  0  0  0  0  0  0  0
  151.9791  143.1897  160.2936 C   0  0  0  0  0  0  0  0  0  0  0  0
  152.3101  142.0420  159.5341 C   0  0  0  0  0  0  0  0  0  0  0  0
  151.8476  141.7927  158.2130 N   0  0  0  0  0  0  0  0  0  0  0  0
  152.0571  140.7121  157.4412 C   0  0  0  0  0  0  0  0  0  0  0  0
  152.6870  139.7085  157.7743 O   0  0  0  0  0  0  0  0  0  0  0  0
  151.4709  140.8483  156.2444 N   0  0  0  0  0  0  0  0  0  0  0  0
  151.5129  139.8394  155.1940 C   0  0  0  0  0  0  0  0  0  0  0  0
  150.1104  139.6095  154.6019 C   0  0  0  0  0  0  0  0  0  0  0  0
  149.4310  140.8965  154.0999 C   0  0  0  0  0  0  0  0  0  0  0  0
  150.1142  141.9096  153.9414 O   0  0  0  0  0  0  0  0  0  0  0  0
  148.1013  140.8784  153.8421 N   0  0  0  0  0  0  0  0  0  0  0  0
  147.2500  139.7137  154.0999 C   0  0  0  0  0  0  0  0  0  0  0  0
  146.2616  140.0792  155.2220 C   0  0  0  0  0  0  0  0  0  0  0  0
  145.4987  141.2209  154.8369 O   0  0  0  0  0  0  0  0  0  0  0  0
  146.3024  142.3614  154.5429 C   0  0  0  0  0  0  0  0  0  0  0  0
  147.2887  142.0203  153.4116 C   0  0  0  0  0  0  0  0  0  0  0  0
  153.1230  141.0645  160.1447 C   0  0  0  0  0  0  0  0  0  0  0  0
  153.6145  141.1748  161.3968 N   0  0  0  0  0  0  0  0  0  0  0  0
  154.0709  143.5927  165.0588 H   0  0  0  0  0  0  0  0  0  0  0  0
  152.5715  143.8998  164.1890 H   0  0  0  0  0  0  0  0  0  0  0  0
  154.1240  144.4668  163.5321 H   0  0  0  0  0  0  0  0  0  0  0  0
  152.2534  144.1776  162.2012 H   0  0  0  0  0  0  0  0  0  0  0  0
  151.3385  143.9687  159.9112 H   0  0  0  0  0  0  0  0  0  0  0  0
  151.2427  142.5027  157.8267 H   0  0  0  0  0  0  0  0  0  0  0  0
  150.9665  141.7002  156.0472 H   0  0  0  0  0  0  0  0  0  0  0  0
  152.2057  140.1670  154.4165 H   0  0  0  0  0  0  0  0  0  0  0  0
  151.9052  138.9085  155.6081 H   0  0  0  0  0  0  0  0  0  0  0  0
  150.1886  138.9087  153.7695 H   0  0  0  0  0  0  0  0  0  0  0  0
  149.4718  139.1494  155.3571 H   0  0  0  0  0  0  0  0  0  0  0  0
  146.7077  139.4509  153.1905 H   0  0  0  0  0  0  0  0  0  0  0  0
  147.8161  138.8247  154.3814 H   0  0  0  0  0  0  0  0  0  0  0  0
  145.5828  139.2480  155.4132 H   0  0  0  0  0  0  0  0  0  0  0  0
  146.7908  140.2817  156.1548 H   0  0  0  0  0  0  0  0  0  0  0  0
  145.6524  143.1834  154.2429 H   0  0  0  0  0  0  0  0  0  0  0  0
  146.8349  142.6843  155.4391 H   0  0  0  0  0  0  0  0  0  0  0  0
  147.8695  142.9032  153.1500 H   0  0  0  0  0  0  0  0  0  0  0  0
  146.7401  141.7499  152.5082 H   0  0  0  0  0  0  0  0  0  0  0  0
  153.3928  140.1650  159.6109 H   0  0  0  0  0  0  0  0  0  0  0  0
  1  2  1  0  0  0  0
  1 23  1  0  0  0  0
  1 24  1  0  0  0  0
  1 25  1  0  0  0  0
  2  3  1  0  0  0  0
  3 22  1  0  0  0  0
  3  4  2  0  0  0  0
  4  5  1  0  0  0  0
  4 26  1  0  0  0  0
  5  6  2  0  0  0  0
  5 27  1  0  0  0  0
  6  7  1  0  0  0  0
  6 21  1  0  0  0  0
  7  8  1  0  0  0  0
  7 28  1  0  0  0  0
  8  9  2  0  0  0  0
  8 10  1  0  0  0  0
 10 11  1  0  0  0  0
 10 29  1  0  0  0  0
 11 12  1  0  0  0  0
 11 30  1  0  0  0  0
 11 31  1  0  0  0  0
 12 13  1  0  0  0  0
 12 32  1  0  0  0  0
 12 33  1  0  0  0  0
 13 14  2  0  0  0  0
 13 15  1  0  0  0  0
 15 20  1  0  0  0  0
 15 16  1  0  0  0  0
 16 17  1  0  0  0  0
 16 34  1  0  0  0  0
 16 35  1  0  0  0  0
 17 18  1  0  0  0  0
 17 36  1  0  0  0  0
 17 37  1  0  0  0  0
 18 19  1  0  0  0  0
 19 20  1  0  0  0  0
 19 38  1  0  0  0  0
 19 39  1  0  0  0  0
 20 40  1  0  0  0  0
 20 41  1  0  0  0  0
 21 22  2  0  0  0  0
 21 42  1  0  0  0  0
M  END
> <s_m_source_file>
AV-unprocessed.smi

> <i_m_source_file_index>
1660

> <i_lp_mmshare_version>
43012

> <i_f3d_flags>
0

> <s_epik_input>
W0NIM11PYzFbY0hdW2NIXWMoW2NIXW4xKVtOSF1DKD1PKVtOSF1bQ0gyXVtDSDJdQyg9TylOMltDSDJdW0NIMl1PW0NIMl1bQ0gyXTI=

> <s_epik_cmdline>
J2VwaWtfcHl0aG9uJywgJy1waCcsICc3LjAnLCAnLXRuJywgJzgnLCAnLW1hJywgJzIwMCcsICctbWV0YWxfYmluZGluZycsICctaW1hZScsICc8aW5maWxlLm1hZT4nLCAnLW9tYWUnLCAnPG91dGZpbGUubWFlPic=

> <r_lp_tautomer_probability>
1

> <r_epik_Ionization_Penalty>
8.54597e-05

> <r_epik_Ionization_Penalty_Charging>
0

> <r_epik_Ionization_Penalty_Neutral>
8.54597e-05

> <r_epik_State_Penalty>
-0

> <r_epik_Charging_Adjusted_Penalty>
0

> <i_epik_Tot_Q>
0

> <i_epik_Tot_abs_Q>
0

> <r_epik_Metal_State_Penalty>
-0

> <b_epik_Metal_Only>
0

> <s_lp_Force_Field>
OPLS_2005

> <r_lp_Energy>
25.5639

> <b_lp_Chiralities_Consistent>
1

> <s_lp_Variant>
AV-unprocessed.smi:1660-1

> <Gold.Version>
5.8.1

> <Gold.Id.Protein>
6NUR|6NUR_protein|mol2

> <Gold.PLP.Fitness>
44.7758

> <Gold.PLP.PLP>
-40.3795

> <Gold.PLP.part.hbond>
-3.7150

> <Gold.PLP.part.metal>
0.0000

> <Gold.PLP.part.buried>
-3.6819

> <Gold.PLP.part.nonpolar>
-32.8887

> <Gold.PLP.part.repulsive>
0.5753

> <Gold.PLP.ligand.clash>
0.4756

> <Gold.PLP.ligand.torsion>
0.3503

> <Gold.PLP.Chemscore.Hbond>
1.8480

> <Gold.PLP.Chemscore.CHOScore>
0.0000

> <Gold.PLP.Chemscore.Metal>
0.0000

> <Gold.Chemscore.Hbonds>
donor molecule, donor type, donor heavy atom, donor atom, acceptor molecule, acceptor atom, score
      P1  H  7997  8009       L1     9  0.99
      P1  H  8011  8017       L1    14  0.37

> <Gold.PLP.Chemscore.Internal.Correction>
0.0286

> <Gold.Rescore>
     Score         DG    S(hbond)    S(metal)    S(lipo)     H(rot)  DE(clash)    DE(int)     intcor
     11.58     -16.09       1.78        0.00      80.96       1.88       1.44       3.07       ----

> <Gold.Chemscore.Fitness>
11.5830

> <Gold.Chemscore.DG>
-16.0929

> <Gold.Chemscore.ZeroCoef>
-5.4800

> <Gold.Chemscore.Hbond>
1.7847

> <Gold.Chemscore.Metal>
0.0000

> <Gold.Chemscore.Lipo>
80.9565

> <Gold.Chemscore.Internal_Hbond>
0.0000

> <Gold.Chemscore.DEClash>
1.4417

> <Gold.Chemscore.DEInternal>
3.0681

> <Gold.Chemscore.Rot>
1.8828

> <Gold.Chemscore.Internal.Correction>
   9.000000E+99

> <Gold.Chemscore.Hbonds>
donor molecule, donor type, donor heavy atom, donor atom, acceptor molecule, acceptor atom, score
      P1  H  7997  8009       L1     9  0.24
      P1  H  8011  8017       L1    14  0.20

> <Gold.Chemscore.Hbond.Weighted>
-5.9609

> <Gold.Chemscore.Metal.Weighted>
-0.0000

> <Gold.Chemscore.Lipo.Weighted>
-9.4719

> <Gold.Chemscore.Internal_Hbond.Weighted>
0.0000

> <Gold.Chemscore.DEClash.Weighted>
1.4417

> <Gold.Chemscore.DEInternal.Weighted>
3.0681

> <Gold.Chemscore.Rot.Weighted>
4.8200

> <Gold.Chemscore.Internal.Correction.Weighted>
   9.000000E+99

> <Gold.Protein.RotatedTorsions>
[ 6907 6896 6895 6894 ] final -106.91 input  -60.11 | X-H torsion
[ 7974 7965 7964 7962 ] final   54.20 input  175.53 | X-H torsion
[ 8008 7997 7996 7995 ] final  169.79 input   59.86 | X-H torsion
[ 10167 10162 10161 10158 ] final   -9.13 input  -65.29 | X-H torsion
[ 10718 10713 10712 10709 ] final -109.47 input   66.30 | X-H torsion
[ 10763 10752 10751 10750 ] final -172.91 input  -60.55 | X-H torsion
[ 11005 11000 10999 10996 ] final  139.61 input  -57.11 | X-H torsion

> <Gold.Protein.ActiveResidues>
 VAL166  LYS551  ARG553  GLY616  TRP617  ASP618  TYR619  PRO620  LYS621  CYS622 
 ASP623  PHE694  ASN695  SER759  ASP760  ASP761  ALA762  ILE779  LEU786  VAL792 
 PHE793  MET794  SER795  GLU796  ALA797  LYS798  CYS799  TRP800  GLU811  SER814 

> <Gold.Protein.RotatedAtoms>
  150.7415  133.9905  159.3605 H   0  0  0  0  0  0  0  0  0  0  0  0  # atno 6907 bound_to 6896
  151.7852  135.0749  160.0389 H   0  0  0  0  0  0  0  0  0  0  0  0  # atno 6908 bound_to 6896
  152.3246  133.5854  159.5804 H   0  0  0  0  0  0  0  0  0  0  0  0  # atno 6909 bound_to 6896
  145.9633  139.4079  143.0235 H   0  0  0  0  0  0  0  0  0  0  0  0  # atno 7974 bound_to 7965
  156.1425  140.1555  156.8898 H   0  0  0  0  0  0  0  0  0  0  0  0  # atno 8008 bound_to 7997
  154.5000  140.0828  156.7815 H   0  0  0  0  0  0  0  0  0  0  0  0  # atno 8009 bound_to 7997
  155.4051  140.3416  155.4262 H   0  0  0  0  0  0  0  0  0  0  0  0  # atno 8010 bound_to 7997
  140.7078  143.5892  150.8911 H   0  0  0  0  0  0  0  0  0  0  0  0  # atno 10167 bound_to 10162
  156.0538  130.5765  150.8104 H   0  0  0  0  0  0  0  0  0  0  0  0  # atno 10718 bound_to 10713
  154.6139  135.2867  155.0401 H   0  0  0  0  0  0  0  0  0  0  0  0  # atno 10763 bound_to 10752
  154.1621  135.6486  153.4992 H   0  0  0  0  0  0  0  0  0  0  0  0  # atno 10764 bound_to 10752
  153.0207  135.5380  154.6903 H   0  0  0  0  0  0  0  0  0  0  0  0  # atno 10765 bound_to 10752
  140.0267  134.9371  157.0582 H   0  0  0  0  0  0  0  0  0  0  0  0  # atno 11005 bound_to 11000
  145.8009  140.9771  143.0999 LP  0  0  0  0  0  0  0  0  0  0  0  0  # atno 17320 bound_to 7965
  144.6820  139.9800  143.7483 LP  0  0  0  0  0  0  0  0  0  0  0  0  # atno 17321 bound_to 7965
  139.9618  143.6155  152.3000 LP  0  0  0  0  0  0  0  0  0  0  0  0  # atno 17342 bound_to 10162
  139.6711  144.7661  151.1782 LP  0  0  0  0  0  0  0  0  0  0  0  0  # atno 17343 bound_to 10162
  157.5490  131.0943  150.9722 LP  0  0  0  0  0  0  0  0  0  0  0  0  # atno 17370 bound_to 10713
  156.9986  130.5591  149.5309 LP  0  0  0  0  0  0  0  0  0  0  0  0  # atno 17371 bound_to 10713
  140.4294  134.1796  155.7167 LP  0  0  0  0  0  0  0  0  0  0  0  0  # atno 17394 bound_to 11000
  141.1807  133.8420  157.1268 LP  0  0  0  0  0  0  0  0  0  0  0  0  # atno 17395 bound_to 11000

$$$$
