AV-unprocessed.smi:170|AV-procd|sdf|1413|dock3
  -GOLD-   2262019173D 1   1.00000     0.00000
 Structure written by MMmdl.
 57 61  0  0  0  0  0  0  0  0  1 V2000
  148.9898  143.0189  157.7496 O   0  0  0  0  0  0  0  0  0  0  0  0
  150.2854  142.6494  158.1838 C   0  0  1  0  0  0  0  0  0  0  0  0
  150.9658  141.8066  157.0863 C   0  0  0  0  0  0  0  0  0  0  0  0
  150.6107  140.4008  157.1686 N   0  0  0  0  0  0  0  0  0  0  0  0
  150.3181  139.6861  158.3087 C   0  0  0  0  0  0  0  0  0  0  0  0
  150.0348  138.4259  158.1182 N   0  0  0  0  0  0  0  0  0  0  0  0
  150.1394  138.2631  156.7427 C   0  0  0  0  0  0  0  0  0  0  0  0
  149.9761  137.1591  155.8654 C   0  0  0  0  0  0  0  0  0  0  0  0
  149.6310  135.9312  156.3205 N   0  0  0  0  0  0  0  0  0  0  0  0
  150.7301  134.9954  156.1080 C   0  0  0  0  0  0  0  0  0  0  0  0
  150.2947  133.5675  156.4590 C   0  0  0  0  0  0  0  0  0  0  0  0
  149.8353  133.5475  157.8029 O   0  0  0  0  0  0  0  0  0  0  0  0
  148.6933  134.3765  157.9831 C   0  0  0  0  0  0  0  0  0  0  0  0
  149.0277  135.8525  157.6588 C   0  0  2  0  0  0  0  0  0  0  0  0
  147.7675  136.7496  157.7841 C   0  0  0  0  0  0  0  0  0  0  0  0
  147.4469  137.1846  159.2128 C   0  0  0  0  0  0  0  0  0  0  0  0
  148.2934  136.6487  160.3775 C   0  0  0  0  0  0  0  0  0  0  0  0
  147.0264  136.6471  161.2371 C   0  0  0  0  0  0  0  0  0  0  0  0
  146.2230  136.6004  159.9344 C   0  0  0  0  0  0  0  0  0  0  0  0
  150.1512  137.3751  154.5341 N   0  0  0  0  0  0  0  0  0  0  0  0
  150.4840  138.5919  154.0928 C   0  0  0  0  0  0  0  0  0  0  0  0
  150.6812  139.7103  154.7949 N   0  0  0  0  0  0  0  0  0  0  0  0
  150.4949  139.4960  156.1291 C   0  0  0  0  0  0  0  0  0  0  0  0
  151.0807  143.9243  158.5210 C   0  0  1  0  0  0  0  0  0  0  0  0
  150.4043  144.8368  159.5465 C   0  0  0  0  0  0  0  0  0  0  0  0
  151.5853  145.5888  160.1151 C   0  0  0  0  0  0  0  0  0  0  0  0
  152.6487  144.4971  160.1684 C   0  0  0  0  0  0  0  0  0  0  0  0
  152.3346  143.5905  159.1139 O   0  0  0  0  0  0  0  0  0  0  0  0
  149.0725  143.7174  157.1188 H   0  0  0  0  0  0  0  0  0  0  0  0
  150.1774  142.0456  159.0858 H   0  0  0  0  0  0  0  0  0  0  0  0
  150.6969  142.1783  156.0965 H   0  0  0  0  0  0  0  0  0  0  0  0
  152.0507  141.8851  157.1642 H   0  0  0  0  0  0  0  0  0  0  0  0
  150.3273  140.1300  159.2936 H   0  0  0  0  0  0  0  0  0  0  0  0
  151.0613  135.0313  155.0690 H   0  0  0  0  0  0  0  0  0  0  0  0
  151.5805  135.2858  156.7270 H   0  0  0  0  0  0  0  0  0  0  0  0
  149.5125  133.2175  155.7833 H   0  0  0  0  0  0  0  0  0  0  0  0
  151.1361  132.8819  156.3595 H   0  0  0  0  0  0  0  0  0  0  0  0
  147.8735  134.0160  157.3593 H   0  0  0  0  0  0  0  0  0  0  0  0
  148.3731  134.2719  159.0191 H   0  0  0  0  0  0  0  0  0  0  0  0
  149.7727  136.1906  158.3807 H   0  0  0  0  0  0  0  0  0  0  0  0
  147.8826  137.6453  157.1746 H   0  0  0  0  0  0  0  0  0  0  0  0
  146.9104  136.2233  157.3624 H   0  0  0  0  0  0  0  0  0  0  0  0
  147.4141  138.2727  159.2929 H   0  0  0  0  0  0  0  0  0  0  0  0
  148.6795  135.6440  160.1976 H   0  0  0  0  0  0  0  0  0  0  0  0
  149.0778  137.3243  160.7200 H   0  0  0  0  0  0  0  0  0  0  0  0
  146.9095  135.7732  161.8784 H   0  0  0  0  0  0  0  0  0  0  0  0
  146.8866  137.5787  161.7878 H   0  0  0  0  0  0  0  0  0  0  0  0
  145.3376  137.2364  159.9184 H   0  0  0  0  0  0  0  0  0  0  0  0
  145.9919  135.5815  159.6187 H   0  0  0  0  0  0  0  0  0  0  0  0
  150.6109  138.6820  153.0240 H   0  0  0  0  0  0  0  0  0  0  0  0
  151.2861  144.4949  157.6136 H   0  0  0  0  0  0  0  0  0  0  0  0
  149.6543  145.4928  159.1039 H   0  0  0  0  0  0  0  0  0  0  0  0
  149.9250  144.2487  160.3307 H   0  0  0  0  0  0  0  0  0  0  0  0
  151.8901  146.3802  159.4289 H   0  0  0  0  0  0  0  0  0  0  0  0
  151.3836  146.0366  161.0886 H   0  0  0  0  0  0  0  0  0  0  0  0
  153.6581  144.8963  160.0644 H   0  0  0  0  0  0  0  0  0  0  0  0
  152.5937  143.9571  161.1147 H   0  0  0  0  0  0  0  0  0  0  0  0
  1  2  1  0  0  0  0
  1 29  1  0  0  0  0
  2  3  1  0  0  0  0
  2 24  1  0  0  0  0
  2 30  1  0  0  0  0
  3  4  1  0  0  0  0
  3 31  1  0  0  0  0
  3 32  1  0  0  0  0
  4 23  1  0  0  0  0
  4  5  1  0  0  0  0
  5  6  2  0  0  0  0
  5 33  1  0  0  0  0
  6  7  1  0  0  0  0
  7 23  2  0  0  0  0
  7  8  1  0  0  0  0
  8  9  1  0  0  0  0
  8 20  2  0  0  0  0
  9 14  1  0  0  0  0
  9 10  1  0  0  0  0
 10 11  1  0  0  0  0
 10 34  1  0  0  0  0
 10 35  1  0  0  0  0
 11 12  1  0  0  0  0
 11 36  1  0  0  0  0
 11 37  1  0  0  0  0
 12 13  1  0  0  0  0
 13 14  1  0  0  0  0
 13 38  1  0  0  0  0
 13 39  1  0  0  0  0
 14 15  1  0  0  0  0
 14 40  1  0  0  0  0
 15 16  1  0  0  0  0
 15 41  1  0  0  0  0
 15 42  1  0  0  0  0
 16 19  1  0  0  0  0
 16 17  1  0  0  0  0
 16 43  1  0  0  0  0
 17 18  1  0  0  0  0
 17 44  1  0  0  0  0
 17 45  1  0  0  0  0
 18 19  1  0  0  0  0
 18 46  1  0  0  0  0
 18 47  1  0  0  0  0
 19 48  1  0  0  0  0
 19 49  1  0  0  0  0
 20 21  1  0  0  0  0
 21 22  2  0  0  0  0
 21 50  1  0  0  0  0
 22 23  1  0  0  0  0
 24 28  1  0  0  0  0
 24 25  1  0  0  0  0
 24 51  1  0  0  0  0
 25 26  1  0  0  0  0
 25 52  1  0  0  0  0
 25 53  1  0  0  0  0
 26 27  1  0  0  0  0
 26 54  1  0  0  0  0
 26 55  1  0  0  0  0
 27 28  1  0  0  0  0
 27 56  1  0  0  0  0
 27 57  1  0  0  0  0
M  END
> <s_m_source_file>
AV-unprocessed.smi

> <i_m_source_file_index>
170

> <i_lp_mmshare_version>
43012

> <i_f3d_flags>
0

> <s_epik_input>
TzFbQ0gyXVtDSDJdW0NIMl1bQ0BIXTFbQ0BIXShbT0hdKVtDSDJdbihbY0hdbjIpYyhjMjMpbltjSF1uYzNONFtDSDJdW0NIMl1PW0NIMl1bQ0BIXTRbQ0gyXVtDSF01W0NIMl1bQ0gyXVtDSDJdNQ==

> <s_epik_cmdline>
J2VwaWtfcHl0aG9uJywgJy1waCcsICc3LjAnLCAnLXRuJywgJzgnLCAnLW1hJywgJzIwMCcsICctbWV0YWxfYmluZGluZycsICctaW1hZScsICc8aW5maWxlLm1hZT4nLCAnLW9tYWUnLCAnPG91dGZpbGUubWFlPic=

> <r_lp_tautomer_probability>
1

> <r_epik_Ionization_Penalty>
4.98275e-05

> <r_epik_Ionization_Penalty_Charging>
0

> <r_epik_Ionization_Penalty_Neutral>
4.98275e-05

> <r_epik_State_Penalty>
-0

> <r_epik_Charging_Adjusted_Penalty>
0

> <i_epik_Tot_Q>
0

> <i_epik_Tot_abs_Q>
0

> <r_epik_Metal_State_Penalty>
-0

> <b_epik_Metal_Only>
0

> <s_lp_Force_Field>
OPLS_2005

> <r_lp_Energy>
50.2735

> <b_lp_Chiralities_Consistent>
1

> <s_lp_Variant>
AV-unprocessed.smi:170-8

> <Gold.Version>
5.8.1

> <Gold.Id.Protein>
6NUR|6NUR_protein|mol2

> <Gold.PLP.Fitness>
45.3898

> <Gold.PLP.PLP>
-36.9646

> <Gold.PLP.part.hbond>
-3.5900

> <Gold.PLP.part.metal>
0.0000

> <Gold.PLP.part.buried>
-7.9311

> <Gold.PLP.part.nonpolar>
-27.1064

> <Gold.PLP.part.repulsive>
0.3879

> <Gold.PLP.ligand.clash>
0.0000

> <Gold.PLP.ligand.torsion>
1.9611

> <Gold.PLP.Chemscore.Hbond>
3.0000

> <Gold.PLP.Chemscore.CHOScore>
0.9924

> <Gold.PLP.Chemscore.Metal>
0.0000

> <Gold.Chemscore.Hbonds>
donor molecule, donor type, donor heavy atom, donor atom, acceptor molecule, acceptor atom, score
      L1  H     1    29       P1  8028  1.00
      P1  H  6896  6909       L1    12  1.00
      P1  H  7989  7998       L1    22  1.00
      L1  C    21    50       P1  7957  1.00

> <Gold.PLP.Chemscore.Internal.Correction>
0.3702

> <Gold.Rescore>
     Score         DG    S(hbond)    S(metal)    S(lipo)     H(rot)  DE(clash)    DE(int)     intcor
     13.04     -16.69       2.40        0.00      84.40       2.61       0.10       3.54       ----

> <Gold.Chemscore.Fitness>
13.0398

> <Gold.Chemscore.DG>
-16.6855

> <Gold.Chemscore.ZeroCoef>
-5.4800

> <Gold.Chemscore.Hbond>
2.4023

> <Gold.Chemscore.Metal>
0.0000

> <Gold.Chemscore.Lipo>
84.3988

> <Gold.Chemscore.Internal_Hbond>
0.0000

> <Gold.Chemscore.DEClash>
0.1028

> <Gold.Chemscore.DEInternal>
3.5429

> <Gold.Chemscore.Rot>
2.6144

> <Gold.Chemscore.Internal.Correction>
   9.000000E+99

> <Gold.Chemscore.Hbonds>
donor molecule, donor type, donor heavy atom, donor atom, acceptor molecule, acceptor atom, score
      L1  H     1    29       P1  8028  0.40
      P1  H  6896  6909       L1    12  0.30
      P1  H  7989  7998       L1    22  0.34

> <Gold.Chemscore.Hbond.Weighted>
-8.0238

> <Gold.Chemscore.Metal.Weighted>
-0.0000

> <Gold.Chemscore.Lipo.Weighted>
-9.8747

> <Gold.Chemscore.Internal_Hbond.Weighted>
0.0000

> <Gold.Chemscore.DEClash.Weighted>
0.1028

> <Gold.Chemscore.DEInternal.Weighted>
3.5429

> <Gold.Chemscore.Rot.Weighted>
6.6929

> <Gold.Chemscore.Internal.Correction.Weighted>
   9.000000E+99

> <Gold.Protein.RotatedTorsions>
[ 6907 6896 6895 6894 ] final    6.94 input  -60.11 | X-H torsion
[ 7974 7965 7964 7962 ] final  124.48 input  175.53 | X-H torsion
[ 8008 7997 7996 7995 ] final  109.73 input   59.86 | X-H torsion
[ 10167 10162 10161 10158 ] final -135.37 input  -65.29 | X-H torsion
[ 10718 10713 10712 10709 ] final -114.58 input   66.30 | X-H torsion
[ 10763 10752 10751 10750 ] final -131.56 input  -60.55 | X-H torsion
[ 11005 11000 10999 10996 ] final -160.36 input  -57.11 | X-H torsion

> <Gold.Protein.ActiveResidues>
 VAL166  LYS551  ARG553  GLY616  TRP617  ASP618  TYR619  PRO620  LYS621  CYS622 
 ASP623  PHE694  ASN695  SER759  ASP760  ASP761  ALA762  ILE779  LEU786  VAL792 
 PHE793  MET794  SER795  GLU796  ALA797  LYS798  CYS799  TRP800  GLU811  SER814 

> <Gold.Protein.RotatedAtoms>
  151.6819  135.0960  160.0217 H   0  0  0  0  0  0  0  0  0  0  0  0  # atno 6907 bound_to 6896
  152.3830  133.6568  159.6185 H   0  0  0  0  0  0  0  0  0  0  0  0  # atno 6908 bound_to 6896
  150.7763  133.8998  159.3379 H   0  0  0  0  0  0  0  0  0  0  0  0  # atno 6909 bound_to 6896
  145.0839  139.3636  143.4895 H   0  0  0  0  0  0  0  0  0  0  0  0  # atno 7974 bound_to 7965
  156.2001  140.3052  155.9508 H   0  0  0  0  0  0  0  0  0  0  0  0  # atno 8008 bound_to 7997
  155.2974  140.0445  157.3044 H   0  0  0  0  0  0  0  0  0  0  0  0  # atno 8009 bound_to 7997
  154.5560  140.2306  155.8419 H   0  0  0  0  0  0  0  0  0  0  0  0  # atno 8010 bound_to 7997
  139.8785  143.6868  152.2630 H   0  0  0  0  0  0  0  0  0  0  0  0  # atno 10167 bound_to 10162
  156.0839  130.6034  150.8793 H   0  0  0  0  0  0  0  0  0  0  0  0  # atno 10718 bound_to 10713
  154.8750  135.3826  154.4267 H   0  0  0  0  0  0  0  0  0  0  0  0  # atno 10763 bound_to 10752
  153.4965  135.7030  153.5860 H   0  0  0  0  0  0  0  0  0  0  0  0  # atno 10764 bound_to 10752
  153.4211  135.3901  155.2078 H   0  0  0  0  0  0  0  0  0  0  0  0  # atno 10765 bound_to 10752
  140.6324  134.4638  157.5230 H   0  0  0  0  0  0  0  0  0  0  0  0  # atno 11005 bound_to 11000
  146.3531  140.0643  142.8627 LP  0  0  0  0  0  0  0  0  0  0  0  0  # atno 17320 bound_to 7965
  145.1145  140.9425  143.4637 LP  0  0  0  0  0  0  0  0  0  0  0  0  # atno 17321 bound_to 7965
  139.7217  144.7601  151.0944 LP  0  0  0  0  0  0  0  0  0  0  0  0  # atno 17342 bound_to 10162
  140.7748  143.5199  150.9550 LP  0  0  0  0  0  0  0  0  0  0  0  0  # atno 17343 bound_to 10162
  157.5966  131.0943  150.9030 LP  0  0  0  0  0  0  0  0  0  0  0  0  # atno 17370 bound_to 10713
  156.9195  130.5310  149.5279 LP  0  0  0  0  0  0  0  0  0  0  0  0  # atno 17371 bound_to 10713
  139.9111  134.8343  156.1525 LP  0  0  0  0  0  0  0  0  0  0  0  0  # atno 17394 bound_to 11000
  141.0666  133.6816  156.2057 LP  0  0  0  0  0  0  0  0  0  0  0  0  # atno 17395 bound_to 11000

$$$$
