AV-unprocessed.smi:470|AV-procd|sdf|2657|dock8
  -GOLD-   2262023 73D 1   1.00000     0.00000
 Structure written by MMmdl.
 32 33  0  0  0  0  0  0  0  0  2 V2000
  150.3898  135.8689  154.6516 N   0  0  0  0  0  0  0  0  0  0  0  0
  151.1263  136.9273  155.0027 C   0  0  0  0  0  0  0  0  0  0  0  0
  151.9803  136.8686  155.8851 O   0  0  0  0  0  0  0  0  0  0  0  0
  150.8786  138.2364  154.2487 C   0  0  0  0  0  0  0  0  0  0  0  0
  150.3330  139.2834  155.1761 C   0  0  0  0  0  0  0  0  0  0  0  0
  149.1505  139.2389  155.8682 C   0  0  0  0  0  0  0  0  0  0  0  0
  148.9063  140.6768  156.8172 S   0  0  0  0  0  0  0  0  0  0  0  0
  150.4379  141.3190  156.2211 C   0  0  0  0  0  0  0  0  0  0  0  0
  150.9607  142.5100  156.5601 N   0  5  0  0  0  0  0  0  0  0  0  0
  150.9551  143.0282  157.8215 C   0  0  0  0  0  0  0  0  0  0  0  0
  150.1006  142.7773  158.6692 O   0  0  0  0  0  0  0  0  0  0  0  0
  152.1123  144.0039  158.1934 C   0  0  1  0  0  0  0  0  0  0  0  0
  151.5835  145.3973  158.6169 C   0  0  0  0  0  0  0  0  0  0  0  0
  151.1843  145.4733  160.0799 C   0  0  0  0  0  0  0  0  0  0  0  0
  151.5828  144.5871  161.0070 C   0  0  0  0  0  0  0  0  0  0  0  0
  152.4732  143.3965  160.7047 C   0  0  0  0  0  0  0  0  0  0  0  0
  153.0649  143.4387  159.2780 C   0  0  0  0  0  0  0  0  0  0  0  0
  151.0577  140.4558  155.4084 N   0  0  0  0  0  0  0  0  0  0  0  0
  150.5062  134.9913  155.1363 H   0  0  0  0  0  0  0  0  0  0  0  0
  149.7044  135.9580  153.9148 H   0  0  0  0  0  0  0  0  0  0  0  0
  151.8116  138.5761  153.7973 H   0  0  0  0  0  0  0  0  0  0  0  0
  150.1892  138.0478  153.4246 H   0  0  0  0  0  0  0  0  0  0  0  0
  148.4100  138.4533  155.8743 H   0  0  0  0  0  0  0  0  0  0  0  0
  152.7531  144.1479  157.3249 H   0  0  0  0  0  0  0  0  0  0  0  0
  152.3434  146.1570  158.4332 H   0  0  0  0  0  0  0  0  0  0  0  0
  150.7184  145.6800  158.0175 H   0  0  0  0  0  0  0  0  0  0  0  0
  150.5631  146.3080  160.3697 H   0  0  0  0  0  0  0  0  0  0  0  0
  151.2571  144.7009  162.0303 H   0  0  0  0  0  0  0  0  0  0  0  0
  153.2808  143.3610  161.4361 H   0  0  0  0  0  0  0  0  0  0  0  0
  151.8875  142.4896  160.8534 H   0  0  0  0  0  0  0  0  0  0  0  0
  153.4160  142.4451  158.9961 H   0  0  0  0  0  0  0  0  0  0  0  0
  153.9560  144.0673  159.2982 H   0  0  0  0  0  0  0  0  0  0  0  0
  1  2  1  0  0  0  0
  1 19  1  0  0  0  0
  1 20  1  0  0  0  0
  2  3  2  0  0  0  0
  2  4  1  0  0  0  0
  4  5  1  0  0  0  0
  4 21  1  0  0  0  0
  4 22  1  0  0  0  0
  5 18  1  0  0  0  0
  5  6  2  0  0  0  0
  6  7  1  0  0  0  0
  6 23  1  0  0  0  0
  7  8  1  0  0  0  0
  8  9  1  0  0  0  0
  8 18  2  0  0  0  0
  9 10  1  0  0  0  0
 10 11  2  0  0  0  0
 10 12  1  0  0  0  0
 12 17  1  0  0  0  0
 12 13  1  0  0  0  0
 12 24  1  0  0  0  0
 13 14  1  0  0  0  0
 13 25  1  0  0  0  0
 13 26  1  0  0  0  0
 14 15  2  0  0  0  0
 14 27  1  0  0  0  0
 15 16  1  0  0  0  0
 15 28  1  0  0  0  0
 16 17  1  0  0  0  0
 16 29  1  0  0  0  0
 16 30  1  0  0  0  0
 17 31  1  0  0  0  0
 17 32  1  0  0  0  0
M  CHG  1   9  -1
M  END
> <s_m_source_file>
AV-unprocessed.smi

> <i_m_source_file_index>
470

> <i_lp_mmshare_version>
43012

> <i_f3d_flags>
0

> <s_epik_input>
W05IMl1DKD1PKVtDSDJdYzFbY0hdc2MobjEpW05IXUMoPU8pW0NAQEhdMltDSDJdW0NIXT1bQ0hdW0NIMl1bQ0gyXTI=

> <s_epik_cmdline>
J2VwaWtfcHl0aG9uJywgJy1waCcsICc3LjAnLCAnLXRuJywgJzgnLCAnLW1hJywgJzIwMCcsICctbWV0YWxfYmluZGluZycsICctaW1hZScsICc8aW5maWxlLm1hZT4nLCAnLW9tYWUnLCAnPG91dGZpbGUubWFlPic=

> <r_lp_tautomer_probability>
1

> <r_epik_Ionization_Penalty>
4.98985

> <r_epik_Ionization_Penalty_Charging>
4.63309

> <r_epik_Ionization_Penalty_Neutral>
0.356756

> <r_epik_State_Penalty>
4.63286

> <r_epik_Charging_Adjusted_Penalty>
9.26595

> <i_epik_Tot_Q>
-1

> <i_epik_Tot_abs_Q>
1

> <r_epik_Metal_State_Penalty>
0.88943

> <b_epik_Metal_Only>
1

> <s_lp_Force_Field>
OPLS_2005

> <r_lp_Energy>
8.68361

> <b_lp_Chiralities_Consistent>
1

> <s_lp_Variant>
AV-unprocessed.smi:470-4

> <Gold.Version>
5.8.1

> <Gold.Id.Protein>
6NUR|6NUR_protein|mol2

> <Gold.PLP.Fitness>
50.0162

> <Gold.PLP.PLP>
-42.1897

> <Gold.PLP.part.hbond>
-4.2236

> <Gold.PLP.part.metal>
0.0000

> <Gold.PLP.part.buried>
-5.1260

> <Gold.PLP.part.nonpolar>
-34.0470

> <Gold.PLP.part.repulsive>
0.3075

> <Gold.PLP.ligand.clash>
0.0000

> <Gold.PLP.ligand.torsion>
0.5883

> <Gold.PLP.Chemscore.Hbond>
2.9840

> <Gold.PLP.Chemscore.CHOScore>
0.0000

> <Gold.PLP.Chemscore.Metal>
0.0000

> <Gold.Chemscore.Hbonds>
donor molecule, donor type, donor heavy atom, donor atom, acceptor molecule, acceptor atom, score
      L1  H     1    20       P1  7948  0.65
      P1  H  7989  7998       L1    18  0.95
      P1  H 10752 10765       L1     3  0.34

> <Gold.PLP.Chemscore.Internal.Correction>
0.0512

> <Gold.Rescore>
     Score         DG    S(hbond)    S(metal)    S(lipo)     H(rot)  DE(clash)    DE(int)     intcor
     17.48     -19.12       2.22        0.00      94.11       1.87       0.07       1.57       ----

> <Gold.Chemscore.Fitness>
17.4823

> <Gold.Chemscore.DG>
-19.1242

> <Gold.Chemscore.ZeroCoef>
-5.4800

> <Gold.Chemscore.Hbond>
2.2207

> <Gold.Chemscore.Metal>
0.0000

> <Gold.Chemscore.Lipo>
94.1144

> <Gold.Chemscore.Internal_Hbond>
0.0000

> <Gold.Chemscore.DEClash>
0.0742

> <Gold.Chemscore.DEInternal>
1.5677

> <Gold.Chemscore.Rot>
1.8689

> <Gold.Chemscore.Internal.Correction>
   9.000000E+99

> <Gold.Chemscore.Hbonds>
donor molecule, donor type, donor heavy atom, donor atom, acceptor molecule, acceptor atom, score
      L1  H     1    20       P1  7948  0.22
      P1  H  7989  7998       L1    18  0.22
      P1  H 10752 10765       L1     3  0.01

> <Gold.Chemscore.Hbond.Weighted>
-7.4172

> <Gold.Chemscore.Metal.Weighted>
-0.0000

> <Gold.Chemscore.Lipo.Weighted>
-11.0114

> <Gold.Chemscore.Internal_Hbond.Weighted>
0.0000

> <Gold.Chemscore.DEClash.Weighted>
0.0742

> <Gold.Chemscore.DEInternal.Weighted>
1.5677

> <Gold.Chemscore.Rot.Weighted>
4.7844

> <Gold.Chemscore.Internal.Correction.Weighted>
   9.000000E+99

> <Gold.Protein.RotatedTorsions>
[ 6907 6896 6895 6894 ] final  -21.64 input  -60.11 | X-H torsion
[ 7974 7965 7964 7962 ] final  -48.79 input  175.53 | X-H torsion
[ 8008 7997 7996 7995 ] final  163.69 input   59.86 | X-H torsion
[ 10167 10162 10161 10158 ] final  125.19 input  -65.29 | X-H torsion
[ 10718 10713 10712 10709 ] final    5.19 input   66.30 | X-H torsion
[ 10763 10752 10751 10750 ] final -176.25 input  -60.55 | X-H torsion
[ 11005 11000 10999 10996 ] final -131.64 input  -57.11 | X-H torsion

> <Gold.Protein.ActiveResidues>
 VAL166  LYS551  ARG553  GLY616  TRP617  ASP618  TYR619  PRO620  LYS621  CYS622 
 ASP623  PHE694  ASN695  SER759  ASP760  ASP761  ALA762  ILE779  LEU786  VAL792 
 PHE793  MET794  SER795  GLU796  ALA797  LYS798  CYS799  TRP800  GLU811  SER814 

> <Gold.Protein.RotatedAtoms>
  151.2303  135.0552  159.8984 H   0  0  0  0  0  0  0  0  0  0  0  0  # atno 6907 bound_to 6896
  152.5405  134.0544  159.8134 H   0  0  0  0  0  0  0  0  0  0  0  0  # atno 6908 bound_to 6896
  151.0723  133.5408  159.2658 H   0  0  0  0  0  0  0  0  0  0  0  0  # atno 6909 bound_to 6896
  145.9474  140.7605  142.9522 H   0  0  0  0  0  0  0  0  0  0  0  0  # atno 7974 bound_to 7965
  156.1937  140.1716  156.8040 H   0  0  0  0  0  0  0  0  0  0  0  0  # atno 8008 bound_to 7997
  154.5503  140.0719  156.8688 H   0  0  0  0  0  0  0  0  0  0  0  0  # atno 8009 bound_to 7997
  155.3041  140.3363  155.4249 H   0  0  0  0  0  0  0  0  0  0  0  0  # atno 8010 bound_to 7997
  139.5699  144.6933  151.3806 H   0  0  0  0  0  0  0  0  0  0  0  0  # atno 10167 bound_to 10162
  156.9038  130.5731  149.5647 H   0  0  0  0  0  0  0  0  0  0  0  0  # atno 10718 bound_to 10713
  154.5746  135.2831  155.0793 H   0  0  0  0  0  0  0  0  0  0  0  0  # atno 10763 bound_to 10752
  154.2153  135.6401  153.5131 H   0  0  0  0  0  0  0  0  0  0  0  0  # atno 10764 bound_to 10752
  153.0068  135.5501  154.6381 H   0  0  0  0  0  0  0  0  0  0  0  0  # atno 10765 bound_to 10752
  140.9241  134.1406  157.4290 H   0  0  0  0  0  0  0  0  0  0  0  0  # atno 11005 bound_to 11000
  144.6789  140.2379  143.7347 LP  0  0  0  0  0  0  0  0  0  0  0  0  # atno 17320 bound_to 7965
  145.8218  139.2047  143.1934 LP  0  0  0  0  0  0  0  0  0  0  0  0  # atno 17321 bound_to 7965
  140.6984  143.7693  150.7363 LP  0  0  0  0  0  0  0  0  0  0  0  0  # atno 17342 bound_to 10162
  140.1196  143.4624  152.2321 LP  0  0  0  0  0  0  0  0  0  0  0  0  # atno 17343 bound_to 10162
  156.0569  130.5629  150.9111 LP  0  0  0  0  0  0  0  0  0  0  0  0  # atno 17370 bound_to 10713
  157.6010  131.0941  150.8960 LP  0  0  0  0  0  0  0  0  0  0  0  0  # atno 17371 bound_to 10713
  139.8781  134.9982  156.5887 LP  0  0  0  0  0  0  0  0  0  0  0  0  # atno 17394 bound_to 11000
  140.7949  133.8552  155.8677 LP  0  0  0  0  0  0  0  0  0  0  0  0  # atno 17395 bound_to 11000

$$$$
