AV-unprocessed.smi:1873|AV-procd|sdf|7608|dock5
  -GOLD-   22720 9323D 1   1.00000     0.00000
 Structure written by MMmdl.
 36 38  0  0  0  0  0  0  0  0  1 V2000
  149.6971  140.7573  153.5423 O   0  0  0  0  0  0  0  0  0  0  0  0
  149.2303  141.0363  154.8485 C   0  0  1  0  0  0  0  0  0  0  0  0
  150.0886  142.1483  155.4834 C   0  0  0  0  0  0  0  0  0  0  0  0
  150.9549  141.6502  156.5366 N   0  0  0  0  0  0  0  0  0  0  0  0
  151.6376  140.4892  156.5475 C   0  0  0  0  0  0  0  0  0  0  0  0
  152.3761  140.2266  157.6222 N   0  0  0  0  0  0  0  0  0  0  0  0
  152.1466  141.3490  158.3995 C   0  0  0  0  0  0  0  0  0  0  0  0
  152.6398  141.6964  159.6776 C   0  0  0  0  0  0  0  0  0  0  0  0
  152.2620  142.9133  160.2826 C   0  0  0  0  0  0  0  0  0  0  0  0
  151.3878  143.8001  159.6208 C   0  0  0  0  0  0  0  0  0  0  0  0
  150.8831  143.4758  158.3468 C   0  0  0  0  0  0  0  0  0  0  0  0
  151.2622  142.2604  157.7472 C   0  0  0  0  0  0  0  0  0  0  0  0
  147.7539  141.4002  154.8613 C   0  0  0  0  0  0  0  0  0  0  0  0
  147.2434  142.3239  153.9259 C   0  0  0  0  0  0  0  0  0  0  0  0
  145.8750  142.6565  153.9315 C   0  0  0  0  0  0  0  0  0  0  0  0
  144.9981  142.0776  154.8710 C   0  0  0  0  0  0  0  0  0  0  0  0
  143.6693  142.4334  154.8150 O   0  0  0  0  0  0  0  0  0  0  0  0
  143.3277  143.7494  154.8454 C   0  0  0  0  0  0  0  0  0  0  0  0
  141.9785  143.8725  154.8307 F   0  0  0  0  0  0  0  0  0  0  0  0
  143.7786  144.3301  155.9844 F   0  0  0  0  0  0  0  0  0  0  0  0
  145.5099  141.1399  155.7997 C   0  0  0  0  0  0  0  0  0  0  0  0
  146.8782  140.8077  155.7958 C   0  0  0  0  0  0  0  0  0  0  0  0
  149.0606  140.2105  153.1075 H   0  0  0  0  0  0  0  0  0  0  0  0
  149.3614  140.1208  155.4272 H   0  0  0  0  0  0  0  0  0  0  0  0
  150.7051  142.6368  154.7271 H   0  0  0  0  0  0  0  0  0  0  0  0
  149.4475  142.9211  155.9097 H   0  0  0  0  0  0  0  0  0  0  0  0
  151.5869  139.7957  155.7207 H   0  0  0  0  0  0  0  0  0  0  0  0
  153.3100  141.0252  160.1939 H   0  0  0  0  0  0  0  0  0  0  0  0
  152.6451  143.1680  161.2599 H   0  0  0  0  0  0  0  0  0  0  0  0
  151.1051  144.7300  160.0921 H   0  0  0  0  0  0  0  0  0  0  0  0
  150.2129  144.1518  157.8370 H   0  0  0  0  0  0  0  0  0  0  0  0
  147.8982  142.7805  153.1981 H   0  0  0  0  0  0  0  0  0  0  0  0
  145.4955  143.3643  153.2088 H   0  0  0  0  0  0  0  0  0  0  0  0
  143.7195  144.2885  153.9825 H   0  0  0  0  0  0  0  0  0  0  0  0
  144.8622  140.6605  156.5184 H   0  0  0  0  0  0  0  0  0  0  0  0
  147.2536  140.0900  156.5106 H   0  0  0  0  0  0  0  0  0  0  0  0
  1  2  1  0  0  0  0
  1 23  1  0  0  0  0
  2  3  1  0  0  0  0
  2 13  1  0  0  0  0
  2 24  1  0  0  0  0
  3  4  1  0  0  0  0
  3 25  1  0  0  0  0
  3 26  1  0  0  0  0
  4 12  1  0  0  0  0
  4  5  1  0  0  0  0
  5  6  2  0  0  0  0
  5 27  1  0  0  0  0
  6  7  1  0  0  0  0
  7 12  2  0  0  0  0
  7  8  1  0  0  0  0
  8  9  2  0  0  0  0
  8 28  1  0  0  0  0
  9 10  1  0  0  0  0
  9 29  1  0  0  0  0
 10 11  2  0  0  0  0
 10 30  1  0  0  0  0
 11 12  1  0  0  0  0
 11 31  1  0  0  0  0
 13 22  1  0  0  0  0
 13 14  2  0  0  0  0
 14 15  1  0  0  0  0
 14 32  1  0  0  0  0
 15 16  2  0  0  0  0
 15 33  1  0  0  0  0
 16 17  1  0  0  0  0
 16 21  1  0  0  0  0
 17 18  1  0  0  0  0
 18 19  1  0  0  0  0
 18 20  1  0  0  0  0
 18 34  1  0  0  0  0
 21 22  2  0  0  0  0
 21 35  1  0  0  0  0
 22 36  1  0  0  0  0
M  END
> <s_m_source_file>
AV-unprocessed.smi

> <i_m_source_file_index>
1873

> <i_lp_mmshare_version>
43012

> <i_f3d_flags>
0

> <s_epik_input>
RltDSF0oRilPYyhbY0hdW2NIXTEpW2NIXVtjSF1jMVtDQEhdKFtPSF0pW0NIMl1uKFtjSF1uMiljKGMyMylbY0hdW2NIXVtjSF1bY0hdMw==

> <s_epik_cmdline>
J2VwaWtfcHl0aG9uJywgJy1waCcsICc3LjAnLCAnLXRuJywgJzgnLCAnLW1hJywgJzIwMCcsICctbWV0YWxfYmluZGluZycsICctaW1hZScsICc8aW5maWxlLm1hZT4nLCAnLW9tYWUnLCAnPG91dGZpbGUubWFlPic=

> <r_lp_tautomer_probability>
1

> <r_epik_Ionization_Penalty>
0.0696507

> <r_epik_Ionization_Penalty_Charging>
0

> <r_epik_Ionization_Penalty_Neutral>
0.0696507

> <r_epik_State_Penalty>
0.0610247

> <r_epik_Charging_Adjusted_Penalty>
0.0610247

> <i_epik_Tot_Q>
0

> <i_epik_Tot_abs_Q>
0

> <r_epik_Metal_State_Penalty>
6.42746e-05

> <b_epik_Metal_Only>
0

> <s_lp_Force_Field>
OPLS_2005

> <r_lp_Energy>
11.6076

> <b_lp_Chiralities_Consistent>
1

> <s_lp_Variant>
AV-unprocessed.smi:1873-2

> <Gold.Version>
5.8.1

> <Gold.Id.Protein>
6NUR|6NUR_protein|mol2

> <Gold.PLP.Fitness>
46.3649

> <Gold.PLP.PLP>
-41.9053

> <Gold.PLP.part.hbond>
-3.8107

> <Gold.PLP.part.metal>
0.0000

> <Gold.PLP.part.buried>
-2.9003

> <Gold.PLP.part.nonpolar>
-33.7104

> <Gold.PLP.part.repulsive>
0.1790

> <Gold.PLP.ligand.clash>
0.0000

> <Gold.PLP.ligand.torsion>
1.4155

> <Gold.PLP.Chemscore.Hbond>
2.3981

> <Gold.PLP.Chemscore.CHOScore>
0.0000

> <Gold.PLP.Chemscore.Metal>
0.0000

> <Gold.Chemscore.Hbonds>
donor molecule, donor type, donor heavy atom, donor atom, acceptor molecule, acceptor atom, score
      L1  H     1    23       P1  7957  0.16
      P1  H  7989  7998       L1     1  0.38
      P1  H  7997  8008       L1     6  0.52
      P1  H  8011  8017       L1     1  0.94

> <Gold.PLP.Chemscore.Internal.Correction>
0.0963

> <Gold.Rescore>
     Score         DG    S(hbond)    S(metal)    S(lipo)     H(rot)  DE(clash)    DE(int)     intcor
     13.40     -17.40       1.68        0.00     106.35       2.40       2.79       1.20       ----

> <Gold.Chemscore.Fitness>
13.4027

> <Gold.Chemscore.DG>
-17.3998

> <Gold.Chemscore.ZeroCoef>
-5.4800

> <Gold.Chemscore.Hbond>
1.6818

> <Gold.Chemscore.Metal>
0.0000

> <Gold.Chemscore.Lipo>
106.3512

> <Gold.Chemscore.Internal_Hbond>
0.0000

> <Gold.Chemscore.DEClash>
2.7936

> <Gold.Chemscore.DEInternal>
1.2034

> <Gold.Chemscore.Rot>
2.3986

> <Gold.Chemscore.Internal.Correction>
   9.000000E+99

> <Gold.Chemscore.Hbonds>
donor molecule, donor type, donor heavy atom, donor atom, acceptor molecule, acceptor atom, score
      L1  H     1    23       P1  7957  0.16
      P1  H  7989  7998       L1     1  0.30
      P1  H  7997  8008       L1     6  0.17
      P1  H  8011  8017       L1     1  0.31

> <Gold.Chemscore.Hbond.Weighted>
-5.6172

> <Gold.Chemscore.Metal.Weighted>
-0.0000

> <Gold.Chemscore.Lipo.Weighted>
-12.4431

> <Gold.Chemscore.Internal_Hbond.Weighted>
0.0000

> <Gold.Chemscore.DEClash.Weighted>
2.7936

> <Gold.Chemscore.DEInternal.Weighted>
1.2034

> <Gold.Chemscore.Rot.Weighted>
6.1405

> <Gold.Chemscore.Internal.Correction.Weighted>
   9.000000E+99

> <Gold.Protein.RotatedTorsions>
[ 6907 6896 6895 6894 ] final -118.32 input  -60.11 | X-H torsion
[ 7974 7965 7964 7962 ] final  -90.12 input  175.53 | X-H torsion
[ 8008 7997 7996 7995 ] final  -70.82 input   59.86 | X-H torsion
[ 10167 10162 10161 10158 ] final   72.93 input  -65.29 | X-H torsion
[ 10718 10713 10712 10709 ] final  158.93 input   66.30 | X-H torsion
[ 10763 10752 10751 10750 ] final   55.45 input  -60.55 | X-H torsion
[ 11005 11000 10999 10996 ] final   61.22 input  -57.11 | X-H torsion

> <Gold.Protein.ActiveResidues>
 VAL166  LYS551  ARG553  GLY616  TRP617  ASP618  TYR619  PRO620  LYS621  CYS622 
 ASP623  PHE694  ASN695  SER759  ASP760  ASP761  ALA762  ILE779  LEU786  VAL792 
 PHE793  MET794  SER795  GLU796  ALA797  LYS798  CYS799  TRP800  GLU811  SER814 

> <Gold.Protein.RotatedAtoms>
  150.8210  133.8253  159.3138 H   0  0  0  0  0  0  0  0  0  0  0  0  # atno 6907 bound_to 6896
  151.6011  135.1045  160.0070 H   0  0  0  0  0  0  0  0  0  0  0  0  # atno 6908 bound_to 6896
  152.4299  133.7218  159.6594 H   0  0  0  0  0  0  0  0  0  0  0  0  # atno 6909 bound_to 6896
  145.4307  140.9555  143.2129 H   0  0  0  0  0  0  0  0  0  0  0  0  # atno 7974 bound_to 7965
  154.5040  140.0827  156.7857 H   0  0  0  0  0  0  0  0  0  0  0  0  # atno 8008 bound_to 7997
  155.3936  140.3433  155.4234 H   0  0  0  0  0  0  0  0  0  0  0  0  # atno 8009 bound_to 7997
  156.1493  140.1553  156.8784 H   0  0  0  0  0  0  0  0  0  0  0  0  # atno 8010 bound_to 7997
  140.0300  144.5473  150.7514 H   0  0  0  0  0  0  0  0  0  0  0  0  # atno 10167 bound_to 10162
  157.1711  131.0610  151.2182 H   0  0  0  0  0  0  0  0  0  0  0  0  # atno 10718 bound_to 10713
  152.9817  135.5710  154.5069 H   0  0  0  0  0  0  0  0  0  0  0  0  # atno 10763 bound_to 10752
  154.4579  135.2780  155.1736 H   0  0  0  0  0  0  0  0  0  0  0  0  # atno 10764 bound_to 10752
  154.3336  135.6244  153.5616 H   0  0  0  0  0  0  0  0  0  0  0  0  # atno 10765 bound_to 10752
  140.0177  134.6200  155.9686 H   0  0  0  0  0  0  0  0  0  0  0  0  # atno 11005 bound_to 11000
  144.8185  139.5834  143.6998 LP  0  0  0  0  0  0  0  0  0  0  0  0  # atno 17320 bound_to 7965
  146.2608  139.6407  142.9363 LP  0  0  0  0  0  0  0  0  0  0  0  0  # atno 17321 bound_to 7965
  140.7306  143.2685  151.3965 LP  0  0  0  0  0  0  0  0  0  0  0  0  # atno 17342 bound_to 10162
  139.6082  144.1152  152.2271 LP  0  0  0  0  0  0  0  0  0  0  0  0  # atno 17343 bound_to 10162
  157.4042  130.7350  149.6790 LP  0  0  0  0  0  0  0  0  0  0  0  0  # atno 17370 bound_to 10713
  155.9738  130.4112  150.3972 LP  0  0  0  0  0  0  0  0  0  0  0  0  # atno 17371 bound_to 10713
  141.1753  133.6540  156.4806 LP  0  0  0  0  0  0  0  0  0  0  0  0  # atno 17394 bound_to 11000
  140.4442  134.6987  157.5007 LP  0  0  0  0  0  0  0  0  0  0  0  0  # atno 17395 bound_to 11000

$$$$
