AV-unprocessed.smi:1841|AV-procd|sdf|7496|dock9
  -GOLD-   22720 9193D 1   1.00000     0.00000
 Structure written by MMmdl.
 40 41  0  0  0  0  0  0  0  0  1 V2000
  152.4581  142.4148  159.1978 C   0  0  0  0  0  0  0  0  0  0  0  0
  151.6299  142.6796  158.0792 O   0  0  0  0  0  0  0  0  0  0  0  0
  151.4111  141.5288  157.2803 C   0  0  0  0  0  0  0  0  0  0  0  0
  150.5451  141.9107  156.0763 C   0  0  0  0  0  0  0  0  0  0  0  0
  150.5522  140.8313  155.1470 O   0  0  0  0  0  0  0  0  0  0  0  0
  149.3445  140.3529  154.6823 C   0  0  0  0  0  0  0  0  0  0  0  0
  148.2412  141.2279  154.6506 C   0  0  0  0  0  0  0  0  0  0  0  0
  147.0051  140.7515  154.1731 C   0  0  0  0  0  0  0  0  0  0  0  0
  146.9090  139.4052  153.7437 C   0  0  0  0  0  0  0  0  0  0  0  0
  145.7324  138.7911  153.2299 N   0  0  0  0  0  0  0  0  0  0  0  0
  145.2424  137.5551  153.4412 C   0  0  0  0  0  0  0  0  0  0  0  0
  145.7774  136.6941  154.1387 O   0  0  0  0  0  0  0  0  0  0  0  0
  143.9177  137.2350  152.7292 C   0  0  2  0  0  0  0  0  0  0  0  0
  142.7984  136.9130  153.7406 C   0  0  0  0  0  0  0  0  0  0  0  0
  142.5057  135.4399  153.5104 C   0  0  0  0  0  0  0  0  0  0  0  0
  141.7204  134.7981  154.2065 O   0  0  0  0  0  0  0  0  0  0  0  0
  143.2123  134.9673  152.4803 N   0  0  0  0  0  0  0  0  0  0  0  0
  143.1893  133.5959  151.9907 C   0  0  0  0  0  0  0  0  0  0  0  0
  144.0179  135.9847  151.8270 C   0  0  0  0  0  0  0  0  0  0  0  0
  148.0740  138.6130  153.8169 C   0  0  0  0  0  0  0  0  0  0  0  0
  149.2618  139.0637  154.2720 N   0  0  0  0  0  0  0  0  0  0  0  0
  152.5909  143.3268  159.7796 H   0  0  0  0  0  0  0  0  0  0  0  0
  153.4438  142.0680  158.8852 H   0  0  0  0  0  0  0  0  0  0  0  0
  152.0122  141.6623  159.8495 H   0  0  0  0  0  0  0  0  0  0  0  0
  152.3718  141.1469  156.9312 H   0  0  0  0  0  0  0  0  0  0  0  0
  150.9327  140.7360  157.8576 H   0  0  0  0  0  0  0  0  0  0  0  0
  149.5311  142.1487  156.4021 H   0  0  0  0  0  0  0  0  0  0  0  0
  150.9635  142.8000  155.6021 H   0  0  0  0  0  0  0  0  0  0  0  0
  148.3423  142.2507  154.9828 H   0  0  0  0  0  0  0  0  0  0  0  0
  146.1718  141.4345  154.1452 H   0  0  0  0  0  0  0  0  0  0  0  0
  145.1879  139.3719  152.6087 H   0  0  0  0  0  0  0  0  0  0  0  0
  143.6234  138.0930  152.1218 H   0  0  0  0  0  0  0  0  0  0  0  0
  143.0823  137.0868  154.7800 H   0  0  0  0  0  0  0  0  0  0  0  0
  141.9015  137.4978  153.5348 H   0  0  0  0  0  0  0  0  0  0  0  0
  142.1725  133.2969  151.7334 H   0  0  0  0  0  0  0  0  0  0  0  0
  143.5665  132.9127  152.7525 H   0  0  0  0  0  0  0  0  0  0  0  0
  143.8091  133.4862  151.1006 H   0  0  0  0  0  0  0  0  0  0  0  0
  143.6077  136.1878  150.8369 H   0  0  0  0  0  0  0  0  0  0  0  0
  145.0426  135.6335  151.6919 H   0  0  0  0  0  0  0  0  0  0  0  0
  148.0551  137.5808  153.4986 H   0  0  0  0  0  0  0  0  0  0  0  0
  1  2  1  0  0  0  0
  1 22  1  0  0  0  0
  1 23  1  0  0  0  0
  1 24  1  0  0  0  0
  2  3  1  0  0  0  0
  3  4  1  0  0  0  0
  3 25  1  0  0  0  0
  3 26  1  0  0  0  0
  4  5  1  0  0  0  0
  4 27  1  0  0  0  0
  4 28  1  0  0  0  0
  5  6  1  0  0  0  0
  6 21  1  0  0  0  0
  6  7  2  0  0  0  0
  7  8  1  0  0  0  0
  7 29  1  0  0  0  0
  8  9  2  0  0  0  0
  8 30  1  0  0  0  0
  9 10  1  0  0  0  0
  9 20  1  0  0  0  0
 10 11  1  0  0  0  0
 10 31  1  0  0  0  0
 11 12  2  0  0  0  0
 11 13  1  0  0  0  0
 13 19  1  0  0  0  0
 13 14  1  0  0  0  0
 13 32  1  0  0  0  0
 14 15  1  0  0  0  0
 14 33  1  0  0  0  0
 14 34  1  0  0  0  0
 15 16  2  0  0  0  0
 15 17  1  0  0  0  0
 17 18  1  0  0  0  0
 17 19  1  0  0  0  0
 18 35  1  0  0  0  0
 18 36  1  0  0  0  0
 18 37  1  0  0  0  0
 19 38  1  0  0  0  0
 19 39  1  0  0  0  0
 20 21  2  0  0  0  0
 20 40  1  0  0  0  0
M  END
> <s_m_source_file>
AV-unprocessed.smi

> <i_m_source_file_index>
1841

> <i_lp_mmshare_version>
43012

> <i_f3d_flags>
0

> <s_epik_input>
W0NIM11PW0NIMl1bQ0gyXU9jMVtjSF1bY0hdYyhbY0hdbjEpW05IXUMoPU8pW0NAQEhdMltDSDJdQyg9TylOKFtDSDNdKVtDSDJdMg==

> <s_epik_cmdline>
J2VwaWtfcHl0aG9uJywgJy1waCcsICc3LjAnLCAnLXRuJywgJzgnLCAnLW1hJywgJzIwMCcsICctbWV0YWxfYmluZGluZycsICctaW1hZScsICc8aW5maWxlLm1hZT4nLCAnLW9tYWUnLCAnPG91dGZpbGUubWFlPic=

> <r_lp_tautomer_probability>
1

> <r_epik_Ionization_Penalty>
1.70347e-05

> <r_epik_Ionization_Penalty_Charging>
0

> <r_epik_Ionization_Penalty_Neutral>
1.70347e-05

> <r_epik_State_Penalty>
-0

> <r_epik_Charging_Adjusted_Penalty>
0

> <i_epik_Tot_Q>
0

> <i_epik_Tot_abs_Q>
0

> <r_epik_Metal_State_Penalty>
-0

> <b_epik_Metal_Only>
0

> <s_lp_Force_Field>
OPLS_2005

> <r_lp_Energy>
17.4372

> <b_lp_Chiralities_Consistent>
1

> <s_lp_Variant>
AV-unprocessed.smi:1841-1

> <Gold.Version>
5.8.1

> <Gold.Id.Protein>
6NUR|6NUR_protein|mol2

> <Gold.PLP.Fitness>
41.7470

> <Gold.PLP.PLP>
-32.8303

> <Gold.PLP.part.hbond>
-3.0000

> <Gold.PLP.part.metal>
0.0000

> <Gold.PLP.part.buried>
-5.1528

> <Gold.PLP.part.nonpolar>
-26.2357

> <Gold.PLP.part.repulsive>
0.5130

> <Gold.PLP.ligand.clash>
0.0000

> <Gold.PLP.ligand.torsion>
1.0859

> <Gold.PLP.Chemscore.Hbond>
2.6880

> <Gold.PLP.Chemscore.CHOScore>
1.0000

> <Gold.PLP.Chemscore.Metal>
0.0000

> <Gold.Chemscore.Hbonds>
donor molecule, donor type, donor heavy atom, donor atom, acceptor molecule, acceptor atom, score
      L1  H    10    31       P1 10175  0.91
      P1  H  7989  7998       L1     5  0.82
      P1  H 11000 11005       L1    16  0.87
      L1  C    20    40       P1  7948  1.00

> <Gold.PLP.Chemscore.Internal.Correction>
0.0245

> <Gold.Rescore>
     Score         DG    S(hbond)    S(metal)    S(lipo)     H(rot)  DE(clash)    DE(int)     intcor
     13.47     -15.58       2.23        0.00      65.40       1.95       0.05       2.07       ----

> <Gold.Chemscore.Fitness>
13.4656

> <Gold.Chemscore.DG>
-15.5848

> <Gold.Chemscore.ZeroCoef>
-5.4800

> <Gold.Chemscore.Hbond>
2.2266

> <Gold.Chemscore.Metal>
0.0000

> <Gold.Chemscore.Lipo>
65.3987

> <Gold.Chemscore.Internal_Hbond>
0.0000

> <Gold.Chemscore.DEClash>
0.0459

> <Gold.Chemscore.DEInternal>
2.0733

> <Gold.Chemscore.Rot>
1.9468

> <Gold.Chemscore.Internal.Correction>
   9.000000E+99

> <Gold.Chemscore.Hbonds>
donor molecule, donor type, donor heavy atom, donor atom, acceptor molecule, acceptor atom, score
      L1  H    10    31       P1 10175  0.88
      P1  H  7989  7998       L1     5  0.27
      P1  H 11000 11005       L1    16  0.81

> <Gold.Chemscore.Hbond.Weighted>
-7.4370

> <Gold.Chemscore.Metal.Weighted>
-0.0000

> <Gold.Chemscore.Lipo.Weighted>
-7.6517

> <Gold.Chemscore.Internal_Hbond.Weighted>
0.0000

> <Gold.Chemscore.DEClash.Weighted>
0.0459

> <Gold.Chemscore.DEInternal.Weighted>
2.0733

> <Gold.Chemscore.Rot.Weighted>
4.9839

> <Gold.Chemscore.Internal.Correction.Weighted>
   9.000000E+99

> <Gold.Protein.RotatedTorsions>
[ 6907 6896 6895 6894 ] final  -85.26 input  -60.11 | X-H torsion
[ 7974 7965 7964 7962 ] final  -69.74 input  175.53 | X-H torsion
[ 8008 7997 7996 7995 ] final   50.40 input   59.86 | X-H torsion
[ 10167 10162 10161 10158 ] final  -28.47 input  -65.29 | X-H torsion
[ 10718 10713 10712 10709 ] final   48.01 input   66.30 | X-H torsion
[ 10763 10752 10751 10750 ] final   15.90 input  -60.55 | X-H torsion
[ 11005 11000 10999 10996 ] final    3.58 input  -57.11 | X-H torsion

> <Gold.Protein.ActiveResidues>
 VAL166  LYS551  ARG553  GLY616  TRP617  ASP618  TYR619  PRO620  LYS621  CYS622 
 ASP623  PHE694  ASN695  SER759  ASP760  ASP761  ALA762  ILE779  LEU786  VAL792 
 PHE793  MET794  SER795  GLU796  ALA797  LYS798  CYS799  TRP800  GLU811  SER814 

> <Gold.Protein.RotatedAtoms>
  150.6871  134.3232  159.4795 H   0  0  0  0  0  0  0  0  0  0  0  0  # atno 6907 bound_to 6896
  152.1105  134.9275  160.0576 H   0  0  0  0  0  0  0  0  0  0  0  0  # atno 6908 bound_to 6896
  152.0519  133.3988  159.4417 H   0  0  0  0  0  0  0  0  0  0  0  0  # atno 6909 bound_to 6896
  145.6999  140.9120  143.0736 H   0  0  0  0  0  0  0  0  0  0  0  0  # atno 7974 bound_to 7965
  155.4181  140.3445  155.4269 H   0  0  0  0  0  0  0  0  0  0  0  0  # atno 8008 bound_to 7997
  156.1409  140.1542  156.8953 H   0  0  0  0  0  0  0  0  0  0  0  0  # atno 8009 bound_to 7997
  154.4970  140.0825  156.7699 H   0  0  0  0  0  0  0  0  0  0  0  0  # atno 8010 bound_to 7997
  140.7269  143.4007  151.1270 H   0  0  0  0  0  0  0  0  0  0  0  0  # atno 10167 bound_to 10162
  157.4643  130.8215  149.7919 H   0  0  0  0  0  0  0  0  0  0  0  0  # atno 10718 bound_to 10713
  153.1481  135.6773  153.8924 H   0  0  0  0  0  0  0  0  0  0  0  0  # atno 10763 bound_to 10752
  153.8359  135.3111  155.3423 H   0  0  0  0  0  0  0  0  0  0  0  0  # atno 10764 bound_to 10752
  154.7841  135.4872  153.9993 H   0  0  0  0  0  0  0  0  0  0  0  0  # atno 10765 bound_to 10752
  140.5915  133.9920  155.8091 H   0  0  0  0  0  0  0  0  0  0  0  0  # atno 11005 bound_to 11000
  144.6971  139.8934  143.7454 LP  0  0  0  0  0  0  0  0  0  0  0  0  # atno 17320 bound_to 7965
  146.0807  139.3794  143.0466 LP  0  0  0  0  0  0  0  0  0  0  0  0  # atno 17321 bound_to 7965
  139.7626  143.8612  152.3103 LP  0  0  0  0  0  0  0  0  0  0  0  0  # atno 17342 bound_to 10162
  139.8503  144.7167  150.9222 LP  0  0  0  0  0  0  0  0  0  0  0  0  # atno 17343 bound_to 10162
  156.0043  130.3864  150.2489 LP  0  0  0  0  0  0  0  0  0  0  0  0  # atno 17370 bound_to 10713
  157.0668  131.0105  151.3204 LP  0  0  0  0  0  0  0  0  0  0  0  0  # atno 17371 bound_to 10713
  141.0932  133.9885  157.3204 LP  0  0  0  0  0  0  0  0  0  0  0  0  # atno 17394 bound_to 11000
  139.9272  135.0201  156.8275 LP  0  0  0  0  0  0  0  0  0  0  0  0  # atno 17395 bound_to 11000

$$$$
