AV-unprocessed.smi:1464|AV-procd|sdf|5947|dock6
  -GOLD-   22720 6 33D 1   1.00000     0.00000
 Structure written by MMmdl.
 41 42  0  0  0  0  0  0  0  0  1 V2000
  152.1055  144.7772  160.1534 C   0  0  0  0  0  0  0  0  0  0  0  0
  152.8417  143.9778  159.0585 C   0  0  2  0  0  0  0  0  0  0  0  0
  152.3685  144.3791  157.6467 C   0  0  0  0  0  0  0  0  0  0  0  0
  150.9608  143.8487  157.3339 C   0  0  0  0  0  0  0  0  0  0  0  0
  150.8909  142.3261  157.5127 C   0  0  0  0  0  0  0  0  0  0  0  0
  151.3526  141.8871  158.9158 C   0  0  1  0  0  0  0  0  0  0  0  0
  151.3361  140.4260  158.9729 N   0  0  0  0  0  0  0  0  0  0  0  0
  151.9204  139.5939  158.0967 C   0  0  0  0  0  0  0  0  0  0  0  0
  152.5378  139.9783  157.1024 O   0  0  0  0  0  0  0  0  0  0  0  0
  151.7507  138.0953  158.3853 C   0  0  0  0  0  0  0  0  0  0  0  0
  150.8664  137.4123  157.4301 N   0  0  0  0  0  0  0  0  0  0  0  0
  151.1117  137.7308  156.1030 N   0  0  0  0  0  0  0  0  0  0  0  0
  150.4062  137.1880  155.1692 C   0  0  0  0  0  0  0  0  0  0  0  0
  150.6848  137.5292  153.8687 O   0  0  0  0  0  0  0  0  0  0  0  0
  149.3519  136.2476  155.4778 C   0  0  0  0  0  0  0  0  0  0  0  0
  149.1180  135.9462  156.7738 C   0  0  0  0  0  0  0  0  0  0  0  0
  149.8997  136.5432  157.8581 C   0  0  0  0  0  0  0  0  0  0  0  0
  149.7075  136.2889  159.0470 O   0  0  0  0  0  0  0  0  0  0  0  0
  152.7675  142.4376  159.2387 C   0  0  2  0  0  0  0  0  0  0  0  0
  153.2965  141.9838  160.6139 C   0  0  0  0  0  0  0  0  0  0  0  0
  150.3136  136.8373  153.3431 H   0  0  0  0  0  0  0  0  0  0  0  0
  151.0476  144.5228  160.2093 H   0  0  0  0  0  0  0  0  0  0  0  0
  152.1741  145.8485  159.9642 H   0  0  0  0  0  0  0  0  0  0  0  0
  152.5393  144.6021  161.1376 H   0  0  0  0  0  0  0  0  0  0  0  0
  153.8923  144.2630  159.1293 H   0  0  0  0  0  0  0  0  0  0  0  0
  152.3922  145.4635  157.5331 H   0  0  0  0  0  0  0  0  0  0  0  0
  153.0681  143.9845  156.9087 H   0  0  0  0  0  0  0  0  0  0  0  0
  150.2267  144.3298  157.9806 H   0  0  0  0  0  0  0  0  0  0  0  0
  150.6862  144.1126  156.3124 H   0  0  0  0  0  0  0  0  0  0  0  0
  149.8711  141.9839  157.3318 H   0  0  0  0  0  0  0  0  0  0  0  0
  151.5137  141.8492  156.7543 H   0  0  0  0  0  0  0  0  0  0  0  0
  150.6461  142.2935  159.6411 H   0  0  0  0  0  0  0  0  0  0  0  0
  150.8440  140.0132  159.7520 H   0  0  0  0  0  0  0  0  0  0  0  0
  152.7295  137.6118  158.3952 H   0  0  0  0  0  0  0  0  0  0  0  0
  151.3629  137.9907  159.4003 H   0  0  0  0  0  0  0  0  0  0  0  0
  148.7705  135.8023  154.6839 H   0  0  0  0  0  0  0  0  0  0  0  0
  148.3336  135.2454  157.0187 H   0  0  0  0  0  0  0  0  0  0  0  0
  153.4488  142.0119  158.4998 H   0  0  0  0  0  0  0  0  0  0  0  0
  152.6053  142.2453  161.4154 H   0  0  0  0  0  0  0  0  0  0  0  0
  154.2592  142.4440  160.8369 H   0  0  0  0  0  0  0  0  0  0  0  0
  153.4424  140.9041  160.6490 H   0  0  0  0  0  0  0  0  0  0  0  0
  1  2  1  0  0  0  0
  1 22  1  0  0  0  0
  1 23  1  0  0  0  0
  1 24  1  0  0  0  0
  2 19  1  0  0  0  0
  2  3  1  0  0  0  0
  2 25  1  0  0  0  0
  3  4  1  0  0  0  0
  3 26  1  0  0  0  0
  3 27  1  0  0  0  0
  4  5  1  0  0  0  0
  4 28  1  0  0  0  0
  4 29  1  0  0  0  0
  5  6  1  0  0  0  0
  5 30  1  0  0  0  0
  5 31  1  0  0  0  0
  6  7  1  0  0  0  0
  6 19  1  0  0  0  0
  6 32  1  0  0  0  0
  7  8  1  0  0  0  0
  7 33  1  0  0  0  0
  8  9  2  0  0  0  0
  8 10  1  0  0  0  0
 10 34  1  0  0  0  0
 10 35  1  0  0  0  0
 10 11  1  0  0  0  0
 11 12  1  0  0  0  0
 11 17  1  0  0  0  0
 12 13  2  0  0  0  0
 13 14  1  0  0  0  0
 13 15  1  0  0  0  0
 14 21  1  0  0  0  0
 15 36  1  0  0  0  0
 15 16  2  0  0  0  0
 16 37  1  0  0  0  0
 16 17  1  0  0  0  0
 17 18  2  0  0  0  0
 19 20  1  0  0  0  0
 19 38  1  0  0  0  0
 20 39  1  0  0  0  0
 20 40  1  0  0  0  0
 20 41  1  0  0  0  0
M  END
> <s_m_source_file>
AV-unprocessed.smi

> <i_m_source_file_index>
1464

> <i_lp_mmshare_version>
43012

> <i_f3d_flags>
0

> <s_epik_input>
W0NIM11bQ0BASF0xW0NIMl1bQ0gyXVtDSDJdW0NASF0oW0NASF0xW0NIM10pW05IXUMoPU8pW0NIMl1uMltuSF1jKD1PKVtjSF1bY0hdYzI9Tw==

> <s_epik_cmdline>
J2VwaWtfcHl0aG9uJywgJy1waCcsICc3LjAnLCAnLXRuJywgJzgnLCAnLW1hJywgJzIwMCcsICctbWV0YWxfYmluZGluZycsICctaW1hZScsICc8aW5maWxlLm1hZT4nLCAnLW9tYWUnLCAnPG91dGZpbGUubWFlPic=

> <r_lp_tautomer_probability>
0.9996

> <r_epik_Ionization_Penalty>
2.10335

> <r_epik_Ionization_Penalty_Charging>
3.98079e-08

> <r_epik_Ionization_Penalty_Neutral>
2.10335

> <r_epik_State_Penalty>
1.67957

> <r_epik_Charging_Adjusted_Penalty>
1.67957

> <i_epik_Tot_Q>
0

> <i_epik_Tot_abs_Q>
0

> <r_epik_Metal_State_Penalty>
1.67957

> <b_epik_Metal_Only>
0

> <s_lp_Force_Field>
OPLS_2005

> <r_lp_Energy>
25.8074

> <b_lp_Chiralities_Consistent>
1

> <s_lp_Variant>
AV-unprocessed.smi:1464-13

> <Gold.Version>
5.8.1

> <Gold.Id.Protein>
6NUR|6NUR_protein|mol2

> <Gold.PLP.Fitness>
46.5991

> <Gold.PLP.PLP>
-38.3210

> <Gold.PLP.part.hbond>
-3.8716

> <Gold.PLP.part.metal>
0.0000

> <Gold.PLP.part.buried>
-2.2532

> <Gold.PLP.part.nonpolar>
-32.1362

> <Gold.PLP.part.repulsive>
0.1874

> <Gold.PLP.ligand.clash>
0.0000

> <Gold.PLP.ligand.torsion>
0.3524

> <Gold.PLP.Chemscore.Hbond>
2.9913

> <Gold.PLP.Chemscore.CHOScore>
0.0000

> <Gold.PLP.Chemscore.Metal>
0.0000

> <Gold.Chemscore.Hbonds>
donor molecule, donor type, donor heavy atom, donor atom, acceptor molecule, acceptor atom, score
      L1  H    14    21       P1  7948  0.48
      P1  H  6896  6909       L1    18  1.00
      P1  H  7997  8010       L1     9  1.00

> <Gold.PLP.Chemscore.Internal.Correction>
0.0092

> <Gold.Rescore>
     Score         DG    S(hbond)    S(metal)    S(lipo)     H(rot)  DE(clash)    DE(int)     intcor
     17.59     -20.76       2.81        0.00      98.99       2.22       0.31       2.86       ----

> <Gold.Chemscore.Fitness>
17.5862

> <Gold.Chemscore.DG>
-20.7608

> <Gold.Chemscore.ZeroCoef>
-5.4800

> <Gold.Chemscore.Hbond>
2.8107

> <Gold.Chemscore.Metal>
0.0000

> <Gold.Chemscore.Lipo>
98.9946

> <Gold.Chemscore.Internal_Hbond>
0.0000

> <Gold.Chemscore.DEClash>
0.3122

> <Gold.Chemscore.DEInternal>
2.8624

> <Gold.Chemscore.Rot>
2.2224

> <Gold.Chemscore.Internal.Correction>
   9.000000E+99

> <Gold.Chemscore.Hbonds>
donor molecule, donor type, donor heavy atom, donor atom, acceptor molecule, acceptor atom, score
      L1  H    14    21       P1  7948  0.02
      P1  H  6896  6909       L1    18  0.82
      P1  H  7997  8010       L1     9  0.96

> <Gold.Chemscore.Hbond.Weighted>
-9.3877

> <Gold.Chemscore.Metal.Weighted>
-0.0000

> <Gold.Chemscore.Lipo.Weighted>
-11.5824

> <Gold.Chemscore.Internal_Hbond.Weighted>
0.0000

> <Gold.Chemscore.DEClash.Weighted>
0.3122

> <Gold.Chemscore.DEInternal.Weighted>
2.8624

> <Gold.Chemscore.Rot.Weighted>
5.6893

> <Gold.Chemscore.Internal.Correction.Weighted>
   9.000000E+99

> <Gold.Protein.RotatedTorsions>
[ 6907 6896 6895 6894 ] final   65.10 input  -60.11 | X-H torsion
[ 7974 7965 7964 7962 ] final    3.15 input  175.53 | X-H torsion
[ 8008 7997 7996 7995 ] final   49.24 input   59.86 | X-H torsion
[ 10167 10162 10161 10158 ] final  132.16 input  -65.29 | X-H torsion
[ 10718 10713 10712 10709 ] final   65.69 input   66.30 | X-H torsion
[ 10763 10752 10751 10750 ] final    3.51 input  -60.55 | X-H torsion
[ 11005 11000 10999 10996 ] final   92.10 input  -57.11 | X-H torsion

> <Gold.Protein.ActiveResidues>
 VAL166  LYS551  ARG553  GLY616  TRP617  ASP618  TYR619  PRO620  LYS621  CYS622 
 ASP623  PHE694  ASN695  SER759  ASP760  ASP761  ALA762  ILE779  LEU786  VAL792 
 PHE793  MET794  SER795  GLU796  ALA797  LYS798  CYS799  TRP800  GLU811  SER814 

> <Gold.Protein.RotatedAtoms>
  152.4382  134.5645  159.9903 H   0  0  0  0  0  0  0  0  0  0  0  0  # atno 6907 bound_to 6896
  151.5749  133.3379  159.3005 H   0  0  0  0  0  0  0  0  0  0  0  0  # atno 6908 bound_to 6896
  150.8283  134.7559  159.6896 H   0  0  0  0  0  0  0  0  0  0  0  0  # atno 6909 bound_to 6896
  146.2445  140.0728  142.8361 H   0  0  0  0  0  0  0  0  0  0  0  0  # atno 7974 bound_to 7965
  155.3989  140.3437  155.4256 H   0  0  0  0  0  0  0  0  0  0  0  0  # atno 8008 bound_to 7997
  156.1515  140.1572  156.8794 H   0  0  0  0  0  0  0  0  0  0  0  0  # atno 8009 bound_to 7997
  154.5056  140.0803  156.7869 H   0  0  0  0  0  0  0  0  0  0  0  0  # atno 8010 bound_to 7997
  139.5352  144.6674  151.4812 H   0  0  0  0  0  0  0  0  0  0  0  0  # atno 10167 bound_to 10162
  157.6121  130.9227  150.0010 H   0  0  0  0  0  0  0  0  0  0  0  0  # atno 10718 bound_to 10713
  153.2824  135.6941  153.7372 H   0  0  0  0  0  0  0  0  0  0  0  0  # atno 10763 bound_to 10752
  153.6355  135.3402  155.3056 H   0  0  0  0  0  0  0  0  0  0  0  0  # atno 10764 bound_to 10752
  154.8499  135.4419  154.1881 H   0  0  0  0  0  0  0  0  0  0  0  0  # atno 10765 bound_to 10752
  139.8828  134.8713  156.3523 H   0  0  0  0  0  0  0  0  0  0  0  0  # atno 11005 bound_to 11000
  145.0801  140.9215  143.4830 LP  0  0  0  0  0  0  0  0  0  0  0  0  # atno 17320 bound_to 7965
  145.0879  139.2911  143.5750 LP  0  0  0  0  0  0  0  0  0  0  0  0  # atno 17321 bound_to 7965
  140.6554  143.8611  150.6829 LP  0  0  0  0  0  0  0  0  0  0  0  0  # atno 17342 bound_to 10162
  140.1989  143.3976  152.1807 LP  0  0  0  0  0  0  0  0  0  0  0  0  # atno 17343 bound_to 10162
  156.1229  130.3645  149.9858 LP  0  0  0  0  0  0  0  0  0  0  0  0  # atno 17370 bound_to 10713
  156.7935  130.9264  151.3646 LP  0  0  0  0  0  0  0  0  0  0  0  0  # atno 17371 bound_to 10713
  140.9586  133.7404  156.0369 LP  0  0  0  0  0  0  0  0  0  0  0  0  # atno 17394 bound_to 11000
  140.8018  134.3500  157.5437 LP  0  0  0  0  0  0  0  0  0  0  0  0  # atno 17395 bound_to 11000

$$$$
