AV-unprocessed.smi:3292|AV-procd|sdf|12627|dock8
  -GOLD-   2272018563D 1   1.00000     0.00000
 Structure written by MMmdl.
 38 39  0  0  0  0  0  0  0  0  1 V2000
  144.8060  134.8163  152.9997 C   0  0  0  0  0  0  0  0  0  0  0  0
  145.3232  135.6116  151.7937 C   0  0  2  0  0  0  0  0  0  0  0  0
  145.8921  134.6740  150.7060 C   0  0  0  0  0  0  0  0  0  0  0  0
  145.1899  133.4050  150.6340 N   0  0  0  0  0  0  0  0  0  0  0  0
  143.8648  133.1990  150.2733 C   0  0  0  0  0  0  0  0  0  0  0  0
  143.6496  131.8404  150.3282 C   0  0  0  0  0  0  0  0  0  0  0  0
  144.8185  131.1954  150.7267 N   0  0  0  0  0  0  0  0  0  0  0  0
  145.6841  132.1864  150.8943 C   0  0  0  0  0  0  0  0  0  0  0  0
  146.3418  136.5577  152.2482 N   0  0  0  0  0  0  0  0  0  0  0  0
  146.1021  137.6970  152.9137 C   0  0  0  0  0  0  0  0  0  0  0  0
  144.9885  138.0532  153.2994 O   0  0  0  0  0  0  0  0  0  0  0  0
  147.2149  138.4269  153.0638 N   0  0  0  0  0  0  0  0  0  0  0  0
  147.2534  139.7809  153.6054 C   0  0  0  0  0  0  0  0  0  0  0  0
  148.6993  140.2851  153.7910 C   0  0  1  0  0  0  0  0  0  0  0  0
  148.8096  141.5716  154.6026 C   0  0  0  0  0  0  0  0  0  0  0  0
  150.0161  141.3430  155.5192 C   0  0  0  0  0  0  0  0  0  0  0  0
  150.6455  140.1720  155.0213 O   0  0  0  0  0  0  0  0  0  0  0  0
  149.6178  139.3220  154.5436 C   0  0  0  0  0  0  0  0  0  0  0  0
  144.0228  134.1187  152.7018 H   0  0  0  0  0  0  0  0  0  0  0  0
  144.3845  135.4792  153.7561 H   0  0  0  0  0  0  0  0  0  0  0  0
  145.6042  134.2393  153.4683 H   0  0  0  0  0  0  0  0  0  0  0  0
  144.4733  136.1560  151.3776 H   0  0  0  0  0  0  0  0  0  0  0  0
  145.8531  135.1544  149.7271 H   0  0  0  0  0  0  0  0  0  0  0  0
  146.9429  134.4616  150.9068 H   0  0  0  0  0  0  0  0  0  0  0  0
  143.2071  134.0124  150.0047 H   0  0  0  0  0  0  0  0  0  0  0  0
  142.7508  131.2819  150.1130 H   0  0  0  0  0  0  0  0  0  0  0  0
  146.7063  132.0206  151.2012 H   0  0  0  0  0  0  0  0  0  0  0  0
  147.2948  136.3585  151.9810 H   0  0  0  0  0  0  0  0  0  0  0  0
  148.0850  138.0483  152.7193 H   0  0  0  0  0  0  0  0  0  0  0  0
  146.6958  140.4570  152.9551 H   0  0  0  0  0  0  0  0  0  0  0  0
  146.7333  139.7746  154.5637 H   0  0  0  0  0  0  0  0  0  0  0  0
  149.1461  140.4727  152.8131 H   0  0  0  0  0  0  0  0  0  0  0  0
  148.9646  142.4274  153.9448 H   0  0  0  0  0  0  0  0  0  0  0  0
  147.9149  141.7668  155.1951 H   0  0  0  0  0  0  0  0  0  0  0  0
  150.7042  142.1885  155.5264 H   0  0  0  0  0  0  0  0  0  0  0  0
  149.6886  141.1631  156.5443 H   0  0  0  0  0  0  0  0  0  0  0  0
  149.1045  138.8575  155.3876 H   0  0  0  0  0  0  0  0  0  0  0  0
  150.0158  138.5332  153.9050 H   0  0  0  0  0  0  0  0  0  0  0  0
  1  2  1  0  0  0  0
  1 19  1  0  0  0  0
  1 20  1  0  0  0  0
  1 21  1  0  0  0  0
  2  3  1  0  0  0  0
  2  9  1  0  0  0  0
  2 22  1  0  0  0  0
  3  4  1  0  0  0  0
  3 23  1  0  0  0  0
  3 24  1  0  0  0  0
  4  8  1  0  0  0  0
  4  5  1  0  0  0  0
  5  6  2  0  0  0  0
  5 25  1  0  0  0  0
  6  7  1  0  0  0  0
  6 26  1  0  0  0  0
  7  8  2  0  0  0  0
  8 27  1  0  0  0  0
  9 10  1  0  0  0  0
  9 28  1  0  0  0  0
 10 11  2  0  0  0  0
 10 12  1  0  0  0  0
 12 13  1  0  0  0  0
 12 29  1  0  0  0  0
 13 14  1  0  0  0  0
 13 30  1  0  0  0  0
 13 31  1  0  0  0  0
 14 18  1  0  0  0  0
 14 15  1  0  0  0  0
 14 32  1  0  0  0  0
 15 16  1  0  0  0  0
 15 33  1  0  0  0  0
 15 34  1  0  0  0  0
 16 17  1  0  0  0  0
 16 35  1  0  0  0  0
 16 36  1  0  0  0  0
 17 18  1  0  0  0  0
 18 37  1  0  0  0  0
 18 38  1  0  0  0  0
M  END
> <s_m_source_file>
AV-unprocessed.smi

> <i_m_source_file_index>
3292

> <i_lp_mmshare_version>
43012

> <i_f3d_flags>
0

> <s_epik_input>
W2NIXTFuW2NIXVtjSF1uMVtDSDJdW0NAQEhdKFtDSDNdKVtOSF1DKD1PKVtOSF1bQ0gyXVtDQEBIXTJbQ0gyXVtDSDJdT1tDSDJdMg==

> <s_epik_cmdline>
J2VwaWtfcHl0aG9uJywgJy1waCcsICc3LjAnLCAnLXRuJywgJzgnLCAnLW1hJywgJzIwMCcsICctbWV0YWxfYmluZGluZycsICctaW1hZScsICc8aW5maWxlLm1hZT4nLCAnLW9tYWUnLCAnPG91dGZpbGUubWFlPic=

> <r_lp_tautomer_probability>
1

> <r_epik_Ionization_Penalty>
0.621291

> <r_epik_Ionization_Penalty_Charging>
0.621234

> <r_epik_Ionization_Penalty_Neutral>
5.72199e-05

> <r_epik_State_Penalty>
0.637278

> <r_epik_Charging_Adjusted_Penalty>
1.25851

> <i_epik_Tot_Q>
0

> <i_epik_Tot_abs_Q>
0

> <r_epik_Metal_State_Penalty>
0.306757

> <b_epik_Metal_Only>
0

> <s_lp_Force_Field>
OPLS_2005

> <r_lp_Energy>
18.0695

> <b_lp_Chiralities_Consistent>
1

> <s_lp_Variant>
AV-unprocessed.smi:3292-7

> <Gold.Version>
5.8.1

> <Gold.Id.Protein>
6NUR|6NUR_protein|mol2

> <Gold.PLP.Fitness>
46.0168

> <Gold.PLP.PLP>
-29.6638

> <Gold.PLP.part.hbond>
-3.0000

> <Gold.PLP.part.metal>
0.0000

> <Gold.PLP.part.buried>
-0.5891

> <Gold.PLP.part.nonpolar>
-27.0388

> <Gold.PLP.part.repulsive>
0.5187

> <Gold.PLP.ligand.clash>
0.0000

> <Gold.PLP.ligand.torsion>
0.6077

> <Gold.PLP.Chemscore.Hbond>
2.8406

> <Gold.PLP.Chemscore.CHOScore>
3.0000

> <Gold.PLP.Chemscore.Metal>
0.0000

> <Gold.Chemscore.Hbonds>
donor molecule, donor type, donor heavy atom, donor atom, acceptor molecule, acceptor atom, score
      L1  H     9    28       P1  7948  1.00
      L1  H    12    29       P1  7948  0.55
      P1  H  7989  7998       L1    17  1.00
      L1  C     5    25       P1 10186  1.00
      L1  C     6    26       P1 10952  1.00
      L1  C     8    27       P1 10747  0.54

> <Gold.PLP.Chemscore.Internal.Correction>
0.0466

> <Gold.Rescore>
     Score         DG    S(hbond)    S(metal)    S(lipo)     H(rot)  DE(clash)    DE(int)     intcor
     13.05     -15.25       2.18        0.00      68.56       2.16       1.69       0.51       ----

> <Gold.Chemscore.Fitness>
13.0478

> <Gold.Chemscore.DG>
-15.2450

> <Gold.Chemscore.ZeroCoef>
-5.4800

> <Gold.Chemscore.Hbond>
2.1758

> <Gold.Chemscore.Metal>
0.0000

> <Gold.Chemscore.Lipo>
68.5592

> <Gold.Chemscore.Internal_Hbond>
0.0000

> <Gold.Chemscore.DEClash>
1.6878

> <Gold.Chemscore.DEInternal>
0.5094

> <Gold.Chemscore.Rot>
2.1577

> <Gold.Chemscore.Internal.Correction>
   9.000000E+99

> <Gold.Chemscore.Hbonds>
donor molecule, donor type, donor heavy atom, donor atom, acceptor molecule, acceptor atom, score
      L1  H     9    28       P1  7948  1.00
      L1  H    12    29       P1  7948  0.55
      P1  H  7989  7998       L1    17  0.21

> <Gold.Chemscore.Hbond.Weighted>
-7.2673

> <Gold.Chemscore.Metal.Weighted>
-0.0000

> <Gold.Chemscore.Lipo.Weighted>
-8.0214

> <Gold.Chemscore.Internal_Hbond.Weighted>
0.0000

> <Gold.Chemscore.DEClash.Weighted>
1.6878

> <Gold.Chemscore.DEInternal.Weighted>
0.5094

> <Gold.Chemscore.Rot.Weighted>
5.5237

> <Gold.Chemscore.Internal.Correction.Weighted>
   9.000000E+99

> <Gold.Protein.RotatedTorsions>
[ 6907 6896 6895 6894 ] final -171.02 input  -60.11 | X-H torsion
[ 7974 7965 7964 7962 ] final  110.45 input  175.53 | X-H torsion
[ 8008 7997 7996 7995 ] final  -32.60 input   59.86 | X-H torsion
[ 10167 10162 10161 10158 ] final   -9.13 input  -65.29 | X-H torsion
[ 10718 10713 10712 10709 ] final  -68.80 input   66.30 | X-H torsion
[ 10763 10752 10751 10750 ] final  174.22 input  -60.55 | X-H torsion
[ 11005 11000 10999 10996 ] final -137.11 input  -57.11 | X-H torsion

> <Gold.Protein.ActiveResidues>
 VAL166  LYS551  ARG553  GLY616  TRP617  ASP618  TYR619  PRO620  LYS621  CYS622 
 ASP623  PHE694  ASN695  SER759  ASP760  ASP761  ALA762  ILE779  LEU786  VAL792 
 PHE793  MET794  SER795  GLU796  ALA797  LYS798  CYS799  TRP800  GLU811  SER814 

> <Gold.Protein.RotatedAtoms>
  151.5171  133.3473  159.2894 H   0  0  0  0  0  0  0  0  0  0  0  0  # atno 6907 bound_to 6896
  150.8675  134.8044  159.7141 H   0  0  0  0  0  0  0  0  0  0  0  0  # atno 6908 bound_to 6896
  152.4675  134.5050  159.9788 H   0  0  0  0  0  0  0  0  0  0  0  0  # atno 6909 bound_to 6896
  145.2548  139.2725  143.4048 H   0  0  0  0  0  0  0  0  0  0  0  0  # atno 7974 bound_to 7965
  154.4175  140.1733  156.1753 H   0  0  0  0  0  0  0  0  0  0  0  0  # atno 8008 bound_to 7997
  155.9727  140.3384  155.6566 H   0  0  0  0  0  0  0  0  0  0  0  0  # atno 8009 bound_to 7997
  155.6604  140.0700  157.2546 H   0  0  0  0  0  0  0  0  0  0  0  0  # atno 8010 bound_to 7997
  140.7078  143.5892  150.8911 H   0  0  0  0  0  0  0  0  0  0  0  0  # atno 10167 bound_to 10162
  156.0487  130.4301  150.2054 H   0  0  0  0  0  0  0  0  0  0  0  0  # atno 10718 bound_to 10713
  154.4509  135.2764  155.1781 H   0  0  0  0  0  0  0  0  0  0  0  0  # atno 10763 bound_to 10752
  154.3609  135.6130  153.5693 H   0  0  0  0  0  0  0  0  0  0  0  0  # atno 10764 bound_to 10752
  152.9847  135.5834  154.4854 H   0  0  0  0  0  0  0  0  0  0  0  0  # atno 10765 bound_to 10752
  140.8742  134.2013  157.4632 H   0  0  0  0  0  0  0  0  0  0  0  0  # atno 11005 bound_to 11000
  146.3292  140.2948  142.8617 LP  0  0  0  0  0  0  0  0  0  0  0  0  # atno 17320 bound_to 7965
  144.9471  140.8139  143.5595 LP  0  0  0  0  0  0  0  0  0  0  0  0  # atno 17321 bound_to 7965
  139.9618  143.6155  152.3000 LP  0  0  0  0  0  0  0  0  0  0  0  0  # atno 17342 bound_to 10162
  139.6711  144.7661  151.1782 LP  0  0  0  0  0  0  0  0  0  0  0  0  # atno 17343 bound_to 10162
  157.0141  130.9959  151.3358 LP  0  0  0  0  0  0  0  0  0  0  0  0  # atno 17370 bound_to 10713
  157.5390  130.8107  149.8006 LP  0  0  0  0  0  0  0  0  0  0  0  0  # atno 17371 bound_to 10713
  139.8714  134.9788  156.5012 LP  0  0  0  0  0  0  0  0  0  0  0  0  # atno 17394 bound_to 11000
  140.8537  133.8112  155.9195 LP  0  0  0  0  0  0  0  0  0  0  0  0  # atno 17395 bound_to 11000

$$$$
