AV-unprocessed.smi:3212|AV-procd|sdf|12280|dock2
  -GOLD-   2272018113D 1   1.00000     0.00000
 Structure written by MMmdl.
 39 39  0  0  0  0  0  0  0  0  1 V2000
  146.8259  139.7148  151.0059 C   0  0  0  0  0  0  0  0  0  0  0  0
  146.8406  138.4158  151.8286 C   0  0  2  0  0  0  0  0  0  0  0  0
  145.4657  137.8989  151.9615 N   0  0  0  0  0  0  0  0  0  0  0  0
  145.3842  136.4481  152.0914 C   0  0  0  0  0  0  0  0  0  0  0  0
  144.8727  135.8450  150.7758 C   0  0  0  0  0  0  0  0  0  0  0  0
  144.9323  134.3964  150.7976 N   0  0  0  0  0  0  0  0  0  0  0  0
  143.8955  133.4945  150.6821 C   0  0  0  0  0  0  0  0  0  0  0  0
  144.4366  132.2427  150.7515 C   0  0  0  0  0  0  0  0  0  0  0  0
  145.8297  132.4853  150.9116 C   0  0  0  0  0  0  0  0  0  0  0  0
  146.1232  133.7754  150.9382 N   0  0  0  0  0  0  0  0  0  0  0  0
  147.5453  138.6280  153.1800 C   0  0  0  0  0  0  0  0  0  0  0  0
  146.9082  138.5369  154.2294 O   0  0  0  0  0  0  0  0  0  0  0  0
  148.8659  138.8812  153.1257 N   0  0  0  0  0  0  0  0  0  0  0  0
  149.8053  139.0733  154.2363 C   0  0  0  0  0  0  0  0  0  0  0  0
  151.1658  138.5253  153.7711 C   0  0  0  0  0  0  0  0  0  0  0  0
  149.3451  138.2800  155.4778 C   0  0  0  0  0  0  0  0  0  0  0  0
  149.9558  140.5723  154.5708 C   0  0  0  0  0  0  0  0  0  0  0  0
  147.8328  140.1145  150.8778 H   0  0  0  0  0  0  0  0  0  0  0  0
  146.2184  140.4867  151.4809 H   0  0  0  0  0  0  0  0  0  0  0  0
  146.4165  139.5414  150.0102 H   0  0  0  0  0  0  0  0  0  0  0  0
  147.4184  137.6861  151.2580 H   0  0  0  0  0  0  0  0  0  0  0  0
  144.8886  138.1962  151.1879 H   0  0  0  0  0  0  0  0  0  0  0  0
  146.3721  136.0467  152.3228 H   0  0  0  0  0  0  0  0  0  0  0  0
  144.7145  136.1660  152.9046 H   0  0  0  0  0  0  0  0  0  0  0  0
  143.8419  136.1498  150.5876 H   0  0  0  0  0  0  0  0  0  0  0  0
  145.4679  136.2012  149.9339 H   0  0  0  0  0  0  0  0  0  0  0  0
  142.8713  133.8148  150.5595 H   0  0  0  0  0  0  0  0  0  0  0  0
  143.9168  131.2978  150.6958 H   0  0  0  0  0  0  0  0  0  0  0  0
  146.6308  131.7672  151.0078 H   0  0  0  0  0  0  0  0  0  0  0  0
  149.2732  138.9279  152.2031 H   0  0  0  0  0  0  0  0  0  0  0  0
  151.9233  138.6312  154.5485 H   0  0  0  0  0  0  0  0  0  0  0  0
  151.5277  139.0538  152.8882 H   0  0  0  0  0  0  0  0  0  0  0  0
  151.1031  137.4662  153.5178 H   0  0  0  0  0  0  0  0  0  0  0  0
  149.1949  137.2258  155.2417 H   0  0  0  0  0  0  0  0  0  0  0  0
  148.4097  138.6624  155.8862 H   0  0  0  0  0  0  0  0  0  0  0  0
  150.0866  138.3346  156.2758 H   0  0  0  0  0  0  0  0  0  0  0  0
  150.7277  140.7298  155.3247 H   0  0  0  0  0  0  0  0  0  0  0  0
  149.0340  141.0000  154.9649 H   0  0  0  0  0  0  0  0  0  0  0  0
  150.2365  141.1496  153.6894 H   0  0  0  0  0  0  0  0  0  0  0  0
  1  2  1  0  0  0  0
  1 18  1  0  0  0  0
  1 19  1  0  0  0  0
  1 20  1  0  0  0  0
  2  3  1  0  0  0  0
  2 11  1  0  0  0  0
  2 21  1  0  0  0  0
  3  4  1  0  0  0  0
  3 22  1  0  0  0  0
  4  5  1  0  0  0  0
  4 23  1  0  0  0  0
  4 24  1  0  0  0  0
  5  6  1  0  0  0  0
  5 25  1  0  0  0  0
  5 26  1  0  0  0  0
  6 10  1  0  0  0  0
  6  7  1  0  0  0  0
  7  8  2  0  0  0  0
  7 27  1  0  0  0  0
  8  9  1  0  0  0  0
  8 28  1  0  0  0  0
  9 10  2  0  0  0  0
  9 29  1  0  0  0  0
 11 12  2  0  0  0  0
 11 13  1  0  0  0  0
 13 14  1  0  0  0  0
 13 30  1  0  0  0  0
 14 15  1  0  0  0  0
 14 16  1  0  0  0  0
 14 17  1  0  0  0  0
 15 31  1  0  0  0  0
 15 32  1  0  0  0  0
 15 33  1  0  0  0  0
 16 34  1  0  0  0  0
 16 35  1  0  0  0  0
 16 36  1  0  0  0  0
 17 37  1  0  0  0  0
 17 38  1  0  0  0  0
 17 39  1  0  0  0  0
M  END
> <s_m_source_file>
AV-unprocessed.smi

> <i_m_source_file_index>
3212

> <i_lp_mmshare_version>
43012

> <i_f3d_flags>
0

> <s_epik_input>
W0NIM11DKFtDSDNdKShbQ0gzXSlbTkhdQyg9TylbQ0BIXShbQ0gzXSlbTkhdW0NIMl1bQ0gyXW4xW2NIXVtjSF1bY0hdbjE=

> <s_epik_cmdline>
J2VwaWtfcHl0aG9uJywgJy1waCcsICc3LjAnLCAnLXRuJywgJzgnLCAnLW1hJywgJzIwMCcsICctbWV0YWxfYmluZGluZycsICctaW1hZScsICc8aW5maWxlLm1hZT4nLCAnLW9tYWUnLCAnPG91dGZpbGUubWFlPic=

> <r_lp_tautomer_probability>
1

> <r_epik_Ionization_Penalty>
0.745735

> <r_epik_Ionization_Penalty_Charging>
0

> <r_epik_Ionization_Penalty_Neutral>
0.745735

> <r_epik_State_Penalty>
0.771152

> <r_epik_Charging_Adjusted_Penalty>
0.771152

> <i_epik_Tot_Q>
0

> <i_epik_Tot_abs_Q>
0

> <r_epik_Metal_State_Penalty>
0.770403

> <b_epik_Metal_Only>
0

> <s_lp_Force_Field>
OPLS_2005

> <r_lp_Energy>
5.75151

> <b_lp_Chiralities_Consistent>
1

> <s_lp_Variant>
AV-unprocessed.smi:3212-3

> <Gold.Version>
5.8.1

> <Gold.Id.Protein>
6NUR|6NUR_protein|mol2

> <Gold.PLP.Fitness>
42.1112

> <Gold.PLP.PLP>
-32.7478

> <Gold.PLP.part.hbond>
-2.9076

> <Gold.PLP.part.metal>
0.0000

> <Gold.PLP.part.buried>
-1.0534

> <Gold.PLP.part.nonpolar>
-28.9503

> <Gold.PLP.part.repulsive>
0.3938

> <Gold.PLP.ligand.clash>
0.0000

> <Gold.PLP.ligand.torsion>
1.3454

> <Gold.PLP.Chemscore.Hbond>
2.0000

> <Gold.PLP.Chemscore.CHOScore>
2.0000

> <Gold.PLP.Chemscore.Metal>
0.0000

> <Gold.Chemscore.Hbonds>
donor molecule, donor type, donor heavy atom, donor atom, acceptor molecule, acceptor atom, score
      L1  H     3    22       P1 10171  1.00
      L1  H    13    30       P1  7957  0.77
      L1  C     7    27       P1 10186  1.00
      L1  C     9    29       P1 10747  0.78

> <Gold.PLP.Chemscore.Internal.Correction>
0.0542

> <Gold.Rescore>
     Score         DG    S(hbond)    S(metal)    S(lipo)     H(rot)  DE(clash)    DE(int)     intcor
     12.87     -16.45       2.00        0.00      80.17       1.99       0.76       2.83       ----

> <Gold.Chemscore.Fitness>
12.8651

> <Gold.Chemscore.DG>
-16.4471

> <Gold.Chemscore.ZeroCoef>
-5.4800

> <Gold.Chemscore.Hbond>
1.9991

> <Gold.Chemscore.Metal>
0.0000

> <Gold.Chemscore.Lipo>
80.1661

> <Gold.Chemscore.Internal_Hbond>
0.0000

> <Gold.Chemscore.DEClash>
0.7550

> <Gold.Chemscore.DEInternal>
2.8270

> <Gold.Chemscore.Rot>
1.9880

> <Gold.Chemscore.Internal.Correction>
   9.000000E+99

> <Gold.Chemscore.Hbonds>
donor molecule, donor type, donor heavy atom, donor atom, acceptor molecule, acceptor atom, score
      L1  H     3    22       P1 10171  1.00
      L1  H    13    30       P1  7957  0.60

> <Gold.Chemscore.Hbond.Weighted>
-6.6769

> <Gold.Chemscore.Metal.Weighted>
-0.0000

> <Gold.Chemscore.Lipo.Weighted>
-9.3794

> <Gold.Chemscore.Internal_Hbond.Weighted>
0.0000

> <Gold.Chemscore.DEClash.Weighted>
0.7550

> <Gold.Chemscore.DEInternal.Weighted>
2.8270

> <Gold.Chemscore.Rot.Weighted>
5.0893

> <Gold.Chemscore.Internal.Correction.Weighted>
   9.000000E+99

> <Gold.Protein.RotatedTorsions>
[ 6907 6896 6895 6894 ] final -113.71 input  -60.11 | X-H torsion
[ 7974 7965 7964 7962 ] final   24.61 input  175.53 | X-H torsion
[ 8008 7997 7996 7995 ] final  -54.82 input   59.86 | X-H torsion
[ 10167 10162 10161 10158 ] final  -75.19 input  -65.29 | X-H torsion
[ 10718 10713 10712 10709 ] final  -61.30 input   66.30 | X-H torsion
[ 10763 10752 10751 10750 ] final -133.61 input  -60.55 | X-H torsion
[ 11005 11000 10999 10996 ] final -132.18 input  -57.11 | X-H torsion

> <Gold.Protein.ActiveResidues>
 VAL166  LYS551  ARG553  GLY616  TRP617  ASP618  TYR619  PRO620  LYS621  CYS622 
 ASP623  PHE694  ASN695  SER759  ASP760  ASP761  ALA762  ILE779  LEU786  VAL792 
 PHE793  MET794  SER795  GLU796  ALA797  LYS798  CYS799  TRP800  GLU811  SER814 

> <Gold.Protein.RotatedAtoms>
  150.7848  133.8906  159.3312 H   0  0  0  0  0  0  0  0  0  0  0  0  # atno 6907 bound_to 6896
  151.6759  135.0967  160.0216 H   0  0  0  0  0  0  0  0  0  0  0  0  # atno 6908 bound_to 6896
  152.3910  133.6640  159.6272 H   0  0  0  0  0  0  0  0  0  0  0  0  # atno 6909 bound_to 6896
  146.1929  139.7580  142.8819 H   0  0  0  0  0  0  0  0  0  0  0  0  # atno 7974 bound_to 7965
  154.4175  140.1167  156.5378 H   0  0  0  0  0  0  0  0  0  0  0  0  # atno 8008 bound_to 7997
  155.6539  140.3496  155.4739 H   0  0  0  0  0  0  0  0  0  0  0  0  # atno 8009 bound_to 7997
  155.9769  140.1152  157.0751 H   0  0  0  0  0  0  0  0  0  0  0  0  # atno 8010 bound_to 7997
  140.4963  143.2370  151.7825 H   0  0  0  0  0  0  0  0  0  0  0  0  # atno 10167 bound_to 10162
  156.0931  130.4197  150.0975 H   0  0  0  0  0  0  0  0  0  0  0  0  # atno 10718 bound_to 10713
  154.8730  135.3760  154.4600 H   0  0  0  0  0  0  0  0  0  0  0  0  # atno 10763 bound_to 10752
  153.5269  135.7028  153.5708 H   0  0  0  0  0  0  0  0  0  0  0  0  # atno 10764 bound_to 10752
  153.3930  135.3967  155.1901 H   0  0  0  0  0  0  0  0  0  0  0  0  # atno 10765 bound_to 10752
  140.9193  134.1465  157.4327 H   0  0  0  0  0  0  0  0  0  0  0  0  # atno 11005 bound_to 11000
  145.3736  141.0347  143.3217 LP  0  0  0  0  0  0  0  0  0  0  0  0  # atno 17320 bound_to 7965
  144.8522  139.5305  143.6851 LP  0  0  0  0  0  0  0  0  0  0  0  0  # atno 17321 bound_to 7965
  139.4862  144.4582  151.9573 LP  0  0  0  0  0  0  0  0  0  0  0  0  # atno 17342 bound_to 10162
  140.3670  144.2903  150.5925 LP  0  0  0  0  0  0  0  0  0  0  0  0  # atno 17343 bound_to 10162
  156.8980  130.9611  151.3580 LP  0  0  0  0  0  0  0  0  0  0  0  0  # atno 17370 bound_to 10713
  157.6085  130.8565  149.8914 LP  0  0  0  0  0  0  0  0  0  0  0  0  # atno 17371 bound_to 10713
  139.8772  134.9965  156.5800 LP  0  0  0  0  0  0  0  0  0  0  0  0  # atno 17394 bound_to 11000
  140.8009  133.8506  155.8725 LP  0  0  0  0  0  0  0  0  0  0  0  0  # atno 17395 bound_to 11000

$$$$
