AV-unprocessed.smi:689|AV-procd|sdf|3358|dock4
  -GOLD-   22720 0333D 1   1.00000     0.00000
 Structure written by MMmdl.
 33 34  0  0  0  0  0  0  0  0  2 V2000
  149.7085  138.8059  154.6582 C   0  0  0  0  0  0  0  0  0  0  0  0
  150.8119  139.0970  155.6347 C   0  0  0  0  0  0  0  0  0  0  0  0
  151.9169  139.6886  155.2119 N   0  0  0  0  0  0  0  0  0  0  0  0
  152.7314  139.8297  156.3396 O   0  0  0  0  0  0  0  0  0  0  0  0
  152.0764  139.3125  157.4099 C   0  0  0  0  0  0  0  0  0  0  0  0
  152.7838  139.3753  158.7208 C   0  0  0  0  0  0  0  0  0  0  0  0
  150.8552  138.8254  157.0328 C   0  0  0  0  0  0  0  0  0  0  0  0
  149.8009  138.1668  157.8869 C   0  0  0  0  0  0  0  0  0  0  0  0
  150.3804  136.9159  158.5545 C   0  0  0  0  0  0  0  0  0  0  0  0
  151.5595  136.9167  158.9087 O   0  0  0  0  0  0  0  0  0  0  0  0
  149.4563  135.9370  158.6803 N   0  5  0  0  0  0  0  0  0  0  0  0
  148.0907  136.1651  159.5138 S   0  0  0  0  0  0  0  0  0  0  0  0
  148.2768  137.0563  160.6696 O   0  0  0  0  0  0  0  0  0  0  0  0
  146.9341  136.4223  158.6418 O   0  0  0  0  0  0  0  0  0  0  0  0
  147.8359  134.4782  160.2128 C   0  0  0  0  0  0  0  0  0  0  0  0
  146.8080  134.4819  161.3273 C   0  0  0  0  0  0  0  0  0  0  0  0
  147.2203  134.6834  162.7675 C   0  0  0  0  0  0  0  0  0  0  0  0
  146.7293  133.3335  162.3081 C   0  0  0  0  0  0  0  0  0  0  0  0
  149.2607  137.8311  154.8512 H   0  0  0  0  0  0  0  0  0  0  0  0
  150.0703  138.8037  153.6296 H   0  0  0  0  0  0  0  0  0  0  0  0
  148.9185  139.5536  154.7313 H   0  0  0  0  0  0  0  0  0  0  0  0
  152.0723  139.4144  159.5456 H   0  0  0  0  0  0  0  0  0  0  0  0
  153.4153  140.2619  158.7807 H   0  0  0  0  0  0  0  0  0  0  0  0
  153.4154  138.4981  158.8599 H   0  0  0  0  0  0  0  0  0  0  0  0
  149.4086  138.8529  158.6395 H   0  0  0  0  0  0  0  0  0  0  0  0
  148.9401  137.8708  157.2865 H   0  0  0  0  0  0  0  0  0  0  0  0
  147.5183  133.8192  159.4046 H   0  0  0  0  0  0  0  0  0  0  0  0
  148.7880  134.1120  160.5962 H   0  0  0  0  0  0  0  0  0  0  0  0
  145.8512  134.9102  161.0342 H   0  0  0  0  0  0  0  0  0  0  0  0
  148.2822  134.7831  162.9840 H   0  0  0  0  0  0  0  0  0  0  0  0
  146.5585  135.2705  163.4010 H   0  0  0  0  0  0  0  0  0  0  0  0
  145.7395  133.0186  162.6320 H   0  0  0  0  0  0  0  0  0  0  0  0
  147.4658  132.5373  162.2198 H   0  0  0  0  0  0  0  0  0  0  0  0
  1  2  1  0  0  0  0
  1 19  1  0  0  0  0
  1 20  1  0  0  0  0
  1 21  1  0  0  0  0
  2  7  1  0  0  0  0
  2  3  2  0  0  0  0
  3  4  1  0  0  0  0
  4  5  1  0  0  0  0
  5  6  1  0  0  0  0
  5  7  2  0  0  0  0
  6 22  1  0  0  0  0
  6 23  1  0  0  0  0
  6 24  1  0  0  0  0
  7  8  1  0  0  0  0
  8  9  1  0  0  0  0
  8 25  1  0  0  0  0
  8 26  1  0  0  0  0
  9 10  2  0  0  0  0
  9 11  1  0  0  0  0
 11 12  1  0  0  0  0
 12 13  2  0  0  0  0
 12 14  2  0  0  0  0
 12 15  1  0  0  0  0
 15 16  1  0  0  0  0
 15 27  1  0  0  0  0
 15 28  1  0  0  0  0
 16 18  1  0  0  0  0
 16 17  1  0  0  0  0
 16 29  1  0  0  0  0
 17 18  1  0  0  0  0
 17 30  1  0  0  0  0
 17 31  1  0  0  0  0
 18 32  1  0  0  0  0
 18 33  1  0  0  0  0
M  CHG  1  11  -1
M  END
> <s_m_source_file>
AV-unprocessed.smi

> <i_m_source_file_index>
689

> <i_lp_mmshare_version>
43012

> <i_f3d_flags>
0

> <s_epik_input>
W0NIM11jMW5vYyhbQ0gzXSljMVtDSDJdQyg9TylbTkhdUyg9TykoPU8pW0NIMl1bQ0hdMltDSDJdW0NIMl0y

> <s_epik_cmdline>
J2VwaWtfcHl0aG9uJywgJy1waCcsICc3LjAnLCAnLXRuJywgJzgnLCAnLW1hJywgJzIwMCcsICctbWV0YWxfYmluZGluZycsICctaW1hZScsICc8aW5maWxlLm1hZT4nLCAnLW9tYWUnLCAnPG91dGZpbGUubWFlPic=

> <r_epik_Ionization_Penalty>
0.0117783

> <r_epik_Ionization_Penalty_Charging>
0.0117783

> <r_epik_Ionization_Penalty_Neutral>
2.69026e-10

> <r_epik_State_Penalty>
0.00908283

> <r_epik_Charging_Adjusted_Penalty>
0.0208612

> <i_epik_Tot_Q>
-1

> <i_epik_Tot_abs_Q>
1

> <r_epik_Metal_State_Penalty>
0.00890557

> <b_epik_Metal_Only>
0

> <s_lp_Force_Field>
OPLS_2005

> <r_lp_Energy>
1.25467

> <b_lp_Chiralities_Consistent>
1

> <s_lp_Variant>
AV-unprocessed.smi:689-1

> <Gold.Version>
5.8.1

> <Gold.Id.Protein>
6NUR|6NUR_protein|mol2

> <Gold.PLP.Fitness>
43.1154

> <Gold.PLP.PLP>
-29.1736

> <Gold.PLP.part.hbond>
-5.2042

> <Gold.PLP.part.metal>
0.0000

> <Gold.PLP.part.buried>
-3.6586

> <Gold.PLP.part.nonpolar>
-20.5442

> <Gold.PLP.part.repulsive>
0.0312

> <Gold.PLP.ligand.clash>
0.0000

> <Gold.PLP.ligand.torsion>
2.0435

> <Gold.PLP.Chemscore.Hbond>
5.4720

> <Gold.PLP.Chemscore.CHOScore>
0.0000

> <Gold.PLP.Chemscore.Metal>
0.0000

> <Gold.Chemscore.Hbonds>
donor molecule, donor type, donor heavy atom, donor atom, acceptor molecule, acceptor atom, score
      P1  H  6896  6907       L1    11  1.30
      P1  H  6931  6943       L1    13  0.88
      P1  H  6934  6947       L1    13  0.29
      P1  H  7989  7998       L1     3  0.81
      P1  H  7997  8009       L1     4  1.00

> <Gold.PLP.Chemscore.Internal.Correction>
1.6129

> <Gold.Rescore>
     Score         DG    S(hbond)    S(metal)    S(lipo)     H(rot)  DE(clash)    DE(int)     intcor
     16.65     -19.94       3.42        0.00      60.99       1.61       0.11       3.18       ----

> <Gold.Chemscore.Fitness>
16.6507

> <Gold.Chemscore.DG>
-19.9430

> <Gold.Chemscore.ZeroCoef>
-5.4800

> <Gold.Chemscore.Hbond>
3.4246

> <Gold.Chemscore.Metal>
0.0000

> <Gold.Chemscore.Lipo>
60.9886

> <Gold.Chemscore.Internal_Hbond>
0.0000

> <Gold.Chemscore.DEClash>
0.1103

> <Gold.Chemscore.DEInternal>
3.1821

> <Gold.Chemscore.Rot>
1.6058

> <Gold.Chemscore.Internal.Correction>
   9.000000E+99

> <Gold.Chemscore.Hbonds>
donor molecule, donor type, donor heavy atom, donor atom, acceptor molecule, acceptor atom, score
      P1  H  6896  6907       L1    11  0.05
      P1  H  6931  6943       L1    13  0.86
      P1  H  6934  6947       L1    13  0.29
      P1  H  7989  7998       L1     3  0.69
      P1  H  7997  8009       L1     4  0.98

> <Gold.Chemscore.Hbond.Weighted>
-11.4382

> <Gold.Chemscore.Metal.Weighted>
-0.0000

> <Gold.Chemscore.Lipo.Weighted>
-7.1357

> <Gold.Chemscore.Internal_Hbond.Weighted>
0.0000

> <Gold.Chemscore.DEClash.Weighted>
0.1103

> <Gold.Chemscore.DEInternal.Weighted>
3.1821

> <Gold.Chemscore.Rot.Weighted>
4.1108

> <Gold.Chemscore.Internal.Correction.Weighted>
   9.000000E+99

> <Gold.Protein.RotatedTorsions>
[ 6907 6896 6895 6894 ] final  -62.86 input  -60.11 | X-H torsion
[ 7974 7965 7964 7962 ] final   31.02 input  175.53 | X-H torsion
[ 8008 7997 7996 7995 ] final -166.09 input   59.86 | X-H torsion
[ 10167 10162 10161 10158 ] final  126.93 input  -65.29 | X-H torsion
[ 10718 10713 10712 10709 ] final  -83.12 input   66.30 | X-H torsion
[ 10763 10752 10751 10750 ] final  -29.44 input  -60.55 | X-H torsion
[ 11005 11000 10999 10996 ] final   37.34 input  -57.11 | X-H torsion

> <Gold.Protein.ActiveResidues>
 VAL166  LYS551  ARG553  GLY616  TRP617  ASP618  TYR619  PRO620  LYS621  CYS622 
 ASP623  PHE694  ASN695  SER759  ASP760  ASP761  ALA762  ILE779  LEU786  VAL792 
 PHE793  MET794  SER795  GLU796  ALA797  LYS798  CYS799  TRP800  GLU811  SER814 

> <Gold.Protein.RotatedAtoms>
  150.7687  134.6514  159.6289 H   0  0  0  0  0  0  0  0  0  0  0  0  # atno 6907 bound_to 6896
  152.3731  134.6701  160.0178 H   0  0  0  0  0  0  0  0  0  0  0  0  # atno 6908 bound_to 6896
  151.7055  133.3275  159.3313 H   0  0  0  0  0  0  0  0  0  0  0  0  # atno 6909 bound_to 6896
  146.1576  139.6712  142.9056 H   0  0  0  0  0  0  0  0  0  0  0  0  # atno 7974 bound_to 7965
  155.8589  140.0975  157.1626 H   0  0  0  0  0  0  0  0  0  0  0  0  # atno 8008 bound_to 7997
  154.3989  140.1369  156.3998 H   0  0  0  0  0  0  0  0  0  0  0  0  # atno 8009 bound_to 7997
  155.7879  140.3456  155.5335 H   0  0  0  0  0  0  0  0  0  0  0  0  # atno 8010 bound_to 7997
  139.5605  144.6878  151.4057 H   0  0  0  0  0  0  0  0  0  0  0  0  # atno 10167 bound_to 10162
  156.0023  130.4655  150.4208 H   0  0  0  0  0  0  0  0  0  0  0  0  # atno 10718 bound_to 10713
  153.7647  135.6917  153.4918 H   0  0  0  0  0  0  0  0  0  0  0  0  # atno 10763 bound_to 10752
  153.1915  135.4469  155.0153 H   0  0  0  0  0  0  0  0  0  0  0  0  # atno 10764 bound_to 10752
  154.8140  135.3390  154.7160 H   0  0  0  0  0  0  0  0  0  0  0  0  # atno 10765 bound_to 10752
  140.2235  134.3612  155.7994 H   0  0  0  0  0  0  0  0  0  0  0  0  # atno 11005 bound_to 11000
  145.4669  141.0435  143.2720 LP  0  0  0  0  0  0  0  0  0  0  0  0  # atno 17320 bound_to 7965
  144.7984  139.6189  143.7082 LP  0  0  0  0  0  0  0  0  0  0  0  0  # atno 17321 bound_to 7965
  140.6884  143.7920  150.7219 LP  0  0  0  0  0  0  0  0  0  0  0  0  # atno 17342 bound_to 10162
  140.1394  143.4454  152.2203 LP  0  0  0  0  0  0  0  0  0  0  0  0  # atno 17343 bound_to 10162
  157.2264  131.0494  151.2517 LP  0  0  0  0  0  0  0  0  0  0  0  0  # atno 17370 bound_to 10713
  157.3752  130.7202  149.6592 LP  0  0  0  0  0  0  0  0  0  0  0  0  # atno 17371 bound_to 10713
  141.2222  133.7206  156.8615 LP  0  0  0  0  0  0  0  0  0  0  0  0  # atno 17394 bound_to 11000
  140.1824  134.9023  157.2965 LP  0  0  0  0  0  0  0  0  0  0  0  0  # atno 17395 bound_to 11000

$$$$
