AV-unprocessed.smi:2881|AV-procd|sdf|11055|dock6
  -GOLD-   2272015523D 1   1.00000     0.00000
 Structure written by MMmdl.
 40 42  0  0  0  0  0  0  0  0  1 V2000
  146.4405  134.0344  162.4820 C   0  0  0  0  0  0  0  0  0  0  0  0
  147.0685  135.0864  161.6327 C   0  0  0  0  0  0  0  0  0  0  0  0
  147.8199  135.0011  160.4947 C   0  0  0  0  0  0  0  0  0  0  0  0
  148.1198  136.3573  160.1660 C   0  0  0  0  0  0  0  0  0  0  0  0
  148.9305  136.8756  159.0082 C   0  0  0  0  0  0  0  0  0  0  0  0
  148.1730  137.9907  158.2868 C   0  0  0  0  0  0  0  0  0  0  0  0
  147.0466  138.3128  158.6641 O   0  0  0  0  0  0  0  0  0  0  0  0
  148.8043  138.5697  157.2536 N   0  0  0  0  0  0  0  0  0  0  0  0
  148.2791  139.6702  156.4491 C   0  0  2  0  0  0  0  0  0  0  0  0
  148.4369  139.3617  154.9437 C   0  0  1  0  0  0  0  0  0  0  0  0
  147.5456  140.3289  154.1439 C   0  0  0  0  0  0  0  0  0  0  0  0
  148.2948  141.6671  154.2871 C   0  0  0  0  0  0  0  0  0  0  0  0
  149.5140  141.2901  155.1567 C   0  0  2  0  0  0  0  0  0  0  0  0
  149.8310  139.8970  154.6283 C   0  0  0  0  0  0  0  0  0  0  0  0
  149.1068  140.9717  156.6155 C   0  0  1  0  0  0  0  0  0  0  0  0
  148.3805  142.1149  157.3507 C   0  0  0  0  0  0  0  0  0  0  0  0
  149.2885  143.1490  157.6628 O   0  0  0  0  0  0  0  0  0  0  0  0
  147.6004  137.2122  161.0362 N   0  0  0  0  0  0  0  0  0  0  0  0
  146.9610  136.4268  161.9222 N   0  0  0  0  0  0  0  0  0  0  0  0
  146.4633  136.8149  162.7109 H   0  0  0  0  0  0  0  0  0  0  0  0
  146.4711  133.0642  161.9861 H   0  0  0  0  0  0  0  0  0  0  0  0
  145.3971  134.2736  162.6897 H   0  0  0  0  0  0  0  0  0  0  0  0
  146.9635  133.9431  163.4343 H   0  0  0  0  0  0  0  0  0  0  0  0
  148.1124  134.1033  159.9704 H   0  0  0  0  0  0  0  0  0  0  0  0
  149.8927  137.2639  159.3457 H   0  0  0  0  0  0  0  0  0  0  0  0
  149.1530  136.0668  158.3109 H   0  0  0  0  0  0  0  0  0  0  0  0
  149.7262  138.2339  157.0152 H   0  0  0  0  0  0  0  0  0  0  0  0
  147.2246  139.8277  156.6846 H   0  0  0  0  0  0  0  0  0  0  0  0
  148.2733  138.3148  154.6843 H   0  0  0  0  0  0  0  0  0  0  0  0
  147.4913  140.0314  153.0960 H   0  0  0  0  0  0  0  0  0  0  0  0
  146.5269  140.3766  154.5302 H   0  0  0  0  0  0  0  0  0  0  0  0
  148.6214  142.0212  153.3084 H   0  0  0  0  0  0  0  0  0  0  0  0
  147.6780  142.4514  154.7241 H   0  0  0  0  0  0  0  0  0  0  0  0
  150.3374  142.0009  155.0822 H   0  0  0  0  0  0  0  0  0  0  0  0
  150.6260  139.3924  155.1801 H   0  0  0  0  0  0  0  0  0  0  0  0
  150.0710  139.8800  153.5636 H   0  0  0  0  0  0  0  0  0  0  0  0
  150.0285  140.7557  157.1602 H   0  0  0  0  0  0  0  0  0  0  0  0
  147.5930  142.5300  156.7215 H   0  0  0  0  0  0  0  0  0  0  0  0
  147.9137  141.7673  158.2722 H   0  0  0  0  0  0  0  0  0  0  0  0
  149.2253  143.8174  156.9978 H   0  0  0  0  0  0  0  0  0  0  0  0
  1  2  1  0  0  0  0
  1 21  1  0  0  0  0
  1 22  1  0  0  0  0
  1 23  1  0  0  0  0
  2 19  1  0  0  0  0
  2  3  2  0  0  0  0
  3  4  1  0  0  0  0
  3 24  1  0  0  0  0
  4  5  1  0  0  0  0
  4 18  2  0  0  0  0
  5  6  1  0  0  0  0
  5 25  1  0  0  0  0
  5 26  1  0  0  0  0
  6  7  2  0  0  0  0
  6  8  1  0  0  0  0
  8  9  1  0  0  0  0
  8 27  1  0  0  0  0
  9 15  1  0  0  0  0
  9 10  1  0  0  0  0
  9 28  1  0  0  0  0
 10 14  1  0  0  0  0
 10 11  1  0  0  0  0
 10 29  1  0  0  0  0
 11 12  1  0  0  0  0
 11 30  1  0  0  0  0
 11 31  1  0  0  0  0
 12 13  1  0  0  0  0
 12 32  1  0  0  0  0
 12 33  1  0  0  0  0
 13 14  1  0  0  0  0
 13 15  1  0  0  0  0
 13 34  1  0  0  0  0
 14 35  1  0  0  0  0
 14 36  1  0  0  0  0
 15 16  1  0  0  0  0
 15 37  1  0  0  0  0
 16 17  1  0  0  0  0
 16 38  1  0  0  0  0
 16 39  1  0  0  0  0
 17 40  1  0  0  0  0
 18 19  1  0  0  0  0
 19 20  1  0  0  0  0
M  END
> <s_m_source_file>
AV-unprocessed.smi

> <i_m_source_file_index>
2881

> <i_lp_mmshare_version>
43012

> <i_f3d_flags>
0

> <s_epik_input>
W0NIM11jMVtjSF1jKG5bbkhdMSlbQ0gyXUMoPU8pW05IXVtDQEhdKFtDQEBIXTIzKVtDQEhdKFtDSDJdW09IXSlbQ0BASF0oW0NIMl0zKVtDSDJdW0NIMl0y

> <s_epik_cmdline>
J2VwaWtfcHl0aG9uJywgJy1waCcsICc3LjAnLCAnLXRuJywgJzgnLCAnLW1hJywgJzIwMCcsICctbWV0YWxfYmluZGluZycsICctaW1hZScsICc8aW5maWxlLm1hZT4nLCAnLW9tYWUnLCAnPG91dGZpbGUubWFlPic=

> <r_lp_tautomer_probability>
0.5

> <r_epik_Ionization_Penalty>
9.4349e-05

> <r_epik_Ionization_Penalty_Charging>
0

> <r_epik_Ionization_Penalty_Neutral>
9.4349e-05

> <r_epik_State_Penalty>
0.41068

> <r_epik_Charging_Adjusted_Penalty>
0.41068

> <i_epik_Tot_Q>
0

> <i_epik_Tot_abs_Q>
0

> <r_epik_Metal_State_Penalty>
0.4107

> <b_epik_Metal_Only>
0

> <s_lp_Force_Field>
OPLS_2005

> <r_lp_Energy>
47.7549

> <b_lp_Chiralities_Consistent>
1

> <s_lp_Variant>
AV-unprocessed.smi:2881-1

> <Gold.Version>
5.8.1

> <Gold.Id.Protein>
6NUR|6NUR_protein|mol2

> <Gold.PLP.Fitness>
38.6420

> <Gold.PLP.PLP>
-30.7429

> <Gold.PLP.part.hbond>
-4.1083

> <Gold.PLP.part.metal>
0.0000

> <Gold.PLP.part.buried>
-3.7394

> <Gold.PLP.part.nonpolar>
-23.1087

> <Gold.PLP.part.repulsive>
0.1839

> <Gold.PLP.ligand.clash>
0.0000

> <Gold.PLP.ligand.torsion>
0.2529

> <Gold.PLP.Chemscore.Hbond>
2.7920

> <Gold.PLP.Chemscore.CHOScore>
0.0000

> <Gold.PLP.Chemscore.Metal>
0.0000

> <Gold.Chemscore.Hbonds>
donor molecule, donor type, donor heavy atom, donor atom, acceptor molecule, acceptor atom, score
      L1  H    17    40       P1  8028  1.00
      P1  H  6931  6943       L1    18  0.88
      P1  H  6934  6947       L1    18  0.93

> <Gold.PLP.Chemscore.Internal.Correction>
0.0289

> <Gold.Rescore>
     Score         DG    S(hbond)    S(metal)    S(lipo)     H(rot)  DE(clash)    DE(int)     intcor
     15.30     -16.70       2.62        0.00      70.94       2.28       0.05       1.35       ----

> <Gold.Chemscore.Fitness>
15.3035

> <Gold.Chemscore.DG>
-16.7040

> <Gold.Chemscore.ZeroCoef>
-5.4800

> <Gold.Chemscore.Hbond>
2.6194

> <Gold.Chemscore.Metal>
0.0000

> <Gold.Chemscore.Lipo>
70.9424

> <Gold.Chemscore.Internal_Hbond>
0.0000

> <Gold.Chemscore.DEClash>
0.0474

> <Gold.Chemscore.DEInternal>
1.3531

> <Gold.Chemscore.Rot>
2.2755

> <Gold.Chemscore.Internal.Correction>
   9.000000E+99

> <Gold.Chemscore.Hbonds>
donor molecule, donor type, donor heavy atom, donor atom, acceptor molecule, acceptor atom, score
      L1  H    17    40       P1  8028  0.60
      P1  H  6931  6943       L1    18  0.52
      P1  H  6934  6947       L1    18  0.89

> <Gold.Chemscore.Hbond.Weighted>
-8.7489

> <Gold.Chemscore.Metal.Weighted>
-0.0000

> <Gold.Chemscore.Lipo.Weighted>
-8.3003

> <Gold.Chemscore.Internal_Hbond.Weighted>
0.0000

> <Gold.Chemscore.DEClash.Weighted>
0.0474

> <Gold.Chemscore.DEInternal.Weighted>
1.3531

> <Gold.Chemscore.Rot.Weighted>
5.8252

> <Gold.Chemscore.Internal.Correction.Weighted>
   9.000000E+99

> <Gold.Protein.RotatedTorsions>
[ 6907 6896 6895 6894 ] final   24.01 input  -60.11 | X-H torsion
[ 7974 7965 7964 7962 ] final -170.32 input  175.53 | X-H torsion
[ 8008 7997 7996 7995 ] final   -4.28 input   59.86 | X-H torsion
[ 10167 10162 10161 10158 ] final -128.84 input  -65.29 | X-H torsion
[ 10718 10713 10712 10709 ] final -131.21 input   66.30 | X-H torsion
[ 10763 10752 10751 10750 ] final  -91.32 input  -60.55 | X-H torsion
[ 11005 11000 10999 10996 ] final   29.61 input  -57.11 | X-H torsion

> <Gold.Protein.ActiveResidues>
 VAL166  LYS551  ARG553  GLY616  TRP617  ASP618  TYR619  PRO620  LYS621  CYS622 
 ASP623  PHE694  ASN695  SER759  ASP760  ASP761  ALA762  ILE779  LEU786  VAL792 
 PHE793  MET794  SER795  GLU796  ALA797  LYS798  CYS799  TRP800  GLU811  SER814 

> <Gold.Protein.RotatedAtoms>
  151.9510  135.0169  160.0541 H   0  0  0  0  0  0  0  0  0  0  0  0  # atno 6907 bound_to 6896
  152.1953  133.4797  159.5038 H   0  0  0  0  0  0  0  0  0  0  0  0  # atno 6908 bound_to 6896
  150.6943  134.1577  159.4207 H   0  0  0  0  0  0  0  0  0  0  0  0  # atno 6909 bound_to 6896
  144.7172  140.2089  143.6329 H   0  0  0  0  0  0  0  0  0  0  0  0  # atno 7974 bound_to 7965
  154.6159  140.2488  155.7610 H   0  0  0  0  0  0  0  0  0  0  0  0  # atno 8008 bound_to 7997
  156.2398  140.2936  156.0363 H   0  0  0  0  0  0  0  0  0  0  0  0  # atno 8009 bound_to 7997
  155.1976  140.0393  157.2902 H   0  0  0  0  0  0  0  0  0  0  0  0  # atno 8010 bound_to 7997
  139.9460  143.6109  152.2489 H   0  0  0  0  0  0  0  0  0  0  0  0  # atno 10167 bound_to 10162
  156.2221  130.6985  151.0767 H   0  0  0  0  0  0  0  0  0  0  0  0  # atno 10718 bound_to 10713
  154.6749  135.5272  153.8186 H   0  0  0  0  0  0  0  0  0  0  0  0  # atno 10763 bound_to 10752
  153.0525  135.6538  154.0667 H   0  0  0  0  0  0  0  0  0  0  0  0  # atno 10764 bound_to 10752
  154.0562  135.2965  155.3312 H   0  0  0  0  0  0  0  0  0  0  0  0  # atno 10765 bound_to 10752
  140.3031  134.2734  155.7749 H   0  0  0  0  0  0  0  0  0  0  0  0  # atno 11005 bound_to 11000
  145.8609  139.2222  143.1717 LP  0  0  0  0  0  0  0  0  0  0  0  0  # atno 17320 bound_to 7965
  146.0174  140.8380  142.9940 LP  0  0  0  0  0  0  0  0  0  0  0  0  # atno 17321 bound_to 7965
  139.6666  144.7662  151.1861 LP  0  0  0  0  0  0  0  0  0  0  0  0  # atno 17342 bound_to 10162
  140.7597  143.5928  150.8778 LP  0  0  0  0  0  0  0  0  0  0  0  0  # atno 17343 bound_to 10162
  157.7093  131.0742  150.6559 LP  0  0  0  0  0  0  0  0  0  0  0  0  # atno 17370 bound_to 10713
  156.6622  130.4515  149.5684 LP  0  0  0  0  0  0  0  0  0  0  0  0  # atno 17371 bound_to 10713
  141.2124  133.7659  156.9796 LP  0  0  0  0  0  0  0  0  0  0  0  0  # atno 17394 bound_to 11000
  140.1091  134.9488  157.2039 LP  0  0  0  0  0  0  0  0  0  0  0  0  # atno 17395 bound_to 11000

$$$$
