AV-unprocessed.smi:142|AV-procd|sdf|1191|dock3
  -GOLD-   2262018343D 1   1.00000     0.00000
 Structure written by MMmdl.
 52 55  0  0  0  0  0  0  0  0  1 V2000
  151.9393  138.5149  156.3341 C   0  0  0  0  0  0  0  0  0  0  0  0
  151.3719  138.9159  157.7024 C   0  0  2  0  0  0  0  0  0  0  0  0
  150.0459  138.3231  157.8658 N   0  0  0  0  0  0  0  0  0  0  0  0
  149.7620  137.2632  158.6378 C   0  0  0  0  0  0  0  0  0  0  0  0
  150.6185  136.6347  159.2614 O   0  0  0  0  0  0  0  0  0  0  0  0
  148.2808  136.8650  158.7105 C   0  0  0  0  0  0  0  0  0  0  0  0
  148.0335  135.7161  159.6085 N   0  0  0  0  0  0  0  0  0  0  0  0
  147.7036  135.9786  160.9618 C   0  0  0  0  0  0  0  0  0  0  0  0
  147.6015  137.1325  161.3815 O   0  0  0  0  0  0  0  0  0  0  0  0
  147.5126  134.8024  161.8026 C   0  0  0  0  0  0  0  0  0  0  0  0
  147.2116  134.9552  163.1034 F   0  0  0  0  0  0  0  0  0  0  0  0
  147.6388  133.5589  161.2952 C   0  0  0  0  0  0  0  0  0  0  0  0
  147.9405  133.3161  159.9696 N   0  0  0  0  0  0  0  0  0  0  0  0
  148.1165  131.8898  159.5018 C   0  0  1  0  0  0  0  0  0  0  0  0
  149.5269  131.5858  158.9616 C   0  0  0  0  0  0  0  0  0  0  0  0
  149.9982  130.4532  159.8595 C   0  0  0  0  0  0  0  0  0  0  0  0
  148.6917  129.8848  160.4018 C   0  0  0  0  0  0  0  0  0  0  0  0
  147.8819  131.0365  160.5793 O   0  0  0  0  0  0  0  0  0  0  0  0
  148.1770  134.4038  159.0973 C   0  0  0  0  0  0  0  0  0  0  0  0
  148.5077  134.2171  157.9255 O   0  0  0  0  0  0  0  0  0  0  0  0
  151.3795  140.4336  157.8713 C   0  0  0  0  0  0  0  0  0  0  0  0
  150.9366  141.2491  156.8081 C   0  0  0  0  0  0  0  0  0  0  0  0
  150.9254  142.6513  156.9387 C   0  0  0  0  0  0  0  0  0  0  0  0
  151.3567  143.2530  158.1380 C   0  0  0  0  0  0  0  0  0  0  0  0
  151.3486  144.6565  158.2758 C   0  0  0  0  0  0  0  0  0  0  0  0
  151.7807  145.2498  159.4780 C   0  0  0  0  0  0  0  0  0  0  0  0
  152.2223  144.4432  160.5447 C   0  0  0  0  0  0  0  0  0  0  0  0
  152.2329  143.0410  160.4125 C   0  0  0  0  0  0  0  0  0  0  0  0
  151.7998  142.4419  159.2116 C   0  0  0  0  0  0  0  0  0  0  0  0
  151.8055  141.0391  159.0763 C   0  0  0  0  0  0  0  0  0  0  0  0
  152.9584  138.8818  156.2096 H   0  0  0  0  0  0  0  0  0  0  0  0
  151.3379  138.9226  155.5206 H   0  0  0  0  0  0  0  0  0  0  0  0
  151.9651  137.4307  156.2199 H   0  0  0  0  0  0  0  0  0  0  0  0
  152.0242  138.4908  158.4679 H   0  0  0  0  0  0  0  0  0  0  0  0
  149.2828  138.7756  157.3840 H   0  0  0  0  0  0  0  0  0  0  0  0
  147.6939  137.7279  159.0305 H   0  0  0  0  0  0  0  0  0  0  0  0
  147.9299  136.6685  157.6966 H   0  0  0  0  0  0  0  0  0  0  0  0
  147.4942  132.7213  161.9621 H   0  0  0  0  0  0  0  0  0  0  0  0
  147.3510  131.7253  158.7420 H   0  0  0  0  0  0  0  0  0  0  0  0
  149.4376  131.2542  157.9266 H   0  0  0  0  0  0  0  0  0  0  0  0
  150.1842  132.4553  158.9892 H   0  0  0  0  0  0  0  0  0  0  0  0
  150.5956  129.7107  159.3302 H   0  0  0  0  0  0  0  0  0  0  0  0
  150.6006  130.8469  160.6786 H   0  0  0  0  0  0  0  0  0  0  0  0
  148.2250  129.2191  159.6739 H   0  0  0  0  0  0  0  0  0  0  0  0
  148.8240  129.3380  161.3357 H   0  0  0  0  0  0  0  0  0  0  0  0
  150.6028  140.7992  155.8845 H   0  0  0  0  0  0  0  0  0  0  0  0
  150.5845  143.2611  156.1146 H   0  0  0  0  0  0  0  0  0  0  0  0
  151.0123  145.2833  157.4625 H   0  0  0  0  0  0  0  0  0  0  0  0
  151.7742  146.3246  159.5820 H   0  0  0  0  0  0  0  0  0  0  0  0
  152.5540  144.9002  161.4654 H   0  0  0  0  0  0  0  0  0  0  0  0
  152.5753  142.4298  161.2351 H   0  0  0  0  0  0  0  0  0  0  0  0
  152.1394  140.4298  159.9036 H   0  0  0  0  0  0  0  0  0  0  0  0
  1  2  1  0  0  0  0
  1 31  1  0  0  0  0
  1 32  1  0  0  0  0
  1 33  1  0  0  0  0
  2  3  1  0  0  0  0
  2 21  1  0  0  0  0
  2 34  1  0  0  0  0
  3  4  1  0  0  0  0
  3 35  1  0  0  0  0
  4  5  2  0  0  0  0
  4  6  1  0  0  0  0
  6  7  1  0  0  0  0
  6 36  1  0  0  0  0
  6 37  1  0  0  0  0
  7 19  1  0  0  0  0
  7  8  1  0  0  0  0
  8  9  2  0  0  0  0
  8 10  1  0  0  0  0
 10 11  1  0  0  0  0
 10 12  2  0  0  0  0
 12 13  1  0  0  0  0
 12 38  1  0  0  0  0
 13 14  1  0  0  0  0
 13 19  1  0  0  0  0
 14 18  1  0  0  0  0
 14 15  1  0  0  0  0
 14 39  1  0  0  0  0
 15 16  1  0  0  0  0
 15 40  1  0  0  0  0
 15 41  1  0  0  0  0
 16 17  1  0  0  0  0
 16 42  1  0  0  0  0
 16 43  1  0  0  0  0
 17 18  1  0  0  0  0
 17 44  1  0  0  0  0
 17 45  1  0  0  0  0
 19 20  2  0  0  0  0
 21 30  1  0  0  0  0
 21 22  2  0  0  0  0
 22 23  1  0  0  0  0
 22 46  1  0  0  0  0
 23 24  2  0  0  0  0
 23 47  1  0  0  0  0
 24 29  1  0  0  0  0
 24 25  1  0  0  0  0
 25 26  2  0  0  0  0
 25 48  1  0  0  0  0
 26 27  1  0  0  0  0
 26 49  1  0  0  0  0
 27 28  2  0  0  0  0
 27 50  1  0  0  0  0
 28 29  1  0  0  0  0
 28 51  1  0  0  0  0
 29 30  2  0  0  0  0
 30 52  1  0  0  0  0
M  END
> <s_m_source_file>
AV-unprocessed.smi

> <i_m_source_file_index>
142

> <i_lp_mmshare_version>
43012

> <i_f3d_flags>
0

> <s_epik_input>
W2NIXTFbY0hdW2NIXVtjSF1jKGMxMilbY0hdYyhbY0hdW2NIXTIpW0NASF0oW0NIM10pW05IXUMoPU8pW0NIMl1uM2MoPU8pYyhGKVtjSF1uKGMzPU8pW0NAQEhdNFtDSDJdW0NIMl1bQ0gyXU80

> <s_epik_cmdline>
J2VwaWtfcHl0aG9uJywgJy1waCcsICc3LjAnLCAnLXRuJywgJzgnLCAnLW1hJywgJzIwMCcsICctbWV0YWxfYmluZGluZycsICctaW1hZScsICc8aW5maWxlLm1hZT4nLCAnLW9tYWUnLCAnPG91dGZpbGUubWFlPic=

> <r_lp_tautomer_probability>
1

> <r_epik_Ionization_Penalty>
3.35688e-08

> <r_epik_Ionization_Penalty_Charging>
3.59856e-09

> <r_epik_Ionization_Penalty_Neutral>
2.99702e-08

> <r_epik_State_Penalty>
-0

> <r_epik_Charging_Adjusted_Penalty>
3.59856e-09

> <i_epik_Tot_Q>
0

> <i_epik_Tot_abs_Q>
0

> <r_epik_Metal_State_Penalty>
-0

> <b_epik_Metal_Only>
0

> <s_epik_Chemistry_Notes>
This compound contains an acetal/aminal-like group ( X-CH(R)-Y where X, Y are N, S, or O) that may be acid/base labile, releasing an aldehyde.

> <s_lp_Force_Field>
OPLS_2005

> <r_lp_Energy>
25.6775

> <b_lp_Chiralities_Consistent>
1

> <s_lp_Variant>
AV-unprocessed.smi:142-3

> <Gold.Version>
5.8.1

> <Gold.Id.Protein>
6NUR|6NUR_protein|mol2

> <Gold.PLP.Fitness>
62.5644

> <Gold.PLP.PLP>
-56.0510

> <Gold.PLP.part.hbond>
-3.0000

> <Gold.PLP.part.metal>
0.0000

> <Gold.PLP.part.buried>
-6.4468

> <Gold.PLP.part.nonpolar>
-46.6328

> <Gold.PLP.part.repulsive>
0.0640

> <Gold.PLP.ligand.clash>
0.0000

> <Gold.PLP.ligand.torsion>
0.9954

> <Gold.PLP.Chemscore.Hbond>
2.8080

> <Gold.PLP.Chemscore.CHOScore>
0.0000

> <Gold.PLP.Chemscore.Metal>
0.0000

> <Gold.Chemscore.Hbonds>
donor molecule, donor type, donor heavy atom, donor atom, acceptor molecule, acceptor atom, score
      P1  H  6896  6908       L1     5  1.00
      P1  H  6931  6943       L1     9  0.99
      P1  H  6934  6947       L1     9  0.86

> <Gold.PLP.Chemscore.Internal.Correction>
0.0802

> <Gold.Rescore>
     Score         DG    S(hbond)    S(metal)    S(lipo)     H(rot)  DE(clash)    DE(int)     intcor
     23.29     -25.14       2.73        0.00     134.35       2.02       0.03       1.82       ----

> <Gold.Chemscore.Fitness>
23.2864

> <Gold.Chemscore.DG>
-25.1448

> <Gold.Chemscore.ZeroCoef>
-5.4800

> <Gold.Chemscore.Hbond>
2.7277

> <Gold.Chemscore.Metal>
0.0000

> <Gold.Chemscore.Lipo>
134.3508

> <Gold.Chemscore.Internal_Hbond>
0.0000

> <Gold.Chemscore.DEClash>
0.0342

> <Gold.Chemscore.DEInternal>
1.8242

> <Gold.Chemscore.Rot>
2.0175

> <Gold.Chemscore.Internal.Correction>
   9.000000E+99

> <Gold.Chemscore.Hbonds>
donor molecule, donor type, donor heavy atom, donor atom, acceptor molecule, acceptor atom, score
      P1  H  6896  6908       L1     5  0.98
      P1  H  6931  6943       L1     9  0.93
      P1  H  6934  6947       L1     9  0.83

> <Gold.Chemscore.Hbond.Weighted>
-9.1106

> <Gold.Chemscore.Metal.Weighted>
-0.0000

> <Gold.Chemscore.Lipo.Weighted>
-15.7190

> <Gold.Chemscore.Internal_Hbond.Weighted>
0.0000

> <Gold.Chemscore.DEClash.Weighted>
0.0342

> <Gold.Chemscore.DEInternal.Weighted>
1.8242

> <Gold.Chemscore.Rot.Weighted>
5.1648

> <Gold.Chemscore.Internal.Correction.Weighted>
   9.000000E+99

> <Gold.Protein.RotatedTorsions>
[ 6907 6896 6895 6894 ] final -163.60 input  -60.11 | X-H torsion
[ 7974 7965 7964 7962 ] final  107.27 input  175.53 | X-H torsion
[ 8008 7997 7996 7995 ] final   42.81 input   59.86 | X-H torsion
[ 10167 10162 10161 10158 ] final   88.07 input  -65.29 | X-H torsion
[ 10718 10713 10712 10709 ] final -106.74 input   66.30 | X-H torsion
[ 10763 10752 10751 10750 ] final   -7.27 input  -60.55 | X-H torsion
[ 11005 11000 10999 10996 ] final -171.20 input  -57.11 | X-H torsion

> <Gold.Protein.ActiveResidues>
 VAL166  LYS551  ARG553  GLY616  TRP617  ASP618  TYR619  PRO620  LYS621  CYS622 
 ASP623  PHE694  ASN695  SER759  ASP760  ASP761  ALA762  ILE779  LEU786  VAL792 
 PHE793  MET794  SER795  GLU796  ALA797  LYS798  CYS799  TRP800  GLU811  SER814 

> <Gold.Protein.RotatedAtoms>
  151.3986  133.3765  159.2729 H   0  0  0  0  0  0  0  0  0  0  0  0  # atno 6907 bound_to 6896
  150.9451  134.8858  159.7647 H   0  0  0  0  0  0  0  0  0  0  0  0  # atno 6908 bound_to 6896
  152.5088  134.3938  159.9445 H   0  0  0  0  0  0  0  0  0  0  0  0  # atno 6909 bound_to 6896
  145.2958  139.2585  143.3840 H   0  0  0  0  0  0  0  0  0  0  0  0  # atno 7974 bound_to 7965
  155.2923  140.3379  155.4252 H   0  0  0  0  0  0  0  0  0  0  0  0  # atno 8008 bound_to 7997
  156.2040  140.1744  156.7879 H   0  0  0  0  0  0  0  0  0  0  0  0  # atno 8009 bound_to 7997
  154.5596  140.0690  156.8782 H   0  0  0  0  0  0  0  0  0  0  0  0  # atno 8010 bound_to 7997
  139.8710  144.6493  150.8950 H   0  0  0  0  0  0  0  0  0  0  0  0  # atno 10167 bound_to 10162
  156.0404  130.5627  150.7723 H   0  0  0  0  0  0  0  0  0  0  0  0  # atno 10718 bound_to 10713
  153.4240  135.7010  153.6275 H   0  0  0  0  0  0  0  0  0  0  0  0  # atno 10763 bound_to 10752
  153.4717  135.3713  155.2395 H   0  0  0  0  0  0  0  0  0  0  0  0  # atno 10764 bound_to 10752
  154.8723  135.4044  154.3613 H   0  0  0  0  0  0  0  0  0  0  0  0  # atno 10765 bound_to 10752
  140.5109  134.5803  157.5018 H   0  0  0  0  0  0  0  0  0  0  0  0  # atno 11005 bound_to 11000
  146.3169  140.3460  142.8652 LP  0  0  0  0  0  0  0  0  0  0  0  0  # atno 17320 bound_to 7965
  144.9134  140.7784  143.5793 LP  0  0  0  0  0  0  0  0  0  0  0  0  # atno 17321 bound_to 7965
  140.7760  143.3664  151.1731 LP  0  0  0  0  0  0  0  0  0  0  0  0  # atno 17342 bound_to 10162
  139.7284  143.9111  152.3011 LP  0  0  0  0  0  0  0  0  0  0  0  0  # atno 17343 bound_to 10162
  157.5213  131.0931  151.0074 LP  0  0  0  0  0  0  0  0  0  0  0  0  # atno 17370 bound_to 10713
  157.0404  130.5747  149.5355 LP  0  0  0  0  0  0  0  0  0  0  0  0  # atno 17371 bound_to 10713
  139.9659  134.7373  156.0139 LP  0  0  0  0  0  0  0  0  0  0  0  0  # atno 17394 bound_to 11000
  141.1386  133.6569  156.3664 LP  0  0  0  0  0  0  0  0  0  0  0  0  # atno 17395 bound_to 11000

$$$$
