AV-unprocessed.smi:148|AV-procd|sdf|1202|dock6
  -GOLD-   2262018363D 1   1.00000     0.00000
 Structure written by MMmdl.
 63 67  0  0  0  0  0  0  0  0  1 V2000
  148.4528  137.9159  154.1563 O   0  0  0  0  0  0  0  0  0  0  0  0
  148.8014  137.0704  155.2325 C   0  0  0  0  0  0  0  0  0  0  0  0
  150.1411  136.3445  154.9644 C   0  0  2  0  0  0  0  0  0  0  0  0
  150.2752  135.0602  155.8233 C   0  0  0  0  0  0  0  0  0  0  0  0
  149.6281  133.9121  155.2134 N   0  0  0  0  0  0  0  0  0  0  0  0
  150.2196  132.9746  154.3977 C   0  0  0  0  0  0  0  0  0  0  0  0
  149.4247  132.0351  153.9634 N   0  0  0  0  0  0  0  0  0  0  0  0
  148.1922  132.3483  154.5243 C   0  0  0  0  0  0  0  0  0  0  0  0
  146.8937  131.7676  154.4641 C   0  0  0  0  0  0  0  0  0  0  0  0
  146.5726  130.6662  153.7479 N   0  0  0  0  0  0  0  0  0  0  0  0
  147.4071  129.5400  154.1656 C   0  0  0  0  0  0  0  0  0  0  0  0
  146.9137  128.2216  153.5568 C   0  0  0  0  0  0  0  0  0  0  0  0
  146.8378  128.3384  152.0316 C   0  0  0  0  0  0  0  0  0  0  0  0
  145.9433  129.5226  151.6407 C   0  0  0  0  0  0  0  0  0  0  0  0
  146.4226  130.8469  152.2916 C   0  0  1  0  0  0  0  0  0  0  0  0
  145.5347  132.0767  151.9201 C   0  0  2  0  0  0  0  0  0  0  0  0
  144.3687  131.8064  150.9487 C   0  0  0  0  0  0  0  0  0  0  0  0
  144.1526  133.1068  150.1571 C   0  0  0  0  0  0  0  0  0  0  0  0
  145.1323  134.1305  150.7384 C   0  0  0  0  0  0  0  0  0  0  0  0
  146.2666  133.2823  151.3117 C   0  0  1  0  0  0  0  0  0  0  0  0
  147.0101  133.9978  152.2765 O   0  0  0  0  0  0  0  0  0  0  0  0
  145.8999  132.3543  155.1755 N   0  0  0  0  0  0  0  0  0  0  0  0
  146.1504  133.4565  155.8885 C   0  0  0  0  0  0  0  0  0  0  0  0
  147.3017  134.1182  156.0269 N   0  0  0  0  0  0  0  0  0  0  0  0
  148.3055  133.5203  155.3228 C   0  0  0  0  0  0  0  0  0  0  0  0
  151.3562  137.3039  155.0962 C   0  0  2  0  0  0  0  0  0  0  0  0
  151.4341  138.0961  156.4032 C   0  0  0  0  0  0  0  0  0  0  0  0
  151.6210  139.5441  155.9525 C   0  0  0  0  0  0  0  0  0  0  0  0
  152.1883  139.4280  154.6580 O   0  0  0  0  0  0  0  0  0  0  0  0
  151.4952  138.3767  154.0063 C   0  0  0  0  0  0  0  0  0  0  0  0
  148.8448  137.5742  153.3672 H   0  0  0  0  0  0  0  0  0  0  0  0
  148.8507  137.6540  156.1519 H   0  0  0  0  0  0  0  0  0  0  0  0
  147.9849  136.3591  155.3538 H   0  0  0  0  0  0  0  0  0  0  0  0
  150.1193  136.0216  153.9222 H   0  0  0  0  0  0  0  0  0  0  0  0
  151.3196  134.7971  155.9841 H   0  0  0  0  0  0  0  0  0  0  0  0
  149.8427  135.2076  156.8122 H   0  0  0  0  0  0  0  0  0  0  0  0
  151.2652  133.0145  154.1283 H   0  0  0  0  0  0  0  0  0  0  0  0
  148.4388  129.7221  153.8608 H   0  0  0  0  0  0  0  0  0  0  0  0
  147.4078  129.4583  155.2537 H   0  0  0  0  0  0  0  0  0  0  0  0
  147.5807  127.4067  153.8389 H   0  0  0  0  0  0  0  0  0  0  0  0
  145.9301  127.9748  153.9588 H   0  0  0  0  0  0  0  0  0  0  0  0
  147.8383  128.4795  151.6211 H   0  0  0  0  0  0  0  0  0  0  0  0
  146.4494  127.4147  151.6015 H   0  0  0  0  0  0  0  0  0  0  0  0
  145.9420  129.6012  150.5549 H   0  0  0  0  0  0  0  0  0  0  0  0
  144.9194  129.2976  151.9367 H   0  0  0  0  0  0  0  0  0  0  0  0
  147.4190  131.0402  151.8934 H   0  0  0  0  0  0  0  0  0  0  0  0
  145.0792  132.4586  152.8351 H   0  0  0  0  0  0  0  0  0  0  0  0
  144.5865  130.9925  150.2590 H   0  0  0  0  0  0  0  0  0  0  0  0
  143.4694  131.5231  151.4961 H   0  0  0  0  0  0  0  0  0  0  0  0
  144.3800  132.9343  149.1045 H   0  0  0  0  0  0  0  0  0  0  0  0
  143.1217  133.4577  150.2148 H   0  0  0  0  0  0  0  0  0  0  0  0
  145.4777  134.8506  149.9962 H   0  0  0  0  0  0  0  0  0  0  0  0
  144.6402  134.6878  151.5374 H   0  0  0  0  0  0  0  0  0  0  0  0
  146.9226  132.9849  150.4950 H   0  0  0  0  0  0  0  0  0  0  0  0
  147.5978  134.5860  151.8274 H   0  0  0  0  0  0  0  0  0  0  0  0
  145.3066  133.8694  156.4213 H   0  0  0  0  0  0  0  0  0  0  0  0
  152.2664  136.7036  155.0635 H   0  0  0  0  0  0  0  0  0  0  0  0
  150.5629  137.9835  157.0477 H   0  0  0  0  0  0  0  0  0  0  0  0
  152.3003  137.7684  156.9794 H   0  0  0  0  0  0  0  0  0  0  0  0
  150.6586  140.0536  155.8811 H   0  0  0  0  0  0  0  0  0  0  0  0
  152.2624  140.1149  156.6242 H   0  0  0  0  0  0  0  0  0  0  0  0
  152.0450  138.0181  153.1357 H   0  0  0  0  0  0  0  0  0  0  0  0
  150.5332  138.7562  153.6641 H   0  0  0  0  0  0  0  0  0  0  0  0
  1  2  1  0  0  0  0
  1 31  1  0  0  0  0
  2  3  1  0  0  0  0
  2 32  1  0  0  0  0
  2 33  1  0  0  0  0
  3  4  1  0  0  0  0
  3 26  1  0  0  0  0
  3 34  1  0  0  0  0
  4  5  1  0  0  0  0
  4 35  1  0  0  0  0
  4 36  1  0  0  0  0
  5 25  1  0  0  0  0
  5  6  1  0  0  0  0
  6  7  2  0  0  0  0
  6 37  1  0  0  0  0
  7  8  1  0  0  0  0
  8 25  2  0  0  0  0
  8  9  1  0  0  0  0
  9 10  1  0  0  0  0
  9 22  2  0  0  0  0
 10 15  1  0  0  0  0
 10 11  1  0  0  0  0
 11 12  1  0  0  0  0
 11 38  1  0  0  0  0
 11 39  1  0  0  0  0
 12 13  1  0  0  0  0
 12 40  1  0  0  0  0
 12 41  1  0  0  0  0
 13 14  1  0  0  0  0
 13 42  1  0  0  0  0
 13 43  1  0  0  0  0
 14 15  1  0  0  0  0
 14 44  1  0  0  0  0
 14 45  1  0  0  0  0
 15 16  1  0  0  0  0
 15 46  1  0  0  0  0
 16 20  1  0  0  0  0
 16 17  1  0  0  0  0
 16 47  1  0  0  0  0
 17 18  1  0  0  0  0
 17 48  1  0  0  0  0
 17 49  1  0  0  0  0
 18 19  1  0  0  0  0
 18 50  1  0  0  0  0
 18 51  1  0  0  0  0
 19 20  1  0  0  0  0
 19 52  1  0  0  0  0
 19 53  1  0  0  0  0
 20 21  1  0  0  0  0
 20 54  1  0  0  0  0
 21 55  1  0  0  0  0
 22 23  1  0  0  0  0
 23 24  2  0  0  0  0
 23 56  1  0  0  0  0
 24 25  1  0  0  0  0
 26 30  1  0  0  0  0
 26 27  1  0  0  0  0
 26 57  1  0  0  0  0
 27 28  1  0  0  0  0
 27 58  1  0  0  0  0
 27 59  1  0  0  0  0
 28 29  1  0  0  0  0
 28 60  1  0  0  0  0
 28 61  1  0  0  0  0
 29 30  1  0  0  0  0
 30 62  1  0  0  0  0
 30 63  1  0  0  0  0
M  END
> <s_m_source_file>
AV-unprocessed.smi

> <i_m_source_file_index>
148

> <i_lp_mmshare_version>
43012

> <i_f3d_flags>
0

> <s_epik_input>
W0NIMl0xT1tDSDJdW0NIMl1bQ0BIXTFbQ0BIXShbQ0gyXVtPSF0pW0NIMl1uKFtjSF1uMiljKGMyMyluW2NIXW5jM040W0NIMl1bQ0gyXVtDSDJdW0NIMl1bQ0BIXTRbQ0BASF01W0NIMl1bQ0gyXVtDSDJdW0NASF01W09IXQ==

> <s_epik_cmdline>
J2VwaWtfcHl0aG9uJywgJy1waCcsICc3LjAnLCAnLXRuJywgJzgnLCAnLW1hJywgJzIwMCcsICctbWV0YWxfYmluZGluZycsICctaW1hZScsICc8aW5maWxlLm1hZT4nLCAnLW9tYWUnLCAnPG91dGZpbGUubWFlPic=

> <r_lp_tautomer_probability>
1

> <r_epik_Ionization_Penalty>
0.00556303

> <r_epik_Ionization_Penalty_Charging>
0

> <r_epik_Ionization_Penalty_Neutral>
0.00556303

> <r_epik_State_Penalty>
0.00401767

> <r_epik_Charging_Adjusted_Penalty>
0.00401767

> <i_epik_Tot_Q>
0

> <i_epik_Tot_abs_Q>
0

> <r_epik_Metal_State_Penalty>
-0

> <b_epik_Metal_Only>
0

> <s_lp_Force_Field>
OPLS_2005

> <r_lp_Energy>
68.457

> <b_lp_Chiralities_Consistent>
1

> <s_lp_Variant>
AV-unprocessed.smi:148-1

> <Gold.Version>
5.8.1

> <Gold.Id.Protein>
6NUR|6NUR_protein|mol2

> <Gold.PLP.Fitness>
45.9867

> <Gold.PLP.PLP>
-42.7016

> <Gold.PLP.part.hbond>
-3.0000

> <Gold.PLP.part.metal>
0.0000

> <Gold.PLP.part.buried>
-7.6070

> <Gold.PLP.part.nonpolar>
-31.3586

> <Gold.PLP.part.repulsive>
0.4373

> <Gold.PLP.ligand.clash>
0.0000

> <Gold.PLP.ligand.torsion>
2.6802

> <Gold.PLP.Chemscore.Hbond>
2.7488

> <Gold.PLP.Chemscore.CHOScore>
0.0000

> <Gold.PLP.Chemscore.Metal>
0.0000

> <Gold.Chemscore.Hbonds>
donor molecule, donor type, donor heavy atom, donor atom, acceptor molecule, acceptor atom, score
      L1  H     1    31       P1  7948  1.00
      L1  H    21    55       P1  7948  0.88
      P1  H  7989  7998       L1    29  0.72

> <Gold.PLP.Chemscore.Internal.Correction>
0.3991

> <Gold.Rescore>
     Score         DG    S(hbond)    S(metal)    S(lipo)     H(rot)  DE(clash)    DE(int)     intcor
     13.91     -16.89       1.89        0.00     116.17       3.32       0.14       2.84       ----

> <Gold.Chemscore.Fitness>
13.9092

> <Gold.Chemscore.DG>
-16.8905

> <Gold.Chemscore.ZeroCoef>
-5.4800

> <Gold.Chemscore.Hbond>
1.8918

> <Gold.Chemscore.Metal>
0.0000

> <Gold.Chemscore.Lipo>
116.1714

> <Gold.Chemscore.Internal_Hbond>
0.0000

> <Gold.Chemscore.DEClash>
0.1404

> <Gold.Chemscore.DEInternal>
2.8409

> <Gold.Chemscore.Rot>
3.3203

> <Gold.Chemscore.Internal.Correction>
   9.000000E+99

> <Gold.Chemscore.Hbonds>
donor molecule, donor type, donor heavy atom, donor atom, acceptor molecule, acceptor atom, score
      L1  H     1    31       P1  7948  0.94
      L1  H    21    55       P1  7948  0.33
      P1  H  7989  7998       L1    29  0.12

> <Gold.Chemscore.Hbond.Weighted>
-6.3185

> <Gold.Chemscore.Metal.Weighted>
-0.0000

> <Gold.Chemscore.Lipo.Weighted>
-13.5921

> <Gold.Chemscore.Internal_Hbond.Weighted>
0.0000

> <Gold.Chemscore.DEClash.Weighted>
0.1404

> <Gold.Chemscore.DEInternal.Weighted>
2.8409

> <Gold.Chemscore.Rot.Weighted>
8.5000

> <Gold.Chemscore.Internal.Correction.Weighted>
   9.000000E+99

> <Gold.Protein.RotatedTorsions>
[ 6907 6896 6895 6894 ] final  134.87 input  -60.11 | X-H torsion
[ 7974 7965 7964 7962 ] final -171.24 input  175.53 | X-H torsion
[ 8008 7997 7996 7995 ] final -133.16 input   59.86 | X-H torsion
[ 10167 10162 10161 10158 ] final  -66.66 input  -65.29 | X-H torsion
[ 10718 10713 10712 10709 ] final  -52.53 input   66.30 | X-H torsion
[ 10763 10752 10751 10750 ] final   91.81 input  -60.55 | X-H torsion
[ 11005 11000 10999 10996 ] final   79.95 input  -57.11 | X-H torsion

> <Gold.Protein.ActiveResidues>
 VAL166  LYS551  ARG553  GLY616  TRP617  ASP618  TYR619  PRO620  LYS621  CYS622 
 ASP623  PHE694  ASN695  SER759  ASP760  ASP761  ALA762  ILE779  LEU786  VAL792 
 PHE793  MET794  SER795  GLU796  ALA797  LYS798  CYS799  TRP800  GLU811  SER814 

> <Gold.Protein.RotatedAtoms>
  152.3067  133.5710  159.5653 H   0  0  0  0  0  0  0  0  0  0  0  0  # atno 6907 bound_to 6896
  150.7303  134.0213  159.3711 H   0  0  0  0  0  0  0  0  0  0  0  0  # atno 6908 bound_to 6896
  151.8109  135.0681  160.0463 H   0  0  0  0  0  0  0  0  0  0  0  0  # atno 6909 bound_to 6896
  144.7159  140.1952  143.6344 H   0  0  0  0  0  0  0  0  0  0  0  0  # atno 7974 bound_to 7965
  155.3409  140.0472  157.3045 H   0  0  0  0  0  0  0  0  0  0  0  0  # atno 8008 bound_to 7997
  154.5278  140.2247  155.8824 H   0  0  0  0  0  0  0  0  0  0  0  0  # atno 8009 bound_to 7997
  156.1757  140.3085  155.9061 H   0  0  0  0  0  0  0  0  0  0  0  0  # atno 8010 bound_to 7997
  140.5641  143.2314  151.6670 H   0  0  0  0  0  0  0  0  0  0  0  0  # atno 10167 bound_to 10162
  156.1614  130.4149  149.9788 H   0  0  0  0  0  0  0  0  0  0  0  0  # atno 10718 bound_to 10713
  153.2123  135.4384  155.0394 H   0  0  0  0  0  0  0  0  0  0  0  0  # atno 10763 bound_to 10752
  154.8206  135.3336  154.7050 H   0  0  0  0  0  0  0  0  0  0  0  0  # atno 10764 bound_to 10752
  153.7487  135.6999  153.5006 H   0  0  0  0  0  0  0  0  0  0  0  0  # atno 10765 bound_to 10752
  139.9153  134.7883  156.1846 H   0  0  0  0  0  0  0  0  0  0  0  0  # atno 11005 bound_to 11000
  145.8731  139.2283  143.1649 LP  0  0  0  0  0  0  0  0  0  0  0  0  # atno 17320 bound_to 7965
  146.0066  140.8473  142.9992 LP  0  0  0  0  0  0  0  0  0  0  0  0  # atno 17321 bound_to 7965
  139.5084  144.3612  152.0560 LP  0  0  0  0  0  0  0  0  0  0  0  0  # atno 17342 bound_to 10162
  140.2742  144.3931  150.6141 LP  0  0  0  0  0  0  0  0  0  0  0  0  # atno 17343 bound_to 10162
  156.7616  130.9153  151.3641 LP  0  0  0  0  0  0  0  0  0  0  0  0  # atno 17370 bound_to 10713
  157.6735  130.9073  150.0095 LP  0  0  0  0  0  0  0  0  0  0  0  0  # atno 17371 bound_to 10713
  141.0621  133.6836  156.1973 LP  0  0  0  0  0  0  0  0  0  0  0  0  # atno 17394 bound_to 11000
  140.6644  134.4934  157.5585 LP  0  0  0  0  0  0  0  0  0  0  0  0  # atno 17395 bound_to 11000

$$$$
