AV-unprocessed.smi:994|AV-procd|sdf|4342|dock1
  -GOLD-   22720 2243D 1   1.00000     0.00000
 Structure written by MMmdl.
 37 38  0  0  0  0  0  0  0  0  2 V2000
  151.7400  139.7575  158.8832 O   0  0  0  0  0  0  0  0  0  0  0  0
  151.8316  140.5698  157.9620 C   0  0  0  0  0  0  0  0  0  0  0  0
  151.5867  140.2611  156.6783 N   0  0  0  0  0  0  0  0  0  0  0  0
  151.2410  138.9334  156.1729 C   0  0  1  0  0  0  0  0  0  0  0  0
  150.9801  139.0528  154.6520 C   0  0  0  0  0  0  0  0  0  0  0  0
  149.5907  139.5008  154.2562 C   0  0  0  0  0  0  0  0  0  0  0  0
  148.9174  140.6828  154.4761 C   0  0  0  0  0  0  0  0  0  0  0  0
  147.6381  140.6157  153.9175 N   0  0  0  0  0  0  0  0  0  0  0  0
  147.5818  139.3998  153.3872 C   0  0  0  0  0  0  0  0  0  0  0  0
  148.7061  138.6991  153.5537 N   0  0  0  0  0  0  0  0  0  0  0  0
  152.4153  137.9731  156.4385 C   0  0  0  0  0  0  0  0  0  0  0  0
  152.2935  136.8002  156.0225 O   0  0  0  0  0  0  0  0  0  0  0  0
  153.4166  138.4262  157.0381 O   0  5  0  0  0  0  0  0  0  0  0  0
  152.2457  142.0194  158.2487 C   0  0  0  0  0  0  0  0  0  0  0  0
  152.3992  142.2587  159.7665 C   0  0  0  0  0  0  0  0  0  0  0  0
  152.7978  143.7127  160.0678 C   0  0  0  0  0  0  0  0  0  0  0  0
  151.7907  144.7022  159.4610 C   0  0  0  0  0  0  0  0  0  0  0  0
  151.6251  144.4701  157.9508 C   0  0  0  0  0  0  0  0  0  0  0  0
  151.2289  143.0149  157.6499 C   0  0  0  0  0  0  0  0  0  0  0  0
  148.8760  137.7517  153.2453 H   0  0  0  0  0  0  0  0  0  0  0  0
  151.6967  140.9890  155.9878 H   0  0  0  0  0  0  0  0  0  0  0  0
  150.3391  138.5688  156.6685 H   0  0  0  0  0  0  0  0  0  0  0  0
  151.6750  139.7824  154.2339 H   0  0  0  0  0  0  0  0  0  0  0  0
  151.1991  138.1125  154.1435 H   0  0  0  0  0  0  0  0  0  0  0  0
  149.2522  141.5703  154.9925 H   0  0  0  0  0  0  0  0  0  0  0  0
  146.7130  139.0139  152.8744 H   0  0  0  0  0  0  0  0  0  0  0  0
  153.2145  142.1990  157.7784 H   0  0  0  0  0  0  0  0  0  0  0  0
  151.4640  142.0308  160.2806 H   0  0  0  0  0  0  0  0  0  0  0  0
  153.1494  141.5825  160.1789 H   0  0  0  0  0  0  0  0  0  0  0  0
  152.8638  143.8640  161.1455 H   0  0  0  0  0  0  0  0  0  0  0  0
  153.7924  143.9094  159.6660 H   0  0  0  0  0  0  0  0  0  0  0  0
  150.8250  144.5894  159.9555 H   0  0  0  0  0  0  0  0  0  0  0  0
  152.1166  145.7259  159.6471 H   0  0  0  0  0  0  0  0  0  0  0  0
  150.8723  145.1502  157.5515 H   0  0  0  0  0  0  0  0  0  0  0  0
  152.5590  144.7077  157.4401 H   0  0  0  0  0  0  0  0  0  0  0  0
  151.1572  142.8739  156.5705 H   0  0  0  0  0  0  0  0  0  0  0  0
  150.2330  142.8238  158.0526 H   0  0  0  0  0  0  0  0  0  0  0  0
  1  2  2  0  0  0  0
  2  3  1  0  0  0  0
  2 14  1  0  0  0  0
  3  4  1  0  0  0  0
  3 21  1  0  0  0  0
  4  5  1  0  0  0  0
  4 11  1  0  0  0  0
  4 22  1  0  0  0  0
  5 23  1  0  0  0  0
  5 24  1  0  0  0  0
  5  6  1  0  0  0  0
  6  7  2  0  0  0  0
  6 10  1  0  0  0  0
  7 25  1  0  0  0  0
  7  8  1  0  0  0  0
  8  9  2  0  0  0  0
  9 10  1  0  0  0  0
  9 26  1  0  0  0  0
 10 20  1  0  0  0  0
 11 12  2  0  0  0  0
 11 13  1  0  0  0  0
 14 19  1  0  0  0  0
 14 15  1  0  0  0  0
 14 27  1  0  0  0  0
 15 16  1  0  0  0  0
 15 28  1  0  0  0  0
 15 29  1  0  0  0  0
 16 17  1  0  0  0  0
 16 30  1  0  0  0  0
 16 31  1  0  0  0  0
 17 18  1  0  0  0  0
 17 32  1  0  0  0  0
 17 33  1  0  0  0  0
 18 19  1  0  0  0  0
 18 34  1  0  0  0  0
 18 35  1  0  0  0  0
 19 36  1  0  0  0  0
 19 37  1  0  0  0  0
M  CHG  1  13  -1
M  END
> <s_m_source_file>
AV-unprocessed.smi

> <i_m_source_file_index>
994

> <i_lp_mmshare_version>
43012

> <i_f3d_flags>
0

> <s_epik_input>
W0NIMl0xW0NIMl1bQ0gyXVtDSDJdW0NIMl1bQ0hdMUMoPU8pW05IXVtDQEBIXShDKD1PKVtPSF0pW0NIMl1jMltjSF1bbkhdW2NIXW4y

> <s_epik_cmdline>
J2VwaWtfcHl0aG9uJywgJy1waCcsICc3LjAnLCAnLXRuJywgJzgnLCAnLW1hJywgJzIwMCcsICctbWV0YWxfYmluZGluZycsICctaW1hZScsICc8aW5maWxlLm1hZT4nLCAnLW9tYWUnLCAnPG91dGZpbGUubWFlPic=

> <r_lp_tautomer_probability>
0.5

> <r_epik_Ionization_Penalty>
0.540742

> <r_epik_Ionization_Penalty_Charging>
0.540742

> <r_epik_Ionization_Penalty_Neutral>
4.77468e-08

> <r_epik_State_Penalty>
0.78427

> <r_epik_Charging_Adjusted_Penalty>
1.32501

> <i_epik_Tot_Q>
-1

> <i_epik_Tot_abs_Q>
1

> <r_epik_Metal_State_Penalty>
0.663709

> <b_epik_Metal_Only>
0

> <s_lp_Force_Field>
OPLS_2005

> <r_lp_Energy>
10.9518

> <b_lp_Chiralities_Consistent>
1

> <s_lp_Variant>
AV-unprocessed.smi:994-4

> <Gold.Version>
5.8.1

> <Gold.Id.Protein>
6NUR|6NUR_protein|mol2

> <Gold.PLP.Fitness>
52.7686

> <Gold.PLP.PLP>
-38.4197

> <Gold.PLP.part.hbond>
-4.0000

> <Gold.PLP.part.metal>
0.0000

> <Gold.PLP.part.buried>
-3.0846

> <Gold.PLP.part.nonpolar>
-31.5381

> <Gold.PLP.part.repulsive>
0.3293

> <Gold.PLP.ligand.clash>
0.0000

> <Gold.PLP.ligand.torsion>
0.3378

> <Gold.PLP.Chemscore.Hbond>
4.9840

> <Gold.PLP.Chemscore.CHOScore>
0.0000

> <Gold.PLP.Chemscore.Metal>
0.0000

> <Gold.Chemscore.Hbonds>
donor molecule, donor type, donor heavy atom, donor atom, acceptor molecule, acceptor atom, score
      L1  H    10    20       P1  7948  0.99
      P1  H  7997  8008       L1    13  1.95
      P1  H 10752 10765       L1    12  2.00

> <Gold.PLP.Chemscore.Internal.Correction>
0.0726

> <Gold.Rescore>
     Score         DG    S(hbond)    S(metal)    S(lipo)     H(rot)  DE(clash)    DE(int)     intcor
     17.28     -19.06       2.79        0.00      94.63       2.66       0.06       1.72       ----

> <Gold.Chemscore.Fitness>
17.2828

> <Gold.Chemscore.DG>
-19.0580

> <Gold.Chemscore.ZeroCoef>
-5.4800

> <Gold.Chemscore.Hbond>
2.7879

> <Gold.Chemscore.Metal>
0.0000

> <Gold.Chemscore.Lipo>
94.6256

> <Gold.Chemscore.Internal_Hbond>
0.0000

> <Gold.Chemscore.DEClash>
0.0556

> <Gold.Chemscore.DEInternal>
1.7195

> <Gold.Chemscore.Rot>
2.6581

> <Gold.Chemscore.Internal.Correction>
   9.000000E+99

> <Gold.Chemscore.Hbonds>
donor molecule, donor type, donor heavy atom, donor atom, acceptor molecule, acceptor atom, score
      L1  H    10    20       P1  7948  0.90
      P1  H  7997  8008       L1    13  0.93
      P1  H 10752 10765       L1    12  0.95

> <Gold.Chemscore.Hbond.Weighted>
-9.3116

> <Gold.Chemscore.Metal.Weighted>
-0.0000

> <Gold.Chemscore.Lipo.Weighted>
-11.0712

> <Gold.Chemscore.Internal_Hbond.Weighted>
0.0000

> <Gold.Chemscore.DEClash.Weighted>
0.0556

> <Gold.Chemscore.DEInternal.Weighted>
1.7195

> <Gold.Chemscore.Rot.Weighted>
6.8048

> <Gold.Chemscore.Internal.Correction.Weighted>
   9.000000E+99

> <Gold.Protein.RotatedTorsions>
[ 6907 6896 6895 6894 ] final  170.51 input  -60.11 | X-H torsion
[ 7974 7965 7964 7962 ] final -133.52 input  175.53 | X-H torsion
[ 8008 7997 7996 7995 ] final  -68.50 input   59.86 | X-H torsion
[ 10167 10162 10161 10158 ] final  -41.88 input  -65.29 | X-H torsion
[ 10718 10713 10712 10709 ] final   83.16 input   66.30 | X-H torsion
[ 10763 10752 10751 10750 ] final -156.84 input  -60.55 | X-H torsion
[ 11005 11000 10999 10996 ] final   -5.84 input  -57.11 | X-H torsion

> <Gold.Protein.ActiveResidues>
 VAL166  LYS551  ARG553  GLY616  TRP617  ASP618  TYR619  PRO620  LYS621  CYS622 
 ASP623  PHE694  ASN695  SER759  ASP760  ASP761  ALA762  ILE779  LEU786  VAL792 
 PHE793  MET794  SER795  GLU796  ALA797  LYS798  CYS799  TRP800  GLU811  SER814 

> <Gold.Protein.RotatedAtoms>
  151.8149  133.3386  159.3566 H   0  0  0  0  0  0  0  0  0  0  0  0  # atno 6907 bound_to 6896
  150.7314  134.5629  159.5860 H   0  0  0  0  0  0  0  0  0  0  0  0  # atno 6908 bound_to 6896
  152.3048  134.7569  160.0401 H   0  0  0  0  0  0  0  0  0  0  0  0  # atno 6909 bound_to 6896
  144.9186  140.6986  143.4979 H   0  0  0  0  0  0  0  0  0  0  0  0  # atno 7974 bound_to 7965
  154.4872  140.0871  156.7514 H   0  0  0  0  0  0  0  0  0  0  0  0  # atno 8008 bound_to 7997
  155.4319  140.3450  155.4263 H   0  0  0  0  0  0  0  0  0  0  0  0  # atno 8009 bound_to 7997
  156.1279  140.1493  156.9097 H   0  0  0  0  0  0  0  0  0  0  0  0  # atno 8010 bound_to 7997
  140.6988  143.3069  151.3129 H   0  0  0  0  0  0  0  0  0  0  0  0  # atno 10167 bound_to 10162
  157.6873  131.0079  150.2481 H   0  0  0  0  0  0  0  0  0  0  0  0  # atno 10718 bound_to 10713
  154.7682  135.3137  154.8243 H   0  0  0  0  0  0  0  0  0  0  0  0  # atno 10763 bound_to 10752
  153.8986  135.6818  153.4761 H   0  0  0  0  0  0  0  0  0  0  0  0  # atno 10764 bound_to 10752
  153.1291  135.4788  154.9254 H   0  0  0  0  0  0  0  0  0  0  0  0  # atno 10765 bound_to 10752
  140.6955  133.9034  155.8647 H   0  0  0  0  0  0  0  0  0  0  0  0  # atno 11005 bound_to 11000
  145.3334  139.1753  143.4525 LP  0  0  0  0  0  0  0  0  0  0  0  0  # atno 17320 bound_to 7965
  146.3194  140.3366  142.8644 LP  0  0  0  0  0  0  0  0  0  0  0  0  # atno 17321 bound_to 7965
  139.6478  144.0418  152.2604 LP  0  0  0  0  0  0  0  0  0  0  0  0  # atno 17342 bound_to 10162
  139.9945  144.6338  150.7785 LP  0  0  0  0  0  0  0  0  0  0  0  0  # atno 17343 bound_to 10162
  156.3083  130.3768  149.7685 LP  0  0  0  0  0  0  0  0  0  0  0  0  # atno 17370 bound_to 10713
  156.5294  130.8250  151.3231 LP  0  0  0  0  0  0  0  0  0  0  0  0  # atno 17371 bound_to 10713
  141.0206  134.0894  157.4124 LP  0  0  0  0  0  0  0  0  0  0  0  0  # atno 17394 bound_to 11000
  139.8911  135.0116  156.6774 LP  0  0  0  0  0  0  0  0  0  0  0  0  # atno 17395 bound_to 11000

$$$$
